0:0
     RDKit          3D

 76 81  0  0  0  0  0  0  0  0999 V2000
   -0.7590   16.5270  -35.4140 C   0  0  0  0  0  0  0  0  0  0  0  0
   -0.4760   17.9030  -35.2000 O   0  0  0  0  0  0  0  0  0  0  0  0
   -1.3230   18.7980  -34.5300 C   0  0  0  0  0  0  0  0  0  0  0  0
   -2.5430   18.3750  -33.9600 C   0  0  0  0  0  0  0  0  0  0  0  0
   -3.3550   19.2850  -33.2770 C   0  0  0  0  0  0  0  0  0  0  0  0
   -2.9900   20.6320  -33.2010 C   0  0  0  0  0  0  0  0  0  0  0  0
   -4.0420   21.8180  -32.3620 S   0  0  0  0  0  0  0  0  0  0  0  0
   -3.0050   21.8660  -30.8940 C   0  0  0  0  0  0  0  0  0  0  0  0
   -2.3050   20.7550  -30.5440 N   0  0  0  0  0  0  0  0  0  0  0  0
   -1.4860   20.7440  -29.4580 C   0  0  0  0  0  0  0  0  0  0  0  0
   -0.7150   19.5230  -29.1160 C   0  0  0  0  0  0  0  0  0  0  0  0
    0.0840   18.8790  -30.0830 C   0  0  0  0  0  0  0  0  0  0  0  0
    0.8170   17.7350  -29.7490 C   0  0  0  0  0  0  0  0  0  0  0  0
    0.7560   17.2160  -28.4540 C   0  0  0  0  0  0  0  0  0  0  0  0
   -0.0260   17.8460  -27.4860 C   0  0  0  0  0  0  0  0  0  0  0  0
   -0.7590   18.9920  -27.8130 C   0  0  0  0  0  0  0  0  0  0  0  0
   -1.3620   21.8710  -28.7060 N   0  0  0  0  0  0  0  0  0  0  0  0
   -2.0310   23.0140  -29.0120 C   0  0  0  0  0  0  0  0  0  0  0  0
   -1.8350   24.1820  -28.1980 N   0  0  0  0  0  0  0  0  0  0  0  0
   -1.2410   25.3790  -28.8090 C   0  0  0  0  0  0  0  0  0  0  0  0
   -0.4260   26.1540  -27.7690 C   0  0  0  0  0  0  0  0  0  0  0  0
   -1.1300   26.2260  -26.4840 N   0  0  0  0  0  0  0  0  0  0  0  0
   -0.4510   26.7910  -25.3550 C   0  0  0  0  0  0  0  0  0  0  0  0
   -0.8650   26.4820  -24.0520 C   0  0  0  0  0  0  0  0  0  0  0  0
   -0.1650   27.0130  -22.9670 C   0  0  0  0  0  0  0  0  0  0  0  0
    0.9230   27.8550  -23.1890 C   0  0  0  0  0  0  0  0  0  0  0  0
    1.3060   28.1480  -24.5000 C   0  0  0  0  0  0  0  0  0  0  0  0
    0.6240   27.6060  -25.5460 N   0  0  0  0  0  0  0  0  0  0  0  0
   -2.4910   25.6900  -26.3380 C   0  0  0  0  0  0  0  0  0  0  0  0
   -2.5540   24.2770  -26.9190 C   0  0  0  0  0  0  0  0  0  0  0  0
   -2.8920   23.0340  -30.1240 C   0  0  0  0  0  0  0  0  0  0  0  0
   -3.6990   24.1950  -30.4310 C   0  0  0  0  0  0  0  0  0  0  0  0
   -4.3520   25.1200  -30.6750 N   0  0  0  0  0  0  0  0  0  0  0  0
   -1.7900   21.0620  -33.7750 C   0  0  0  0  0  0  0  0  0  0  0  0
   -0.9350   20.1480  -34.4070 C   0  0  0  0  0  0  0  0  0  0  0  0
    0.6390   20.6920  -35.0090 S   0  0  0  0  0  0  0  0  0  0  0  0
    0.5380   20.9180  -36.4930 O   0  0  0  0  0  0  0  0  0  0  0  0
    1.0230   21.9890  -34.3460 O   0  0  0  0  0  0  0  0  0  0  0  0
    1.8740   19.4950  -34.6740 N   0  0  0  0  0  0  0  0  0  0  0  0
    3.1000   19.7500  -35.4760 C   0  0  0  0  0  0  0  0  0  0  0  0
    4.2260   20.3990  -34.6430 C   0  0  0  0  0  0  0  0  0  0  0  0
    4.5880   19.6680  -33.4770 O   0  0  0  0  0  0  0  0  0  0  0  0
    3.5440   18.8560  -32.9600 C   0  0  0  0  0  0  0  0  0  0  0  0
    2.1430   19.4310  -33.2200 C   0  0  0  0  0  0  0  0  0  0  0  0
   -0.8635   16.0190  -34.4440 H   0  0  0  0  0  0  0  0  0  0  0  0
   -1.6960   16.4294  -35.9819 H   0  0  0  0  0  0  0  0  0  0  0  0
    0.0634   16.0675  -35.9819 H   0  0  0  0  0  0  0  0  0  0  0  0
   -2.8562   17.3247  -34.0537 H   0  0  0  0  0  0  0  0  0  0  0  0
   -4.2834   18.9402  -32.7982 H   0  0  0  0  0  0  0  0  0  0  0  0
    0.1313   19.2787  -31.1067 H   0  0  0  0  0  0  0  0  0  0  0  0
    1.4428   17.2432  -30.5083 H   0  0  0  0  0  0  0  0  0  0  0  0
    1.3248   16.3101  -28.1973 H   0  0  0  0  0  0  0  0  0  0  0  0
   -0.0665   17.4412  -26.4640 H   0  0  0  0  0  0  0  0  0  0  0  0
   -1.3752   19.4825  -27.0450 H   0  0  0  0  0  0  0  0  0  0  0  0
   -0.5814   25.0760  -29.6355 H   0  0  0  0  0  0  0  0  0  0  0  0
   -2.0459   26.0254  -29.1890 H   0  0  0  0  0  0  0  0  0  0  0  0
    0.5392   25.6476  -27.6206 H   0  0  0  0  0  0  0  0  0  0  0  0
   -0.2757   27.1787  -28.1398 H   0  0  0  0  0  0  0  0  0  0  0  0
   -1.7332   25.8273  -23.8859 H   0  0  0  0  0  0  0  0  0  0  0  0
   -0.4715   26.7674  -21.9395 H   0  0  0  0  0  0  0  0  0  0  0  0
    1.4749   28.2848  -22.3400 H   0  0  0  0  0  0  0  0  0  0  0  0
    2.1590   28.8169  -24.6872 H   0  0  0  0  0  0  0  0  0  0  0  0
   -2.7593   25.6591  -25.2717 H   0  0  0  0  0  0  0  0  0  0  0  0
   -3.1972   26.3376  -26.8782 H   0  0  0  0  0  0  0  0  0  0  0  0
   -2.1006   23.5764  -26.2023 H   0  0  0  0  0  0  0  0  0  0  0  0
   -3.6099   24.0276  -27.1001 H   0  0  0  0  0  0  0  0  0  0  0  0
   -1.5144   22.1260  -33.7305 H   0  0  0  0  0  0  0  0  0  0  0  0
    1.4890   18.5700  -34.9740 H   0  0  0  0  0  0  0  0  0  0  0  0
    3.4647   18.7929  -35.8772 H   0  0  0  0  0  0  0  0  0  0  0  0
    2.8334   20.4503  -36.2813 H   0  0  0  0  0  0  0  0  0  0  0  0
    5.1169   20.4922  -35.2815 H   0  0  0  0  0  0  0  0  0  0  0  0
    3.8428   21.3710  -34.2989 H   0  0  0  0  0  0  0  0  0  0  0  0
    3.6073   17.8638  -33.4307 H   0  0  0  0  0  0  0  0  0  0  0  0
    3.6790   18.8060  -31.8695 H   0  0  0  0  0  0  0  0  0  0  0  0
    1.3918   18.7864  -32.7403 H   0  0  0  0  0  0  0  0  0  0  0  0
    2.0908   20.4472  -32.8021 H   0  0  0  0  0  0  0  0  0  0  0  0
  1  2  1  0
  2  3  1  0
  3  4  2  0
  4  5  1  0
  5  6  2  0
  6  7  1  0
  7  8  1  0
  8  9  2  0
  9 10  1  0
 10 11  1  0
 11 12  2  0
 12 13  1  0
 13 14  2  0
 14 15  1  0
 15 16  2  0
 10 17  2  0
 17 18  1  0
 18 19  1  0
 19 20  1  0
 20 21  1  0
 21 22  1  0
 22 23  1  0
 23 24  2  0
 24 25  1  0
 25 26  2  0
 26 27  1  0
 27 28  2  0
 22 29  1  0
 29 30  1  0
 18 31  2  0
 31 32  1  0
 32 33  3  0
  6 34  1  0
 34 35  2  0
 35 36  1  0
 36 37  2  0
 36 38  2  0
 36 39  1  0
 39 40  1  0
 40 41  1  0
 41 42  1  0
 42 43  1  0
 43 44  1  0
 35  3  1  0
 44 39  1  0
 31  8  1  0
 16 11  1  0
 30 19  1  0
 28 23  1  0
  1 45  1  0
  1 46  1  0
  1 47  1  0
  4 48  1  0
  5 49  1  0
 12 50  1  0
 13 51  1  0
 14 52  1  0
 15 53  1  0
 16 54  1  0
 20 55  1  0
 20 56  1  0
 21 57  1  0
 21 58  1  0
 24 59  1  0
 25 60  1  0
 26 61  1  0
 27 62  1  0
 29 63  1  0
 29 64  1  0
 30 65  1  0
 30 66  1  0
 34 67  1  0
 39 68  1  0
 40 69  1  0
 40 70  1  0
 41 71  1  0
 41 72  1  0
 43 73  1  0
 43 74  1  0
 44 75  1  0
 44 76  1  0
M  CHG  1  39   1
M  END
>  <UniqueID>  (1) 
1

>  <SMILES>  (1) 
COc1ccc(Sc2nc(-c3ccccc3)nc(N3CCN(c4ccccn4)CC3)c2C#N)cc1S(=O)(=O)[NH+]1CCOCC1

>  <Energy>  (1) 
105.47736372546741

>  <Genealogy>  (1) 
COc1ccc(Sc2nc(-c3ccccc3)nc(N3CCN(c4ccccn4)CC3)c2C#N)cc1S(=O)(=O)[NH+]1CCOCC1 (protonated)
COc1ccc(Sc2nc(-c3ccccc3)nc(N3CCN(c4ccccn4)CC3)c2C#N)cc1S(=O)(=O)[NH+]1CCOCC1 (3D coordinates assigned)
COc1ccc(Sc2nc(-c3ccccc3)nc(N3CCN(c4ccccn4)CC3)c2C#N)cc1S(=O)(=O)[NH+]1CCOCC1 (nonaromatic ring conformer: 105.47736372546741 kcal/mol)

>  <smiles>  (1) 
COc1ccc(Sc2nc(-c3ccccc3)nc(N3CCN(c4ccccn4)CC3)c2C#N)cc1S(=O)(=O)N1CCOCC1

>  <score_type>  (1) 
oracle

>  <origin>  (1) 
adgpu

>  <m_score__min__energy>  (1) 
-10.039999999999999

>  <m_primary>  (1) 
energy

$$$$
1:0
     RDKit          3D

 45 48  0  0  0  0  0  0  0  0999 V2000
   -7.2071   25.8370  -30.2931 H   0  0  0  0  0  0  0  0  0  0  0  0
   -6.2530   25.2970  -30.2030 C   0  0  0  0  0  0  0  0  0  0  0  0
   -5.5070   25.2220  -29.0810 N   0  0  0  0  0  0  0  0  0  0  0  0
   -4.4340   24.4980  -29.3550 N   0  0  0  0  0  0  0  0  0  0  0  0
   -3.4310   24.1520  -28.3530 C   0  0  0  0  0  0  0  0  0  0  0  0
   -3.8521   24.2973  -27.3472 H   0  0  0  0  0  0  0  0  0  0  0  0
   -3.1353   23.0999  -28.4782 H   0  0  0  0  0  0  0  0  0  0  0  0
   -2.5495   24.7980  -28.4782 H   0  0  0  0  0  0  0  0  0  0  0  0
   -4.4760   24.1280  -30.6540 C   0  0  0  0  0  0  0  0  0  0  0  0
   -3.5310   23.2740  -31.3170 N   0  0  0  0  0  0  0  0  0  0  0  0
   -3.8210   22.1510  -31.9020 C   0  0  0  0  0  0  0  0  0  0  0  0
   -5.0820   21.6460  -31.8670 N   0  0  0  0  0  0  0  0  0  0  0  0
   -5.4050   20.4730  -32.4760 C   0  0  0  0  0  0  0  0  0  0  0  0
   -6.7700   20.0030  -32.4330 N   0  0  0  0  0  0  0  0  0  0  0  0
   -7.0530   18.5930  -32.7370 C   0  0  0  0  0  0  0  0  0  0  0  0
   -7.1717   18.4730  -33.8240 H   0  0  0  0  0  0  0  0  0  0  0  0
   -6.2165   17.9751  -32.3784 H   0  0  0  0  0  0  0  0  0  0  0  0
   -8.3390   18.1450  -32.0360 C   0  0  0  0  0  0  0  0  0  0  0  0
   -8.6110   17.1393  -32.3889 H   0  0  0  0  0  0  0  0  0  0  0  0
   -8.1643   18.1343  -30.9500 H   0  0  0  0  0  0  0  0  0  0  0  0
   -9.3990   19.0380  -32.3170 O   0  0  0  0  0  0  0  0  0  0  0  0
   -9.1180   20.2980  -31.7420 C   0  0  0  0  0  0  0  0  0  0  0  0
   -9.9899   20.9557  -31.8731 H   0  0  0  0  0  0  0  0  0  0  0  0
   -8.9005   20.1548  -30.6733 H   0  0  0  0  0  0  0  0  0  0  0  0
   -7.8980   20.9450  -32.4060 C   0  0  0  0  0  0  0  0  0  0  0  0
   -8.1555   21.2318  -33.4363 H   0  0  0  0  0  0  0  0  0  0  0  0
   -7.6066   21.8343  -31.8279 H   0  0  0  0  0  0  0  0  0  0  0  0
   -4.3940   19.7540  -33.1340 C   0  0  0  0  0  0  0  0  0  0  0  0
   -4.6236   18.8092  -33.6484 H   0  0  0  0  0  0  0  0  0  0  0  0
   -3.0870   20.2610  -33.1240 C   0  0  0  0  0  0  0  0  0  0  0  0
   -2.0270   19.5940  -33.8230 N   0  0  0  0  0  0  0  0  0  0  0  0
   -0.9980   20.1450  -34.4080 C   0  0  0  0  0  0  0  0  0  0  0  0
   -0.0100   19.3110  -34.9440 C   0  0  0  0  0  0  0  0  0  0  0  0
   -0.1086   18.2182  -34.8667 H   0  0  0  0  0  0  0  0  0  0  0  0
    1.1010   19.8710  -35.5770 C   0  0  0  0  0  0  0  0  0  0  0  0
    1.8861   19.2218  -35.9919 H   0  0  0  0  0  0  0  0  0  0  0  0
    1.2110   21.2570  -35.6810 C   0  0  0  0  0  0  0  0  0  0  0  0
    2.0858   21.7095  -36.1708 H   0  0  0  0  0  0  0  0  0  0  0  0
    0.2010   22.0640  -35.1580 C   0  0  0  0  0  0  0  0  0  0  0  0
    0.2765   23.1582  -35.2420 H   0  0  0  0  0  0  0  0  0  0  0  0
   -0.8780   21.5050  -34.5440 N   0  0  0  0  0  0  0  0  0  0  0  0
   -1.6260   22.1530  -34.2140 H   0  0  0  0  0  0  0  0  0  0  0  0
   -2.8380   21.4570  -32.5320 N   0  0  0  0  0  0  0  0  0  0  0  0
   -5.6380   24.5930  -31.2230 C   0  0  0  0  0  0  0  0  0  0  0  0
   -5.9961   24.4405  -32.2518 H   0  0  0  0  0  0  0  0  0  0  0  0
  1  2  1  0
  2  3  2  0
  3  4  1  0
  4  5  1  0
  5  6  1  0
  5  7  1  0
  5  8  1  0
  4  9  1  0
  9 10  1  0
 10 11  2  0
 11 12  1  0
 12 13  2  0
 13 14  1  0
 14 15  1  0
 15 16  1  0
 15 17  1  0
 15 18  1  0
 18 19  1  0
 18 20  1  0
 18 21  1  0
 21 22  1  0
 22 23  1  0
 22 24  1  0
 22 25  1  0
 25 26  1  0
 25 27  1  0
 13 28  1  0
 28 29  1  0
 28 30  2  0
 30 31  1  0
 31 32  2  0
 32 33  1  0
 33 34  1  0
 33 35  2  0
 35 36  1  0
 35 37  1  0
 37 38  1  0
 37 39  2  0
 39 40  1  0
 39 41  1  0
 41 42  1  0
 30 43  1  0
  9 44  2  0
 44 45  1  0
 44  2  1  0
 43 11  1  0
 25 14  1  0
 41 32  1  0
M  CHG  1  43  -1
M  END
>  <UniqueID>  (2) 
2

>  <SMILES>  (2) 
Cn1nccc1/N=c1\nc(N2CCOCC2)cc(/N=c2/cccc[nH]2)[n-]1

>  <Energy>  (2) 
98.53678123463365

>  <Genealogy>  (2) 
Cn1nccc1N=c1nc(N2CCOCC2)cc(N=c2cccc[nH]2)[n-]1 (protonated)
Cn1nccc1/N=c1\nc(N2CCOCC2)cc(/N=c2/cccc[nH]2)[n-]1 (cis-trans isomerization)
Cn1nccc1/N=c1\nc(N2CCOCC2)cc(/N=c2/cccc[nH]2)[n-]1 (3D coordinates assigned)
Cn1nccc1/N=c1\nc(N2CCOCC2)cc(/N=c2/cccc[nH]2)[n-]1 (nonaromatic ring conformer: 98.53678123463365 kcal/mol)

>  <smiles>  (2) 
Cn1nccc1N=c1nc(N2CCOCC2)cc(N=c2cccc[nH]2)[nH]1

>  <score_type>  (2) 
oracle

>  <origin>  (2) 
adgpu

>  <m_score__min__energy>  (2) 
-8.8399999999999999

>  <m_primary>  (2) 
energy

$$$$
2:0
     RDKit          3D

 49 51  0  0  0  0  0  0  0  0999 V2000
    1.3940   19.0400  -30.9390 C   0  0  0  0  0  0  0  0  0  0  0  0
    1.1450   20.3710  -31.3760 O   0  0  0  0  0  0  0  0  0  0  0  0
   -0.0340   21.0840  -31.1100 C   0  0  0  0  0  0  0  0  0  0  0  0
   -0.9940   21.1830  -32.1240 C   0  0  0  0  0  0  0  0  0  0  0  0
   -2.1860   21.8810  -31.9080 C   0  0  0  0  0  0  0  0  0  0  0  0
   -2.4370   22.4870  -30.6680 C   0  0  0  0  0  0  0  0  0  0  0  0
   -3.6550   23.2180  -30.4530 N   0  0  0  0  0  0  0  0  0  0  0  0
   -3.7570   24.4890  -30.0100 C   0  0  0  0  0  0  0  0  0  0  0  0
   -2.6690   25.2980  -29.7040 O   0  0  0  0  0  0  0  0  0  0  0  0
   -5.0780   24.8670  -29.8710 C   0  0  0  0  0  0  0  0  0  0  0  0
   -5.8230   23.7680  -30.2590 C   0  0  0  0  0  0  0  0  0  0  0  0
   -7.3190   23.6550  -30.2340 C   0  0  0  0  0  0  0  0  0  0  0  0
   -7.9130   23.7990  -31.6390 C   0  0  0  0  0  0  0  0  0  0  0  0
   -7.5360   22.6660  -32.4890 N   0  0  0  0  0  0  0  0  0  0  0  0
   -8.3060   21.1970  -31.9650 S   0  0  0  0  0  0  0  0  0  0  0  0
   -8.1850   21.0830  -30.4720 O   0  0  0  0  0  0  0  0  0  0  0  0
   -9.7660   21.2260  -32.3260 O   0  0  0  0  0  0  0  0  0  0  0  0
   -7.5170   19.8090  -32.7080 C   0  0  0  0  0  0  0  0  0  0  0  0
   -7.8500   18.5160  -32.2850 C   0  0  0  0  0  0  0  0  0  0  0  0
   -7.2220   17.4060  -32.8560 C   0  0  0  0  0  0  0  0  0  0  0  0
   -6.2530   17.5710  -33.8540 C   0  0  0  0  0  0  0  0  0  0  0  0
   -5.6530   16.4250  -34.3960 O   0  0  0  0  0  0  0  0  0  0  0  0
   -5.7150   15.1310  -33.8060 C   0  0  0  0  0  0  0  0  0  0  0  0
   -5.9180   18.8720  -34.2760 C   0  0  0  0  0  0  0  0  0  0  0  0
   -6.5460   19.9820  -33.7040 C   0  0  0  0  0  0  0  0  0  0  0  0
   -4.9240   22.7770  -30.6050 C   0  0  0  0  0  0  0  0  0  0  0  0
   -5.2800   21.5130  -31.0740 O   0  0  0  0  0  0  0  0  0  0  0  0
   -1.4730   22.3980  -29.6530 C   0  0  0  0  0  0  0  0  0  0  0  0
   -0.2810   21.7000  -29.8680 C   0  0  0  0  0  0  0  0  0  0  0  0
    1.3996   19.0101  -29.8394 H   0  0  0  0  0  0  0  0  0  0  0  0
    0.6046   18.3753  -31.3199 H   0  0  0  0  0  0  0  0  0  0  0  0
    2.3703   18.7056  -31.3199 H   0  0  0  0  0  0  0  0  0  0  0  0
   -0.8090   20.7078  -33.0986 H   0  0  0  0  0  0  0  0  0  0  0  0
   -2.9306   21.9553  -32.7143 H   0  0  0  0  0  0  0  0  0  0  0  0
   -5.4583   25.8391  -29.5241 H   0  0  0  0  0  0  0  0  0  0  0  0
   -7.5971   22.6718  -29.8267 H   0  0  0  0  0  0  0  0  0  0  0  0
   -7.7173   24.4645  -29.6046 H   0  0  0  0  0  0  0  0  0  0  0  0
   -9.0095   23.8421  -31.5630 H   0  0  0  0  0  0  0  0  0  0  0  0
   -7.5208   24.7216  -32.0917 H   0  0  0  0  0  0  0  0  0  0  0  0
   -8.6082   18.3739  -31.5009 H   0  0  0  0  0  0  0  0  0  0  0  0
   -7.4908   16.3940  -32.5189 H   0  0  0  0  0  0  0  0  0  0  0  0
   -5.7104   15.2270  -32.7102 H   0  0  0  0  0  0  0  0  0  0  0  0
   -6.6384   14.6260  -34.1259 H   0  0  0  0  0  0  0  0  0  0  0  0
   -4.8441   14.5400  -34.1259 H   0  0  0  0  0  0  0  0  0  0  0  0
   -5.1589   19.0153  -35.0591 H   0  0  0  0  0  0  0  0  0  0  0  0
   -6.2771   20.9954  -34.0368 H   0  0  0  0  0  0  0  0  0  0  0  0
   -6.2200   21.3030  -31.3840 H   0  0  0  0  0  0  0  0  0  0  0  0
   -1.6561   22.8805  -28.6816 H   0  0  0  0  0  0  0  0  0  0  0  0
    0.4667   21.6317  -29.0641 H   0  0  0  0  0  0  0  0  0  0  0  0
  1  2  1  0
  2  3  1  0
  3  4  2  0
  4  5  1  0
  5  6  2  0
  6  7  1  0
  7  8  1  0
  8  9  1  0
  8 10  2  0
 10 11  1  0
 11 12  1  0
 12 13  1  0
 13 14  1  0
 14 15  1  0
 15 16  2  0
 15 17  2  0
 15 18  1  0
 18 19  2  0
 19 20  1  0
 20 21  2  0
 21 22  1  0
 22 23  1  0
 21 24  1  0
 24 25  2  0
 11 26  2  0
 26 27  1  0
  6 28  1  0
 28 29  2  0
 29  3  1  0
 26  7  1  0
 25 18  1  0
  1 30  1  0
  1 31  1  0
  1 32  1  0
  4 33  1  0
  5 34  1  0
 10 35  1  0
 12 36  1  0
 12 37  1  0
 13 38  1  0
 13 39  1  0
 19 40  1  0
 20 41  1  0
 23 42  1  0
 23 43  1  0
 23 44  1  0
 24 45  1  0
 25 46  1  0
 27 47  1  0
 28 48  1  0
 29 49  1  0
M  CHG  2   9  -1  14  -1
M  END
>  <UniqueID>  (3) 
3

>  <SMILES>  (3) 
COc1ccc(-n2c([O-])cc(CC[N-]S(=O)(=O)c3ccc(OC)cc3)c2O)cc1

>  <Energy>  (3) 
80.77243137653561

>  <Genealogy>  (3) 
COc1ccc(-n2c([O-])cc(CC[N-]S(=O)(=O)c3ccc(OC)cc3)c2O)cc1 (protonated)
COc1ccc(-n2c([O-])cc(CC[N-]S(=O)(=O)c3ccc(OC)cc3)c2O)cc1 (3D coordinates assigned)
COc1ccc(-n2c([O-])cc(CC[N-]S(=O)(=O)c3ccc(OC)cc3)c2O)cc1 (optimized conformer: 80.77243137653561 kcal/mol)

>  <smiles>  (3) 
COc1ccc(-n2c(O)cc(CCNS(=O)(=O)c3ccc(OC)cc3)c2O)cc1

>  <score_type>  (3) 
oracle

>  <origin>  (3) 
adgpu

>  <m_score__min__energy>  (3) 
-10.710000000000001

>  <m_primary>  (3) 
energy

$$$$
3:0
     RDKit          3D

 22 23  0  0  0  0  0  0  0  0999 V2000
   -1.4080   24.6505  -29.0147 H   0  0  0  0  0  0  0  0  0  0  0  0
   -1.9620   23.8520  -29.5300 C   0  0  0  0  0  0  0  0  0  0  0  0
   -1.5376   22.8390  -29.5905 H   0  0  0  0  0  0  0  0  0  0  0  0
   -3.1430   24.1110  -30.0790 C   0  0  0  0  0  0  0  0  0  0  0  0
   -3.8810   23.1810  -30.7280 N   0  0  0  0  0  0  0  0  0  0  0  0
   -4.9800   23.8670  -31.1090 C   0  0  0  0  0  0  0  0  0  0  0  0
   -6.0010   23.3630  -31.8190 C   0  0  0  0  0  0  0  0  0  0  0  0
   -6.8224   24.0420  -32.0915 H   0  0  0  0  0  0  0  0  0  0  0  0
   -6.0940   21.9510  -32.2600 C   0  0  0  0  0  0  0  0  0  0  0  0
   -4.9790   21.2490  -32.7590 C   0  0  0  0  0  0  0  0  0  0  0  0
   -4.0066   21.7560  -32.8455 H   0  0  0  0  0  0  0  0  0  0  0  0
   -5.1030   19.9100  -33.1450 C   0  0  0  0  0  0  0  0  0  0  0  0
   -3.5870   18.9700  -33.8260 Br  0  0  0  0  0  0  0  0  0  0  0  0
   -6.3320   19.2560  -33.0220 C   0  0  0  0  0  0  0  0  0  0  0  0
   -6.4298   18.2056  -33.3335 H   0  0  0  0  0  0  0  0  0  0  0  0
   -7.4370   19.9370  -32.5030 C   0  0  0  0  0  0  0  0  0  0  0  0
   -9.1120   19.0370  -32.3190 Br  0  0  0  0  0  0  0  0  0  0  0  0
   -7.3160   21.2760  -32.1160 C   0  0  0  0  0  0  0  0  0  0  0  0
   -8.1850   21.8036  -31.6958 H   0  0  0  0  0  0  0  0  0  0  0  0
   -4.8470   25.1700  -30.6850 C   0  0  0  0  0  0  0  0  0  0  0  0
   -5.6700   26.1070  -30.8640 O   0  0  0  0  0  0  0  0  0  0  0  0
   -3.7120   25.2990  -30.0500 O   0  0  0  0  0  0  0  0  0  0  0  0
  1  2  1  0
  2  3  1  0
  2  4  2  0
  4  5  1  0
  5  6  1  0
  6  7  2  0
  7  8  1  0
  7  9  1  0
  9 10  2  0
 10 11  1  0
 10 12  1  0
 12 13  1  0
 12 14  2  0
 14 15  1  0
 14 16  1  0
 16 17  1  0
 16 18  2  0
 18 19  1  0
  6 20  1  0
 20 21  2  0
 20 22  1  0
 22  4  1  0
 18  9  1  0
M  CHG  1   5  -1
M  END
>  <UniqueID>  (4) 
4

>  <SMILES>  (4) 
C=c1[n-]/c(=C\c2cc(Br)cc(Br)c2)c(=O)o1

>  <Energy>  (4) 
58.12559072432313

>  <Genealogy>  (4) 
C=c1[n-]c(=Cc2cc(Br)cc(Br)c2)c(=O)o1 (protonated)
C=c1[n-]/c(=C\c2cc(Br)cc(Br)c2)c(=O)o1 (cis-trans isomerization)
C=c1[n-]/c(=C\c2cc(Br)cc(Br)c2)c(=O)o1 (3D coordinates assigned)
C=c1[n-]/c(=C\c2cc(Br)cc(Br)c2)c(=O)o1 (optimized conformer: 58.12559072432313 kcal/mol)

>  <smiles>  (4) 
C=c1[nH]c(=Cc2cc(Br)cc(Br)c2)c(=O)o1

>  <score_type>  (4) 
oracle

>  <origin>  (4) 
adgpu

>  <m_score__min__energy>  (4) 
-8.6899999999999995

>  <m_primary>  (4) 
energy

$$$$
4:0
     RDKit          3D

 42 43  0  0  0  0  0  0  0  0999 V2000
   -0.5070   25.6690  -27.8290 C   0  0  0  0  0  0  0  0  0  0  0  0
   -1.5450   24.7650  -28.4300 C   0  0  0  0  0  0  0  0  0  0  0  0
   -2.4090   25.2960  -29.3340 N   0  0  0  0  0  0  0  0  0  0  0  0
   -3.3870   24.5710  -29.9250 C   0  0  0  0  0  0  0  0  0  0  0  0
   -4.1700   25.1450  -30.7300 O   0  0  0  0  0  0  0  0  0  0  0  0
   -3.5370   23.2010  -29.6320 C   0  0  0  0  0  0  0  0  0  0  0  0
   -4.7230   22.4480  -30.2060 C   0  0  0  0  0  0  0  0  0  0  0  0
   -4.7590   22.4750  -31.7080 C   0  0  0  0  0  0  0  0  0  0  0  0
   -5.2390   23.4820  -32.2960 O   0  0  0  0  0  0  0  0  0  0  0  0
   -4.3540   21.3390  -32.4800 N   0  0  0  0  0  0  0  0  0  0  0  0
   -2.9450   21.1970  -32.8490 C   0  0  0  0  0  0  0  0  0  0  0  0
   -5.3800   20.5880  -33.2010 C   0  0  0  0  0  0  0  0  0  0  0  0
   -2.6320   22.6030  -28.7180 C   0  0  0  0  0  0  0  0  0  0  0  0
   -2.7720   21.2230  -28.3400 N   0  0  0  0  0  0  0  0  0  0  0  0
   -1.7150   20.2470  -28.4190 C   0  0  0  0  0  0  0  0  0  0  0  0
   -1.6170   19.2560  -27.4160 C   0  0  0  0  0  0  0  0  0  0  0  0
   -2.7880   19.1600  -26.1060 Cl  0  0  0  0  0  0  0  0  0  0  0  0
   -0.5920   18.3060  -27.4600 C   0  0  0  0  0  0  0  0  0  0  0  0
    0.3570   18.3440  -28.4800 C   0  0  0  0  0  0  0  0  0  0  0  0
    0.2940   19.3350  -29.4570 C   0  0  0  0  0  0  0  0  0  0  0  0
   -0.7290   20.2910  -29.4350 C   0  0  0  0  0  0  0  0  0  0  0  0
   -0.6580   21.5700  -30.6390 Cl  0  0  0  0  0  0  0  0  0  0  0  0
   -1.6330   23.3950  -28.0990 C   0  0  0  0  0  0  0  0  0  0  0  0
   -0.7080   22.8020  -27.0590 C   0  0  0  0  0  0  0  0  0  0  0  0
   -0.5665   25.6171  -26.7318 H   0  0  0  0  0  0  0  0  0  0  0  0
    0.4927   25.3487  -28.1575 H   0  0  0  0  0  0  0  0  0  0  0  0
   -0.6870   26.7033  -28.1575 H   0  0  0  0  0  0  0  0  0  0  0  0
   -4.6679   21.4005  -29.8746 H   0  0  0  0  0  0  0  0  0  0  0  0
   -5.6361   22.9433  -29.8441 H   0  0  0  0  0  0  0  0  0  0  0  0
   -2.3318   21.1352  -31.9379 H   0  0  0  0  0  0  0  0  0  0  0  0
   -2.8121   20.2809  -33.4432 H   0  0  0  0  0  0  0  0  0  0  0  0
   -2.6320   22.0682  -33.4432 H   0  0  0  0  0  0  0  0  0  0  0  0
   -6.0502   20.0975  -32.4797 H   0  0  0  0  0  0  0  0  0  0  0  0
   -5.9615   21.2754  -33.8329 H   0  0  0  0  0  0  0  0  0  0  0  0
   -4.9005   19.8259  -33.8329 H   0  0  0  0  0  0  0  0  0  0  0  0
   -3.7170   20.9110  -28.0190 H   0  0  0  0  0  0  0  0  0  0  0  0
   -0.5344   17.5258  -26.6867 H   0  0  0  0  0  0  0  0  0  0  0  0
    1.1573   17.5900  -28.5136 H   0  0  0  0  0  0  0  0  0  0  0  0
    1.0537   19.3668  -30.2519 H   0  0  0  0  0  0  0  0  0  0  0  0
   -1.0840   23.0430  -26.0538 H   0  0  0  0  0  0  0  0  0  0  0  0
   -0.6685   21.7098  -27.1835 H   0  0  0  0  0  0  0  0  0  0  0  0
    0.3010   23.2220  -27.1835 H   0  0  0  0  0  0  0  0  0  0  0  0
  1  2  1  0
  2  3  1  0
  3  4  1  0
  4  5  2  0
  4  6  1  0
  6  7  1  0
  7  8  1  0
  8  9  2  0
  8 10  1  0
 10 11  1  0
 10 12  1  0
  6 13  2  0
 13 14  1  0
 14 15  1  0
 15 16  2  0
 16 17  1  0
 16 18  1  0
 18 19  2  0
 19 20  1  0
 20 21  2  0
 21 22  1  0
 13 23  1  0
 23 24  1  0
 23  2  2  0
 21 15  1  0
  1 25  1  0
  1 26  1  0
  1 27  1  0
  7 28  1  0
  7 29  1  0
 11 30  1  0
 11 31  1  0
 11 32  1  0
 12 33  1  0
 12 34  1  0
 12 35  1  0
 14 36  1  0
 18 37  1  0
 19 38  1  0
 20 39  1  0
 24 40  1  0
 24 41  1  0
 24 42  1  0
M  CHG  1   3  -1
M  END
>  <UniqueID>  (5) 
5

>  <SMILES>  (5) 
Cc1[n-]c(=O)c(CC(=O)N(C)C)c(Nc2c(Cl)cccc2Cl)c1C

>  <Energy>  (5) 
58.59016146162262

>  <Genealogy>  (5) 
Cc1[n-]c(=O)c(CC(=O)N(C)C)c(Nc2c(Cl)cccc2Cl)c1C (protonated)
Cc1[n-]c(=O)c(CC(=O)N(C)C)c(Nc2c(Cl)cccc2Cl)c1C (3D coordinates assigned)
Cc1[n-]c(=O)c(CC(=O)N(C)C)c(Nc2c(Cl)cccc2Cl)c1C (optimized conformer: 58.59016146162262 kcal/mol)

>  <smiles>  (5) 
Cc1[nH]c(=O)c(CC(=O)N(C)C)c(Nc2c(Cl)cccc2Cl)c1C

>  <score_type>  (5) 
oracle

>  <origin>  (5) 
adgpu

>  <m_score__min__energy>  (5) 
-9.6899999999999995

>  <m_primary>  (5) 
energy

$$$$
5:0
     RDKit          3D

 34 36  0  0  0  0  0  0  0  0999 V2000
   -5.9300   25.5740  -30.6210 O   0  0  0  0  0  0  0  0  0  0  0  0
   -4.9920   24.7570  -30.8140 C   0  0  0  0  0  0  0  0  0  0  0  0
   -3.6650   25.1170  -30.4070 N   0  0  0  0  0  0  0  0  0  0  0  0
   -2.8680   24.4340  -29.4290 C   0  0  0  0  0  0  0  0  0  0  0  0
   -3.2430   23.1420  -29.0380 C   0  0  0  0  0  0  0  0  0  0  0  0
   -2.4870   22.4410  -28.0950 C   0  0  0  0  0  0  0  0  0  0  0  0
   -1.3380   23.0180  -27.5490 C   0  0  0  0  0  0  0  0  0  0  0  0
   -0.9350   24.2930  -27.9570 C   0  0  0  0  0  0  0  0  0  0  0  0
   -1.6860   24.9990  -28.9060 C   0  0  0  0  0  0  0  0  0  0  0  0
   -1.2360   26.2420  -29.3350 O   0  0  0  0  0  0  0  0  0  0  0  0
   -5.2770   23.4880  -31.5050 C   0  0  0  0  0  0  0  0  0  0  0  0
   -4.3290   22.6990  -32.0610 N   0  0  0  0  0  0  0  0  0  0  0  0
   -5.0600   21.6870  -32.5700 C   0  0  0  0  0  0  0  0  0  0  0  0
   -6.3700   21.8730  -32.3410 N   0  0  0  0  0  0  0  0  0  0  0  0
   -7.4520   20.9530  -32.6690 C   0  0  0  0  0  0  0  0  0  0  0  0
   -6.9400   19.5390  -32.6630 C   0  0  0  0  0  0  0  0  0  0  0  0
   -6.9920   18.7790  -31.4810 C   0  0  0  0  0  0  0  0  0  0  0  0
   -6.5580   17.4510  -31.4760 C   0  0  0  0  0  0  0  0  0  0  0  0
   -6.0780   16.8660  -32.6520 C   0  0  0  0  0  0  0  0  0  0  0  0
   -6.0380   17.6080  -33.8350 C   0  0  0  0  0  0  0  0  0  0  0  0
   -6.4720   18.9380  -33.8460 C   0  0  0  0  0  0  0  0  0  0  0  0
   -6.4390   19.6370  -35.0090 F   0  0  0  0  0  0  0  0  0  0  0  0
   -6.5220   22.9960  -31.6650 N   0  0  0  0  0  0  0  0  0  0  0  0
   -4.1382   22.6766  -29.4761 H   0  0  0  0  0  0  0  0  0  0  0  0
   -2.7971   21.4331  -27.7820 H   0  0  0  0  0  0  0  0  0  0  0  0
   -0.7504   22.4693  -26.7982 H   0  0  0  0  0  0  0  0  0  0  0  0
   -0.0258   24.7431  -27.5318 H   0  0  0  0  0  0  0  0  0  0  0  0
   -4.6385   20.8221  -33.1031 H   0  0  0  0  0  0  0  0  0  0  0  0
   -8.2549   21.0535  -31.9238 H   0  0  0  0  0  0  0  0  0  0  0  0
   -7.8414   21.1933  -33.6693 H   0  0  0  0  0  0  0  0  0  0  0  0
   -7.3764   19.2324  -30.5555 H   0  0  0  0  0  0  0  0  0  0  0  0
   -6.5939   16.8649  -30.5459 H   0  0  0  0  0  0  0  0  0  0  0  0
   -5.7320   15.8218  -32.6456 H   0  0  0  0  0  0  0  0  0  0  0  0
   -5.6643   17.1453  -34.7603 H   0  0  0  0  0  0  0  0  0  0  0  0
  1  2  2  0
  2  3  1  0
  3  4  1  0
  4  5  2  0
  5  6  1  0
  6  7  2  0
  7  8  1  0
  8  9  2  0
  9 10  1  0
  2 11  1  0
 11 12  1  0
 12 13  2  0
 13 14  1  0
 14 15  1  0
 15 16  1  0
 16 17  2  0
 17 18  1  0
 18 19  2  0
 19 20  1  0
 20 21  2  0
 21 22  1  0
 14 23  1  0
  9  4  1  0
 23 11  2  0
 21 16  1  0
  5 24  1  0
  6 25  1  0
  7 26  1  0
  8 27  1  0
 13 28  1  0
 15 29  1  0
 15 30  1  0
 17 31  1  0
 18 32  1  0
 19 33  1  0
 20 34  1  0
M  CHG  2   3  -1  10  -1
M  END
>  <UniqueID>  (6) 
6

>  <SMILES>  (6) 
O=C([N-]c1ccccc1[O-])c1ncn(Cc2ccccc2F)n1

>  <Energy>  (6) 
74.24596576314225

>  <Genealogy>  (6) 
O=C([N-]c1ccccc1[O-])c1ncn(Cc2ccccc2F)n1 (protonated)
O=C([N-]c1ccccc1[O-])c1ncn(Cc2ccccc2F)n1 (3D coordinates assigned)
O=C([N-]c1ccccc1[O-])c1ncn(Cc2ccccc2F)n1 (optimized conformer: 74.24596576314225 kcal/mol)

>  <smiles>  (6) 
O=C(Nc1ccccc1O)c1ncn(Cc2ccccc2F)n1

>  <score_type>  (6) 
oracle

>  <origin>  (6) 
adgpu

>  <m_score__min__energy>  (6) 
-13.18

>  <m_primary>  (6) 
energy

$$$$
6:0
     RDKit          3D

 31 33  0  0  0  0  0  0  0  0999 V2000
   -6.8404   25.3254  -31.0444 H   0  0  0  0  0  0  0  0  0  0  0  0
   -6.3620   24.3370  -31.1090 C   0  0  0  0  0  0  0  0  0  0  0  0
   -6.8660   23.4620  -31.9930 C   0  0  0  0  0  0  0  0  0  0  0  0
   -7.7984   23.7373  -32.5076 H   0  0  0  0  0  0  0  0  0  0  0  0
   -6.2580   22.1510  -32.3270 C   0  0  0  0  0  0  0  0  0  0  0  0
   -4.9060   22.0960  -32.7040 C   0  0  0  0  0  0  0  0  0  0  0  0
   -4.3022   23.0153  -32.7207 H   0  0  0  0  0  0  0  0  0  0  0  0
   -4.3290   20.8770  -33.0570 C   0  0  0  0  0  0  0  0  0  0  0  0
   -3.2670   20.8350  -33.3406 H   0  0  0  0  0  0  0  0  0  0  0  0
   -5.0730   19.7420  -33.0520 N   0  0  0  0  0  0  0  0  0  0  0  0
   -6.3870   19.7470  -32.7080 C   0  0  0  0  0  0  0  0  0  0  0  0
   -7.1090   18.5490  -32.7200 C   0  0  0  0  0  0  0  0  0  0  0  0
   -6.6125   17.6122  -33.0131 H   0  0  0  0  0  0  0  0  0  0  0  0
   -8.4580   18.5390  -32.3610 C   0  0  0  0  0  0  0  0  0  0  0  0
   -9.0223   17.5949  -32.3742 H   0  0  0  0  0  0  0  0  0  0  0  0
   -9.0930   19.7250  -31.9850 C   0  0  0  0  0  0  0  0  0  0  0  0
  -10.1554   19.7109  -31.7003 H   0  0  0  0  0  0  0  0  0  0  0  0
   -8.3840   20.9300  -31.9690 C   0  0  0  0  0  0  0  0  0  0  0  0
   -8.8902   21.8590  -31.6679 H   0  0  0  0  0  0  0  0  0  0  0  0
   -7.0230   20.9600  -32.3370 C   0  0  0  0  0  0  0  0  0  0  0  0
   -5.2120   24.0750  -30.2140 C   0  0  0  0  0  0  0  0  0  0  0  0
   -5.1960   22.9770  -29.3330 C   0  0  0  0  0  0  0  0  0  0  0  0
   -6.0451   22.2780  -29.3128 H   0  0  0  0  0  0  0  0  0  0  0  0
   -4.1050   22.7720  -28.4840 C   0  0  0  0  0  0  0  0  0  0  0  0
   -4.0917   21.9042  -27.8081 H   0  0  0  0  0  0  0  0  0  0  0  0
   -3.0310   23.6660  -28.4910 C   0  0  0  0  0  0  0  0  0  0  0  0
   -2.1698   23.4970  -27.8279 H   0  0  0  0  0  0  0  0  0  0  0  0
   -3.0520   24.7760  -29.3420 C   0  0  0  0  0  0  0  0  0  0  0  0
   -1.9900   25.6720  -29.3400 O   0  0  0  0  0  0  0  0  0  0  0  0
   -4.1430   24.9850  -30.1940 C   0  0  0  0  0  0  0  0  0  0  0  0
   -4.1628   25.8668  -30.8513 H   0  0  0  0  0  0  0  0  0  0  0  0
  1  2  1  0
  2  3  2  0
  3  4  1  0
  3  5  1  0
  5  6  2  0
  6  7  1  0
  6  8  1  0
  8  9  1  0
  8 10  2  0
 10 11  1  0
 11 12  2  0
 12 13  1  0
 12 14  1  0
 14 15  1  0
 14 16  2  0
 16 17  1  0
 16 18  1  0
 18 19  1  0
 18 20  2  0
  2 21  1  0
 21 22  2  0
 22 23  1  0
 22 24  1  0
 24 25  1  0
 24 26  2  0
 26 27  1  0
 26 28  1  0
 28 29  1  0
 28 30  2  0
 30 31  1  0
 20  5  1  0
 30 21  1  0
 20 11  1  0
M  CHG  1  29  -1
M  END
>  <UniqueID>  (7) 
7

>  <SMILES>  (7) 
[O-]c1cccc(/C=C\c2ccnc3ccccc23)c1

>  <Energy>  (7) 
48.98338428817335

>  <Genealogy>  (7) 
[O-]c1cccc(C=Cc2ccnc3ccccc23)c1 (protonated)
[O-]c1cccc(/C=C\c2ccnc3ccccc23)c1 (cis-trans isomerization)
[O-]c1cccc(/C=C\c2ccnc3ccccc23)c1 (3D coordinates assigned)
[O-]c1cccc(/C=C\c2ccnc3ccccc23)c1 (optimized conformer: 48.98338428817335 kcal/mol)

>  <smiles>  (7) 
Oc1cccc(C=Cc2ccnc3ccccc23)c1

>  <score_type>  (7) 
oracle

>  <origin>  (7) 
adgpu

>  <m_score__min__energy>  (7) 
-11.42

>  <m_primary>  (7) 
energy

$$$$
7:0
     RDKit          3D

 33 35  0  0  0  0  0  0  0  0999 V2000
   -3.5390   25.2850  -30.4650 O   0  0  0  0  0  0  0  0  0  0  0  0
   -2.7950   24.8300  -29.5570 C   0  0  0  0  0  0  0  0  0  0  0  0
   -1.8410   25.6510  -28.9720 O   0  0  0  0  0  0  0  0  0  0  0  0
   -2.8990   23.3950  -29.1500 C   0  0  0  0  0  0  0  0  0  0  0  0
   -3.8660   22.7090  -29.9970 N   0  0  0  0  0  0  0  0  0  0  0  0
   -5.1620   23.0400  -30.1440 C   0  0  0  0  0  0  0  0  0  0  0  0
   -5.7280   22.1790  -31.0650 C   0  0  0  0  0  0  0  0  0  0  0  0
   -7.1590   22.1250  -31.4340 C   0  0  0  0  0  0  0  0  0  0  0  0
   -7.9150   20.9630  -31.2170 C   0  0  0  0  0  0  0  0  0  0  0  0
   -9.2690   20.9470  -31.5620 C   0  0  0  0  0  0  0  0  0  0  0  0
   -9.8510   22.0550  -32.0920 N   0  0  0  0  0  0  0  0  0  0  0  0
   -9.1480   23.1990  -32.2980 C   0  0  0  0  0  0  0  0  0  0  0  0
   -7.7920   23.2580  -31.9670 C   0  0  0  0  0  0  0  0  0  0  0  0
   -4.6800   21.3480  -31.4620 C   0  0  0  0  0  0  0  0  0  0  0  0
   -4.6960   20.2940  -32.4970 C   0  0  0  0  0  0  0  0  0  0  0  0
   -3.5260   19.5650  -32.7680 C   0  0  0  0  0  0  0  0  0  0  0  0
   -3.5220   18.5780  -33.7580 C   0  0  0  0  0  0  0  0  0  0  0  0
   -4.6820   18.3200  -34.4960 C   0  0  0  0  0  0  0  0  0  0  0  0
   -4.6750   17.3630  -35.4560 F   0  0  0  0  0  0  0  0  0  0  0  0
   -5.8440   19.0550  -34.2480 C   0  0  0  0  0  0  0  0  0  0  0  0
   -5.8510   20.0430  -33.2600 C   0  0  0  0  0  0  0  0  0  0  0  0
   -3.5610   21.6970  -30.7950 N   0  0  0  0  0  0  0  0  0  0  0  0
   -1.9155   22.9137  -29.2553 H   0  0  0  0  0  0  0  0  0  0  0  0
   -3.2300   23.3383  -28.1025 H   0  0  0  0  0  0  0  0  0  0  0  0
   -5.6818   23.8561  -29.6207 H   0  0  0  0  0  0  0  0  0  0  0  0
   -7.4449   20.0706  -30.7782 H   0  0  0  0  0  0  0  0  0  0  0  0
   -9.8650   20.0360  -31.4043 H   0  0  0  0  0  0  0  0  0  0  0  0
   -9.6474   24.0806  -32.7263 H   0  0  0  0  0  0  0  0  0  0  0  0
   -7.2241   24.1870  -32.1233 H   0  0  0  0  0  0  0  0  0  0  0  0
   -2.6082   19.7720  -32.1981 H   0  0  0  0  0  0  0  0  0  0  0  0
   -2.6053   18.0034  -33.9570 H   0  0  0  0  0  0  0  0  0  0  0  0
   -6.7549   18.8555  -34.8315 H   0  0  0  0  0  0  0  0  0  0  0  0
   -6.7647   20.6278  -33.0778 H   0  0  0  0  0  0  0  0  0  0  0  0
  1  2  2  0
  2  3  1  0
  2  4  1  0
  4  5  1  0
  5  6  1  0
  6  7  2  0
  7  8  1  0
  8  9  2  0
  9 10  1  0
 10 11  2  0
 11 12  1  0
 12 13  2  0
  7 14  1  0
 14 15  1  0
 15 16  2  0
 16 17  1  0
 17 18  2  0
 18 19  1  0
 18 20  1  0
 20 21  2  0
 14 22  2  0
 22  5  1  0
 13  8  1  0
 21 15  1  0
  4 23  1  0
  4 24  1  0
  6 25  1  0
  9 26  1  0
 10 27  1  0
 12 28  1  0
 13 29  1  0
 16 30  1  0
 17 31  1  0
 20 32  1  0
 21 33  1  0
M  CHG  1   3  -1
M  END
>  <UniqueID>  (8) 
8

>  <SMILES>  (8) 
O=C([O-])Cn1cc(-c2ccncc2)c(-c2ccc(F)cc2)n1

>  <Energy>  (8) 
72.374533862351

>  <Genealogy>  (8) 
O=C([O-])Cn1cc(-c2ccncc2)c(-c2ccc(F)cc2)n1 (protonated)
O=C([O-])Cn1cc(-c2ccncc2)c(-c2ccc(F)cc2)n1 (3D coordinates assigned)
O=C([O-])Cn1cc(-c2ccncc2)c(-c2ccc(F)cc2)n1 (optimized conformer: 72.374533862351 kcal/mol)

>  <smiles>  (8) 
O=C(O)Cn1cc(-c2ccncc2)c(-c2ccc(F)cc2)n1

>  <score_type>  (8) 
oracle

>  <origin>  (8) 
adgpu

>  <m_score__min__energy>  (8) 
-9.9100000000000001

>  <m_primary>  (8) 
energy

$$$$
8:0
     RDKit          3D

 60 61  0  0  0  0  0  0  0  0999 V2000
   -7.2310   17.6650  -33.0460 C   0  0  0  0  0  0  0  0  0  0  0  0
   -7.0150   19.0740  -32.5780 C   0  0  0  0  0  0  0  0  0  0  0  0
   -5.7760   19.6900  -32.7530 C   0  0  0  0  0  0  0  0  0  0  0  0
   -5.5500   21.0010  -32.3050 C   0  0  0  0  0  0  0  0  0  0  0  0
   -4.1780   21.5910  -32.5230 C   0  0  0  0  0  0  0  0  0  0  0  0
   -6.5830   21.7080  -31.6280 C   0  0  0  0  0  0  0  0  0  0  0  0
   -6.2730   23.3840  -31.0740 S   0  0  0  0  0  0  0  0  0  0  0  0
   -7.5820   24.1190  -31.0040 O   0  0  0  0  0  0  0  0  0  0  0  0
   -5.3760   24.1530  -32.0020 O   0  0  0  0  0  0  0  0  0  0  0  0
   -5.5490   23.3660  -29.4900 N   0  0  0  0  0  0  0  0  0  0  0  0
   -4.0770   23.2220  -29.5560 C   0  0  2  0  0  0  0  0  0  0  0  0
   -3.5600   22.5100  -28.2740 C   0  0  0  0  0  0  0  0  0  0  0  0
   -2.3480   21.5400  -28.4440 C   0  0  0  0  0  0  0  0  0  0  0  0
   -1.0910   22.0690  -27.7250 C   0  0  0  0  0  0  0  0  0  0  0  0
   -2.0280   21.3090  -29.9380 C   0  0  0  0  0  0  0  0  0  0  0  0
   -2.7300   20.1820  -27.8190 C   0  0  0  0  0  0  0  0  0  0  0  0
   -3.3980   24.5620  -29.7940 C   0  0  0  0  0  0  0  0  0  0  0  0
   -4.0260   25.4410  -30.4450 O   0  0  0  0  0  0  0  0  0  0  0  0
   -2.0890   24.9010  -29.3070 N   0  0  0  0  0  0  0  0  0  0  0  0
   -1.7190   25.6630  -28.1120 C   0  0  2  0  0  0  0  0  0  0  0  0
   -0.2110   25.5150  -27.8470 C   0  0  0  0  0  0  0  0  0  0  0  0
    0.0640   25.8810  -26.3900 C   0  0  0  0  0  0  0  0  0  0  0  0
   -1.4060   25.4360  -25.5150 S   0  0  0  0  0  0  0  0  0  0  0  0
   -1.9110   26.5720  -24.6680 O   0  0  0  0  0  0  0  0  0  0  0  0
   -1.2100   24.1970  -24.6860 O   0  0  0  0  0  0  0  0  0  0  0  0
   -2.4710   25.1280  -26.8900 C   0  0  0  0  0  0  0  0  0  0  0  0
   -7.8420   21.0650  -31.4330 C   0  0  0  0  0  0  0  0  0  0  0  0
   -8.9990   21.7230  -30.7250 C   0  0  0  0  0  0  0  0  0  0  0  0
   -8.0300   19.7520  -31.9020 C   0  0  0  0  0  0  0  0  0  0  0  0
   -7.3328   17.0009  -32.1750 H   0  0  0  0  0  0  0  0  0  0  0  0
   -8.1471   17.6166  -33.6531 H   0  0  0  0  0  0  0  0  0  0  0  0
   -6.3715   17.3444  -33.6531 H   0  0  0  0  0  0  0  0  0  0  0  0
   -4.9632   19.1399  -33.2498 H   0  0  0  0  0  0  0  0  0  0  0  0
   -3.7071   21.7935  -31.5497 H   0  0  0  0  0  0  0  0  0  0  0  0
   -3.5587   20.8797  -33.0891 H   0  0  0  0  0  0  0  0  0  0  0  0
   -4.2683   22.5298  -33.0891 H   0  0  0  0  0  0  0  0  0  0  0  0
   -5.8300   24.2670  -29.0370 H   0  0  0  0  0  0  0  0  0  0  0  0
   -3.8162   22.5918  -30.4190 H   0  0  0  0  0  0  0  0  0  0  0  0
   -3.2632   23.2901  -27.5575 H   0  0  0  0  0  0  0  0  0  0  0  0
   -4.3935   21.8722  -27.9446 H   0  0  0  0  0  0  0  0  0  0  0  0
   -1.2378   22.0072  -26.6366 H   0  0  0  0  0  0  0  0  0  0  0  0
   -0.2208   21.4608  -28.0127 H   0  0  0  0  0  0  0  0  0  0  0  0
   -0.9175   23.1164  -28.0127 H   0  0  0  0  0  0  0  0  0  0  0  0
   -1.1391   20.6673  -30.0276 H   0  0  0  0  0  0  0  0  0  0  0  0
   -2.8843   20.8194  -30.4249 H   0  0  0  0  0  0  0  0  0  0  0  0
   -1.8329   22.2759  -30.4249 H   0  0  0  0  0  0  0  0  0  0  0  0
   -2.7070   20.2637  -26.7223 H   0  0  0  0  0  0  0  0  0  0  0  0
   -3.7422   19.9003  -28.1446 H   0  0  0  0  0  0  0  0  0  0  0  0
   -2.0131   19.4139  -28.1446 H   0  0  0  0  0  0  0  0  0  0  0  0
   -1.9777   26.7187  -28.2808 H   0  0  0  0  0  0  0  0  0  0  0  0
    0.0981   24.4758  -28.0331 H   0  0  0  0  0  0  0  0  0  0  0  0
    0.3558   26.1795  -28.5156 H   0  0  0  0  0  0  0  0  0  0  0  0
    0.9268   25.3166  -26.0067 H   0  0  0  0  0  0  0  0  0  0  0  0
    0.3054   26.9478  -26.2726 H   0  0  0  0  0  0  0  0  0  0  0  0
   -2.6609   24.0497  -26.9962 H   0  0  0  0  0  0  0  0  0  0  0  0
   -3.4504   25.6133  -26.7666 H   0  0  0  0  0  0  0  0  0  0  0  0
   -8.8570   21.6423  -29.6372 H   0  0  0  0  0  0  0  0  0  0  0  0
   -9.0481   22.7841  -31.0106 H   0  0  0  0  0  0  0  0  0  0  0  0
   -9.9361   21.2227  -31.0106 H   0  0  0  0  0  0  0  0  0  0  0  0
   -8.9945   19.2509  -31.7327 H   0  0  0  0  0  0  0  0  0  0  0  0
  1  2  1  0
  2  3  2  0
  3  4  1  0
  4  5  1  0
  4  6  2  0
  6  7  1  0
  7  8  2  0
  7  9  2  0
  7 10  1  0
 10 11  1  0
 11 12  1  0
 12 13  1  0
 13 14  1  0
 13 15  1  0
 13 16  1  0
 11 17  1  0
 17 18  2  0
 17 19  1  0
 19 20  1  0
 20 21  1  0
 21 22  1  0
 22 23  1  0
 23 24  2  0
 23 25  2  0
 23 26  1  0
  6 27  1  0
 27 28  1  0
 27 29  2  0
 29  2  1  0
 26 20  1  0
  1 30  1  0
  1 31  1  0
  1 32  1  0
  3 33  1  0
  5 34  1  0
  5 35  1  0
  5 36  1  0
 10 37  1  0
 11 38  1  6
 12 39  1  0
 12 40  1  0
 14 41  1  0
 14 42  1  0
 14 43  1  0
 15 44  1  0
 15 45  1  0
 15 46  1  0
 16 47  1  0
 16 48  1  0
 16 49  1  0
 20 50  1  6
 21 51  1  0
 21 52  1  0
 22 53  1  0
 22 54  1  0
 26 55  1  0
 26 56  1  0
 28 57  1  0
 28 58  1  0
 28 59  1  0
 29 60  1  0
M  CHG  1  19  -1
M  END
>  <UniqueID>  (9) 
9

>  <SMILES>  (9) 
Cc1cc(C)c(S(=O)(=O)N[C@H](CC(C)(C)C)C(=O)[N-][C@@H]2CCS(=O)(=O)C2)c(C)c1

>  <Energy>  (9) 
58.971533113556895

>  <Genealogy>  (9) 
Cc1cc(C)c(S(=O)(=O)NC(CC(C)(C)C)C(=O)[N-]C2CCS(=O)(=O)C2)c(C)c1 (protonated)
Cc1cc(C)c(S(=O)(=O)N[C@H](CC(C)(C)C)C(=O)[N-][C@@H]2CCS(=O)(=O)C2)c(C)c1 (chirality)
Cc1cc(C)c(S(=O)(=O)N[C@H](CC(C)(C)C)C(=O)[N-][C@@H]2CCS(=O)(=O)C2)c(C)c1 (3D coordinates assigned)
Cc1cc(C)c(S(=O)(=O)N[C@H](CC(C)(C)C)C(=O)[N-][C@@H]2CCS(=O)(=O)C2)c(C)c1 (nonaromatic ring conformer: 58.971533113556895 kcal/mol)

>  <smiles>  (9) 
Cc1cc(C)c(S(=O)(=O)NC(CC(C)(C)C)C(=O)NC2CCS(=O)(=O)C2)c(C)c1

>  <score_type>  (9) 
oracle

>  <origin>  (9) 
adgpu

>  <m_score__min__energy>  (9) 
-11.99

>  <m_primary>  (9) 
energy

$$$$
9:0
     RDKit          3D

 57 60  0  0  0  0  0  0  0  0999 V2000
   -2.7360   21.1570  -27.9340 C   0  0  0  0  0  0  0  0  0  0  0  0
   -1.8420   21.0450  -29.1420 C   0  0  0  0  0  0  0  0  0  0  0  0
   -0.8490   20.0530  -29.1470 C   0  0  0  0  0  0  0  0  0  0  0  0
   -0.0240   19.8740  -30.2580 C   0  0  0  0  0  0  0  0  0  0  0  0
   -0.1820   20.6800  -31.3960 C   0  0  0  0  0  0  0  0  0  0  0  0
    0.6690   20.5270  -32.5460 N   0  0  0  0  0  0  0  0  0  0  0  0
    0.3380   21.0190  -33.8560 C   0  0  0  0  0  0  0  0  0  0  0  0
   -0.5400   21.9130  -33.9910 O   0  0  0  0  0  0  0  0  0  0  0  0
    1.0470   20.5260  -35.0480 C   0  0  0  0  0  0  0  0  0  0  0  0
    0.6210   19.5270  -35.9200 C   0  0  0  0  0  0  0  0  0  0  0  0
    1.5130   19.2950  -36.9750 C   0  0  0  0  0  0  0  0  0  0  0  0
    2.6390   20.1070  -36.9440 C   0  0  0  0  0  0  0  0  0  0  0  0
    2.5230   21.1150  -35.6040 S   0  0  0  0  0  0  0  0  0  0  0  0
   -1.1430   21.6980  -31.3820 C   0  0  0  0  0  0  0  0  0  0  0  0
   -1.9670   21.9060  -30.2620 C   0  0  0  0  0  0  0  0  0  0  0  0
   -2.9420   23.0190  -30.3140 C   0  0  0  0  0  0  0  0  0  0  0  0
   -2.7860   24.2830  -29.7870 C   0  0  0  0  0  0  0  0  0  0  0  0
   -3.8630   25.0240  -30.0970 N   0  0  0  0  0  0  0  0  0  0  0  0
   -4.6350   24.1870  -30.8230 C   0  0  0  0  0  0  0  0  0  0  0  0
   -5.9790   24.5730  -31.3540 C   0  0  0  0  0  0  0  0  0  0  0  0
   -6.3960   23.6580  -32.4180 N   0  0  0  0  0  0  0  0  0  0  0  0
   -7.2860   22.5460  -32.1980 C   0  0  0  0  0  0  0  0  0  0  0  0
   -8.6540   22.7360  -31.9260 C   0  0  0  0  0  0  0  0  0  0  0  0
   -9.4920   21.6360  -31.7260 C   0  0  0  0  0  0  0  0  0  0  0  0
   -8.9780   20.3400  -31.7840 C   0  0  0  0  0  0  0  0  0  0  0  0
   -7.6140   20.1310  -32.0350 C   0  0  0  0  0  0  0  0  0  0  0  0
   -7.0630   18.7610  -32.1130 C   0  0  0  0  0  0  0  0  0  0  0  0
   -7.4800   17.8930  -31.2980 O   0  0  0  0  0  0  0  0  0  0  0  0
   -6.0760   18.3960  -33.0990 N   0  0  0  0  0  0  0  0  0  0  0  0
   -5.1870   17.2620  -32.8290 C   0  0  0  0  0  0  0  0  0  0  0  0
   -6.0710   19.0380  -34.4180 C   0  0  0  0  0  0  0  0  0  0  0  0
   -6.7790   21.2370  -32.2590 C   0  0  0  0  0  0  0  0  0  0  0  0
   -4.1090   22.9550  -30.9800 N   0  0  0  0  0  0  0  0  0  0  0  0
   -2.1286   21.0809  -27.0200 H   0  0  0  0  0  0  0  0  0  0  0  0
   -3.2543   22.1271  -27.9501 H   0  0  0  0  0  0  0  0  0  0  0  0
   -3.4776   20.3447  -27.9501 H   0  0  0  0  0  0  0  0  0  0  0  0
   -0.7196   19.4091  -28.2646 H   0  0  0  0  0  0  0  0  0  0  0  0
    0.7544   19.0970  -30.2418 H   0  0  0  0  0  0  0  0  0  0  0  0
    1.6210   20.1260  -32.3960 H   0  0  0  0  0  0  0  0  0  0  0  0
   -0.3220   18.9751  -35.7929 H   0  0  0  0  0  0  0  0  0  0  0  0
    1.3377   18.5398  -37.7554 H   0  0  0  0  0  0  0  0  0  0  0  0
    3.4644   20.0930  -37.6709 H   0  0  0  0  0  0  0  0  0  0  0  0
   -1.2554   22.3468  -32.2632 H   0  0  0  0  0  0  0  0  0  0  0  0
   -1.9188   24.6295  -29.2058 H   0  0  0  0  0  0  0  0  0  0  0  0
   -6.7145   24.5361  -30.5369 H   0  0  0  0  0  0  0  0  0  0  0  0
   -5.9180   25.5911  -31.7661 H   0  0  0  0  0  0  0  0  0  0  0  0
   -6.0240   23.8060  -33.3840 H   0  0  0  0  0  0  0  0  0  0  0  0
   -9.0650   23.7548  -31.8707 H   0  0  0  0  0  0  0  0  0  0  0  0
  -10.5615   21.7923  -31.5219 H   0  0  0  0  0  0  0  0  0  0  0  0
   -9.6453   19.4788  -31.6323 H   0  0  0  0  0  0  0  0  0  0  0  0
   -5.0825   17.1287  -31.7421 H   0  0  0  0  0  0  0  0  0  0  0  0
   -5.6126   16.3491  -33.2711 H   0  0  0  0  0  0  0  0  0  0  0  0
   -4.1989   17.4573  -33.2711 H   0  0  0  0  0  0  0  0  0  0  0  0
   -6.0625   20.1309  -34.2938 H   0  0  0  0  0  0  0  0  0  0  0  0
   -5.1753   18.7252  -34.9746 H   0  0  0  0  0  0  0  0  0  0  0  0
   -6.9715   18.7392  -34.9746 H   0  0  0  0  0  0  0  0  0  0  0  0
   -5.7145   21.0769  -32.4851 H   0  0  0  0  0  0  0  0  0  0  0  0
  1  2  1  0
  2  3  2  0
  3  4  1  0
  4  5  2  0
  5  6  1  0
  6  7  1  0
  7  8  2  0
  7  9  1  0
  9 10  2  0
 10 11  1  0
 11 12  2  0
 12 13  1  0
  5 14  1  0
 14 15  2  0
 15 16  1  0
 16 17  2  0
 17 18  1  0
 18 19  1  0
 19 20  1  0
 20 21  1  0
 21 22  1  0
 22 23  2  0
 23 24  1  0
 24 25  2  0
 25 26  1  0
 26 27  1  0
 27 28  2  0
 27 29  1  0
 29 30  1  0
 29 31  1  0
 26 32  2  0
 19 33  2  0
 15  2  1  0
 33 16  1  0
 13  9  1  0
 32 22  1  0
  1 34  1  0
  1 35  1  0
  1 36  1  0
  3 37  1  0
  4 38  1  0
  6 39  1  0
 10 40  1  0
 11 41  1  0
 12 42  1  0
 14 43  1  0
 17 44  1  0
 20 45  1  0
 20 46  1  0
 21 47  1  0
 23 48  1  0
 24 49  1  0
 25 50  1  0
 30 51  1  0
 30 52  1  0
 30 53  1  0
 31 54  1  0
 31 55  1  0
 31 56  1  0
 32 57  1  0
M  CHG  1  18  -1
M  END
>  <UniqueID>  (10) 
10

>  <SMILES>  (10) 
Cc1ccc(NC(=O)c2cccs2)cc1-c1c[n-]c(CNc2cccc(C(=O)N(C)C)c2)n1

>  <Energy>  (10) 
125.54176252531431

>  <Genealogy>  (10) 
Cc1ccc(NC(=O)c2cccs2)cc1-c1c[n-]c(CNc2cccc(C(=O)N(C)C)c2)n1 (protonated)
Cc1ccc(NC(=O)c2cccs2)cc1-c1c[n-]c(CNc2cccc(C(=O)N(C)C)c2)n1 (3D coordinates assigned)
Cc1ccc(NC(=O)c2cccs2)cc1-c1c[n-]c(CNc2cccc(C(=O)N(C)C)c2)n1 (optimized conformer: 125.54176252531431 kcal/mol)

>  <smiles>  (10) 
Cc1ccc(NC(=O)c2cccs2)cc1-c1c[nH]c(CNc2cccc(C(=O)N(C)C)c2)n1

>  <score_type>  (10) 
oracle

>  <origin>  (10) 
adgpu

>  <m_score__min__energy>  (10) 
-10.449999999999999

>  <m_primary>  (10) 
energy

$$$$
10:0
     RDKit          3D

 33 35  0  0  0  0  0  0  0  0999 V2000
   -1.2370   26.9720  -29.7110 H   0  0  0  0  0  0  0  0  0  0  0  0
   -0.9340   26.3030  -28.9690 N   0  0  0  0  0  0  0  0  0  0  0  0
   -1.6440   25.2650  -28.6620 C   0  0  0  0  0  0  0  0  0  0  0  0
   -2.8140   25.0240  -29.3110 N   0  0  0  0  0  0  0  0  0  0  0  0
   -3.5900   23.9450  -29.0140 C   0  0  0  0  0  0  0  0  0  0  0  0
   -4.8560   23.7310  -29.7600 C   0  0  0  0  0  0  0  0  0  0  0  0
   -5.7300   22.6980  -29.3740 C   0  0  0  0  0  0  0  0  0  0  0  0
   -5.4732   22.0587  -28.5165 H   0  0  0  0  0  0  0  0  0  0  0  0
   -6.9210   22.4770  -30.0700 C   0  0  0  0  0  0  0  0  0  0  0  0
   -7.6002   21.6719  -29.7530 H   0  0  0  0  0  0  0  0  0  0  0  0
   -7.2520   23.2760  -31.1680 C   0  0  0  0  0  0  0  0  0  0  0  0
   -8.7770   22.9850  -32.0660 S   0  0  0  0  0  0  0  0  0  0  0  0
   -8.4210   21.2420  -32.2900 C   0  0  0  0  0  0  0  0  0  0  0  0
   -7.1760   20.8390  -32.7880 C   0  0  0  0  0  0  0  0  0  0  0  0
   -6.4166   21.5920  -33.0455 H   0  0  0  0  0  0  0  0  0  0  0  0
   -6.8980   19.4790  -32.9580 C   0  0  0  0  0  0  0  0  0  0  0  0
   -5.9191   19.1630  -33.3478 H   0  0  0  0  0  0  0  0  0  0  0  0
   -7.8630   18.5200  -32.6330 C   0  0  0  0  0  0  0  0  0  0  0  0
   -7.5920   17.2020  -32.7980 F   0  0  0  0  0  0  0  0  0  0  0  0
   -9.1090   18.9220  -32.1400 C   0  0  0  0  0  0  0  0  0  0  0  0
   -9.8689   18.1683  -31.8859 H   0  0  0  0  0  0  0  0  0  0  0  0
   -9.3890   20.2820  -31.9700 C   0  0  0  0  0  0  0  0  0  0  0  0
  -10.3699   20.5974  -31.5848 H   0  0  0  0  0  0  0  0  0  0  0  0
   -6.3900   24.3020  -31.5660 C   0  0  0  0  0  0  0  0  0  0  0  0
   -6.6504   24.9340  -32.4278 H   0  0  0  0  0  0  0  0  0  0  0  0
   -5.1970   24.5270  -30.8710 C   0  0  0  0  0  0  0  0  0  0  0  0
   -4.5202   25.3315  -31.1945 H   0  0  0  0  0  0  0  0  0  0  0  0
   -3.1560   23.0540  -28.0190 C   0  0  0  0  0  0  0  0  0  0  0  0
   -3.7541   22.1671  -27.7627 H   0  0  0  0  0  0  0  0  0  0  0  0
   -1.9530   23.3130  -27.3610 C   0  0  0  0  0  0  0  0  0  0  0  0
   -1.5440   22.5270  -26.4660 O   0  0  0  0  0  0  0  0  0  0  0  0
   -1.2200   24.4130  -27.6890 N   0  0  0  0  0  0  0  0  0  0  0  0
   -0.3190   24.5980  -27.1900 H   0  0  0  0  0  0  0  0  0  0  0  0
  1  2  1  0
  2  3  2  0
  3  4  1  0
  4  5  1  0
  5  6  1  0
  6  7  2  0
  7  8  1  0
  7  9  1  0
  9 10  1  0
  9 11  2  0
 11 12  1  0
 12 13  1  0
 13 14  2  0
 14 15  1  0
 14 16  1  0
 16 17  1  0
 16 18  2  0
 18 19  1  0
 18 20  1  0
 20 21  1  0
 20 22  2  0
 22 23  1  0
 11 24  1  0
 24 25  1  0
 24 26  2  0
 26 27  1  0
  5 28  2  0
 28 29  1  0
 28 30  1  0
 30 31  2  0
 30 32  1  0
 32 33  1  0
 32  3  1  0
 26  6  1  0
 22 13  1  0
M  CHG  1   4  -1
M  END
>  <UniqueID>  (11) 
11

>  <SMILES>  (11) 
[H]/N=c1\[n-]c(-c2ccc(Sc3ccc(F)cc3)cc2)cc(=O)[nH]1

>  <Energy>  (11) 
35.94390156328711

>  <Genealogy>  (11) 
N=c1[n-]c(-c2ccc(Sc3ccc(F)cc3)cc2)cc(=O)[nH]1 (protonated)
[H]/N=c1\[n-]c(-c2ccc(Sc3ccc(F)cc3)cc2)cc(=O)[nH]1 (cis-trans isomerization)
[H]/N=c1\[n-]c(-c2ccc(Sc3ccc(F)cc3)cc2)cc(=O)[nH]1 (3D coordinates assigned)
[H]/N=c1\[n-]c(-c2ccc(Sc3ccc(F)cc3)cc2)cc(=O)[nH]1 (optimized conformer: 35.94390156328711 kcal/mol)

>  <smiles>  (11) 
N=c1[nH]c(-c2ccc(Sc3ccc(F)cc3)cc2)cc(=O)[nH]1

>  <score_type>  (11) 
oracle

>  <origin>  (11) 
adgpu

>  <m_score__min__energy>  (11) 
-9.9100000000000001

>  <m_primary>  (11) 
energy

$$$$
11:0
     RDKit          3D

 49 52  0  0  0  0  0  0  0  0999 V2000
    3.9680   21.7390  -35.5480 C   0  0  0  0  0  0  0  0  0  0  0  0
    2.9140   20.9650  -36.1130 O   0  0  0  0  0  0  0  0  0  0  0  0
    1.6430   20.8140  -35.5360 C   0  0  0  0  0  0  0  0  0  0  0  0
    0.9360   21.9660  -35.1760 C   0  0  0  0  0  0  0  0  0  0  0  0
   -0.3320   21.8680  -34.5980 C   0  0  0  0  0  0  0  0  0  0  0  0
   -0.9160   20.6120  -34.3600 C   0  0  0  0  0  0  0  0  0  0  0  0
   -2.2640   20.5160  -33.7520 C   0  0  0  0  0  0  0  0  0  0  0  0
   -2.9190   21.5700  -33.5300 O   0  0  0  0  0  0  0  0  0  0  0  0
   -2.8130   19.2400  -33.3770 N   0  0  0  0  0  0  0  0  0  0  0  0
   -4.2140   19.0110  -33.1440 C   0  0  0  0  0  0  0  0  0  0  0  0
   -5.0960   18.7250  -34.2000 C   0  0  0  0  0  0  0  0  0  0  0  0
   -6.4510   18.4890  -33.9460 C   0  0  0  0  0  0  0  0  0  0  0  0
   -6.9400   18.5160  -32.6320 C   0  0  0  0  0  0  0  0  0  0  0  0
   -8.4040   18.2940  -32.3650 C   0  0  0  0  0  0  0  0  0  0  0  0
   -9.3960   19.7230  -32.9210 S   0  0  0  0  0  0  0  0  0  0  0  0
   -8.6640   20.8730  -31.7600 C   0  0  0  0  0  0  0  0  0  0  0  0
   -9.2700   21.2950  -30.6350 N   0  0  0  0  0  0  0  0  0  0  0  0
   -8.4240   22.1300  -30.0540 N   0  0  0  0  0  0  0  0  0  0  0  0
   -7.3340   22.1840  -30.8470 C   0  0  0  0  0  0  0  0  0  0  0  0
   -6.1370   23.0010  -30.5680 C   0  0  0  0  0  0  0  0  0  0  0  0
   -4.8640   22.4060  -30.5600 C   0  0  0  0  0  0  0  0  0  0  0  0
   -3.7290   23.1730  -30.2780 C   0  0  0  0  0  0  0  0  0  0  0  0
   -3.8550   24.5380  -30.0020 C   0  0  0  0  0  0  0  0  0  0  0  0
   -2.7280   25.2980  -29.7190 O   0  0  0  0  0  0  0  0  0  0  0  0
   -5.1190   25.1370  -30.0090 C   0  0  0  0  0  0  0  0  0  0  0  0
   -6.2570   24.3740  -30.2910 C   0  0  0  0  0  0  0  0  0  0  0  0
   -7.4760   21.4090  -31.8970 O   0  0  0  0  0  0  0  0  0  0  0  0
   -6.0570   18.7850  -31.5750 C   0  0  0  0  0  0  0  0  0  0  0  0
   -4.7040   19.0220  -31.8290 C   0  0  0  0  0  0  0  0  0  0  0  0
   -0.2060   19.4550  -34.7290 C   0  0  0  0  0  0  0  0  0  0  0  0
    1.0610   19.5540  -35.3100 C   0  0  0  0  0  0  0  0  0  0  0  0
    3.9077   21.6948  -34.4505 H   0  0  0  0  0  0  0  0  0  0  0  0
    4.9367   21.3360  -35.8786 H   0  0  0  0  0  0  0  0  0  0  0  0
    3.8735   22.7839  -35.8786 H   0  0  0  0  0  0  0  0  0  0  0  0
    1.3818   22.9566  -35.3493 H   0  0  0  0  0  0  0  0  0  0  0  0
   -0.8788   22.7830  -34.3264 H   0  0  0  0  0  0  0  0  0  0  0  0
   -2.1470   18.4690  -33.1460 H   0  0  0  0  0  0  0  0  0  0  0  0
   -4.7185   18.6865  -35.2325 H   0  0  0  0  0  0  0  0  0  0  0  0
   -7.1363   18.2812  -34.7809 H   0  0  0  0  0  0  0  0  0  0  0  0
   -8.7355   17.3945  -32.9045 H   0  0  0  0  0  0  0  0  0  0  0  0
   -8.5471   18.1689  -31.2816 H   0  0  0  0  0  0  0  0  0  0  0  0
   -4.7598   21.3326  -30.7764 H   0  0  0  0  0  0  0  0  0  0  0  0
   -2.7352   22.7015  -30.2733 H   0  0  0  0  0  0  0  0  0  0  0  0
   -5.2184   26.2108  -29.7922 H   0  0  0  0  0  0  0  0  0  0  0  0
   -7.2488   24.8498  -30.2960 H   0  0  0  0  0  0  0  0  0  0  0  0
   -6.4322   18.8094  -30.5412 H   0  0  0  0  0  0  0  0  0  0  0  0
   -4.0176   19.2187  -30.9922 H   0  0  0  0  0  0  0  0  0  0  0  0
   -0.6520   18.4640  -34.5587 H   0  0  0  0  0  0  0  0  0  0  0  0
    1.6061   18.6412  -35.5921 H   0  0  0  0  0  0  0  0  0  0  0  0
  1  2  1  0
  2  3  1  0
  3  4  2  0
  4  5  1  0
  5  6  2  0
  6  7  1  0
  7  8  2  0
  7  9  1  0
  9 10  1  0
 10 11  2  0
 11 12  1  0
 12 13  2  0
 13 14  1  0
 14 15  1  0
 15 16  1  0
 16 17  2  0
 17 18  1  0
 18 19  2  0
 19 20  1  0
 20 21  2  0
 21 22  1  0
 22 23  2  0
 23 24  1  0
 23 25  1  0
 25 26  2  0
 19 27  1  0
 13 28  1  0
 28 29  2  0
  6 30  1  0
 30 31  2  0
 31  3  1  0
 29 10  1  0
 27 16  1  0
 26 20  1  0
  1 32  1  0
  1 33  1  0
  1 34  1  0
  4 35  1  0
  5 36  1  0
  9 37  1  0
 11 38  1  0
 12 39  1  0
 14 40  1  0
 14 41  1  0
 21 42  1  0
 22 43  1  0
 25 44  1  0
 26 45  1  0
 28 46  1  0
 29 47  1  0
 30 48  1  0
 31 49  1  0
M  CHG  1  24  -1
M  END
>  <UniqueID>  (12) 
12

>  <SMILES>  (12) 
COc1ccc(C(=O)Nc2ccc(CSc3nnc(-c4ccc([O-])cc4)o3)cc2)cc1

>  <Energy>  (12) 
89.04161780833101

>  <Genealogy>  (12) 
COc1ccc(C(=O)Nc2ccc(CSc3nnc(-c4ccc([O-])cc4)o3)cc2)cc1 (protonated)
COc1ccc(C(=O)Nc2ccc(CSc3nnc(-c4ccc([O-])cc4)o3)cc2)cc1 (3D coordinates assigned)
COc1ccc(C(=O)Nc2ccc(CSc3nnc(-c4ccc([O-])cc4)o3)cc2)cc1 (optimized conformer: 89.04161780833101 kcal/mol)

>  <smiles>  (12) 
COc1ccc(C(=O)Nc2ccc(CSc3nnc(-c4ccc(O)cc4)o3)cc2)cc1

>  <score_type>  (12) 
oracle

>  <origin>  (12) 
adgpu

>  <m_score__min__energy>  (12) 
-12.51

>  <m_primary>  (12) 
energy

$$$$
12:0
     RDKit          3D

 50 53  0  0  0  0  0  0  0  0999 V2000
   -6.7210   24.9980  -29.7780 C   0  0  0  0  0  0  0  0  0  0  0  0
   -5.4990   25.5830  -30.4010 C   0  0  0  0  0  0  0  0  0  0  0  0
   -5.3620   26.8350  -30.4470 O   0  0  0  0  0  0  0  0  0  0  0  0
   -4.4500   24.7130  -30.8420 N   0  0  0  0  0  0  0  0  0  0  0  0
   -4.5890   23.3450  -31.2530 C   0  0  0  0  0  0  0  0  0  0  0  0
   -3.9640   22.3490  -30.4930 C   0  0  0  0  0  0  0  0  0  0  0  0
   -4.0930   21.0020  -30.8450 C   0  0  0  0  0  0  0  0  0  0  0  0
   -4.8870   20.6320  -31.9390 C   0  0  0  0  0  0  0  0  0  0  0  0
   -4.9710   19.2200  -32.3470 C   0  0  0  0  0  0  0  0  0  0  0  0
   -6.1450   18.4970  -32.0470 C   0  0  0  0  0  0  0  0  0  0  0  0
   -6.2970   17.1720  -32.4940 C   0  0  0  0  0  0  0  0  0  0  0  0
   -5.3140   16.5710  -33.2220 N   0  0  0  0  0  0  0  0  0  0  0  0
   -4.1820   17.2620  -33.5090 C   0  0  0  0  0  0  0  0  0  0  0  0
   -3.9730   18.5540  -33.0840 C   0  0  0  0  0  0  0  0  0  0  0  0
   -2.6770   18.8780  -33.5000 C   0  0  0  0  0  0  0  0  0  0  0  0
   -1.6930   20.2980  -33.1440 S   0  0  0  0  0  0  0  0  0  0  0  0
   -0.2200   20.3330  -34.1470 C   0  0  0  0  0  0  0  0  0  0  0  0
   -2.4950   21.5270  -33.4660 O   0  0  0  0  0  0  0  0  0  0  0  0
   -1.3410   20.3340  -31.6850 O   0  0  0  0  0  0  0  0  0  0  0  0
   -2.1930   17.7560  -34.1680 C   0  0  0  0  0  0  0  0  0  0  0  0
   -3.1220   16.7790  -34.1710 N   0  0  0  0  0  0  0  0  0  0  0  0
   -2.9360   15.1780  -34.8050 S   0  0  0  0  0  0  0  0  0  0  0  0
   -1.4820   14.8000  -34.8290 O   0  0  0  0  0  0  0  0  0  0  0  0
   -3.4690   15.1400  -36.2090 O   0  0  0  0  0  0  0  0  0  0  0  0
   -3.8050   14.0500  -33.7720 C   0  0  0  0  0  0  0  0  0  0  0  0
   -4.8500   13.2650  -34.2850 C   0  0  0  0  0  0  0  0  0  0  0  0
   -5.5470   12.3900  -33.4440 C   0  0  0  0  0  0  0  0  0  0  0  0
   -5.2040   12.2960  -32.0920 C   0  0  0  0  0  0  0  0  0  0  0  0
   -4.1660   13.0790  -31.5770 C   0  0  0  0  0  0  0  0  0  0  0  0
   -3.4690   13.9550  -32.4140 C   0  0  0  0  0  0  0  0  0  0  0  0
   -5.5050   21.6270  -32.7100 C   0  0  0  0  0  0  0  0  0  0  0  0
   -5.3730   22.9740  -32.3610 C   0  0  0  0  0  0  0  0  0  0  0  0
   -6.6307   25.0412  -28.6826 H   0  0  0  0  0  0  0  0  0  0  0  0
   -7.6047   25.5707  -30.0959 H   0  0  0  0  0  0  0  0  0  0  0  0
   -6.8291   23.9505  -30.0959 H   0  0  0  0  0  0  0  0  0  0  0  0
   -3.3670   22.6283  -29.6123 H   0  0  0  0  0  0  0  0  0  0  0  0
   -3.5697   20.2303  -30.2614 H   0  0  0  0  0  0  0  0  0  0  0  0
   -6.9454   18.9719  -31.4606 H   0  0  0  0  0  0  0  0  0  0  0  0
   -7.2159   16.6169  -32.2543 H   0  0  0  0  0  0  0  0  0  0  0  0
    0.6664   20.3541  -33.4960 H   0  0  0  0  0  0  0  0  0  0  0  0
   -0.1874   19.4354  -34.7820 H   0  0  0  0  0  0  0  0  0  0  0  0
   -0.2300   21.2312  -34.7820 H   0  0  0  0  0  0  0  0  0  0  0  0
   -1.1964   17.6781  -34.6270 H   0  0  0  0  0  0  0  0  0  0  0  0
   -5.1210   13.3378  -35.3486 H   0  0  0  0  0  0  0  0  0  0  0  0
   -6.3655   11.7756  -33.8472 H   0  0  0  0  0  0  0  0  0  0  0  0
   -5.7509   11.6057  -31.4329 H   0  0  0  0  0  0  0  0  0  0  0  0
   -3.8979   13.0055  -30.5127 H   0  0  0  0  0  0  0  0  0  0  0  0
   -2.6545   14.5717  -32.0062 H   0  0  0  0  0  0  0  0  0  0  0  0
   -6.0966   21.3461  -33.5938 H   0  0  0  0  0  0  0  0  0  0  0  0
   -5.8837   23.7466  -32.9545 H   0  0  0  0  0  0  0  0  0  0  0  0
  1  2  1  0
  2  3  2  0
  2  4  1  0
  4  5  1  0
  5  6  2  0
  6  7  1  0
  7  8  2  0
  8  9  1  0
  9 10  2  0
 10 11  1  0
 11 12  2  0
 12 13  1  0
 13 14  2  0
 14 15  1  0
 15 16  1  0
 16 17  1  0
 16 18  2  0
 16 19  2  0
 15 20  2  0
 20 21  1  0
 21 22  1  0
 22 23  2  0
 22 24  2  0
 22 25  1  0
 25 26  2  0
 26 27  1  0
 27 28  2  0
 28 29  1  0
 29 30  2  0
  8 31  1  0
 31 32  2  0
 32  5  1  0
 14  9  1  0
 30 25  1  0
 21 13  1  0
  1 33  1  0
  1 34  1  0
  1 35  1  0
  6 36  1  0
  7 37  1  0
 10 38  1  0
 11 39  1  0
 17 40  1  0
 17 41  1  0
 17 42  1  0
 20 43  1  0
 26 44  1  0
 27 45  1  0
 28 46  1  0
 29 47  1  0
 30 48  1  0
 31 49  1  0
 32 50  1  0
M  CHG  1   4  -1
M  END
>  <UniqueID>  (13) 
13

>  <SMILES>  (13) 
CC(=O)[N-]c1ccc(-c2ccnc3c2c(S(C)(=O)=O)cn3S(=O)(=O)c2ccccc2)cc1

>  <Energy>  (13) 
100.65635646635637

>  <Genealogy>  (13) 
CC(=O)[N-]c1ccc(-c2ccnc3c2c(S(C)(=O)=O)cn3S(=O)(=O)c2ccccc2)cc1 (protonated)
CC(=O)[N-]c1ccc(-c2ccnc3c2c(S(C)(=O)=O)cn3S(=O)(=O)c2ccccc2)cc1 (3D coordinates assigned)
CC(=O)[N-]c1ccc(-c2ccnc3c2c(S(C)(=O)=O)cn3S(=O)(=O)c2ccccc2)cc1 (optimized conformer: 100.65635646635637 kcal/mol)

>  <smiles>  (13) 
CC(=O)Nc1ccc(-c2ccnc3c2c(S(C)(=O)=O)cn3S(=O)(=O)c2ccccc2)cc1

>  <score_type>  (13) 
oracle

>  <origin>  (13) 
adgpu

>  <m_score__min__energy>  (13) 
-10.359999999999999

>  <m_primary>  (13) 
energy

$$$$
13:0
     RDKit          3D

 42 44  0  0  0  0  0  0  0  0999 V2000
   -4.9800   25.2660  -30.5940 C   0  0  0  0  0  0  0  0  0  0  0  0
   -3.8330   24.4600  -30.8430 O   0  0  0  0  0  0  0  0  0  0  0  0
   -3.1380   23.7390  -29.8580 C   0  0  0  0  0  0  0  0  0  0  0  0
   -3.0770   24.1740  -28.5180 C   0  0  0  0  0  0  0  0  0  0  0  0
   -2.3690   23.4360  -27.5670 C   0  0  0  0  0  0  0  0  0  0  0  0
   -1.7140   22.2610  -27.9400 C   0  0  0  0  0  0  0  0  0  0  0  0
   -1.7660   21.8190  -29.2620 C   0  0  0  0  0  0  0  0  0  0  0  0
   -2.4750   22.5510  -30.2290 C   0  0  0  0  0  0  0  0  0  0  0  0
   -2.5450   22.0750  -31.5860 N   0  0  0  0  0  0  0  0  0  0  0  0
   -1.3240   21.5870  -32.2390 C   0  0  0  0  0  0  0  0  0  0  0  0
   -3.8420   21.8590  -32.1890 C   0  0  0  0  0  0  0  0  0  0  0  0
   -4.0380   22.1030  -33.4540 N   0  0  0  0  0  0  0  0  0  0  0  0
   -4.9100   21.3260  -31.3830 N   0  0  0  0  0  0  0  0  0  0  0  0
   -6.3040   21.5970  -31.6160 C   0  0  0  0  0  0  0  0  0  0  0  0
   -6.7640   22.9280  -31.6200 C   0  0  0  0  0  0  0  0  0  0  0  0
   -8.1180   23.2150  -31.7980 C   0  0  0  0  0  0  0  0  0  0  0  0
   -9.0390   22.1810  -31.9680 C   0  0  0  0  0  0  0  0  0  0  0  0
   -8.6090   20.8510  -31.9660 C   0  0  0  0  0  0  0  0  0  0  0  0
   -9.5150   19.8500  -32.1390 N   0  0  0  0  0  0  0  0  0  0  0  0
   -9.1480   18.5430  -32.1510 C   0  0  0  0  0  0  0  0  0  0  0  0
   -7.8070   18.1930  -31.9900 C   0  0  0  0  0  0  0  0  0  0  0  0
   -6.8490   19.1920  -31.8160 C   0  0  0  0  0  0  0  0  0  0  0  0
   -7.2360   20.5450  -31.7880 C   0  0  0  0  0  0  0  0  0  0  0  0
   -5.1270   25.3693  -29.5088 H   0  0  0  0  0  0  0  0  0  0  0  0
   -4.8332   26.2606  -31.0404 H   0  0  0  0  0  0  0  0  0  0  0  0
   -5.8660   24.7909  -31.0404 H   0  0  0  0  0  0  0  0  0  0  0  0
   -3.5902   25.1002  -28.2200 H   0  0  0  0  0  0  0  0  0  0  0  0
   -2.3274   23.7808  -26.5233 H   0  0  0  0  0  0  0  0  0  0  0  0
   -1.1555   21.6823  -27.1896 H   0  0  0  0  0  0  0  0  0  0  0  0
   -1.2487   20.8916  -29.5491 H   0  0  0  0  0  0  0  0  0  0  0  0
   -0.5907   21.2939  -31.4732 H   0  0  0  0  0  0  0  0  0  0  0  0
   -1.5665   20.7167  -32.8665 H   0  0  0  0  0  0  0  0  0  0  0  0
   -0.8999   22.3847  -32.8665 H   0  0  0  0  0  0  0  0  0  0  0  0
   -3.2980   22.5190  -34.0590 H   0  0  0  0  0  0  0  0  0  0  0  0
   -4.9530   21.8920  -33.9100 H   0  0  0  0  0  0  0  0  0  0  0  0
   -4.6510   20.7630  -30.5410 H   0  0  0  0  0  0  0  0  0  0  0  0
   -6.0476   23.7511  -31.4812 H   0  0  0  0  0  0  0  0  0  0  0  0
   -8.4604   24.2603  -31.8043 H   0  0  0  0  0  0  0  0  0  0  0  0
  -10.1057   22.4128  -32.1039 H   0  0  0  0  0  0  0  0  0  0  0  0
   -9.9081   17.7597  -32.2877 H   0  0  0  0  0  0  0  0  0  0  0  0
   -7.5067   17.1348  -32.0002 H   0  0  0  0  0  0  0  0  0  0  0  0
   -5.7890   18.9218  -31.7004 H   0  0  0  0  0  0  0  0  0  0  0  0
  1  2  1  0
  2  3  1  0
  3  4  2  0
  4  5  1  0
  5  6  2  0
  6  7  1  0
  7  8  2  0
  8  9  1  0
  9 10  1  0
  9 11  1  0
 11 12  2  0
 11 13  1  0
 13 14  1  0
 14 15  2  0
 15 16  1  0
 16 17  2  0
 17 18  1  0
 18 19  2  0
 19 20  1  0
 20 21  2  0
 21 22  1  0
 22 23  2  0
  8  3  1  0
 23 14  1  0
 23 18  1  0
  1 24  1  0
  1 25  1  0
  1 26  1  0
  4 27  1  0
  5 28  1  0
  6 29  1  0
  7 30  1  0
 10 31  1  0
 10 32  1  0
 10 33  1  0
 12 34  1  0
 12 35  1  0
 13 36  1  0
 15 37  1  0
 16 38  1  0
 17 39  1  0
 20 40  1  0
 21 41  1  0
 22 42  1  0
M  CHG  1  12   1
M  END
>  <UniqueID>  (14) 
14

>  <SMILES>  (14) 
COc1ccccc1N(C)C(=[NH2+])Nc1cccc2ncccc12

>  <Energy>  (14) 
60.18421755206536

>  <Genealogy>  (14) 
COc1ccccc1N(C)C(=[NH2+])Nc1cccc2ncccc12 (protonated)
COc1ccccc1N(C)C(=[NH2+])Nc1cccc2ncccc12 (3D coordinates assigned)
COc1ccccc1N(C)C(=[NH2+])Nc1cccc2ncccc12 (optimized conformer: 60.18421755206536 kcal/mol)

>  <smiles>  (14) 
COc1ccccc1N(C)C(=N)Nc1cccc2ncccc12

>  <score_type>  (14) 
oracle

>  <origin>  (14) 
adgpu

>  <m_score__min__energy>  (14) 
-7.8799999999999999

>  <m_primary>  (14) 
energy

$$$$
14:0
     RDKit          3D

 47 49  0  0  0  0  0  0  0  0999 V2000
    2.5940   21.0280  -36.4710 C   0  0  0  0  0  0  0  0  0  0  0  0
    1.5690   20.5570  -35.5480 N   0  0  0  0  0  0  0  0  0  0  0  0
    0.5870   21.4450  -34.9960 C   0  0  0  0  0  0  0  0  0  0  0  0
    0.6050   22.6660  -35.3100 O   0  0  0  0  0  0  0  0  0  0  0  0
   -0.4500   20.9390  -34.0700 C   0  0  0  0  0  0  0  0  0  0  0  0
   -0.3590   21.1540  -32.6820 C   0  0  0  0  0  0  0  0  0  0  0  0
   -1.3820   20.6860  -31.8390 C   0  0  0  0  0  0  0  0  0  0  0  0
   -1.3510   20.8630  -30.4480 O   0  0  0  0  0  0  0  0  0  0  0  0
   -1.7120   22.0190  -29.7360 C   0  0  0  0  0  0  0  0  0  0  0  0
   -1.3950   22.0750  -28.3730 C   0  0  0  0  0  0  0  0  0  0  0  0
   -1.8050   23.1570  -27.5910 C   0  0  0  0  0  0  0  0  0  0  0  0
   -2.5290   24.2030  -28.1670 C   0  0  0  0  0  0  0  0  0  0  0  0
   -2.8170   24.1850  -29.5350 C   0  0  0  0  0  0  0  0  0  0  0  0
   -3.5140   25.2910  -30.1190 N   0  0  0  0  0  0  0  0  0  0  0  0
   -4.9030   25.2570  -30.4710 C   0  0  0  0  0  0  0  0  0  0  0  0
   -5.7430   25.8080  -29.7130 O   0  0  0  0  0  0  0  0  0  0  0  0
   -5.3570   24.6070  -31.6660 N   0  0  0  0  0  0  0  0  0  0  0  0
   -6.0350   23.3430  -31.7190 C   0  0  0  0  0  0  0  0  0  0  0  0
   -7.3450   23.2520  -31.2320 C   0  0  0  0  0  0  0  0  0  0  0  0
   -8.0270   22.0350  -31.2630 C   0  0  0  0  0  0  0  0  0  0  0  0
   -7.4140   20.9010  -31.8000 C   0  0  0  0  0  0  0  0  0  0  0  0
   -6.1200   20.9760  -32.3240 C   0  0  0  0  0  0  0  0  0  0  0  0
   -5.5530   19.8130  -32.8660 O   0  0  0  0  0  0  0  0  0  0  0  0
   -6.1470   19.0330  -33.8990 C   0  0  0  0  0  0  0  0  0  0  0  0
   -5.4350   22.2070  -32.2930 C   0  0  0  0  0  0  0  0  0  0  0  0
   -2.4320   23.0820  -30.3150 C   0  0  0  0  0  0  0  0  0  0  0  0
   -2.4460   19.9700  -32.3930 C   0  0  0  0  0  0  0  0  0  0  0  0
   -2.5000   19.7660  -33.7710 C   0  0  0  0  0  0  0  0  0  0  0  0
   -1.5150   20.2530  -34.5690 N   0  0  0  0  0  0  0  0  0  0  0  0
    3.4486   21.4207  -35.9006 H   0  0  0  0  0  0  0  0  0  0  0  0
    2.9285   20.1933  -37.1045 H   0  0  0  0  0  0  0  0  0  0  0  0
    2.1785   21.8255  -37.1045 H   0  0  0  0  0  0  0  0  0  0  0  0
    1.5660   19.5440  -35.2890 H   0  0  0  0  0  0  0  0  0  0  0  0
    0.5070   21.6848  -32.2596 H   0  0  0  0  0  0  0  0  0  0  0  0
   -0.8176   21.2590  -27.9140 H   0  0  0  0  0  0  0  0  0  0  0  0
   -1.5572   23.1853  -26.5196 H   0  0  0  0  0  0  0  0  0  0  0  0
   -2.8730   25.0417  -27.5439 H   0  0  0  0  0  0  0  0  0  0  0  0
   -7.8393   24.1453  -30.8226 H   0  0  0  0  0  0  0  0  0  0  0  0
   -9.0498   21.9688  -30.8635 H   0  0  0  0  0  0  0  0  0  0  0  0
   -7.9529   19.9421  -31.8108 H   0  0  0  0  0  0  0  0  0  0  0  0
   -6.7557   18.2337  -33.4510 H   0  0  0  0  0  0  0  0  0  0  0  0
   -6.7866   19.6756  -34.5219 H   0  0  0  0  0  0  0  0  0  0  0  0
   -5.3575   18.5873  -34.5219 H   0  0  0  0  0  0  0  0  0  0  0  0
   -4.4241   22.2804  -32.7205 H   0  0  0  0  0  0  0  0  0  0  0  0
   -2.6940   23.0483  -31.3828 H   0  0  0  0  0  0  0  0  0  0  0  0
   -3.2384   19.5686  -31.7442 H   0  0  0  0  0  0  0  0  0  0  0  0
   -3.3407   19.2104  -34.2121 H   0  0  0  0  0  0  0  0  0  0  0  0
  1  2  1  0
  2  3  1  0
  3  4  2  0
  3  5  1  0
  5  6  2  0
  6  7  1  0
  7  8  1  0
  8  9  1  0
  9 10  2  0
 10 11  1  0
 11 12  2  0
 12 13  1  0
 13 14  1  0
 14 15  1  0
 15 16  2  0
 15 17  1  0
 17 18  1  0
 18 19  2  0
 19 20  1  0
 20 21  2  0
 21 22  1  0
 22 23  1  0
 23 24  1  0
 22 25  2  0
 13 26  2  0
  7 27  2  0
 27 28  1  0
 28 29  2  0
 29  5  1  0
 26  9  1  0
 25 18  1  0
  1 30  1  0
  1 31  1  0
  1 32  1  0
  2 33  1  0
  6 34  1  0
 10 35  1  0
 11 36  1  0
 12 37  1  0
 19 38  1  0
 20 39  1  0
 21 40  1  0
 24 41  1  0
 24 42  1  0
 24 43  1  0
 25 44  1  0
 26 45  1  0
 27 46  1  0
 28 47  1  0
M  CHG  2  14  -1  17  -1
M  END
>  <UniqueID>  (15) 
15

>  <SMILES>  (15) 
CNC(=O)c1cc(Oc2cccc([N-]C(=O)[N-]c3cccc(OC)c3)c2)ccn1

>  <Energy>  (15) 
60.141879866427594

>  <Genealogy>  (15) 
CNC(=O)c1cc(Oc2cccc([N-]C(=O)[N-]c3cccc(OC)c3)c2)ccn1 (protonated)
CNC(=O)c1cc(Oc2cccc([N-]C(=O)[N-]c3cccc(OC)c3)c2)ccn1 (3D coordinates assigned)
CNC(=O)c1cc(Oc2cccc([N-]C(=O)[N-]c3cccc(OC)c3)c2)ccn1 (optimized conformer: 60.141879866427594 kcal/mol)

>  <smiles>  (15) 
CNC(=O)c1cc(Oc2cccc(NC(=O)Nc3cccc(OC)c3)c2)ccn1

>  <score_type>  (15) 
oracle

>  <origin>  (15) 
adgpu

>  <m_score__min__energy>  (15) 
-11.57

>  <m_primary>  (15) 
energy

$$$$
15:0
     RDKit          3D

 39 41  0  0  0  0  0  0  0  0999 V2000
   -9.9300   17.5560  -30.8170 H   0  0  0  0  0  0  0  0  0  0  0  0
   -9.6670   18.0940  -31.6340 O   0  0  0  0  0  0  0  0  0  0  0  0
   -8.3840   18.6220  -31.7770 C   0  0  0  0  0  0  0  0  0  0  0  0
   -7.2570   17.7990  -31.6680 C   0  0  0  0  0  0  0  0  0  0  0  0
   -7.3798   16.7244  -31.4677 H   0  0  0  0  0  0  0  0  0  0  0  0
   -5.9760   18.3390  -31.8130 C   0  0  0  0  0  0  0  0  0  0  0  0
   -5.0957   17.6858  -31.7217 H   0  0  0  0  0  0  0  0  0  0  0  0
   -5.8020   19.7120  -32.0750 C   0  0  0  0  0  0  0  0  0  0  0  0
   -4.4350   20.2800  -32.2250 C   0  0  0  0  0  0  0  0  0  0  0  0
   -3.5330   19.5770  -32.8580 N   0  0  0  0  0  0  0  0  0  0  0  0
   -2.1920   19.9720  -33.1920 C   0  0  0  0  0  0  0  0  0  0  0  0
   -1.1410   19.0840  -32.9360 C   0  0  0  0  0  0  0  0  0  0  0  0
   -1.3494   18.1121  -32.4649 H   0  0  0  0  0  0  0  0  0  0  0  0
    0.1720   19.4240  -33.2750 C   0  0  0  0  0  0  0  0  0  0  0  0
    0.9925   18.7230  -33.0621 H   0  0  0  0  0  0  0  0  0  0  0  0
    0.4460   20.6570  -33.8860 C   0  0  0  0  0  0  0  0  0  0  0  0
    1.8490   21.0060  -34.2850 C   0  0  0  0  0  0  0  0  0  0  0  0
    2.4597   21.1579  -33.3828 H   0  0  0  0  0  0  0  0  0  0  0  0
    2.2749   20.1864  -34.8824 H   0  0  0  0  0  0  0  0  0  0  0  0
    1.8413   21.9296  -34.8824 H   0  0  0  0  0  0  0  0  0  0  0  0
   -0.6130   21.5260  -34.1920 C   0  0  0  0  0  0  0  0  0  0  0  0
   -0.4098   22.4796  -34.7013 H   0  0  0  0  0  0  0  0  0  0  0  0
   -1.9240   21.1840  -33.8520 C   0  0  0  0  0  0  0  0  0  0  0  0
   -2.7502   21.8659  -34.1017 H   0  0  0  0  0  0  0  0  0  0  0  0
   -4.1070   21.5910  -31.6070 C   0  0  0  0  0  0  0  0  0  0  0  0
   -2.9440   21.7430  -30.8320 C   0  0  0  0  0  0  0  0  0  0  0  0
   -2.2698   20.8871  -30.6805 H   0  0  0  0  0  0  0  0  0  0  0  0
   -2.6420   22.9800  -30.2530 C   0  0  0  0  0  0  0  0  0  0  0  0
   -1.7288   23.0958  -29.6508 H   0  0  0  0  0  0  0  0  0  0  0  0
   -3.4980   24.0690  -30.4380 C   0  0  0  0  0  0  0  0  0  0  0  0
   -3.1950   25.2970  -29.8630 O   0  0  0  0  0  0  0  0  0  0  0  0
   -4.6610   23.9210  -31.2010 C   0  0  0  0  0  0  0  0  0  0  0  0
   -5.3360   24.7776  -31.3445 H   0  0  0  0  0  0  0  0  0  0  0  0
   -4.9670   22.6880  -31.7810 C   0  0  0  0  0  0  0  0  0  0  0  0
   -5.8850   22.5754  -32.3764 H   0  0  0  0  0  0  0  0  0  0  0  0
   -6.9450   20.5310  -32.1750 C   0  0  0  0  0  0  0  0  0  0  0  0
   -6.8296   21.6075  -32.3695 H   0  0  0  0  0  0  0  0  0  0  0  0
   -8.2240   19.9860  -32.0290 C   0  0  0  0  0  0  0  0  0  0  0  0
   -9.1084   20.6347  -32.1130 H   0  0  0  0  0  0  0  0  0  0  0  0
  1  2  1  0
  2  3  1  0
  3  4  2  0
  4  5  1  0
  4  6  1  0
  6  7  1  0
  6  8  2  0
  8  9  1  0
  9 10  2  0
 10 11  1  0
 11 12  2  0
 12 13  1  0
 12 14  1  0
 14 15  1  0
 14 16  2  0
 16 17  1  0
 17 18  1  0
 17 19  1  0
 17 20  1  0
 16 21  1  0
 21 22  1  0
 21 23  2  0
 23 24  1  0
  9 25  1  0
 25 26  2  0
 26 27  1  0
 26 28  1  0
 28 29  1  0
 28 30  2  0
 30 31  1  0
 30 32  1  0
 32 33  1  0
 32 34  2  0
 34 35  1  0
  8 36  1  0
 36 37  1  0
 36 38  2  0
 38 39  1  0
 38  3  1  0
 23 11  1  0
 34 25  1  0
M  CHG  1  31  -1
M  END
>  <UniqueID>  (16) 
16

>  <SMILES>  (16) 
Cc1ccc(/N=C(\c2ccc([O-])cc2)c2ccc(O)cc2)cc1

>  <Energy>  (16) 
55.02788372914513

>  <Genealogy>  (16) 
Cc1ccc(N=C(c2ccc([O-])cc2)c2ccc(O)cc2)cc1 (protonated)
Cc1ccc(/N=C(\c2ccc([O-])cc2)c2ccc(O)cc2)cc1 (cis-trans isomerization)
Cc1ccc(/N=C(\c2ccc([O-])cc2)c2ccc(O)cc2)cc1 (3D coordinates assigned)
Cc1ccc(/N=C(\c2ccc([O-])cc2)c2ccc(O)cc2)cc1 (optimized conformer: 55.02788372914513 kcal/mol)

>  <smiles>  (16) 
Cc1ccc(N=C(c2ccc(O)cc2)c2ccc(O)cc2)cc1

>  <score_type>  (16) 
oracle

>  <origin>  (16) 
adgpu

>  <m_score__min__energy>  (16) 
-10.01

>  <m_primary>  (16) 
energy

$$$$
16:0
     RDKit          3D

 29 31  0  0  0  0  0  0  0  0999 V2000
   -8.9810   20.0630  -32.9570 O   0  0  0  0  0  0  0  0  0  0  0  0
   -8.0330   20.9180  -32.4000 C   0  0  0  0  0  0  0  0  0  0  0  0
   -8.4410   21.9280  -31.5250 C   0  0  0  0  0  0  0  0  0  0  0  0
   -7.5010   22.7930  -30.9580 C   0  0  0  0  0  0  0  0  0  0  0  0
   -6.1320   22.6590  -31.2610 C   0  0  0  0  0  0  0  0  0  0  0  0
   -5.1180   23.5660  -30.6700 C   0  0  0  0  0  0  0  0  0  0  0  0
   -4.3980   23.3700  -29.5050 C   0  0  0  0  0  0  0  0  0  0  0  0
   -3.5980   24.4940  -29.4040 C   0  0  0  0  0  0  0  0  0  0  0  0
   -2.6190   24.8050  -28.3330 C   0  0  0  0  0  0  0  0  0  0  0  0
   -1.2530   24.9950  -28.6210 C   0  0  0  0  0  0  0  0  0  0  0  0
   -0.3460   25.2870  -27.5960 C   0  0  0  0  0  0  0  0  0  0  0  0
   -0.7890   25.3910  -26.2760 C   0  0  0  0  0  0  0  0  0  0  0  0
    0.3510   25.7580  -24.9940 Cl  0  0  0  0  0  0  0  0  0  0  0  0
   -2.1410   25.2050  -25.9780 C   0  0  0  0  0  0  0  0  0  0  0  0
   -3.0510   24.9140  -26.9980 C   0  0  0  0  0  0  0  0  0  0  0  0
   -3.8380   25.3050  -30.4530 N   0  0  0  0  0  0  0  0  0  0  0  0
   -4.7580   24.7430  -31.2200 N   0  0  0  0  0  0  0  0  0  0  0  0
   -5.7310   21.6380  -32.1440 C   0  0  0  0  0  0  0  0  0  0  0  0
   -6.6740   20.7740  -32.7080 C   0  0  0  0  0  0  0  0  0  0  0  0
   -8.9080   19.7430  -33.9150 H   0  0  0  0  0  0  0  0  0  0  0  0
   -9.5075   22.0429  -31.2811 H   0  0  0  0  0  0  0  0  0  0  0  0
   -7.8328   23.5845  -30.2699 H   0  0  0  0  0  0  0  0  0  0  0  0
   -4.4499   22.5145  -28.8155 H   0  0  0  0  0  0  0  0  0  0  0  0
   -0.8970   24.9133  -29.6586 H   0  0  0  0  0  0  0  0  0  0  0  0
    0.7184   25.4349  -27.8308 H   0  0  0  0  0  0  0  0  0  0  0  0
   -2.4902   25.2878  -24.9382 H   0  0  0  0  0  0  0  0  0  0  0  0
   -4.1140   24.7689  -26.7553 H   0  0  0  0  0  0  0  0  0  0  0  0
   -4.6660   21.5193  -32.3922 H   0  0  0  0  0  0  0  0  0  0  0  0
   -6.3483   19.9792  -33.3952 H   0  0  0  0  0  0  0  0  0  0  0  0
  1  2  1  0
  2  3  2  0
  3  4  1  0
  4  5  2  0
  5  6  1  0
  6  7  1  0
  7  8  2  0
  8  9  1  0
  9 10  2  0
 10 11  1  0
 11 12  2  0
 12 13  1  0
 12 14  1  0
 14 15  2  0
  8 16  1  0
 16 17  1  0
  5 18  1  0
 18 19  2  0
 19  2  1  0
 17  6  2  0
 15  9  1  0
  1 20  1  0
  3 21  1  0
  4 22  1  0
  7 23  1  0
 10 24  1  0
 11 25  1  0
 14 26  1  0
 15 27  1  0
 18 28  1  0
 19 29  1  0
M  CHG  1  16  -1
M  END
>  <UniqueID>  (17) 
17

>  <SMILES>  (17) 
Oc1ccc(-c2cc(-c3ccc(Cl)cc3)[n-]n2)cc1

>  <Energy>  (17) 
63.747591480897384

>  <Genealogy>  (17) 
Oc1ccc(-c2cc(-c3ccc(Cl)cc3)[n-]n2)cc1 (protonated)
Oc1ccc(-c2cc(-c3ccc(Cl)cc3)[n-]n2)cc1 (3D coordinates assigned)
Oc1ccc(-c2cc(-c3ccc(Cl)cc3)[n-]n2)cc1 (optimized conformer: 63.747591480897384 kcal/mol)

>  <smiles>  (17) 
Oc1ccc(-c2cc(-c3ccc(Cl)cc3)[nH]n2)cc1

>  <score_type>  (17) 
oracle

>  <origin>  (17) 
adgpu

>  <m_score__min__energy>  (17) 
-9.6699999999999999

>  <m_primary>  (17) 
energy

$$$$
17:0
     RDKit          3D

 44 47  0  0  0  0  0  0  0  0999 V2000
   -8.3490   18.4940  -32.4200 C   0  0  0  0  0  0  0  0  0  0  0  0
   -7.2050   18.9320  -33.0920 C   0  0  0  0  0  0  0  0  0  0  0  0
   -6.8090   20.2720  -33.0040 C   0  0  0  0  0  0  0  0  0  0  0  0
   -7.5780   21.1910  -32.2640 C   0  0  0  0  0  0  0  0  0  0  0  0
   -7.2100   22.5400  -32.1340 O   0  0  0  0  0  0  0  0  0  0  0  0
   -6.1640   23.0240  -31.3350 C   0  0  0  0  0  0  0  0  0  0  0  0
   -4.9210   22.3700  -31.2610 C   0  0  0  0  0  0  0  0  0  0  0  0
   -3.8990   22.8870  -30.4580 C   0  0  0  0  0  0  0  0  0  0  0  0
   -4.1010   24.0690  -29.7240 C   0  0  0  0  0  0  0  0  0  0  0  0
   -3.0220   24.6100  -28.8740 C   0  0  0  0  0  0  0  0  0  0  0  0
   -2.9730   24.4490  -27.5320 N   0  0  0  0  0  0  0  0  0  0  0  0
   -1.8420   25.0930  -27.1900 C   0  0  0  0  0  0  0  0  0  0  0  0
   -1.3170   25.1760  -25.7890 C   0  0  0  0  0  0  0  0  0  0  0  0
   -1.7220   26.4520  -25.1570 N   0  0  0  0  0  0  0  0  0  0  0  0
   -1.1240   27.6100  -25.8430 C   0  0  0  0  0  0  0  0  0  0  0  0
    0.1410   28.0100  -25.0940 C   0  0  0  0  0  0  0  0  0  0  0  0
    0.1340   27.2070  -23.8110 C   0  0  0  0  0  0  0  0  0  0  0  0
   -1.2270   26.5330  -23.7760 C   0  0  0  0  0  0  0  0  0  0  0  0
   -1.2470   25.6130  -28.3170 C   0  0  0  0  0  0  0  0  0  0  0  0
   -2.0000   25.2970  -29.3400 O   0  0  0  0  0  0  0  0  0  0  0  0
   -5.3350   24.7310  -29.8200 C   0  0  0  0  0  0  0  0  0  0  0  0
   -6.3540   24.2160  -30.6260 C   0  0  0  0  0  0  0  0  0  0  0  0
   -8.7210   20.7390  -31.5880 C   0  0  0  0  0  0  0  0  0  0  0  0
   -9.1070   19.3970  -31.6690 C   0  0  0  0  0  0  0  0  0  0  0  0
   -8.6531   17.4387  -32.4819 H   0  0  0  0  0  0  0  0  0  0  0  0
   -6.6146   18.2230  -33.6910 H   0  0  0  0  0  0  0  0  0  0  0  0
   -5.8944   20.6081  -33.5144 H   0  0  0  0  0  0  0  0  0  0  0  0
   -4.7519   21.4482  -31.8369 H   0  0  0  0  0  0  0  0  0  0  0  0
   -2.9320   22.3659  -30.4005 H   0  0  0  0  0  0  0  0  0  0  0  0
   -1.7195   24.3376  -25.2016 H   0  0  0  0  0  0  0  0  0  0  0  0
   -0.2185   25.1268  -25.8178 H   0  0  0  0  0  0  0  0  0  0  0  0
   -0.8727   27.3393  -26.8791 H   0  0  0  0  0  0  0  0  0  0  0  0
   -1.8353   28.4489  -25.8598 H   0  0  0  0  0  0  0  0  0  0  0  0
    1.0323   27.7686  -25.6918 H   0  0  0  0  0  0  0  0  0  0  0  0
    0.1674   29.0913  -24.8939 H   0  0  0  0  0  0  0  0  0  0  0  0
    0.9373   26.4556  -23.8209 H   0  0  0  0  0  0  0  0  0  0  0  0
    0.3047   27.8392  -22.9271 H   0  0  0  0  0  0  0  0  0  0  0  0
   -1.1336   25.5224  -23.3518 H   0  0  0  0  0  0  0  0  0  0  0  0
   -1.9252   27.1079  -23.1500 H   0  0  0  0  0  0  0  0  0  0  0  0
   -0.3103   26.1887  -28.3516 H   0  0  0  0  0  0  0  0  0  0  0  0
   -5.5011   25.6613  -29.2571 H   0  0  0  0  0  0  0  0  0  0  0  0
   -7.3120   24.7510  -30.7038 H   0  0  0  0  0  0  0  0  0  0  0  0
   -9.3174   21.4442  -30.9905 H   0  0  0  0  0  0  0  0  0  0  0  0
  -10.0082   19.0518  -31.1411 H   0  0  0  0  0  0  0  0  0  0  0  0
  1  2  2  0
  2  3  1  0
  3  4  2  0
  4  5  1  0
  5  6  1  0
  6  7  2  0
  7  8  1  0
  8  9  2  0
  9 10  1  0
 10 11  2  0
 11 12  1  0
 12 13  1  0
 13 14  1  0
 14 15  1  0
 15 16  1  0
 16 17  1  0
 17 18  1  0
 12 19  2  0
 19 20  1  0
  9 21  1  0
 21 22  2  0
  4 23  1  0
 23 24  2  0
 24  1  1  0
 22  6  1  0
 20 10  1  0
 18 14  1  0
  1 25  1  0
  2 26  1  0
  3 27  1  0
  7 28  1  0
  8 29  1  0
 13 30  1  0
 13 31  1  0
 15 32  1  0
 15 33  1  0
 16 34  1  0
 16 35  1  0
 17 36  1  0
 17 37  1  0
 18 38  1  0
 18 39  1  0
 19 40  1  0
 21 41  1  0
 22 42  1  0
 23 43  1  0
 24 44  1  0
M  END
>  <UniqueID>  (18) 
18

>  <SMILES>  (18) 
c1ccc(Oc2ccc(-c3nc(CN4CCCC4)co3)cc2)cc1

>  <Energy>  (18) 
85.71808450197526

>  <Genealogy>  (18) 
c1ccc(Oc2ccc(-c3nc(CN4CCCC4)co3)cc2)cc1 (3D coordinates assigned)
c1ccc(Oc2ccc(-c3nc(CN4CCCC4)co3)cc2)cc1 (nonaromatic ring conformer: 85.71808450197526 kcal/mol)

>  <smiles>  (18) 
c1ccc(Oc2ccc(-c3nc(CN4CCCC4)co3)cc2)cc1

>  <score_type>  (18) 
oracle

>  <origin>  (18) 
adgpu

>  <m_score__min__energy>  (18) 
-8.5299999999999994

>  <m_primary>  (18) 
energy

$$$$
18:0
     RDKit          3D

 64 68  0  0  0  0  0  0  0  0999 V2000
    1.9098   28.0215  -35.5346 H   0  0  0  0  0  0  0  0  0  0  0  0
    1.7410   26.9440  -35.6780 C   0  0  0  0  0  0  0  0  0  0  0  0
    2.7950   26.0430  -35.5060 C   0  0  0  0  0  0  0  0  0  0  0  0
    3.7933   26.4123  -35.2285 H   0  0  0  0  0  0  0  0  0  0  0  0
    2.5830   24.6730  -35.6860 C   0  0  0  0  0  0  0  0  0  0  0  0
    3.4158   23.9671  -35.5515 H   0  0  0  0  0  0  0  0  0  0  0  0
    1.3100   24.1950  -36.0380 C   0  0  0  0  0  0  0  0  0  0  0  0
    1.0890   22.7160  -36.2620 C   0  0  0  0  0  0  0  0  0  0  0  0
    1.9367   22.3134  -36.8359 H   0  0  0  0  0  0  0  0  0  0  0  0
    0.1429   22.5936  -36.8096 H   0  0  0  0  0  0  0  0  0  0  0  0
    0.9780   21.9690  -34.9840 N   0  0  0  0  0  0  0  0  0  0  0  0
    0.9210   22.6760  -34.2100 H   0  0  0  0  0  0  0  0  0  0  0  0
   -0.2860   21.1810  -34.9400 C   0  0  0  0  0  0  0  0  0  0  0  0
   -1.0041   21.6243  -35.6456 H   0  0  0  0  0  0  0  0  0  0  0  0
   -0.6662   21.2114  -33.9082 H   0  0  0  0  0  0  0  0  0  0  0  0
   -0.0670   19.7060  -35.3180 C   0  0  0  0  0  0  0  0  0  0  0  0
    0.3269   19.6578  -36.3439 H   0  0  0  0  0  0  0  0  0  0  0  0
   -1.0345   19.1890  -35.2362 H   0  0  0  0  0  0  0  0  0  0  0  0
    0.8900   19.0300  -34.4060 N   0  0  0  0  0  0  0  0  0  0  0  0
    0.1880   18.2480  -33.3660 C   0  0  0  0  0  0  0  0  0  0  0  0
    0.8640   18.0959  -32.5116 H   0  0  0  0  0  0  0  0  0  0  0  0
   -0.1113   17.2803  -33.7950 H   0  0  0  0  0  0  0  0  0  0  0  0
   -1.0410   18.9660  -32.8980 C   0  0  0  0  0  0  0  0  0  0  0  0
   -2.2690   18.5530  -33.3040 N   0  0  0  0  0  0  0  0  0  0  0  0
   -3.3820   19.2190  -32.9080 C   0  0  0  0  0  0  0  0  0  0  0  0
   -4.5460   18.8180  -33.3270 N   0  0  0  0  0  0  0  0  0  0  0  0
   -5.8240   19.3730  -32.9720 C   0  0  0  0  0  0  0  0  0  0  0  0
   -6.9820   18.5780  -32.8810 C   0  0  0  0  0  0  0  0  0  0  0  0
   -6.9192   17.4950  -33.0632 H   0  0  0  0  0  0  0  0  0  0  0  0
   -8.2110   19.1600  -32.5600 C   0  0  0  0  0  0  0  0  0  0  0  0
   -9.1093   18.5306  -32.4767 H   0  0  0  0  0  0  0  0  0  0  0  0
   -8.3050   20.5390  -32.3440 C   0  0  0  0  0  0  0  0  0  0  0  0
   -9.8690   21.2340  -31.9420 Cl  0  0  0  0  0  0  0  0  0  0  0  0
   -7.1590   21.3420  -32.4640 C   0  0  0  0  0  0  0  0  0  0  0  0
   -7.2360   23.0810  -32.2180 Cl  0  0  0  0  0  0  0  0  0  0  0  0
   -5.9290   20.7570  -32.7870 C   0  0  0  0  0  0  0  0  0  0  0  0
   -5.0365   21.3905  -32.8965 H   0  0  0  0  0  0  0  0  0  0  0  0
   -3.2560   20.3180  -32.1180 N   0  0  0  0  0  0  0  0  0  0  0  0
   -2.0330   20.7460  -31.7090 C   0  0  0  0  0  0  0  0  0  0  0  0
   -1.9120   21.9130  -30.8690 N   0  0  0  0  0  0  0  0  0  0  0  0
   -2.9890   22.9130  -30.8500 C   0  0  0  0  0  0  0  0  0  0  0  0
   -2.8699   23.5891  -31.7095 H   0  0  0  0  0  0  0  0  0  0  0  0
   -3.9568   22.3932  -30.9063 H   0  0  0  0  0  0  0  0  0  0  0  0
   -2.9420   23.7300  -29.5570 C   0  0  0  0  0  0  0  0  0  0  0  0
   -3.6494   24.5688  -29.6347 H   0  0  0  0  0  0  0  0  0  0  0  0
   -3.2149   23.0751  -28.7164 H   0  0  0  0  0  0  0  0  0  0  0  0
   -1.6430   24.2390  -29.3310 O   0  0  0  0  0  0  0  0  0  0  0  0
   -0.7540   23.1680  -29.0890 C   0  0  0  0  0  0  0  0  0  0  0  0
    0.2287   23.5725  -28.8050 H   0  0  0  0  0  0  0  0  0  0  0  0
   -1.1625   22.5478  -28.2775 H   0  0  0  0  0  0  0  0  0  0  0  0
   -0.5960   22.2970  -30.3400 C   0  0  0  0  0  0  0  0  0  0  0  0
   -0.0480   22.8625  -31.1081 H   0  0  0  0  0  0  0  0  0  0  0  0
   -0.0408   21.3861  -30.0716 H   0  0  0  0  0  0  0  0  0  0  0  0
   -0.9270   20.0640  -32.1080 N   0  0  0  0  0  0  0  0  0  0  0  0
    1.8810   19.9600  -33.8070 C   0  0  0  0  0  0  0  0  0  0  0  0
    2.8126   19.4101  -33.6078 H   0  0  0  0  0  0  0  0  0  0  0  0
    1.4576   20.3627  -32.8750 H   0  0  0  0  0  0  0  0  0  0  0  0
    2.1860   21.1340  -34.7440 C   0  0  0  0  0  0  0  0  0  0  0  0
    2.5446   20.7394  -35.7062 H   0  0  0  0  0  0  0  0  0  0  0  0
    2.9521   21.7644  -34.2689 H   0  0  0  0  0  0  0  0  0  0  0  0
    0.2560   25.1080  -36.2140 C   0  0  0  0  0  0  0  0  0  0  0  0
   -0.7431   24.7441  -36.4959 H   0  0  0  0  0  0  0  0  0  0  0  0
    0.4730   26.4770  -36.0320 C   0  0  0  0  0  0  0  0  0  0  0  0
   -0.3558   27.1873  -36.1677 H   0  0  0  0  0  0  0  0  0  0  0  0
  1  2  1  0
  2  3  2  0
  3  4  1  0
  3  5  1  0
  5  6  1  0
  5  7  2  0
  7  8  1  0
  8  9  1  0
  8 10  1  0
  8 11  1  0
 11 12  1  0
 11 13  1  0
 13 14  1  0
 13 15  1  0
 13 16  1  0
 16 17  1  0
 16 18  1  0
 16 19  1  0
 19 20  1  0
 20 21  1  0
 20 22  1  0
 20 23  1  0
 23 24  2  0
 24 25  1  0
 25 26  2  0
 26 27  1  0
 27 28  2  0
 28 29  1  0
 28 30  1  0
 30 31  1  0
 30 32  2  0
 32 33  1  0
 32 34  1  0
 34 35  1  0
 34 36  2  0
 36 37  1  0
 25 38  1  0
 38 39  2  0
 39 40  1  0
 40 41  1  0
 41 42  1  0
 41 43  1  0
 41 44  1  0
 44 45  1  0
 44 46  1  0
 44 47  1  0
 47 48  1  0
 48 49  1  0
 48 50  1  0
 48 51  1  0
 51 52  1  0
 51 53  1  0
 39 54  1  0
 19 55  1  0
 55 56  1  0
 55 57  1  0
 55 58  1  0
 58 59  1  0
 58 60  1  0
  7 61  1  0
 61 62  1  0
 61 63  2  0
 63 64  1  0
 63  2  1  0
 58 11  1  0
 54 23  1  0
 36 27  1  0
 51 40  1  0
M  CHG  2  11   1  54  -1
M  END
>  <UniqueID>  (19) 
19

>  <SMILES>  (19) 
Clc1ccc(/N=c2/nc(CN3CC[NH+](Cc4ccccc4)CC3)[n-]c(N3CCOCC3)n2)cc1Cl

>  <Energy>  (19) 
90.3370294589292

>  <Genealogy>  (19) 
Clc1ccc(N=c2nc(CN3CC[NH+](Cc4ccccc4)CC3)[n-]c(N3CCOCC3)n2)cc1Cl (protonated)
Clc1ccc(/N=c2/nc(CN3CC[NH+](Cc4ccccc4)CC3)[n-]c(N3CCOCC3)n2)cc1Cl (cis-trans isomerization)
Clc1ccc(/N=c2/nc(CN3CC[NH+](Cc4ccccc4)CC3)[n-]c(N3CCOCC3)n2)cc1Cl (3D coordinates assigned)
Clc1ccc(/N=c2/nc(CN3CC[NH+](Cc4ccccc4)CC3)[n-]c(N3CCOCC3)n2)cc1Cl (nonaromatic ring conformer: 90.3370294589292 kcal/mol)

>  <smiles>  (19) 
Clc1ccc(N=c2nc(CN3CCN(Cc4ccccc4)CC3)[nH]c(N3CCOCC3)n2)cc1Cl

>  <score_type>  (19) 
oracle

>  <origin>  (19) 
adgpu

>  <m_score__min__energy>  (19) 
-10.619999999999999

>  <m_primary>  (19) 
energy

$$$$
19:0
     RDKit          3D

 42 44  0  0  0  0  0  0  0  0999 V2000
   -1.3270   17.2390  -33.1050 C   0  0  0  0  0  0  0  0  0  0  0  0
   -1.4410   18.5050  -33.7450 O   0  0  0  0  0  0  0  0  0  0  0  0
   -2.0850   19.6240  -33.1920 C   0  0  0  0  0  0  0  0  0  0  0  0
   -1.3550   20.7110  -32.6750 C   0  0  0  0  0  0  0  0  0  0  0  0
   -2.0130   21.8130  -32.1240 C   0  0  0  0  0  0  0  0  0  0  0  0
   -3.4160   21.8510  -32.0710 C   0  0  0  0  0  0  0  0  0  0  0  0
   -4.1340   23.0000  -31.4750 C   0  0  0  0  0  0  0  0  0  0  0  0
   -5.4670   23.0640  -31.1100 C   0  0  0  0  0  0  0  0  0  0  0  0
   -5.6080   24.3480  -30.6310 C   0  0  0  0  0  0  0  0  0  0  0  0
   -6.8500   24.9290  -30.0430 C   0  0  0  0  0  0  0  0  0  0  0  0
   -4.4280   24.9920  -30.6890 N   0  0  0  0  0  0  0  0  0  0  0  0
   -3.5730   24.1580  -31.2050 O   0  0  0  0  0  0  0  0  0  0  0  0
   -4.1450   20.7710  -32.5920 C   0  0  0  0  0  0  0  0  0  0  0  0
   -3.4940   19.6630  -33.1530 C   0  0  0  0  0  0  0  0  0  0  0  0
   -4.4950   18.3700  -33.8280 S   0  0  0  0  0  0  0  0  0  0  0  0
   -4.6140   17.2760  -32.8060 O   0  0  0  0  0  0  0  0  0  0  0  0
   -3.9070   17.7900  -35.0840 O   0  0  0  0  0  0  0  0  0  0  0  0
   -6.0750   18.9940  -34.1760 N   0  0  0  0  0  0  0  0  0  0  0  0
   -7.0870   19.2730  -33.1980 C   0  0  0  0  0  0  0  0  0  0  0  0
   -7.7720   18.2490  -32.5200 C   0  0  0  0  0  0  0  0  0  0  0  0
   -8.7670   18.5660  -31.5930 C   0  0  0  0  0  0  0  0  0  0  0  0
   -9.0770   19.9010  -31.3220 C   0  0  0  0  0  0  0  0  0  0  0  0
   -8.3820   20.9320  -31.9690 C   0  0  0  0  0  0  0  0  0  0  0  0
   -8.7390   22.3650  -31.7050 C   0  0  0  0  0  0  0  0  0  0  0  0
   -7.3980   20.6100  -32.9170 C   0  0  0  0  0  0  0  0  0  0  0  0
   -1.3395   17.3773  -32.0138 H   0  0  0  0  0  0  0  0  0  0  0  0
   -2.1712   16.6000  -33.4033 H   0  0  0  0  0  0  0  0  0  0  0  0
   -0.3822   16.7611  -33.4033 H   0  0  0  0  0  0  0  0  0  0  0  0
   -0.2556   20.6923  -32.7052 H   0  0  0  0  0  0  0  0  0  0  0  0
   -1.4284   22.6569  -31.7289 H   0  0  0  0  0  0  0  0  0  0  0  0
   -6.2320   22.2771  -31.1845 H   0  0  0  0  0  0  0  0  0  0  0  0
   -6.7850   24.8986  -28.9453 H   0  0  0  0  0  0  0  0  0  0  0  0
   -6.9598   25.9719  -30.3751 H   0  0  0  0  0  0  0  0  0  0  0  0
   -7.7209   24.3449  -30.3751 H   0  0  0  0  0  0  0  0  0  0  0  0
   -5.2443   20.7940  -32.5598 H   0  0  0  0  0  0  0  0  0  0  0  0
   -7.5235   17.1963  -32.7203 H   0  0  0  0  0  0  0  0  0  0  0  0
   -9.3088   17.7615  -31.0741 H   0  0  0  0  0  0  0  0  0  0  0  0
   -9.8692   20.1438  -30.5985 H   0  0  0  0  0  0  0  0  0  0  0  0
   -8.7821   22.5381  -30.6196 H   0  0  0  0  0  0  0  0  0  0  0  0
   -7.9768   23.0209  -32.1509 H   0  0  0  0  0  0  0  0  0  0  0  0
   -9.7198   22.5867  -32.1509 H   0  0  0  0  0  0  0  0  0  0  0  0
   -6.8658   21.4153  -33.4445 H   0  0  0  0  0  0  0  0  0  0  0  0
  1  2  1  0
  2  3  1  0
  3  4  2  0
  4  5  1  0
  5  6  2  0
  6  7  1  0
  7  8  2  0
  8  9  1  0
  9 10  1  0
  9 11  2  0
 11 12  1  0
  6 13  1  0
 13 14  2  0
 14 15  1  0
 15 16  2  0
 15 17  2  0
 15 18  1  0
 18 19  1  0
 19 20  2  0
 20 21  1  0
 21 22  2  0
 22 23  1  0
 23 24  1  0
 23 25  2  0
 14  3  1  0
 25 19  1  0
 12  7  1  0
  1 26  1  0
  1 27  1  0
  1 28  1  0
  4 29  1  0
  5 30  1  0
  8 31  1  0
 10 32  1  0
 10 33  1  0
 10 34  1  0
 13 35  1  0
 20 36  1  0
 21 37  1  0
 22 38  1  0
 24 39  1  0
 24 40  1  0
 24 41  1  0
 25 42  1  0
M  CHG  1  18  -1
M  END
>  <UniqueID>  (20) 
20

>  <SMILES>  (20) 
COc1ccc(-c2cc(C)no2)cc1S(=O)(=O)[N-]c1cccc(C)c1

>  <Energy>  (20) 
77.02052843681466

>  <Genealogy>  (20) 
COc1ccc(-c2cc(C)no2)cc1S(=O)(=O)[N-]c1cccc(C)c1 (protonated)
COc1ccc(-c2cc(C)no2)cc1S(=O)(=O)[N-]c1cccc(C)c1 (3D coordinates assigned)
COc1ccc(-c2cc(C)no2)cc1S(=O)(=O)[N-]c1cccc(C)c1 (optimized conformer: 77.02052843681466 kcal/mol)

>  <smiles>  (20) 
COc1ccc(-c2cc(C)no2)cc1S(=O)(=O)Nc1cccc(C)c1

>  <score_type>  (20) 
oracle

>  <origin>  (20) 
adgpu

>  <m_score__min__energy>  (20) 
-9.6799999999999997

>  <m_primary>  (20) 
energy

$$$$
20:0
     RDKit          3D

 50 52  0  0  0  0  0  0  0  0999 V2000
   -0.7790   24.0860  -28.9950 C   0  0  0  0  0  0  0  0  0  0  0  0
   -1.7900   24.5160  -27.9670 C   0  0  0  0  0  0  0  0  0  0  0  0
   -1.4090   25.3920  -26.9370 C   0  0  0  0  0  0  0  0  0  0  0  0
   -2.3310   25.7870  -25.9660 C   0  0  0  0  0  0  0  0  0  0  0  0
   -3.6360   25.2990  -26.0040 C   0  0  0  0  0  0  0  0  0  0  0  0
   -4.0250   24.4160  -27.0130 C   0  0  0  0  0  0  0  0  0  0  0  0
   -3.1080   24.0130  -28.0030 C   0  0  0  0  0  0  0  0  0  0  0  0
   -3.4840   23.0960  -29.0430 N   0  0  0  0  0  0  0  0  0  0  0  0
   -3.9510   23.5440  -30.6520 S   0  0  0  0  0  0  0  0  0  0  0  0
   -3.9310   25.0430  -30.7710 O   0  0  0  0  0  0  0  0  0  0  0  0
   -2.9620   22.9790  -31.6320 O   0  0  0  0  0  0  0  0  0  0  0  0
   -5.5610   22.8970  -31.0100 C   0  0  0  0  0  0  0  0  0  0  0  0
   -5.6650   21.6150  -31.5720 C   0  0  0  0  0  0  0  0  0  0  0  0
   -6.9150   21.0720  -31.8910 C   0  0  0  0  0  0  0  0  0  0  0  0
   -7.0340   19.4620  -32.6010 S   0  0  0  0  0  0  0  0  0  0  0  0
   -8.4510   19.2060  -33.0380 O   0  0  0  0  0  0  0  0  0  0  0  0
   -6.6790   18.4510  -31.5460 O   0  0  0  0  0  0  0  0  0  0  0  0
   -5.9340   19.2910  -33.9530 N   0  0  0  0  0  0  0  0  0  0  0  0
   -6.1210   18.0120  -34.6670 C   0  0  0  0  0  0  0  0  0  0  0  0
   -5.5720   16.8040  -33.8850 C   0  0  0  0  0  0  0  0  0  0  0  0
   -4.2510   17.1040  -33.1550 C   0  0  0  0  0  0  0  0  0  0  0  0
   -3.5820   18.3690  -33.6880 C   0  0  0  0  0  0  0  0  0  0  0  0
   -4.5300   19.5780  -33.5650 C   0  0  0  0  0  0  0  0  0  0  0  0
   -8.0740   21.8080  -31.6340 C   0  0  0  0  0  0  0  0  0  0  0  0
   -7.9870   23.0860  -31.0810 C   0  0  0  0  0  0  0  0  0  0  0  0
   -6.7390   23.6440  -30.7570 C   0  0  0  0  0  0  0  0  0  0  0  0
   -6.6910   25.0420  -30.1980 C   0  0  0  0  0  0  0  0  0  0  0  0
    0.1194   23.7039  -28.4882 H   0  0  0  0  0  0  0  0  0  0  0  0
   -1.2102   23.2934  -29.6242 H   0  0  0  0  0  0  0  0  0  0  0  0
   -0.5071   24.9464  -29.6242 H   0  0  0  0  0  0  0  0  0  0  0  0
   -0.3766   25.7695  -26.8953 H   0  0  0  0  0  0  0  0  0  0  0  0
   -2.0274   26.4836  -25.1707 H   0  0  0  0  0  0  0  0  0  0  0  0
   -4.3609   25.6102  -25.2374 H   0  0  0  0  0  0  0  0  0  0  0  0
   -5.0556   24.0321  -27.0349 H   0  0  0  0  0  0  0  0  0  0  0  0
   -4.7534   21.0301  -31.7640 H   0  0  0  0  0  0  0  0  0  0  0  0
   -7.1968   17.8597  -34.8386 H   0  0  0  0  0  0  0  0  0  0  0  0
   -5.5612   18.0761  -35.6117 H   0  0  0  0  0  0  0  0  0  0  0  0
   -6.3219   16.4998  -33.1399 H   0  0  0  0  0  0  0  0  0  0  0  0
   -5.3682   16.0071  -34.6153 H   0  0  0  0  0  0  0  0  0  0  0  0
   -4.4589   17.2361  -32.0829 H   0  0  0  0  0  0  0  0  0  0  0  0
   -3.5676   16.2589  -33.3246 H   0  0  0  0  0  0  0  0  0  0  0  0
   -2.6680   18.5660  -33.1085 H   0  0  0  0  0  0  0  0  0  0  0  0
   -3.3351   18.2189  -34.7494 H   0  0  0  0  0  0  0  0  0  0  0  0
   -4.5234   19.9167  -32.5185 H   0  0  0  0  0  0  0  0  0  0  0  0
   -4.1590   20.3435  -34.2624 H   0  0  0  0  0  0  0  0  0  0  0  0
   -9.0591   21.3784  -31.8685 H   0  0  0  0  0  0  0  0  0  0  0  0
   -8.9053   23.6628  -30.8967 H   0  0  0  0  0  0  0  0  0  0  0  0
   -6.6925   24.9977  -29.0989 H   0  0  0  0  0  0  0  0  0  0  0  0
   -5.7751   25.5438  -30.5435 H   0  0  0  0  0  0  0  0  0  0  0  0
   -7.5703   25.6054  -30.5435 H   0  0  0  0  0  0  0  0  0  0  0  0
  1  2  1  0
  2  3  2  0
  3  4  1  0
  4  5  2  0
  5  6  1  0
  6  7  2  0
  7  8  1  0
  8  9  1  0
  9 10  2  0
  9 11  2  0
  9 12  1  0
 12 13  2  0
 13 14  1  0
 14 15  1  0
 15 16  2  0
 15 17  2  0
 15 18  1  0
 18 19  1  0
 19 20  1  0
 20 21  1  0
 21 22  1  0
 22 23  1  0
 14 24  2  0
 24 25  1  0
 25 26  2  0
 26 27  1  0
  7  2  1  0
 26 12  1  0
 23 18  1  0
  1 28  1  0
  1 29  1  0
  1 30  1  0
  3 31  1  0
  4 32  1  0
  5 33  1  0
  6 34  1  0
 13 35  1  0
 19 36  1  0
 19 37  1  0
 20 38  1  0
 20 39  1  0
 21 40  1  0
 21 41  1  0
 22 42  1  0
 22 43  1  0
 23 44  1  0
 23 45  1  0
 24 46  1  0
 25 47  1  0
 27 48  1  0
 27 49  1  0
 27 50  1  0
M  CHG  1   8  -1
M  END
>  <UniqueID>  (21) 
21

>  <SMILES>  (21) 
Cc1ccccc1[N-]S(=O)(=O)c1cc(S(=O)(=O)N2CCCCC2)ccc1C

>  <Energy>  (21) 
61.72455051101587

>  <Genealogy>  (21) 
Cc1ccccc1[N-]S(=O)(=O)c1cc(S(=O)(=O)N2CCCCC2)ccc1C (protonated)
Cc1ccccc1[N-]S(=O)(=O)c1cc(S(=O)(=O)N2CCCCC2)ccc1C (3D coordinates assigned)
Cc1ccccc1[N-]S(=O)(=O)c1cc(S(=O)(=O)N2CCCCC2)ccc1C (nonaromatic ring conformer: 61.72455051101587 kcal/mol)

>  <smiles>  (21) 
Cc1ccccc1NS(=O)(=O)c1cc(S(=O)(=O)N2CCCCC2)ccc1C

>  <score_type>  (21) 
oracle

>  <origin>  (21) 
adgpu

>  <m_score__min__energy>  (21) 
-10.789999999999999

>  <m_primary>  (21) 
energy

$$$$
21:0
     RDKit          3D

 38 40  0  0  0  0  0  0  0  0999 V2000
   -0.8860   26.4620  -27.9640 C   0  0  0  0  0  0  0  0  0  0  0  0
   -1.5240   25.6770  -28.9650 O   0  0  0  0  0  0  0  0  0  0  0  0
   -1.7910   24.3050  -28.8460 C   0  0  0  0  0  0  0  0  0  0  0  0
   -2.8610   23.9040  -28.0380 C   0  0  0  0  0  0  0  0  0  0  0  0
   -3.1660   22.5490  -27.8870 C   0  0  0  0  0  0  0  0  0  0  0  0
   -2.4050   21.5810  -28.5450 C   0  0  0  0  0  0  0  0  0  0  0  0
   -1.3330   21.9630  -29.3660 C   0  0  0  0  0  0  0  0  0  0  0  0
   -0.5190   20.9230  -30.0910 C   0  0  0  0  0  0  0  0  0  0  0  0
   -0.4100   21.2300  -31.5190 N   0  0  0  0  0  0  0  0  0  0  0  0
   -1.7340   20.5510  -32.4250 S   0  0  0  0  0  0  0  0  0  0  0  0
   -1.8960   19.1070  -32.0440 O   0  0  0  0  0  0  0  0  0  0  0  0
   -1.4220   20.6220  -33.8940 O   0  0  0  0  0  0  0  0  0  0  0  0
   -3.2410   21.3970  -32.0790 C   0  0  0  0  0  0  0  0  0  0  0  0
   -4.4640   20.7410  -32.2760 C   0  0  0  0  0  0  0  0  0  0  0  0
   -5.6700   21.3900  -31.9870 C   0  0  0  0  0  0  0  0  0  0  0  0
   -7.3240   20.4720  -32.2630 Br  0  0  0  0  0  0  0  0  0  0  0  0
   -5.6550   22.7000  -31.4870 C   0  0  0  0  0  0  0  0  0  0  0  0
   -4.4320   23.3590  -31.2970 C   0  0  0  0  0  0  0  0  0  0  0  0
   -3.2290   22.7130  -31.5940 C   0  0  0  0  0  0  0  0  0  0  0  0
   -4.4300   24.7130  -30.8410 N   0  0  0  0  0  0  0  0  0  0  0  0
   -5.6560   25.3500  -30.4790 C   0  0  0  0  0  0  0  0  0  0  0  0
   -5.6600   26.5690  -30.1680 O   0  0  0  0  0  0  0  0  0  0  0  0
   -6.9210   24.5430  -30.3900 C   0  0  0  0  0  0  0  0  0  0  0  0
   -6.8550   23.3630  -31.1970 O   0  0  0  0  0  0  0  0  0  0  0  0
   -1.0250   23.3260  -29.5100 C   0  0  0  0  0  0  0  0  0  0  0  0
   -1.1817   26.0982  -26.9689 H   0  0  0  0  0  0  0  0  0  0  0  0
    0.2054   26.3808  -28.0747 H   0  0  0  0  0  0  0  0  0  0  0  0
   -1.1886   27.5138  -28.0747 H   0  0  0  0  0  0  0  0  0  0  0  0
   -3.4663   24.6612  -27.5180 H   0  0  0  0  0  0  0  0  0  0  0  0
   -4.0079   22.2441  -27.2480 H   0  0  0  0  0  0  0  0  0  0  0  0
   -2.6466   20.5152  -28.4194 H   0  0  0  0  0  0  0  0  0  0  0  0
    0.4899   20.8895  -29.6540 H   0  0  0  0  0  0  0  0  0  0  0  0
   -1.0233   19.9514  -29.9832 H   0  0  0  0  0  0  0  0  0  0  0  0
   -4.4760   19.7102  -32.6599 H   0  0  0  0  0  0  0  0  0  0  0  0
   -2.2727   23.2365  -31.4474 H   0  0  0  0  0  0  0  0  0  0  0  0
   -7.0835   24.2496  -29.3424 H   0  0  0  0  0  0  0  0  0  0  0  0
   -7.7503   25.1643  -30.7590 H   0  0  0  0  0  0  0  0  0  0  0  0
   -0.1804   23.6312  -30.1452 H   0  0  0  0  0  0  0  0  0  0  0  0
  1  2  1  0
  2  3  1  0
  3  4  2  0
  4  5  1  0
  5  6  2  0
  6  7  1  0
  7  8  1  0
  8  9  1  0
  9 10  1  0
 10 11  2  0
 10 12  2  0
 10 13  1  0
 13 14  2  0
 14 15  1  0
 15 16  1  0
 15 17  2  0
 17 18  1  0
 18 19  2  0
 18 20  1  0
 20 21  1  0
 21 22  2  0
 21 23  1  0
 23 24  1  0
  7 25  2  0
 25  3  1  0
 19 13  1  0
 24 17  1  0
  1 26  1  0
  1 27  1  0
  1 28  1  0
  4 29  1  0
  5 30  1  0
  6 31  1  0
  8 32  1  0
  8 33  1  0
 14 34  1  0
 19 35  1  0
 23 36  1  0
 23 37  1  0
 25 38  1  0
M  CHG  2   9  -1  20  -1
M  END
>  <UniqueID>  (22) 
22

>  <SMILES>  (22) 
COc1cccc(C[N-]S(=O)(=O)c2cc(Br)c3c(c2)[N-]C(=O)CO3)c1

>  <Energy>  (22) 
39.53054933872468

>  <Genealogy>  (22) 
COc1cccc(C[N-]S(=O)(=O)c2cc(Br)c3c(c2)[N-]C(=O)CO3)c1 (protonated)
COc1cccc(C[N-]S(=O)(=O)c2cc(Br)c3c(c2)[N-]C(=O)CO3)c1 (3D coordinates assigned)
COc1cccc(C[N-]S(=O)(=O)c2cc(Br)c3c(c2)[N-]C(=O)CO3)c1 (nonaromatic ring conformer: 39.53054933872468 kcal/mol)

>  <smiles>  (22) 
COc1cccc(CNS(=O)(=O)c2cc(Br)c3c(c2)NC(=O)CO3)c1

>  <score_type>  (22) 
oracle

>  <origin>  (22) 
adgpu

>  <m_score__min__energy>  (22) 
-9.8100000000000005

>  <m_primary>  (22) 
energy

$$$$
22:0
     RDKit          3D

 55 58  0  0  1  0  0  0  0  0999 V2000
   -4.2480   17.1200  -34.8540 C   0  0  0  0  0  0  0  0  0  0  0  0
   -5.3410   17.8070  -34.1360 C   0  0  0  0  0  0  0  0  0  0  0  0
   -5.9060   17.1860  -33.0350 C   0  0  0  0  0  0  0  0  0  0  0  0
   -6.9260   17.7710  -32.3230 C   0  0  0  0  0  0  0  0  0  0  0  0
   -7.4160   19.0070  -32.6900 C   0  0  0  0  0  0  0  0  0  0  0  0
   -8.7000   19.8320  -31.8560 S   0  0  0  0  0  0  0  0  0  0  0  0
   -9.0930   19.1030  -30.5970 O   0  0  0  0  0  0  0  0  0  0  0  0
   -9.8950   19.8790  -32.8090 O   0  0  0  0  0  0  0  0  0  0  0  0
   -8.2570   21.4470  -31.5510 N   0  0  0  0  0  0  0  0  0  0  0  0
   -6.9660   21.9730  -31.4040 C   0  0  0  0  0  0  0  0  0  0  0  0
   -5.9360   21.0340  -31.2140 C   0  0  0  0  0  0  0  0  0  0  0  0
   -4.6270   21.4370  -31.0460 C   0  0  0  0  0  0  0  0  0  0  0  0
   -4.3000   22.7760  -31.0600 C   0  0  0  0  0  0  0  0  0  0  0  0
   -2.9280   23.1140  -30.8800 N   0  0  0  0  0  0  0  0  0  0  0  0
   -2.5200   23.7500  -29.8340 C   0  0  0  0  0  0  0  0  0  0  0  0
   -1.2210   24.0740  -29.6580 N   0  0  0  0  0  0  0  0  0  0  0  0
   -1.1660   24.7100  -28.5000 N   0  0  0  0  0  0  0  0  0  0  0  0
   -2.3890   24.7930  -27.9470 C   0  0  0  0  0  0  0  0  0  0  0  0
   -2.6660   25.3460  -26.8350 N   0  0  0  0  0  0  0  0  0  0  0  0
   -1.6340   25.9460  -26.0590 C   0  0  0  0  0  0  0  0  0  0  0  0
   -0.6390   25.0880  -25.5950 C   0  0  0  0  0  0  0  0  0  0  0  0
    0.4140   25.5390  -24.8360 C   0  0  0  0  0  0  0  0  0  0  0  0
    0.4900   26.8860  -24.5230 C   0  0  0  0  0  0  0  0  0  0  0  0
    1.8380   27.4210  -23.5590 S   0  0  0  0  0  0  0  0  0  0  0  0
    1.2080   28.2840  -22.1870 N   0  0  0  0  0  0  0  0  0  0  0  0
    2.6010   28.4320  -24.3820 O   0  0  0  0  0  0  0  0  0  0  0  0
    2.6660   26.2600  -23.1440 O   0  0  0  0  0  0  0  0  0  0  0  0
   -0.4980   27.7430  -24.9830 C   0  0  0  0  0  0  0  0  0  0  0  0
   -1.5610   27.2670  -25.7530 C   0  0  0  0  0  0  0  0  0  0  0  0
   -3.2590   24.1790  -28.8020 N   0  0  0  0  0  0  0  0  0  0  0  0
   -5.2900   23.7180  -31.2450 C   0  0  0  0  0  0  0  0  0  0  0  0
   -6.5940   23.2750  -31.4110 C   0  0  0  0  0  0  0  0  0  0  0  0
   -6.8610   19.6440  -33.7910 C   0  0  0  0  0  0  0  0  0  0  0  0
   -5.8370   19.0430  -34.4970 C   0  0  0  0  0  0  0  0  0  0  0  0
   -3.5499   16.6812  -34.1259 H   0  0  0  0  0  0  0  0  0  0  0  0
   -4.6680   16.3232  -35.4854 H   0  0  0  0  0  0  0  0  0  0  0  0
   -3.7121   17.8440  -35.4854 H   0  0  0  0  0  0  0  0  0  0  0  0
   -5.5296   16.2008  -32.7225 H   0  0  0  0  0  0  0  0  0  0  0  0
   -7.3545   17.2497  -31.4543 H   0  0  0  0  0  0  0  0  0  0  0  0
   -9.0570   22.1500  -31.4590 H   0  0  0  0  0  0  0  0  0  0  0  0
   -6.1780   19.9610  -31.1991 H   0  0  0  0  0  0  0  0  0  0  0  0
   -3.8385   20.6840  -30.8998 H   0  0  0  0  0  0  0  0  0  0  0  0
   -0.4280   23.8600  -30.3120 H   0  0  0  0  0  0  0  0  0  0  0  0
   -0.2450   25.0720  -28.1270 H   0  0  0  0  0  0  0  0  0  0  0  0
   -0.6982   24.0181  -25.8436 H   0  0  0  0  0  0  0  0  0  0  0  0
    1.1859   24.8398  -24.4819 H   0  0  0  0  0  0  0  0  0  0  0  0
    0.3270   28.7470  -22.4570 H   0  0  0  0  0  0  0  0  0  0  0  0
    0.9670   27.5440  -21.4700 H   0  0  0  0  0  0  0  0  0  0  0  0
   -0.4436   28.8139  -24.7377 H   0  0  0  0  0  0  0  0  0  0  0  0
   -2.3369   27.9599  -26.1106 H   0  0  0  0  0  0  0  0  0  0  0  0
   -4.2890   24.0570  -28.6930 H   0  0  0  0  0  0  0  0  0  0  0  0
   -5.0520   24.7918  -31.2605 H   0  0  0  0  0  0  0  0  0  0  0  0
   -7.3784   24.0320  -31.5582 H   0  0  0  0  0  0  0  0  0  0  0  0
   -7.2373   20.6297  -34.1022 H   0  0  0  0  0  0  0  0  0  0  0  0
   -5.4072   19.5615  -35.3667 H   0  0  0  0  0  0  0  0  0  0  0  0
  1  2  1  0
  2  3  2  0
  3  4  1  0
  4  5  2  0
  5  6  1  0
  6  7  2  0
  6  8  2  0
  6  9  1  0
  9 10  1  0
 10 11  2  0
 11 12  1  0
 12 13  2  0
 13 14  1  0
 14 15  2  0
 15 16  1  0
 16 17  1  0
 17 18  1  0
 18 19  2  0
 19 20  1  0
 20 21  2  0
 21 22  1  0
 22 23  2  0
 23 24  1  0
 24 25  1  0
 24 26  2  0
 24 27  2  0
 23 28  1  0
 28 29  2  0
 18 30  1  0
 13 31  1  0
 31 32  2  0
  5 33  1  0
 33 34  2  0
 34  2  1  0
 32 10  1  0
 30 15  1  0
 29 20  1  0
  1 35  1  0
  1 36  1  0
  1 37  1  0
  3 38  1  0
  4 39  1  0
  9 40  1  0
 11 41  1  0
 12 42  1  0
 16 43  1  0
 17 44  1  0
 21 45  1  0
 22 46  1  0
 25 47  1  0
 25 48  1  0
 28 49  1  0
 29 50  1  0
 30 51  1  0
 31 52  1  0
 32 53  1  0
 33 54  1  0
 34 55  1  0
M  END
>  <smiles>  (23) 
Cc1ccc(S(=O)(=O)Nc2ccc(N=c3[nH][nH]c(=Nc4ccc(S(N)(=O)=O)cc4)[nH]3)cc2)cc1

>  <score_type>  (23) 
oracle

>  <origin>  (23) 
adgpu

>  <m_score__min__energy>  (23) 
-10.84

>  <m_primary>  (23) 
energy

$$$$
23:0
     RDKit          3D

 54 57  0  0  0  0  0  0  0  0999 V2000
   -9.6470   21.9220  -31.2370 C   0  0  0  0  0  0  0  0  0  0  0  0
   -9.7960   20.4270  -32.2640 S   0  0  0  0  0  0  0  0  0  0  0  0
   -8.0380   20.3480  -32.6110 C   0  0  0  0  0  0  0  0  0  0  0  0
   -7.2440   21.4960  -32.4960 C   0  0  0  0  0  0  0  0  0  0  0  0
   -5.8690   21.4240  -32.7350 C   0  0  0  0  0  0  0  0  0  0  0  0
   -5.2680   20.2010  -33.1000 C   0  0  0  0  0  0  0  0  0  0  0  0
   -3.7910   20.0930  -33.2520 C   0  0  0  0  0  0  0  0  0  0  0  0
   -3.0070   21.2510  -33.4200 C   0  0  0  0  0  0  0  0  0  0  0  0
   -1.6130   21.1710  -33.4530 C   0  0  0  0  0  0  0  0  0  0  0  0
   -0.9730   19.9370  -33.3060 C   0  0  0  0  0  0  0  0  0  0  0  0
    0.7860   19.8730  -33.1650 S   0  0  0  0  0  0  0  0  0  0  0  0
    1.3190   18.5480  -33.6470 O   0  0  0  0  0  0  0  0  0  0  0  0
    1.3910   20.9520  -34.0200 O   0  0  0  0  0  0  0  0  0  0  0  0
    1.2530   20.1980  -31.5220 N   0  0  0  0  0  0  0  0  0  0  0  0
    0.4330   20.1500  -30.3430 C   0  0  0  0  0  0  0  0  0  0  0  0
    0.4540   18.9830  -29.5720 C   0  0  0  0  0  0  0  0  0  0  0  0
   -0.3310   18.8780  -28.4210 C   0  0  0  0  0  0  0  0  0  0  0  0
   -1.1780   19.9200  -28.0520 C   0  0  0  0  0  0  0  0  0  0  0  0
   -1.2310   21.0930  -28.8300 C   0  0  0  0  0  0  0  0  0  0  0  0
   -2.3550   22.3800  -28.4160 S   0  0  0  0  0  0  0  0  0  0  0  0
   -1.6640   23.4740  -27.6410 O   0  0  0  0  0  0  0  0  0  0  0  0
   -3.4550   21.7940  -27.5670 O   0  0  0  0  0  0  0  0  0  0  0  0
   -3.0500   23.0550  -29.8630 N   0  0  0  0  0  0  0  0  0  0  0  0
   -4.4130   23.5070  -30.0110 C   0  0  0  0  0  0  0  0  0  0  0  0
   -5.5180   22.6880  -29.6890 C   0  0  0  0  0  0  0  0  0  0  0  0
   -6.8250   23.1590  -29.8840 C   0  0  0  0  0  0  0  0  0  0  0  0
   -7.0530   24.4360  -30.3900 C   0  0  0  0  0  0  0  0  0  0  0  0
   -5.9670   25.2620  -30.6950 C   0  0  0  0  0  0  0  0  0  0  0  0
   -4.6500   24.7960  -30.5170 C   0  0  0  0  0  0  0  0  0  0  0  0
   -3.5760   25.6210  -30.8490 O   0  0  0  0  0  0  0  0  0  0  0  0
   -0.4140   21.2100  -29.9620 C   0  0  0  0  0  0  0  0  0  0  0  0
   -1.7450   18.7690  -33.1830 C   0  0  0  0  0  0  0  0  0  0  0  0
   -3.1430   18.8440  -33.1610 C   0  0  0  0  0  0  0  0  0  0  0  0
   -6.0830   19.0620  -33.2410 C   0  0  0  0  0  0  0  0  0  0  0  0
   -7.4570   19.1360  -32.9950 C   0  0  0  0  0  0  0  0  0  0  0  0
   -9.6750   21.6408  -30.1739 H   0  0  0  0  0  0  0  0  0  0  0  0
   -8.6942   22.4253  -31.4582 H   0  0  0  0  0  0  0  0  0  0  0  0
  -10.4817   22.6035  -31.4582 H   0  0  0  0  0  0  0  0  0  0  0  0
   -7.7034   22.4558  -32.2171 H   0  0  0  0  0  0  0  0  0  0  0  0
   -5.2503   22.3283  -32.6377 H   0  0  0  0  0  0  0  0  0  0  0  0
   -3.4982   22.2295  -33.5264 H   0  0  0  0  0  0  0  0  0  0  0  0
   -1.0157   22.0837  -33.5954 H   0  0  0  0  0  0  0  0  0  0  0  0
    1.0939   18.1409  -29.8744 H   0  0  0  0  0  0  0  0  0  0  0  0
   -0.2798   17.9688  -27.8039 H   0  0  0  0  0  0  0  0  0  0  0  0
   -1.8054   19.8271  -27.1533 H   0  0  0  0  0  0  0  0  0  0  0  0
   -5.3533   21.6785  -29.2844 H   0  0  0  0  0  0  0  0  0  0  0  0
   -7.6791   22.5123  -29.6344 H   0  0  0  0  0  0  0  0  0  0  0  0
   -8.0813   24.7928  -30.5488 H   0  0  0  0  0  0  0  0  0  0  0  0
   -6.1418   26.2793  -31.0753 H   0  0  0  0  0  0  0  0  0  0  0  0
   -0.4337   22.1349  -30.5571 H   0  0  0  0  0  0  0  0  0  0  0  0
   -1.2483   17.7907  -33.1036 H   0  0  0  0  0  0  0  0  0  0  0  0
   -3.7389   17.9237  -33.0723 H   0  0  0  0  0  0  0  0  0  0  0  0
   -5.6347   18.1054  -33.5474 H   0  0  0  0  0  0  0  0  0  0  0  0
   -8.0828   18.2380  -33.1039 H   0  0  0  0  0  0  0  0  0  0  0  0
  1  2  1  0
  2  3  1  0
  3  4  2  0
  4  5  1  0
  5  6  2  0
  6  7  1  0
  7  8  2  0
  8  9  1  0
  9 10  2  0
 10 11  1  0
 11 12  2  0
 11 13  2  0
 11 14  1  0
 14 15  1  0
 15 16  2  0
 16 17  1  0
 17 18  2  0
 18 19  1  0
 19 20  1  0
 20 21  2  0
 20 22  2  0
 20 23  1  0
 23 24  1  0
 24 25  2  0
 25 26  1  0
 26 27  2  0
 27 28  1  0
 28 29  2  0
 29 30  1  0
 19 31  2  0
 10 32  1  0
 32 33  2  0
  6 34  1  0
 34 35  2  0
 35  3  1  0
 33  7  1  0
 31 15  1  0
 29 24  1  0
  1 36  1  0
  1 37  1  0
  1 38  1  0
  4 39  1  0
  5 40  1  0
  8 41  1  0
  9 42  1  0
 16 43  1  0
 17 44  1  0
 18 45  1  0
 25 46  1  0
 26 47  1  0
 27 48  1  0
 28 49  1  0
 31 50  1  0
 32 51  1  0
 33 52  1  0
 34 53  1  0
 35 54  1  0
M  CHG  3  14  -1  23  -1  30  -1
M  END
>  <UniqueID>  (24) 
23

>  <SMILES>  (24) 
CSc1ccc(-c2ccc(S(=O)(=O)[N-]c3cccc(S(=O)(=O)[N-]c4ccccc4[O-])c3)cc2)cc1

>  <Energy>  (24) 
67.99890576243533

>  <Genealogy>  (24) 
CSc1ccc(-c2ccc(S(=O)(=O)[N-]c3cccc(S(=O)(=O)[N-]c4ccccc4[O-])c3)cc2)cc1 (protonated)
CSc1ccc(-c2ccc(S(=O)(=O)[N-]c3cccc(S(=O)(=O)[N-]c4ccccc4[O-])c3)cc2)cc1 (3D coordinates assigned)
CSc1ccc(-c2ccc(S(=O)(=O)[N-]c3cccc(S(=O)(=O)[N-]c4ccccc4[O-])c3)cc2)cc1 (optimized conformer: 67.99890576243533 kcal/mol)

>  <smiles>  (24) 
CSc1ccc(-c2ccc(S(=O)(=O)Nc3cccc(S(=O)(=O)Nc4ccccc4O)c3)cc2)cc1

>  <score_type>  (24) 
oracle

>  <origin>  (24) 
adgpu

>  <m_score__min__energy>  (24) 
-14.800000000000001

>  <m_primary>  (24) 
energy

$$$$
24:0
     RDKit          3D

 63 66  0  0  0  0  0  0  0  0999 V2000
   -8.6050   19.9610  -32.3010 C   0  0  0  0  0  0  0  0  0  0  0  0
   -7.2320   19.4330  -32.7030 C   0  0  0  0  0  0  0  0  0  0  0  0
   -6.1330   19.7610  -31.6780 C   0  0  0  0  0  0  0  0  0  0  0  0
   -5.4000   21.0020  -31.9760 N   0  0  0  0  0  0  0  0  0  0  0  0
   -5.6220   22.2170  -31.2390 C   0  0  0  0  0  0  0  0  0  0  0  0
   -6.7950   22.9650  -31.4250 C   0  0  0  0  0  0  0  0  0  0  0  0
   -6.9940   24.1450  -30.7090 C   0  0  0  0  0  0  0  0  0  0  0  0
   -6.0370   24.5810  -29.7900 C   0  0  0  0  0  0  0  0  0  0  0  0
   -4.8670   23.8340  -29.5690 C   0  0  0  0  0  0  0  0  0  0  0  0
   -3.8640   24.2830  -28.5680 C   0  0  0  0  0  0  0  0  0  0  0  0
   -2.5220   24.4790  -28.9240 C   0  0  0  0  0  0  0  0  0  0  0  0
   -1.5970   24.9170  -27.9740 C   0  0  0  0  0  0  0  0  0  0  0  0
   -2.0140   25.1610  -26.6530 C   0  0  0  0  0  0  0  0  0  0  0  0
   -1.0930   25.6330  -25.6390 N   0  0  0  0  0  0  0  0  0  0  0  0
    0.2860   25.1200  -25.6040 C   0  0  0  0  0  0  0  0  0  0  0  0
    1.1530   25.9260  -24.6380 C   0  0  0  0  0  0  0  0  0  0  0  0
    0.4630   26.0560  -23.3510 N   0  0  0  0  0  0  0  0  0  0  0  0
   -0.7890   26.8350  -23.4500 C   0  0  0  0  0  0  0  0  0  0  0  0
   -1.4400   26.8290  -24.8520 C   0  0  0  0  0  0  0  0  0  0  0  0
   -3.3190   24.9460  -26.3300 N   0  0  0  0  0  0  0  0  0  0  0  0
   -4.2380   24.5170  -27.2360 C   0  0  0  0  0  0  0  0  0  0  0  0
   -4.6670   22.6510  -30.3050 C   0  0  0  0  0  0  0  0  0  0  0  0
   -3.9600   20.8860  -32.9510 S   0  0  0  0  0  0  0  0  0  0  0  0
   -4.0610   19.6800  -33.8420 O   0  0  0  0  0  0  0  0  0  0  0  0
   -3.8360   22.1140  -33.8090 O   0  0  0  0  0  0  0  0  0  0  0  0
   -2.5320   20.7380  -31.9390 C   0  0  0  0  0  0  0  0  0  0  0  0
   -2.4900   20.4780  -30.5880 C   0  0  0  0  0  0  0  0  0  0  0  0
   -1.1990   20.4790  -30.2070 N   0  0  0  0  0  0  0  0  0  0  0  0
   -0.7150   20.3220  -28.8420 C   0  0  0  0  0  0  0  0  0  0  0  0
   -0.4150   20.7460  -31.2400 N   0  0  0  0  0  0  0  0  0  0  0  0
   -1.2130   20.9090  -32.3140 C   0  0  0  0  0  0  0  0  0  0  0  0
   -0.7080   21.1990  -33.6920 C   0  0  0  0  0  0  0  0  0  0  0  0
   -8.6800   19.9898  -31.2039 H   0  0  0  0  0  0  0  0  0  0  0  0
   -8.7403   20.9753  -32.7045 H   0  0  0  0  0  0  0  0  0  0  0  0
   -9.3851   19.2987  -32.7045 H   0  0  0  0  0  0  0  0  0  0  0  0
   -7.2953   18.3401  -32.8101 H   0  0  0  0  0  0  0  0  0  0  0  0
   -6.9560   19.9253  -33.6472 H   0  0  0  0  0  0  0  0  0  0  0  0
   -6.6006   19.8627  -30.6875 H   0  0  0  0  0  0  0  0  0  0  0  0
   -5.4030   18.9389  -31.7139 H   0  0  0  0  0  0  0  0  0  0  0  0
   -7.5590   22.6197  -32.1371 H   0  0  0  0  0  0  0  0  0  0  0  0
   -7.9086   24.7349  -30.8687 H   0  0  0  0  0  0  0  0  0  0  0  0
   -6.2002   25.5164  -29.2347 H   0  0  0  0  0  0  0  0  0  0  0  0
   -2.1962   24.2867  -29.9569 H   0  0  0  0  0  0  0  0  0  0  0  0
   -0.5454   25.0707  -28.2579 H   0  0  0  0  0  0  0  0  0  0  0  0
    0.2694   24.0692  -25.2793 H   0  0  0  0  0  0  0  0  0  0  0  0
    0.7154   25.2085  -26.6129 H   0  0  0  0  0  0  0  0  0  0  0  0
    2.1125   25.4092  -24.4886 H   0  0  0  0  0  0  0  0  0  0  0  0
    1.3355   26.9262  -25.0578 H   0  0  0  0  0  0  0  0  0  0  0  0
    1.1070   26.5280  -22.6710 H   0  0  0  0  0  0  0  0  0  0  0  0
    0.2490   25.1000  -22.9760 H   0  0  0  0  0  0  0  0  0  0  0  0
   -1.5115   26.4161  -22.7342 H   0  0  0  0  0  0  0  0  0  0  0  0
   -0.5243   27.8804  -23.2330 H   0  0  0  0  0  0  0  0  0  0  0  0
   -2.5328   26.8655  -24.7319 H   0  0  0  0  0  0  0  0  0  0  0  0
   -1.0591   27.7053  -25.3970 H   0  0  0  0  0  0  0  0  0  0  0  0
   -5.2797   24.3526  -26.9231 H   0  0  0  0  0  0  0  0  0  0  0  0
   -3.7528   22.0600  -30.1470 H   0  0  0  0  0  0  0  0  0  0  0  0
   -3.3576   20.3008  -29.9354 H   0  0  0  0  0  0  0  0  0  0  0  0
   -1.5175   20.5823  -28.1362 H   0  0  0  0  0  0  0  0  0  0  0  0
   -0.4081   19.2782  -28.6795 H   0  0  0  0  0  0  0  0  0  0  0  0
    0.1461   20.9869  -28.6795 H   0  0  0  0  0  0  0  0  0  0  0  0
    0.2442   21.7458  -33.6260 H   0  0  0  0  0  0  0  0  0  0  0  0
   -0.5512   20.2534  -34.2316 H   0  0  0  0  0  0  0  0  0  0  0  0
   -1.4457   21.8111  -34.2316 H   0  0  0  0  0  0  0  0  0  0  0  0
  1  2  1  0
  2  3  1  0
  3  4  1  0
  4  5  1  0
  5  6  2  0
  6  7  1  0
  7  8  2  0
  8  9  1  0
  9 10  1  0
 10 11  2  0
 11 12  1  0
 12 13  2  0
 13 14  1  0
 14 15  1  0
 15 16  1  0
 16 17  1  0
 17 18  1  0
 18 19  1  0
 13 20  1  0
 20 21  2  0
  9 22  2  0
  4 23  1  0
 23 24  2  0
 23 25  2  0
 23 26  1  0
 26 27  2  0
 27 28  1  0
 28 29  1  0
 28 30  1  0
 30 31  2  0
 31 32  1  0
 22  5  1  0
 31 26  1  0
 21 10  1  0
 19 14  1  0
  1 33  1  0
  1 34  1  0
  1 35  1  0
  2 36  1  0
  2 37  1  0
  3 38  1  0
  3 39  1  0
  6 40  1  0
  7 41  1  0
  8 42  1  0
 11 43  1  0
 12 44  1  0
 15 45  1  0
 15 46  1  0
 16 47  1  0
 16 48  1  0
 17 49  1  0
 17 50  1  0
 18 51  1  0
 18 52  1  0
 19 53  1  0
 19 54  1  0
 21 55  1  0
 22 56  1  0
 27 57  1  0
 29 58  1  0
 29 59  1  0
 29 60  1  0
 32 61  1  0
 32 62  1  0
 32 63  1  0
M  CHG  1  17   1
M  END
>  <UniqueID>  (25) 
24

>  <SMILES>  (25) 
CCCN(c1cccc(-c2ccc(N3CC[NH2+]CC3)nc2)c1)S(=O)(=O)c1cn(C)nc1C

>  <Energy>  (25) 
106.87033569450684

>  <Genealogy>  (25) 
CCCN(c1cccc(-c2ccc(N3CC[NH2+]CC3)nc2)c1)S(=O)(=O)c1cn(C)nc1C (protonated)
CCCN(c1cccc(-c2ccc(N3CC[NH2+]CC3)nc2)c1)S(=O)(=O)c1cn(C)nc1C (3D coordinates assigned)
CCCN(c1cccc(-c2ccc(N3CC[NH2+]CC3)nc2)c1)S(=O)(=O)c1cn(C)nc1C (nonaromatic ring conformer: 106.87033569450684 kcal/mol)

>  <smiles>  (25) 
CCCN(c1cccc(-c2ccc(N3CCNCC3)nc2)c1)S(=O)(=O)c1cn(C)nc1C

>  <score_type>  (25) 
oracle

>  <origin>  (25) 
adgpu

>  <m_score__min__energy>  (25) 
-10.300000000000001

>  <m_primary>  (25) 
energy

$$$$
25:0
     RDKit          3D

 53 55  0  0  0  0  0  0  0  0999 V2000
   -8.8510   21.4480  -30.9860 C   0  0  0  0  0  0  0  0  0  0  0  0
   -8.4770   22.7290  -31.4880 O   0  0  0  0  0  0  0  0  0  0  0  0
   -7.2680   23.3720  -31.1970 C   0  0  0  0  0  0  0  0  0  0  0  0
   -6.0800   22.8070  -31.6790 C   0  0  0  0  0  0  0  0  0  0  0  0
   -4.8480   23.4040  -31.3970 C   0  0  0  0  0  0  0  0  0  0  0  0
   -4.7870   24.5760  -30.6220 C   0  0  0  0  0  0  0  0  0  0  0  0
   -3.5420   25.2070  -30.2870 N   0  0  0  0  0  0  0  0  0  0  0  0
   -2.3550   24.5550  -29.2040 S   0  0  0  0  0  0  0  0  0  0  0  0
   -2.8650   24.6610  -27.7950 O   0  0  0  0  0  0  0  0  0  0  0  0
   -1.0850   25.3510  -29.3150 O   0  0  0  0  0  0  0  0  0  0  0  0
   -2.0790   22.8560  -29.5790 C   0  0  0  0  0  0  0  0  0  0  0  0
   -2.8210   21.8490  -28.9440 C   0  0  0  0  0  0  0  0  0  0  0  0
   -2.5760   20.5070  -29.2400 C   0  0  0  0  0  0  0  0  0  0  0  0
   -1.5890   20.1610  -30.1690 C   0  0  0  0  0  0  0  0  0  0  0  0
   -0.8360   21.1600  -30.8130 C   0  0  0  0  0  0  0  0  0  0  0  0
    0.2090   20.7970  -31.7990 C   0  0  0  0  0  0  0  0  0  0  0  0
    1.0330   19.8760  -31.5400 O   0  0  0  0  0  0  0  0  0  0  0  0
    0.2910   21.4900  -33.0480 N   0  0  0  0  0  0  0  0  0  0  0  0
   -0.5540   21.1670  -34.1900 C   0  0  0  0  0  0  0  0  0  0  0  0
   -0.9140   19.6790  -34.1780 C   0  0  0  0  0  0  0  0  0  0  0  0
   -2.3740   19.4720  -33.8620 C   0  0  0  0  0  0  0  0  0  0  0  0
   -2.9490   18.1960  -33.9690 C   0  0  0  0  0  0  0  0  0  0  0  0
   -4.2960   18.0010  -33.6540 C   0  0  0  0  0  0  0  0  0  0  0  0
   -5.0820   19.0740  -33.2210 C   0  0  0  0  0  0  0  0  0  0  0  0
   -6.7760   18.8180  -32.8180 S   0  0  0  0  0  0  0  0  0  0  0  0
   -7.7190   20.1330  -33.4320 N   0  0  0  0  0  0  0  0  0  0  0  0
   -6.9370   18.7380  -31.3220 O   0  0  0  0  0  0  0  0  0  0  0  0
   -7.2590   17.5320  -33.4280 O   0  0  0  0  0  0  0  0  0  0  0  0
   -4.5080   20.3490  -33.0960 C   0  0  0  0  0  0  0  0  0  0  0  0
   -3.1610   20.5460  -33.4130 C   0  0  0  0  0  0  0  0  0  0  0  0
   -1.0900   22.5100  -30.5070 C   0  0  0  0  0  0  0  0  0  0  0  0
   -5.9760   25.1560  -30.1640 C   0  0  0  0  0  0  0  0  0  0  0  0
   -7.2100   24.5650  -30.4470 C   0  0  0  0  0  0  0  0  0  0  0  0
   -8.8448   21.4691  -29.8862 H   0  0  0  0  0  0  0  0  0  0  0  0
   -9.8605   21.1950  -31.3422 H   0  0  0  0  0  0  0  0  0  0  0  0
   -8.1362   20.6916  -31.3422 H   0  0  0  0  0  0  0  0  0  0  0  0
   -6.1170   21.8883  -32.2828 H   0  0  0  0  0  0  0  0  0  0  0  0
   -3.9212   22.9547  -31.7833 H   0  0  0  0  0  0  0  0  0  0  0  0
   -3.5969   22.1172  -28.2119 H   0  0  0  0  0  0  0  0  0  0  0  0
   -3.1605   19.7196  -28.7415 H   0  0  0  0  0  0  0  0  0  0  0  0
   -1.4005   19.1016  -30.3974 H   0  0  0  0  0  0  0  0  0  0  0  0
   -1.4764   21.7643  -34.1399 H   0  0  0  0  0  0  0  0  0  0  0  0
   -0.0076   21.3964  -35.1167 H   0  0  0  0  0  0  0  0  0  0  0  0
   -0.6969   19.2497  -35.1672 H   0  0  0  0  0  0  0  0  0  0  0  0
   -0.3161   19.1830  -33.3993 H   0  0  0  0  0  0  0  0  0  0  0  0
   -2.3361   17.3456  -34.3024 H   0  0  0  0  0  0  0  0  0  0  0  0
   -4.7405   16.9991  -33.7469 H   0  0  0  0  0  0  0  0  0  0  0  0
   -8.5570   19.7170  -33.9020 H   0  0  0  0  0  0  0  0  0  0  0  0
   -5.1194   21.1946  -32.7479 H   0  0  0  0  0  0  0  0  0  0  0  0
   -2.7150   21.5463  -33.3105 H   0  0  0  0  0  0  0  0  0  0  0  0
   -0.5061   23.3002  -31.0015 H   0  0  0  0  0  0  0  0  0  0  0  0
   -5.9384   26.0850  -29.5762 H   0  0  0  0  0  0  0  0  0  0  0  0
   -8.1380   25.0310  -30.0842 H   0  0  0  0  0  0  0  0  0  0  0  0
  1  2  1  0
  2  3  1  0
  3  4  2  0
  4  5  1  0
  5  6  2  0
  6  7  1  0
  7  8  1  0
  8  9  2  0
  8 10  2  0
  8 11  1  0
 11 12  2  0
 12 13  1  0
 13 14  2  0
 14 15  1  0
 15 16  1  0
 16 17  2  0
 16 18  1  0
 18 19  1  0
 19 20  1  0
 20 21  1  0
 21 22  2  0
 22 23  1  0
 23 24  2  0
 24 25  1  0
 25 26  1  0
 25 27  2  0
 25 28  2  0
 24 29  1  0
 29 30  2  0
 15 31  2  0
  6 32  1  0
 32 33  2  0
 33  3  1  0
 31 11  1  0
 30 21  1  0
  1 34  1  0
  1 35  1  0
  1 36  1  0
  4 37  1  0
  5 38  1  0
 12 39  1  0
 13 40  1  0
 14 41  1  0
 19 42  1  0
 19 43  1  0
 20 44  1  0
 20 45  1  0
 22 46  1  0
 23 47  1  0
 26 48  1  0
 29 49  1  0
 30 50  1  0
 31 51  1  0
 32 52  1  0
 33 53  1  0
M  CHG  3   7  -1  18  -1  26  -1
M  END
>  <UniqueID>  (26) 
25

>  <SMILES>  (26) 
COc1ccc([N-]S(=O)(=O)c2cccc(C(=O)[N-]CCc3ccc(S([NH-])(=O)=O)cc3)c2)cc1

>  <Energy>  (26) 
53.269663320963424

>  <Genealogy>  (26) 
COc1ccc([N-]S(=O)(=O)c2cccc(C(=O)[N-]CCc3ccc(S([NH-])(=O)=O)cc3)c2)cc1 (protonated)
COc1ccc([N-]S(=O)(=O)c2cccc(C(=O)[N-]CCc3ccc(S([NH-])(=O)=O)cc3)c2)cc1 (3D coordinates assigned)
COc1ccc([N-]S(=O)(=O)c2cccc(C(=O)[N-]CCc3ccc(S([NH-])(=O)=O)cc3)c2)cc1 (optimized conformer: 53.269663320963424 kcal/mol)

>  <smiles>  (26) 
COc1ccc(NS(=O)(=O)c2cccc(C(=O)NCCc3ccc(S(N)(=O)=O)cc3)c2)cc1

>  <score_type>  (26) 
oracle

>  <origin>  (26) 
adgpu

>  <m_score__min__energy>  (26) 
-11.66

>  <m_primary>  (26) 
energy

$$$$
26:0
     RDKit          3D

 45 47  0  0  0  0  0  0  0  0999 V2000
   -8.2208   20.1685  -33.7124 H   0  0  0  0  0  0  0  0  0  0  0  0
   -7.2340   20.1420  -33.2270 C   0  0  0  0  0  0  0  0  0  0  0  0
   -6.6530   21.2790  -32.9700 N   0  0  0  0  0  0  0  0  0  0  0  0
   -5.4520   21.4820  -32.2080 C   0  0  0  0  0  0  0  0  0  0  0  0
   -5.3490   22.1740  -31.0100 C   0  0  0  0  0  0  0  0  0  0  0  0
   -6.4010   22.8930  -30.3350 C   0  0  0  0  0  0  0  0  0  0  0  0
   -7.2450   23.4690  -29.7920 N   0  0  0  0  0  0  0  0  0  0  0  0
   -4.0040   22.1760  -30.6720 C   0  0  0  0  0  0  0  0  0  0  0  0
   -3.3860   22.8120  -29.4860 C   0  0  0  0  0  0  0  0  0  0  0  0
   -2.9560   22.0080  -28.4180 C   0  0  0  0  0  0  0  0  0  0  0  0
   -3.0922   20.9175  -28.4659 H   0  0  0  0  0  0  0  0  0  0  0  0
   -2.3570   22.5830  -27.2960 C   0  0  0  0  0  0  0  0  0  0  0  0
   -2.0244   21.9458  -26.4633 H   0  0  0  0  0  0  0  0  0  0  0  0
   -2.1800   23.9640  -27.2300 C   0  0  0  0  0  0  0  0  0  0  0  0
   -1.7013   24.4144  -26.3480 H   0  0  0  0  0  0  0  0  0  0  0  0
   -2.6090   24.7770  -28.2810 C   0  0  0  0  0  0  0  0  0  0  0  0
   -2.4659   25.8661  -28.2226 H   0  0  0  0  0  0  0  0  0  0  0  0
   -3.2240   24.2120  -29.4160 C   0  0  0  0  0  0  0  0  0  0  0  0
   -3.7010   25.0070  -30.4720 O   0  0  0  0  0  0  0  0  0  0  0  0
   -4.9830   25.6250  -30.5010 C   0  0  0  0  0  0  0  0  0  0  0  0
   -5.3323   25.7934  -29.4716 H   0  0  0  0  0  0  0  0  0  0  0  0
   -4.9137   26.5886  -31.0269 H   0  0  0  0  0  0  0  0  0  0  0  0
   -5.6937   24.9706  -31.0269 H   0  0  0  0  0  0  0  0  0  0  0  0
   -3.3470   21.5010  -31.6930 C   0  0  0  0  0  0  0  0  0  0  0  0
   -1.9330   21.2170  -31.7350 C   0  0  0  0  0  0  0  0  0  0  0  0
   -0.8000   20.9890  -31.7690 N   0  0  0  0  0  0  0  0  0  0  0  0
   -4.2300   21.1030  -32.6360 N   0  0  0  0  0  0  0  0  0  0  0  0
   -3.9420   20.2990  -33.8230 C   0  0  0  0  0  0  0  0  0  0  0  0
   -3.5859   19.3049  -33.5149 H   0  0  0  0  0  0  0  0  0  0  0  0
   -4.8573   20.1908  -34.4235 H   0  0  0  0  0  0  0  0  0  0  0  0
   -3.1662   20.7965  -34.4235 H   0  0  0  0  0  0  0  0  0  0  0  0
   -6.6560   18.8160  -32.9100 C   0  0  0  0  0  0  0  0  0  0  0  0
   -6.0700   18.0650  -33.9380 C   0  0  0  0  0  0  0  0  0  0  0  0
   -6.0618   18.4579  -34.9654 H   0  0  0  0  0  0  0  0  0  0  0  0
   -5.4960   16.8200  -33.6660 C   0  0  0  0  0  0  0  0  0  0  0  0
   -5.0598   16.2285  -34.4844 H   0  0  0  0  0  0  0  0  0  0  0  0
   -5.4730   16.3210  -32.3570 C   0  0  0  0  0  0  0  0  0  0  0  0
   -4.8760   14.9740  -32.0800 C   0  0  0  0  0  0  0  0  0  0  0  0
   -4.8076   14.8197  -30.9930 H   0  0  0  0  0  0  0  0  0  0  0  0
   -5.5123   14.1930  -32.5219 H   0  0  0  0  0  0  0  0  0  0  0  0
   -3.8701   14.9209  -32.5219 H   0  0  0  0  0  0  0  0  0  0  0  0
   -6.0430   17.0790  -31.3220 C   0  0  0  0  0  0  0  0  0  0  0  0
   -6.0371   16.6913  -30.2926 H   0  0  0  0  0  0  0  0  0  0  0  0
   -6.6180   18.3240  -31.5930 C   0  0  0  0  0  0  0  0  0  0  0  0
   -7.0425   18.9214  -30.7727 H   0  0  0  0  0  0  0  0  0  0  0  0
  1  2  1  0
  2  3  2  0
  3  4  1  0
  4  5  2  0
  5  6  1  0
  6  7  3  0
  5  8  1  0
  8  9  1  0
  9 10  2  0
 10 11  1  0
 10 12  1  0
 12 13  1  0
 12 14  2  0
 14 15  1  0
 14 16  1  0
 16 17  1  0
 16 18  2  0
 18 19  1  0
 19 20  1  0
 20 21  1  0
 20 22  1  0
 20 23  1  0
  8 24  2  0
 24 25  1  0
 25 26  3  0
 24 27  1  0
 27 28  1  0
 28 29  1  0
 28 30  1  0
 28 31  1  0
  2 32  1  0
 32 33  2  0
 33 34  1  0
 33 35  1  0
 35 36  1  0
 35 37  2  0
 37 38  1  0
 38 39  1  0
 38 40  1  0
 38 41  1  0
 37 42  1  0
 42 43  1  0
 42 44  2  0
 44 45  1  0
 27  4  1  0
 44 32  1  0
 18  9  1  0
M  END
>  <UniqueID>  (27) 
26

>  <SMILES>  (27) 
COc1ccccc1-c1c(C#N)c(/N=C\c2ccc(C)cc2)n(C)c1C#N

>  <Energy>  (27) 
87.76276899523278

>  <Genealogy>  (27) 
COc1ccccc1-c1c(C#N)c(/N=C\c2ccc(C)cc2)n(C)c1C#N (cis-trans isomerization)
COc1ccccc1-c1c(C#N)c(/N=C\c2ccc(C)cc2)n(C)c1C#N (3D coordinates assigned)
COc1ccccc1-c1c(C#N)c(/N=C\c2ccc(C)cc2)n(C)c1C#N (optimized conformer: 87.76276899523278 kcal/mol)

>  <smiles>  (27) 
COc1ccccc1-c1c(C#N)c(N=Cc2ccc(C)cc2)n(C)c1C#N

>  <score_type>  (27) 
oracle

>  <origin>  (27) 
adgpu

>  <m_score__min__energy>  (27) 
-8.7200000000000006

>  <m_primary>  (27) 
energy

$$$$
27:0
     RDKit          3D

 45 48  0  0  0  0  0  0  0  0999 V2000
   -0.4800   21.6380  -34.5500 C   0  0  0  0  0  0  0  0  0  0  0  0
   -1.0340   21.1840  -33.2360 C   0  0  0  0  0  0  0  0  0  0  0  0
   -0.2280   21.0510  -32.2190 N   0  0  0  0  0  0  0  0  0  0  0  0
   -0.7350   20.6240  -30.9580 C   0  0  0  0  0  0  0  0  0  0  0  0
    0.0060   20.3860  -29.8630 N   0  0  0  0  0  0  0  0  0  0  0  0
   -0.9590   20.1000  -28.9520 C   0  0  0  0  0  0  0  0  0  0  0  0
   -2.2090   20.1790  -29.4630 N   0  0  0  0  0  0  0  0  0  0  0  0
   -2.0400   20.5000  -30.7300 N   0  0  0  0  0  0  0  0  0  0  0  0
   -3.0800   20.8110  -31.7070 C   0  0  1  0  0  0  0  0  0  0  0  0
   -3.6790   22.1790  -31.4320 C   0  0  0  0  0  0  0  0  0  0  0  0
   -4.9920   22.4940  -31.8260 C   0  0  0  0  0  0  0  0  0  0  0  0
   -5.5420   23.7420  -31.5220 C   0  0  0  0  0  0  0  0  0  0  0  0
   -4.7990   24.6880  -30.8090 C   0  0  0  0  0  0  0  0  0  0  0  0
   -5.3720   25.9250  -30.5200 O   0  0  0  0  0  0  0  0  0  0  0  0
   -3.4940   24.3750  -30.3950 C   0  0  0  0  0  0  0  0  0  0  0  0
   -2.7430   25.2990  -29.6770 O   0  0  0  0  0  0  0  0  0  0  0  0
   -2.9420   23.1270  -30.7010 C   0  0  0  0  0  0  0  0  0  0  0  0
   -2.4960   20.7390  -33.1560 C   0  0  2  0  0  0  0  0  0  0  0  0
   -2.6110   19.3300  -33.6920 C   0  0  0  0  0  0  0  0  0  0  0  0
   -1.6090   18.8010  -34.2450 O   0  0  0  0  0  0  0  0  0  0  0  0
   -3.8070   18.5470  -33.5620 N   0  0  0  0  0  0  0  0  0  0  0  0
   -5.0480   18.7130  -34.3170 C   0  0  0  0  0  0  0  0  0  0  0  0
   -6.2210   18.9540  -33.3960 C   0  0  0  0  0  0  0  0  0  0  0  0
   -6.9350   20.1630  -33.4880 C   0  0  0  0  0  0  0  0  0  0  0  0
   -8.0270   20.4080  -32.6530 C   0  0  0  0  0  0  0  0  0  0  0  0
   -8.4110   19.4580  -31.7060 C   0  0  0  0  0  0  0  0  0  0  0  0
   -7.6950   18.2660  -31.5830 C   0  0  0  0  0  0  0  0  0  0  0  0
   -6.5980   18.0090  -32.4140 C   0  0  0  0  0  0  0  0  0  0  0  0
   -5.7130   16.5050  -32.1810 Cl  0  0  0  0  0  0  0  0  0  0  0  0
    0.3600   22.3264  -34.3756 H   0  0  0  0  0  0  0  0  0  0  0  0
   -0.1271   20.7660  -35.1201 H   0  0  0  0  0  0  0  0  0  0  0  0
   -1.2657   22.1553  -35.1201 H   0  0  0  0  0  0  0  0  0  0  0  0
   -0.7465   19.8318  -27.9066 H   0  0  0  0  0  0  0  0  0  0  0  0
   -3.8833   20.0648  -31.6181 H   0  0  0  0  0  0  0  0  0  0  0  0
   -5.5898   21.7530  -32.3770 H   0  0  0  0  0  0  0  0  0  0  0  0
   -6.5656   23.9818  -31.8455 H   0  0  0  0  0  0  0  0  0  0  0  0
   -5.1140   26.4570  -29.6970 H   0  0  0  0  0  0  0  0  0  0  0  0
   -1.9223   22.8851  -30.3668 H   0  0  0  0  0  0  0  0  0  0  0  0
   -3.0891   21.4368  -33.7654 H   0  0  0  0  0  0  0  0  0  0  0  0
   -4.9426   19.5721  -34.9958 H   0  0  0  0  0  0  0  0  0  0  0  0
   -5.2357   17.7899  -34.8851 H   0  0  0  0  0  0  0  0  0  0  0  0
   -6.6303   20.9216  -34.2240 H   0  0  0  0  0  0  0  0  0  0  0  0
   -8.5854   21.3515  -32.7419 H   0  0  0  0  0  0  0  0  0  0  0  0
   -9.2780   19.6483  -31.0563 H   0  0  0  0  0  0  0  0  0  0  0  0
   -7.9946   17.5239  -30.8283 H   0  0  0  0  0  0  0  0  0  0  0  0
  1  2  1  0
  2  3  2  0
  3  4  1  0
  4  5  2  0
  5  6  1  0
  6  7  2  0
  7  8  1  0
  8  9  1  0
  9 10  1  0
 10 11  2  0
 11 12  1  0
 12 13  2  0
 13 14  1  0
 13 15  1  0
 15 16  1  0
 15 17  2  0
  9 18  1  0
 18 19  1  0
 19 20  2  0
 19 21  1  0
 21 22  1  0
 22 23  1  0
 23 24  2  0
 24 25  1  0
 25 26  2  0
 26 27  1  0
 27 28  2  0
 28 29  1  0
 18  2  1  0
 28 23  1  0
  8  4  1  0
 17 10  1  0
  1 30  1  0
  1 31  1  0
  1 32  1  0
  6 33  1  0
  9 34  1  6
 11 35  1  0
 12 36  1  0
 14 37  1  0
 17 38  1  0
 18 39  1  6
 22 40  1  0
 22 41  1  0
 24 42  1  0
 25 43  1  0
 26 44  1  0
 27 45  1  0
M  CHG  2  16  -1  21  -1
M  END
>  <UniqueID>  (28) 
27

>  <SMILES>  (28) 
CC1=Nc2ncnn2[C@@H](c2ccc(O)c([O-])c2)[C@@H]1C(=O)[N-]Cc1ccccc1Cl

>  <Energy>  (28) 
84.33773941669287

>  <Genealogy>  (28) 
CC1=Nc2ncnn2C(c2ccc(O)c([O-])c2)C1C(=O)[N-]Cc1ccccc1Cl (protonated)
CC1=Nc2ncnn2[C@@H](c2ccc(O)c([O-])c2)[C@@H]1C(=O)[N-]Cc1ccccc1Cl (chirality)
CC1=Nc2ncnn2[C@@H](c2ccc(O)c([O-])c2)[C@@H]1C(=O)[N-]Cc1ccccc1Cl (3D coordinates assigned)
CC1=Nc2ncnn2[C@@H](c2ccc(O)c([O-])c2)[C@@H]1C(=O)[N-]Cc1ccccc1Cl (nonaromatic ring conformer: 84.33773941669287 kcal/mol)

>  <smiles>  (28) 
CC1=Nc2ncnn2C(c2ccc(O)c(O)c2)C1C(=O)NCc1ccccc1Cl

>  <score_type>  (28) 
oracle

>  <origin>  (28) 
adgpu

>  <m_score__min__energy>  (28) 
-11.82

>  <m_primary>  (28) 
energy

$$$$
28:0
     RDKit          3D

 47 50  0  0  0  0  0  0  0  0999 V2000
   -1.4720   19.9750  -29.5360 O   0  0  0  0  0  0  0  0  0  0  0  0
   -1.3750   21.1650  -29.9400 C   0  0  0  0  0  0  0  0  0  0  0  0
   -1.8230   21.5210  -31.2590 N   0  0  0  0  0  0  0  0  0  0  0  0
   -2.7050   20.7050  -32.0500 C   0  0  0  0  0  0  0  0  0  0  0  0
   -2.2770   19.4390  -32.4740 C   0  0  0  0  0  0  0  0  0  0  0  0
   -3.1080   18.6330  -33.2570 C   0  0  0  0  0  0  0  0  0  0  0  0
   -4.3780   19.0880  -33.6360 C   0  0  0  0  0  0  0  0  0  0  0  0
   -5.4390   18.0620  -34.6040 S   0  0  0  0  0  0  0  0  0  0  0  0
   -4.6080   17.0390  -35.3270 O   0  0  0  0  0  0  0  0  0  0  0  0
   -6.1350   18.9060  -35.6360 O   0  0  0  0  0  0  0  0  0  0  0  0
   -6.6370   17.2450  -33.6210 N   0  0  0  0  0  0  0  0  0  0  0  0
   -7.6150   18.1940  -33.0800 C   0  0  0  0  0  0  0  0  0  0  0  0
   -7.2160   18.5330  -31.6520 C   0  0  0  0  0  0  0  0  0  0  0  0
   -6.1800   17.4990  -31.2550 C   0  0  0  0  0  0  0  0  0  0  0  0
   -6.0160   16.5910  -32.4640 C   0  0  0  0  0  0  0  0  0  0  0  0
   -4.7980   20.3660  -33.2430 C   0  0  0  0  0  0  0  0  0  0  0  0
   -3.9680   21.1710  -32.4590 C   0  0  0  0  0  0  0  0  0  0  0  0
   -0.7560   22.1690  -29.0580 C   0  0  0  0  0  0  0  0  0  0  0  0
   -1.2280   23.4390  -28.7930 C   0  0  0  0  0  0  0  0  0  0  0  0
   -0.3100   23.9580  -27.8980 C   0  0  0  0  0  0  0  0  0  0  0  0
   -0.3460   25.2900  -27.2450 C   0  0  0  0  0  0  0  0  0  0  0  0
    0.1190   25.4130  -25.9220 C   0  0  0  0  0  0  0  0  0  0  0  0
    0.0910   26.6490  -25.2700 C   0  0  0  0  0  0  0  0  0  0  0  0
   -0.3950   27.7780  -25.9310 C   0  0  0  0  0  0  0  0  0  0  0  0
   -0.8440   27.6760  -27.2480 C   0  0  0  0  0  0  0  0  0  0  0  0
   -0.8160   26.4440  -27.9120 C   0  0  0  0  0  0  0  0  0  0  0  0
   -1.2320   26.3920  -29.2370 O   0  0  0  0  0  0  0  0  0  0  0  0
    0.6380   23.0320  -27.6450 N   0  0  0  0  0  0  0  0  0  0  0  0
    0.3680   21.9460  -28.3510 N   0  0  0  0  0  0  0  0  0  0  0  0
   -1.4080   22.3660  -31.7100 H   0  0  0  0  0  0  0  0  0  0  0  0
   -1.2785   19.0770  -32.1879 H   0  0  0  0  0  0  0  0  0  0  0  0
   -2.7640   17.6383  -33.5768 H   0  0  0  0  0  0  0  0  0  0  0  0
   -7.6222   19.1088  -33.6908 H   0  0  0  0  0  0  0  0  0  0  0  0
   -8.6213   17.7499  -33.0959 H   0  0  0  0  0  0  0  0  0  0  0  0
   -6.7855   19.5442  -31.6045 H   0  0  0  0  0  0  0  0  0  0  0  0
   -8.0830   18.5175  -30.9752 H   0  0  0  0  0  0  0  0  0  0  0  0
   -5.2253   17.9876  -31.0107 H   0  0  0  0  0  0  0  0  0  0  0  0
   -6.4924   16.9344  -30.3642 H   0  0  0  0  0  0  0  0  0  0  0  0
   -4.9468   16.4241  -32.6611 H   0  0  0  0  0  0  0  0  0  0  0  0
   -6.4966   15.6197  -32.2755 H   0  0  0  0  0  0  0  0  0  0  0  0
   -5.7859   20.7370  -33.5534 H   0  0  0  0  0  0  0  0  0  0  0  0
   -4.3038   22.1748  -32.1597 H   0  0  0  0  0  0  0  0  0  0  0  0
   -2.1267   23.9258  -29.1997 H   0  0  0  0  0  0  0  0  0  0  0  0
    0.5079   24.5283  -25.3966 H   0  0  0  0  0  0  0  0  0  0  0  0
    0.4525   26.7320  -24.2344 H   0  0  0  0  0  0  0  0  0  0  0  0
   -0.4240   28.7483  -25.4136 H   0  0  0  0  0  0  0  0  0  0  0  0
   -1.2222   28.5688  -27.7675 H   0  0  0  0  0  0  0  0  0  0  0  0
  1  2  2  0
  2  3  1  0
  3  4  1  0
  4  5  2  0
  5  6  1  0
  6  7  2  0
  7  8  1  0
  8  9  2  0
  8 10  2  0
  8 11  1  0
 11 12  1  0
 12 13  1  0
 13 14  1  0
 14 15  1  0
  7 16  1  0
 16 17  2  0
  2 18  1  0
 18 19  1  0
 19 20  2  0
 20 21  1  0
 21 22  2  0
 22 23  1  0
 23 24  2  0
 24 25  1  0
 25 26  2  0
 26 27  1  0
 20 28  1  0
 28 29  1  0
 17  4  1  0
 29 18  2  0
 15 11  1  0
 26 21  1  0
  3 30  1  0
  5 31  1  0
  6 32  1  0
 12 33  1  0
 12 34  1  0
 13 35  1  0
 13 36  1  0
 14 37  1  0
 14 38  1  0
 15 39  1  0
 15 40  1  0
 16 41  1  0
 17 42  1  0
 19 43  1  0
 22 44  1  0
 23 45  1  0
 24 46  1  0
 25 47  1  0
M  CHG  2  27  -1  28  -1
M  END
>  <UniqueID>  (29) 
28

>  <SMILES>  (29) 
O=C(Nc1ccc(S(=O)(=O)N2CCCC2)cc1)c1cc(-c2ccccc2[O-])[n-]n1

>  <Energy>  (29) 
86.96223363015483

>  <Genealogy>  (29) 
O=C(Nc1ccc(S(=O)(=O)N2CCCC2)cc1)c1cc(-c2ccccc2[O-])[n-]n1 (protonated)
O=C(Nc1ccc(S(=O)(=O)N2CCCC2)cc1)c1cc(-c2ccccc2[O-])[n-]n1 (3D coordinates assigned)
O=C(Nc1ccc(S(=O)(=O)N2CCCC2)cc1)c1cc(-c2ccccc2[O-])[n-]n1 (nonaromatic ring conformer: 86.96223363015483 kcal/mol)

>  <smiles>  (29) 
O=C(Nc1ccc(S(=O)(=O)N2CCCC2)cc1)c1cc(-c2ccccc2O)[nH]n1

>  <score_type>  (29) 
oracle

>  <origin>  (29) 
adgpu

>  <m_score__min__energy>  (29) 
-12.289999999999999

>  <m_primary>  (29) 
energy

$$$$
29:0
     RDKit          3D

 48 50  0  0  0  0  0  0  0  0999 V2000
   -0.6590   26.8720  -23.3810 C   0  0  0  0  0  0  0  0  0  0  0  0
   -1.1790   27.2500  -24.7060 N   0  0  0  0  0  0  0  0  0  0  0  0
   -0.0960   27.6030  -25.6610 C   0  0  0  0  0  0  0  0  0  0  0  0
    0.1110   26.5740  -26.7900 C   0  0  0  0  0  0  0  0  0  0  0  0
   -0.0520   25.1460  -26.2600 C   0  0  0  0  0  0  0  0  0  0  0  0
    0.2720   23.9480  -27.5560 S   0  0  0  0  0  0  0  0  0  0  0  0
    0.8830   22.7140  -26.9530 O   0  0  0  0  0  0  0  0  0  0  0  0
    1.2580   24.5190  -28.5370 O   0  0  0  0  0  0  0  0  0  0  0  0
   -1.2440   23.5580  -28.3980 C   0  0  0  0  0  0  0  0  0  0  0  0
   -1.7400   22.2350  -28.4070 C   0  0  0  0  0  0  0  0  0  0  0  0
   -0.9000   20.9040  -27.6190 Cl  0  0  0  0  0  0  0  0  0  0  0  0
   -2.9360   21.9410  -29.0700 C   0  0  0  0  0  0  0  0  0  0  0  0
   -3.6370   22.9400  -29.7430 C   0  0  0  0  0  0  0  0  0  0  0  0
   -3.1350   24.2490  -29.7860 C   0  0  0  0  0  0  0  0  0  0  0  0
   -3.8400   25.2990  -30.4680 N   0  0  0  0  0  0  0  0  0  0  0  0
   -5.2250   25.2860  -30.8290 C   0  0  0  0  0  0  0  0  0  0  0  0
   -6.0290   26.0100  -30.1850 O   0  0  0  0  0  0  0  0  0  0  0  0
   -5.6700   24.5460  -31.9740 N   0  0  0  0  0  0  0  0  0  0  0  0
   -6.4110   23.3190  -31.9630 C   0  0  0  0  0  0  0  0  0  0  0  0
   -5.7440   22.1290  -32.2870 C   0  0  0  0  0  0  0  0  0  0  0  0
   -6.4240   20.9070  -32.2680 C   0  0  0  0  0  0  0  0  0  0  0  0
   -7.7760   20.8610  -31.9090 C   0  0  0  0  0  0  0  0  0  0  0  0
   -8.4750   19.6030  -31.8860 C   0  0  0  0  0  0  0  0  0  0  0  0
   -9.0360   18.5920  -31.8690 N   0  0  0  0  0  0  0  0  0  0  0  0
   -8.4430   22.0410  -31.5610 C   0  0  0  0  0  0  0  0  0  0  0  0
   -7.7650   23.2650  -31.5800 C   0  0  0  0  0  0  0  0  0  0  0  0
   -1.9500   24.5580  -29.1040 C   0  0  0  0  0  0  0  0  0  0  0  0
   -1.4730   25.8640  -29.1490 O   0  0  0  0  0  0  0  0  0  0  0  0
   -1.4540   24.9340  -25.6470 C   0  0  0  0  0  0  0  0  0  0  0  0
   -2.1350   26.2530  -25.2300 C   0  0  0  0  0  0  0  0  0  0  0  0
   -1.2843   27.3265  -22.5984 H   0  0  0  0  0  0  0  0  0  0  0  0
   -0.6803   25.7771  -23.2775 H   0  0  0  0  0  0  0  0  0  0  0  0
    0.3759   27.2301  -23.2775 H   0  0  0  0  0  0  0  0  0  0  0  0
   -0.3421   28.5725  -26.1187 H   0  0  0  0  0  0  0  0  0  0  0  0
    0.8392   27.6300  -25.0825 H   0  0  0  0  0  0  0  0  0  0  0  0
   -0.6321   26.7522  -27.5812 H   0  0  0  0  0  0  0  0  0  0  0  0
    1.1296   26.6882  -27.1892 H   0  0  0  0  0  0  0  0  0  0  0  0
    0.6875   24.9943  -25.4599 H   0  0  0  0  0  0  0  0  0  0  0  0
   -3.3265   20.9127  -29.0601 H   0  0  0  0  0  0  0  0  0  0  0  0
   -4.5875   22.7010  -30.2423 H   0  0  0  0  0  0  0  0  0  0  0  0
   -4.6783   22.1567  -32.5581 H   0  0  0  0  0  0  0  0  0  0  0  0
   -5.8953   19.9803  -32.5357 H   0  0  0  0  0  0  0  0  0  0  0  0
   -9.5037   22.0063  -31.2716 H   0  0  0  0  0  0  0  0  0  0  0  0
   -8.2914   24.1878  -31.2949 H   0  0  0  0  0  0  0  0  0  0  0  0
   -2.0895   24.4314  -26.3910 H   0  0  0  0  0  0  0  0  0  0  0  0
   -1.3274   24.3274  -24.7381 H   0  0  0  0  0  0  0  0  0  0  0  0
   -2.6419   26.6797  -26.1080 H   0  0  0  0  0  0  0  0  0  0  0  0
   -2.8448   26.0186  -24.4230 H   0  0  0  0  0  0  0  0  0  0  0  0
  1  2  1  0
  2  3  1  0
  3  4  1  0
  4  5  1  0
  5  6  1  0
  6  7  2  0
  6  8  2  0
  6  9  1  0
  9 10  2  0
 10 11  1  0
 10 12  1  0
 12 13  2  0
 13 14  1  0
 14 15  1  0
 15 16  1  0
 16 17  2  0
 16 18  1  0
 18 19  1  0
 19 20  2  0
 20 21  1  0
 21 22  2  0
 22 23  1  0
 23 24  3  0
 22 25  1  0
 25 26  2  0
 14 27  2  0
 27 28  1  0
  5 29  1  0
 29 30  1  0
 30  2  1  0
 27  9  1  0
 26 19  1  0
  1 31  1  0
  1 32  1  0
  1 33  1  0
  3 34  1  0
  3 35  1  0
  4 36  1  0
  4 37  1  0
  5 38  1  0
 12 39  1  0
 13 40  1  0
 20 41  1  0
 21 42  1  0
 25 43  1  0
 26 44  1  0
 29 45  1  0
 29 46  1  0
 30 47  1  0
 30 48  1  0
M  CHG  3  15  -1  18  -1  28  -1
M  END
>  <UniqueID>  (30) 
29

>  <SMILES>  (30) 
CN1CCC(S(=O)(=O)c2c(Cl)ccc([N-]C(=O)[N-]c3ccc(C#N)cc3)c2[O-])CC1

>  <Energy>  (30) 
64.41162675120508

>  <Genealogy>  (30) 
CN1CCC(S(=O)(=O)c2c(Cl)ccc([N-]C(=O)[N-]c3ccc(C#N)cc3)c2[O-])CC1 (protonated)
CN1CCC(S(=O)(=O)c2c(Cl)ccc([N-]C(=O)[N-]c3ccc(C#N)cc3)c2[O-])CC1 (3D coordinates assigned)
CN1CCC(S(=O)(=O)c2c(Cl)ccc([N-]C(=O)[N-]c3ccc(C#N)cc3)c2[O-])CC1 (nonaromatic ring conformer: 64.41162675120508 kcal/mol)

>  <smiles>  (30) 
CN1CCC(S(=O)(=O)c2c(Cl)ccc(NC(=O)Nc3ccc(C#N)cc3)c2O)CC1

>  <score_type>  (30) 
oracle

>  <origin>  (30) 
adgpu

>  <m_score__min__energy>  (30) 
-16.120000000000001

>  <m_primary>  (30) 
energy

$$$$
30:0
     RDKit          3D

 68 71  0  0  0  0  0  0  0  0999 V2000
   -4.6580   20.9110  -33.0200 C   0  0  0  0  0  0  0  0  0  0  0  0
   -5.7980   20.0120  -33.4990 C   0  0  0  0  0  0  0  0  0  0  0  0
   -6.7630   19.5980  -32.3740 C   0  0  0  0  0  0  0  0  0  0  0  0
   -8.2450   19.9580  -32.6090 C   0  0  0  0  0  0  0  0  0  0  0  0
   -8.8150   20.9810  -31.6080 C   0  0  0  0  0  0  0  0  0  0  0  0
   -7.8690   22.1170  -31.3130 C   0  0  0  0  0  0  0  0  0  0  0  0
   -7.4910   22.4040  -29.9920 C   0  0  0  0  0  0  0  0  0  0  0  0
   -6.6210   23.4630  -29.7190 C   0  0  0  0  0  0  0  0  0  0  0  0
   -6.1360   24.2730  -30.7600 C   0  0  0  0  0  0  0  0  0  0  0  0
   -5.2270   25.4090  -30.4780 C   0  0  0  0  0  0  0  0  0  0  0  0
   -5.7170   26.5420  -30.2220 O   0  0  0  0  0  0  0  0  0  0  0  0
   -3.8000   25.2750  -30.5320 N   0  0  0  0  0  0  0  0  0  0  0  0
   -3.0340   24.1640  -30.0430 C   0  0  0  0  0  0  0  0  0  0  0  0
   -2.8930   23.0310  -30.8520 C   0  0  0  0  0  0  0  0  0  0  0  0
   -2.1690   21.9270  -30.3990 C   0  0  0  0  0  0  0  0  0  0  0  0
   -1.5700   21.9500  -29.1380 C   0  0  0  0  0  0  0  0  0  0  0  0
   -1.6740   23.0900  -28.3220 C   0  0  0  0  0  0  0  0  0  0  0  0
   -1.0340   23.1190  -26.9830 C   0  0  0  0  0  0  0  0  0  0  0  0
   -1.2000   22.0470  -26.0890 C   0  0  0  0  0  0  0  0  0  0  0  0
   -0.6050   22.0810  -24.8270 C   0  0  0  0  0  0  0  0  0  0  0  0
    0.1630   23.1830  -24.4420 C   0  0  0  0  0  0  0  0  0  0  0  0
    0.3490   24.2580  -25.3230 C   0  0  0  0  0  0  0  0  0  0  0  0
    1.1670   25.4550  -24.8980 C   0  0  0  0  0  0  0  0  0  0  0  0
    0.5170   26.2240  -23.8030 N   0  0  0  0  0  0  0  0  0  0  0  0
   -0.9620   26.2490  -23.9090 C   0  0  0  0  0  0  0  0  0  0  0  0
   -1.4560   27.0610  -25.1270 C   0  0  0  0  0  0  0  0  0  0  0  0
   -0.4460   28.0110  -25.6170 N   0  0  0  0  0  0  0  0  0  0  0  0
    0.2570   28.6480  -24.5010 C   0  0  0  0  0  0  0  0  0  0  0  0
    1.0650   27.6040  -23.7010 C   0  0  0  0  0  0  0  0  0  0  0  0
   -0.2520   24.2210  -26.5910 C   0  0  0  0  0  0  0  0  0  0  0  0
   -2.3970   24.2020  -28.7900 C   0  0  0  0  0  0  0  0  0  0  0  0
   -6.5170   23.9860  -32.0800 C   0  0  0  0  0  0  0  0  0  0  0  0
   -7.3850   22.9250  -32.3530 C   0  0  0  0  0  0  0  0  0  0  0  0
   -4.6397   20.9254  -31.9202 H   0  0  0  0  0  0  0  0  0  0  0  0
   -3.7009   20.5220  -33.3976 H   0  0  0  0  0  0  0  0  0  0  0  0
   -4.8132   21.9325  -33.3976 H   0  0  0  0  0  0  0  0  0  0  0  0
   -6.3697   20.5532  -34.2673 H   0  0  0  0  0  0  0  0  0  0  0  0
   -5.3425   19.0910  -33.8918 H   0  0  0  0  0  0  0  0  0  0  0  0
   -6.6938   18.5070  -32.2516 H   0  0  0  0  0  0  0  0  0  0  0  0
   -6.4509   20.1628  -31.4831 H   0  0  0  0  0  0  0  0  0  0  0  0
   -8.3416   20.3763  -33.6218 H   0  0  0  0  0  0  0  0  0  0  0  0
   -8.8201   19.0302  -32.4732 H   0  0  0  0  0  0  0  0  0  0  0  0
   -9.7428   21.3988  -32.0259 H   0  0  0  0  0  0  0  0  0  0  0  0
   -8.9898   20.4483  -30.6616 H   0  0  0  0  0  0  0  0  0  0  0  0
   -7.8821   21.7914  -29.1663 H   0  0  0  0  0  0  0  0  0  0  0  0
   -6.3137   23.6640  -28.6821 H   0  0  0  0  0  0  0  0  0  0  0  0
   -3.3551   23.0103  -31.8500 H   0  0  0  0  0  0  0  0  0  0  0  0
   -2.0701   21.0365  -31.0371 H   0  0  0  0  0  0  0  0  0  0  0  0
   -1.0134   21.0709  -28.7809 H   0  0  0  0  0  0  0  0  0  0  0  0
   -1.8026   21.1759  -26.3859 H   0  0  0  0  0  0  0  0  0  0  0  0
   -0.7410   21.2380  -24.1336 H   0  0  0  0  0  0  0  0  0  0  0  0
    0.6237   23.2074  -23.4434 H   0  0  0  0  0  0  0  0  0  0  0  0
    2.1501   25.1057  -24.5495 H   0  0  0  0  0  0  0  0  0  0  0  0
    1.2623   26.1227  -25.7670 H   0  0  0  0  0  0  0  0  0  0  0  0
    0.7520   25.7370  -22.9040 H   0  0  0  0  0  0  0  0  0  0  0  0
   -1.3261   25.2153  -24.0034 H   0  0  0  0  0  0  0  0  0  0  0  0
   -1.3531   26.7354  -23.0032 H   0  0  0  0  0  0  0  0  0  0  0  0
   -1.7064   26.3623  -25.9388 H   0  0  0  0  0  0  0  0  0  0  0  0
   -2.3343   27.6415  -24.8081 H   0  0  0  0  0  0  0  0  0  0  0  0
   -0.9340   28.7580  -26.1650 H   0  0  0  0  0  0  0  0  0  0  0  0
    0.9435   29.4119  -24.8950 H   0  0  0  0  0  0  0  0  0  0  0  0
   -0.4842   29.1107  -23.8328 H   0  0  0  0  0  0  0  0  0  0  0  0
    2.0975   27.5976  -24.0804 H   0  0  0  0  0  0  0  0  0  0  0  0
    1.0116   27.8959  -22.6418 H   0  0  0  0  0  0  0  0  0  0  0  0
   -0.1101   25.0623  -27.2854 H   0  0  0  0  0  0  0  0  0  0  0  0
   -2.4647   25.1087  -28.1708 H   0  0  0  0  0  0  0  0  0  0  0  0
   -6.1296   24.6007  -32.9059 H   0  0  0  0  0  0  0  0  0  0  0  0
   -7.6907   22.7221  -33.3900 H   0  0  0  0  0  0  0  0  0  0  0  0
  1  2  1  0
  2  3  1  0
  3  4  1  0
  4  5  1  0
  5  6  1  0
  6  7  2  0
  7  8  1  0
  8  9  2  0
  9 10  1  0
 10 11  2  0
 10 12  1  0
 12 13  1  0
 13 14  2  0
 14 15  1  0
 15 16  2  0
 16 17  1  0
 17 18  1  0
 18 19  2  0
 19 20  1  0
 20 21  2  0
 21 22  1  0
 22 23  1  0
 23 24  1  0
 24 25  1  0
 25 26  1  0
 26 27  1  0
 27 28  1  0
 28 29  1  0
 22 30  2  0
 17 31  2  0
  9 32  1  0
 32 33  2  0
 33  6  1  0
 31 13  1  0
 30 18  1  0
 29 24  1  0
  1 34  1  0
  1 35  1  0
  1 36  1  0
  2 37  1  0
  2 38  1  0
  3 39  1  0
  3 40  1  0
  4 41  1  0
  4 42  1  0
  5 43  1  0
  5 44  1  0
  7 45  1  0
  8 46  1  0
 14 47  1  0
 15 48  1  0
 16 49  1  0
 19 50  1  0
 20 51  1  0
 21 52  1  0
 23 53  1  0
 23 54  1  0
 24 55  1  0
 25 56  1  0
 25 57  1  0
 26 58  1  0
 26 59  1  0
 27 60  1  0
 28 61  1  0
 28 62  1  0
 29 63  1  0
 29 64  1  0
 30 65  1  0
 31 66  1  0
 32 67  1  0
 33 68  1  0
M  CHG  2  12  -1  24   1
M  END
>  <UniqueID>  (31) 
30

>  <SMILES>  (31) 
CCCCCc1ccc(C(=O)[N-]c2cccc(-c3cccc(C[NH+]4CCNCC4)c3)c2)cc1

>  <Energy>  (31) 
86.518910952608

>  <Genealogy>  (31) 
CCCCCc1ccc(C(=O)[N-]c2cccc(-c3cccc(C[NH+]4CCNCC4)c3)c2)cc1 (protonated)
CCCCCc1ccc(C(=O)[N-]c2cccc(-c3cccc(C[NH+]4CCNCC4)c3)c2)cc1 (3D coordinates assigned)
CCCCCc1ccc(C(=O)[N-]c2cccc(-c3cccc(C[NH+]4CCNCC4)c3)c2)cc1 (nonaromatic ring conformer: 86.518910952608 kcal/mol)

>  <smiles>  (31) 
CCCCCc1ccc(C(=O)Nc2cccc(-c3cccc(CN4CCNCC4)c3)c2)cc1

>  <score_type>  (31) 
oracle

>  <origin>  (31) 
adgpu

>  <m_score__min__energy>  (31) 
-12.65

>  <m_primary>  (31) 
energy

$$$$
31:0
     RDKit          3D

 43 45  0  0  0  0  0  0  0  0999 V2000
   -8.7440   20.8560  -31.9350 C   0  0  0  0  0  0  0  0  0  0  0  0
   -8.6920   22.2420  -31.6140 O   0  0  0  0  0  0  0  0  0  0  0  0
   -7.5110   22.9460  -31.3340 C   0  0  0  0  0  0  0  0  0  0  0  0
   -6.5150   23.1640  -32.3050 C   0  0  0  0  0  0  0  0  0  0  0  0
   -5.3540   23.8710  -31.9760 C   0  0  0  0  0  0  0  0  0  0  0  0
   -5.1680   24.3700  -30.6820 C   0  0  0  0  0  0  0  0  0  0  0  0
   -3.9550   25.0770  -30.3850 N   0  0  0  0  0  0  0  0  0  0  0  0
   -2.6640   24.4780  -29.3930 S   0  0  0  0  0  0  0  0  0  0  0  0
   -1.5790   25.5140  -29.3340 O   0  0  0  0  0  0  0  0  0  0  0  0
   -3.1930   24.2420  -28.0050 O   0  0  0  0  0  0  0  0  0  0  0  0
   -1.9940   22.9880  -30.0650 C   0  0  0  0  0  0  0  0  0  0  0  0
   -2.7460   22.2450  -30.9870 C   0  0  0  0  0  0  0  0  0  0  0  0
   -2.2490   21.0490  -31.5250 C   0  0  0  0  0  0  0  0  0  0  0  0
   -3.0760   20.2780  -32.4810 C   0  0  0  0  0  0  0  0  0  0  0  0
   -4.4560   20.1920  -32.5250 C   0  0  0  0  0  0  0  0  0  0  0  0
   -4.6940   19.3520  -33.5910 C   0  0  0  0  0  0  0  0  0  0  0  0
   -6.0360   18.9730  -34.1240 C   0  0  0  0  0  0  0  0  0  0  0  0
   -3.5280   18.9820  -34.1520 N   0  0  0  0  0  0  0  0  0  0  0  0
   -2.5840   19.5490  -33.4590 O   0  0  0  0  0  0  0  0  0  0  0  0
   -0.9730   20.6080  -31.1400 C   0  0  0  0  0  0  0  0  0  0  0  0
   -0.2100   21.3500  -30.2360 C   0  0  0  0  0  0  0  0  0  0  0  0
   -0.7110   22.5480  -29.6920 C   0  0  0  0  0  0  0  0  0  0  0  0
    0.0400   23.3200  -28.7890 O   0  0  0  0  0  0  0  0  0  0  0  0
   -0.1060   23.2780  -27.3740 C   0  0  0  0  0  0  0  0  0  0  0  0
   -6.1640   24.1530  -29.7120 C   0  0  0  0  0  0  0  0  0  0  0  0
   -7.3230   23.4460  -30.0410 C   0  0  0  0  0  0  0  0  0  0  0  0
   -8.7662   20.2654  -31.0073 H   0  0  0  0  0  0  0  0  0  0  0  0
   -9.6505   20.6495  -32.5229 H   0  0  0  0  0  0  0  0  0  0  0  0
   -7.8555   20.5822  -32.5229 H   0  0  0  0  0  0  0  0  0  0  0  0
   -6.6504   22.7770  -33.3257 H   0  0  0  0  0  0  0  0  0  0  0  0
   -4.5807   24.0362  -32.7407 H   0  0  0  0  0  0  0  0  0  0  0  0
   -3.7394   22.6055  -31.2923 H   0  0  0  0  0  0  0  0  0  0  0  0
   -5.1894   20.6788  -31.8654 H   0  0  0  0  0  0  0  0  0  0  0  0
   -6.7219   18.7793  -33.2862 H   0  0  0  0  0  0  0  0  0  0  0  0
   -6.4315   19.7946  -34.7393 H   0  0  0  0  0  0  0  0  0  0  0  0
   -5.9433   18.0659  -34.7393 H   0  0  0  0  0  0  0  0  0  0  0  0
   -0.5713   19.6711  -31.5535 H   0  0  0  0  0  0  0  0  0  0  0  0
    0.7904   20.9957  -29.9466 H   0  0  0  0  0  0  0  0  0  0  0  0
    0.8474   23.5523  -26.8987 H   0  0  0  0  0  0  0  0  0  0  0  0
   -0.8874   23.9878  -27.0648 H   0  0  0  0  0  0  0  0  0  0  0  0
   -0.3908   22.2615  -27.0648 H   0  0  0  0  0  0  0  0  0  0  0  0
   -6.0296   24.5412  -28.6916 H   0  0  0  0  0  0  0  0  0  0  0  0
   -8.0956   23.2807  -29.2757 H   0  0  0  0  0  0  0  0  0  0  0  0
  1  2  1  0
  2  3  1  0
  3  4  2  0
  4  5  1  0
  5  6  2  0
  6  7  1  0
  7  8  1  0
  8  9  2  0
  8 10  2  0
  8 11  1  0
 11 12  2  0
 12 13  1  0
 13 14  1  0
 14 15  2  0
 15 16  1  0
 16 17  1  0
 16 18  2  0
 18 19  1  0
 13 20  2  0
 20 21  1  0
 21 22  2  0
 22 23  1  0
 23 24  1  0
  6 25  1  0
 25 26  2  0
 26  3  1  0
 22 11  1  0
 19 14  1  0
  1 27  1  0
  1 28  1  0
  1 29  1  0
  4 30  1  0
  5 31  1  0
 12 32  1  0
 15 33  1  0
 17 34  1  0
 17 35  1  0
 17 36  1  0
 20 37  1  0
 21 38  1  0
 24 39  1  0
 24 40  1  0
 24 41  1  0
 25 42  1  0
 26 43  1  0
M  CHG  1   7  -1
M  END
>  <UniqueID>  (32) 
31

>  <SMILES>  (32) 
COc1ccc([N-]S(=O)(=O)c2cc(-c3cc(C)no3)ccc2OC)cc1

>  <Energy>  (32) 
77.33639738169852

>  <Genealogy>  (32) 
COc1ccc([N-]S(=O)(=O)c2cc(-c3cc(C)no3)ccc2OC)cc1 (protonated)
COc1ccc([N-]S(=O)(=O)c2cc(-c3cc(C)no3)ccc2OC)cc1 (3D coordinates assigned)
COc1ccc([N-]S(=O)(=O)c2cc(-c3cc(C)no3)ccc2OC)cc1 (optimized conformer: 77.33639738169852 kcal/mol)

>  <smiles>  (32) 
COc1ccc(NS(=O)(=O)c2cc(-c3cc(C)no3)ccc2OC)cc1

>  <score_type>  (32) 
oracle

>  <origin>  (32) 
adgpu

>  <m_score__min__energy>  (32) 
-9.3300000000000001

>  <m_primary>  (32) 
energy

$$$$
32:0
     RDKit          3D

 55 59  0  0  0  0  0  0  0  0999 V2000
   -5.4570   15.2650  -33.4330 C   0  0  0  0  0  0  0  0  0  0  0  0
   -6.6260   16.0420  -33.6710 O   0  0  0  0  0  0  0  0  0  0  0  0
   -6.7680   17.3920  -33.3140 C   0  0  0  0  0  0  0  0  0  0  0  0
   -6.0570   18.3510  -34.0430 C   0  0  0  0  0  0  0  0  0  0  0  0
   -6.1700   19.7090  -33.7320 C   0  0  0  0  0  0  0  0  0  0  0  0
   -7.0040   20.1340  -32.6800 C   0  0  0  0  0  0  0  0  0  0  0  0
   -7.1400   21.5740  -32.3560 C   0  0  0  0  0  0  0  0  0  0  0  0
   -8.2650   22.0410  -32.0290 O   0  0  0  0  0  0  0  0  0  0  0  0
   -5.9860   22.4260  -32.3620 N   0  0  0  0  0  0  0  0  0  0  0  0
   -5.4740   23.1500  -31.2320 C   0  0  0  0  0  0  0  0  0  0  0  0
   -5.7590   24.5170  -31.0560 C   0  0  0  0  0  0  0  0  0  0  0  0
   -5.2330   25.2120  -29.9630 C   0  0  0  0  0  0  0  0  0  0  0  0
   -4.4230   24.5510  -29.0380 C   0  0  0  0  0  0  0  0  0  0  0  0
   -4.1250   23.1990  -29.2120 C   0  0  0  0  0  0  0  0  0  0  0  0
   -4.6220   22.5010  -30.3180 C   0  0  0  0  0  0  0  0  0  0  0  0
   -4.2260   20.7580  -30.4970 S   0  0  0  0  0  0  0  0  0  0  0  0
   -3.0390   21.0250  -31.8160 C   0  0  0  0  0  0  0  0  0  0  0  0
   -3.3990   21.2690  -33.0900 N   0  0  0  0  0  0  0  0  0  0  0  0
   -2.2920   21.2510  -33.8170 N   0  0  0  0  0  0  0  0  0  0  0  0
   -1.2680   20.9980  -32.9760 C   0  0  0  0  0  0  0  0  0  0  0  0
    0.1220   20.7870  -33.4370 C   0  0  0  0  0  0  0  0  0  0  0  0
    0.9620   19.8460  -32.8190 C   0  0  0  0  0  0  0  0  0  0  0  0
    2.2560   19.6500  -33.3070 C   0  0  0  0  0  0  0  0  0  0  0  0
    2.7040   20.3790  -34.3640 N   0  0  0  0  0  0  0  0  0  0  0  0
    1.9220   21.3130  -34.9660 C   0  0  0  0  0  0  0  0  0  0  0  0
    0.6220   21.5400  -34.5090 C   0  0  0  0  0  0  0  0  0  0  0  0
   -1.7070   20.8560  -31.7050 N   0  0  0  0  0  0  0  0  0  0  0  0
   -0.9800   20.4180  -30.5500 C   0  0  0  0  0  0  0  0  0  0  0  0
   -0.6940   19.0550  -30.3930 C   0  0  0  0  0  0  0  0  0  0  0  0
   -0.0030   18.6060  -29.2640 C   0  0  0  0  0  0  0  0  0  0  0  0
    0.4020   19.5160  -28.2840 C   0  0  0  0  0  0  0  0  0  0  0  0
    0.1170   20.8780  -28.4320 C   0  0  0  0  0  0  0  0  0  0  0  0
   -0.5740   21.3340  -29.5620 C   0  0  0  0  0  0  0  0  0  0  0  0
   -0.9140   23.0500  -29.7220 Cl  0  0  0  0  0  0  0  0  0  0  0  0
   -7.7170   19.1680  -31.9460 C   0  0  0  0  0  0  0  0  0  0  0  0
   -7.6000   17.8120  -32.2580 C   0  0  0  0  0  0  0  0  0  0  0  0
   -5.3003   15.1609  -32.3492 H   0  0  0  0  0  0  0  0  0  0  0  0
   -5.5809   14.2689  -33.8830 H   0  0  0  0  0  0  0  0  0  0  0  0
   -4.5866   15.7649  -33.8830 H   0  0  0  0  0  0  0  0  0  0  0  0
   -5.4030   18.0335  -34.8685 H   0  0  0  0  0  0  0  0  0  0  0  0
   -5.6033   20.4512  -34.3133 H   0  0  0  0  0  0  0  0  0  0  0  0
   -6.3985   25.0409  -31.7817 H   0  0  0  0  0  0  0  0  0  0  0  0
   -5.4576   26.2808  -29.8317 H   0  0  0  0  0  0  0  0  0  0  0  0
   -4.0196   25.0960  -28.1718 H   0  0  0  0  0  0  0  0  0  0  0  0
   -3.4955   22.6788  -28.4751 H   0  0  0  0  0  0  0  0  0  0  0  0
    0.6028   19.2667  -31.9556 H   0  0  0  0  0  0  0  0  0  0  0  0
    2.9137   18.9048  -32.8356 H   0  0  0  0  0  0  0  0  0  0  0  0
    2.3138   21.8918  -35.8154 H   0  0  0  0  0  0  0  0  0  0  0  0
   -0.0065   22.3055  -34.9875 H   0  0  0  0  0  0  0  0  0  0  0  0
   -1.0145   18.3359  -31.1612 H   0  0  0  0  0  0  0  0  0  0  0  0
    0.2221   17.5357  -29.1469 H   0  0  0  0  0  0  0  0  0  0  0  0
    0.9452   19.1615  -27.3956 H   0  0  0  0  0  0  0  0  0  0  0  0
    0.4364   21.5924  -27.6590 H   0  0  0  0  0  0  0  0  0  0  0  0
   -8.3715   19.4835  -31.1201 H   0  0  0  0  0  0  0  0  0  0  0  0
   -8.1613   17.0669  -31.6752 H   0  0  0  0  0  0  0  0  0  0  0  0
  1  2  1  0
  2  3  1  0
  3  4  2  0
  4  5  1  0
  5  6  2  0
  6  7  1  0
  7  8  2  0
  7  9  1  0
  9 10  1  0
 10 11  2  0
 11 12  1  0
 12 13  2  0
 13 14  1  0
 14 15  2  0
 15 16  1  0
 16 17  1  0
 17 18  2  0
 18 19  1  0
 19 20  2  0
 20 21  1  0
 21 22  2  0
 22 23  1  0
 23 24  2  0
 24 25  1  0
 25 26  2  0
 20 27  1  0
 27 28  1  0
 28 29  2  0
 29 30  1  0
 30 31  2  0
 31 32  1  0
 32 33  2  0
 33 34  1  0
  6 35  1  0
 35 36  2  0
 36  3  1  0
 15 10  1  0
 27 17  1  0
 33 28  1  0
 26 21  1  0
  1 37  1  0
  1 38  1  0
  1 39  1  0
  4 40  1  0
  5 41  1  0
 11 42  1  0
 12 43  1  0
 13 44  1  0
 14 45  1  0
 22 46  1  0
 23 47  1  0
 25 48  1  0
 26 49  1  0
 29 50  1  0
 30 51  1  0
 31 52  1  0
 32 53  1  0
 35 54  1  0
 36 55  1  0
M  CHG  1   9  -1
M  END
>  <UniqueID>  (33) 
32

>  <SMILES>  (33) 
COc1ccc(C(=O)[N-]c2ccccc2Sc2nnc(-c3ccncc3)n2-c2ccccc2Cl)cc1

>  <Energy>  (33) 
108.23005466892126

>  <Genealogy>  (33) 
COc1ccc(C(=O)[N-]c2ccccc2Sc2nnc(-c3ccncc3)n2-c2ccccc2Cl)cc1 (protonated)
COc1ccc(C(=O)[N-]c2ccccc2Sc2nnc(-c3ccncc3)n2-c2ccccc2Cl)cc1 (3D coordinates assigned)
COc1ccc(C(=O)[N-]c2ccccc2Sc2nnc(-c3ccncc3)n2-c2ccccc2Cl)cc1 (optimized conformer: 108.23005466892126 kcal/mol)

>  <smiles>  (33) 
COc1ccc(C(=O)Nc2ccccc2Sc2nnc(-c3ccncc3)n2-c2ccccc2Cl)cc1

>  <score_type>  (33) 
oracle

>  <origin>  (33) 
adgpu

>  <m_score__min__energy>  (33) 
-10.76

>  <m_primary>  (33) 
energy

$$$$
33:0
     RDKit          3D

 41 43  0  0  0  0  0  0  0  0999 V2000
   -6.0250   26.0750  -30.1990 O   0  0  0  0  0  0  0  0  0  0  0  0
   -5.1970   25.2790  -30.7140 C   0  0  0  0  0  0  0  0  0  0  0  0
   -3.8700   25.6760  -30.8400 O   0  0  0  0  0  0  0  0  0  0  0  0
   -5.6090   23.9160  -31.1370 C   0  0  0  0  0  0  0  0  0  0  0  0
   -6.8090   23.7780  -31.8570 C   0  0  0  0  0  0  0  0  0  0  0  0
   -7.2010   22.5370  -32.3620 C   0  0  0  0  0  0  0  0  0  0  0  0
   -6.4000   21.4150  -32.1600 C   0  0  0  0  0  0  0  0  0  0  0  0
   -5.2140   21.5250  -31.4330 C   0  0  0  0  0  0  0  0  0  0  0  0
   -4.8150   22.7610  -30.8960 C   0  0  0  0  0  0  0  0  0  0  0  0
   -3.5990   22.7880  -30.0580 C   0  0  0  0  0  0  0  0  0  0  0  0
   -2.7040   21.9180  -30.2470 O   0  0  0  0  0  0  0  0  0  0  0  0
   -3.4460   23.7820  -29.0310 N   0  0  0  0  0  0  0  0  0  0  0  0
   -2.3220   23.8550  -28.1380 C   0  0  0  0  0  0  0  0  0  0  0  0
   -1.5310   25.0130  -28.1220 C   0  0  0  0  0  0  0  0  0  0  0  0
   -0.4440   25.1160  -27.2510 C   0  0  0  0  0  0  0  0  0  0  0  0
   -0.1470   24.0710  -26.3680 C   0  0  0  0  0  0  0  0  0  0  0  0
    1.2360   24.1910  -25.2870 S   0  0  0  0  0  0  0  0  0  0  0  0
    2.5130   24.0800  -26.0730 O   0  0  0  0  0  0  0  0  0  0  0  0
    1.2060   23.0680  -24.2870 O   0  0  0  0  0  0  0  0  0  0  0  0
    1.1780   25.7380  -24.4520 C   0  0  0  0  0  0  0  0  0  0  0  0
   -0.0560   26.2980  -24.0900 C   0  0  0  0  0  0  0  0  0  0  0  0
   -0.1020   27.5380  -23.4440 C   0  0  0  0  0  0  0  0  0  0  0  0
    1.0820   28.2250  -23.1630 C   0  0  0  0  0  0  0  0  0  0  0  0
    2.3140   27.6750  -23.5310 C   0  0  0  0  0  0  0  0  0  0  0  0
    2.3630   26.4360  -24.1760 C   0  0  0  0  0  0  0  0  0  0  0  0
   -0.9430   22.9190  -26.3670 C   0  0  0  0  0  0  0  0  0  0  0  0
   -2.0300   22.8130  -27.2390 C   0  0  0  0  0  0  0  0  0  0  0  0
   -7.4466   24.6586  -32.0243 H   0  0  0  0  0  0  0  0  0  0  0  0
   -8.1442   22.4447  -32.9205 H   0  0  0  0  0  0  0  0  0  0  0  0
   -6.7027   20.4418  -32.5739 H   0  0  0  0  0  0  0  0  0  0  0  0
   -4.5853   20.6357  -31.2787 H   0  0  0  0  0  0  0  0  0  0  0  0
   -4.1540   24.5500  -28.9790 H   0  0  0  0  0  0  0  0  0  0  0  0
   -1.7683   25.8459  -28.8001 H   0  0  0  0  0  0  0  0  0  0  0  0
    0.1808   26.0213  -27.2589 H   0  0  0  0  0  0  0  0  0  0  0  0
   -0.9894   25.7611  -24.3145 H   0  0  0  0  0  0  0  0  0  0  0  0
   -1.0709   27.9726  -23.1570 H   0  0  0  0  0  0  0  0  0  0  0  0
    1.0449   29.1985  -22.6523 H   0  0  0  0  0  0  0  0  0  0  0  0
    3.2454   28.2180  -23.3126 H   0  0  0  0  0  0  0  0  0  0  0  0
    3.3331   26.0073  -24.4679 H   0  0  0  0  0  0  0  0  0  0  0  0
   -0.7118   22.0941  -25.6770 H   0  0  0  0  0  0  0  0  0  0  0  0
   -2.6597   21.9113  -27.2224 H   0  0  0  0  0  0  0  0  0  0  0  0
  1  2  2  0
  2  3  1  0
  2  4  1  0
  4  5  2  0
  5  6  1  0
  6  7  2  0
  7  8  1  0
  8  9  2  0
  9 10  1  0
 10 11  2  0
 10 12  1  0
 12 13  1  0
 13 14  2  0
 14 15  1  0
 15 16  2  0
 16 17  1  0
 17 18  2  0
 17 19  2  0
 17 20  1  0
 20 21  2  0
 21 22  1  0
 22 23  2  0
 23 24  1  0
 24 25  2  0
 16 26  1  0
 26 27  2  0
  9  4  1  0
 27 13  1  0
 25 20  1  0
  5 28  1  0
  6 29  1  0
  7 30  1  0
  8 31  1  0
 12 32  1  0
 14 33  1  0
 15 34  1  0
 21 35  1  0
 22 36  1  0
 23 37  1  0
 24 38  1  0
 25 39  1  0
 26 40  1  0
 27 41  1  0
M  CHG  1   3  -1
M  END
>  <UniqueID>  (34) 
33

>  <SMILES>  (34) 
O=C([O-])c1ccccc1C(=O)Nc1ccc(S(=O)(=O)c2ccccc2)cc1

>  <Energy>  (34) 
59.28898620307411

>  <Genealogy>  (34) 
O=C([O-])c1ccccc1C(=O)Nc1ccc(S(=O)(=O)c2ccccc2)cc1 (protonated)
O=C([O-])c1ccccc1C(=O)Nc1ccc(S(=O)(=O)c2ccccc2)cc1 (3D coordinates assigned)
O=C([O-])c1ccccc1C(=O)Nc1ccc(S(=O)(=O)c2ccccc2)cc1 (optimized conformer: 59.28898620307411 kcal/mol)

>  <smiles>  (34) 
O=C(O)c1ccccc1C(=O)Nc1ccc(S(=O)(=O)c2ccccc2)cc1

>  <score_type>  (34) 
oracle

>  <origin>  (34) 
adgpu

>  <m_score__min__energy>  (34) 
-11.029999999999999

>  <m_primary>  (34) 
energy

$$$$
34:0
     RDKit          3D

 50 52  0  0  0  0  0  0  0  0999 V2000
   -6.1370   19.2410  -34.4420 C   0  0  0  0  0  0  0  0  0  0  0  0
   -6.2580   18.3190  -33.2320 C   0  0  0  0  0  0  0  0  0  0  0  0
   -7.4090   18.7190  -32.3510 C   0  0  0  0  0  0  0  0  0  0  0  0
   -8.0120   17.8260  -31.6970 O   0  0  0  0  0  0  0  0  0  0  0  0
   -7.7530   20.0970  -32.1360 N   0  0  0  0  0  0  0  0  0  0  0  0
   -9.1100   20.6170  -32.3200 C   0  0  0  0  0  0  0  0  0  0  0  0
   -9.0950   22.0630  -31.7720 C   0  0  0  0  0  0  0  0  0  0  0  0
   -7.6710   22.2730  -31.3930 C   0  0  0  0  0  0  0  0  0  0  0  0
   -7.0780   23.4460  -30.9240 C   0  0  0  0  0  0  0  0  0  0  0  0
   -5.6910   23.4560  -30.6940 C   0  0  0  0  0  0  0  0  0  0  0  0
   -4.9220   24.9200  -30.0900 S   0  0  0  0  0  0  0  0  0  0  0  0
   -5.9890   25.8870  -29.6620 O   0  0  0  0  0  0  0  0  0  0  0  0
   -4.0940   25.5590  -31.1710 O   0  0  0  0  0  0  0  0  0  0  0  0
   -3.9130   24.5430  -28.7240 N   0  0  0  0  0  0  0  0  0  0  0  0
   -2.5150   24.9070  -28.9750 C   0  0  0  0  0  0  0  0  0  0  0  0
   -1.7190   23.7150  -29.5210 C   0  0  0  0  0  0  0  0  0  0  0  0
   -1.8180   22.5190  -28.6100 C   0  0  0  0  0  0  0  0  0  0  0  0
   -0.7170   22.1260  -27.8340 C   0  0  0  0  0  0  0  0  0  0  0  0
   -0.8180   21.0320  -26.9690 C   0  0  0  0  0  0  0  0  0  0  0  0
   -2.0190   20.3200  -26.8600 C   0  0  0  0  0  0  0  0  0  0  0  0
   -2.0680   19.2280  -25.9800 O   0  0  0  0  0  0  0  0  0  0  0  0
   -3.2610   18.5370  -25.6230 C   0  0  0  0  0  0  0  0  0  0  0  0
   -3.1270   20.7210  -27.6300 C   0  0  0  0  0  0  0  0  0  0  0  0
   -3.0260   21.8150  -28.4940 C   0  0  0  0  0  0  0  0  0  0  0  0
   -4.9280   22.3000  -30.9640 C   0  0  0  0  0  0  0  0  0  0  0  0
   -5.5480   21.1350  -31.4410 C   0  0  0  0  0  0  0  0  0  0  0  0
   -6.9370   21.1390  -31.6170 C   0  0  0  0  0  0  0  0  0  0  0  0
   -6.0009   20.2778  -34.1008 H   0  0  0  0  0  0  0  0  0  0  0  0
   -5.2709   18.9380  -35.0487 H   0  0  0  0  0  0  0  0  0  0  0  0
   -7.0519   19.1717  -35.0487 H   0  0  0  0  0  0  0  0  0  0  0  0
   -6.4163   17.2882  -33.5818 H   0  0  0  0  0  0  0  0  0  0  0  0
   -5.3305   18.3938  -32.6454 H   0  0  0  0  0  0  0  0  0  0  0  0
   -9.3774   20.6162  -33.3870 H   0  0  0  0  0  0  0  0  0  0  0  0
   -9.8518   19.9969  -31.7955 H   0  0  0  0  0  0  0  0  0  0  0  0
   -9.4064   22.7804  -32.5455 H   0  0  0  0  0  0  0  0  0  0  0  0
   -9.7895   22.2113  -30.9320 H   0  0  0  0  0  0  0  0  0  0  0  0
   -7.6838   24.3451  -30.7379 H   0  0  0  0  0  0  0  0  0  0  0  0
   -2.4840   25.7254  -29.7094 H   0  0  0  0  0  0  0  0  0  0  0  0
   -2.0614   25.2212  -28.0234 H   0  0  0  0  0  0  0  0  0  0  0  0
   -2.1155   23.4440  -30.5106 H   0  0  0  0  0  0  0  0  0  0  0  0
   -0.6613   24.0094  -29.5892 H   0  0  0  0  0  0  0  0  0  0  0  0
    0.2299   22.6811  -27.9065 H   0  0  0  0  0  0  0  0  0  0  0  0
    0.0528   20.7282  -26.3694 H   0  0  0  0  0  0  0  0  0  0  0  0
   -3.3432   18.4894  -24.5271 H   0  0  0  0  0  0  0  0  0  0  0  0
   -4.1308   19.0711  -26.0331 H   0  0  0  0  0  0  0  0  0  0  0  0
   -3.2305   17.5168  -26.0331 H   0  0  0  0  0  0  0  0  0  0  0  0
   -4.0764   20.1710  -27.5514 H   0  0  0  0  0  0  0  0  0  0  0  0
   -3.8990   22.1259  -29.0867 H   0  0  0  0  0  0  0  0  0  0  0  0
   -3.8404   22.3122  -30.7995 H   0  0  0  0  0  0  0  0  0  0  0  0
   -4.9552   20.2376  -31.6718 H   0  0  0  0  0  0  0  0  0  0  0  0
  1  2  1  0
  2  3  1  0
  3  4  2  0
  3  5  1  0
  5  6  1  0
  6  7  1  0
  7  8  1  0
  8  9  2  0
  9 10  1  0
 10 11  1  0
 11 12  2  0
 11 13  2  0
 11 14  1  0
 14 15  1  0
 15 16  1  0
 16 17  1  0
 17 18  2  0
 18 19  1  0
 19 20  2  0
 20 21  1  0
 21 22  1  0
 20 23  1  0
 23 24  2  0
 10 25  2  0
 25 26  1  0
 26 27  2  0
 27  5  1  0
 27  8  1  0
 24 17  1  0
  1 28  1  0
  1 29  1  0
  1 30  1  0
  2 31  1  0
  2 32  1  0
  6 33  1  0
  6 34  1  0
  7 35  1  0
  7 36  1  0
  9 37  1  0
 15 38  1  0
 15 39  1  0
 16 40  1  0
 16 41  1  0
 18 42  1  0
 19 43  1  0
 22 44  1  0
 22 45  1  0
 22 46  1  0
 23 47  1  0
 24 48  1  0
 25 49  1  0
 26 50  1  0
M  CHG  1  14  -1
M  END
>  <UniqueID>  (35) 
34

>  <SMILES>  (35) 
CCC(=O)N1CCc2cc(S(=O)(=O)[N-]CCc3ccc(OC)cc3)ccc21

>  <Energy>  (35) 
63.41067529609625

>  <Genealogy>  (35) 
CCC(=O)N1CCc2cc(S(=O)(=O)[N-]CCc3ccc(OC)cc3)ccc21 (protonated)
CCC(=O)N1CCc2cc(S(=O)(=O)[N-]CCc3ccc(OC)cc3)ccc21 (3D coordinates assigned)
CCC(=O)N1CCc2cc(S(=O)(=O)[N-]CCc3ccc(OC)cc3)ccc21 (nonaromatic ring conformer: 63.41067529609625 kcal/mol)

>  <smiles>  (35) 
CCC(=O)N1CCc2cc(S(=O)(=O)NCCc3ccc(OC)cc3)ccc21

>  <score_type>  (35) 
oracle

>  <origin>  (35) 
adgpu

>  <m_score__min__energy>  (35) 
-10.68

>  <m_primary>  (35) 
energy

$$$$
35:0
     RDKit          3D

 47 50  0  0  0  0  0  0  0  0999 V2000
   -0.1770   21.8410  -26.4650 C   0  0  0  0  0  0  0  0  0  0  0  0
   -0.9400   21.7810  -27.7550 C   0  0  0  0  0  0  0  0  0  0  0  0
   -0.3700   22.2740  -28.9370 C   0  0  0  0  0  0  0  0  0  0  0  0
   -1.0650   22.1860  -30.1470 C   0  0  0  0  0  0  0  0  0  0  0  0
   -2.3350   21.5920  -30.1920 C   0  0  0  0  0  0  0  0  0  0  0  0
   -3.0560   21.5050  -31.4320 N   0  0  0  0  0  0  0  0  0  0  0  0
   -4.3050   21.9490  -31.6810 C   0  0  0  0  0  0  0  0  0  0  0  0
   -5.4390   22.5950  -30.4460 S   0  0  0  0  0  0  0  0  0  0  0  0
   -5.7340   24.1750  -31.3120 C   0  0  0  0  0  0  0  0  0  0  0  0
   -4.8710   25.2510  -30.7370 C   0  0  0  0  0  0  0  0  0  0  0  0
   -5.3760   26.3740  -30.4650 O   0  0  0  0  0  0  0  0  0  0  0  0
   -3.5050   24.9620  -30.4180 N   0  0  0  0  0  0  0  0  0  0  0  0
   -2.9200   24.9130  -29.1090 C   0  0  0  0  0  0  0  0  0  0  0  0
   -1.5850   25.3110  -28.9570 C   0  0  0  0  0  0  0  0  0  0  0  0
   -0.9810   25.2950  -27.6970 C   0  0  0  0  0  0  0  0  0  0  0  0
   -1.7130   24.8970  -26.5740 C   0  0  0  0  0  0  0  0  0  0  0  0
   -0.9550   24.8810  -24.9910 Cl  0  0  0  0  0  0  0  0  0  0  0  0
   -3.0530   24.5230  -26.7130 C   0  0  0  0  0  0  0  0  0  0  0  0
   -3.6590   24.5360  -27.9730 C   0  0  0  0  0  0  0  0  0  0  0  0
   -4.5770   21.9500  -33.0000 N   0  0  0  0  0  0  0  0  0  0  0  0
   -3.4980   21.4930  -33.6170 N   0  0  0  0  0  0  0  0  0  0  0  0
   -2.5790   21.2270  -32.6670 C   0  0  0  0  0  0  0  0  0  0  0  0
   -1.2320   20.6960  -32.9780 C   0  0  0  0  0  0  0  0  0  0  0  0
   -0.6930   19.6150  -32.2610 C   0  0  0  0  0  0  0  0  0  0  0  0
    0.5760   19.1340  -32.5910 C   0  0  0  0  0  0  0  0  0  0  0  0
    1.2780   19.6990  -33.6080 N   0  0  0  0  0  0  0  0  0  0  0  0
    0.7750   20.7340  -34.3310 C   0  0  0  0  0  0  0  0  0  0  0  0
   -0.4910   21.2460  -34.0340 C   0  0  0  0  0  0  0  0  0  0  0  0
   -2.8970   21.0820  -29.0110 C   0  0  0  0  0  0  0  0  0  0  0  0
   -2.2030   21.1700  -27.8020 C   0  0  0  0  0  0  0  0  0  0  0  0
   -0.8797   21.7857  -25.6205 H   0  0  0  0  0  0  0  0  0  0  0  0
    0.5245   20.9952  -26.4142 H   0  0  0  0  0  0  0  0  0  0  0  0
    0.3837   22.7860  -26.4142 H   0  0  0  0  0  0  0  0  0  0  0  0
    0.6295   22.7326  -28.9124 H   0  0  0  0  0  0  0  0  0  0  0  0
   -0.6139   22.5843  -31.0678 H   0  0  0  0  0  0  0  0  0  0  0  0
   -5.4988   24.0530  -32.3796 H   0  0  0  0  0  0  0  0  0  0  0  0
   -6.7895   24.4589  -31.1885 H   0  0  0  0  0  0  0  0  0  0  0  0
   -1.0089   25.6381  -29.8351 H   0  0  0  0  0  0  0  0  0  0  0  0
    0.0715   25.5958  -27.5884 H   0  0  0  0  0  0  0  0  0  0  0  0
   -3.6320   24.2178  -25.8289 H   0  0  0  0  0  0  0  0  0  0  0  0
   -4.7163   24.2507  -28.0762 H   0  0  0  0  0  0  0  0  0  0  0  0
   -1.2664   19.1505  -31.4453 H   0  0  0  0  0  0  0  0  0  0  0  0
    1.0085   18.2952  -32.0259 H   0  0  0  0  0  0  0  0  0  0  0  0
    1.3651   21.1693  -35.1510 H   0  0  0  0  0  0  0  0  0  0  0  0
   -0.9042   22.0763  -34.6256 H   0  0  0  0  0  0  0  0  0  0  0  0
   -3.8903   20.6101  -29.0379 H   0  0  0  0  0  0  0  0  0  0  0  0
   -2.6476   20.7591  -26.8836 H   0  0  0  0  0  0  0  0  0  0  0  0
  1  2  1  0
  2  3  2  0
  3  4  1  0
  4  5  2  0
  5  6  1  0
  6  7  1  0
  7  8  1  0
  8  9  1  0
  9 10  1  0
 10 11  2  0
 10 12  1  0
 12 13  1  0
 13 14  2  0
 14 15  1  0
 15 16  2  0
 16 17  1  0
 16 18  1  0
 18 19  2  0
  7 20  2  0
 20 21  1  0
 21 22  2  0
 22 23  1  0
 23 24  2  0
 24 25  1  0
 25 26  2  0
 26 27  1  0
 27 28  2  0
  5 29  1  0
 29 30  2  0
 30  2  1  0
 22  6  1  0
 28 23  1  0
 19 13  1  0
  1 31  1  0
  1 32  1  0
  1 33  1  0
  3 34  1  0
  4 35  1  0
  9 36  1  0
  9 37  1  0
 14 38  1  0
 15 39  1  0
 18 40  1  0
 19 41  1  0
 24 42  1  0
 25 43  1  0
 27 44  1  0
 28 45  1  0
 29 46  1  0
 30 47  1  0
M  CHG  1  12  -1
M  END
>  <UniqueID>  (36) 
35

>  <SMILES>  (36) 
Cc1ccc(-n2c(SCC(=O)[N-]c3ccc(Cl)cc3)nnc2-c2ccncc2)cc1

>  <Energy>  (36) 
94.31147079723235

>  <Genealogy>  (36) 
Cc1ccc(-n2c(SCC(=O)[N-]c3ccc(Cl)cc3)nnc2-c2ccncc2)cc1 (protonated)
Cc1ccc(-n2c(SCC(=O)[N-]c3ccc(Cl)cc3)nnc2-c2ccncc2)cc1 (3D coordinates assigned)
Cc1ccc(-n2c(SCC(=O)[N-]c3ccc(Cl)cc3)nnc2-c2ccncc2)cc1 (optimized conformer: 94.31147079723235 kcal/mol)

>  <smiles>  (36) 
Cc1ccc(-n2c(SCC(=O)Nc3ccc(Cl)cc3)nnc2-c2ccncc2)cc1

>  <score_type>  (36) 
oracle

>  <origin>  (36) 
adgpu

>  <m_score__min__energy>  (36) 
-11.25

>  <m_primary>  (36) 
energy

$$$$
36:0
     RDKit          3D

 43 45  0  0  0  0  0  0  0  0999 V2000
   -3.6350   19.2690  -33.4860 C   0  0  0  0  0  0  0  0  0  0  0  0
   -4.4080   18.0370  -33.5350 N   0  0  0  0  0  0  0  0  0  0  0  0
   -5.7890   18.0000  -33.9090 C   0  0  0  0  0  0  0  0  0  0  0  0
   -6.1390   17.3730  -34.9460 O   0  0  0  0  0  0  0  0  0  0  0  0
   -6.8060   18.6940  -33.0820 C   0  0  0  0  0  0  0  0  0  0  0  0
   -7.7970   17.9610  -32.4060 C   0  0  0  0  0  0  0  0  0  0  0  0
   -8.7470   18.6140  -31.6160 C   0  0  0  0  0  0  0  0  0  0  0  0
   -8.7230   20.0060  -31.4980 C   0  0  0  0  0  0  0  0  0  0  0  0
   -7.7590   20.7570  -32.1780 C   0  0  0  0  0  0  0  0  0  0  0  0
   -7.7600   22.1510  -32.0230 O   0  0  0  0  0  0  0  0  0  0  0  0
   -6.6940   22.9120  -31.5220 C   0  0  0  0  0  0  0  0  0  0  0  0
   -5.3540   22.5400  -31.7220 C   0  0  0  0  0  0  0  0  0  0  0  0
   -4.3190   23.3330  -31.2170 C   0  0  0  0  0  0  0  0  0  0  0  0
   -4.6040   24.5100  -30.5150 C   0  0  0  0  0  0  0  0  0  0  0  0
   -3.5110   25.2840  -30.0030 N   0  0  0  0  0  0  0  0  0  0  0  0
   -2.3560   24.7290  -28.8350 S   0  0  0  0  0  0  0  0  0  0  0  0
   -2.9180   24.9290  -27.4560 O   0  0  0  0  0  0  0  0  0  0  0  0
   -1.0940   25.5330  -28.9720 O   0  0  0  0  0  0  0  0  0  0  0  0
   -1.9800   23.0290  -29.1090 C   0  0  0  0  0  0  0  0  0  0  0  0
   -1.0580   22.6600  -30.0990 C   0  0  0  0  0  0  0  0  0  0  0  0
   -0.7550   21.3120  -30.3080 C   0  0  0  0  0  0  0  0  0  0  0  0
   -1.3730   20.3260  -29.5320 C   0  0  0  0  0  0  0  0  0  0  0  0
   -2.2970   20.6890  -28.5470 C   0  0  0  0  0  0  0  0  0  0  0  0
   -2.6030   22.0380  -28.3380 C   0  0  0  0  0  0  0  0  0  0  0  0
   -5.9440   24.8950  -30.3360 C   0  0  0  0  0  0  0  0  0  0  0  0
   -6.9790   24.1020  -30.8430 C   0  0  0  0  0  0  0  0  0  0  0  0
   -6.7900   20.0950  -32.9550 C   0  0  0  0  0  0  0  0  0  0  0  0
   -3.4588   19.5498  -32.4372 H   0  0  0  0  0  0  0  0  0  0  0  0
   -2.6702   19.1169  -33.9919 H   0  0  0  0  0  0  0  0  0  0  0  0
   -4.1917   20.0716  -33.9919 H   0  0  0  0  0  0  0  0  0  0  0  0
   -7.8249   16.8653  -32.4996 H   0  0  0  0  0  0  0  0  0  0  0  0
   -9.5149   18.0312  -31.0862 H   0  0  0  0  0  0  0  0  0  0  0  0
   -9.4667   20.5141  -30.8666 H   0  0  0  0  0  0  0  0  0  0  0  0
   -5.1181   21.6208  -32.2783 H   0  0  0  0  0  0  0  0  0  0  0  0
   -3.2731   23.0297  -31.3725 H   0  0  0  0  0  0  0  0  0  0  0  0
   -0.5723   23.4333  -30.7123 H   0  0  0  0  0  0  0  0  0  0  0  0
   -0.0295   21.0259  -31.0838 H   0  0  0  0  0  0  0  0  0  0  0  0
   -1.1323   19.2653  -29.6964 H   0  0  0  0  0  0  0  0  0  0  0  0
   -2.7832   19.9138  -27.9365 H   0  0  0  0  0  0  0  0  0  0  0  0
   -3.3343   22.3217  -27.5668 H   0  0  0  0  0  0  0  0  0  0  0  0
   -6.1797   25.8234  -29.7952 H   0  0  0  0  0  0  0  0  0  0  0  0
   -8.0244   24.4161  -30.7069 H   0  0  0  0  0  0  0  0  0  0  0  0
   -6.0120   20.6792  -33.4683 H   0  0  0  0  0  0  0  0  0  0  0  0
  1  2  1  0
  2  3  1  0
  3  4  2  0
  3  5  1  0
  5  6  2  0
  6  7  1  0
  7  8  2  0
  8  9  1  0
  9 10  1  0
 10 11  1  0
 11 12  2  0
 12 13  1  0
 13 14  2  0
 14 15  1  0
 15 16  1  0
 16 17  2  0
 16 18  2  0
 16 19  1  0
 19 20  2  0
 20 21  1  0
 21 22  2  0
 22 23  1  0
 23 24  2  0
 14 25  1  0
 25 26  2  0
  9 27  2  0
 27  5  1  0
 26 11  1  0
 24 19  1  0
  1 28  1  0
  1 29  1  0
  1 30  1  0
  6 31  1  0
  7 32  1  0
  8 33  1  0
 12 34  1  0
 13 35  1  0
 20 36  1  0
 21 37  1  0
 22 38  1  0
 23 39  1  0
 24 40  1  0
 25 41  1  0
 26 42  1  0
 27 43  1  0
M  CHG  2   2  -1  15  -1
M  END
>  <UniqueID>  (37) 
36

>  <SMILES>  (37) 
C[N-]C(=O)c1cccc(Oc2ccc([N-]S(=O)(=O)c3ccccc3)cc2)c1

>  <Energy>  (37) 
53.22150398274529

>  <Genealogy>  (37) 
C[N-]C(=O)c1cccc(Oc2ccc([N-]S(=O)(=O)c3ccccc3)cc2)c1 (protonated)
C[N-]C(=O)c1cccc(Oc2ccc([N-]S(=O)(=O)c3ccccc3)cc2)c1 (3D coordinates assigned)
C[N-]C(=O)c1cccc(Oc2ccc([N-]S(=O)(=O)c3ccccc3)cc2)c1 (optimized conformer: 53.22150398274529 kcal/mol)

>  <smiles>  (37) 
CNC(=O)c1cccc(Oc2ccc(NS(=O)(=O)c3ccccc3)cc2)c1

>  <score_type>  (37) 
oracle

>  <origin>  (37) 
adgpu

>  <m_score__min__energy>  (37) 
-10.529999999999999

>  <m_primary>  (37) 
energy

$$$$
37:0
     RDKit          3D

 17 17  0  0  0  0  0  0  0  0999 V2000
   -6.1260   24.0450  -31.1810 C   0  0  0  0  0  0  0  0  0  0  0  0
   -6.3570   23.1960  -32.3440 N   0  0  0  0  0  0  0  0  0  0  0  0
   -7.2530   22.0680  -32.3410 C   0  0  0  0  0  0  0  0  0  0  0  0
   -6.8250   20.7800  -32.7190 C   0  0  0  0  0  0  0  0  0  0  0  0
   -7.7210   19.7070  -32.7060 C   0  0  0  0  0  0  0  0  0  0  0  0
   -9.0480   19.9040  -32.3170 C   0  0  0  0  0  0  0  0  0  0  0  0
   -9.4810   21.1770  -31.9390 C   0  0  0  0  0  0  0  0  0  0  0  0
   -8.5900   22.2540  -31.9510 C   0  0  0  0  0  0  0  0  0  0  0  0
   -6.2851   23.4604  -30.2629 H   0  0  0  0  0  0  0  0  0  0  0  0
   -5.0927   24.4217  -31.2014 H   0  0  0  0  0  0  0  0  0  0  0  0
   -6.8260   24.8933  -31.2014 H   0  0  0  0  0  0  0  0  0  0  0  0
   -5.8400   23.4270  -33.2220 H   0  0  0  0  0  0  0  0  0  0  0  0
   -5.7811   20.6180  -33.0257 H   0  0  0  0  0  0  0  0  0  0  0  0
   -7.3799   18.7043  -33.0031 H   0  0  0  0  0  0  0  0  0  0  0  0
   -9.7509   19.0579  -32.3084 H   0  0  0  0  0  0  0  0  0  0  0  0
  -10.5256   21.3324  -31.6312 H   0  0  0  0  0  0  0  0  0  0  0  0
   -8.9380   23.2541  -31.6531 H   0  0  0  0  0  0  0  0  0  0  0  0
  1  2  1  0
  2  3  1  0
  3  4  2  0
  4  5  1  0
  5  6  2  0
  6  7  1  0
  7  8  2  0
  8  3  1  0
  1  9  1  0
  1 10  1  0
  1 11  1  0
  2 12  1  0
  4 13  1  0
  5 14  1  0
  6 15  1  0
  7 16  1  0
  8 17  1  0
M  END
>  <UniqueID>  (38) 
37

>  <SMILES>  (38) 
CNc1ccccc1

>  <Energy>  (38) 
13.86023668287459

>  <Genealogy>  (38) 
CNc1ccccc1 (3D coordinates assigned)
CNc1ccccc1 (optimized conformer: 13.86023668287459 kcal/mol)

>  <smiles>  (38) 
CNc1ccccc1

>  <score_type>  (38) 
oracle

>  <origin>  (38) 
adgpu

>  <m_score__min__energy>  (38) 
-4.2199999999999998

>  <m_primary>  (38) 
energy

$$$$
38:0
     RDKit          3D

 49 51  0  0  0  0  0  0  0  0999 V2000
   -8.7820   18.6340  -31.6560 C   0  0  0  0  0  0  0  0  0  0  0  0
   -9.0270   19.9460  -32.1500 O   0  0  0  0  0  0  0  0  0  0  0  0
   -8.1040   21.0000  -32.0910 C   0  0  0  0  0  0  0  0  0  0  0  0
   -8.4950   22.3380  -31.8940 C   0  0  0  0  0  0  0  0  0  0  0  0
   -7.5360   23.3550  -31.8410 C   0  0  0  0  0  0  0  0  0  0  0  0
   -6.1700   23.0460  -31.9700 C   0  0  0  0  0  0  0  0  0  0  0  0
   -5.1590   24.0630  -31.9610 N   0  0  0  0  0  0  0  0  0  0  0  0
   -4.4660   24.5660  -30.8110 C   0  0  0  0  0  0  0  0  0  0  0  0
   -3.8690   25.6740  -30.8590 O   0  0  0  0  0  0  0  0  0  0  0  0
   -4.5250   23.8570  -29.5690 N   0  0  0  0  0  0  0  0  0  0  0  0
   -3.3770   23.4390  -28.8170 C   0  0  0  0  0  0  0  0  0  0  0  0
   -3.3630   22.1510  -28.2850 C   0  0  0  0  0  0  0  0  0  0  0  0
   -2.2710   21.7040  -27.5480 C   0  0  0  0  0  0  0  0  0  0  0  0
   -1.1580   22.5350  -27.3290 C   0  0  0  0  0  0  0  0  0  0  0  0
   -0.0290   21.9900  -26.4950 C   0  0  0  0  0  0  0  0  0  0  0  0
   -1.1660   23.8630  -27.8400 C   0  0  0  0  0  0  0  0  0  0  0  0
    0.2030   24.9900  -27.6010 S   0  0  0  0  0  0  0  0  0  0  0  0
    1.3990   24.4580  -28.3420 O   0  0  0  0  0  0  0  0  0  0  0  0
   -0.1060   26.3320  -28.2060 O   0  0  0  0  0  0  0  0  0  0  0  0
    0.6650   25.1860  -25.9160 N   0  0  0  0  0  0  0  0  0  0  0  0
   -0.4540   24.9690  -24.9830 C   0  0  0  0  0  0  0  0  0  0  0  0
   -1.3190   26.2360  -24.7790 C   0  0  0  0  0  0  0  0  0  0  0  0
   -0.8070   27.3620  -25.4610 O   0  0  0  0  0  0  0  0  0  0  0  0
    0.5400   27.5590  -25.0970 C   0  0  0  0  0  0  0  0  0  0  0  0
    1.4260   26.4200  -25.6340 C   0  0  0  0  0  0  0  0  0  0  0  0
   -2.3040   24.3110  -28.5540 C   0  0  0  0  0  0  0  0  0  0  0  0
   -2.3860   25.6320  -28.9800 O   0  0  0  0  0  0  0  0  0  0  0  0
   -5.7870   21.7180  -32.1900 C   0  0  0  0  0  0  0  0  0  0  0  0
   -6.7450   20.7020  -32.2410 C   0  0  0  0  0  0  0  0  0  0  0  0
   -8.7850   18.6499  -30.5561 H   0  0  0  0  0  0  0  0  0  0  0  0
   -9.5687   17.9542  -32.0150 H   0  0  0  0  0  0  0  0  0  0  0  0
   -7.8030   18.2839  -32.0150 H   0  0  0  0  0  0  0  0  0  0  0  0
   -9.5609   22.5852  -31.7811 H   0  0  0  0  0  0  0  0  0  0  0  0
   -7.8511   24.3992  -31.6981 H   0  0  0  0  0  0  0  0  0  0  0  0
   -4.2215   21.4831  -28.4490 H   0  0  0  0  0  0  0  0  0  0  0  0
   -2.2783   20.6862  -27.1307 H   0  0  0  0  0  0  0  0  0  0  0  0
   -0.2714   22.1070  -25.4284 H   0  0  0  0  0  0  0  0  0  0  0  0
    0.1141   20.9236  -26.7236 H   0  0  0  0  0  0  0  0  0  0  0  0
    0.8950   22.5413  -26.7236 H   0  0  0  0  0  0  0  0  0  0  0  0
   -1.0933   24.1674  -25.3813 H   0  0  0  0  0  0  0  0  0  0  0  0
   -0.0240   24.7008  -24.0067 H   0  0  0  0  0  0  0  0  0  0  0  0
   -2.3345   26.0321  -25.1495 H   0  0  0  0  0  0  0  0  0  0  0  0
   -1.3170   26.4697  -23.7041 H   0  0  0  0  0  0  0  0  0  0  0  0
    0.8898   28.5148  -25.5142 H   0  0  0  0  0  0  0  0  0  0  0  0
    0.6095   27.5709  -23.9993 H   0  0  0  0  0  0  0  0  0  0  0  0
    1.9058   26.7572  -26.5646 H   0  0  0  0  0  0  0  0  0  0  0  0
    2.1660   26.1817  -24.8558 H   0  0  0  0  0  0  0  0  0  0  0  0
   -4.7232   21.4720  -32.3238 H   0  0  0  0  0  0  0  0  0  0  0  0
   -6.4286   19.6606  -32.4002 H   0  0  0  0  0  0  0  0  0  0  0  0
  1  2  1  0
  2  3  1  0
  3  4  2  0
  4  5  1  0
  5  6  2  0
  6  7  1  0
  7  8  1  0
  8  9  2  0
  8 10  1  0
 10 11  1  0
 11 12  2  0
 12 13  1  0
 13 14  2  0
 14 15  1  0
 14 16  1  0
 16 17  1  0
 17 18  2  0
 17 19  2  0
 17 20  1  0
 20 21  1  0
 21 22  1  0
 22 23  1  0
 23 24  1  0
 24 25  1  0
 16 26  2  0
 26 27  1  0
  6 28  1  0
 28 29  2  0
 29  3  1  0
 26 11  1  0
 25 20  1  0
  1 30  1  0
  1 31  1  0
  1 32  1  0
  4 33  1  0
  5 34  1  0
 12 35  1  0
 13 36  1  0
 15 37  1  0
 15 38  1  0
 15 39  1  0
 21 40  1  0
 21 41  1  0
 22 42  1  0
 22 43  1  0
 24 44  1  0
 24 45  1  0
 25 46  1  0
 25 47  1  0
 28 48  1  0
 29 49  1  0
M  CHG  3   7  -1  10  -1  27  -1
M  END
>  <UniqueID>  (39) 
38

>  <SMILES>  (39) 
COc1ccc([N-]C(=O)[N-]c2ccc(C)c(S(=O)(=O)N3CCOCC3)c2[O-])cc1

>  <Energy>  (39) 
72.89725940713963

>  <Genealogy>  (39) 
COc1ccc([N-]C(=O)[N-]c2ccc(C)c(S(=O)(=O)N3CCOCC3)c2[O-])cc1 (protonated)
COc1ccc([N-]C(=O)[N-]c2ccc(C)c(S(=O)(=O)N3CCOCC3)c2[O-])cc1 (3D coordinates assigned)
COc1ccc([N-]C(=O)[N-]c2ccc(C)c(S(=O)(=O)N3CCOCC3)c2[O-])cc1 (nonaromatic ring conformer: 72.89725940713963 kcal/mol)

>  <smiles>  (39) 
COc1ccc(NC(=O)Nc2ccc(C)c(S(=O)(=O)N3CCOCC3)c2O)cc1

>  <score_type>  (39) 
oracle

>  <origin>  (39) 
adgpu

>  <m_score__min__energy>  (39) 
-14.84

>  <m_primary>  (39) 
energy

$$$$
39:0
     RDKit          3D

 27 28  0  0  0  0  0  0  0  0999 V2000
   -4.5250   21.2690  -32.8980 C   0  0  0  0  0  0  0  0  0  0  0  0
   -5.8680   21.6400  -32.3350 C   0  0  0  0  0  0  0  0  0  0  0  0
   -6.9180   20.7070  -32.3510 C   0  0  0  0  0  0  0  0  0  0  0  0
   -8.1730   21.0450  -31.8380 C   0  0  0  0  0  0  0  0  0  0  0  0
   -8.3930   22.3190  -31.3150 C   0  0  0  0  0  0  0  0  0  0  0  0
   -7.3580   23.2550  -31.2900 C   0  0  0  0  0  0  0  0  0  0  0  0
   -6.0810   22.9200  -31.7790 C   0  0  0  0  0  0  0  0  0  0  0  0
   -5.0110   23.8790  -31.7890 N   0  0  0  0  0  0  0  0  0  0  0  0
   -4.3460   24.4280  -30.6460 C   0  0  0  0  0  0  0  0  0  0  0  0
   -4.2070   25.6750  -30.5150 O   0  0  0  0  0  0  0  0  0  0  0  0
   -3.8200   23.5090  -29.5910 C   0  0  0  0  0  0  0  0  0  0  0  0
   -2.1400   22.9380  -30.0200 S   0  0  0  0  0  0  0  0  0  0  0  0
   -1.3040   24.2650  -29.1550 C   0  0  0  0  0  0  0  0  0  0  0  0
   -1.8610   25.4680  -28.9180 N   0  0  0  0  0  0  0  0  0  0  0  0
   -0.8750   26.0990  -28.2500 C   0  0  0  0  0  0  0  0  0  0  0  0
    0.2140   25.3250  -28.0950 N   0  0  0  0  0  0  0  0  0  0  0  0
   -0.0560   24.1660  -28.6670 N   0  0  0  0  0  0  0  0  0  0  0  0
   -3.8228   21.0750  -32.0738 H   0  0  0  0  0  0  0  0  0  0  0  0
   -4.6237   20.3645  -33.5161 H   0  0  0  0  0  0  0  0  0  0  0  0
   -4.1454   22.0959  -33.5161 H   0  0  0  0  0  0  0  0  0  0  0  0
   -6.7512   19.7038  -32.7701 H   0  0  0  0  0  0  0  0  0  0  0  0
   -8.9877   20.3060  -31.8467 H   0  0  0  0  0  0  0  0  0  0  0  0
   -9.3846   22.5868  -30.9213 H   0  0  0  0  0  0  0  0  0  0  0  0
   -7.5413   24.2614  -30.8855 H   0  0  0  0  0  0  0  0  0  0  0  0
   -3.7864   24.0429  -28.6298 H   0  0  0  0  0  0  0  0  0  0  0  0
   -4.4844   22.6355  -29.5166 H   0  0  0  0  0  0  0  0  0  0  0  0
   -0.9522   27.1299  -27.8742 H   0  0  0  0  0  0  0  0  0  0  0  0
  1  2  1  0
  2  3  2  0
  3  4  1  0
  4  5  2  0
  5  6  1  0
  6  7  2  0
  7  8  1  0
  8  9  1  0
  9 10  2  0
  9 11  1  0
 11 12  1  0
 12 13  1  0
 13 14  1  0
 14 15  2  0
 15 16  1  0
 16 17  1  0
  7  2  1  0
 17 13  2  0
  1 18  1  0
  1 19  1  0
  1 20  1  0
  3 21  1  0
  4 22  1  0
  5 23  1  0
  6 24  1  0
 11 25  1  0
 11 26  1  0
 15 27  1  0
M  CHG  2   8  -1  16  -1
M  END
>  <UniqueID>  (40) 
39

>  <SMILES>  (40) 
Cc1ccccc1[N-]C(=O)CSc1nc[n-]n1

>  <Energy>  (40) 
56.96839273671206

>  <Genealogy>  (40) 
Cc1ccccc1[N-]C(=O)CSc1nc[n-]n1 (protonated)
Cc1ccccc1[N-]C(=O)CSc1nc[n-]n1 (3D coordinates assigned)
Cc1ccccc1[N-]C(=O)CSc1nc[n-]n1 (optimized conformer: 56.96839273671206 kcal/mol)

>  <smiles>  (40) 
Cc1ccccc1NC(=O)CSc1nc[nH]n1

>  <score_type>  (40) 
oracle

>  <origin>  (40) 
adgpu

>  <m_score__min__energy>  (40) 
-8.9900000000000002

>  <m_primary>  (40) 
energy

$$$$
40:0
     RDKit          3D

 30 31  0  0  0  0  0  0  0  0999 V2000
   -5.7560   16.2130  -33.8210 C   0  0  0  0  0  0  0  0  0  0  0  0
   -6.3770   17.4810  -33.3280 C   0  0  0  0  0  0  0  0  0  0  0  0
   -7.6200   17.4550  -32.7810 N   0  0  0  0  0  0  0  0  0  0  0  0
   -8.2240   18.5920  -32.3520 C   0  0  0  0  0  0  0  0  0  0  0  0
   -9.3780   18.5250  -31.8490 O   0  0  0  0  0  0  0  0  0  0  0  0
   -7.5630   19.8220  -32.4700 C   0  0  0  0  0  0  0  0  0  0  0  0
   -8.1880   21.0370  -32.0010 C   0  0  0  0  0  0  0  0  0  0  0  0
   -8.6880   22.0110  -31.6260 N   0  0  0  0  0  0  0  0  0  0  0  0
   -6.2740   19.8360  -33.0320 C   0  0  0  0  0  0  0  0  0  0  0  0
   -5.5620   21.0770  -33.1970 N   0  0  0  0  0  0  0  0  0  0  0  0
   -5.0350   21.8480  -32.1040 C   0  0  0  0  0  0  0  0  0  0  0  0
   -3.9420   21.3580  -31.3790 C   0  0  0  0  0  0  0  0  0  0  0  0
   -3.3990   22.0970  -30.3270 C   0  0  0  0  0  0  0  0  0  0  0  0
   -3.9330   23.3540  -29.9810 C   0  0  0  0  0  0  0  0  0  0  0  0
   -3.3410   24.1520  -28.8380 C   0  0  0  0  0  0  0  0  0  0  0  0
   -2.4000   23.4210  -28.1330 F   0  0  0  0  0  0  0  0  0  0  0  0
   -4.3450   24.5240  -27.9620 F   0  0  0  0  0  0  0  0  0  0  0  0
   -2.7260   25.2870  -29.3350 F   0  0  0  0  0  0  0  0  0  0  0  0
   -5.0200   23.8600  -30.7290 C   0  0  0  0  0  0  0  0  0  0  0  0
   -5.7350   25.4320  -30.3840 Cl  0  0  0  0  0  0  0  0  0  0  0  0
   -5.5570   23.1110  -31.7830 C   0  0  0  0  0  0  0  0  0  0  0  0
   -5.7180   18.6660  -33.4650 N   0  0  0  0  0  0  0  0  0  0  0  0
   -5.4534   15.5951  -32.9628 H   0  0  0  0  0  0  0  0  0  0  0  0
   -6.4855   15.6606  -34.4314 H   0  0  0  0  0  0  0  0  0  0  0  0
   -4.8723   16.4507  -34.4314 H   0  0  0  0  0  0  0  0  0  0  0  0
   -5.3990   21.4280  -34.1680 H   0  0  0  0  0  0  0  0  0  0  0  0
   -3.5075   20.3820  -31.6409 H   0  0  0  0  0  0  0  0  0  0  0  0
   -2.5454   21.6940  -29.7622 H   0  0  0  0  0  0  0  0  0  0  0  0
   -6.3971   23.5166  -32.3659 H   0  0  0  0  0  0  0  0  0  0  0  0
   -4.7820   18.6760  -33.9270 H   0  0  0  0  0  0  0  0  0  0  0  0
  1  2  1  0
  2  3  2  0
  3  4  1  0
  4  5  2  0
  4  6  1  0
  6  7  1  0
  7  8  3  0
  6  9  2  0
  9 10  1  0
 10 11  1  0
 11 12  2  0
 12 13  1  0
 13 14  2  0
 14 15  1  0
 15 16  1  0
 15 17  1  0
 15 18  1  0
 14 19  1  0
 19 20  1  0
 19 21  2  0
  9 22  1  0
 22  2  1  0
 21 11  1  0
  1 23  1  0
  1 24  1  0
  1 25  1  0
 10 26  1  0
 12 27  1  0
 13 28  1  0
 21 29  1  0
 22 30  1  0
M  END
>  <UniqueID>  (41) 
40

>  <SMILES>  (41) 
Cc1nc(=O)c(C#N)c(Nc2ccc(C(F)(F)F)c(Cl)c2)[nH]1

>  <Energy>  (41) 
37.944931745324155

>  <Genealogy>  (41) 
Cc1nc(=O)c(C#N)c(Nc2ccc(C(F)(F)F)c(Cl)c2)[nH]1 (3D coordinates assigned)
Cc1nc(=O)c(C#N)c(Nc2ccc(C(F)(F)F)c(Cl)c2)[nH]1 (optimized conformer: 37.944931745324155 kcal/mol)

>  <smiles>  (41) 
Cc1nc(=O)c(C#N)c(Nc2ccc(C(F)(F)F)c(Cl)c2)[nH]1

>  <score_type>  (41) 
oracle

>  <origin>  (41) 
adgpu

>  <m_score__min__energy>  (41) 
-7.2199999999999998

>  <m_primary>  (41) 
energy

$$$$
41:0
     RDKit          3D

 53 56  0  0  0  0  0  0  0  0999 V2000
   -5.7380   25.2100  -30.6530 C   0  0  0  0  0  0  0  0  0  0  0  0
   -5.8550   23.9930  -29.7240 C   0  0  0  0  0  0  0  0  0  0  0  0
   -5.2470   22.7630  -30.2920 N   0  0  2  0  0  0  0  0  0  0  0  0
   -4.1250   22.2320  -29.4680 C   0  0  0  0  0  0  0  0  0  0  0  0
   -3.3080   23.3020  -28.7660 C   0  0  0  0  0  0  0  0  0  0  0  0
   -3.6550   23.7380  -27.4740 C   0  0  0  0  0  0  0  0  0  0  0  0
   -2.9000   24.7260  -26.8350 C   0  0  0  0  0  0  0  0  0  0  0  0
   -1.7870   25.2790  -27.4700 C   0  0  0  0  0  0  0  0  0  0  0  0
   -1.4200   24.8390  -28.7450 C   0  0  0  0  0  0  0  0  0  0  0  0
   -2.1720   23.8510  -29.3880 C   0  0  0  0  0  0  0  0  0  0  0  0
   -4.8170   22.9580  -31.7040 C   0  0  0  0  0  0  0  0  0  0  0  0
   -4.7050   21.6580  -32.4750 C   0  0  0  0  0  0  0  0  0  0  0  0
   -5.7440   20.8080  -32.8800 C   0  0  0  0  0  0  0  0  0  0  0  0
   -7.1900   20.9080  -32.5620 C   0  0  0  0  0  0  0  0  0  0  0  0
   -8.0640   19.8110  -32.6810 C   0  0  0  0  0  0  0  0  0  0  0  0
   -9.4200   19.9470  -32.3690 C   0  0  0  0  0  0  0  0  0  0  0  0
   -9.9190   21.1730  -31.9230 C   0  0  0  0  0  0  0  0  0  0  0  0
   -9.0590   22.2640  -31.7820 C   0  0  0  0  0  0  0  0  0  0  0  0
   -7.7020   22.1320  -32.0950 C   0  0  0  0  0  0  0  0  0  0  0  0
   -5.2200   19.7010  -33.4600 N   0  0  0  0  0  0  0  0  0  0  0  0
   -3.8890   19.8940  -33.3990 C   0  0  0  0  0  0  0  0  0  0  0  0
   -2.9200   18.9910  -33.8320 C   0  0  0  0  0  0  0  0  0  0  0  0
   -3.3580   17.4760  -34.6020 Cl  0  0  0  0  0  0  0  0  0  0  0  0
   -1.5750   19.3180  -33.6100 C   0  0  0  0  0  0  0  0  0  0  0  0
   -1.2250   20.5260  -32.9660 C   0  0  0  0  0  0  0  0  0  0  0  0
    0.2160   20.8460  -32.6610 C   0  0  0  0  0  0  0  0  0  0  0  0
    0.9550   19.6830  -32.5180 F   0  0  0  0  0  0  0  0  0  0  0  0
    0.7760   21.5930  -33.6830 F   0  0  0  0  0  0  0  0  0  0  0  0
    0.2840   21.5690  -31.4840 F   0  0  0  0  0  0  0  0  0  0  0  0
   -2.2550   21.3800  -32.5240 C   0  0  0  0  0  0  0  0  0  0  0  0
   -3.5470   21.0440  -32.7940 N   0  0  0  0  0  0  0  0  0  0  0  0
   -5.6500   26.1252  -30.0491 H   0  0  0  0  0  0  0  0  0  0  0  0
   -4.8461   25.1024  -31.2877 H   0  0  0  0  0  0  0  0  0  0  0  0
   -6.6341   25.2743  -31.2877 H   0  0  0  0  0  0  0  0  0  0  0  0
   -5.3492   24.2272  -28.7757 H   0  0  0  0  0  0  0  0  0  0  0  0
   -6.9271   23.7921  -29.5818 H   0  0  0  0  0  0  0  0  0  0  0  0
   -5.9970   22.0340  -30.2820 H   0  0  0  0  0  0  0  0  0  0  0  0
   -4.5454   21.5619  -28.7036 H   0  0  0  0  0  0  0  0  0  0  0  0
   -3.4424   21.7153  -30.1587 H   0  0  0  0  0  0  0  0  0  0  0  0
   -4.5251   23.2991  -26.9639 H   0  0  0  0  0  0  0  0  0  0  0  0
   -3.1840   25.0685  -25.8290 H   0  0  0  0  0  0  0  0  0  0  0  0
   -1.1988   26.0608  -26.9673 H   0  0  0  0  0  0  0  0  0  0  0  0
   -0.5390   25.2703  -29.2428 H   0  0  0  0  0  0  0  0  0  0  0  0
   -1.8732   23.5007  -30.3870 H   0  0  0  0  0  0  0  0  0  0  0  0
   -5.5523   23.6022  -32.2083 H   0  0  0  0  0  0  0  0  0  0  0  0
   -3.8165   23.4146  -31.6827 H   0  0  0  0  0  0  0  0  0  0  0  0
   -7.6772   18.8394  -33.0221 H   0  0  0  0  0  0  0  0  0  0  0  0
  -10.0961   19.0858  -32.4751 H   0  0  0  0  0  0  0  0  0  0  0  0
  -10.9873   21.2788  -31.6833 H   0  0  0  0  0  0  0  0  0  0  0  0
   -9.4490   23.2284  -31.4244 H   0  0  0  0  0  0  0  0  0  0  0  0
   -7.0289   22.9937  -31.9748 H   0  0  0  0  0  0  0  0  0  0  0  0
   -0.7848   18.6277  -33.9402 H   0  0  0  0  0  0  0  0  0  0  0  0
   -2.0199   22.3013  -31.9709 H   0  0  0  0  0  0  0  0  0  0  0  0
  1  2  1  0
  2  3  1  0
  3  4  1  0
  4  5  1  0
  5  6  2  0
  6  7  1  0
  7  8  2  0
  8  9  1  0
  9 10  2  0
  3 11  1  0
 11 12  1  0
 12 13  2  0
 13 14  1  0
 14 15  2  0
 15 16  1  0
 16 17  2  0
 17 18  1  0
 18 19  2  0
 13 20  1  0
 20 21  2  0
 21 22  1  0
 22 23  1  0
 22 24  2  0
 24 25  1  0
 25 26  1  0
 26 27  1  0
 26 28  1  0
 26 29  1  0
 25 30  2  0
 30 31  1  0
 10  5  1  0
 31 12  1  0
 19 14  1  0
 31 21  1  0
  1 32  1  0
  1 33  1  0
  1 34  1  0
  2 35  1  0
  2 36  1  0
  3 37  1  6
  4 38  1  0
  4 39  1  0
  6 40  1  0
  7 41  1  0
  8 42  1  0
  9 43  1  0
 10 44  1  0
 11 45  1  0
 11 46  1  0
 15 47  1  0
 16 48  1  0
 17 49  1  0
 18 50  1  0
 19 51  1  0
 24 52  1  0
 30 53  1  0
M  CHG  1   3   1
M  END
>  <UniqueID>  (42) 
41

>  <SMILES>  (42) 
CC[N@H+](Cc1ccccc1)Cc1c(-c2ccccc2)nc2c(Cl)cc(C(F)(F)F)cn12

>  <Energy>  (42) 
103.171178861351

>  <Genealogy>  (42) 
CC[NH+](Cc1ccccc1)Cc1c(-c2ccccc2)nc2c(Cl)cc(C(F)(F)F)cn12 (protonated)
CC[N@H+](Cc1ccccc1)Cc1c(-c2ccccc2)nc2c(Cl)cc(C(F)(F)F)cn12 (chirality)
CC[N@H+](Cc1ccccc1)Cc1c(-c2ccccc2)nc2c(Cl)cc(C(F)(F)F)cn12 (3D coordinates assigned)
CC[N@H+](Cc1ccccc1)Cc1c(-c2ccccc2)nc2c(Cl)cc(C(F)(F)F)cn12 (optimized conformer: 103.171178861351 kcal/mol)

>  <smiles>  (42) 
CCN(Cc1ccccc1)Cc1c(-c2ccccc2)nc2c(Cl)cc(C(F)(F)F)cn12

>  <score_type>  (42) 
oracle

>  <origin>  (42) 
adgpu

>  <m_score__min__energy>  (42) 
-7.9500000000000002

>  <m_primary>  (42) 
energy

$$$$
42:0
     RDKit          3D

 40 42  0  0  0  0  0  0  0  0999 V2000
   -1.2430   25.4170  -29.1770 O   0  0  0  0  0  0  0  0  0  0  0  0
   -2.4730   24.5560  -29.1540 S   0  0  0  0  0  0  0  0  0  0  0  0
   -3.1970   24.7690  -27.8530 O   0  0  0  0  0  0  0  0  0  0  0  0
   -3.5150   25.0180  -30.4620 N   0  0  0  0  0  0  0  0  0  0  0  0
   -4.7240   24.3430  -30.8340 C   0  0  0  0  0  0  0  0  0  0  0  0
   -4.6300   23.1610  -31.5770 C   0  0  0  0  0  0  0  0  0  0  0  0
   -5.7820   22.4700  -31.9580 C   0  0  0  0  0  0  0  0  0  0  0  0
   -7.0500   22.9490  -31.6070 C   0  0  0  0  0  0  0  0  0  0  0  0
   -8.1750   22.2200  -32.0220 O   0  0  0  0  0  0  0  0  0  0  0  0
   -8.5810   20.9560  -31.4940 C   0  0  0  0  0  0  0  0  0  0  0  0
   -7.8330   19.8280  -32.1580 C   0  0  0  0  0  0  0  0  0  0  0  0
   -7.0820   20.0600  -33.3220 C   0  0  0  0  0  0  0  0  0  0  0  0
   -6.3990   19.0070  -33.9400 C   0  0  0  0  0  0  0  0  0  0  0  0
   -6.4720   17.7170  -33.4090 C   0  0  0  0  0  0  0  0  0  0  0  0
   -7.2300   17.4760  -32.2590 C   0  0  0  0  0  0  0  0  0  0  0  0
   -7.9140   18.5260  -31.6380 C   0  0  0  0  0  0  0  0  0  0  0  0
   -7.1470   24.1360  -30.8550 C   0  0  0  0  0  0  0  0  0  0  0  0
   -5.9940   24.8270  -30.4750 C   0  0  0  0  0  0  0  0  0  0  0  0
   -1.9950   22.8710  -29.3300 C   0  0  0  0  0  0  0  0  0  0  0  0
   -1.2820   22.4500  -30.4620 C   0  0  0  0  0  0  0  0  0  0  0  0
   -0.8940   21.1120  -30.5900 C   0  0  0  0  0  0  0  0  0  0  0  0
   -1.2200   20.1890  -29.5910 C   0  0  0  0  0  0  0  0  0  0  0  0
   -1.9370   20.6040  -28.4640 C   0  0  0  0  0  0  0  0  0  0  0  0
   -2.3250   21.9410  -28.3340 C   0  0  0  0  0  0  0  0  0  0  0  0
   -3.6412   22.7733  -31.8631 H   0  0  0  0  0  0  0  0  0  0  0  0
   -5.6925   21.5405  -32.5394 H   0  0  0  0  0  0  0  0  0  0  0  0
   -8.3776   20.9355  -30.4132 H   0  0  0  0  0  0  0  0  0  0  0  0
   -9.6561   20.8248  -31.6862 H   0  0  0  0  0  0  0  0  0  0  0  0
   -7.0307   21.0725  -33.7489 H   0  0  0  0  0  0  0  0  0  0  0  0
   -5.8035   19.1952  -34.8455 H   0  0  0  0  0  0  0  0  0  0  0  0
   -5.9331   16.8907  -33.8956 H   0  0  0  0  0  0  0  0  0  0  0  0
   -7.2884   16.4596  -31.8424 H   0  0  0  0  0  0  0  0  0  0  0  0
   -8.5175   18.3313  -30.7392 H   0  0  0  0  0  0  0  0  0  0  0  0
   -8.1359   24.5209  -30.5654 H   0  0  0  0  0  0  0  0  0  0  0  0
   -6.0804   25.7554  -29.8914 H   0  0  0  0  0  0  0  0  0  0  0  0
   -1.0274   23.1733  -31.2507 H   0  0  0  0  0  0  0  0  0  0  0  0
   -0.3319   20.7855  -31.4774 H   0  0  0  0  0  0  0  0  0  0  0  0
   -0.9128   19.1376  -29.6915 H   0  0  0  0  0  0  0  0  0  0  0  0
   -2.1958   19.8779  -27.6793 H   0  0  0  0  0  0  0  0  0  0  0  0
   -2.8908   22.2641  -27.4477 H   0  0  0  0  0  0  0  0  0  0  0  0
  1  2  2  0
  2  3  2  0
  2  4  1  0
  4  5  1  0
  5  6  2  0
  6  7  1  0
  7  8  2  0
  8  9  1  0
  9 10  1  0
 10 11  1  0
 11 12  2  0
 12 13  1  0
 13 14  2  0
 14 15  1  0
 15 16  2  0
  8 17  1  0
 17 18  2  0
  2 19  1  0
 19 20  2  0
 20 21  1  0
 21 22  2  0
 22 23  1  0
 23 24  2  0
 18  5  1  0
 24 19  1  0
 16 11  1  0
  6 25  1  0
  7 26  1  0
 10 27  1  0
 10 28  1  0
 12 29  1  0
 13 30  1  0
 14 31  1  0
 15 32  1  0
 16 33  1  0
 17 34  1  0
 18 35  1  0
 20 36  1  0
 21 37  1  0
 22 38  1  0
 23 39  1  0
 24 40  1  0
M  CHG  1   4  -1
M  END
>  <UniqueID>  (43) 
42

>  <SMILES>  (43) 
O=S(=O)([N-]c1ccc(OCc2ccccc2)cc1)c1ccccc1

>  <Energy>  (43) 
45.47127183663382

>  <Genealogy>  (43) 
O=S(=O)([N-]c1ccc(OCc2ccccc2)cc1)c1ccccc1 (protonated)
O=S(=O)([N-]c1ccc(OCc2ccccc2)cc1)c1ccccc1 (3D coordinates assigned)
O=S(=O)([N-]c1ccc(OCc2ccccc2)cc1)c1ccccc1 (optimized conformer: 45.47127183663382 kcal/mol)

>  <smiles>  (43) 
O=S(=O)(Nc1ccc(OCc2ccccc2)cc1)c1ccccc1

>  <score_type>  (43) 
oracle

>  <origin>  (43) 
adgpu

>  <m_score__min__energy>  (43) 
-10.140000000000001

>  <m_primary>  (43) 
energy

$$$$
43:0
     RDKit          3D

 39 42  0  0  0  0  0  0  0  0999 V2000
   -4.6387   22.1564  -27.7315 H   0  0  0  0  0  0  0  0  0  0  0  0
   -3.8060   22.2770  -28.4400 C   0  0  0  0  0  0  0  0  0  0  0  0
   -2.7820   21.4150  -28.3530 C   0  0  0  0  0  0  0  0  0  0  0  0
   -2.8050   20.0260  -27.2250 S   0  0  0  0  0  0  0  0  0  0  0  0
   -1.2020   19.5460  -27.9010 C   0  0  0  0  0  0  0  0  0  0  0  0
   -0.5040   18.3970  -27.3990 N   0  0  0  0  0  0  0  0  0  0  0  0
   -0.7520   18.0660  -26.4390 H   0  0  0  0  0  0  0  0  0  0  0  0
    0.4970   17.6720  -28.1340 C   0  0  0  0  0  0  0  0  0  0  0  0
    1.5610   17.0310  -27.4730 C   0  0  0  0  0  0  0  0  0  0  0  0
    1.6217   17.0621  -26.3751 H   0  0  0  0  0  0  0  0  0  0  0  0
    2.5410   16.3550  -28.2050 C   0  0  0  0  0  0  0  0  0  0  0  0
    3.3635   15.8456  -27.6815 H   0  0  0  0  0  0  0  0  0  0  0  0
    2.4780   16.3250  -29.6010 C   0  0  0  0  0  0  0  0  0  0  0  0
    3.2471   15.7879  -30.1755 H   0  0  0  0  0  0  0  0  0  0  0  0
    1.4370   16.9780  -30.2660 C   0  0  0  0  0  0  0  0  0  0  0  0
    1.3912   16.9588  -31.3649 H   0  0  0  0  0  0  0  0  0  0  0  0
    0.4530   17.6560  -29.5390 C   0  0  0  0  0  0  0  0  0  0  0  0
   -0.5510   18.2840  -30.2000 F   0  0  0  0  0  0  0  0  0  0  0  0
   -0.6750   20.3540  -28.7690 N   0  0  0  0  0  0  0  0  0  0  0  0
    0.2810   20.2380  -29.1740 H   0  0  0  0  0  0  0  0  0  0  0  0
   -1.5120   21.4540  -29.0710 C   0  0  0  0  0  0  0  0  0  0  0  0
   -1.1390   22.3880  -29.8280 O   0  0  0  0  0  0  0  0  0  0  0  0
   -3.8920   23.3750  -29.4200 C   0  0  0  0  0  0  0  0  0  0  0  0
   -4.7240   23.4840  -30.5220 C   0  0  0  0  0  0  0  0  0  0  0  0
   -5.7740   22.5430  -30.9600 C   0  0  0  0  0  0  0  0  0  0  0  0
   -7.1210   22.7460  -30.6180 C   0  0  0  0  0  0  0  0  0  0  0  0
   -7.4081   23.6234  -30.0198 H   0  0  0  0  0  0  0  0  0  0  0  0
   -8.0990   21.8370  -31.0350 C   0  0  0  0  0  0  0  0  0  0  0  0
   -9.1537   22.0071  -30.7729 H   0  0  0  0  0  0  0  0  0  0  0  0
   -7.7390   20.7130  -31.7840 C   0  0  0  0  0  0  0  0  0  0  0  0
   -9.0770   19.4730  -32.3500 Br  0  0  0  0  0  0  0  0  0  0  0  0
   -6.3980   20.4920  -32.1090 C   0  0  0  0  0  0  0  0  0  0  0  0
   -6.1131   19.6046  -32.6933 H   0  0  0  0  0  0  0  0  0  0  0  0
   -5.4180   21.3980  -31.6920 C   0  0  0  0  0  0  0  0  0  0  0  0
   -4.3621   21.2131  -31.9386 H   0  0  0  0  0  0  0  0  0  0  0  0
   -4.4960   24.6660  -31.1280 N   0  0  0  0  0  0  0  0  0  0  0  0
   -3.5280   25.2950  -30.4780 N   0  0  0  0  0  0  0  0  0  0  0  0
   -3.1390   24.5310  -29.4400 C   0  0  0  0  0  0  0  0  0  0  0  0
   -2.3465   24.7877  -28.7217 H   0  0  0  0  0  0  0  0  0  0  0  0
  1  2  1  0
  2  3  2  0
  3  4  1  0
  4  5  1  0
  5  6  1  0
  6  7  1  0
  6  8  1  0
  8  9  2  0
  9 10  1  0
  9 11  1  0
 11 12  1  0
 11 13  2  0
 13 14  1  0
 13 15  1  0
 15 16  1  0
 15 17  2  0
 17 18  1  0
  5 19  2  0
 19 20  1  0
 19 21  1  0
 21 22  2  0
  2 23  1  0
 23 24  1  0
 24 25  1  0
 25 26  2  0
 26 27  1  0
 26 28  1  0
 28 29  1  0
 28 30  2  0
 30 31  1  0
 30 32  1  0
 32 33  1  0
 32 34  2  0
 34 35  1  0
 24 36  2  0
 36 37  1  0
 37 38  1  0
 38 39  1  0
 21  3  1  0
 38 23  2  0
 17  8  1  0
 34 25  1  0
M  CHG  2  19   1  37  -1
M  END
>  <UniqueID>  (44) 
43

>  <SMILES>  (44) 
O=C1[NH+]=C(Nc2ccccc2F)S/C1=C/c1c[n-]nc1-c1ccc(Br)cc1

>  <Energy>  (44) 
109.28779925283091

>  <Genealogy>  (44) 
O=C1[NH+]=C(Nc2ccccc2F)SC1=Cc1c[n-]nc1-c1ccc(Br)cc1 (protonated)
O=C1[NH+]=C(Nc2ccccc2F)S/C1=C/c1c[n-]nc1-c1ccc(Br)cc1 (cis-trans isomerization)
O=C1[NH+]=C(Nc2ccccc2F)S/C1=C/c1c[n-]nc1-c1ccc(Br)cc1 (3D coordinates assigned)
O=C1[NH+]=C(Nc2ccccc2F)S/C1=C/c1c[n-]nc1-c1ccc(Br)cc1 (nonaromatic ring conformer: 109.28779925283091 kcal/mol)

>  <smiles>  (44) 
O=C1N=C(Nc2ccccc2F)SC1=Cc1c[nH]nc1-c1ccc(Br)cc1

>  <score_type>  (44) 
oracle

>  <origin>  (44) 
adgpu

>  <m_score__min__energy>  (44) 
-10.91

>  <m_primary>  (44) 
energy

$$$$
44:0
     RDKit          3D

 35 37  0  0  0  0  0  0  0  0999 V2000
   -6.1410   25.8900  -29.9650 O   0  0  0  0  0  0  0  0  0  0  0  0
   -5.2820   25.2580  -30.6390 C   0  0  0  0  0  0  0  0  0  0  0  0
   -3.9040   25.3030  -30.2660 N   0  0  0  0  0  0  0  0  0  0  0  0
   -2.9960   24.1790  -30.4590 C   0  0  0  0  0  0  0  0  0  0  0  0
   -2.2190   23.9300  -29.1840 C   0  0  0  0  0  0  0  0  0  0  0  0
   -1.3720   24.9420  -28.6810 C   0  0  0  0  0  0  0  0  0  0  0  0
   -1.2400   26.1580  -29.3440 O   0  0  0  0  0  0  0  0  0  0  0  0
   -0.6470   24.7420  -27.5060 C   0  0  0  0  0  0  0  0  0  0  0  0
   -0.7360   23.5380  -26.8140 C   0  0  0  0  0  0  0  0  0  0  0  0
   -1.5480   22.5040  -27.2980 C   0  0  0  0  0  0  0  0  0  0  0  0
   -1.6160   21.2880  -26.6000 C   0  0  0  0  0  0  0  0  0  0  0  0
   -2.4090   20.2450  -27.0780 C   0  0  0  0  0  0  0  0  0  0  0  0
   -2.4940   18.5930  -26.1240 Br  0  0  0  0  0  0  0  0  0  0  0  0
   -3.1380   20.4060  -28.2580 C   0  0  0  0  0  0  0  0  0  0  0  0
   -3.0820   21.6100  -28.9630 C   0  0  0  0  0  0  0  0  0  0  0  0
   -2.2930   22.6850  -28.4950 C   0  0  0  0  0  0  0  0  0  0  0  0
   -5.6620   24.5320  -31.8130 N   0  0  0  0  0  0  0  0  0  0  0  0
   -6.3740   23.2860  -31.8540 C   0  0  0  0  0  0  0  0  0  0  0  0
   -5.7580   22.0850  -32.2530 C   0  0  0  0  0  0  0  0  0  0  0  0
   -6.4960   20.8980  -32.3000 C   0  0  0  0  0  0  0  0  0  0  0  0
   -7.8540   20.9020  -31.9650 C   0  0  0  0  0  0  0  0  0  0  0  0
   -8.7780   19.4120  -32.0280 Cl  0  0  0  0  0  0  0  0  0  0  0  0
   -8.4760   22.0970  -31.5910 C   0  0  0  0  0  0  0  0  0  0  0  0
   -7.7400   23.2850  -31.5440 C   0  0  0  0  0  0  0  0  0  0  0  0
   -3.5755   23.2801  -30.7162 H   0  0  0  0  0  0  0  0  0  0  0  0
   -2.2954   24.4109  -31.2747 H   0  0  0  0  0  0  0  0  0  0  0  0
    0.0013   25.5438  -27.1228 H   0  0  0  0  0  0  0  0  0  0  0  0
   -0.1666   23.3976  -25.8834 H   0  0  0  0  0  0  0  0  0  0  0  0
   -1.0410   21.1571  -25.6714 H   0  0  0  0  0  0  0  0  0  0  0  0
   -3.7596   19.5801  -28.6341 H   0  0  0  0  0  0  0  0  0  0  0  0
   -3.6584   21.7230  -29.8930 H   0  0  0  0  0  0  0  0  0  0  0  0
   -4.6931   22.0800  -32.5286 H   0  0  0  0  0  0  0  0  0  0  0  0
   -6.0076   19.9595  -32.6010 H   0  0  0  0  0  0  0  0  0  0  0  0
   -9.5454   22.1026  -31.3335 H   0  0  0  0  0  0  0  0  0  0  0  0
   -8.2370   24.2249  -31.2618 H   0  0  0  0  0  0  0  0  0  0  0  0
  1  2  2  0
  2  3  1  0
  3  4  1  0
  4  5  1  0
  5  6  2  0
  6  7  1  0
  6  8  1  0
  8  9  2  0
  9 10  1  0
 10 11  2  0
 11 12  1  0
 12 13  1  0
 12 14  2  0
 14 15  1  0
 15 16  2  0
  2 17  1  0
 17 18  1  0
 18 19  2  0
 19 20  1  0
 20 21  2  0
 21 22  1  0
 21 23  1  0
 23 24  2  0
 16  5  1  0
 24 18  1  0
 16 10  1  0
  4 25  1  0
  4 26  1  0
  8 27  1  0
  9 28  1  0
 11 29  1  0
 14 30  1  0
 15 31  1  0
 19 32  1  0
 20 33  1  0
 23 34  1  0
 24 35  1  0
M  CHG  3   3  -1   7  -1  17  -1
M  END
>  <UniqueID>  (45) 
44

>  <SMILES>  (45) 
O=C([N-]Cc1c([O-])ccc2cc(Br)ccc12)[N-]c1ccc(Cl)cc1

>  <Energy>  (45) 
45.26372308577957

>  <Genealogy>  (45) 
O=C([N-]Cc1c([O-])ccc2cc(Br)ccc12)[N-]c1ccc(Cl)cc1 (protonated)
O=C([N-]Cc1c([O-])ccc2cc(Br)ccc12)[N-]c1ccc(Cl)cc1 (3D coordinates assigned)
O=C([N-]Cc1c([O-])ccc2cc(Br)ccc12)[N-]c1ccc(Cl)cc1 (optimized conformer: 45.26372308577957 kcal/mol)

>  <smiles>  (45) 
O=C(NCc1c(O)ccc2cc(Br)ccc12)Nc1ccc(Cl)cc1

>  <score_type>  (45) 
oracle

>  <origin>  (45) 
adgpu

>  <m_score__min__energy>  (45) 
-13.9

>  <m_primary>  (45) 
energy

$$$$
45:0
     RDKit          3D

 57 59  0  0  0  0  0  0  0  0999 V2000
   -9.8530   21.5570  -31.3000 C   0  0  0  0  0  0  0  0  0  0  0  0
   -8.5980   21.4640  -30.6350 O   0  0  0  0  0  0  0  0  0  0  0  0
   -7.3950   22.0070  -31.1150 C   0  0  0  0  0  0  0  0  0  0  0  0
   -6.8710   23.2130  -30.6050 C   0  0  0  0  0  0  0  0  0  0  0  0
   -5.6800   23.7550  -31.1160 C   0  0  0  0  0  0  0  0  0  0  0  0
   -5.1300   25.0200  -30.5760 C   0  0  0  0  0  0  0  0  0  0  0  0
   -5.9050   25.9290  -30.1770 O   0  0  0  0  0  0  0  0  0  0  0  0
   -3.7220   25.2330  -30.5070 N   0  0  0  0  0  0  0  0  0  0  0  0
   -2.7790   24.5520  -29.2260 S   0  0  0  0  0  0  0  0  0  0  0  0
   -3.6220   24.5110  -27.9830 O   0  0  0  0  0  0  0  0  0  0  0  0
   -1.5930   25.4310  -28.9440 O   0  0  0  0  0  0  0  0  0  0  0  0
   -2.2830   22.9010  -29.6430 C   0  0  0  0  0  0  0  0  0  0  0  0
   -2.2350   22.5600  -31.0050 C   0  0  0  0  0  0  0  0  0  0  0  0
   -1.8660   21.2760  -31.4050 C   0  0  0  0  0  0  0  0  0  0  0  0
   -1.5270   20.3180  -30.4530 C   0  0  0  0  0  0  0  0  0  0  0  0
   -1.5500   20.6420  -29.0950 C   0  0  0  0  0  0  0  0  0  0  0  0
   -1.9130   21.9340  -28.6720 C   0  0  0  0  0  0  0  0  0  0  0  0
   -1.9530   22.2140  -27.1930 C   0  0  0  0  0  0  0  0  0  0  0  0
   -5.0110   23.0810  -32.1470 C   0  0  0  0  0  0  0  0  0  0  0  0
   -5.5130   21.8820  -32.6500 C   0  0  0  0  0  0  0  0  0  0  0  0
   -6.6990   21.3320  -32.1400 C   0  0  0  0  0  0  0  0  0  0  0  0
   -7.2120   20.0450  -32.7360 C   0  0  0  0  0  0  0  0  0  0  0  0
   -6.3980   19.6490  -33.8410 O   0  0  0  0  0  0  0  0  0  0  0  0
   -5.2510   18.8430  -33.7600 C   0  0  0  0  0  0  0  0  0  0  0  0
   -3.9490   19.3690  -33.8270 C   0  0  0  0  0  0  0  0  0  0  0  0
   -2.8460   18.5240  -33.7060 C   0  0  0  0  0  0  0  0  0  0  0  0
   -3.0250   17.1490  -33.5480 C   0  0  0  0  0  0  0  0  0  0  0  0
   -4.3200   16.5940  -33.4910 C   0  0  0  0  0  0  0  0  0  0  0  0
   -4.5100   15.1630  -33.3310 N   0  0  0  0  0  0  0  0  0  0  0  0
   -4.5740   14.5640  -31.9930 C   0  0  0  0  0  0  0  0  0  0  0  0
   -4.6500   14.2930  -34.5060 C   0  0  0  0  0  0  0  0  0  0  0  0
   -5.4250   17.4640  -33.5910 C   0  0  0  0  0  0  0  0  0  0  0  0
  -10.6595   21.6168  -30.5544 H   0  0  0  0  0  0  0  0  0  0  0  0
   -9.8683   22.4587  -31.9298 H   0  0  0  0  0  0  0  0  0  0  0  0
  -10.0011   20.6674  -31.9298 H   0  0  0  0  0  0  0  0  0  0  0  0
   -7.4021   23.7362  -29.7962 H   0  0  0  0  0  0  0  0  0  0  0  0
   -2.4912   23.3138  -31.7640 H   0  0  0  0  0  0  0  0  0  0  0  0
   -1.8427   21.0195  -32.4744 H   0  0  0  0  0  0  0  0  0  0  0  0
   -1.2407   19.3047  -30.7712 H   0  0  0  0  0  0  0  0  0  0  0  0
   -1.2817   19.8798  -28.3486 H   0  0  0  0  0  0  0  0  0  0  0  0
   -1.8187   21.2738  -26.6381 H   0  0  0  0  0  0  0  0  0  0  0  0
   -1.1456   22.9134  -26.9303 H   0  0  0  0  0  0  0  0  0  0  0  0
   -2.9239   22.6594  -26.9303 H   0  0  0  0  0  0  0  0  0  0  0  0
   -4.0831   23.5014  -32.5621 H   0  0  0  0  0  0  0  0  0  0  0  0
   -4.9739   21.3614  -33.4552 H   0  0  0  0  0  0  0  0  0  0  0  0
   -7.1907   19.2566  -31.9692 H   0  0  0  0  0  0  0  0  0  0  0  0
   -8.2420   20.2009  -33.0892 H   0  0  0  0  0  0  0  0  0  0  0  0
   -3.7999   20.4487  -33.9751 H   0  0  0  0  0  0  0  0  0  0  0  0
   -1.8296   18.9436  -33.7353 H   0  0  0  0  0  0  0  0  0  0  0  0
   -2.1469   16.4915  -33.4671 H   0  0  0  0  0  0  0  0  0  0  0  0
   -4.4895   15.3546  -31.2329 H   0  0  0  0  0  0  0  0  0  0  0  0
   -5.5333   14.0396  -31.8715 H   0  0  0  0  0  0  0  0  0  0  0  0
   -3.7472   13.8487  -31.8715 H   0  0  0  0  0  0  0  0  0  0  0  0
   -4.8168   13.2567  -34.1771 H   0  0  0  0  0  0  0  0  0  0  0  0
   -5.5058   14.6281  -35.1105 H   0  0  0  0  0  0  0  0  0  0  0  0
   -3.7323   14.3427  -35.1105 H   0  0  0  0  0  0  0  0  0  0  0  0
   -6.4432   17.0515  -33.5352 H   0  0  0  0  0  0  0  0  0  0  0  0
  1  2  1  0
  2  3  1  0
  3  4  2  0
  4  5  1  0
  5  6  1  0
  6  7  2  0
  6  8  1  0
  8  9  1  0
  9 10  2  0
  9 11  2  0
  9 12  1  0
 12 13  2  0
 13 14  1  0
 14 15  2  0
 15 16  1  0
 16 17  2  0
 17 18  1  0
  5 19  2  0
 19 20  1  0
 20 21  2  0
 21 22  1  0
 22 23  1  0
 23 24  1  0
 24 25  2  0
 25 26  1  0
 26 27  2  0
 27 28  1  0
 28 29  1  0
 29 30  1  0
 29 31  1  0
 28 32  2  0
 21  3  1  0
 32 24  1  0
 17 12  1  0
  1 33  1  0
  1 34  1  0
  1 35  1  0
  4 36  1  0
 13 37  1  0
 14 38  1  0
 15 39  1  0
 16 40  1  0
 18 41  1  0
 18 42  1  0
 18 43  1  0
 19 44  1  0
 20 45  1  0
 22 46  1  0
 22 47  1  0
 25 48  1  0
 26 49  1  0
 27 50  1  0
 30 51  1  0
 30 52  1  0
 30 53  1  0
 31 54  1  0
 31 55  1  0
 31 56  1  0
 32 57  1  0
M  CHG  1   8  -1
M  END
>  <UniqueID>  (46) 
45

>  <SMILES>  (46) 
COc1cc(C(=O)[N-]S(=O)(=O)c2ccccc2C)ccc1COc1cccc(N(C)C)c1

>  <Energy>  (46) 
67.99578683835738

>  <Genealogy>  (46) 
COc1cc(C(=O)[N-]S(=O)(=O)c2ccccc2C)ccc1COc1cccc(N(C)C)c1 (protonated)
COc1cc(C(=O)[N-]S(=O)(=O)c2ccccc2C)ccc1COc1cccc(N(C)C)c1 (3D coordinates assigned)
COc1cc(C(=O)[N-]S(=O)(=O)c2ccccc2C)ccc1COc1cccc(N(C)C)c1 (optimized conformer: 67.99578683835738 kcal/mol)

>  <smiles>  (46) 
COc1cc(C(=O)NS(=O)(=O)c2ccccc2C)ccc1COc1cccc(N(C)C)c1

>  <score_type>  (46) 
oracle

>  <origin>  (46) 
adgpu

>  <m_score__min__energy>  (46) 
-11.050000000000001

>  <m_primary>  (46) 
energy

$$$$
46:0
     RDKit          3D

 45 47  0  0  0  0  0  0  0  0999 V2000
    0.3718   22.3583  -26.8717 H   0  0  0  0  0  0  0  0  0  0  0  0
    0.7390   23.3940  -26.9210 C   0  0  0  0  0  0  0  0  0  0  0  0
    2.1090   23.6390  -27.0480 C   0  0  0  0  0  0  0  0  0  0  0  0
    2.8129   22.7955  -27.1043 H   0  0  0  0  0  0  0  0  0  0  0  0
    2.5910   24.9550  -27.1040 C   0  0  0  0  0  0  0  0  0  0  0  0
    4.0640   25.2200  -27.1990 C   0  0  0  0  0  0  0  0  0  0  0  0
    4.4888   25.2964  -26.1872 H   0  0  0  0  0  0  0  0  0  0  0  0
    4.5508   24.3950  -27.7397 H   0  0  0  0  0  0  0  0  0  0  0  0
    4.2328   26.1629  -27.7397 H   0  0  0  0  0  0  0  0  0  0  0  0
    1.6890   26.0220  -26.9890 C   0  0  0  0  0  0  0  0  0  0  0  0
    2.0619   27.0568  -26.9972 H   0  0  0  0  0  0  0  0  0  0  0  0
    0.3180   25.7780  -26.8640 C   0  0  0  0  0  0  0  0  0  0  0  0
   -0.3822   26.6213  -26.7715 H   0  0  0  0  0  0  0  0  0  0  0  0
   -0.1700   24.4580  -26.8560 C   0  0  0  0  0  0  0  0  0  0  0  0
   -1.5680   24.1600  -26.6990 N   0  0  0  0  0  0  0  0  0  0  0  0
   -2.5100   24.3730  -27.5690 C   0  0  0  0  0  0  0  0  0  0  0  0
   -2.2980   24.8340  -28.8240 N   0  0  0  0  0  0  0  0  0  0  0  0
   -3.4620   24.9110  -29.5220 C   0  0  0  0  0  0  0  0  0  0  0  0
   -3.4940   25.3520  -30.8380 O   0  0  0  0  0  0  0  0  0  0  0  0
   -4.6000   24.5130  -28.8260 C   0  0  0  0  0  0  0  0  0  0  0  0
   -5.9920   24.4250  -29.3680 C   0  0  0  0  0  0  0  0  0  0  0  0
   -6.1786   25.2811  -30.0330 H   0  0  0  0  0  0  0  0  0  0  0  0
   -6.7063   24.4391  -28.5316 H   0  0  0  0  0  0  0  0  0  0  0  0
   -6.1630   23.1530  -30.1380 C   0  0  0  0  0  0  0  0  0  0  0  0
   -7.0900   22.3600  -29.8200 O   0  0  0  0  0  0  0  0  0  0  0  0
   -5.2230   22.8040  -31.1670 N   0  0  0  0  0  0  0  0  0  0  0  0
   -4.3300   23.3460  -31.2120 H   0  0  0  0  0  0  0  0  0  0  0  0
   -5.3710   21.6770  -32.0460 C   0  0  0  0  0  0  0  0  0  0  0  0
   -6.6380   21.2370  -32.4690 C   0  0  0  0  0  0  0  0  0  0  0  0
   -7.5427   21.7508  -32.1119 H   0  0  0  0  0  0  0  0  0  0  0  0
   -6.7540   20.1500  -33.3410 C   0  0  0  0  0  0  0  0  0  0  0  0
   -7.7494   19.8116  -33.6646 H   0  0  0  0  0  0  0  0  0  0  0  0
   -5.6070   19.4890  -33.8050 C   0  0  0  0  0  0  0  0  0  0  0  0
   -5.7320   18.3390  -34.7690 C   0  0  0  0  0  0  0  0  0  0  0  0
   -4.7443   18.1221  -35.2018 H   0  0  0  0  0  0  0  0  0  0  0  0
   -6.4435   18.6176  -35.5603 H   0  0  0  0  0  0  0  0  0  0  0  0
   -6.2520   17.0930  -34.0600 C   0  0  0  0  0  0  0  0  0  0  0  0
   -6.1913   17.2384  -32.9713 H   0  0  0  0  0  0  0  0  0  0  0  0
   -7.2987   16.9168  -34.3486 H   0  0  0  0  0  0  0  0  0  0  0  0
   -5.6410   16.2250  -34.3486 H   0  0  0  0  0  0  0  0  0  0  0  0
   -4.3410   19.9490  -33.4120 C   0  0  0  0  0  0  0  0  0  0  0  0
   -3.4358   19.4517  -33.7906 H   0  0  0  0  0  0  0  0  0  0  0  0
   -4.2250   21.0370  -32.5410 C   0  0  0  0  0  0  0  0  0  0  0  0
   -3.2282   21.3934  -32.2420 H   0  0  0  0  0  0  0  0  0  0  0  0
   -4.1280   24.0220  -27.2850 S   0  0  0  0  0  0  0  0  0  0  0  0
  1  2  1  0
  2  3  2  0
  3  4  1  0
  3  5  1  0
  5  6  1  0
  6  7  1  0
  6  8  1  0
  6  9  1  0
  5 10  2  0
 10 11  1  0
 10 12  1  0
 12 13  1  0
 12 14  2  0
 14 15  1  0
 15 16  2  0
 16 17  1  0
 17 18  1  0
 18 19  1  0
 18 20  2  0
 20 21  1  0
 21 22  1  0
 21 23  1  0
 21 24  1  0
 24 25  2  0
 24 26  1  0
 26 27  1  0
 26 28  1  0
 28 29  2  0
 29 30  1  0
 29 31  1  0
 31 32  1  0
 31 33  2  0
 33 34  1  0
 34 35  1  0
 34 36  1  0
 34 37  1  0
 37 38  1  0
 37 39  1  0
 37 40  1  0
 33 41  1  0
 41 42  1  0
 41 43  2  0
 43 44  1  0
 20 45  1  0
 14  2  1  0
 45 16  1  0
 43 28  1  0
M  CHG  2  17  -1  19  -1
M  END
>  <UniqueID>  (47) 
46

>  <SMILES>  (47) 
CCc1ccc(NC(=O)Cc2s/c(=N/c3ccc(C)cc3)[n-]c2[O-])cc1

>  <Energy>  (47) 
79.92030954932457

>  <Genealogy>  (47) 
CCc1ccc(NC(=O)Cc2sc(=Nc3ccc(C)cc3)[n-]c2[O-])cc1 (protonated)
CCc1ccc(NC(=O)Cc2s/c(=N/c3ccc(C)cc3)[n-]c2[O-])cc1 (cis-trans isomerization)
CCc1ccc(NC(=O)Cc2s/c(=N/c3ccc(C)cc3)[n-]c2[O-])cc1 (3D coordinates assigned)
CCc1ccc(NC(=O)Cc2s/c(=N/c3ccc(C)cc3)[n-]c2[O-])cc1 (optimized conformer: 79.92030954932457 kcal/mol)

>  <smiles>  (47) 
CCc1ccc(NC(=O)Cc2sc(=Nc3ccc(C)cc3)[nH]c2O)cc1

>  <score_type>  (47) 
oracle

>  <origin>  (47) 
adgpu

>  <m_score__min__energy>  (47) 
-11.880000000000001

>  <m_primary>  (47) 
energy

$$$$
47:0
     RDKit          3D

 48 50  0  0  0  0  0  0  0  0999 V2000
   -0.8360   26.8300  -27.8320 C   0  0  0  0  0  0  0  0  0  0  0  0
   -1.4100   25.4630  -28.0680 C   0  0  0  0  0  0  0  0  0  0  0  0
   -2.0210   25.2080  -29.2560 N   0  0  0  0  0  0  0  0  0  0  0  0
   -2.5670   23.9990  -29.5480 C   0  0  0  0  0  0  0  0  0  0  0  0
   -3.1840   23.7960  -30.7880 C   0  0  0  0  0  0  0  0  0  0  0  0
   -3.7580   22.5570  -31.1080 C   0  0  0  0  0  0  0  0  0  0  0  0
   -4.3820   22.3880  -32.3970 N   0  0  0  0  0  0  0  0  0  0  0  0
   -3.9320   21.4460  -33.4240 C   0  0  0  0  0  0  0  0  0  0  0  0
   -4.3760   20.0190  -33.0750 C   0  0  0  0  0  0  0  0  0  0  0  0
   -5.6030   19.5120  -33.8700 C   0  0  0  0  0  0  0  0  0  0  0  0
   -6.9540   19.7390  -33.2790 N   0  0  0  0  0  0  0  0  0  0  0  0
   -7.1450   21.0890  -32.6910 C   0  0  0  0  0  0  0  0  0  0  0  0
   -8.4990   21.2390  -31.9540 C   0  0  0  0  0  0  0  0  0  0  0  0
   -9.4910   20.1270  -32.3070 C   0  0  0  0  0  0  0  0  0  0  0  0
   -8.8890   18.7320  -32.0630 C   0  0  0  0  0  0  0  0  0  0  0  0
   -7.3690   18.6760  -32.3350 C   0  0  0  0  0  0  0  0  0  0  0  0
   -3.6950   21.5110  -30.1670 C   0  0  0  0  0  0  0  0  0  0  0  0
   -3.0810   21.7080  -28.9270 C   0  0  0  0  0  0  0  0  0  0  0  0
   -2.5120   22.9510  -28.6040 C   0  0  0  0  0  0  0  0  0  0  0  0
   -1.8850   23.1860  -27.3660 C   0  0  0  0  0  0  0  0  0  0  0  0
   -1.8200   22.2690  -26.5010 O   0  0  0  0  0  0  0  0  0  0  0  0
   -1.3300   24.4490  -27.0920 C   0  0  0  0  0  0  0  0  0  0  0  0
   -0.6850   24.6950  -25.8210 C   0  0  0  0  0  0  0  0  0  0  0  0
   -0.1700   24.8930  -24.8030 N   0  0  0  0  0  0  0  0  0  0  0  0
   -0.7589   27.0136  -26.7502 H   0  0  0  0  0  0  0  0  0  0  0  0
    0.1639   26.8913  -28.2865 H   0  0  0  0  0  0  0  0  0  0  0  0
   -1.4924   27.5867  -28.2865 H   0  0  0  0  0  0  0  0  0  0  0  0
   -3.2190   24.6170  -31.5192 H   0  0  0  0  0  0  0  0  0  0  0  0
   -5.2220   22.9680  -32.6230 H   0  0  0  0  0  0  0  0  0  0  0  0
   -4.3651   21.7331  -34.3935 H   0  0  0  0  0  0  0  0  0  0  0  0
   -2.8336   21.4744  -33.4765 H   0  0  0  0  0  0  0  0  0  0  0  0
   -3.5340   19.3397  -33.2740 H   0  0  0  0  0  0  0  0  0  0  0  0
   -4.6764   20.0366  -32.0170 H   0  0  0  0  0  0  0  0  0  0  0  0
   -5.5863   20.0079  -34.8517 H   0  0  0  0  0  0  0  0  0  0  0  0
   -5.4886   18.4182  -33.8905 H   0  0  0  0  0  0  0  0  0  0  0  0
   -7.6040   19.6720  -34.1000 H   0  0  0  0  0  0  0  0  0  0  0  0
   -6.3323   21.2779  -31.9741 H   0  0  0  0  0  0  0  0  0  0  0  0
   -7.1374   21.8137  -33.5185 H   0  0  0  0  0  0  0  0  0  0  0  0
   -8.3141   21.2144  -30.8699 H   0  0  0  0  0  0  0  0  0  0  0  0
   -8.9447   22.1939  -32.2694 H   0  0  0  0  0  0  0  0  0  0  0  0
  -10.3911   20.2410  -31.6851 H   0  0  0  0  0  0  0  0  0  0  0  0
   -9.7380   20.2129  -33.3755 H   0  0  0  0  0  0  0  0  0  0  0  0
   -9.0684   18.4510  -31.0147 H   0  0  0  0  0  0  0  0  0  0  0  0
   -9.3750   18.0362  -32.7628 H   0  0  0  0  0  0  0  0  0  0  0  0
   -6.8295   18.8087  -31.3856 H   0  0  0  0  0  0  0  0  0  0  0  0
   -7.1312   17.7000  -32.7833 H   0  0  0  0  0  0  0  0  0  0  0  0
   -4.1324   20.5314  -30.4099 H   0  0  0  0  0  0  0  0  0  0  0  0
   -3.0431   20.8841  -28.1991 H   0  0  0  0  0  0  0  0  0  0  0  0
  1  2  1  0
  2  3  1  0
  3  4  1  0
  4  5  2  0
  5  6  1  0
  6  7  1  0
  7  8  1  0
  8  9  1  0
  9 10  1  0
 10 11  1  0
 11 12  1  0
 12 13  1  0
 13 14  1  0
 14 15  1  0
 15 16  1  0
  6 17  2  0
 17 18  1  0
 18 19  2  0
 19 20  1  0
 20 21  2  0
 20 22  1  0
 22 23  1  0
 23 24  3  0
 22  2  2  0
 19  4  1  0
 16 11  1  0
  1 25  1  0
  1 26  1  0
  1 27  1  0
  5 28  1  0
  7 29  1  0
  8 30  1  0
  8 31  1  0
  9 32  1  0
  9 33  1  0
 10 34  1  0
 10 35  1  0
 11 36  1  0
 12 37  1  0
 12 38  1  0
 13 39  1  0
 13 40  1  0
 14 41  1  0
 14 42  1  0
 15 43  1  0
 15 44  1  0
 16 45  1  0
 16 46  1  0
 17 47  1  0
 18 48  1  0
M  CHG  2   3  -1  11   1
M  END
>  <UniqueID>  (48) 
47

>  <SMILES>  (48) 
Cc1[n-]c2cc(NCCC[NH+]3CCCCC3)ccc2c(=O)c1C#N

>  <Energy>  (48) 
64.42613152871922

>  <Genealogy>  (48) 
Cc1[n-]c2cc(NCCC[NH+]3CCCCC3)ccc2c(=O)c1C#N (protonated)
Cc1[n-]c2cc(NCCC[NH+]3CCCCC3)ccc2c(=O)c1C#N (3D coordinates assigned)
Cc1[n-]c2cc(NCCC[NH+]3CCCCC3)ccc2c(=O)c1C#N (nonaromatic ring conformer: 64.42613152871922 kcal/mol)

>  <smiles>  (48) 
Cc1[nH]c2cc(NCCCN3CCCCC3)ccc2c(=O)c1C#N

>  <score_type>  (48) 
oracle

>  <origin>  (48) 
adgpu

>  <m_score__min__energy>  (48) 
-9.7899999999999991

>  <m_primary>  (48) 
energy

$$$$
48:0
     RDKit          3D

 37 38  0  0  0  0  0  0  0  0999 V2000
   -5.9260   18.7520  -34.6180 C   0  0  0  0  0  0  0  0  0  0  0  0
   -6.8270   19.0530  -33.4510 C   0  0  0  0  0  0  0  0  0  0  0  0
   -7.1690   20.3880  -33.1710 C   0  0  0  0  0  0  0  0  0  0  0  0
   -8.0090   20.7030  -32.0920 C   0  0  0  0  0  0  0  0  0  0  0  0
   -8.3330   22.1380  -31.7770 C   0  0  0  0  0  0  0  0  0  0  0  0
   -7.0750   22.8920  -31.4380 C   0  0  0  0  0  0  0  0  0  0  0  0
   -7.1470   24.1370  -30.8000 C   0  0  0  0  0  0  0  0  0  0  0  0
   -5.9800   24.8200  -30.4470 C   0  0  0  0  0  0  0  0  0  0  0  0
   -4.7180   24.2610  -30.7200 C   0  0  0  0  0  0  0  0  0  0  0  0
   -3.4990   24.9330  -30.3700 N   0  0  0  0  0  0  0  0  0  0  0  0
   -2.5160   24.6020  -28.9790 S   0  0  0  0  0  0  0  0  0  0  0  0
   -3.5280   24.0030  -27.6420 C   0  0  0  0  0  0  0  0  0  0  0  0
   -1.7780   25.8430  -28.5630 O   0  0  0  0  0  0  0  0  0  0  0  0
   -1.5150   23.5420  -29.3380 O   0  0  0  0  0  0  0  0  0  0  0  0
   -4.6480   23.0070  -31.3510 C   0  0  0  0  0  0  0  0  0  0  0  0
   -2.9570   22.1940  -31.7370 Br  0  0  0  0  0  0  0  0  0  0  0  0
   -5.8190   22.3280  -31.7030 C   0  0  0  0  0  0  0  0  0  0  0  0
   -8.4940   19.6740  -31.2740 C   0  0  0  0  0  0  0  0  0  0  0  0
   -8.1630   18.3460  -31.5420 C   0  0  0  0  0  0  0  0  0  0  0  0
   -7.3330   18.0200  -32.6260 C   0  0  0  0  0  0  0  0  0  0  0  0
   -7.0150   16.6420  -32.8680 N   0  0  0  0  0  0  0  0  0  0  0  0
   -4.9436   18.4238  -34.2476 H   0  0  0  0  0  0  0  0  0  0  0  0
   -6.3725   17.9542  -35.2297 H   0  0  0  0  0  0  0  0  0  0  0  0
   -5.8033   19.6579  -35.2297 H   0  0  0  0  0  0  0  0  0  0  0  0
   -6.7733   21.1949  -33.8053 H   0  0  0  0  0  0  0  0  0  0  0  0
   -8.8110   22.6031  -32.6517 H   0  0  0  0  0  0  0  0  0  0  0  0
   -9.0151   22.1713  -30.9147 H   0  0  0  0  0  0  0  0  0  0  0  0
   -8.1285   24.5799  -30.5754 H   0  0  0  0  0  0  0  0  0  0  0  0
   -6.0485   25.8004  -29.9528 H   0  0  0  0  0  0  0  0  0  0  0  0
   -3.0663   24.2763  -26.6817 H   0  0  0  0  0  0  0  0  0  0  0  0
   -4.5289   24.4542  -27.7092 H   0  0  0  0  0  0  0  0  0  0  0  0
   -3.6140   22.9084  -27.7092 H   0  0  0  0  0  0  0  0  0  0  0  0
   -5.7541   21.3444  -32.1912 H   0  0  0  0  0  0  0  0  0  0  0  0
   -9.1391   19.9148  -30.4161 H   0  0  0  0  0  0  0  0  0  0  0  0
   -8.5563   17.5461  -30.8975 H   0  0  0  0  0  0  0  0  0  0  0  0
   -6.2420   16.1780  -32.3410 H   0  0  0  0  0  0  0  0  0  0  0  0
   -7.5340   16.0650  -33.5650 H   0  0  0  0  0  0  0  0  0  0  0  0
  1  2  1  0
  2  3  2  0
  3  4  1  0
  4  5  1  0
  5  6  1  0
  6  7  2  0
  7  8  1  0
  8  9  2  0
  9 10  1  0
 10 11  1  0
 11 12  1  0
 11 13  2  0
 11 14  2  0
  9 15  1  0
 15 16  1  0
 15 17  2  0
  4 18  2  0
 18 19  1  0
 19 20  2  0
 20 21  1  0
 20  2  1  0
 17  6  1  0
  1 22  1  0
  1 23  1  0
  1 24  1  0
  3 25  1  0
  5 26  1  0
  5 27  1  0
  7 28  1  0
  8 29  1  0
 12 30  1  0
 12 31  1  0
 12 32  1  0
 17 33  1  0
 18 34  1  0
 19 35  1  0
 21 36  1  0
 21 37  1  0
M  CHG  1  10  -1
M  END
>  <UniqueID>  (49) 
48

>  <SMILES>  (49) 
Cc1cc(Cc2ccc([N-]S(C)(=O)=O)c(Br)c2)ccc1N

>  <Energy>  (49) 
35.02315230660768

>  <Genealogy>  (49) 
Cc1cc(Cc2ccc([N-]S(C)(=O)=O)c(Br)c2)ccc1N (protonated)
Cc1cc(Cc2ccc([N-]S(C)(=O)=O)c(Br)c2)ccc1N (3D coordinates assigned)
Cc1cc(Cc2ccc([N-]S(C)(=O)=O)c(Br)c2)ccc1N (optimized conformer: 35.02315230660768 kcal/mol)

>  <smiles>  (49) 
Cc1cc(Cc2ccc(NS(C)(=O)=O)c(Br)c2)ccc1N

>  <score_type>  (49) 
oracle

>  <origin>  (49) 
adgpu

>  <m_score__min__energy>  (49) 
-10.49

>  <m_primary>  (49) 
energy

$$$$
49:0
     RDKit          3D

 52 54  0  0  0  0  0  0  0  0999 V2000
   -2.7810   16.3300  -34.9970 C   0  0  0  0  0  0  0  0  0  0  0  0
   -4.1850   16.0960  -34.9520 O   0  0  0  0  0  0  0  0  0  0  0  0
   -5.1090   16.9460  -34.3240 C   0  0  0  0  0  0  0  0  0  0  0  0
   -5.2330   18.3080  -34.6590 C   0  0  0  0  0  0  0  0  0  0  0  0
   -6.1710   19.1120  -34.0050 C   0  0  0  0  0  0  0  0  0  0  0  0
   -7.0000   18.5670  -33.0170 C   0  0  0  0  0  0  0  0  0  0  0  0
   -8.1640   19.5870  -32.1810 S   0  0  0  0  0  0  0  0  0  0  0  0
   -8.7100   18.8720  -30.9760 O   0  0  0  0  0  0  0  0  0  0  0  0
   -9.3120   19.9000  -33.1000 O   0  0  0  0  0  0  0  0  0  0  0  0
   -7.3640   21.0690  -31.6710 C   0  0  0  0  0  0  0  0  0  0  0  0
   -8.0740   22.2680  -31.5770 C   0  0  0  0  0  0  0  0  0  0  0  0
   -7.4270   23.4360  -31.1770 C   0  0  0  0  0  0  0  0  0  0  0  0
   -6.0580   23.4270  -30.8630 C   0  0  0  0  0  0  0  0  0  0  0  0
   -5.3010   24.9310  -30.3130 S   0  0  0  0  0  0  0  0  0  0  0  0
   -5.7400   25.2560  -28.6700 N   0  0  0  0  0  0  0  0  0  0  0  0
   -3.8050   24.8110  -30.3950 O   0  0  0  0  0  0  0  0  0  0  0  0
   -5.7310   26.0680  -31.1970 O   0  0  0  0  0  0  0  0  0  0  0  0
   -5.3260   22.2190  -30.9730 C   0  0  0  0  0  0  0  0  0  0  0  0
   -3.9130   22.1790  -30.6840 N   0  0  0  0  0  0  0  0  0  0  0  0
   -3.1310   20.9420  -30.6370 C   0  0  0  0  0  0  0  0  0  0  0  0
   -2.3050   20.7950  -31.8880 C   0  0  0  0  0  0  0  0  0  0  0  0
   -2.8040   20.0960  -32.9990 C   0  0  0  0  0  0  0  0  0  0  0  0
   -2.0130   19.9290  -34.1390 C   0  0  0  0  0  0  0  0  0  0  0  0
   -0.7200   20.4720  -34.1900 C   0  0  0  0  0  0  0  0  0  0  0  0
    0.1440   20.2570  -35.3980 C   0  0  0  0  0  0  0  0  0  0  0  0
   -0.2160   21.1580  -33.0750 C   0  0  0  0  0  0  0  0  0  0  0  0
   -1.0050   21.3230  -31.9340 C   0  0  0  0  0  0  0  0  0  0  0  0
   -5.9950   21.0500  -31.3830 C   0  0  0  0  0  0  0  0  0  0  0  0
   -6.8730   17.2140  -32.6750 C   0  0  0  0  0  0  0  0  0  0  0  0
   -5.9340   16.4100  -33.3270 C   0  0  0  0  0  0  0  0  0  0  0  0
   -2.3872   16.3956  -33.9720 H   0  0  0  0  0  0  0  0  0  0  0  0
   -2.2880   15.5016  -35.5269 H   0  0  0  0  0  0  0  0  0  0  0  0
   -2.5833   17.2735  -35.5269 H   0  0  0  0  0  0  0  0  0  0  0  0
   -4.5891   18.7411  -35.4386 H   0  0  0  0  0  0  0  0  0  0  0  0
   -6.2582   20.1767  -34.2675 H   0  0  0  0  0  0  0  0  0  0  0  0
   -9.1467   22.2907  -31.8193 H   0  0  0  0  0  0  0  0  0  0  0  0
   -7.9949   24.3754  -31.1064 H   0  0  0  0  0  0  0  0  0  0  0  0
   -5.9860   24.3450  -28.2210 H   0  0  0  0  0  0  0  0  0  0  0  0
   -4.8890   25.6150  -28.1810 H   0  0  0  0  0  0  0  0  0  0  0  0
   -3.4160   23.0600  -30.4340 H   0  0  0  0  0  0  0  0  0  0  0  0
   -2.4636   20.9681  -29.7630 H   0  0  0  0  0  0  0  0  0  0  0  0
   -3.8194   20.0874  -30.5615 H   0  0  0  0  0  0  0  0  0  0  0  0
   -3.8213   19.6783  -32.9719 H   0  0  0  0  0  0  0  0  0  0  0  0
   -2.4059   19.3692  -35.0005 H   0  0  0  0  0  0  0  0  0  0  0  0
    1.1652   20.0029  -35.0778 H   0  0  0  0  0  0  0  0  0  0  0  0
   -0.2668   19.4337  -36.0008 H   0  0  0  0  0  0  0  0  0  0  0  0
    0.1669   21.1768  -36.0008 H   0  0  0  0  0  0  0  0  0  0  0  0
    0.8046   21.5677  -33.0992 H   0  0  0  0  0  0  0  0  0  0  0  0
   -0.6055   21.8695  -31.0670 H   0  0  0  0  0  0  0  0  0  0  0  0
   -5.4337   20.1088  -31.4782 H   0  0  0  0  0  0  0  0  0  0  0  0
   -7.5140   16.7837  -31.8914 H   0  0  0  0  0  0  0  0  0  0  0  0
   -5.8421   15.3481  -33.0551 H   0  0  0  0  0  0  0  0  0  0  0  0
  1  2  1  0
  2  3  1  0
  3  4  2  0
  4  5  1  0
  5  6  2  0
  6  7  1  0
  7  8  2  0
  7  9  2  0
  7 10  1  0
 10 11  2  0
 11 12  1  0
 12 13  2  0
 13 14  1  0
 14 15  1  0
 14 16  2  0
 14 17  2  0
 13 18  1  0
 18 19  1  0
 19 20  1  0
 20 21  1  0
 21 22  2  0
 22 23  1  0
 23 24  2  0
 24 25  1  0
 24 26  1  0
 26 27  2  0
 18 28  2  0
  6 29  1  0
 29 30  2  0
 30  3  1  0
 28 10  1  0
 27 21  1  0
  1 31  1  0
  1 32  1  0
  1 33  1  0
  4 34  1  0
  5 35  1  0
 11 36  1  0
 12 37  1  0
 15 38  1  0
 15 39  1  0
 19 40  1  0
 20 41  1  0
 20 42  1  0
 22 43  1  0
 23 44  1  0
 25 45  1  0
 25 46  1  0
 25 47  1  0
 26 48  1  0
 27 49  1  0
 28 50  1  0
 29 51  1  0
 30 52  1  0
M  END
>  <UniqueID>  (50) 
49

>  <SMILES>  (50) 
COc1ccc(S(=O)(=O)c2ccc(S(N)(=O)=O)c(NCc3ccc(C)cc3)c2)cc1

>  <Energy>  (50) 
54.76813178470712

>  <Genealogy>  (50) 
COc1ccc(S(=O)(=O)c2ccc(S(N)(=O)=O)c(NCc3ccc(C)cc3)c2)cc1 (3D coordinates assigned)
COc1ccc(S(=O)(=O)c2ccc(S(N)(=O)=O)c(NCc3ccc(C)cc3)c2)cc1 (optimized conformer: 54.76813178470712 kcal/mol)

>  <smiles>  (50) 
COc1ccc(S(=O)(=O)c2ccc(S(N)(=O)=O)c(NCc3ccc(C)cc3)c2)cc1

>  <score_type>  (50) 
oracle

>  <origin>  (50) 
adgpu

>  <m_score__min__energy>  (50) 
-10.800000000000001

>  <m_primary>  (50) 
energy

$$$$
