0:0
     RDKit          3D

 65 68  0  0  0  0  0  0  0  0999 V2000
   -4.1830   23.7360  -26.9400 C   0  0  0  0  0  0  0  0  0  0  0  0
   -3.3120   22.8790  -27.8190 C   0  0  0  0  0  0  0  0  0  0  0  0
   -3.1170   21.5290  -27.4780 C   0  0  0  0  0  0  0  0  0  0  0  0
   -2.3500   20.6930  -28.2910 C   0  0  0  0  0  0  0  0  0  0  0  0
   -1.7570   21.1910  -29.4550 C   0  0  0  0  0  0  0  0  0  0  0  0
   -0.8130   20.1280  -30.4990 S   0  0  0  0  0  0  0  0  0  0  0  0
   -0.7670   18.7590  -29.8750 O   0  0  0  0  0  0  0  0  0  0  0  0
    0.5950   20.6460  -30.6060 O   0  0  0  0  0  0  0  0  0  0  0  0
   -1.5400   20.0300  -32.0880 N   0  0  0  0  0  0  0  0  0  0  0  0
   -1.2970   18.6850  -32.6640 C   0  0  0  0  0  0  0  0  0  0  0  0
   -1.4610   18.6840  -34.1890 C   0  0  0  0  0  0  0  0  0  0  0  0
   -0.4310   19.6140  -34.8540 C   0  0  0  0  0  0  0  0  0  0  0  0
    0.0300   20.7500  -33.9250 C   0  0  0  0  0  0  0  0  0  0  0  0
   -1.0900   21.1550  -32.9550 C   0  0  0  0  0  0  0  0  0  0  0  0
   -1.9200   22.5400  -29.7870 C   0  0  0  0  0  0  0  0  0  0  0  0
   -2.6920   23.3950  -28.9820 C   0  0  0  0  0  0  0  0  0  0  0  0
   -2.8040   24.8190  -29.3800 C   0  0  0  0  0  0  0  0  0  0  0  0
   -1.9740   25.6620  -28.9510 O   0  0  0  0  0  0  0  0  0  0  0  0
   -3.7900   25.2380  -30.3300 N   0  0  0  0  0  0  0  0  0  0  0  0
   -4.8090   24.3700  -30.8370 C   0  0  0  0  0  0  0  0  0  0  0  0
   -6.1550   24.6960  -30.6380 C   0  0  0  0  0  0  0  0  0  0  0  0
   -7.1580   23.8440  -31.1040 C   0  0  0  0  0  0  0  0  0  0  0  0
   -6.8220   22.6460  -31.7410 C   0  0  0  0  0  0  0  0  0  0  0  0
   -5.4760   22.2940  -31.9260 C   0  0  0  0  0  0  0  0  0  0  0  0
   -5.0580   20.6940  -32.5540 S   0  0  0  0  0  0  0  0  0  0  0  0
   -4.6150   19.8370  -31.4010 O   0  0  0  0  0  0  0  0  0  0  0  0
   -3.8890   20.8320  -33.4900 O   0  0  0  0  0  0  0  0  0  0  0  0
   -6.3790   19.8750  -33.3660 N   0  0  0  0  0  0  0  0  0  0  0  0
   -5.9360   18.7640  -34.2430 C   0  0  0  0  0  0  0  0  0  0  0  0
   -6.5420   17.4020  -33.8710 C   0  0  0  0  0  0  0  0  0  0  0  0
   -6.5260   17.2060  -32.3570 C   0  0  0  0  0  0  0  0  0  0  0  0
   -7.2940   18.3140  -31.6220 C   0  0  0  0  0  0  0  0  0  0  0  0
   -7.5190   19.5690  -32.4810 C   0  0  0  0  0  0  0  0  0  0  0  0
   -4.4710   23.1660  -31.4770 C   0  0  0  0  0  0  0  0  0  0  0  0
   -3.9635   23.5200  -25.8840 H   0  0  0  0  0  0  0  0  0  0  0  0
   -3.9811   24.7973  -27.1468 H   0  0  0  0  0  0  0  0  0  0  0  0
   -5.2409   23.5169  -27.1468 H   0  0  0  0  0  0  0  0  0  0  0  0
   -3.5735   21.1276  -26.5612 H   0  0  0  0  0  0  0  0  0  0  0  0
   -2.2115   19.6374  -28.0146 H   0  0  0  0  0  0  0  0  0  0  0  0
   -2.5720   20.1310  -31.9460 H   0  0  0  0  0  0  0  0  0  0  0  0
   -0.2728   18.3702  -32.4152 H   0  0  0  0  0  0  0  0  0  0  0  0
   -2.0366   17.9906  -32.2387 H   0  0  0  0  0  0  0  0  0  0  0  0
   -1.3178   17.6605  -34.5657 H   0  0  0  0  0  0  0  0  0  0  0  0
   -2.4704   19.0464  -34.4336 H   0  0  0  0  0  0  0  0  0  0  0  0
    0.4469   19.0175  -35.1428 H   0  0  0  0  0  0  0  0  0  0  0  0
   -0.9149   20.0750  -35.7277 H   0  0  0  0  0  0  0  0  0  0  0  0
    0.9019   20.4105  -33.3465 H   0  0  0  0  0  0  0  0  0  0  0  0
    0.2931   21.6224  -34.5412 H   0  0  0  0  0  0  0  0  0  0  0  0
   -0.7209   21.9678  -32.3122 H   0  0  0  0  0  0  0  0  0  0  0  0
   -1.9526   21.4715  -33.5598 H   0  0  0  0  0  0  0  0  0  0  0  0
   -1.4367   22.9376  -30.6917 H   0  0  0  0  0  0  0  0  0  0  0  0
   -6.4233   25.6250  -30.1136 H   0  0  0  0  0  0  0  0  0  0  0  0
   -8.2153   24.1161  -30.9696 H   0  0  0  0  0  0  0  0  0  0  0  0
   -7.6169   21.9754  -32.0993 H   0  0  0  0  0  0  0  0  0  0  0  0
   -6.2256   19.0018  -35.2772 H   0  0  0  0  0  0  0  0  0  0  0  0
   -4.8464   18.6743  -34.1213 H   0  0  0  0  0  0  0  0  0  0  0  0
   -7.5805   17.3572  -34.2310 H   0  0  0  0  0  0  0  0  0  0  0  0
   -5.9440   16.6064  -34.3394 H   0  0  0  0  0  0  0  0  0  0  0  0
   -6.9889   16.2367  -32.1201 H   0  0  0  0  0  0  0  0  0  0  0  0
   -5.4787   17.2411  -32.0224 H   0  0  0  0  0  0  0  0  0  0  0  0
   -8.2744   17.9176  -31.3190 H   0  0  0  0  0  0  0  0  0  0  0  0
   -6.6843   18.6153  -30.7575 H   0  0  0  0  0  0  0  0  0  0  0  0
   -8.4129   19.4124  -33.1026 H   0  0  0  0  0  0  0  0  0  0  0  0
   -7.6396   20.4199  -31.7944 H   0  0  0  0  0  0  0  0  0  0  0  0
   -3.4131   22.9048  -31.6273 H   0  0  0  0  0  0  0  0  0  0  0  0
  1  2  1  0
  2  3  2  0
  3  4  1  0
  4  5  2  0
  5  6  1  0
  6  7  2  0
  6  8  2  0
  6  9  1  0
  9 10  1  0
 10 11  1  0
 11 12  1  0
 12 13  1  0
 13 14  1  0
  5 15  1  0
 15 16  2  0
 16 17  1  0
 17 18  2  0
 17 19  1  0
 19 20  1  0
 20 21  2  0
 21 22  1  0
 22 23  2  0
 23 24  1  0
 24 25  1  0
 25 26  2  0
 25 27  2  0
 25 28  1  0
 28 29  1  0
 29 30  1  0
 30 31  1  0
 31 32  1  0
 32 33  1  0
 24 34  2  0
 16  2  1  0
 34 20  1  0
 14  9  1  0
 33 28  1  0
  1 35  1  0
  1 36  1  0
  1 37  1  0
  3 38  1  0
  4 39  1  0
  9 40  1  0
 10 41  1  0
 10 42  1  0
 11 43  1  0
 11 44  1  0
 12 45  1  0
 12 46  1  0
 13 47  1  0
 13 48  1  0
 14 49  1  0
 14 50  1  0
 15 51  1  0
 21 52  1  0
 22 53  1  0
 23 54  1  0
 29 55  1  0
 29 56  1  0
 30 57  1  0
 30 58  1  0
 31 59  1  0
 31 60  1  0
 32 61  1  0
 32 62  1  0
 33 63  1  0
 33 64  1  0
 34 65  1  0
M  CHG  2   9   1  19  -1
M  END
>  <UniqueID>  (1) 
1

>  <SMILES>  (1) 
Cc1ccc(S(=O)(=O)[NH+]2CCCCC2)cc1C(=O)[N-]c1cccc(S(=O)(=O)N2CCCCC2)c1

>  <Energy>  (1) 
81.70838284943551

>  <Genealogy>  (1) 
Cc1ccc(S(=O)(=O)[NH+]2CCCCC2)cc1C(=O)[N-]c1cccc(S(=O)(=O)N2CCCCC2)c1 (protonated)
Cc1ccc(S(=O)(=O)[NH+]2CCCCC2)cc1C(=O)[N-]c1cccc(S(=O)(=O)N2CCCCC2)c1 (3D coordinates assigned)
Cc1ccc(S(=O)(=O)[NH+]2CCCCC2)cc1C(=O)[N-]c1cccc(S(=O)(=O)N2CCCCC2)c1 (nonaromatic ring conformer: 81.70838284943551 kcal/mol)

>  <smiles>  (1) 
Cc1ccc(S(=O)(=O)N2CCCCC2)cc1C(=O)Nc1cccc(S(=O)(=O)N2CCCCC2)c1

>  <score_type>  (1) 
oracle

>  <origin>  (1) 
adgpu

>  <m_score__min__energy>  (1) 
-12.109999999999999

>  <m_primary>  (1) 
energy

$$$$
1:0
     RDKit          3D

 51 53  0  0  0  0  0  0  0  0999 V2000
   -0.0559   25.4090  -28.4411 H   0  0  0  0  0  0  0  0  0  0  0  0
   -0.9620   24.8000  -28.5760 C   0  0  0  0  0  0  0  0  0  0  0  0
   -1.9770   25.2580  -29.3430 N   0  0  0  0  0  0  0  0  0  0  0  0
   -3.1250   24.5590  -29.5180 C   0  0  0  0  0  0  0  0  0  0  0  0
   -4.0250   25.0680  -30.3190 N   0  0  0  0  0  0  0  0  0  0  0  0
   -5.3170   24.5200  -30.7450 C   0  0  0  0  0  0  0  0  0  0  0  0
   -5.9491   24.3626  -29.8586 H   0  0  0  0  0  0  0  0  0  0  0  0
   -5.7863   25.2356  -31.4361 H   0  0  0  0  0  0  0  0  0  0  0  0
   -5.1450   23.2030  -31.4670 C   0  0  0  0  0  0  0  0  0  0  0  0
   -3.8700   22.8130  -31.9170 C   0  0  0  0  0  0  0  0  0  0  0  0
   -3.0044   23.4695  -31.7444 H   0  0  0  0  0  0  0  0  0  0  0  0
   -3.6980   21.5980  -32.5810 C   0  0  0  0  0  0  0  0  0  0  0  0
   -2.6959   21.2917  -32.9156 H   0  0  0  0  0  0  0  0  0  0  0  0
   -4.7960   20.7710  -32.8210 C   0  0  0  0  0  0  0  0  0  0  0  0
   -4.6552   19.8086  -33.3348 H   0  0  0  0  0  0  0  0  0  0  0  0
   -6.0740   21.1610  -32.4110 C   0  0  0  0  0  0  0  0  0  0  0  0
   -7.1950   20.2870  -32.6510 C   0  0  0  0  0  0  0  0  0  0  0  0
   -8.0900   19.5770  -32.8420 N   0  0  0  0  0  0  0  0  0  0  0  0
   -6.2570   22.3830  -31.7490 C   0  0  0  0  0  0  0  0  0  0  0  0
   -7.5040   22.7610  -31.3650 F   0  0  0  0  0  0  0  0  0  0  0  0
   -3.2680   23.3210  -28.8420 C   0  0  0  0  0  0  0  0  0  0  0  0
   -4.3500   22.6760  -28.9160 O   0  0  0  0  0  0  0  0  0  0  0  0
   -2.2290   22.8210  -28.0880 N   0  0  0  0  0  0  0  0  0  0  0  0
   -2.3470   21.4660  -27.5060 C   0  0  0  0  0  0  0  0  0  0  0  0
   -1.7477   21.4112  -26.5852 H   0  0  0  0  0  0  0  0  0  0  0  0
   -3.4030   21.2619  -27.2754 H   0  0  0  0  0  0  0  0  0  0  0  0
   -1.8490   20.4440  -28.4850 C   0  0  0  0  0  0  0  0  0  0  0  0
   -1.4740   19.3130  -28.0690 O   0  0  0  0  0  0  0  0  0  0  0  0
   -1.8220   20.7460  -29.8910 N   0  0  0  0  0  0  0  0  0  0  0  0
   -2.5390   21.4100  -30.2630 H   0  0  0  0  0  0  0  0  0  0  0  0
   -0.8970   20.1470  -30.8150 C   0  0  0  0  0  0  0  0  0  0  0  0
   -0.0970   19.0760  -30.3860 C   0  0  0  0  0  0  0  0  0  0  0  0
   -0.1809   18.7096  -29.3522 H   0  0  0  0  0  0  0  0  0  0  0  0
    0.8060   18.4730  -31.2670 C   0  0  0  0  0  0  0  0  0  0  0  0
    1.4380   17.6422  -30.9201 H   0  0  0  0  0  0  0  0  0  0  0  0
    0.9090   18.9230  -32.5900 C   0  0  0  0  0  0  0  0  0  0  0  0
    1.6330   18.4554  -33.2736 H   0  0  0  0  0  0  0  0  0  0  0  0
    0.0900   19.9700  -33.0460 C   0  0  0  0  0  0  0  0  0  0  0  0
    0.1980   20.4610  -34.4700 C   0  0  0  0  0  0  0  0  0  0  0  0
    1.2276   20.3087  -34.8259 H   0  0  0  0  0  0  0  0  0  0  0  0
   -0.5120   19.8948  -35.0908 H   0  0  0  0  0  0  0  0  0  0  0  0
   -0.1350   21.8860  -34.5610 N   0  0  0  0  0  0  0  0  0  0  0  0
    0.5120   22.3460  -35.2480 H   0  0  0  0  0  0  0  0  0  0  0  0
   -1.1110   21.9790  -34.9330 H   0  0  0  0  0  0  0  0  0  0  0  0
   -0.8080   20.5820  -32.1530 C   0  0  0  0  0  0  0  0  0  0  0  0
   -1.4464   21.4072  -32.5017 H   0  0  0  0  0  0  0  0  0  0  0  0
   -1.0650   23.5510  -27.9540 C   0  0  0  0  0  0  0  0  0  0  0  0
    0.1020   23.0650  -27.1290 C   0  0  0  0  0  0  0  0  0  0  0  0
   -0.1378   23.1649  -26.0601 H   0  0  0  0  0  0  0  0  0  0  0  0
    0.3018   22.0089  -27.3629 H   0  0  0  0  0  0  0  0  0  0  0  0
    0.9924   23.6671  -27.3629 H   0  0  0  0  0  0  0  0  0  0  0  0
  1  2  1  0
  2  3  1  0
  3  4  1  0
  4  5  2  0
  5  6  1  0
  6  7  1  0
  6  8  1  0
  6  9  1  0
  9 10  2  0
 10 11  1  0
 10 12  1  0
 12 13  1  0
 12 14  2  0
 14 15  1  0
 14 16  1  0
 16 17  1  0
 17 18  3  0
 16 19  2  0
 19 20  1  0
  4 21  1  0
 21 22  2  0
 21 23  1  0
 23 24  1  0
 24 25  1  0
 24 26  1  0
 24 27  1  0
 27 28  2  0
 27 29  1  0
 29 30  1  0
 29 31  1  0
 31 32  2  0
 32 33  1  0
 32 34  1  0
 34 35  1  0
 34 36  2  0
 36 37  1  0
 36 38  1  0
 38 39  1  0
 39 40  1  0
 39 41  1  0
 39 42  1  0
 42 43  1  0
 42 44  1  0
 38 45  2  0
 45 46  1  0
 23 47  1  0
 47 48  1  0
 48 49  1  0
 48 50  1  0
 48 51  1  0
 47  2  2  0
 19  9  1  0
 45 31  1  0
M  CHG  1   3  -1
M  END
>  <UniqueID>  (2) 
2

>  <SMILES>  (2) 
Cc1c[n-]/c(=N/Cc2cccc(C#N)c2F)c(=O)n1CC(=O)Nc1cccc(CN)c1

>  <Energy>  (2) 
62.56985924572506

>  <Genealogy>  (2) 
Cc1c[n-]c(=NCc2cccc(C#N)c2F)c(=O)n1CC(=O)Nc1cccc(CN)c1 (protonated)
Cc1c[n-]/c(=N/Cc2cccc(C#N)c2F)c(=O)n1CC(=O)Nc1cccc(CN)c1 (cis-trans isomerization)
Cc1c[n-]/c(=N/Cc2cccc(C#N)c2F)c(=O)n1CC(=O)Nc1cccc(CN)c1 (3D coordinates assigned)
Cc1c[n-]/c(=N/Cc2cccc(C#N)c2F)c(=O)n1CC(=O)Nc1cccc(CN)c1 (optimized conformer: 62.56985924572506 kcal/mol)

>  <smiles>  (2) 
Cc1c[nH]c(=NCc2cccc(C#N)c2F)c(=O)n1CC(=O)Nc1cccc(CN)c1

>  <score_type>  (2) 
oracle

>  <origin>  (2) 
adgpu

>  <m_score__min__energy>  (2) 
-10.25

>  <m_primary>  (2) 
energy

$$$$
2:0
     RDKit          3D

 44 47  0  0  0  0  0  0  0  0999 V2000
   -6.7895   23.8952  -29.5179 H   0  0  0  0  0  0  0  0  0  0  0  0
   -6.1770   23.4130  -30.2940 C   0  0  0  0  0  0  0  0  0  0  0  0
   -6.7200   23.1190  -31.5480 C   0  0  0  0  0  0  0  0  0  0  0  0
   -8.1560   23.4180  -31.8450 C   0  0  0  0  0  0  0  0  0  0  0  0
   -8.7093   23.5332  -30.9013 H   0  0  0  0  0  0  0  0  0  0  0  0
   -8.2240   24.3496  -32.4260 H   0  0  0  0  0  0  0  0  0  0  0  0
   -8.5902   22.5910  -32.4260 H   0  0  0  0  0  0  0  0  0  0  0  0
   -5.9470   22.5180  -32.4900 N   0  0  0  0  0  0  0  0  0  0  0  0
   -4.6500   22.2030  -32.2420 C   0  0  0  0  0  0  0  0  0  0  0  0
   -3.9360   21.6720  -33.1920 N   0  0  0  0  0  0  0  0  0  0  0  0
   -2.5780   21.2290  -33.0670 C   0  0  0  0  0  0  0  0  0  0  0  0
   -1.7550   21.6990  -32.0330 C   0  0  0  0  0  0  0  0  0  0  0  0
   -2.1436   22.4398  -31.3187 H   0  0  0  0  0  0  0  0  0  0  0  0
   -0.4450   21.2320  -31.9050 C   0  0  0  0  0  0  0  0  0  0  0  0
    0.1984   21.6197  -31.1014 H   0  0  0  0  0  0  0  0  0  0  0  0
    0.0560   20.2670  -32.8000 C   0  0  0  0  0  0  0  0  0  0  0  0
    1.4020   19.7660  -32.6980 N   0  0  0  0  0  0  0  0  0  0  0  0
    2.1160   20.0930  -33.3880 H   0  0  0  0  0  0  0  0  0  0  0  0
    1.8360   18.8220  -31.6740 C   0  0  0  0  0  0  0  0  0  0  0  0
    1.6410   19.2462  -30.6780 H   0  0  0  0  0  0  0  0  0  0  0  0
    1.2811   17.8788  -31.7859 H   0  0  0  0  0  0  0  0  0  0  0  0
    2.9132   18.6292  -31.7859 H   0  0  0  0  0  0  0  0  0  0  0  0
   -0.7850   19.7760  -33.8110 C   0  0  0  0  0  0  0  0  0  0  0  0
   -0.4092   19.0152  -34.5110 H   0  0  0  0  0  0  0  0  0  0  0  0
   -2.0950   20.2450  -33.9360 C   0  0  0  0  0  0  0  0  0  0  0  0
   -2.7495   19.8387  -34.7212 H   0  0  0  0  0  0  0  0  0  0  0  0
   -4.1050   22.4960  -31.0260 N   0  0  0  0  0  0  0  0  0  0  0  0
   -4.8440   23.0840  -30.0440 C   0  0  0  0  0  0  0  0  0  0  0  0
   -4.2530   23.4910  -28.8000 N   0  0  0  0  0  0  0  0  0  0  0  0
   -3.2730   24.3250  -28.6070 C   0  0  0  0  0  0  0  0  0  0  0  0
   -2.8260   24.7170  -27.3670 C   0  0  0  0  0  0  0  0  0  0  0  0
   -3.2132   24.4201  -26.3811 H   0  0  0  0  0  0  0  0  0  0  0  0
   -1.7720   25.5750  -27.6500 C   0  0  0  0  0  0  0  0  0  0  0  0
   -0.8960   26.3210  -26.6780 C   0  0  0  0  0  0  0  0  0  0  0  0
   -0.3020   26.8181  -27.4591 H   0  0  0  0  0  0  0  0  0  0  0  0
   -0.5710   25.6070  -25.3740 C   0  0  0  0  0  0  0  0  0  0  0  0
   -0.9234   24.5784  -25.2074 H   0  0  0  0  0  0  0  0  0  0  0  0
    0.3520   25.3803  -24.8202 H   0  0  0  0  0  0  0  0  0  0  0  0
   -1.5650   26.7600  -25.3840 C   0  0  0  0  0  0  0  0  0  0  0  0
   -2.6357   26.5645  -25.2246 H   0  0  0  0  0  0  0  0  0  0  0  0
   -1.6578   27.7117  -24.8403 H   0  0  0  0  0  0  0  0  0  0  0  0
   -1.6090   25.6650  -28.9870 N   0  0  0  0  0  0  0  0  0  0  0  0
   -2.5220   24.9020  -29.5650 N   0  0  0  0  0  0  0  0  0  0  0  0
   -2.5750   24.7610  -30.5940 H   0  0  0  0  0  0  0  0  0  0  0  0
  1  2  1  0
  2  3  1  0
  3  4  1  0
  4  5  1  0
  4  6  1  0
  4  7  1  0
  3  8  2  0
  8  9  1  0
  9 10  2  0
 10 11  1  0
 11 12  2  0
 12 13  1  0
 12 14  1  0
 14 15  1  0
 14 16  2  0
 16 17  1  0
 17 18  1  0
 17 19  1  0
 19 20  1  0
 19 21  1  0
 19 22  1  0
 16 23  1  0
 23 24  1  0
 23 25  2  0
 25 26  1  0
  9 27  1  0
 27 28  1  0
 28 29  1  0
 29 30  2  0
 30 31  1  0
 31 32  1  0
 31 33  2  0
 33 34  1  0
 34 35  1  0
 34 36  1  0
 36 37  1  0
 36 38  1  0
 36 39  1  0
 39 40  1  0
 39 41  1  0
 33 42  1  0
 42 43  1  0
 43 44  1  0
 28  2  2  0
 43 30  1  0
 25 11  1  0
 39 34  1  0
M  CHG  2  27  -1  42  -1
M  END
>  <UniqueID>  (3) 
3

>  <SMILES>  (3) 
CNc1ccc(/N=c2/nc(C)cc(/N=c3/cc(C4CC4)[n-][nH]3)[n-]2)cc1

>  <Energy>  (3) 
352.4616346050217

>  <Genealogy>  (3) 
CNc1ccc(N=c2nc(C)cc(N=c3cc(C4CC4)[n-][nH]3)[n-]2)cc1 (protonated)
CNc1ccc(/N=c2/nc(C)cc(/N=c3/cc(C4CC4)[n-][nH]3)[n-]2)cc1 (cis-trans isomerization)
CNc1ccc(/N=c2/nc(C)cc(/N=c3/cc(C4CC4)[n-][nH]3)[n-]2)cc1 (3D coordinates assigned)
CNc1ccc(/N=c2/nc(C)cc(/N=c3/cc(C4CC4)[n-][nH]3)[n-]2)cc1 (nonaromatic ring conformer: 352.4616346050217 kcal/mol)

>  <smiles>  (3) 
CNc1ccc(N=c2nc(C)cc(N=c3cc(C4CC4)[nH][nH]3)[nH]2)cc1

>  <score_type>  (3) 
oracle

>  <origin>  (3) 
adgpu

>  <m_score__min__energy>  (3) 
-9.4000000000000004

>  <m_primary>  (3) 
energy

$$$$
3:0
     RDKit          3D

 53 56  0  0  0  0  0  0  0  0999 V2000
    0.2570   17.3900  -27.6360 C   0  0  0  0  0  0  0  0  0  0  0  0
   -0.4510   18.4160  -26.9480 O   0  0  0  0  0  0  0  0  0  0  0  0
   -1.1270   19.4710  -27.5770 C   0  0  0  0  0  0  0  0  0  0  0  0
   -2.4410   19.8410  -27.2280 C   0  0  0  0  0  0  0  0  0  0  0  0
   -3.0740   20.8990  -27.8870 C   0  0  0  0  0  0  0  0  0  0  0  0
   -2.4070   21.6030  -28.9000 C   0  0  0  0  0  0  0  0  0  0  0  0
   -3.0630   22.6830  -29.5900 N   0  0  0  0  0  0  0  0  0  0  0  0
   -3.4500   22.7410  -30.8850 C   0  0  0  0  0  0  0  0  0  0  0  0
   -3.4280   21.6130  -31.8380 C   0  0  0  0  0  0  0  0  0  0  0  0
   -2.4540   21.5450  -32.8470 C   0  0  0  0  0  0  0  0  0  0  0  0
   -2.4600   20.4880  -33.7600 C   0  0  0  0  0  0  0  0  0  0  0  0
   -3.4400   19.4970  -33.6770 C   0  0  0  0  0  0  0  0  0  0  0  0
   -4.4180   19.5520  -32.6740 C   0  0  0  0  0  0  0  0  0  0  0  0
   -5.7060   18.3460  -32.6210 S   0  0  0  0  0  0  0  0  0  0  0  0
   -5.3390   17.1940  -33.5180 O   0  0  0  0  0  0  0  0  0  0  0  0
   -5.8340   17.8210  -31.2180 O   0  0  0  0  0  0  0  0  0  0  0  0
   -7.2360   19.0180  -33.1430 N   0  0  0  0  0  0  0  0  0  0  0  0
   -8.2900   18.7270  -32.1440 C   0  0  0  0  0  0  0  0  0  0  0  0
   -9.4790   19.6900  -32.2930 C   0  0  0  0  0  0  0  0  0  0  0  0
   -9.0810   21.1060  -32.0900 N   0  0  0  0  0  0  0  0  0  0  0  0
   -9.4530   21.5770  -30.7470 C   0  0  0  0  0  0  0  0  0  0  0  0
   -7.6460   21.3640  -32.3470 C   0  0  0  0  0  0  0  0  0  0  0  0
   -7.1090   20.4620  -33.4710 C   0  0  0  0  0  0  0  0  0  0  0  0
   -4.3910   20.5980  -31.7400 C   0  0  0  0  0  0  0  0  0  0  0  0
   -3.8730   23.9770  -31.2150 N   0  0  0  0  0  0  0  0  0  0  0  0
   -3.7640   24.7310  -30.1310 N   0  0  0  0  0  0  0  0  0  0  0  0
   -3.2780   23.9420  -29.1550 C   0  0  0  0  0  0  0  0  0  0  0  0
   -2.8830   24.5070  -27.6690 S   0  0  0  0  0  0  0  0  0  0  0  0
   -1.0980   21.2340  -29.2460 C   0  0  0  0  0  0  0  0  0  0  0  0
   -0.4660   20.1760  -28.5890 C   0  0  0  0  0  0  0  0  0  0  0  0
    0.7239   16.7133  -26.9052 H   0  0  0  0  0  0  0  0  0  0  0  0
   -0.4422   16.8219  -28.2672 H   0  0  0  0  0  0  0  0  0  0  0  0
    1.0362   17.8421  -28.2672 H   0  0  0  0  0  0  0  0  0  0  0  0
   -2.9710   19.2950  -26.4336 H   0  0  0  0  0  0  0  0  0  0  0  0
   -4.1005   21.1807  -27.6095 H   0  0  0  0  0  0  0  0  0  0  0  0
   -1.6836   22.3268  -32.9187 H   0  0  0  0  0  0  0  0  0  0  0  0
   -1.6916   20.4363  -34.5454 H   0  0  0  0  0  0  0  0  0  0  0  0
   -3.4448   18.6695  -34.4017 H   0  0  0  0  0  0  0  0  0  0  0  0
   -7.4880   18.5140  -34.0270 H   0  0  0  0  0  0  0  0  0  0  0  0
   -8.6440   17.6953  -32.2862 H   0  0  0  0  0  0  0  0  0  0  0  0
   -7.8619   18.8554  -31.1389 H   0  0  0  0  0  0  0  0  0  0  0  0
   -9.8988   19.5812  -33.3039 H   0  0  0  0  0  0  0  0  0  0  0  0
  -10.2209   19.4333  -31.5224 H   0  0  0  0  0  0  0  0  0  0  0  0
   -8.9589   20.9514  -29.9891 H   0  0  0  0  0  0  0  0  0  0  0  0
   -9.1343   22.6226  -30.6238 H   0  0  0  0  0  0  0  0  0  0  0  0
  -10.5440   21.5092  -30.6238 H   0  0  0  0  0  0  0  0  0  0  0  0
   -7.5180   22.4165  -32.6401 H   0  0  0  0  0  0  0  0  0  0  0  0
   -7.0836   21.1451  -31.4273 H   0  0  0  0  0  0  0  0  0  0  0  0
   -7.6761   20.6672  -34.3910 H   0  0  0  0  0  0  0  0  0  0  0  0
   -6.0398   20.6854  -33.6006 H   0  0  0  0  0  0  0  0  0  0  0  0
   -5.1298   20.6225  -30.9254 H   0  0  0  0  0  0  0  0  0  0  0  0
   -0.5669   21.7810  -30.0389 H   0  0  0  0  0  0  0  0  0  0  0  0
    0.5598   19.8946  -28.8693 H   0  0  0  0  0  0  0  0  0  0  0  0
  1  2  1  0
  2  3  1  0
  3  4  2  0
  4  5  1  0
  5  6  2  0
  6  7  1  0
  7  8  1  0
  8  9  1  0
  9 10  2  0
 10 11  1  0
 11 12  2  0
 12 13  1  0
 13 14  1  0
 14 15  2  0
 14 16  2  0
 14 17  1  0
 17 18  1  0
 18 19  1  0
 19 20  1  0
 20 21  1  0
 20 22  1  0
 22 23  1  0
 13 24  2  0
  8 25  2  0
 25 26  1  0
 26 27  1  0
 27 28  2  0
  6 29  1  0
 29 30  2  0
 30  3  1  0
 27  7  1  0
 24  9  1  0
 23 17  1  0
  1 31  1  0
  1 32  1  0
  1 33  1  0
  4 34  1  0
  5 35  1  0
 10 36  1  0
 11 37  1  0
 12 38  1  0
 17 39  1  0
 18 40  1  0
 18 41  1  0
 19 42  1  0
 19 43  1  0
 21 44  1  0
 21 45  1  0
 21 46  1  0
 22 47  1  0
 22 48  1  0
 23 49  1  0
 23 50  1  0
 24 51  1  0
 29 52  1  0
 30 53  1  0
M  CHG  2  17   1  26  -1
M  END
>  <UniqueID>  (4) 
4

>  <SMILES>  (4) 
COc1ccc(-n2c(-c3cccc(S(=O)(=O)[NH+]4CCN(C)CC4)c3)n[n-]c2=S)cc1

>  <Energy>  (4) 
108.6643135378749

>  <Genealogy>  (4) 
COc1ccc(-n2c(-c3cccc(S(=O)(=O)[NH+]4CCN(C)CC4)c3)n[n-]c2=S)cc1 (protonated)
COc1ccc(-n2c(-c3cccc(S(=O)(=O)[NH+]4CCN(C)CC4)c3)n[n-]c2=S)cc1 (3D coordinates assigned)
COc1ccc(-n2c(-c3cccc(S(=O)(=O)[NH+]4CCN(C)CC4)c3)n[n-]c2=S)cc1 (nonaromatic ring conformer: 108.6643135378749 kcal/mol)

>  <smiles>  (4) 
COc1ccc(-n2c(-c3cccc(S(=O)(=O)N4CCN(C)CC4)c3)n[nH]c2=S)cc1

>  <score_type>  (4) 
oracle

>  <origin>  (4) 
adgpu

>  <m_score__min__energy>  (4) 
-10.050000000000001

>  <m_primary>  (4) 
energy

$$$$
4:0
     RDKit          3D

 43 45  0  0  0  0  0  0  0  0999 V2000
   -2.2020   19.3150  -32.8320 C   0  0  0  0  0  0  0  0  0  0  0  0
   -2.5080   20.6490  -32.2110 C   0  0  0  0  0  0  0  0  0  0  0  0
   -1.5950   21.1950  -31.2960 C   0  0  0  0  0  0  0  0  0  0  0  0
   -1.8810   22.3900  -30.6360 C   0  0  0  0  0  0  0  0  0  0  0  0
   -3.0850   23.0590  -30.8810 C   0  0  0  0  0  0  0  0  0  0  0  0
   -3.5050   24.5110  -29.9720 S   0  0  0  0  0  0  0  0  0  0  0  0
   -4.3970   24.1240  -28.8260 O   0  0  0  0  0  0  0  0  0  0  0  0
   -4.2490   25.4760  -30.8530 O   0  0  0  0  0  0  0  0  0  0  0  0
   -2.0830   25.2900  -29.3400 N   0  0  0  0  0  0  0  0  0  0  0  0
   -1.9070   25.0100  -27.9130 C   0  0  0  0  0  0  0  0  0  0  0  0
   -1.4380   23.5930  -27.7070 C   0  0  0  0  0  0  0  0  0  0  0  0
   -0.0900   23.2550  -27.9170 C   0  0  0  0  0  0  0  0  0  0  0  0
    0.3520   21.9460  -27.7040 C   0  0  0  0  0  0  0  0  0  0  0  0
   -0.5520   20.9610  -27.2960 C   0  0  0  0  0  0  0  0  0  0  0  0
   -1.8980   21.2800  -27.1110 C   0  0  0  0  0  0  0  0  0  0  0  0
   -2.3440   22.5890  -27.3260 C   0  0  0  0  0  0  0  0  0  0  0  0
   -3.9870   22.5410  -31.8190 C   0  0  0  0  0  0  0  0  0  0  0  0
   -3.6970   21.3570  -32.5080 C   0  0  0  0  0  0  0  0  0  0  0  0
   -4.6520   20.8760  -33.4580 N   0  0  0  0  0  0  0  0  0  0  0  0
   -5.9390   19.7900  -33.0400 S   0  0  0  0  0  0  0  0  0  0  0  0
   -6.4030   19.0650  -34.2730 O   0  0  0  0  0  0  0  0  0  0  0  0
   -5.4620   18.8010  -32.0150 O   0  0  0  0  0  0  0  0  0  0  0  0
   -7.2860   20.7080  -32.3930 C   0  0  0  0  0  0  0  0  0  0  0  0
   -7.2540   22.0420  -32.0140 C   0  0  0  0  0  0  0  0  0  0  0  0
   -8.4950   22.5060  -31.5540 C   0  0  0  0  0  0  0  0  0  0  0  0
   -9.4940   21.5380  -31.5690 C   0  0  0  0  0  0  0  0  0  0  0  0
   -8.8360   20.1040  -32.1570 S   0  0  0  0  0  0  0  0  0  0  0  0
   -2.0315   18.5719  -32.0391 H   0  0  0  0  0  0  0  0  0  0  0  0
   -3.0507   18.9976  -33.4557 H   0  0  0  0  0  0  0  0  0  0  0  0
   -1.2998   19.3992  -33.4557 H   0  0  0  0  0  0  0  0  0  0  0  0
   -0.6456   20.6761  -31.0975 H   0  0  0  0  0  0  0  0  0  0  0  0
   -1.1575   22.8078  -29.9205 H   0  0  0  0  0  0  0  0  0  0  0  0
   -1.1600   25.7025  -27.4977 H   0  0  0  0  0  0  0  0  0  0  0  0
   -2.8724   25.1429  -27.4028 H   0  0  0  0  0  0  0  0  0  0  0  0
    0.6212   24.0249  -28.2509 H   0  0  0  0  0  0  0  0  0  0  0  0
    1.4110   21.6912  -27.8574 H   0  0  0  0  0  0  0  0  0  0  0  0
   -0.2020   19.9330  -27.1205 H   0  0  0  0  0  0  0  0  0  0  0  0
   -2.6089   20.5020  -26.7959 H   0  0  0  0  0  0  0  0  0  0  0  0
   -3.4087   22.8329  -27.1961 H   0  0  0  0  0  0  0  0  0  0  0  0
   -4.9316   23.0690  -32.0162 H   0  0  0  0  0  0  0  0  0  0  0  0
   -6.3518   22.6689  -32.0684 H   0  0  0  0  0  0  0  0  0  0  0  0
   -8.6627   23.5384  -31.2133 H   0  0  0  0  0  0  0  0  0  0  0  0
  -10.5367   21.6845  -31.2508 H   0  0  0  0  0  0  0  0  0  0  0  0
  1  2  1  0
  2  3  2  0
  3  4  1  0
  4  5  2  0
  5  6  1  0
  6  7  2  0
  6  8  2  0
  6  9  1  0
  9 10  1  0
 10 11  1  0
 11 12  2  0
 12 13  1  0
 13 14  2  0
 14 15  1  0
 15 16  2  0
  5 17  1  0
 17 18  2  0
 18 19  1  0
 19 20  1  0
 20 21  2  0
 20 22  2  0
 20 23  1  0
 23 24  2  0
 24 25  1  0
 25 26  2  0
 26 27  1  0
 18  2  1  0
 27 23  1  0
 16 11  1  0
  1 28  1  0
  1 29  1  0
  1 30  1  0
  3 31  1  0
  4 32  1  0
 10 33  1  0
 10 34  1  0
 12 35  1  0
 13 36  1  0
 14 37  1  0
 15 38  1  0
 16 39  1  0
 17 40  1  0
 24 41  1  0
 25 42  1  0
 26 43  1  0
M  CHG  2   9  -1  19  -1
M  END
>  <UniqueID>  (5) 
5

>  <SMILES>  (5) 
Cc1ccc(S(=O)(=O)[N-]Cc2ccccc2)cc1[N-]S(=O)(=O)c1cccs1

>  <Energy>  (5) 
76.81888127468976

>  <Genealogy>  (5) 
Cc1ccc(S(=O)(=O)[N-]Cc2ccccc2)cc1[N-]S(=O)(=O)c1cccs1 (protonated)
Cc1ccc(S(=O)(=O)[N-]Cc2ccccc2)cc1[N-]S(=O)(=O)c1cccs1 (3D coordinates assigned)
Cc1ccc(S(=O)(=O)[N-]Cc2ccccc2)cc1[N-]S(=O)(=O)c1cccs1 (optimized conformer: 76.81888127468976 kcal/mol)

>  <smiles>  (5) 
Cc1ccc(S(=O)(=O)NCc2ccccc2)cc1NS(=O)(=O)c1cccs1

>  <score_type>  (5) 
oracle

>  <origin>  (5) 
adgpu

>  <m_score__min__energy>  (5) 
-10.859999999999999

>  <m_primary>  (5) 
energy

$$$$
5:0
     RDKit          3D

 50 53  0  0  0  0  0  0  0  0999 V2000
   -5.6770   18.1380  -34.6320 C   0  0  0  0  0  0  0  0  0  0  0  0
   -6.8090   18.3170  -33.7870 O   0  0  0  0  0  0  0  0  0  0  0  0
   -7.0180   19.4370  -32.9680 C   0  0  0  0  0  0  0  0  0  0  0  0
   -8.2970   19.6180  -32.4060 C   0  0  0  0  0  0  0  0  0  0  0  0
   -8.5700   20.7240  -31.5890 C   0  0  0  0  0  0  0  0  0  0  0  0
   -7.5450   21.6300  -31.3410 C   0  0  0  0  0  0  0  0  0  0  0  0
   -7.6200   23.0400  -30.4410 S   0  0  0  0  0  0  0  0  0  0  0  0
   -6.0110   23.4790  -30.7010 C   0  0  0  0  0  0  0  0  0  0  0  0
   -5.3270   24.9950  -30.1190 S   0  0  0  0  0  0  0  0  0  0  0  0
   -5.3930   26.0040  -31.2310 O   0  0  0  0  0  0  0  0  0  0  0  0
   -6.1210   25.5330  -28.9640 O   0  0  0  0  0  0  0  0  0  0  0  0
   -3.6570   24.7620  -29.7050 N   0  0  0  0  0  0  0  0  0  0  0  0
   -3.1000   23.6070  -29.0650 C   0  0  0  0  0  0  0  0  0  0  0  0
   -3.9330   22.8200  -28.2620 C   0  0  0  0  0  0  0  0  0  0  0  0
   -3.4310   21.6910  -27.6090 C   0  0  0  0  0  0  0  0  0  0  0  0
   -2.0890   21.3220  -27.7750 C   0  0  0  0  0  0  0  0  0  0  0  0
   -1.4360   19.9180  -26.9380 S   0  0  0  0  0  0  0  0  0  0  0  0
   -2.3810   18.7610  -27.1070 O   0  0  0  0  0  0  0  0  0  0  0  0
   -1.2800   20.2270  -25.4750 O   0  0  0  0  0  0  0  0  0  0  0  0
    0.1100   19.5330  -27.6280 N   0  0  0  0  0  0  0  0  0  0  0  0
    0.6770   18.3610  -27.6440 C   0  0  0  0  0  0  0  0  0  0  0  0
    1.9330   18.2340  -28.2510 C   0  0  0  0  0  0  0  0  0  0  0  0
    2.5640   16.9900  -28.2840 C   0  0  0  0  0  0  0  0  0  0  0  0
    1.9410   15.8820  -27.7120 C   0  0  0  0  0  0  0  0  0  0  0  0
    2.7900   14.1710  -27.7470 Br  0  0  0  0  0  0  0  0  0  0  0  0
    0.6890   16.0370  -27.1120 C   0  0  0  0  0  0  0  0  0  0  0  0
    0.0850   17.2570  -27.0870 N   0  0  0  0  0  0  0  0  0  0  0  0
   -1.2590   22.0900  -28.6000 C   0  0  0  0  0  0  0  0  0  0  0  0
   -1.7620   23.2200  -29.2520 C   0  0  0  0  0  0  0  0  0  0  0  0
   -5.3830   22.5060  -31.4980 C   0  0  0  0  0  0  0  0  0  0  0  0
   -3.9590   22.5890  -31.9700 C   0  0  0  0  0  0  0  0  0  0  0  0
   -6.2710   21.4750  -31.8690 C   0  0  0  0  0  0  0  0  0  0  0  0
   -5.9950   20.3770  -32.6990 C   0  0  0  0  0  0  0  0  0  0  0  0
   -4.7776   17.9958  -34.0149 H   0  0  0  0  0  0  0  0  0  0  0  0
   -5.8297   17.2528  -35.2670 H   0  0  0  0  0  0  0  0  0  0  0  0
   -5.5492   19.0271  -35.2670 H   0  0  0  0  0  0  0  0  0  0  0  0
   -9.0900   18.8836  -32.6104 H   0  0  0  0  0  0  0  0  0  0  0  0
   -9.5700   20.8713  -31.1551 H   0  0  0  0  0  0  0  0  0  0  0  0
   -4.9922   23.0924  -28.1437 H   0  0  0  0  0  0  0  0  0  0  0  0
   -4.0899   21.0912  -26.9639 H   0  0  0  0  0  0  0  0  0  0  0  0
    2.4202   19.1120  -28.7001 H   0  0  0  0  0  0  0  0  0  0  0  0
    3.5500   16.8840  -28.7599 H   0  0  0  0  0  0  0  0  0  0  0  0
    0.1887   15.1692  -26.6575 H   0  0  0  0  0  0  0  0  0  0  0  0
   -0.8480   17.3140  -26.6250 H   0  0  0  0  0  0  0  0  0  0  0  0
   -0.2058   21.8031  -28.7361 H   0  0  0  0  0  0  0  0  0  0  0  0
   -1.1085   23.8078  -29.9133 H   0  0  0  0  0  0  0  0  0  0  0  0
   -3.2862   22.6282  -31.1006 H   0  0  0  0  0  0  0  0  0  0  0  0
   -3.7218   21.7032  -32.5775 H   0  0  0  0  0  0  0  0  0  0  0  0
   -3.8264   23.4964  -32.5775 H   0  0  0  0  0  0  0  0  0  0  0  0
   -4.9937   20.2486  -33.1359 H   0  0  0  0  0  0  0  0  0  0  0  0
  1  2  1  0
  2  3  1  0
  3  4  2  0
  4  5  1  0
  5  6  2  0
  6  7  1  0
  7  8  1  0
  8  9  1  0
  9 10  2  0
  9 11  2  0
  9 12  1  0
 12 13  1  0
 13 14  2  0
 14 15  1  0
 15 16  2  0
 16 17  1  0
 17 18  2  0
 17 19  2  0
 17 20  1  0
 20 21  2  3
 21 22  1  0
 22 23  2  0
 23 24  1  0
 24 25  1  0
 24 26  2  0
 26 27  1  0
 16 28  1  0
 28 29  2  0
  8 30  2  0
 30 31  1  0
 30 32  1  0
 32 33  2  0
 33  3  1  0
 32  6  1  0
 29 13  1  0
 27 21  1  0
  1 34  1  0
  1 35  1  0
  1 36  1  0
  4 37  1  0
  5 38  1  0
 14 39  1  0
 15 40  1  0
 22 41  1  0
 23 42  1  0
 26 43  1  0
 27 44  1  0
 28 45  1  0
 29 46  1  0
 31 47  1  0
 31 48  1  0
 31 49  1  0
 33 50  1  0
M  CHG  1  12  -1
M  END
>  <UniqueID>  (6) 
6

>  <SMILES>  (6) 
COc1ccc2sc(S(=O)(=O)[N-]c3ccc(S(=O)(=O)N=c4ccc(Br)c[nH]4)cc3)c(C)c2c1

>  <Energy>  (6) 
97.9690773689113

>  <Genealogy>  (6) 
COc1ccc2sc(S(=O)(=O)[N-]c3ccc(S(=O)(=O)N=c4ccc(Br)c[nH]4)cc3)c(C)c2c1 (protonated)
COc1ccc2sc(S(=O)(=O)[N-]c3ccc(S(=O)(=O)N=c4ccc(Br)c[nH]4)cc3)c(C)c2c1 (3D coordinates assigned)
COc1ccc2sc(S(=O)(=O)[N-]c3ccc(S(=O)(=O)N=c4ccc(Br)c[nH]4)cc3)c(C)c2c1 (optimized conformer: 97.9690773689113 kcal/mol)

>  <smiles>  (6) 
COc1ccc2sc(S(=O)(=O)Nc3ccc(S(=O)(=O)N=c4ccc(Br)c[nH]4)cc3)c(C)c2c1

>  <score_type>  (6) 
oracle

>  <origin>  (6) 
adgpu

>  <m_score__min__energy>  (6) 
-12.18

>  <m_primary>  (6) 
energy

$$$$
6:0
     RDKit          3D

 20 20  0  0  0  0  0  0  0  0999 V2000
   -3.4760   26.4240  -31.2400 H   0  0  0  0  0  0  0  0  0  0  0  0
   -4.0430   25.6650  -30.8800 O   0  0  0  0  0  0  0  0  0  0  0  0
   -3.4950   24.4730  -30.4510 N   0  0  0  0  0  0  0  0  0  0  0  0
   -4.1030   23.3250  -30.5110 C   0  0  0  0  0  0  0  0  0  0  0  0
   -3.5990   22.4416  -30.0919 H   0  0  0  0  0  0  0  0  0  0  0  0
   -5.4390   23.1530  -31.1160 C   0  0  0  0  0  0  0  0  0  0  0  0
   -5.7570   22.2100  -32.0340 N   0  0  0  0  0  0  0  0  0  0  0  0
   -4.8930   21.2000  -32.6410 C   0  0  0  0  0  0  0  0  0  0  0  0
   -4.3961   20.6192  -31.8499 H   0  0  0  0  0  0  0  0  0  0  0  0
   -5.4987   20.5264  -33.2650 H   0  0  0  0  0  0  0  0  0  0  0  0
   -4.1337   21.6941  -33.2650 H   0  0  0  0  0  0  0  0  0  0  0  0
   -7.0770   22.3530  -32.2640 C   0  0  0  0  0  0  0  0  0  0  0  0
   -7.6734   21.7608  -32.9736 H   0  0  0  0  0  0  0  0  0  0  0  0
   -7.5550   23.3680  -31.4590 C   0  0  0  0  0  0  0  0  0  0  0  0
   -8.5982   23.7135  -31.4099 H   0  0  0  0  0  0  0  0  0  0  0  0
   -6.5260   23.8630  -30.7440 N   0  0  0  0  0  0  0  0  0  0  0  0
   -6.6010   24.9000  -29.7200 C   0  0  0  0  0  0  0  0  0  0  0  0
   -6.5673   24.4347  -28.7238 H   0  0  0  0  0  0  0  0  0  0  0  0
   -5.7503   25.5883  -29.8322 H   0  0  0  0  0  0  0  0  0  0  0  0
   -7.5419   25.4587  -29.8322 H   0  0  0  0  0  0  0  0  0  0  0  0
  1  2  1  0
  2  3  1  0
  3  4  2  0
  4  5  1  0
  4  6  1  0
  6  7  1  0
  7  8  1  0
  8  9  1  0
  8 10  1  0
  8 11  1  0
  7 12  1  0
 12 13  1  0
 12 14  2  0
 14 15  1  0
 14 16  1  0
 16 17  1  0
 17 18  1  0
 17 19  1  0
 17 20  1  0
 16  6  2  0
M  CHG  1  16   1
M  END
>  <UniqueID>  (7) 
7

>  <SMILES>  (7) 
Cn1cc[n+](C)c1/C=N\O

>  <Energy>  (7) 
55.430101910281905

>  <Genealogy>  (7) 
Cn1cc[n+](C)c1/C=N\O (cis-trans isomerization)
Cn1cc[n+](C)c1/C=N\O (3D coordinates assigned)
Cn1cc[n+](C)c1/C=N\O (optimized conformer: 55.430101910281905 kcal/mol)

>  <smiles>  (7) 
Cn1cc[n+](C)c1C=NO

>  <score_type>  (7) 
oracle

>  <origin>  (7) 
adgpu

>  <m_score__min__energy>  (7) 
-4.7599999999999998

>  <m_primary>  (7) 
energy

$$$$
7:0
     RDKit          3D

 62 66  0  0  0  0  0  0  0  0999 V2000
   -4.2550   25.8620  -30.4770 O   0  0  0  0  0  0  0  0  0  0  0  0
   -4.3530   24.6070  -30.5570 C   0  0  0  0  0  0  0  0  0  0  0  0
   -5.1550   24.0280  -31.5910 N   0  0  0  0  0  0  0  0  0  0  0  0
   -5.5820   22.6570  -31.6060 C   0  0  0  0  0  0  0  0  0  0  0  0
   -6.9530   22.3730  -31.5570 C   0  0  0  0  0  0  0  0  0  0  0  0
   -7.4110   21.0580  -31.6780 C   0  0  0  0  0  0  0  0  0  0  0  0
   -6.5000   20.0100  -31.8610 C   0  0  0  0  0  0  0  0  0  0  0  0
   -7.0770   18.3580  -32.0880 S   0  0  0  0  0  0  0  0  0  0  0  0
   -6.3660   17.4450  -31.1260 O   0  0  0  0  0  0  0  0  0  0  0  0
   -8.5490   18.3030  -31.7760 O   0  0  0  0  0  0  0  0  0  0  0  0
   -6.8350   17.7990  -33.7310 N   0  0  0  0  0  0  0  0  0  0  0  0
   -6.1470   16.5010  -33.7630 C   0  0  0  0  0  0  0  0  0  0  0  0
   -4.7020   16.7220  -34.1990 C   0  0  0  0  0  0  0  0  0  0  0  0
   -4.5730   18.2050  -34.4740 C   0  0  0  0  0  0  0  0  0  0  0  0
   -5.9980   18.7340  -34.4880 C   0  0  0  0  0  0  0  0  0  0  0  0
   -5.1230   20.2840  -31.8690 C   0  0  0  0  0  0  0  0  0  0  0  0
   -4.6660   21.5990  -31.7580 C   0  0  0  0  0  0  0  0  0  0  0  0
   -3.7040   23.7380  -29.5530 C   0  0  0  0  0  0  0  0  0  0  0  0
   -4.4810   23.0230  -28.6260 C   0  0  0  0  0  0  0  0  0  0  0  0
   -3.8880   22.0830  -27.7810 C   0  0  0  0  0  0  0  0  0  0  0  0
   -2.5070   21.8560  -27.8370 C   0  0  0  0  0  0  0  0  0  0  0  0
   -1.7760   20.5770  -26.8660 S   0  0  0  0  0  0  0  0  0  0  0  0
   -2.8470   19.6260  -26.4130 O   0  0  0  0  0  0  0  0  0  0  0  0
   -1.1450   21.1860  -25.6430 O   0  0  0  0  0  0  0  0  0  0  0  0
   -0.5790   19.6890  -27.7820 N   0  0  0  0  0  0  0  0  0  0  0  0
   -0.5290   18.2930  -27.3190 C   0  0  0  0  0  0  0  0  0  0  0  0
    0.6720   17.5860  -27.9500 C   0  0  0  0  0  0  0  0  0  0  0  0
    0.7130   17.7960  -29.4420 C   0  0  0  0  0  0  0  0  0  0  0  0
    1.5110   16.9580  -30.2370 C   0  0  0  0  0  0  0  0  0  0  0  0
    1.6180   17.1820  -31.6130 C   0  0  0  0  0  0  0  0  0  0  0  0
    0.9330   18.2470  -32.2030 C   0  0  0  0  0  0  0  0  0  0  0  0
    0.1470   19.0950  -31.4170 C   0  0  0  0  0  0  0  0  0  0  0  0
    0.0420   18.8870  -30.0330 C   0  0  0  0  0  0  0  0  0  0  0  0
   -0.8970   19.7450  -29.2210 C   0  0  0  0  0  0  0  0  0  0  0  0
   -1.7200   22.6080  -28.7210 C   0  0  0  0  0  0  0  0  0  0  0  0
   -2.3130   23.5330  -29.5810 C   0  0  0  0  0  0  0  0  0  0  0  0
   -7.6751   23.1918  -31.4222 H   0  0  0  0  0  0  0  0  0  0  0  0
   -8.4892   20.8457  -31.6294 H   0  0  0  0  0  0  0  0  0  0  0  0
   -6.1657   16.0477  -32.7609 H   0  0  0  0  0  0  0  0  0  0  0  0
   -6.6523   15.8272  -34.4705 H   0  0  0  0  0  0  0  0  0  0  0  0
   -4.0105   16.4198  -33.3987 H   0  0  0  0  0  0  0  0  0  0  0  0
   -4.4526   16.1236  -35.0877 H   0  0  0  0  0  0  0  0  0  0  0  0
   -3.9877   18.6946  -33.6817 H   0  0  0  0  0  0  0  0  0  0  0  0
   -4.0519   18.4032  -35.4223 H   0  0  0  0  0  0  0  0  0  0  0  0
   -6.0317   19.7287  -34.0195 H   0  0  0  0  0  0  0  0  0  0  0  0
   -6.3628   18.8228  -35.5219 H   0  0  0  0  0  0  0  0  0  0  0  0
   -4.4011   19.4594  -31.9631 H   0  0  0  0  0  0  0  0  0  0  0  0
   -3.5866   21.8087  -31.7895 H   0  0  0  0  0  0  0  0  0  0  0  0
   -5.5641   23.2051  -28.5656 H   0  0  0  0  0  0  0  0  0  0  0  0
   -4.5077   21.5186  -27.0686 H   0  0  0  0  0  0  0  0  0  0  0  0
   -0.4311   18.2739  -26.2235 H   0  0  0  0  0  0  0  0  0  0  0  0
   -1.4540   17.7765  -27.6150 H   0  0  0  0  0  0  0  0  0  0  0  0
    1.5960   17.9859  -27.5069 H   0  0  0  0  0  0  0  0  0  0  0  0
    0.5802   16.5073  -27.7549 H   0  0  0  0  0  0  0  0  0  0  0  0
    2.0549   16.1209  -29.7750 H   0  0  0  0  0  0  0  0  0  0  0  0
    2.2417   16.5195  -32.2311 H   0  0  0  0  0  0  0  0  0  0  0  0
    1.0121   18.4185  -33.2867 H   0  0  0  0  0  0  0  0  0  0  0  0
   -0.3927   19.9307  -31.8864 H   0  0  0  0  0  0  0  0  0  0  0  0
   -0.8149   20.7869  -29.5641 H   0  0  0  0  0  0  0  0  0  0  0  0
   -1.9191   19.3635  -29.3618 H   0  0  0  0  0  0  0  0  0  0  0  0
   -0.6291   22.4679  -28.7366 H   0  0  0  0  0  0  0  0  0  0  0  0
   -1.6895   24.1046  -30.2842 H   0  0  0  0  0  0  0  0  0  0  0  0
  1  2  2  0
  2  3  1  0
  3  4  1  0
  4  5  2  0
  5  6  1  0
  6  7  2  0
  7  8  1  0
  8  9  2  0
  8 10  2  0
  8 11  1  0
 11 12  1  0
 12 13  1  0
 13 14  1  0
 14 15  1  0
  7 16  1  0
 16 17  2  0
  2 18  1  0
 18 19  2  0
 19 20  1  0
 20 21  2  0
 21 22  1  0
 22 23  2  0
 22 24  2  0
 22 25  1  0
 25 26  1  0
 26 27  1  0
 27 28  1  0
 28 29  2  0
 29 30  1  0
 30 31  2  0
 31 32  1  0
 32 33  2  0
 33 34  1  0
 21 35  1  0
 35 36  2  0
 17  4  1  0
 36 18  1  0
 15 11  1  0
 34 25  1  0
 33 28  1  0
  5 37  1  0
  6 38  1  0
 12 39  1  0
 12 40  1  0
 13 41  1  0
 13 42  1  0
 14 43  1  0
 14 44  1  0
 15 45  1  0
 15 46  1  0
 16 47  1  0
 17 48  1  0
 19 49  1  0
 20 50  1  0
 26 51  1  0
 26 52  1  0
 27 53  1  0
 27 54  1  0
 29 55  1  0
 30 56  1  0
 31 57  1  0
 32 58  1  0
 34 59  1  0
 34 60  1  0
 35 61  1  0
 36 62  1  0
M  CHG  1   3  -1
M  END
>  <UniqueID>  (8) 
8

>  <SMILES>  (8) 
O=C([N-]c1ccc(S(=O)(=O)N2CCCC2)cc1)c1ccc(S(=O)(=O)N2CCc3ccccc3C2)cc1

>  <Energy>  (8) 
77.06088372313829

>  <Genealogy>  (8) 
O=C([N-]c1ccc(S(=O)(=O)N2CCCC2)cc1)c1ccc(S(=O)(=O)N2CCc3ccccc3C2)cc1 (protonated)
O=C([N-]c1ccc(S(=O)(=O)N2CCCC2)cc1)c1ccc(S(=O)(=O)N2CCc3ccccc3C2)cc1 (3D coordinates assigned)
O=C([N-]c1ccc(S(=O)(=O)N2CCCC2)cc1)c1ccc(S(=O)(=O)N2CCc3ccccc3C2)cc1 (nonaromatic ring conformer: 77.06088372313829 kcal/mol)

>  <smiles>  (8) 
O=C(Nc1ccc(S(=O)(=O)N2CCCC2)cc1)c1ccc(S(=O)(=O)N2CCc3ccccc3C2)cc1

>  <score_type>  (8) 
oracle

>  <origin>  (8) 
adgpu

>  <m_score__min__energy>  (8) 
-13.460000000000001

>  <m_primary>  (8) 
energy

$$$$
8:0
     RDKit          3D

 56 57  0  0  0  0  0  0  0  0999 V2000
    0.4570   18.1560  -29.2370 C   0  0  0  0  0  0  0  0  0  0  0  0
    0.0950   19.3440  -30.1220 C   0  0  0  0  0  0  0  0  0  0  0  0
   -1.1380   19.9320  -29.7040 O   0  0  0  0  0  0  0  0  0  0  0  0
   -1.2810   21.0710  -28.8920 C   0  0  0  0  0  0  0  0  0  0  0  0
   -1.5750   22.3360  -29.4420 C   0  0  0  0  0  0  0  0  0  0  0  0
   -1.6870   23.4690  -28.6220 C   0  0  0  0  0  0  0  0  0  0  0  0
   -2.0240   24.7910  -29.1990 C   0  0  0  0  0  0  0  0  0  0  0  0
   -1.3220   25.8040  -28.9340 O   0  0  0  0  0  0  0  0  0  0  0  0
   -3.1410   24.9100  -30.0830 N   0  0  0  0  0  0  0  0  0  0  0  0
   -3.8640   23.7750  -30.6410 C   0  0  0  0  0  0  0  0  0  0  0  0
   -5.3720   23.9800  -30.4680 C   0  0  0  0  0  0  0  0  0  0  0  0
   -6.1480   22.7460  -30.8540 C   0  0  0  0  0  0  0  0  0  0  0  0
   -7.5250   22.6600  -30.5820 C   0  0  0  0  0  0  0  0  0  0  0  0
   -8.2590   21.5470  -30.9960 C   0  0  0  0  0  0  0  0  0  0  0  0
   -7.6330   20.5100  -31.6950 C   0  0  0  0  0  0  0  0  0  0  0  0
   -8.5660   19.1090  -32.2100 S   0  0  0  0  0  0  0  0  0  0  0  0
   -7.5630   18.0510  -33.1350 N   0  0  0  0  0  0  0  0  0  0  0  0
   -9.7320   19.5490  -33.0520 O   0  0  0  0  0  0  0  0  0  0  0  0
   -9.0900   18.3800  -31.0050 O   0  0  0  0  0  0  0  0  0  0  0  0
   -6.2600   20.5910  -31.9680 C   0  0  0  0  0  0  0  0  0  0  0  0
   -5.5230   21.7060  -31.5570 C   0  0  0  0  0  0  0  0  0  0  0  0
   -1.4770   23.3390  -27.2410 C   0  0  0  0  0  0  0  0  0  0  0  0
   -1.1860   22.0880  -26.6740 C   0  0  0  0  0  0  0  0  0  0  0  0
   -0.9750   21.9340  -25.2930 O   0  0  0  0  0  0  0  0  0  0  0  0
   -0.0370   22.6870  -24.5300 C   0  0  0  0  0  0  0  0  0  0  0  0
   -0.5230   24.1180  -24.3870 C   0  0  0  0  0  0  0  0  0  0  0  0
   -1.1160   20.9500  -27.4920 C   0  0  0  0  0  0  0  0  0  0  0  0
   -0.8660   19.7170  -26.8610 O   0  0  0  0  0  0  0  0  0  0  0  0
   -1.8020   18.6430  -26.7230 C   0  0  0  0  0  0  0  0  0  0  0  0
   -3.2400   19.1620  -26.7240 C   0  0  0  0  0  0  0  0  0  0  0  0
    0.3686   18.4461  -28.1796 H   0  0  0  0  0  0  0  0  0  0  0  0
   -0.2274   17.3207  -29.4465 H   0  0  0  0  0  0  0  0  0  0  0  0
    1.4909   17.8443  -29.4465 H   0  0  0  0  0  0  0  0  0  0  0  0
    0.8937   20.0977  -30.0581 H   0  0  0  0  0  0  0  0  0  0  0  0
   -0.0166   18.9905  -31.1577 H   0  0  0  0  0  0  0  0  0  0  0  0
   -1.7184   22.4357  -30.5281 H   0  0  0  0  0  0  0  0  0  0  0  0
   -3.6290   23.6838  -31.7117 H   0  0  0  0  0  0  0  0  0  0  0  0
   -3.5608   22.8584  -30.1138 H   0  0  0  0  0  0  0  0  0  0  0  0
   -5.5813   24.2184  -29.4147 H   0  0  0  0  0  0  0  0  0  0  0  0
   -5.6851   24.8033  -31.1269 H   0  0  0  0  0  0  0  0  0  0  0  0
   -8.0269   23.4748  -30.0396 H   0  0  0  0  0  0  0  0  0  0  0  0
   -9.3341   21.4854  -30.7715 H   0  0  0  0  0  0  0  0  0  0  0  0
   -7.3660   18.5300  -34.0440 H   0  0  0  0  0  0  0  0  0  0  0  0
   -5.7602   19.7734  -32.5081 H   0  0  0  0  0  0  0  0  0  0  0  0
   -4.4489   21.7675  -31.7860 H   0  0  0  0  0  0  0  0  0  0  0  0
   -1.5411   24.2272  -26.5952 H   0  0  0  0  0  0  0  0  0  0  0  0
    0.0688   22.2356  -23.5325 H   0  0  0  0  0  0  0  0  0  0  0  0
    0.9360   22.6829  -25.0431 H   0  0  0  0  0  0  0  0  0  0  0  0
   -0.6090   24.3711  -23.3200 H   0  0  0  0  0  0  0  0  0  0  0  0
    0.1943   24.7987  -24.8687 H   0  0  0  0  0  0  0  0  0  0  0  0
   -1.5065   24.2211  -24.8687 H   0  0  0  0  0  0  0  0  0  0  0  0
   -1.6721   17.9433  -27.5618 H   0  0  0  0  0  0  0  0  0  0  0  0
   -1.6141   18.1370  -25.7645 H   0  0  0  0  0  0  0  0  0  0  0  0
   -3.5855   19.2867  -25.6871 H   0  0  0  0  0  0  0  0  0  0  0  0
   -3.2797   20.1312  -27.2428 H   0  0  0  0  0  0  0  0  0  0  0  0
   -3.8895   18.4416  -27.2428 H   0  0  0  0  0  0  0  0  0  0  0  0
  1  2  1  0
  2  3  1  0
  3  4  1  0
  4  5  2  0
  5  6  1  0
  6  7  1  0
  7  8  2  0
  7  9  1  0
  9 10  1  0
 10 11  1  0
 11 12  1  0
 12 13  2  0
 13 14  1  0
 14 15  2  0
 15 16  1  0
 16 17  1  0
 16 18  2  0
 16 19  2  0
 15 20  1  0
 20 21  2  0
  6 22  2  0
 22 23  1  0
 23 24  1  0
 24 25  1  0
 25 26  1  0
 23 27  2  0
 27 28  1  0
 28 29  1  0
 29 30  1  0
 27  4  1  0
 21 12  1  0
  1 31  1  0
  1 32  1  0
  1 33  1  0
  2 34  1  0
  2 35  1  0
  5 36  1  0
 10 37  1  0
 10 38  1  0
 11 39  1  0
 11 40  1  0
 13 41  1  0
 14 42  1  0
 17 43  1  0
 20 44  1  0
 21 45  1  0
 22 46  1  0
 25 47  1  0
 25 48  1  0
 26 49  1  0
 26 50  1  0
 26 51  1  0
 29 52  1  0
 29 53  1  0
 30 54  1  0
 30 55  1  0
 30 56  1  0
M  CHG  2   9  -1  17  -1
M  END
>  <UniqueID>  (9) 
9

>  <SMILES>  (9) 
CCOc1cc(C(=O)[N-]CCc2ccc(S([NH-])(=O)=O)cc2)cc(OCC)c1OCC

>  <Energy>  (9) 
46.450126221834275

>  <Genealogy>  (9) 
CCOc1cc(C(=O)[N-]CCc2ccc(S([NH-])(=O)=O)cc2)cc(OCC)c1OCC (protonated)
CCOc1cc(C(=O)[N-]CCc2ccc(S([NH-])(=O)=O)cc2)cc(OCC)c1OCC (3D coordinates assigned)
CCOc1cc(C(=O)[N-]CCc2ccc(S([NH-])(=O)=O)cc2)cc(OCC)c1OCC (optimized conformer: 46.450126221834275 kcal/mol)

>  <smiles>  (9) 
CCOc1cc(C(=O)NCCc2ccc(S(N)(=O)=O)cc2)cc(OCC)c1OCC

>  <score_type>  (9) 
oracle

>  <origin>  (9) 
adgpu

>  <m_score__min__energy>  (9) 
-9.5600000000000005

>  <m_primary>  (9) 
energy

$$$$
9:0
     RDKit          3D

 54 57  0  0  0  0  0  0  0  0999 V2000
   -1.4430   17.4750  -34.8170 N   0  0  0  0  0  0  0  0  0  0  0  0
   -2.4730   16.1700  -34.3390 S   0  0  0  0  0  0  0  0  0  0  0  0
   -2.5760   15.1760  -35.4650 O   0  0  0  0  0  0  0  0  0  0  0  0
   -1.8870   15.4790  -33.1370 O   0  0  0  0  0  0  0  0  0  0  0  0
   -4.0680   16.7980  -33.9380 C   0  0  0  0  0  0  0  0  0  0  0  0
   -4.7240   16.3480  -32.7840 C   0  0  0  0  0  0  0  0  0  0  0  0
   -5.9840   16.8520  -32.4500 C   0  0  0  0  0  0  0  0  0  0  0  0
   -6.5960   17.8250  -33.2610 C   0  0  0  0  0  0  0  0  0  0  0  0
   -7.8650   18.3460  -32.9640 O   0  0  0  0  0  0  0  0  0  0  0  0
   -8.1190   19.6380  -32.4820 C   0  0  0  0  0  0  0  0  0  0  0  0
   -9.4410   20.0910  -32.4350 C   0  0  0  0  0  0  0  0  0  0  0  0
   -9.7300   21.3760  -31.9730 C   0  0  0  0  0  0  0  0  0  0  0  0
   -8.6990   22.2250  -31.5630 C   0  0  0  0  0  0  0  0  0  0  0  0
   -7.3610   21.7960  -31.6210 C   0  0  0  0  0  0  0  0  0  0  0  0
   -6.2590   22.6980  -31.1980 C   0  0  0  0  0  0  0  0  0  0  0  0
   -6.5380   24.0050  -30.7660 C   0  0  0  0  0  0  0  0  0  0  0  0
   -5.5020   24.8560  -30.3790 C   0  0  0  0  0  0  0  0  0  0  0  0
   -4.1780   24.4140  -30.4010 C   0  0  0  0  0  0  0  0  0  0  0  0
   -3.1670   25.2910  -30.0200 O   0  0  0  0  0  0  0  0  0  0  0  0
   -3.8770   23.0970  -30.8030 C   0  0  0  0  0  0  0  0  0  0  0  0
   -2.4440   22.5890  -30.8120 C   0  0  0  0  0  0  0  0  0  0  0  0
   -2.2500   21.3540  -31.6050 N   0  0  0  0  0  0  0  0  0  0  0  0
   -2.6370   21.4830  -33.0270 C   0  0  0  0  0  0  0  0  0  0  0  0
   -2.1610   20.2660  -33.8260 C   0  0  0  0  0  0  0  0  0  0  0  0
   -0.6900   20.1360  -33.8080 N   0  0  0  0  0  0  0  0  0  0  0  0
   -0.0470   20.7280  -32.6190 C   0  0  0  0  0  0  0  0  0  0  0  0
   -0.9550   20.6680  -31.3800 C   0  0  0  0  0  0  0  0  0  0  0  0
   -4.9240   22.2560  -31.2230 C   0  0  0  0  0  0  0  0  0  0  0  0
   -7.0790   20.5010  -32.0910 C   0  0  0  0  0  0  0  0  0  0  0  0
   -5.9460   18.2590  -34.4210 C   0  0  0  0  0  0  0  0  0  0  0  0
   -4.6830   17.7570  -34.7550 C   0  0  0  0  0  0  0  0  0  0  0  0
   -1.3080   18.0810  -33.9750 H   0  0  0  0  0  0  0  0  0  0  0  0
   -4.2457   15.5959  -32.1393 H   0  0  0  0  0  0  0  0  0  0  0  0
   -6.4992   16.4864  -31.5495 H   0  0  0  0  0  0  0  0  0  0  0  0
  -10.2575   19.4313  -32.7638 H   0  0  0  0  0  0  0  0  0  0  0  0
  -10.7735   21.7216  -31.9316 H   0  0  0  0  0  0  0  0  0  0  0  0
   -8.9349   23.2337  -31.1931 H   0  0  0  0  0  0  0  0  0  0  0  0
   -7.5787   24.3597  -30.7326 H   0  0  0  0  0  0  0  0  0  0  0  0
   -5.7301   25.8820  -30.0544 H   0  0  0  0  0  0  0  0  0  0  0  0
   -1.8004   23.3755  -31.2330 H   0  0  0  0  0  0  0  0  0  0  0  0
   -2.1858   22.3439  -29.7712 H   0  0  0  0  0  0  0  0  0  0  0  0
   -3.7322   21.5571  -33.0986 H   0  0  0  0  0  0  0  0  0  0  0  0
   -2.1673   22.3867  -33.4425 H   0  0  0  0  0  0  0  0  0  0  0  0
   -2.6035   19.3586  -33.3891 H   0  0  0  0  0  0  0  0  0  0  0  0
   -2.4786   20.3988  -34.8707 H   0  0  0  0  0  0  0  0  0  0  0  0
   -0.4540   19.1160  -33.8390 H   0  0  0  0  0  0  0  0  0  0  0  0
    0.8806   20.1765  -32.4059 H   0  0  0  0  0  0  0  0  0  0  0  0
    0.1588   21.7864  -32.8370 H   0  0  0  0  0  0  0  0  0  0  0  0
   -1.1499   19.6138  -31.1336 H   0  0  0  0  0  0  0  0  0  0  0  0
   -0.4382   21.1810  -30.5556 H   0  0  0  0  0  0  0  0  0  0  0  0
   -4.6954   21.2394  -31.5756 H   0  0  0  0  0  0  0  0  0  0  0  0
   -6.0352   20.1595  -32.1535 H   0  0  0  0  0  0  0  0  0  0  0  0
   -6.4304   18.9993  -35.0747 H   0  0  0  0  0  0  0  0  0  0  0  0
   -4.1718   18.1157  -35.6605 H   0  0  0  0  0  0  0  0  0  0  0  0
  1  2  1  0
  2  3  2  0
  2  4  2  0
  2  5  1  0
  5  6  2  0
  6  7  1  0
  7  8  2  0
  8  9  1  0
  9 10  1  0
 10 11  2  0
 11 12  1  0
 12 13  2  0
 13 14  1  0
 14 15  1  0
 15 16  2  0
 16 17  1  0
 17 18  2  0
 18 19  1  0
 18 20  1  0
 20 21  1  0
 21 22  1  0
 22 23  1  0
 23 24  1  0
 24 25  1  0
 25 26  1  0
 26 27  1  0
 20 28  2  0
 14 29  2  0
  8 30  1  0
 30 31  2  0
 31  5  1  0
 29 10  1  0
 28 15  1  0
 27 22  1  0
  1 32  1  0
  6 33  1  0
  7 34  1  0
 11 35  1  0
 12 36  1  0
 13 37  1  0
 16 38  1  0
 17 39  1  0
 21 40  1  0
 21 41  1  0
 23 42  1  0
 23 43  1  0
 24 44  1  0
 24 45  1  0
 25 46  1  0
 26 47  1  0
 26 48  1  0
 27 49  1  0
 27 50  1  0
 28 51  1  0
 29 52  1  0
 30 53  1  0
 31 54  1  0
M  CHG  2   1  -1  19  -1
M  END
>  <UniqueID>  (10) 
10

>  <SMILES>  (10) 
[NH-]S(=O)(=O)c1ccc(Oc2cccc(-c3ccc([O-])c(CN4CCNCC4)c3)c2)cc1

>  <Energy>  (10) 
82.31836937461179

>  <Genealogy>  (10) 
[NH-]S(=O)(=O)c1ccc(Oc2cccc(-c3ccc([O-])c(CN4CCNCC4)c3)c2)cc1 (protonated)
[NH-]S(=O)(=O)c1ccc(Oc2cccc(-c3ccc([O-])c(CN4CCNCC4)c3)c2)cc1 (3D coordinates assigned)
[NH-]S(=O)(=O)c1ccc(Oc2cccc(-c3ccc([O-])c(CN4CCNCC4)c3)c2)cc1 (nonaromatic ring conformer: 82.31836937461179 kcal/mol)

>  <smiles>  (10) 
NS(=O)(=O)c1ccc(Oc2cccc(-c3ccc(O)c(CN4CCNCC4)c3)c2)cc1

>  <score_type>  (10) 
oracle

>  <origin>  (10) 
adgpu

>  <m_score__min__energy>  (10) 
-12.34

>  <m_primary>  (10) 
energy

$$$$
10:0
     RDKit          3D

 27 28  0  0  0  0  0  0  0  0999 V2000
   -3.5210   21.8670  -32.6200 C   0  0  0  0  0  0  0  0  0  0  0  0
   -4.9840   21.5770  -32.4980 C   0  0  0  0  0  0  0  0  0  0  0  0
   -5.5240   20.3510  -32.6980 N   0  0  0  0  0  0  0  0  0  0  0  0
   -6.8440   20.4940  -32.4900 C   0  0  0  0  0  0  0  0  0  0  0  0
   -7.8200   19.5010  -32.5580 C   0  0  0  0  0  0  0  0  0  0  0  0
   -9.1510   19.8660  -32.2810 C   0  0  0  0  0  0  0  0  0  0  0  0
   -9.4710   21.1990  -31.9440 C   0  0  0  0  0  0  0  0  0  0  0  0
   -8.4660   22.1810  -31.8810 C   0  0  0  0  0  0  0  0  0  0  0  0
   -7.1570   21.7900  -32.1650 C   0  0  0  0  0  0  0  0  0  0  0  0
   -5.9750   22.5070  -32.1800 C   0  0  0  0  0  0  0  0  0  0  0  0
   -5.7880   23.9540  -31.8240 C   0  0  0  0  0  0  0  0  0  0  0  0
   -4.9440   24.0930  -30.5560 C   0  0  0  0  0  0  0  0  0  0  0  0
   -4.1360   25.3050  -30.6200 N   0  0  0  0  0  0  0  0  0  0  0  0
   -3.0796   21.9545  -31.6163 H   0  0  0  0  0  0  0  0  0  0  0  0
   -3.0294   21.0488  -33.1667 H   0  0  0  0  0  0  0  0  0  0  0  0
   -3.3786   22.8108  -33.1667 H   0  0  0  0  0  0  0  0  0  0  0  0
   -5.0180   19.4720  -32.9490 H   0  0  0  0  0  0  0  0  0  0  0  0
   -7.5584   18.4651  -32.8198 H   0  0  0  0  0  0  0  0  0  0  0  0
   -9.9467   19.1079  -32.3274 H   0  0  0  0  0  0  0  0  0  0  0  0
  -10.5147   21.4719  -31.7290 H   0  0  0  0  0  0  0  0  0  0  0  0
   -8.7039   23.2220  -31.6168 H   0  0  0  0  0  0  0  0  0  0  0  0
   -5.2805   24.4676  -32.6539 H   0  0  0  0  0  0  0  0  0  0  0  0
   -6.7751   24.4047  -31.6435 H   0  0  0  0  0  0  0  0  0  0  0  0
   -5.6085   24.1450  -29.6810 H   0  0  0  0  0  0  0  0  0  0  0  0
   -4.2782   23.2216  -30.4704 H   0  0  0  0  0  0  0  0  0  0  0  0
   -4.2010   25.6800  -31.5940 H   0  0  0  0  0  0  0  0  0  0  0  0
   -4.5730   26.0230  -29.9970 H   0  0  0  0  0  0  0  0  0  0  0  0
  1  2  1  0
  2  3  1  0
  3  4  1  0
  4  5  2  0
  5  6  1  0
  6  7  2  0
  7  8  1  0
  8  9  2  0
  9 10  1  0
 10 11  1  0
 11 12  1  0
 12 13  1  0
 10  2  2  0
  9  4  1  0
  1 14  1  0
  1 15  1  0
  1 16  1  0
  3 17  1  0
  5 18  1  0
  6 19  1  0
  7 20  1  0
  8 21  1  0
 11 22  1  0
 11 23  1  0
 12 24  1  0
 12 25  1  0
 13 26  1  0
 13 27  1  0
M  END
>  <UniqueID>  (11) 
11

>  <SMILES>  (11) 
Cc1[nH]c2ccccc2c1CCN

>  <Energy>  (11) 
53.92206354866466

>  <Genealogy>  (11) 
Cc1[nH]c2ccccc2c1CCN (3D coordinates assigned)
Cc1[nH]c2ccccc2c1CCN (optimized conformer: 53.92206354866466 kcal/mol)

>  <smiles>  (11) 
Cc1[nH]c2ccccc2c1CCN

>  <score_type>  (11) 
oracle

>  <origin>  (11) 
adgpu

>  <m_score__min__energy>  (11) 
-6.96

>  <m_primary>  (11) 
energy

$$$$
11:0
     RDKit          3D

 41 42  0  0  0  0  0  0  0  0999 V2000
   -5.4110   19.4550  -31.7630 C   0  0  0  0  0  0  0  0  0  0  0  0
   -5.5130   19.3920  -33.3070 C   0  0  2  0  0  0  0  0  0  0  0  0
   -6.9330   19.5180  -33.7230 N   0  0  0  0  0  0  0  0  0  0  0  0
   -7.6950   20.2500  -32.7520 C   0  0  0  0  0  0  0  0  0  0  0  0
   -7.7110   21.5600  -32.3110 C   0  0  0  0  0  0  0  0  0  0  0  0
   -6.9820   22.7370  -32.6790 N   0  0  0  0  0  0  0  0  0  0  0  0
   -5.9970   23.3550  -31.8380 C   0  0  0  0  0  0  0  0  0  0  0  0
   -6.2830   24.5320  -31.1230 C   0  0  0  0  0  0  0  0  0  0  0  0
   -5.3150   25.1020  -30.2890 C   0  0  0  0  0  0  0  0  0  0  0  0
   -4.0630   24.4970  -30.1530 C   0  0  0  0  0  0  0  0  0  0  0  0
   -3.1270   25.0510  -29.3430 F   0  0  0  0  0  0  0  0  0  0  0  0
   -3.7800   23.3140  -30.8410 C   0  0  0  0  0  0  0  0  0  0  0  0
   -4.7450   22.7410  -31.6740 C   0  0  0  0  0  0  0  0  0  0  0  0
   -8.7320   21.2480  -31.4300 C   0  0  0  0  0  0  0  0  0  0  0  0
   -9.4200   21.8890  -30.5940 O   0  0  0  0  0  0  0  0  0  0  0  0
   -8.6960   19.9350  -31.8540 C   0  0  0  0  0  0  0  0  0  0  0  0
   -9.3240   18.8870  -31.5530 O   0  0  0  0  0  0  0  0  0  0  0  0
   -4.8190   18.1110  -33.9260 C   0  0  0  0  0  0  0  0  0  0  0  0
   -5.1010   16.8720  -33.0380 C   0  0  0  0  0  0  0  0  0  0  0  0
   -3.2890   18.2880  -34.0540 C   0  0  0  0  0  0  0  0  0  0  0  0
   -5.3930   17.7990  -35.3310 C   0  0  0  0  0  0  0  0  0  0  0  0
   -6.2666   18.9266  -31.3172 H   0  0  0  0  0  0  0  0  0  0  0  0
   -4.4750   18.9774  -31.4376 H   0  0  0  0  0  0  0  0  0  0  0  0
   -5.4190   20.5057  -31.4376 H   0  0  0  0  0  0  0  0  0  0  0  0
   -4.9494   20.2447  -33.7134 H   0  0  0  0  0  0  0  0  0  0  0  0
   -7.3660   18.5730  -33.8460 H   0  0  0  0  0  0  0  0  0  0  0  0
   -7.0260   20.0380  -34.6210 H   0  0  0  0  0  0  0  0  0  0  0  0
   -7.2450   23.2060  -33.5740 H   0  0  0  0  0  0  0  0  0  0  0  0
   -7.2710   25.0059  -31.2198 H   0  0  0  0  0  0  0  0  0  0  0  0
   -5.5400   26.0280  -29.7395 H   0  0  0  0  0  0  0  0  0  0  0  0
   -2.7971   22.8335  -30.7269 H   0  0  0  0  0  0  0  0  0  0  0  0
   -4.5223   21.8034  -32.2043 H   0  0  0  0  0  0  0  0  0  0  0  0
   -5.0359   17.1582  -31.9779 H   0  0  0  0  0  0  0  0  0  0  0  0
   -6.1094   16.4886  -33.2530 H   0  0  0  0  0  0  0  0  0  0  0  0
   -4.3579   16.0900  -33.2530 H   0  0  0  0  0  0  0  0  0  0  0  0
   -2.8407   18.3399  -33.0508 H   0  0  0  0  0  0  0  0  0  0  0  0
   -2.8655   17.4329  -34.6011 H   0  0  0  0  0  0  0  0  0  0  0  0
   -3.0719   19.2173  -34.6011 H   0  0  0  0  0  0  0  0  0  0  0  0
   -6.3551   17.2761  -35.2262 H   0  0  0  0  0  0  0  0  0  0  0  0
   -5.5446   18.7388  -35.8821 H   0  0  0  0  0  0  0  0  0  0  0  0
   -4.6868   17.1606  -35.8821 H   0  0  0  0  0  0  0  0  0  0  0  0
  1  2  1  0
  2  3  1  0
  3  4  1  0
  4  5  2  0
  5  6  1  0
  6  7  1  0
  7  8  2  0
  8  9  1  0
  9 10  2  0
 10 11  1  0
 10 12  1  0
 12 13  2  0
  5 14  1  0
 14 15  2  0
 14 16  1  0
 16 17  2  0
  2 18  1  0
 18 19  1  0
 18 20  1  0
 18 21  1  0
 16  4  1  0
 13  7  1  0
  1 22  1  0
  1 23  1  0
  1 24  1  0
  2 25  1  6
  3 26  1  0
  3 27  1  0
  6 28  1  0
  8 29  1  0
  9 30  1  0
 12 31  1  0
 13 32  1  0
 19 33  1  0
 19 34  1  0
 19 35  1  0
 20 36  1  0
 20 37  1  0
 20 38  1  0
 21 39  1  0
 21 40  1  0
 21 41  1  0
M  CHG  1   3   1
M  END
>  <UniqueID>  (12) 
12

>  <SMILES>  (12) 
C[C@H]([NH2+]c1c(Nc2ccc(F)cc2)c(=O)c1=O)C(C)(C)C

>  <Energy>  (12) 
34.49403790267517

>  <Genealogy>  (12) 
CC([NH2+]c1c(Nc2ccc(F)cc2)c(=O)c1=O)C(C)(C)C (protonated)
C[C@H]([NH2+]c1c(Nc2ccc(F)cc2)c(=O)c1=O)C(C)(C)C (chirality)
C[C@H]([NH2+]c1c(Nc2ccc(F)cc2)c(=O)c1=O)C(C)(C)C (3D coordinates assigned)
C[C@H]([NH2+]c1c(Nc2ccc(F)cc2)c(=O)c1=O)C(C)(C)C (optimized conformer: 34.49403790267517 kcal/mol)

>  <smiles>  (12) 
CC(Nc1c(Nc2ccc(F)cc2)c(=O)c1=O)C(C)(C)C

>  <score_type>  (12) 
oracle

>  <origin>  (12) 
adgpu

>  <m_score__min__energy>  (12) 
-7.3300000000000001

>  <m_primary>  (12) 
energy

$$$$
12:0
     RDKit          3D

 48 50  0  0  0  0  0  0  0  0999 V2000
   -9.9580   21.1710  -31.9770 C   0  0  0  0  0  0  0  0  0  0  0  0
   -8.5690   20.7690  -31.7870 N   0  0  0  0  0  0  0  0  0  0  0  0
   -7.9350   19.6510  -32.4100 C   0  0  0  0  0  0  0  0  0  0  0  0
   -8.5780   18.7190  -32.9630 O   0  0  0  0  0  0  0  0  0  0  0  0
   -6.4310   19.7230  -32.3500 C   0  0  0  0  0  0  0  0  0  0  0  0
   -5.8560   18.5800  -31.5020 C   0  0  0  0  0  0  0  0  0  0  0  0
   -5.8220   19.7500  -33.7590 C   0  0  0  0  0  0  0  0  0  0  0  0
   -6.2700   21.0510  -31.6590 C   0  0  0  0  0  0  0  0  0  0  0  0
   -5.0850   21.7090  -31.3160 C   0  0  0  0  0  0  0  0  0  0  0  0
   -5.1650   22.9530  -30.6660 C   0  0  0  0  0  0  0  0  0  0  0  0
   -3.6990   23.7900  -30.1600 S   0  0  0  0  0  0  0  0  0  0  0  0
   -2.5160   23.2550  -30.9170 O   0  0  0  0  0  0  0  0  0  0  0  0
   -3.8450   25.2510  -30.4820 O   0  0  0  0  0  0  0  0  0  0  0  0
   -3.4050   23.6160  -28.4500 N   0  0  0  0  0  0  0  0  0  0  0  0
   -3.8940   22.3350  -27.9350 C   0  0  0  0  0  0  0  0  0  0  0  0
   -2.8220   21.2740  -27.9470 C   0  0  0  0  0  0  0  0  0  0  0  0
   -2.9390   20.1380  -27.1310 C   0  0  0  0  0  0  0  0  0  0  0  0
   -1.9490   19.1530  -27.1460 C   0  0  0  0  0  0  0  0  0  0  0  0
   -0.8210   19.2990  -27.9660 C   0  0  0  0  0  0  0  0  0  0  0  0
    0.4180   18.0500  -28.0070 S   0  0  0  0  0  0  0  0  0  0  0  0
   -0.0890   16.7070  -27.0440 N   0  0  0  0  0  0  0  0  0  0  0  0
    0.6340   17.6030  -29.4260 O   0  0  0  0  0  0  0  0  0  0  0  0
    1.7120   18.5910  -27.4700 O   0  0  0  0  0  0  0  0  0  0  0  0
   -0.6950   20.4390  -28.7710 C   0  0  0  0  0  0  0  0  0  0  0  0
   -1.6860   21.4250  -28.7560 C   0  0  0  0  0  0  0  0  0  0  0  0
   -6.4260   23.5240  -30.3900 C   0  0  0  0  0  0  0  0  0  0  0  0
   -7.6060   22.8520  -30.7450 C   0  0  0  0  0  0  0  0  0  0  0  0
   -7.5000   21.6100  -31.3740 C   0  0  0  0  0  0  0  0  0  0  0  0
  -10.4370   21.3096  -30.9965 H   0  0  0  0  0  0  0  0  0  0  0  0
   -9.9926   22.1160  -32.5389 H   0  0  0  0  0  0  0  0  0  0  0  0
  -10.4920   20.3905  -32.5389 H   0  0  0  0  0  0  0  0  0  0  0  0
   -5.9761   18.8188  -30.4350 H   0  0  0  0  0  0  0  0  0  0  0  0
   -6.3922   17.6474  -31.7317 H   0  0  0  0  0  0  0  0  0  0  0  0
   -4.7876   18.4547  -31.7317 H   0  0  0  0  0  0  0  0  0  0  0  0
   -4.7257   19.7986  -33.6837 H   0  0  0  0  0  0  0  0  0  0  0  0
   -6.1122   18.8381  -34.3014 H   0  0  0  0  0  0  0  0  0  0  0  0
   -6.1918   20.6326  -34.3014 H   0  0  0  0  0  0  0  0  0  0  0  0
   -4.1079   21.2615  -31.5505 H   0  0  0  0  0  0  0  0  0  0  0  0
   -4.2410   22.4773  -26.9009 H   0  0  0  0  0  0  0  0  0  0  0  0
   -4.7130   21.9974  -28.5871 H   0  0  0  0  0  0  0  0  0  0  0  0
   -3.8153   20.0229  -26.4761 H   0  0  0  0  0  0  0  0  0  0  0  0
   -2.0545   18.2599  -26.5126 H   0  0  0  0  0  0  0  0  0  0  0  0
   -0.8690   17.0440  -26.4360 H   0  0  0  0  0  0  0  0  0  0  0  0
    0.7070   16.4700  -26.4080 H   0  0  0  0  0  0  0  0  0  0  0  0
    0.1871   20.5586  -29.4173 H   0  0  0  0  0  0  0  0  0  0  0  0
   -1.5744   22.3231  -29.3813 H   0  0  0  0  0  0  0  0  0  0  0  0
   -6.4844   24.5034  -29.8927 H   0  0  0  0  0  0  0  0  0  0  0  0
   -8.5909   23.2934  -30.5327 H   0  0  0  0  0  0  0  0  0  0  0  0
  1  2  1  0
  2  3  1  0
  3  4  2  0
  3  5  1  0
  5  6  1  0
  5  7  1  0
  5  8  1  0
  8  9  2  0
  9 10  1  0
 10 11  1  0
 11 12  2  0
 11 13  2  0
 11 14  1  0
 14 15  1  0
 15 16  1  0
 16 17  2  0
 17 18  1  0
 18 19  2  0
 19 20  1  0
 20 21  1  0
 20 22  2  0
 20 23  2  0
 19 24  1  0
 24 25  2  0
 10 26  2  0
 26 27  1  0
 27 28  2  0
 28  2  1  0
 28  8  1  0
 25 16  1  0
  1 29  1  0
  1 30  1  0
  1 31  1  0
  6 32  1  0
  6 33  1  0
  6 34  1  0
  7 35  1  0
  7 36  1  0
  7 37  1  0
  9 38  1  0
 15 39  1  0
 15 40  1  0
 17 41  1  0
 18 42  1  0
 21 43  1  0
 21 44  1  0
 24 45  1  0
 25 46  1  0
 26 47  1  0
 27 48  1  0
M  CHG  1  14  -1
M  END
>  <UniqueID>  (13) 
13

>  <SMILES>  (13) 
CN1C(=O)C(C)(C)c2cc(S(=O)(=O)[N-]Cc3ccc(S(N)(=O)=O)cc3)ccc21

>  <Energy>  (13) 
60.95592319890698

>  <Genealogy>  (13) 
CN1C(=O)C(C)(C)c2cc(S(=O)(=O)[N-]Cc3ccc(S(N)(=O)=O)cc3)ccc21 (protonated)
CN1C(=O)C(C)(C)c2cc(S(=O)(=O)[N-]Cc3ccc(S(N)(=O)=O)cc3)ccc21 (3D coordinates assigned)
CN1C(=O)C(C)(C)c2cc(S(=O)(=O)[N-]Cc3ccc(S(N)(=O)=O)cc3)ccc21 (nonaromatic ring conformer: 60.95592319890698 kcal/mol)

>  <smiles>  (13) 
CN1C(=O)C(C)(C)c2cc(S(=O)(=O)NCc3ccc(S(N)(=O)=O)cc3)ccc21

>  <score_type>  (13) 
oracle

>  <origin>  (13) 
adgpu

>  <m_score__min__energy>  (13) 
-11.15

>  <m_primary>  (13) 
energy

$$$$
13:0
     RDKit          3D

 48 51  0  0  0  0  0  0  0  0999 V2000
   -5.4810   24.2610  -31.5540 O   0  0  0  0  0  0  0  0  0  0  0  0
   -5.7750   23.2290  -30.8930 C   0  0  0  0  0  0  0  0  0  0  0  0
   -4.9720   22.8410  -29.7710 N   0  0  0  0  0  0  0  0  0  0  0  0
   -3.5940   23.1720  -29.5500 C   0  0  0  0  0  0  0  0  0  0  0  0
   -2.5990   22.1840  -29.4310 C   0  0  0  0  0  0  0  0  0  0  0  0
   -1.2740   22.5470  -29.1770 C   0  0  0  0  0  0  0  0  0  0  0  0
   -0.9270   23.8940  -29.0260 C   0  0  0  0  0  0  0  0  0  0  0  0
    0.4030   24.2290  -28.7750 O   0  0  0  0  0  0  0  0  0  0  0  0
   -1.9190   24.8820  -29.1230 C   0  0  0  0  0  0  0  0  0  0  0  0
   -1.5970   26.2250  -28.9660 O   0  0  0  0  0  0  0  0  0  0  0  0
   -3.2470   24.5170  -29.3770 C   0  0  0  0  0  0  0  0  0  0  0  0
   -6.9610   22.4240  -31.2640 C   0  0  0  0  0  0  0  0  0  0  0  0
   -8.1720   23.0510  -31.6090 C   0  0  0  0  0  0  0  0  0  0  0  0
   -9.2630   22.2920  -32.0350 C   0  0  0  0  0  0  0  0  0  0  0  0
   -9.1590   20.9040  -32.1350 C   0  0  0  0  0  0  0  0  0  0  0  0
   -7.9630   20.2610  -31.7880 C   0  0  0  0  0  0  0  0  0  0  0  0
   -7.7900   18.5150  -32.0000 S   0  0  0  0  0  0  0  0  0  0  0  0
   -6.9850   17.9570  -30.8590 O   0  0  0  0  0  0  0  0  0  0  0  0
   -9.1500   17.8720  -31.9660 O   0  0  0  0  0  0  0  0  0  0  0  0
   -7.0340   18.1280  -33.5330 N   0  0  0  0  0  0  0  0  0  0  0  0
   -6.1240   16.9500  -33.4340 C   0  0  0  0  0  0  0  0  0  0  0  0
   -4.7240   17.1600  -34.0430 C   0  0  0  0  0  0  0  0  0  0  0  0
   -4.1880   18.5020  -33.6490 C   0  0  0  0  0  0  0  0  0  0  0  0
   -2.8590   18.6850  -33.2390 C   0  0  0  0  0  0  0  0  0  0  0  0
   -2.4070   19.9630  -32.8980 C   0  0  0  0  0  0  0  0  0  0  0  0
   -3.2740   21.0590  -32.9760 C   0  0  0  0  0  0  0  0  0  0  0  0
   -4.5950   20.8790  -33.3960 C   0  0  0  0  0  0  0  0  0  0  0  0
   -5.0560   19.5960  -33.7240 C   0  0  0  0  0  0  0  0  0  0  0  0
   -6.4700   19.3420  -34.1690 C   0  0  0  0  0  0  0  0  0  0  0  0
   -6.8770   21.0220  -31.3330 C   0  0  0  0  0  0  0  0  0  0  0  0
   -2.8654   21.1222  -29.5383 H   0  0  0  0  0  0  0  0  0  0  0  0
   -0.4997   21.7699  -29.0953 H   0  0  0  0  0  0  0  0  0  0  0  0
    0.6890   25.1790  -28.5750 H   0  0  0  0  0  0  0  0  0  0  0  0
   -4.0236   25.2934  -29.4411 H   0  0  0  0  0  0  0  0  0  0  0  0
   -8.2596   24.1455  -31.5427 H   0  0  0  0  0  0  0  0  0  0  0  0
  -10.2092   22.7902  -32.2931 H   0  0  0  0  0  0  0  0  0  0  0  0
  -10.0176   20.3133  -32.4869 H   0  0  0  0  0  0  0  0  0  0  0  0
   -6.0001   16.7022  -32.3695 H   0  0  0  0  0  0  0  0  0  0  0  0
   -6.5964   16.1448  -34.0158 H   0  0  0  0  0  0  0  0  0  0  0  0
   -4.0461   16.3753  -33.6761 H   0  0  0  0  0  0  0  0  0  0  0  0
   -4.7966   17.1088  -35.1394 H   0  0  0  0  0  0  0  0  0  0  0  0
   -2.1747   17.8254  -33.1860 H   0  0  0  0  0  0  0  0  0  0  0  0
   -1.3678   20.1076  -32.5677 H   0  0  0  0  0  0  0  0  0  0  0  0
   -2.9154   22.0633  -32.7064 H   0  0  0  0  0  0  0  0  0  0  0  0
   -5.2721   21.7428  -33.4691 H   0  0  0  0  0  0  0  0  0  0  0  0
   -7.0907   20.2084  -33.8968 H   0  0  0  0  0  0  0  0  0  0  0  0
   -6.4648   19.1881  -35.2582 H   0  0  0  0  0  0  0  0  0  0  0  0
   -5.9491   20.5169  -31.0266 H   0  0  0  0  0  0  0  0  0  0  0  0
  1  2  2  0
  2  3  1  0
  3  4  1  0
  4  5  2  0
  5  6  1  0
  6  7  2  0
  7  8  1  0
  7  9  1  0
  9 10  1  0
  9 11  2  0
  2 12  1  0
 12 13  2  0
 13 14  1  0
 14 15  2  0
 15 16  1  0
 16 17  1  0
 17 18  2  0
 17 19  2  0
 17 20  1  0
 20 21  1  0
 21 22  1  0
 22 23  1  0
 23 24  2  0
 24 25  1  0
 25 26  2  0
 26 27  1  0
 27 28  2  0
 28 29  1  0
 16 30  2  0
 11  4  1  0
 30 12  1  0
 29 20  1  0
 28 23  1  0
  5 31  1  0
  6 32  1  0
  8 33  1  0
 11 34  1  0
 13 35  1  0
 14 36  1  0
 15 37  1  0
 21 38  1  0
 21 39  1  0
 22 40  1  0
 22 41  1  0
 24 42  1  0
 25 43  1  0
 26 44  1  0
 27 45  1  0
 29 46  1  0
 29 47  1  0
 30 48  1  0
M  CHG  2   3  -1  10  -1
M  END
>  <UniqueID>  (14) 
14

>  <SMILES>  (14) 
O=C([N-]c1ccc(O)c([O-])c1)c1cccc(S(=O)(=O)N2CCc3ccccc3C2)c1

>  <Energy>  (14) 
61.738998795556626

>  <Genealogy>  (14) 
O=C([N-]c1ccc(O)c([O-])c1)c1cccc(S(=O)(=O)N2CCc3ccccc3C2)c1 (protonated)
O=C([N-]c1ccc(O)c([O-])c1)c1cccc(S(=O)(=O)N2CCc3ccccc3C2)c1 (3D coordinates assigned)
O=C([N-]c1ccc(O)c([O-])c1)c1cccc(S(=O)(=O)N2CCc3ccccc3C2)c1 (nonaromatic ring conformer: 61.738998795556626 kcal/mol)

>  <smiles>  (14) 
O=C(Nc1ccc(O)c(O)c1)c1cccc(S(=O)(=O)N2CCc3ccccc3C2)c1

>  <score_type>  (14) 
oracle

>  <origin>  (14) 
adgpu

>  <m_score__min__energy>  (14) 
-13.92

>  <m_primary>  (14) 
energy

$$$$
14:0
     RDKit          3D

 26 27  0  0  0  0  0  0  0  0999 V2000
   -3.1310   22.7890  -31.4980 C   0  0  0  0  0  0  0  0  0  0  0  0
   -4.3960   23.5190  -31.1280 C   0  0  0  0  0  0  0  0  0  0  0  0
   -4.3360   24.7470  -30.4360 C   0  0  0  0  0  0  0  0  0  0  0  0
   -3.1140   25.2970  -30.0660 O   0  0  0  0  0  0  0  0  0  0  0  0
   -5.5120   25.4310  -30.1140 C   0  0  0  0  0  0  0  0  0  0  0  0
   -6.7530   24.9070  -30.4760 C   0  0  0  0  0  0  0  0  0  0  0  0
   -6.8230   23.7040  -31.1800 C   0  0  0  0  0  0  0  0  0  0  0  0
   -5.6510   23.0200  -31.5410 C   0  0  0  0  0  0  0  0  0  0  0  0
   -5.7290   21.7650  -32.2380 N   0  0  0  0  0  0  0  0  0  0  0  0
   -6.6520   20.8530  -32.1060 C   0  0  0  0  0  0  0  0  0  0  0  0
   -7.8760   21.0570  -31.2820 C   0  0  0  0  0  0  0  0  0  0  0  0
   -8.7940   20.0890  -31.1860 C   0  0  0  0  0  0  0  0  0  0  0  0
   -8.6120   18.8160  -31.9050 C   0  0  0  0  0  0  0  0  0  0  0  0
   -9.4720   17.9030  -31.8010 O   0  0  0  0  0  0  0  0  0  0  0  0
   -7.4240   18.6230  -32.7540 C   0  0  0  0  0  0  0  0  0  0  0  0
   -6.5040   19.5870  -32.8550 C   0  0  0  0  0  0  0  0  0  0  0  0
   -2.6026   22.4840  -30.5827 H   0  0  0  0  0  0  0  0  0  0  0  0
   -3.3823   21.8971  -32.0907 H   0  0  0  0  0  0  0  0  0  0  0  0
   -2.4845   23.4529  -32.0907 H   0  0  0  0  0  0  0  0  0  0  0  0
   -5.4584   26.3870  -29.5726 H   0  0  0  0  0  0  0  0  0  0  0  0
   -7.6759   25.4416  -30.2068 H   0  0  0  0  0  0  0  0  0  0  0  0
   -7.8039   23.2884  -31.4542 H   0  0  0  0  0  0  0  0  0  0  0  0
   -8.0256   22.0081  -30.7500 H   0  0  0  0  0  0  0  0  0  0  0  0
   -9.6898   20.2442  -30.5668 H   0  0  0  0  0  0  0  0  0  0  0  0
   -7.2935   17.6813  -33.3073 H   0  0  0  0  0  0  0  0  0  0  0  0
   -5.6273   19.4369  -33.5023 H   0  0  0  0  0  0  0  0  0  0  0  0
  1  2  1  0
  2  3  2  0
  3  4  1  0
  3  5  1  0
  5  6  2  0
  6  7  1  0
  7  8  2  0
  8  9  1  0
  9 10  2  3
 10 11  1  0
 11 12  2  0
 12 13  1  0
 13 14  2  0
 13 15  1  0
 15 16  2  0
  8  2  1  0
 16 10  1  0
  1 17  1  0
  1 18  1  0
  1 19  1  0
  5 20  1  0
  6 21  1  0
  7 22  1  0
 11 23  1  0
 12 24  1  0
 15 25  1  0
 16 26  1  0
M  CHG  1   4  -1
M  END
>  <UniqueID>  (15) 
15

>  <SMILES>  (15) 
Cc1c([O-])cccc1N=C1C=CC(=O)C=C1

>  <Energy>  (15) 
33.33680508591623

>  <Genealogy>  (15) 
Cc1c([O-])cccc1N=C1C=CC(=O)C=C1 (protonated)
Cc1c([O-])cccc1N=C1C=CC(=O)C=C1 (3D coordinates assigned)
Cc1c([O-])cccc1N=C1C=CC(=O)C=C1 (nonaromatic ring conformer: 33.33680508591623 kcal/mol)

>  <smiles>  (15) 
Cc1c(O)cccc1N=C1C=CC(=O)C=C1

>  <score_type>  (15) 
oracle

>  <origin>  (15) 
adgpu

>  <m_score__min__energy>  (15) 
-10.630000000000001

>  <m_primary>  (15) 
energy

$$$$
15:0
     RDKit          3D

 46 49  0  0  0  0  0  0  0  0999 V2000
    0.4073   23.8694  -27.1246 H   0  0  0  0  0  0  0  0  0  0  0  0
    0.0020   22.9020  -27.4560 C   0  0  0  0  0  0  0  0  0  0  0  0
   -0.0070   22.5780  -28.8170 C   0  0  0  0  0  0  0  0  0  0  0  0
    0.4066   23.2852  -29.5510 H   0  0  0  0  0  0  0  0  0  0  0  0
   -0.5430   21.3510  -29.2510 C   0  0  0  0  0  0  0  0  0  0  0  0
   -0.5530   20.9680  -30.6380 N   0  0  0  0  0  0  0  0  0  0  0  0
   -1.5330   21.1210  -31.4820 C   0  0  0  0  0  0  0  0  0  0  0  0
   -2.7360   21.6140  -31.0760 N   0  0  0  0  0  0  0  0  0  0  0  0
   -3.7790   21.7510  -31.9370 C   0  0  0  0  0  0  0  0  0  0  0  0
   -5.0330   22.2690  -31.4600 N   0  0  0  0  0  0  0  0  0  0  0  0
   -5.2730   23.4090  -30.7500 C   0  0  0  0  0  0  0  0  0  0  0  0
   -4.2220   24.2860  -30.1890 C   0  0  0  0  0  0  0  0  0  0  0  0
   -3.8740   25.3070  -30.8430 O   0  0  0  0  0  0  0  0  0  0  0  0
   -3.5710   23.9920  -28.9330 N   0  0  0  0  0  0  0  0  0  0  0  0
   -4.1410   23.0170  -27.9960 C   0  0  0  0  0  0  0  0  0  0  0  0
   -3.9492   23.3451  -26.9637 H   0  0  0  0  0  0  0  0  0  0  0  0
   -5.2259   22.9408  -28.1610 H   0  0  0  0  0  0  0  0  0  0  0  0
   -3.6752   22.0343  -28.1610 H   0  0  0  0  0  0  0  0  0  0  0  0
   -2.3730   24.7490  -28.5580 C   0  0  0  0  0  0  0  0  0  0  0  0
   -2.2976   24.7966  -27.4616 H   0  0  0  0  0  0  0  0  0  0  0  0
   -1.4814   24.2499  -28.9655 H   0  0  0  0  0  0  0  0  0  0  0  0
   -2.4410   25.7685  -28.9655 H   0  0  0  0  0  0  0  0  0  0  0  0
   -6.5930   23.6050  -30.4890 N   0  0  0  0  0  0  0  0  0  0  0  0
   -7.1840   22.5450  -31.0670 C   0  0  0  0  0  0  0  0  0  0  0  0
   -8.5450   22.2540  -31.1080 C   0  0  0  0  0  0  0  0  0  0  0  0
   -9.2826   22.9153  -30.6298 H   0  0  0  0  0  0  0  0  0  0  0  0
   -8.9450   21.0850  -31.7820 C   0  0  0  0  0  0  0  0  0  0  0  0
  -10.0116   20.8208  -31.8325 H   0  0  0  0  0  0  0  0  0  0  0  0
   -7.9850   20.2490  -32.3940 C   0  0  0  0  0  0  0  0  0  0  0  0
   -8.3090   19.3386  -32.9195 H   0  0  0  0  0  0  0  0  0  0  0  0
   -6.6170   20.5730  -32.3360 C   0  0  0  0  0  0  0  0  0  0  0  0
   -5.8601   19.9350  -32.8156 H   0  0  0  0  0  0  0  0  0  0  0  0
   -6.2530   21.7350  -31.6470 C   0  0  0  0  0  0  0  0  0  0  0  0
   -3.6220   21.3510  -33.2680 C   0  0  0  0  0  0  0  0  0  0  0  0
   -4.4547   21.4355  -33.9818 H   0  0  0  0  0  0  0  0  0  0  0  0
   -2.3880   20.8430  -33.6710 C   0  0  0  0  0  0  0  0  0  0  0  0
   -2.2383   20.5281  -34.7143 H   0  0  0  0  0  0  0  0  0  0  0  0
   -1.3700   20.7360  -32.7780 N   0  0  0  0  0  0  0  0  0  0  0  0
   -0.4540   20.3460  -33.0970 H   0  0  0  0  0  0  0  0  0  0  0  0
   -1.0160   20.4370  -28.2990 C   0  0  0  0  0  0  0  0  0  0  0  0
   -1.3970   19.4577  -28.6244 H   0  0  0  0  0  0  0  0  0  0  0  0
   -1.0070   20.7610  -26.9400 C   0  0  0  0  0  0  0  0  0  0  0  0
   -1.3958   20.0437  -26.2022 H   0  0  0  0  0  0  0  0  0  0  0  0
   -0.5040   21.9970  -26.5150 C   0  0  0  0  0  0  0  0  0  0  0  0
   -0.4930   22.3300  -25.1160 C   0  0  0  0  0  0  0  0  0  0  0  0
   -0.4850   22.5990  -23.9890 N   0  0  0  0  0  0  0  0  0  0  0  0
  1  2  1  0
  2  3  2  0
  3  4  1  0
  3  5  1  0
  5  6  1  0
  6  7  2  0
  7  8  1  0
  8  9  2  0
  9 10  1  0
 10 11  1  0
 11 12  1  0
 12 13  2  0
 12 14  1  0
 14 15  1  0
 15 16  1  0
 15 17  1  0
 15 18  1  0
 14 19  1  0
 19 20  1  0
 19 21  1  0
 19 22  1  0
 11 23  2  0
 23 24  1  0
 24 25  2  0
 25 26  1  0
 25 27  1  0
 27 28  1  0
 27 29  2  0
 29 30  1  0
 29 31  1  0
 31 32  1  0
 31 33  2  0
  9 34  1  0
 34 35  1  0
 34 36  2  0
 36 37  1  0
 36 38  1  0
 38 39  1  0
  5 40  2  0
 40 41  1  0
 40 42  1  0
 42 43  1  0
 42 44  2  0
 44 45  1  0
 45 46  3  0
 44  2  1  0
 38  7  1  0
 33 10  1  0
 33 24  1  0
M  END
>  <UniqueID>  (16) 
16

>  <SMILES>  (16) 
CN(C)C(=O)c1nc2ccccc2n1-c1cc[nH]/c(=N/c2ccc(C#N)cc2)n1

>  <Energy>  (16) 
99.87357176971413

>  <Genealogy>  (16) 
CN(C)C(=O)c1nc2ccccc2n1-c1cc[nH]/c(=N/c2ccc(C#N)cc2)n1 (cis-trans isomerization)
CN(C)C(=O)c1nc2ccccc2n1-c1cc[nH]/c(=N/c2ccc(C#N)cc2)n1 (3D coordinates assigned)
CN(C)C(=O)c1nc2ccccc2n1-c1cc[nH]/c(=N/c2ccc(C#N)cc2)n1 (optimized conformer: 99.87357176971413 kcal/mol)

>  <smiles>  (16) 
CN(C)C(=O)c1nc2ccccc2n1-c1cc[nH]c(=Nc2ccc(C#N)cc2)n1

>  <score_type>  (16) 
oracle

>  <origin>  (16) 
adgpu

>  <m_score__min__energy>  (16) 
-9.5600000000000005

>  <m_primary>  (16) 
energy

$$$$
16:0
     RDKit          3D

 57 60  0  0  0  0  0  0  0  0999 V2000
   -0.2510   19.6460  -31.5350 C   0  0  0  0  0  0  0  0  0  0  0  0
   -0.3560   19.2330  -30.0980 C   0  0  0  0  0  0  0  0  0  0  0  0
    0.2890   18.0720  -29.6460 C   0  0  0  0  0  0  0  0  0  0  0  0
    0.2340   17.7160  -28.2970 C   0  0  0  0  0  0  0  0  0  0  0  0
   -0.4630   18.5160  -27.3880 C   0  0  0  0  0  0  0  0  0  0  0  0
   -1.1130   19.6820  -27.8240 C   0  0  0  0  0  0  0  0  0  0  0  0
   -1.8040   20.5850  -26.8360 C   0  0  0  0  0  0  0  0  0  0  0  0
   -2.4530   21.6980  -27.5270 N   0  0  0  0  0  0  0  0  0  0  0  0
   -1.8480   22.7070  -28.1730 C   0  0  0  0  0  0  0  0  0  0  0  0
   -2.8510   23.5490  -28.6030 C   0  0  0  0  0  0  0  0  0  0  0  0
   -2.7150   24.8210  -29.3360 C   0  0  0  0  0  0  0  0  0  0  0  0
   -1.8640   25.6570  -28.9340 O   0  0  0  0  0  0  0  0  0  0  0  0
   -3.5250   25.1590  -30.4720 N   0  0  0  0  0  0  0  0  0  0  0  0
   -4.9280   24.8030  -30.6660 C   0  0  0  0  0  0  0  0  0  0  0  0
   -5.0730   23.2960  -30.9010 C   0  0  0  0  0  0  0  0  0  0  0  0
   -3.9190   22.7650  -31.6630 N   0  0  0  0  0  0  0  0  0  0  0  0
   -4.2590   22.4860  -33.0850 C   0  0  0  0  0  0  0  0  0  0  0  0
   -4.5900   21.0050  -33.3660 C   0  0  0  0  0  0  0  0  0  0  0  0
   -5.1190   20.3650  -32.1580 N   0  0  0  0  0  0  0  0  0  0  0  0
   -6.4720   19.8660  -32.1070 C   0  0  0  0  0  0  0  0  0  0  0  0
   -6.7160   18.4850  -31.9790 C   0  0  0  0  0  0  0  0  0  0  0  0
   -8.0240   17.9960  -31.9450 C   0  0  0  0  0  0  0  0  0  0  0  0
   -9.1030   18.8750  -32.0510 C   0  0  0  0  0  0  0  0  0  0  0  0
   -8.8760   20.2470  -32.1850 C   0  0  0  0  0  0  0  0  0  0  0  0
   -7.5680   20.7450  -32.2130 C   0  0  0  0  0  0  0  0  0  0  0  0
   -7.3770   22.0840  -32.3140 F   0  0  0  0  0  0  0  0  0  0  0  0
   -4.2950   20.4040  -30.9440 C   0  0  0  0  0  0  0  0  0  0  0  0
   -3.3140   21.5900  -30.9960 C   0  0  0  0  0  0  0  0  0  0  0  0
   -4.0290   23.0500  -28.1710 N   0  0  0  0  0  0  0  0  0  0  0  0
   -3.7560   21.9250  -27.5230 N   0  0  0  0  0  0  0  0  0  0  0  0
   -1.0390   20.0470  -29.1790 C   0  0  0  0  0  0  0  0  0  0  0  0
    0.0197   20.7107  -31.5917 H   0  0  0  0  0  0  0  0  0  0  0  0
    0.5226   19.0439  -32.0340 H   0  0  0  0  0  0  0  0  0  0  0  0
   -1.2183   19.4865  -32.0340 H   0  0  0  0  0  0  0  0  0  0  0  0
    0.8404   17.4395  -30.3573 H   0  0  0  0  0  0  0  0  0  0  0  0
    0.7406   16.8037  -27.9491 H   0  0  0  0  0  0  0  0  0  0  0  0
   -0.5028   18.2313  -26.3262 H   0  0  0  0  0  0  0  0  0  0  0  0
   -2.5627   20.0078  -26.2871 H   0  0  0  0  0  0  0  0  0  0  0  0
   -1.0554   20.9875  -26.1377 H   0  0  0  0  0  0  0  0  0  0  0  0
   -0.7667   22.8363  -28.3284 H   0  0  0  0  0  0  0  0  0  0  0  0
   -5.5003   25.0862  -29.7703 H   0  0  0  0  0  0  0  0  0  0  0  0
   -5.3118   25.3384  -31.5469 H   0  0  0  0  0  0  0  0  0  0  0  0
   -5.1288   22.7839  -29.9291 H   0  0  0  0  0  0  0  0  0  0  0  0
   -5.9894   23.1182  -31.4829 H   0  0  0  0  0  0  0  0  0  0  0  0
   -5.1332   23.0950  -33.3587 H   0  0  0  0  0  0  0  0  0  0  0  0
   -3.3696   22.7350  -33.6824 H   0  0  0  0  0  0  0  0  0  0  0  0
   -5.3419   20.9466  -34.1668 H   0  0  0  0  0  0  0  0  0  0  0  0
   -3.6711   20.4847  -33.6740 H   0  0  0  0  0  0  0  0  0  0  0  0
   -5.8699   17.7859  -31.9052 H   0  0  0  0  0  0  0  0  0  0  0  0
   -8.2040   16.9165  -31.8345 H   0  0  0  0  0  0  0  0  0  0  0  0
  -10.1322   18.4875  -32.0290 H   0  0  0  0  0  0  0  0  0  0  0  0
   -9.7277   20.9381  -32.2688 H   0  0  0  0  0  0  0  0  0  0  0  0
   -4.9487   20.5132  -30.0661 H   0  0  0  0  0  0  0  0  0  0  0  0
   -3.7196   19.4691  -30.8743 H   0  0  0  0  0  0  0  0  0  0  0  0
   -3.0332   21.8670  -29.9692 H   0  0  0  0  0  0  0  0  0  0  0  0
   -2.4301   21.2820  -31.5738 H   0  0  0  0  0  0  0  0  0  0  0  0
   -1.5187   20.9755  -29.5221 H   0  0  0  0  0  0  0  0  0  0  0  0
  1  2  1  0
  2  3  2  0
  3  4  1  0
  4  5  2  0
  5  6  1  0
  6  7  1  0
  7  8  1  0
  8  9  1  0
  9 10  2  0
 10 11  1  0
 11 12  2  0
 11 13  1  0
 13 14  1  0
 14 15  1  0
 15 16  1  0
 16 17  1  0
 17 18  1  0
 18 19  1  0
 19 20  1  0
 20 21  2  0
 21 22  1  0
 22 23  2  0
 23 24  1  0
 24 25  2  0
 25 26  1  0
 19 27  1  0
 27 28  1  0
 10 29  1  0
 29 30  2  0
  6 31  2  0
 31  2  1  0
 30  8  1  0
 28 16  1  0
 25 20  1  0
  1 32  1  0
  1 33  1  0
  1 34  1  0
  3 35  1  0
  4 36  1  0
  5 37  1  0
  7 38  1  0
  7 39  1  0
  9 40  1  0
 14 41  1  0
 14 42  1  0
 15 43  1  0
 15 44  1  0
 17 45  1  0
 17 46  1  0
 18 47  1  0
 18 48  1  0
 21 49  1  0
 22 50  1  0
 23 51  1  0
 24 52  1  0
 27 53  1  0
 27 54  1  0
 28 55  1  0
 28 56  1  0
 31 57  1  0
M  CHG  1  13  -1
M  END
>  <UniqueID>  (17) 
17

>  <SMILES>  (17) 
Cc1cccc(Cn2cc(C(=O)[N-]CCN3CCN(c4ccccc4F)CC3)nn2)c1

>  <Energy>  (17) 
106.07444781967732

>  <Genealogy>  (17) 
Cc1cccc(Cn2cc(C(=O)[N-]CCN3CCN(c4ccccc4F)CC3)nn2)c1 (protonated)
Cc1cccc(Cn2cc(C(=O)[N-]CCN3CCN(c4ccccc4F)CC3)nn2)c1 (3D coordinates assigned)
Cc1cccc(Cn2cc(C(=O)[N-]CCN3CCN(c4ccccc4F)CC3)nn2)c1 (nonaromatic ring conformer: 106.07444781967732 kcal/mol)

>  <smiles>  (17) 
Cc1cccc(Cn2cc(C(=O)NCCN3CCN(c4ccccc4F)CC3)nn2)c1

>  <score_type>  (17) 
oracle

>  <origin>  (17) 
adgpu

>  <m_score__min__energy>  (17) 
-11.57

>  <m_primary>  (17) 
energy

$$$$
17:0
     RDKit          3D

 49 52  0  0  0  0  0  0  0  0999 V2000
   -1.6360   21.1340  -33.4410 C   0  0  0  0  0  0  0  0  0  0  0  0
   -0.0010   21.4550  -34.1540 S   0  0  0  0  0  0  0  0  0  0  0  0
    0.2320   19.7610  -34.7030 C   0  0  0  0  0  0  0  0  0  0  0  0
    1.4860   19.3500  -35.1620 C   0  0  0  0  0  0  0  0  0  0  0  0
    1.6720   18.0450  -35.6140 C   0  0  0  0  0  0  0  0  0  0  0  0
    0.6030   17.1450  -35.6130 C   0  0  0  0  0  0  0  0  0  0  0  0
   -0.6620   17.5370  -35.1520 C   0  0  0  0  0  0  0  0  0  0  0  0
   -1.7450   16.5920  -35.1960 N   0  0  0  0  0  0  0  0  0  0  0  0
   -2.2970   15.9570  -34.0390 C   0  0  0  0  0  0  0  0  0  0  0  0
   -1.5180   15.5200  -33.1480 O   0  0  0  0  0  0  0  0  0  0  0  0
   -3.7210   15.8110  -33.8740 N   0  0  0  0  0  0  0  0  0  0  0  0
   -4.2450   15.6590  -32.5050 C   0  0  0  0  0  0  0  0  0  0  0  0
   -5.6840   16.1840  -32.3920 C   0  0  0  0  0  0  0  0  0  0  0  0
   -5.8400   17.3960  -33.2100 N   0  0  0  0  0  0  0  0  0  0  0  0
   -6.3280   18.6190  -32.6280 C   0  0  0  0  0  0  0  0  0  0  0  0
   -5.5430   19.6590  -32.2890 N   0  0  0  0  0  0  0  0  0  0  0  0
   -6.2820   20.7240  -31.8460 C   0  0  0  0  0  0  0  0  0  0  0  0
   -5.6440   22.0160  -31.5040 C   0  0  0  0  0  0  0  0  0  0  0  0
   -4.2790   22.0740  -31.1650 C   0  0  0  0  0  0  0  0  0  0  0  0
   -3.6880   23.2940  -30.8360 C   0  0  0  0  0  0  0  0  0  0  0  0
   -4.4540   24.4600  -30.8210 C   0  0  0  0  0  0  0  0  0  0  0  0
   -3.8650   25.6700  -30.4870 O   0  0  0  0  0  0  0  0  0  0  0  0
   -5.8140   24.4120  -31.1500 C   0  0  0  0  0  0  0  0  0  0  0  0
   -6.4020   23.2010  -31.5030 C   0  0  0  0  0  0  0  0  0  0  0  0
   -7.6370   20.5750  -31.8360 N   0  0  0  0  0  0  0  0  0  0  0  0
   -7.9220   19.0490  -32.4190 S   0  0  0  0  0  0  0  0  0  0  0  0
   -5.4560   17.3680  -34.6300 C   0  0  0  0  0  0  0  0  0  0  0  0
   -4.6700   16.1000  -34.9590 C   0  0  0  0  0  0  0  0  0  0  0  0
   -0.8430   18.8620  -34.6990 C   0  0  0  0  0  0  0  0  0  0  0  0
   -1.5664   21.1477  -32.3433 H   0  0  0  0  0  0  0  0  0  0  0  0
   -2.3400   21.9111  -33.7735 H   0  0  0  0  0  0  0  0  0  0  0  0
   -1.9939   20.1484  -33.7735 H   0  0  0  0  0  0  0  0  0  0  0  0
    2.3280   20.0578  -35.1666 H   0  0  0  0  0  0  0  0  0  0  0  0
    2.6611   17.7231  -35.9719 H   0  0  0  0  0  0  0  0  0  0  0  0
    0.7554   16.1184  -35.9776 H   0  0  0  0  0  0  0  0  0  0  0  0
   -2.0540   16.2570  -36.1310 H   0  0  0  0  0  0  0  0  0  0  0  0
   -4.2309   14.5932  -32.2331 H   0  0  0  0  0  0  0  0  0  0  0  0
   -3.6093   16.2449  -31.8249 H   0  0  0  0  0  0  0  0  0  0  0  0
   -6.3828   15.4121  -32.7467 H   0  0  0  0  0  0  0  0  0  0  0  0
   -5.8998   16.4261  -31.3409 H   0  0  0  0  0  0  0  0  0  0  0  0
   -3.6762   21.1539  -31.1595 H   0  0  0  0  0  0  0  0  0  0  0  0
   -2.6171   23.3368  -30.5882 H   0  0  0  0  0  0  0  0  0  0  0  0
   -6.4177   25.3313  -31.1295 H   0  0  0  0  0  0  0  0  0  0  0  0
   -7.4654   23.1703  -31.7828 H   0  0  0  0  0  0  0  0  0  0  0  0
   -6.3647   17.3989  -35.2492 H   0  0  0  0  0  0  0  0  0  0  0  0
   -4.8184   18.2398  -34.8382 H   0  0  0  0  0  0  0  0  0  0  0  0
   -5.3668   15.2561  -35.0700 H   0  0  0  0  0  0  0  0  0  0  0  0
   -4.1165   16.2473  -35.8981 H   0  0  0  0  0  0  0  0  0  0  0  0
   -1.8306   19.1895  -34.3420 H   0  0  0  0  0  0  0  0  0  0  0  0
  1  2  1  0
  2  3  1  0
  3  4  2  0
  4  5  1  0
  5  6  2  0
  6  7  1  0
  7  8  1  0
  8  9  1  0
  9 10  2  0
  9 11  1  0
 11 12  1  0
 12 13  1  0
 13 14  1  0
 14 15  1  0
 15 16  2  0
 16 17  1  0
 17 18  1  0
 18 19  2  0
 19 20  1  0
 20 21  2  0
 21 22  1  0
 21 23  1  0
 23 24  2  0
 17 25  2  0
 25 26  1  0
 14 27  1  0
 27 28  1  0
  7 29  2  0
 29  3  1  0
 28 11  1  0
 26 15  1  0
 24 18  1  0
  1 30  1  0
  1 31  1  0
  1 32  1  0
  4 33  1  0
  5 34  1  0
  6 35  1  0
  8 36  1  0
 12 37  1  0
 12 38  1  0
 13 39  1  0
 13 40  1  0
 19 41  1  0
 20 42  1  0
 23 43  1  0
 24 44  1  0
 27 45  1  0
 27 46  1  0
 28 47  1  0
 28 48  1  0
 29 49  1  0
M  CHG  1  22  -1
M  END
>  <UniqueID>  (18) 
18

>  <SMILES>  (18) 
CSc1cccc(NC(=O)N2CCN(c3nc(-c4ccc([O-])cc4)ns3)CC2)c1

>  <Energy>  (18) 
97.53922820330308

>  <Genealogy>  (18) 
CSc1cccc(NC(=O)N2CCN(c3nc(-c4ccc([O-])cc4)ns3)CC2)c1 (protonated)
CSc1cccc(NC(=O)N2CCN(c3nc(-c4ccc([O-])cc4)ns3)CC2)c1 (3D coordinates assigned)
CSc1cccc(NC(=O)N2CCN(c3nc(-c4ccc([O-])cc4)ns3)CC2)c1 (nonaromatic ring conformer: 97.53922820330308 kcal/mol)

>  <smiles>  (18) 
CSc1cccc(NC(=O)N2CCN(c3nc(-c4ccc(O)cc4)ns3)CC2)c1

>  <score_type>  (18) 
oracle

>  <origin>  (18) 
adgpu

>  <m_score__min__energy>  (18) 
-10.77

>  <m_primary>  (18) 
energy

$$$$
18:0
     RDKit          3D

 39 41  0  0  1  0  0  0  0  0999 V2000
   -9.5070   19.5510  -32.6590 C   0  0  0  0  0  0  0  0  0  0  0  0
   -8.1160   20.0990  -32.6990 C   0  0  0  0  0  0  0  0  0  0  0  0
   -7.7910   21.2240  -32.0270 N   0  0  0  0  0  0  0  0  0  0  0  0
   -6.5560   21.7510  -32.0350 C   0  0  0  0  0  0  0  0  0  0  0  0
   -6.3090   22.9710  -31.2760 C   0  0  0  0  0  0  0  0  0  0  0  0
   -7.3800   23.5410  -30.6210 C   0  0  0  0  0  0  0  0  0  0  0  0
   -7.2300   24.6930  -29.8820 C   0  0  0  0  0  0  0  0  0  0  0  0
   -6.0120   25.3030  -29.7800 C   0  0  0  0  0  0  0  0  0  0  0  0
   -4.9290   24.7520  -30.4250 C   0  0  0  0  0  0  0  0  0  0  0  0
   -3.6620   25.3060  -30.3710 O   0  0  0  0  0  0  0  0  0  0  0  0
   -5.0960   23.5840  -31.1690 C   0  0  0  0  0  0  0  0  0  0  0  0
   -5.5800   21.1050  -32.7670 C   0  0  0  0  0  0  0  0  0  0  0  0
   -5.9430   19.9630  -33.4380 C   0  0  0  0  0  0  0  0  0  0  0  0
   -5.0560   19.3530  -34.1190 N   0  0  0  0  0  0  0  0  0  0  0  0
   -5.2330   18.1490  -34.8880 C   0  0  0  0  0  0  0  0  0  0  0  0
   -4.8030   16.9180  -34.1700 C   0  0  0  0  0  0  0  0  0  0  0  0
   -5.7340   15.9750  -33.7200 C   0  0  0  0  0  0  0  0  0  0  0  0
   -5.3520   14.8310  -33.0530 C   0  0  0  0  0  0  0  0  0  0  0  0
   -4.0250   14.5650  -32.7970 C   0  0  0  0  0  0  0  0  0  0  0  0
   -3.0960   15.4810  -33.2320 C   0  0  0  0  0  0  0  0  0  0  0  0
   -3.4820   16.6240  -33.8990 C   0  0  0  0  0  0  0  0  0  0  0  0
   -7.1820   19.4570  -33.4150 N   0  0  0  0  0  0  0  0  0  0  0  0
   -9.8222   19.4268  -31.6125 H   0  0  0  0  0  0  0  0  0  0  0  0
  -10.1901   20.2472  -33.1676 H   0  0  0  0  0  0  0  0  0  0  0  0
   -9.5317   18.5759  -33.1676 H   0  0  0  0  0  0  0  0  0  0  0  0
   -8.3705   23.0676  -30.6900 H   0  0  0  0  0  0  0  0  0  0  0  0
   -8.1005   25.1269  -29.3681 H   0  0  0  0  0  0  0  0  0  0  0  0
   -5.8985   26.2239  -29.1891 H   0  0  0  0  0  0  0  0  0  0  0  0
   -3.4360   26.0330  -29.7170 H   0  0  0  0  0  0  0  0  0  0  0  0
   -4.2271   23.1465  -31.6823 H   0  0  0  0  0  0  0  0  0  0  0  0
   -4.5506   21.4903  -32.8112 H   0  0  0  0  0  0  0  0  0  0  0  0
   -6.2991   18.0505  -35.1404 H   0  0  0  0  0  0  0  0  0  0  0  0
   -4.5995   18.2401  -35.7826 H   0  0  0  0  0  0  0  0  0  0  0  0
   -6.8038   16.1523  -33.9044 H   0  0  0  0  0  0  0  0  0  0  0  0
   -6.1203   14.1180  -32.7193 H   0  0  0  0  0  0  0  0  0  0  0  0
   -3.7193   13.6527  -32.2638 H   0  0  0  0  0  0  0  0  0  0  0  0
   -2.0275   15.2986  -33.0446 H   0  0  0  0  0  0  0  0  0  0  0  0
   -2.7058   17.3303  -34.2286 H   0  0  0  0  0  0  0  0  0  0  0  0
   -7.4280   18.6000  -33.9260 H   0  0  0  0  0  0  0  0  0  0  0  0
  1  2  1  0
  2  3  2  0
  3  4  1  0
  4  5  1  0
  5  6  2  0
  6  7  1  0
  7  8  2  0
  8  9  1  0
  9 10  1  0
  9 11  2  0
  4 12  2  0
 12 13  1  0
 13 14  2  0
 14 15  1  0
 15 16  1  0
 16 17  2  0
 17 18  1  0
 18 19  2  0
 19 20  1  0
 20 21  2  0
 13 22  1  0
 22  2  1  0
 11  5  1  0
 21 16  1  0
  1 23  1  0
  1 24  1  0
  1 25  1  0
  6 26  1  0
  7 27  1  0
  8 28  1  0
 10 29  1  0
 11 30  1  0
 12 31  1  0
 15 32  1  0
 15 33  1  0
 17 34  1  0
 18 35  1  0
 19 36  1  0
 20 37  1  0
 21 38  1  0
 22 39  1  0
M  END
>  <smiles>  (19) 
Cc1nc(-c2cccc(O)c2)cc(=NCc2ccccc2)[nH]1

>  <score_type>  (19) 
oracle

>  <origin>  (19) 
adgpu

>  <m_score__min__energy>  (19) 
-9.4700000000000006

>  <m_primary>  (19) 
energy

$$$$
19:0
     RDKit          3D

 46 48  0  0  0  0  0  0  0  0999 V2000
   -6.1700   18.4750  -31.6330 C   0  0  0  0  0  0  0  0  0  0  0  0
   -5.9170   18.4490  -33.0790 N   0  0  0  0  0  0  0  0  0  0  0  0
   -6.5550   19.5730  -33.8030 C   0  0  0  0  0  0  0  0  0  0  0  0
   -7.4870   20.4210  -32.9570 C   0  0  0  0  0  0  0  0  0  0  0  0
   -7.0380   21.6360  -32.4060 C   0  0  0  0  0  0  0  0  0  0  0  0
   -7.8940   22.4160  -31.6250 C   0  0  0  0  0  0  0  0  0  0  0  0
   -9.2130   22.0070  -31.4060 C   0  0  0  0  0  0  0  0  0  0  0  0
   -9.6800   20.8190  -31.9760 C   0  0  0  0  0  0  0  0  0  0  0  0
   -8.8250   20.0330  -32.7550 C   0  0  0  0  0  0  0  0  0  0  0  0
   -4.2010   18.3010  -33.3950 S   0  0  0  0  0  0  0  0  0  0  0  0
   -3.6630   17.0700  -32.7200 O   0  0  0  0  0  0  0  0  0  0  0  0
   -3.9750   18.1730  -34.8760 O   0  0  0  0  0  0  0  0  0  0  0  0
   -3.3380   19.7280  -32.8290 C   0  0  0  0  0  0  0  0  0  0  0  0
   -1.9400   19.7100  -32.7470 C   0  0  0  0  0  0  0  0  0  0  0  0
   -1.2490   20.8370  -32.2990 C   0  0  0  0  0  0  0  0  0  0  0  0
   -1.9470   21.9920  -31.9370 C   0  0  0  0  0  0  0  0  0  0  0  0
   -3.3510   22.0280  -32.0280 C   0  0  0  0  0  0  0  0  0  0  0  0
   -4.1100   23.1870  -31.6570 N   0  0  0  0  0  0  0  0  0  0  0  0
   -3.8090   24.1110  -30.5990 C   0  0  0  0  0  0  0  0  0  0  0  0
   -4.2280   25.2980  -30.6660 O   0  0  0  0  0  0  0  0  0  0  0  0
   -3.0610   23.6460  -29.4000 C   0  0  0  0  0  0  0  0  0  0  0  0
   -3.3760   22.3980  -28.8220 C   0  0  0  0  0  0  0  0  0  0  0  0
   -2.7070   21.9500  -27.6800 C   0  0  0  0  0  0  0  0  0  0  0  0
   -1.7180   22.7390  -27.0920 C   0  0  0  0  0  0  0  0  0  0  0  0
   -1.3870   23.9730  -27.6530 C   0  0  0  0  0  0  0  0  0  0  0  0
   -2.0440   24.4300  -28.8040 C   0  0  0  0  0  0  0  0  0  0  0  0
   -1.6740   25.6610  -29.3370 O   0  0  0  0  0  0  0  0  0  0  0  0
   -4.0400   20.8820  -32.4450 C   0  0  0  0  0  0  0  0  0  0  0  0
   -5.2171   18.3771  -31.0922 H   0  0  0  0  0  0  0  0  0  0  0  0
   -6.6494   19.4271  -31.3617 H   0  0  0  0  0  0  0  0  0  0  0  0
   -6.8330   17.6403  -31.3617 H   0  0  0  0  0  0  0  0  0  0  0  0
   -5.7598   20.2240  -34.1952 H   0  0  0  0  0  0  0  0  0  0  0  0
   -7.1737   19.1236  -34.5938 H   0  0  0  0  0  0  0  0  0  0  0  0
   -6.0075   21.9730  -32.5915 H   0  0  0  0  0  0  0  0  0  0  0  0
   -7.5296   23.3542  -31.1812 H   0  0  0  0  0  0  0  0  0  0  0  0
   -9.8831   22.6199  -30.7853 H   0  0  0  0  0  0  0  0  0  0  0  0
  -10.7205   20.5023  -31.8117 H   0  0  0  0  0  0  0  0  0  0  0  0
   -9.2003   19.1058  -33.2127 H   0  0  0  0  0  0  0  0  0  0  0  0
   -1.3851   18.8054  -33.0364 H   0  0  0  0  0  0  0  0  0  0  0  0
   -0.1513   20.8158  -32.2307 H   0  0  0  0  0  0  0  0  0  0  0  0
   -1.3977   22.8756  -31.5799 H   0  0  0  0  0  0  0  0  0  0  0  0
   -4.1573   21.7705  -29.2757 H   0  0  0  0  0  0  0  0  0  0  0  0
   -2.9608   20.9727  -27.2435 H   0  0  0  0  0  0  0  0  0  0  0  0
   -1.1997   22.3887  -26.1872 H   0  0  0  0  0  0  0  0  0  0  0  0
   -0.6049   24.5917  -27.1888 H   0  0  0  0  0  0  0  0  0  0  0  0
   -5.1397   20.8860  -32.4719 H   0  0  0  0  0  0  0  0  0  0  0  0
  1  2  1  0
  2  3  1  0
  3  4  1  0
  4  5  2  0
  5  6  1  0
  6  7  2  0
  7  8  1  0
  8  9  2  0
  2 10  1  0
 10 11  2  0
 10 12  2  0
 10 13  1  0
 13 14  2  0
 14 15  1  0
 15 16  2  0
 16 17  1  0
 17 18  1  0
 18 19  1  0
 19 20  2  0
 19 21  1  0
 21 22  2  0
 22 23  1  0
 23 24  2  0
 24 25  1  0
 25 26  2  0
 26 27  1  0
 17 28  2  0
  9  4  1  0
 28 13  1  0
 26 21  1  0
  1 29  1  0
  1 30  1  0
  1 31  1  0
  3 32  1  0
  3 33  1  0
  5 34  1  0
  6 35  1  0
  7 36  1  0
  8 37  1  0
  9 38  1  0
 14 39  1  0
 15 40  1  0
 16 41  1  0
 22 42  1  0
 23 43  1  0
 24 44  1  0
 25 45  1  0
 28 46  1  0
M  CHG  2  18  -1  27  -1
M  END
>  <UniqueID>  (20) 
19

>  <SMILES>  (20) 
CN(Cc1ccccc1)S(=O)(=O)c1cccc([N-]C(=O)c2ccccc2[O-])c1

>  <Energy>  (20) 
56.197290673317106

>  <Genealogy>  (20) 
CN(Cc1ccccc1)S(=O)(=O)c1cccc([N-]C(=O)c2ccccc2[O-])c1 (protonated)
CN(Cc1ccccc1)S(=O)(=O)c1cccc([N-]C(=O)c2ccccc2[O-])c1 (3D coordinates assigned)
CN(Cc1ccccc1)S(=O)(=O)c1cccc([N-]C(=O)c2ccccc2[O-])c1 (optimized conformer: 56.197290673317106 kcal/mol)

>  <smiles>  (20) 
CN(Cc1ccccc1)S(=O)(=O)c1cccc(NC(=O)c2ccccc2O)c1

>  <score_type>  (20) 
oracle

>  <origin>  (20) 
adgpu

>  <m_score__min__energy>  (20) 
-13.800000000000001

>  <m_primary>  (20) 
energy

$$$$
20:0
     RDKit          3D

 36 38  0  0  0  0  0  0  0  0999 V2000
   -2.0830   20.2010  -27.8890 O   0  0  0  0  0  0  0  0  0  0  0  0
   -1.8700   20.8050  -28.9760 C   0  0  0  0  0  0  0  0  0  0  0  0
   -1.8460   20.0750  -30.2110 N   0  0  0  0  0  0  0  0  0  0  0  0
   -1.2360   20.4930  -31.4410 C   0  0  0  0  0  0  0  0  0  0  0  0
    0.1470   20.3710  -31.6690 C   0  0  0  0  0  0  0  0  0  0  0  0
    0.7040   20.8120  -32.8730 C   0  0  0  0  0  0  0  0  0  0  0  0
   -0.1080   21.3960  -33.8540 C   0  0  0  0  0  0  0  0  0  0  0  0
    0.5930   21.9370  -35.3760 S   0  0  0  0  0  0  0  0  0  0  0  0
    0.2220   20.9750  -36.4700 O   0  0  0  0  0  0  0  0  0  0  0  0
    2.0900   21.9890  -35.2510 O   0  0  0  0  0  0  0  0  0  0  0  0
   -0.0220   23.5150  -35.7460 N   0  0  0  0  0  0  0  0  0  0  0  0
    0.6610   24.4070  -36.3920 C   0  0  0  0  0  0  0  0  0  0  0  0
    1.9190   24.2140  -36.8460 N   0  0  0  0  0  0  0  0  0  0  0  0
    2.3890   25.3170  -37.4850 C   0  0  0  0  0  0  0  0  0  0  0  0
    1.5030   26.3900  -37.5410 C   0  0  0  0  0  0  0  0  0  0  0  0
    0.0820   25.9390  -36.7590 S   0  0  0  0  0  0  0  0  0  0  0  0
   -1.4820   21.5330  -33.6230 C   0  0  0  0  0  0  0  0  0  0  0  0
   -2.0390   21.0930  -32.4180 C   0  0  0  0  0  0  0  0  0  0  0  0
   -1.6990   22.2770  -28.9820 C   0  0  0  0  0  0  0  0  0  0  0  0
   -2.6710   23.1100  -29.5640 C   0  0  0  0  0  0  0  0  0  0  0  0
   -2.5090   24.4990  -29.5700 C   0  0  0  0  0  0  0  0  0  0  0  0
   -3.4850   25.2990  -30.1520 O   0  0  0  0  0  0  0  0  0  0  0  0
   -1.3660   25.0770  -28.9950 C   0  0  0  0  0  0  0  0  0  0  0  0
   -1.1830   26.4590  -28.9900 O   0  0  0  0  0  0  0  0  0  0  0  0
   -0.3920   24.2540  -28.4150 C   0  0  0  0  0  0  0  0  0  0  0  0
    0.7430   24.8150  -27.8410 O   0  0  0  0  0  0  0  0  0  0  0  0
   -0.5570   22.8650  -28.4080 C   0  0  0  0  0  0  0  0  0  0  0  0
    0.7925   19.9269  -30.8969 H   0  0  0  0  0  0  0  0  0  0  0  0
    1.7838   20.7001  -33.0508 H   0  0  0  0  0  0  0  0  0  0  0  0
    3.3959   25.3594  -37.9259 H   0  0  0  0  0  0  0  0  0  0  0  0
    1.6979   27.3637  -38.0143 H   0  0  0  0  0  0  0  0  0  0  0  0
   -2.1249   21.9878  -34.3910 H   0  0  0  0  0  0  0  0  0  0  0  0
   -3.1165   21.2194  -32.2366 H   0  0  0  0  0  0  0  0  0  0  0  0
   -3.5679   22.6645  -30.0192 H   0  0  0  0  0  0  0  0  0  0  0  0
   -0.4010   26.8970  -28.5170 H   0  0  0  0  0  0  0  0  0  0  0  0
    0.2129   22.2268  -27.9497 H   0  0  0  0  0  0  0  0  0  0  0  0
  1  2  2  0
  2  3  1  0
  3  4  1  0
  4  5  2  0
  5  6  1  0
  6  7  2  0
  7  8  1  0
  8  9  2  0
  8 10  2  0
  8 11  1  0
 11 12  2  3
 12 13  1  0
 13 14  1  0
 14 15  2  0
 15 16  1  0
  7 17  1  0
 17 18  2  0
  2 19  1  0
 19 20  2  0
 20 21  1  0
 21 22  1  0
 21 23  2  0
 23 24  1  0
 23 25  1  0
 25 26  1  0
 25 27  2  0
 18  4  1  0
 27 19  1  0
 16 12  1  0
  5 28  1  0
  6 29  1  0
 14 30  1  0
 15 31  1  0
 17 32  1  0
 18 33  1  0
 20 34  1  0
 24 35  1  0
 27 36  1  0
M  CHG  4   3  -1  13  -1  22  -1  26  -1
M  END
>  <UniqueID>  (21) 
20

>  <SMILES>  (21) 
O=C([N-]c1ccc(S(=O)(=O)N=c2[n-]ccs2)cc1)c1cc([O-])c(O)c([O-])c1

>  <Energy>  (21) 
77.4522368783114

>  <Genealogy>  (21) 
O=C([N-]c1ccc(S(=O)(=O)N=c2[n-]ccs2)cc1)c1cc([O-])c(O)c([O-])c1 (protonated)
O=C([N-]c1ccc(S(=O)(=O)N=c2[n-]ccs2)cc1)c1cc([O-])c(O)c([O-])c1 (3D coordinates assigned)
O=C([N-]c1ccc(S(=O)(=O)N=c2[n-]ccs2)cc1)c1cc([O-])c(O)c([O-])c1 (optimized conformer: 77.4522368783114 kcal/mol)

>  <smiles>  (21) 
O=C(Nc1ccc(S(=O)(=O)N=c2[nH]ccs2)cc1)c1cc(O)c(O)c(O)c1

>  <score_type>  (21) 
oracle

>  <origin>  (21) 
adgpu

>  <m_score__min__energy>  (21) 
-12.49

>  <m_primary>  (21) 
energy

$$$$
21:0
     RDKit          3D

 48 51  0  0  0  0  0  0  0  0999 V2000
   -6.2050   24.6890  -31.8500 O   0  0  0  0  0  0  0  0  0  0  0  0
   -5.9220   23.4620  -31.8670 C   0  0  0  0  0  0  0  0  0  0  0  0
   -4.5390   23.0780  -31.8120 N   0  0  0  0  0  0  0  0  0  0  0  0
   -3.6670   23.2070  -30.6810 C   0  0  0  0  0  0  0  0  0  0  0  0
   -3.1670   22.0410  -30.0850 C   0  0  0  0  0  0  0  0  0  0  0  0
   -2.2940   22.1210  -28.9970 C   0  0  0  0  0  0  0  0  0  0  0  0
   -1.9260   23.3660  -28.4840 C   0  0  0  0  0  0  0  0  0  0  0  0
   -2.4420   24.5350  -29.0500 C   0  0  0  0  0  0  0  0  0  0  0  0
   -3.3250   24.4650  -30.1380 C   0  0  0  0  0  0  0  0  0  0  0  0
   -3.8740   25.6350  -30.6620 O   0  0  0  0  0  0  0  0  0  0  0  0
   -7.0180   22.4630  -31.8960 C   0  0  0  0  0  0  0  0  0  0  0  0
   -8.3550   22.8810  -31.7760 C   0  0  0  0  0  0  0  0  0  0  0  0
   -9.3940   21.9470  -31.8070 C   0  0  0  0  0  0  0  0  0  0  0  0
   -9.1110   20.5870  -31.9540 C   0  0  0  0  0  0  0  0  0  0  0  0
   -7.7850   20.1530  -32.0650 C   0  0  0  0  0  0  0  0  0  0  0  0
   -7.4380   18.4340  -32.2320 S   0  0  0  0  0  0  0  0  0  0  0  0
   -8.6860   17.6340  -31.9700 O   0  0  0  0  0  0  0  0  0  0  0  0
   -6.4130   18.0550  -31.1990 O   0  0  0  0  0  0  0  0  0  0  0  0
   -6.8030   18.0850  -33.8270 N   0  0  0  0  0  0  0  0  0  0  0  0
   -6.1120   16.7850  -33.9050 C   0  0  0  0  0  0  0  0  0  0  0  0
   -4.8190   16.7460  -33.0780 C   0  0  0  0  0  0  0  0  0  0  0  0
   -4.0050   18.0040  -33.2230 C   0  0  0  0  0  0  0  0  0  0  0  0
   -2.6890   18.0270  -32.7330 C   0  0  0  0  0  0  0  0  0  0  0  0
   -1.9300   19.1970  -32.8000 C   0  0  0  0  0  0  0  0  0  0  0  0
   -2.4800   20.3570  -33.3500 C   0  0  0  0  0  0  0  0  0  0  0  0
   -3.7920   20.3490  -33.8300 C   0  0  0  0  0  0  0  0  0  0  0  0
   -4.5700   19.1830  -33.7550 C   0  0  0  0  0  0  0  0  0  0  0  0
   -5.9650   19.1850  -34.3340 C   0  0  0  0  0  0  0  0  0  0  0  0
   -6.7420   21.0890  -32.0190 C   0  0  0  0  0  0  0  0  0  0  0  0
   -3.4638   21.0567  -30.4763 H   0  0  0  0  0  0  0  0  0  0  0  0
   -1.8959   21.2011  -28.5438 H   0  0  0  0  0  0  0  0  0  0  0  0
   -1.2300   23.4270  -27.6344 H   0  0  0  0  0  0  0  0  0  0  0  0
   -2.1545   25.5146  -28.6405 H   0  0  0  0  0  0  0  0  0  0  0  0
   -4.2540   25.6690  -31.6010 H   0  0  0  0  0  0  0  0  0  0  0  0
   -8.5847   23.9501  -31.6569 H   0  0  0  0  0  0  0  0  0  0  0  0
  -10.4372   22.2836  -31.7154 H   0  0  0  0  0  0  0  0  0  0  0  0
   -9.9321   19.8555  -31.9826 H   0  0  0  0  0  0  0  0  0  0  0  0
   -6.7908   16.0036  -33.5325 H   0  0  0  0  0  0  0  0  0  0  0  0
   -5.8365   16.6198  -34.9570 H   0  0  0  0  0  0  0  0  0  0  0  0
   -5.0819   16.6159  -32.0178 H   0  0  0  0  0  0  0  0  0  0  0  0
   -4.2097   15.9085  -33.4487 H   0  0  0  0  0  0  0  0  0  0  0  0
   -2.2535   17.1175  -32.2936 H   0  0  0  0  0  0  0  0  0  0  0  0
   -0.8980   19.2052  -32.4193 H   0  0  0  0  0  0  0  0  0  0  0  0
   -1.8799   21.2773  -33.4053 H   0  0  0  0  0  0  0  0  0  0  0  0
   -4.2183   21.2627  -34.2697 H   0  0  0  0  0  0  0  0  0  0  0  0
   -6.4485   20.1395  -34.0789 H   0  0  0  0  0  0  0  0  0  0  0  0
   -5.8688   19.0495  -35.4214 H   0  0  0  0  0  0  0  0  0  0  0  0
   -5.6986   20.7459  -32.0796 H   0  0  0  0  0  0  0  0  0  0  0  0
  1  2  2  0
  2  3  1  0
  3  4  1  0
  4  5  2  0
  5  6  1  0
  6  7  2  0
  7  8  1  0
  8  9  2  0
  9 10  1  0
  2 11  1  0
 11 12  2  0
 12 13  1  0
 13 14  2  0
 14 15  1  0
 15 16  1  0
 16 17  2  0
 16 18  2  0
 16 19  1  0
 19 20  1  0
 20 21  1  0
 21 22  1  0
 22 23  2  0
 23 24  1  0
 24 25  2  0
 25 26  1  0
 26 27  2  0
 27 28  1  0
 15 29  2  0
  9  4  1  0
 29 11  1  0
 28 19  1  0
 27 22  1  0
  5 30  1  0
  6 31  1  0
  7 32  1  0
  8 33  1  0
 10 34  1  0
 12 35  1  0
 13 36  1  0
 14 37  1  0
 20 38  1  0
 20 39  1  0
 21 40  1  0
 21 41  1  0
 23 42  1  0
 24 43  1  0
 25 44  1  0
 26 45  1  0
 28 46  1  0
 28 47  1  0
 29 48  1  0
M  CHG  1   3  -1
M  END
>  <UniqueID>  (22) 
21

>  <SMILES>  (22) 
O=C([N-]c1ccccc1O)c1cccc(S(=O)(=O)N2CCc3ccccc3C2)c1

>  <Energy>  (22) 
63.76380317806371

>  <Genealogy>  (22) 
O=C([N-]c1ccccc1O)c1cccc(S(=O)(=O)N2CCc3ccccc3C2)c1 (protonated)
O=C([N-]c1ccccc1O)c1cccc(S(=O)(=O)N2CCc3ccccc3C2)c1 (3D coordinates assigned)
O=C([N-]c1ccccc1O)c1cccc(S(=O)(=O)N2CCc3ccccc3C2)c1 (nonaromatic ring conformer: 63.76380317806371 kcal/mol)

>  <smiles>  (22) 
O=C(Nc1ccccc1O)c1cccc(S(=O)(=O)N2CCc3ccccc3C2)c1

>  <score_type>  (22) 
oracle

>  <origin>  (22) 
adgpu

>  <m_score__min__energy>  (22) 
-13.34

>  <m_primary>  (22) 
energy

$$$$
22:0
     RDKit          3D

 33 34  0  0  0  0  0  0  0  0999 V2000
   -5.0880   18.6270  -34.5740 C   0  0  0  0  0  0  0  0  0  0  0  0
   -5.8830   19.3910  -33.5650 C   0  0  0  0  0  0  0  0  0  0  0  0
   -6.8280   18.8170  -32.9610 O   0  0  0  0  0  0  0  0  0  0  0  0
   -5.6250   20.7900  -33.3640 N   0  0  0  0  0  0  0  0  0  0  0  0
   -6.1970   21.5700  -32.3000 C   0  0  0  0  0  0  0  0  0  0  0  0
   -7.3630   21.1560  -31.6310 C   0  0  0  0  0  0  0  0  0  0  0  0
   -7.8820   21.9200  -30.5810 C   0  0  0  0  0  0  0  0  0  0  0  0
   -7.2400   23.0950  -30.1840 C   0  0  0  0  0  0  0  0  0  0  0  0
   -6.0690   23.5090  -30.8310 C   0  0  0  0  0  0  0  0  0  0  0  0
   -5.2650   24.9910  -30.3250 S   0  0  0  0  0  0  0  0  0  0  0  0
   -5.6550   25.3560  -28.9200 O   0  0  0  0  0  0  0  0  0  0  0  0
   -5.6690   26.1040  -31.2510 O   0  0  0  0  0  0  0  0  0  0  0  0
   -3.5440   24.7880  -30.4000 N   0  0  0  0  0  0  0  0  0  0  0  0
   -2.7450   24.1180  -29.4150 C   0  0  0  0  0  0  0  0  0  0  0  0
   -3.0620   22.8270  -28.9500 C   0  0  0  0  0  0  0  0  0  0  0  0
   -2.2540   22.2040  -27.9950 C   0  0  0  0  0  0  0  0  0  0  0  0
   -1.1280   22.8610  -27.4920 C   0  0  0  0  0  0  0  0  0  0  0  0
   -0.8090   24.1440  -27.9440 C   0  0  0  0  0  0  0  0  0  0  0  0
   -1.6120   24.7710  -28.9020 C   0  0  0  0  0  0  0  0  0  0  0  0
   -1.2810   26.0470  -29.3440 O   0  0  0  0  0  0  0  0  0  0  0  0
   -5.5450   22.7390  -31.8790 C   0  0  0  0  0  0  0  0  0  0  0  0
   -4.3881   17.9544  -34.0564 H   0  0  0  0  0  0  0  0  0  0  0  0
   -5.7677   18.0346  -35.2041 H   0  0  0  0  0  0  0  0  0  0  0  0
   -4.5230   19.3297  -35.2041 H   0  0  0  0  0  0  0  0  0  0  0  0
   -5.0520   21.2860  -34.0840 H   0  0  0  0  0  0  0  0  0  0  0  0
   -7.8686   20.2276  -31.9350 H   0  0  0  0  0  0  0  0  0  0  0  0
   -8.7982   21.5947  -30.0665 H   0  0  0  0  0  0  0  0  0  0  0  0
   -7.6548   23.6964  -29.3617 H   0  0  0  0  0  0  0  0  0  0  0  0
   -3.9493   22.3069  -29.3401 H   0  0  0  0  0  0  0  0  0  0  0  0
   -2.5050   21.1941  -27.6385 H   0  0  0  0  0  0  0  0  0  0  0  0
   -0.4932   22.3685  -26.7407 H   0  0  0  0  0  0  0  0  0  0  0  0
    0.0757   24.6621  -27.5454 H   0  0  0  0  0  0  0  0  0  0  0  0
   -4.6152   23.0539  -32.3752 H   0  0  0  0  0  0  0  0  0  0  0  0
  1  2  1  0
  2  3  2  0
  2  4  1  0
  4  5  1  0
  5  6  2  0
  6  7  1  0
  7  8  2  0
  8  9  1  0
  9 10  1  0
 10 11  2  0
 10 12  2  0
 10 13  1  0
 13 14  1  0
 14 15  2  0
 15 16  1  0
 16 17  2  0
 17 18  1  0
 18 19  2  0
 19 20  1  0
  9 21  2  0
 21  5  1  0
 19 14  1  0
  1 22  1  0
  1 23  1  0
  1 24  1  0
  4 25  1  0
  6 26  1  0
  7 27  1  0
  8 28  1  0
 15 29  1  0
 16 30  1  0
 17 31  1  0
 18 32  1  0
 21 33  1  0
M  CHG  2  13  -1  20  -1
M  END
>  <UniqueID>  (23) 
22

>  <SMILES>  (23) 
CC(=O)Nc1cccc(S(=O)(=O)[N-]c2ccccc2[O-])c1

>  <Energy>  (23) 
38.40607417706064

>  <Genealogy>  (23) 
CC(=O)Nc1cccc(S(=O)(=O)[N-]c2ccccc2[O-])c1 (protonated)
CC(=O)Nc1cccc(S(=O)(=O)[N-]c2ccccc2[O-])c1 (3D coordinates assigned)
CC(=O)Nc1cccc(S(=O)(=O)[N-]c2ccccc2[O-])c1 (optimized conformer: 38.40607417706064 kcal/mol)

>  <smiles>  (23) 
CC(=O)Nc1cccc(S(=O)(=O)Nc2ccccc2O)c1

>  <score_type>  (23) 
oracle

>  <origin>  (23) 
adgpu

>  <m_score__min__energy>  (23) 
-12.49

>  <m_primary>  (23) 
energy

$$$$
23:0
     RDKit          3D

 62 65  0  0  0  0  0  0  0  0999 V2000
   -1.2360   25.5660  -27.6380 C   0  0  0  0  0  0  0  0  0  0  0  0
   -1.8390   25.5760  -28.9640 N   0  0  0  0  0  0  0  0  0  0  0  0
   -2.6780   24.5580  -29.5350 C   0  0  0  0  0  0  0  0  0  0  0  0
   -3.5370   24.9170  -30.3860 O   0  0  0  0  0  0  0  0  0  0  0  0
   -2.5910   23.1210  -29.1630 C   0  0  0  0  0  0  0  0  0  0  0  0
   -1.8050   22.2360  -29.9240 C   0  0  0  0  0  0  0  0  0  0  0  0
   -1.7220   20.8870  -29.5680 C   0  0  0  0  0  0  0  0  0  0  0  0
   -0.9200   20.0390  -30.3460 O   0  0  0  0  0  0  0  0  0  0  0  0
   -1.3650   19.3780  -31.4930 C   0  0  0  0  0  0  0  0  0  0  0  0
   -0.7280   18.2060  -31.9210 C   0  0  0  0  0  0  0  0  0  0  0  0
   -1.1490   17.5710  -33.0940 C   0  0  0  0  0  0  0  0  0  0  0  0
   -2.2130   18.0920  -33.8430 C   0  0  0  0  0  0  0  0  0  0  0  0
   -2.5780   17.4400  -35.0670 N   0  0  0  0  0  0  0  0  0  0  0  0
   -3.5690   16.4160  -35.2270 C   0  0  0  0  0  0  0  0  0  0  0  0
   -3.2270   15.2260  -35.4480 O   0  0  0  0  0  0  0  0  0  0  0  0
   -4.9620   16.7300  -35.1160 N   0  0  0  0  0  0  0  0  0  0  0  0
   -5.6130   17.2730  -33.9570 C   0  0  0  0  0  0  0  0  0  0  0  0
   -6.4760   18.3790  -34.0510 C   0  0  0  0  0  0  0  0  0  0  0  0
   -7.1340   18.8710  -32.9110 C   0  0  0  0  0  0  0  0  0  0  0  0
   -8.0820   20.0470  -33.0250 C   0  0  0  0  0  0  0  0  0  0  0  0
   -7.6040   21.2710  -32.3430 N   0  0  0  0  0  0  0  0  0  0  0  0
   -6.1390   21.3910  -32.3150 C   0  0  0  0  0  0  0  0  0  0  0  0
   -5.7430   22.8250  -31.9140 C   0  0  0  0  0  0  0  0  0  0  0  0
   -6.8500   23.5380  -31.2350 N   0  0  0  0  0  0  0  0  0  0  0  0
   -6.3470   24.7440  -30.5650 C   0  0  0  0  0  0  0  0  0  0  0  0
   -7.5350   22.6580  -30.2720 C   0  0  0  0  0  0  0  0  0  0  0  0
   -8.1800   21.4600  -30.9970 C   0  0  0  0  0  0  0  0  0  0  0  0
   -6.9100   18.2500  -31.6690 C   0  0  0  0  0  0  0  0  0  0  0  0
   -6.0730   17.1380  -31.5810 C   0  0  0  0  0  0  0  0  0  0  0  0
   -5.4360   16.6440  -32.7210 C   0  0  0  0  0  0  0  0  0  0  0  0
   -4.6290   15.5590  -32.6160 F   0  0  0  0  0  0  0  0  0  0  0  0
   -2.8420   19.2740  -33.4130 C   0  0  0  0  0  0  0  0  0  0  0  0
   -2.4230   19.9060  -32.2390 C   0  0  0  0  0  0  0  0  0  0  0  0
   -2.4300   20.4310  -28.4460 C   0  0  0  0  0  0  0  0  0  0  0  0
   -3.1950   21.3340  -27.7050 C   0  0  0  0  0  0  0  0  0  0  0  0
   -3.2520   22.6410  -28.0740 N   0  0  0  0  0  0  0  0  0  0  0  0
   -2.0281   25.5791  -26.8749 H   0  0  0  0  0  0  0  0  0  0  0  0
   -0.6272   24.6576  -27.5189 H   0  0  0  0  0  0  0  0  0  0  0  0
   -0.5974   26.4537  -27.5189 H   0  0  0  0  0  0  0  0  0  0  0  0
   -1.2546   22.6068  -30.8012 H   0  0  0  0  0  0  0  0  0  0  0  0
    0.1026   17.7855  -31.3351 H   0  0  0  0  0  0  0  0  0  0  0  0
   -0.6410   16.6555  -33.4313 H   0  0  0  0  0  0  0  0  0  0  0  0
   -6.6375   18.8633  -35.0253 H   0  0  0  0  0  0  0  0  0  0  0  0
   -8.2219   20.2770  -34.0916 H   0  0  0  0  0  0  0  0  0  0  0  0
   -9.0189   19.7510  -32.5304 H   0  0  0  0  0  0  0  0  0  0  0  0
   -5.7278   20.6800  -31.5833 H   0  0  0  0  0  0  0  0  0  0  0  0
   -5.7360   21.1676  -33.3139 H   0  0  0  0  0  0  0  0  0  0  0  0
   -4.8806   22.7778  -31.2329 H   0  0  0  0  0  0  0  0  0  0  0  0
   -5.4957   23.3781  -32.8321 H   0  0  0  0  0  0  0  0  0  0  0  0
   -6.4036   24.6084  -29.4749 H   0  0  0  0  0  0  0  0  0  0  0  0
   -5.3014   24.9178  -30.8591 H   0  0  0  0  0  0  0  0  0  0  0  0
   -6.9593   25.6092  -30.8591 H   0  0  0  0  0  0  0  0  0  0  0  0
   -6.8043   22.2862  -29.5386 H   0  0  0  0  0  0  0  0  0  0  0  0
   -8.3239   23.2327  -29.7647 H   0  0  0  0  0  0  0  0  0  0  0  0
   -8.0102   20.5492  -30.4040 H   0  0  0  0  0  0  0  0  0  0  0  0
   -9.2562   21.6600  -31.1060 H   0  0  0  0  0  0  0  0  0  0  0  0
   -7.3966   18.6428  -30.7641 H   0  0  0  0  0  0  0  0  0  0  0  0
   -5.9140   16.6479  -30.6091 H   0  0  0  0  0  0  0  0  0  0  0  0
   -3.6661   19.7023  -34.0023 H   0  0  0  0  0  0  0  0  0  0  0  0
   -2.9278   20.8228  -31.9005 H   0  0  0  0  0  0  0  0  0  0  0  0
   -2.3829   19.3719  -28.1527 H   0  0  0  0  0  0  0  0  0  0  0  0
   -3.7519   20.9874  -26.8220 H   0  0  0  0  0  0  0  0  0  0  0  0
  1  2  1  0
  2  3  1  0
  3  4  2  0
  3  5  1  0
  5  6  2  0
  6  7  1  0
  7  8  1  0
  8  9  1  0
  9 10  2  0
 10 11  1  0
 11 12  2  0
 12 13  1  0
 13 14  1  0
 14 15  2  0
 14 16  1  0
 16 17  1  0
 17 18  2  0
 18 19  1  0
 19 20  1  0
 20 21  1  0
 21 22  1  0
 22 23  1  0
 23 24  1  0
 24 25  1  0
 24 26  1  0
 26 27  1  0
 19 28  2  0
 28 29  1  0
 29 30  2  0
 30 31  1  0
 12 32  1  0
 32 33  2  0
  7 34  2  0
 34 35  1  0
 35 36  2  0
 36  5  1  0
 33  9  1  0
 30 17  1  0
 27 21  1  0
  1 37  1  0
  1 38  1  0
  1 39  1  0
  6 40  1  0
 10 41  1  0
 11 42  1  0
 18 43  1  0
 20 44  1  0
 20 45  1  0
 22 46  1  0
 22 47  1  0
 23 48  1  0
 23 49  1  0
 25 50  1  0
 25 51  1  0
 25 52  1  0
 26 53  1  0
 26 54  1  0
 27 55  1  0
 27 56  1  0
 28 57  1  0
 29 58  1  0
 32 59  1  0
 33 60  1  0
 34 61  1  0
 35 62  1  0
M  CHG  3   2  -1  13  -1  16  -1
M  END
>  <UniqueID>  (24) 
23

>  <SMILES>  (24) 
C[N-]C(=O)c1cc(Oc2ccc([N-]C(=O)[N-]c3cc(CN4CCN(C)CC4)ccc3F)cc2)ccn1

>  <Energy>  (24) 
93.47105158198426

>  <Genealogy>  (24) 
C[N-]C(=O)c1cc(Oc2ccc([N-]C(=O)[N-]c3cc(CN4CCN(C)CC4)ccc3F)cc2)ccn1 (protonated)
C[N-]C(=O)c1cc(Oc2ccc([N-]C(=O)[N-]c3cc(CN4CCN(C)CC4)ccc3F)cc2)ccn1 (3D coordinates assigned)
C[N-]C(=O)c1cc(Oc2ccc([N-]C(=O)[N-]c3cc(CN4CCN(C)CC4)ccc3F)cc2)ccn1 (nonaromatic ring conformer: 93.47105158198426 kcal/mol)

>  <smiles>  (24) 
CNC(=O)c1cc(Oc2ccc(NC(=O)Nc3cc(CN4CCN(C)CC4)ccc3F)cc2)ccn1

>  <score_type>  (24) 
oracle

>  <origin>  (24) 
adgpu

>  <m_score__min__energy>  (24) 
-12.449999999999999

>  <m_primary>  (24) 
energy

$$$$
24:0
     RDKit          3D

 54 57  0  0  0  0  0  0  0  0999 V2000
   -3.8350   25.3050  -30.4590 O   0  0  0  0  0  0  0  0  0  0  0  0
   -3.4840   24.0970  -30.3800 C   0  0  0  0  0  0  0  0  0  0  0  0
   -2.2250   23.7830  -29.7690 N   0  0  0  0  0  0  0  0  0  0  0  0
   -1.7360   24.3350  -28.5370 C   0  0  0  0  0  0  0  0  0  0  0  0
   -1.5840   25.7220  -28.3680 C   0  0  0  0  0  0  0  0  0  0  0  0
   -1.1490   26.2420  -27.1470 C   0  0  0  0  0  0  0  0  0  0  0  0
   -0.8720   25.3840  -26.0810 C   0  0  0  0  0  0  0  0  0  0  0  0
   -1.0380   24.0050  -26.2310 C   0  0  0  0  0  0  0  0  0  0  0  0
   -1.4710   23.4760  -27.4560 C   0  0  0  0  0  0  0  0  0  0  0  0
   -1.6160   22.0580  -27.6100 N   0  0  0  0  0  0  0  0  0  0  0  0
   -0.5600   21.2970  -28.2790 C   0  0  0  0  0  0  0  0  0  0  0  0
   -0.6550   19.8170  -27.8830 C   0  0  0  0  0  0  0  0  0  0  0  0
   -1.9700   19.3220  -28.0600 O   0  0  0  0  0  0  0  0  0  0  0  0
   -2.8620   19.9980  -27.1920 C   0  0  0  0  0  0  0  0  0  0  0  0
   -2.9580   21.4800  -27.5640 C   0  0  0  0  0  0  0  0  0  0  0  0
   -4.3960   23.0400  -30.8670 C   0  0  0  0  0  0  0  0  0  0  0  0
   -3.9340   21.7230  -31.0200 C   0  0  0  0  0  0  0  0  0  0  0  0
   -4.7960   20.7190  -31.4690 C   0  0  0  0  0  0  0  0  0  0  0  0
   -6.1210   21.0260  -31.8080 C   0  0  0  0  0  0  0  0  0  0  0  0
   -7.2170   19.7680  -32.3750 S   0  0  0  0  0  0  0  0  0  0  0  0
   -8.0400   19.2960  -31.2070 O   0  0  0  0  0  0  0  0  0  0  0  0
   -8.1290   20.3360  -33.4300 O   0  0  0  0  0  0  0  0  0  0  0  0
   -6.3170   18.4230  -33.0390 N   0  0  0  0  0  0  0  0  0  0  0  0
   -5.8220   18.7530  -34.3860 C   0  0  0  0  0  0  0  0  0  0  0  0
   -5.0170   17.5650  -34.9560 C   0  0  0  0  0  0  0  0  0  0  0  0
   -5.1350   16.3990  -34.1570 O   0  0  0  0  0  0  0  0  0  0  0  0
   -6.5000   16.1090  -33.9230 C   0  0  0  0  0  0  0  0  0  0  0  0
   -7.1740   17.2260  -33.0980 C   0  0  0  0  0  0  0  0  0  0  0  0
   -6.5840   22.3400  -31.6650 C   0  0  0  0  0  0  0  0  0  0  0  0
   -5.7290   23.3400  -31.1950 C   0  0  0  0  0  0  0  0  0  0  0  0
   -1.8091   26.4022  -29.2027 H   0  0  0  0  0  0  0  0  0  0  0  0
   -1.0246   27.3281  -27.0251 H   0  0  0  0  0  0  0  0  0  0  0  0
   -0.5227   25.7942  -25.1220 H   0  0  0  0  0  0  0  0  0  0  0  0
   -0.8286   23.3322  -25.3863 H   0  0  0  0  0  0  0  0  0  0  0  0
   -0.6761   21.3916  -29.3688 H   0  0  0  0  0  0  0  0  0  0  0  0
    0.4206   21.6921  -27.9750 H   0  0  0  0  0  0  0  0  0  0  0  0
    0.0353   19.2331  -28.5095 H   0  0  0  0  0  0  0  0  0  0  0  0
   -0.3882   19.7235  -26.8200 H   0  0  0  0  0  0  0  0  0  0  0  0
   -3.8592   19.5404  -27.2707 H   0  0  0  0  0  0  0  0  0  0  0  0
   -2.4850   19.9150  -26.1620 H   0  0  0  0  0  0  0  0  0  0  0  0
   -3.4347   21.5805  -28.5502 H   0  0  0  0  0  0  0  0  0  0  0  0
   -3.5599   22.0093  -26.8106 H   0  0  0  0  0  0  0  0  0  0  0  0
   -2.8872   21.4801  -30.7850 H   0  0  0  0  0  0  0  0  0  0  0  0
   -4.4335   19.6842  -31.5567 H   0  0  0  0  0  0  0  0  0  0  0  0
   -6.6757   18.9654  -35.0464 H   0  0  0  0  0  0  0  0  0  0  0  0
   -5.1697   19.6366  -34.3256 H   0  0  0  0  0  0  0  0  0  0  0  0
   -5.3877   17.3396  -35.9668 H   0  0  0  0  0  0  0  0  0  0  0  0
   -3.9561   17.8552  -34.9712 H   0  0  0  0  0  0  0  0  0  0  0  0
   -7.0175   16.0143  -34.8890 H   0  0  0  0  0  0  0  0  0  0  0  0
   -6.5642   15.1691  -33.3551 H   0  0  0  0  0  0  0  0  0  0  0  0
   -8.1329   17.4919  -33.5668 H   0  0  0  0  0  0  0  0  0  0  0  0
   -7.3370   16.8584  -32.0741 H   0  0  0  0  0  0  0  0  0  0  0  0
   -7.6246   22.5856  -31.9237 H   0  0  0  0  0  0  0  0  0  0  0  0
   -6.1017   24.3686  -31.0810 H   0  0  0  0  0  0  0  0  0  0  0  0
  1  2  2  0
  2  3  1  0
  3  4  1  0
  4  5  2  0
  5  6  1  0
  6  7  2  0
  7  8  1  0
  8  9  2  0
  9 10  1  0
 10 11  1  0
 11 12  1  0
 12 13  1  0
 13 14  1  0
 14 15  1  0
  2 16  1  0
 16 17  2  0
 17 18  1  0
 18 19  2  0
 19 20  1  0
 20 21  2  0
 20 22  2  0
 20 23  1  0
 23 24  1  0
 24 25  1  0
 25 26  1  0
 26 27  1  0
 27 28  1  0
 19 29  1  0
 29 30  2  0
  9  4  1  0
 15 10  1  0
 30 16  1  0
 28 23  1  0
  5 31  1  0
  6 32  1  0
  7 33  1  0
  8 34  1  0
 11 35  1  0
 11 36  1  0
 12 37  1  0
 12 38  1  0
 14 39  1  0
 14 40  1  0
 15 41  1  0
 15 42  1  0
 17 43  1  0
 18 44  1  0
 24 45  1  0
 24 46  1  0
 25 47  1  0
 25 48  1  0
 27 49  1  0
 27 50  1  0
 28 51  1  0
 28 52  1  0
 29 53  1  0
 30 54  1  0
M  CHG  1   3  -1
M  END
>  <UniqueID>  (25) 
24

>  <SMILES>  (25) 
O=C([N-]c1ccccc1N1CCOCC1)c1ccc(S(=O)(=O)N2CCOCC2)cc1

>  <Energy>  (25) 
76.92682056655916

>  <Genealogy>  (25) 
O=C([N-]c1ccccc1N1CCOCC1)c1ccc(S(=O)(=O)N2CCOCC2)cc1 (protonated)
O=C([N-]c1ccccc1N1CCOCC1)c1ccc(S(=O)(=O)N2CCOCC2)cc1 (3D coordinates assigned)
O=C([N-]c1ccccc1N1CCOCC1)c1ccc(S(=O)(=O)N2CCOCC2)cc1 (nonaromatic ring conformer: 76.92682056655916 kcal/mol)

>  <smiles>  (25) 
O=C(Nc1ccccc1N1CCOCC1)c1ccc(S(=O)(=O)N2CCOCC2)cc1

>  <score_type>  (25) 
oracle

>  <origin>  (25) 
adgpu

>  <m_score__min__energy>  (25) 
-11.5

>  <m_primary>  (25) 
energy

$$$$
25:0
     RDKit          3D

 53 55  0  0  0  0  0  0  0  0999 V2000
   -3.9020   15.7050  -32.7660 C   0  0  0  0  0  0  0  0  0  0  0  0
   -4.8080   16.8640  -32.6960 N   0  0  0  0  0  0  0  0  0  0  0  0
   -5.5620   17.0080  -33.9660 C   0  0  0  0  0  0  0  0  0  0  0  0
   -6.8410   17.8660  -33.8300 C   0  0  0  0  0  0  0  0  0  0  0  0
   -6.8270   18.6760  -32.6060 N   0  0  0  0  0  0  0  0  0  0  0  0
   -7.4980   19.9470  -32.6000 C   0  0  0  0  0  0  0  0  0  0  0  0
   -8.6060   20.0640  -33.1910 O   0  0  0  0  0  0  0  0  0  0  0  0
   -6.9030   21.1220  -31.9240 C   0  0  0  0  0  0  0  0  0  0  0  0
   -7.6050   21.7920  -30.9060 C   0  0  0  0  0  0  0  0  0  0  0  0
   -7.0350   22.8950  -30.2640 C   0  0  0  0  0  0  0  0  0  0  0  0
   -5.7530   23.3350  -30.6180 C   0  0  0  0  0  0  0  0  0  0  0  0
   -5.0380   24.7370  -29.8310 S   0  0  0  0  0  0  0  0  0  0  0  0
   -6.1400   25.5740  -29.2440 O   0  0  0  0  0  0  0  0  0  0  0  0
   -4.3010   25.5630  -30.8490 O   0  0  0  0  0  0  0  0  0  0  0  0
   -3.9550   24.1820  -28.5730 N   0  0  0  0  0  0  0  0  0  0  0  0
   -4.2150   22.8010  -28.1230 C   0  0  0  0  0  0  0  0  0  0  0  0
   -3.4470   21.7100  -28.8950 C   0  0  0  0  0  0  0  0  0  0  0  0
   -1.9340   21.7620  -28.6360 C   0  0  0  0  0  0  0  0  0  0  0  0
   -1.5500   22.6030  -27.4060 C   0  0  0  0  0  0  0  0  0  0  0  0
   -1.6270   24.1260  -27.5970 C   0  0  0  0  0  0  0  0  0  0  0  0
   -2.5420   24.5660  -28.7550 C   0  0  0  0  0  0  0  0  0  0  0  0
   -5.0470   22.6650  -31.6250 C   0  0  0  0  0  0  0  0  0  0  0  0
   -5.6140   21.5620  -32.2690 C   0  0  0  0  0  0  0  0  0  0  0  0
   -6.4750   18.0500  -31.3240 C   0  0  0  0  0  0  0  0  0  0  0  0
   -5.7190   16.7350  -31.5430 C   0  0  0  0  0  0  0  0  0  0  0  0
   -3.6461   15.3776  -31.7475 H   0  0  0  0  0  0  0  0  0  0  0  0
   -4.3992   14.8827  -33.3014 H   0  0  0  0  0  0  0  0  0  0  0  0
   -2.9840   15.9890  -33.3014 H   0  0  0  0  0  0  0  0  0  0  0  0
   -4.2120   17.7170  -32.5610 H   0  0  0  0  0  0  0  0  0  0  0  0
   -4.9036   17.4799  -34.7102 H   0  0  0  0  0  0  0  0  0  0  0  0
   -5.8796   15.9996  -34.2698 H   0  0  0  0  0  0  0  0  0  0  0  0
   -6.9143   18.5359  -34.6994 H   0  0  0  0  0  0  0  0  0  0  0  0
   -7.7046   17.1865  -33.7802 H   0  0  0  0  0  0  0  0  0  0  0  0
   -8.6075   21.4463  -30.6136 H   0  0  0  0  0  0  0  0  0  0  0  0
   -7.5959   23.4202  -29.4768 H   0  0  0  0  0  0  0  0  0  0  0  0
   -3.9352   22.7294  -27.0616 H   0  0  0  0  0  0  0  0  0  0  0  0
   -5.2833   22.6135  -28.3060 H   0  0  0  0  0  0  0  0  0  0  0  0
   -3.8247   20.7250  -28.5834 H   0  0  0  0  0  0  0  0  0  0  0  0
   -3.6088   21.8834  -29.9691 H   0  0  0  0  0  0  0  0  0  0  0  0
   -1.5716   20.7348  -28.4823 H   0  0  0  0  0  0  0  0  0  0  0  0
   -1.4722   22.2408  -29.5121 H   0  0  0  0  0  0  0  0  0  0  0  0
   -2.2273   22.3297  -26.5835 H   0  0  0  0  0  0  0  0  0  0  0  0
   -0.4929   22.3767  -27.2029 H   0  0  0  0  0  0  0  0  0  0  0  0
   -2.0074   24.5726  -26.6665 H   0  0  0  0  0  0  0  0  0  0  0  0
   -0.6115   24.4675  -27.8461 H   0  0  0  0  0  0  0  0  0  0  0  0
   -2.4883   25.6611  -28.8432 H   0  0  0  0  0  0  0  0  0  0  0  0
   -2.1837   24.0540  -29.6603 H   0  0  0  0  0  0  0  0  0  0  0  0
   -4.0417   23.0085  -31.9103 H   0  0  0  0  0  0  0  0  0  0  0  0
   -5.0476   21.0349  -33.0509 H   0  0  0  0  0  0  0  0  0  0  0  0
   -5.8384   18.7394  -30.7500 H   0  0  0  0  0  0  0  0  0  0  0  0
   -7.4026   17.8330  -30.7740 H   0  0  0  0  0  0  0  0  0  0  0  0
   -5.1350   16.4959  -30.6420 H   0  0  0  0  0  0  0  0  0  0  0  0
   -6.4426   15.9308  -31.7422 H   0  0  0  0  0  0  0  0  0  0  0  0
  1  2  1  0
  2  3  1  0
  3  4  1  0
  4  5  1  0
  5  6  1  0
  6  7  2  0
  6  8  1  0
  8  9  2  0
  9 10  1  0
 10 11  2  0
 11 12  1  0
 12 13  2  0
 12 14  2  0
 12 15  1  0
 15 16  1  0
 16 17  1  0
 17 18  1  0
 18 19  1  0
 19 20  1  0
 20 21  1  0
 11 22  1  0
 22 23  2  0
  5 24  1  0
 24 25  1  0
 25  2  1  0
 23  8  1  0
 21 15  1  0
  1 26  1  0
  1 27  1  0
  1 28  1  0
  2 29  1  0
  3 30  1  0
  3 31  1  0
  4 32  1  0
  4 33  1  0
  9 34  1  0
 10 35  1  0
 16 36  1  0
 16 37  1  0
 17 38  1  0
 17 39  1  0
 18 40  1  0
 18 41  1  0
 19 42  1  0
 19 43  1  0
 20 44  1  0
 20 45  1  0
 21 46  1  0
 21 47  1  0
 22 48  1  0
 23 49  1  0
 24 50  1  0
 24 51  1  0
 25 52  1  0
 25 53  1  0
M  CHG  1   2   1
M  END
>  <UniqueID>  (26) 
25

>  <SMILES>  (26) 
C[NH+]1CCN(C(=O)c2ccc(S(=O)(=O)N3CCCCCC3)cc2)CC1

>  <Energy>  (26) 
72.65475292821044

>  <Genealogy>  (26) 
C[NH+]1CCN(C(=O)c2ccc(S(=O)(=O)N3CCCCCC3)cc2)CC1 (protonated)
C[NH+]1CCN(C(=O)c2ccc(S(=O)(=O)N3CCCCCC3)cc2)CC1 (3D coordinates assigned)
C[NH+]1CCN(C(=O)c2ccc(S(=O)(=O)N3CCCCCC3)cc2)CC1 (nonaromatic ring conformer: 72.65475292821044 kcal/mol)

>  <smiles>  (26) 
CN1CCN(C(=O)c2ccc(S(=O)(=O)N3CCCCCC3)cc2)CC1

>  <score_type>  (26) 
oracle

>  <origin>  (26) 
adgpu

>  <m_score__min__energy>  (26) 
-6.4199999999999999

>  <m_primary>  (26) 
energy

$$$$
26:0
     RDKit          3D

 53 56  0  0  0  0  0  0  0  0999 V2000
   -1.8230   11.6080  -24.7570 C   0  0  0  0  0  0  0  0  0  0  0  0
   -0.7380   12.0250  -25.7030 C   0  0  0  0  0  0  0  0  0  0  0  0
    0.2540   12.9270  -25.2900 C   0  0  0  0  0  0  0  0  0  0  0  0
    1.2880   13.2870  -26.1600 C   0  0  0  0  0  0  0  0  0  0  0  0
    1.3430   12.7480  -27.4570 C   0  0  0  0  0  0  0  0  0  0  0  0
    2.4000   13.0720  -28.3730 N   0  0  0  0  0  0  0  0  0  0  0  0
    2.3350   14.0030  -29.4590 C   0  0  0  0  0  0  0  0  0  0  0  0
    3.3520   14.2310  -30.1670 O   0  0  0  0  0  0  0  0  0  0  0  0
    1.0980   14.6800  -29.7220 N   0  0  0  0  0  0  0  0  0  0  0  0
    0.9490   15.7650  -30.6550 C   0  0  0  0  0  0  0  0  0  0  0  0
    0.7040   17.0580  -30.1720 C   0  0  0  0  0  0  0  0  0  0  0  0
    0.5780   18.1340  -31.0540 C   0  0  0  0  0  0  0  0  0  0  0  0
    0.7130   17.9410  -32.4400 C   0  0  0  0  0  0  0  0  0  0  0  0
    0.5830   19.0850  -33.3780 C   0  0  0  0  0  0  0  0  0  0  0  0
    1.3070   20.2710  -33.1850 C   0  0  0  0  0  0  0  0  0  0  0  0
    1.1710   21.3030  -34.0560 N   0  0  0  0  0  0  0  0  0  0  0  0
    0.3340   21.2210  -35.1260 C   0  0  0  0  0  0  0  0  0  0  0  0
    0.2230   22.2000  -35.9750 N   0  0  0  0  0  0  0  0  0  0  0  0
    0.8440   23.4940  -35.8930 C   0  0  0  0  0  0  0  0  0  0  0  0
    2.1990   23.5680  -35.5510 C   0  0  0  0  0  0  0  0  0  0  0  0
    2.8500   24.8040  -35.4890 C   0  0  0  0  0  0  0  0  0  0  0  0
    2.1550   25.9820  -35.7920 C   0  0  0  0  0  0  0  0  0  0  0  0
    2.9790   27.5350  -35.7020 S   0  0  0  0  0  0  0  0  0  0  0  0
    4.6250   27.2920  -35.2360 N   0  0  0  0  0  0  0  0  0  0  0  0
    2.9520   28.2120  -37.0450 O   0  0  0  0  0  0  0  0  0  0  0  0
    2.2920   28.4080  -34.6910 O   0  0  0  0  0  0  0  0  0  0  0  0
    0.8040   25.9130  -36.1570 C   0  0  0  0  0  0  0  0  0  0  0  0
    0.1530   24.6770  -36.2200 C   0  0  0  0  0  0  0  0  0  0  0  0
   -0.3670   20.0780  -35.3400 N   0  0  0  0  0  0  0  0  0  0  0  0
   -0.2650   19.0200  -34.4940 C   0  0  0  0  0  0  0  0  0  0  0  0
    0.9830   16.6470  -32.9220 C   0  0  0  0  0  0  0  0  0  0  0  0
    1.1060   15.5710  -32.0380 C   0  0  0  0  0  0  0  0  0  0  0  0
    0.3750   11.8150  -27.8520 C   0  0  0  0  0  0  0  0  0  0  0  0
   -0.6590   11.4560  -26.9830 C   0  0  0  0  0  0  0  0  0  0  0  0
   -1.4774   11.7408  -23.7212 H   0  0  0  0  0  0  0  0  0  0  0  0
   -2.7162   12.2269  -24.9277 H   0  0  0  0  0  0  0  0  0  0  0  0
   -2.0718   10.5502  -24.9277 H   0  0  0  0  0  0  0  0  0  0  0  0
    0.2183   13.3533  -24.2766 H   0  0  0  0  0  0  0  0  0  0  0  0
    2.0616   13.9950  -25.8279 H   0  0  0  0  0  0  0  0  0  0  0  0
    0.2360   14.2940  -29.2740 H   0  0  0  0  0  0  0  0  0  0  0  0
    0.6102   17.2268  -29.0891 H   0  0  0  0  0  0  0  0  0  0  0  0
    0.3715   19.1404  -30.6609 H   0  0  0  0  0  0  0  0  0  0  0  0
    1.9868   20.3648  -32.3253 H   0  0  0  0  0  0  0  0  0  0  0  0
    2.7566   22.6461  -35.3291 H   0  0  0  0  0  0  0  0  0  0  0  0
    3.9107   24.8515  -35.2015 H   0  0  0  0  0  0  0  0  0  0  0  0
    5.1180   28.2040  -35.3630 H   0  0  0  0  0  0  0  0  0  0  0  0
    0.2532   26.8349  -36.3950 H   0  0  0  0  0  0  0  0  0  0  0  0
   -0.9025   24.6284  -36.5260 H   0  0  0  0  0  0  0  0  0  0  0  0
   -0.8499   18.1081  -34.6848 H   0  0  0  0  0  0  0  0  0  0  0  0
    1.0982   16.4806  -34.0032 H   0  0  0  0  0  0  0  0  0  0  0  0
    1.3270   14.5662  -32.4274 H   0  0  0  0  0  0  0  0  0  0  0  0
    0.4293   11.3620  -28.8529 H   0  0  0  0  0  0  0  0  0  0  0  0
   -1.4145   10.7238  -27.3041 H   0  0  0  0  0  0  0  0  0  0  0  0
  1  2  1  0
  2  3  2  0
  3  4  1  0
  4  5  2  0
  5  6  1  0
  6  7  1  0
  7  8  2  0
  7  9  1  0
  9 10  1  0
 10 11  2  0
 11 12  1  0
 12 13  2  0
 13 14  1  0
 14 15  1  0
 15 16  2  0
 16 17  1  0
 17 18  2  3
 18 19  1  0
 19 20  2  0
 20 21  1  0
 21 22  2  0
 22 23  1  0
 23 24  1  0
 23 25  2  0
 23 26  2  0
 22 27  1  0
 27 28  2  0
 17 29  1  0
 29 30  1  0
 13 31  1  0
 31 32  2  0
  5 33  1  0
 33 34  2  0
 34  2  1  0
 32 10  1  0
 30 14  2  0
 28 19  1  0
  1 35  1  0
  1 36  1  0
  1 37  1  0
  3 38  1  0
  4 39  1  0
  9 40  1  0
 11 41  1  0
 12 42  1  0
 15 43  1  0
 20 44  1  0
 21 45  1  0
 24 46  1  0
 27 47  1  0
 28 48  1  0
 30 49  1  0
 31 50  1  0
 32 51  1  0
 33 52  1  0
 34 53  1  0
M  CHG  3   6  -1  24  -1  29  -1
M  END
>  <UniqueID>  (27) 
26

>  <SMILES>  (27) 
Cc1ccc([N-]C(=O)Nc2ccc(-c3cnc(=Nc4ccc(S([NH-])(=O)=O)cc4)[n-]c3)cc2)cc1

>  <Energy>  (27) 
76.30846124007849

>  <Genealogy>  (27) 
Cc1ccc([N-]C(=O)Nc2ccc(-c3cnc(=Nc4ccc(S([NH-])(=O)=O)cc4)[n-]c3)cc2)cc1 (protonated)
Cc1ccc([N-]C(=O)Nc2ccc(-c3cnc(=Nc4ccc(S([NH-])(=O)=O)cc4)[n-]c3)cc2)cc1 (3D coordinates assigned)
Cc1ccc([N-]C(=O)Nc2ccc(-c3cnc(=Nc4ccc(S([NH-])(=O)=O)cc4)[n-]c3)cc2)cc1 (optimized conformer: 76.30846124007849 kcal/mol)

>  <smiles>  (27) 
Cc1ccc(NC(=O)Nc2ccc(-c3cnc(=Nc4ccc(S(N)(=O)=O)cc4)[nH]c3)cc2)cc1

>  <score_type>  (27) 
oracle

>  <origin>  (27) 
adgpu

>  <m_score__min__energy>  (27) 
-8.1199999999999992

>  <m_primary>  (27) 
energy

$$$$
27:0
     RDKit          3D

 36 38  0  0  0  0  0  0  0  0999 V2000
   -3.5700   20.8560  -27.9030 H   0  0  0  0  0  0  0  0  0  0  0  0
   -2.6800   21.2720  -27.6540 O   0  0  0  0  0  0  0  0  0  0  0  0
   -2.3370   22.5580  -28.0670 C   0  0  0  0  0  0  0  0  0  0  0  0
   -1.1670   23.1490  -27.5810 C   0  0  0  0  0  0  0  0  0  0  0  0
   -0.5319   22.6036  -26.8674 H   0  0  0  0  0  0  0  0  0  0  0  0
   -0.8030   24.4310  -28.0000 C   0  0  0  0  0  0  0  0  0  0  0  0
    0.1241   24.8881  -27.6237 H   0  0  0  0  0  0  0  0  0  0  0  0
   -1.6130   25.1350  -28.8960 C   0  0  0  0  0  0  0  0  0  0  0  0
   -1.2350   26.4070  -29.3100 O   0  0  0  0  0  0  0  0  0  0  0  0
   -2.8050   24.5640  -29.3690 C   0  0  0  0  0  0  0  0  0  0  0  0
   -3.6060   25.2930  -30.3110 N   0  0  0  0  0  0  0  0  0  0  0  0
   -4.8810   24.8940  -30.8290 C   0  0  0  0  0  0  0  0  0  0  0  0
   -5.8040   25.7500  -30.8860 O   0  0  0  0  0  0  0  0  0  0  0  0
   -5.1460   23.4920  -31.2160 C   0  0  0  0  0  0  0  0  0  0  0  0
   -4.2965   22.8040  -31.3381 H   0  0  0  0  0  0  0  0  0  0  0  0
   -6.3880   23.0320  -31.4230 C   0  0  0  0  0  0  0  0  0  0  0  0
   -7.2290   23.7275  -31.2849 H   0  0  0  0  0  0  0  0  0  0  0  0
   -6.6920   21.6370  -31.8280 C   0  0  0  0  0  0  0  0  0  0  0  0
   -7.8210   21.0110  -31.2750 C   0  0  0  0  0  0  0  0  0  0  0  0
   -8.4542   21.5615  -30.5637 H   0  0  0  0  0  0  0  0  0  0  0  0
   -8.1490   19.6970  -31.6180 C   0  0  0  0  0  0  0  0  0  0  0  0
   -9.0414   19.2237  -31.1827 H   0  0  0  0  0  0  0  0  0  0  0  0
   -7.3460   18.9800  -32.5140 C   0  0  0  0  0  0  0  0  0  0  0  0
   -7.6680   17.6580  -32.8640 C   0  0  0  0  0  0  0  0  0  0  0  0
   -8.5618   17.1790  -32.4378 H   0  0  0  0  0  0  0  0  0  0  0  0
   -6.8540   16.9510  -33.7530 C   0  0  0  0  0  0  0  0  0  0  0  0
   -7.1105   15.9168  -34.0263 H   0  0  0  0  0  0  0  0  0  0  0  0
   -5.7160   17.5520  -34.2960 C   0  0  0  0  0  0  0  0  0  0  0  0
   -5.0785   16.9892  -34.9938 H   0  0  0  0  0  0  0  0  0  0  0  0
   -5.3850   18.8670  -33.9550 C   0  0  0  0  0  0  0  0  0  0  0  0
   -4.4876   19.3358  -34.3851 H   0  0  0  0  0  0  0  0  0  0  0  0
   -6.1950   19.5910  -33.0650 C   0  0  0  0  0  0  0  0  0  0  0  0
   -5.8720   20.9110  -32.7160 C   0  0  0  0  0  0  0  0  0  0  0  0
   -4.9725   21.3829  -33.1382 H   0  0  0  0  0  0  0  0  0  0  0  0
   -3.1510   23.2610  -28.9660 C   0  0  0  0  0  0  0  0  0  0  0  0
   -4.0651   22.7915  -29.3585 H   0  0  0  0  0  0  0  0  0  0  0  0
  1  2  1  0
  2  3  1  0
  3  4  2  0
  4  5  1  0
  4  6  1  0
  6  7  1  0
  6  8  2  0
  8  9  1  0
  8 10  1  0
 10 11  1  0
 11 12  1  0
 12 13  2  0
 12 14  1  0
 14 15  1  0
 14 16  2  0
 16 17  1  0
 16 18  1  0
 18 19  2  0
 19 20  1  0
 19 21  1  0
 21 22  1  0
 21 23  2  0
 23 24  1  0
 24 25  1  0
 24 26  2  0
 26 27  1  0
 26 28  1  0
 28 29  1  0
 28 30  2  0
 30 31  1  0
 30 32  1  0
 32 33  2  0
 33 34  1  0
 10 35  2  0
 35 36  1  0
 35  3  1  0
 33 18  1  0
 32 23  1  0
M  CHG  2   9  -1  11  -1
M  END
>  <UniqueID>  (28) 
27

>  <SMILES>  (28) 
O=C(/C=C/c1ccc2ccccc2c1)[N-]c1cc(O)ccc1[O-]

>  <Energy>  (28) 
48.14326385616118

>  <Genealogy>  (28) 
O=C(C=Cc1ccc2ccccc2c1)[N-]c1cc(O)ccc1[O-] (protonated)
O=C(/C=C/c1ccc2ccccc2c1)[N-]c1cc(O)ccc1[O-] (cis-trans isomerization)
O=C(/C=C/c1ccc2ccccc2c1)[N-]c1cc(O)ccc1[O-] (3D coordinates assigned)
O=C(/C=C/c1ccc2ccccc2c1)[N-]c1cc(O)ccc1[O-] (optimized conformer: 48.14326385616118 kcal/mol)

>  <smiles>  (28) 
O=C(C=Cc1ccc2ccccc2c1)Nc1cc(O)ccc1O

>  <score_type>  (28) 
oracle

>  <origin>  (28) 
adgpu

>  <m_score__min__energy>  (28) 
-13.66

>  <m_primary>  (28) 
energy

$$$$
28:0
     RDKit          3D

 48 50  0  0  0  0  0  0  0  0999 V2000
   -6.6290   14.3200  -34.2180 C   0  0  0  0  0  0  0  0  0  0  0  0
   -6.8270   15.7170  -34.4190 O   0  0  0  0  0  0  0  0  0  0  0  0
   -5.8670   16.7120  -34.1740 C   0  0  0  0  0  0  0  0  0  0  0  0
   -6.1880   17.8510  -33.4090 C   0  0  0  0  0  0  0  0  0  0  0  0
   -5.2340   18.8440  -33.1520 C   0  0  0  0  0  0  0  0  0  0  0  0
   -5.6070   20.0310  -32.3450 C   0  0  0  0  0  0  0  0  0  0  0  0
   -6.1520   19.8570  -31.2210 O   0  0  0  0  0  0  0  0  0  0  0  0
   -5.3640   21.3650  -32.8290 N   0  0  0  0  0  0  0  0  0  0  0  0
   -5.6580   22.5550  -32.0760 C   0  0  0  0  0  0  0  0  0  0  0  0
   -6.9820   22.9350  -31.7940 C   0  0  0  0  0  0  0  0  0  0  0  0
   -7.2380   24.0730  -31.0250 C   0  0  0  0  0  0  0  0  0  0  0  0
   -6.1810   24.8390  -30.5300 C   0  0  0  0  0  0  0  0  0  0  0  0
   -4.8570   24.4790  -30.8070 C   0  0  0  0  0  0  0  0  0  0  0  0
   -3.7930   25.2690  -30.2600 N   0  0  0  0  0  0  0  0  0  0  0  0
   -2.7870   24.8140  -29.3460 C   0  0  0  0  0  0  0  0  0  0  0  0
   -1.9020   25.6230  -28.9620 O   0  0  0  0  0  0  0  0  0  0  0  0
   -2.7220   23.4090  -28.9020 C   0  0  0  0  0  0  0  0  0  0  0  0
   -3.5460   22.8210  -27.9620 C   0  0  0  0  0  0  0  0  0  0  0  0
   -3.1230   21.5130  -27.8610 C   0  0  0  0  0  0  0  0  0  0  0  0
   -2.0660   21.3850  -28.7390 C   0  0  0  0  0  0  0  0  0  0  0  0
   -1.8500   22.5320  -29.3400 O   0  0  0  0  0  0  0  0  0  0  0  0
   -4.6010   23.3130  -31.5510 C   0  0  0  0  0  0  0  0  0  0  0  0
   -3.9480   18.7090  -33.6910 C   0  0  0  0  0  0  0  0  0  0  0  0
   -3.6050   17.5810  -34.4570 C   0  0  0  0  0  0  0  0  0  0  0  0
   -2.3200   17.4200  -35.0040 O   0  0  0  0  0  0  0  0  0  0  0  0
   -1.1180   17.3590  -34.2440 C   0  0  0  0  0  0  0  0  0  0  0  0
   -4.5570   16.5780  -34.6980 C   0  0  0  0  0  0  0  0  0  0  0  0
   -4.1320   15.4790  -35.4690 O   0  0  0  0  0  0  0  0  0  0  0  0
   -3.1910   14.4830  -35.0830 C   0  0  0  0  0  0  0  0  0  0  0  0
   -6.5986   14.1054  -33.1396 H   0  0  0  0  0  0  0  0  0  0  0  0
   -7.4571   13.7621  -34.6796 H   0  0  0  0  0  0  0  0  0  0  0  0
   -5.6785   14.0142  -34.6796 H   0  0  0  0  0  0  0  0  0  0  0  0
   -7.2057   17.9623  -33.0065 H   0  0  0  0  0  0  0  0  0  0  0  0
   -5.0090   21.4980  -33.8010 H   0  0  0  0  0  0  0  0  0  0  0  0
   -7.8189   22.3345  -32.1800 H   0  0  0  0  0  0  0  0  0  0  0  0
   -8.2759   24.3664  -30.8088 H   0  0  0  0  0  0  0  0  0  0  0  0
   -6.3897   25.7298  -29.9193 H   0  0  0  0  0  0  0  0  0  0  0  0
   -4.3688   23.2976  -27.4090 H   0  0  0  0  0  0  0  0  0  0  0  0
   -3.5428   20.7301  -27.2122 H   0  0  0  0  0  0  0  0  0  0  0  0
   -1.4919   20.4623  -28.9093 H   0  0  0  0  0  0  0  0  0  0  0  0
   -3.5627   22.9928  -31.7226 H   0  0  0  0  0  0  0  0  0  0  0  0
   -3.1984   19.4941  -33.5130 H   0  0  0  0  0  0  0  0  0  0  0  0
   -1.3614   17.3714  -33.1713 H   0  0  0  0  0  0  0  0  0  0  0  0
   -0.5774   16.4323  -34.4867 H   0  0  0  0  0  0  0  0  0  0  0  0
   -0.4863   18.2262  -34.4867 H   0  0  0  0  0  0  0  0  0  0  0  0
   -3.1418   14.4309  -33.9853 H   0  0  0  0  0  0  0  0  0  0  0  0
   -3.5049   13.5074  -35.4827 H   0  0  0  0  0  0  0  0  0  0  0  0
   -2.1992   14.7411  -35.4827 H   0  0  0  0  0  0  0  0  0  0  0  0
  1  2  1  0
  2  3  1  0
  3  4  2  0
  4  5  1  0
  5  6  1  0
  6  7  2  0
  6  8  1  0
  8  9  1  0
  9 10  2  0
 10 11  1  0
 11 12  2  0
 12 13  1  0
 13 14  1  0
 14 15  1  0
 15 16  2  0
 15 17  1  0
 17 18  2  0
 18 19  1  0
 19 20  2  0
 20 21  1  0
 13 22  2  0
  5 23  2  0
 23 24  1  0
 24 25  1  0
 25 26  1  0
 24 27  2  0
 27 28  1  0
 28 29  1  0
 27  3  1  0
 22  9  1  0
 21 17  1  0
  1 30  1  0
  1 31  1  0
  1 32  1  0
  4 33  1  0
  8 34  1  0
 10 35  1  0
 11 36  1  0
 12 37  1  0
 18 38  1  0
 19 39  1  0
 20 40  1  0
 22 41  1  0
 23 42  1  0
 26 43  1  0
 26 44  1  0
 26 45  1  0
 29 46  1  0
 29 47  1  0
 29 48  1  0
M  CHG  1  14  -1
M  END
>  <UniqueID>  (29) 
28

>  <SMILES>  (29) 
COc1cc(C(=O)Nc2cccc([N-]C(=O)c3ccco3)c2)cc(OC)c1OC

>  <Energy>  (29) 
88.82292565130483

>  <Genealogy>  (29) 
COc1cc(C(=O)Nc2cccc([N-]C(=O)c3ccco3)c2)cc(OC)c1OC (protonated)
COc1cc(C(=O)Nc2cccc([N-]C(=O)c3ccco3)c2)cc(OC)c1OC (3D coordinates assigned)
COc1cc(C(=O)Nc2cccc([N-]C(=O)c3ccco3)c2)cc(OC)c1OC (optimized conformer: 88.82292565130483 kcal/mol)

>  <smiles>  (29) 
COc1cc(C(=O)Nc2cccc(NC(=O)c3ccco3)c2)cc(OC)c1OC

>  <score_type>  (29) 
oracle

>  <origin>  (29) 
adgpu

>  <m_score__min__energy>  (29) 
-8.4800000000000004

>  <m_primary>  (29) 
energy

$$$$
29:0
     RDKit          3D

 59 62  0  0  0  0  0  0  0  0999 V2000
   -9.1230   21.7370  -31.2880 C   0  0  0  0  0  0  0  0  0  0  0  0
   -7.8350   22.4990  -31.1860 C   0  0  0  0  0  0  0  0  0  0  0  0
   -7.2620   22.7570  -29.9320 C   0  0  0  0  0  0  0  0  0  0  0  0
   -6.0860   23.5070  -29.8340 C   0  0  0  0  0  0  0  0  0  0  0  0
   -5.4640   24.0070  -30.9850 C   0  0  0  0  0  0  0  0  0  0  0  0
   -4.2770   24.8040  -30.8410 N   0  0  0  0  0  0  0  0  0  0  0  0
   -3.1070   24.4440  -30.0940 C   0  0  0  0  0  0  0  0  0  0  0  0
   -2.5630   25.2860  -29.3280 O   0  0  0  0  0  0  0  0  0  0  0  0
   -2.5290   23.0850  -30.2120 C   0  0  0  0  0  0  0  0  0  0  0  0
   -2.9130   22.2820  -31.3010 C   0  0  0  0  0  0  0  0  0  0  0  0
   -2.3430   21.0190  -31.4990 C   0  0  0  0  0  0  0  0  0  0  0  0
   -2.8390   20.0470  -32.8820 S   0  0  0  0  0  0  0  0  0  0  0  0
   -1.7290   19.1150  -33.2870 O   0  0  0  0  0  0  0  0  0  0  0  0
   -3.1400   20.9680  -34.0320 O   0  0  0  0  0  0  0  0  0  0  0  0
   -4.2630   19.1250  -32.4670 N   0  0  0  0  0  0  0  0  0  0  0  0
   -4.8820   18.5250  -33.6770 C   0  0  0  0  0  0  0  0  0  0  0  0
   -6.1200   19.2920  -34.1610 C   0  0  0  0  0  0  0  0  0  0  0  0
   -7.1960   19.3630  -33.0650 C   0  0  0  0  0  0  0  0  0  0  0  0
   -6.5990   19.3850  -31.6470 C   0  0  0  0  0  0  0  0  0  0  0  0
   -5.1780   19.9580  -31.6550 C   0  0  0  0  0  0  0  0  0  0  0  0
   -1.3910   20.5400  -30.5930 C   0  0  0  0  0  0  0  0  0  0  0  0
   -1.0170   21.3150  -29.4960 C   0  0  0  0  0  0  0  0  0  0  0  0
   -1.5790   22.5860  -29.2890 C   0  0  0  0  0  0  0  0  0  0  0  0
   -1.2300   23.3240  -28.1060 N   0  0  0  0  0  0  0  0  0  0  0  0
    0.1730   23.3990  -27.6940 C   0  0  0  0  0  0  0  0  0  0  0  0
    0.3740   24.5950  -26.7590 C   0  0  0  0  0  0  0  0  0  0  0  0
   -0.5530   24.5570  -25.6890 O   0  0  0  0  0  0  0  0  0  0  0  0
   -1.8680   24.7160  -26.1890 C   0  0  0  0  0  0  0  0  0  0  0  0
   -2.2590   23.5370  -27.0850 C   0  0  0  0  0  0  0  0  0  0  0  0
   -6.0600   23.7820  -32.2400 C   0  0  0  0  0  0  0  0  0  0  0  0
   -7.2360   23.0310  -32.3370 C   0  0  0  0  0  0  0  0  0  0  0  0
   -9.4985   21.5148  -30.2782 H   0  0  0  0  0  0  0  0  0  0  0  0
   -9.8648   22.3417  -31.8303 H   0  0  0  0  0  0  0  0  0  0  0  0
   -8.9502   20.7957  -31.8303 H   0  0  0  0  0  0  0  0  0  0  0  0
   -7.7401   22.3674  -29.0212 H   0  0  0  0  0  0  0  0  0  0  0  0
   -5.6461   23.7058  -28.8456 H   0  0  0  0  0  0  0  0  0  0  0  0
   -3.6716   22.6515  -32.0067 H   0  0  0  0  0  0  0  0  0  0  0  0
   -4.1360   18.5179  -34.4854 H   0  0  0  0  0  0  0  0  0  0  0  0
   -5.2083   17.5090  -33.4100 H   0  0  0  0  0  0  0  0  0  0  0  0
   -5.8227   20.3141  -34.4382 H   0  0  0  0  0  0  0  0  0  0  0  0
   -6.5410   18.7610  -35.0275 H   0  0  0  0  0  0  0  0  0  0  0  0
   -7.7879   20.2785  -33.2118 H   0  0  0  0  0  0  0  0  0  0  0  0
   -7.8169   18.4590  -33.1500 H   0  0  0  0  0  0  0  0  0  0  0  0
   -7.2338   20.0079  -30.9997 H   0  0  0  0  0  0  0  0  0  0  0  0
   -6.5570   18.3526  -31.2698 H   0  0  0  0  0  0  0  0  0  0  0  0
   -5.2045   20.9741  -32.0754 H   0  0  0  0  0  0  0  0  0  0  0  0
   -4.8054   19.9726  -30.6201 H   0  0  0  0  0  0  0  0  0  0  0  0
   -0.9366   19.5500  -30.7463 H   0  0  0  0  0  0  0  0  0  0  0  0
   -0.2734   20.9269  -28.7844 H   0  0  0  0  0  0  0  0  0  0  0  0
    0.4494   22.4733  -27.1680 H   0  0  0  0  0  0  0  0  0  0  0  0
    0.8076   23.5222  -28.5840 H   0  0  0  0  0  0  0  0  0  0  0  0
    1.3957   24.5674  -26.3524 H   0  0  0  0  0  0  0  0  0  0  0  0
    0.2150   25.5210  -27.3311 H   0  0  0  0  0  0  0  0  0  0  0  0
   -2.5699   24.7743  -25.3440 H   0  0  0  0  0  0  0  0  0  0  0  0
   -1.9075   25.6390  -26.7861 H   0  0  0  0  0  0  0  0  0  0  0  0
   -2.3573   22.6294  -26.4713 H   0  0  0  0  0  0  0  0  0  0  0  0
   -3.2174   23.7585  -27.5774 H   0  0  0  0  0  0  0  0  0  0  0  0
   -5.5992   24.1983  -33.1480 H   0  0  0  0  0  0  0  0  0  0  0  0
   -7.6937   22.8566  -33.3219 H   0  0  0  0  0  0  0  0  0  0  0  0
  1  2  1  0
  2  3  2  0
  3  4  1  0
  4  5  2  0
  5  6  1  0
  6  7  1  0
  7  8  2  0
  7  9  1  0
  9 10  2  0
 10 11  1  0
 11 12  1  0
 12 13  2  0
 12 14  2  0
 12 15  1  0
 15 16  1  0
 16 17  1  0
 17 18  1  0
 18 19  1  0
 19 20  1  0
 11 21  2  0
 21 22  1  0
 22 23  2  0
 23 24  1  0
 24 25  1  0
 25 26  1  0
 26 27  1  0
 27 28  1  0
 28 29  1  0
  5 30  1  0
 30 31  2  0
 31  2  1  0
 23  9  1  0
 29 24  1  0
 20 15  1  0
  1 32  1  0
  1 33  1  0
  1 34  1  0
  3 35  1  0
  4 36  1  0
 10 37  1  0
 16 38  1  0
 16 39  1  0
 17 40  1  0
 17 41  1  0
 18 42  1  0
 18 43  1  0
 19 44  1  0
 19 45  1  0
 20 46  1  0
 20 47  1  0
 21 48  1  0
 22 49  1  0
 25 50  1  0
 25 51  1  0
 26 52  1  0
 26 53  1  0
 28 54  1  0
 28 55  1  0
 29 56  1  0
 29 57  1  0
 30 58  1  0
 31 59  1  0
M  CHG  1   6  -1
M  END
>  <UniqueID>  (30) 
29

>  <SMILES>  (30) 
Cc1ccc([N-]C(=O)c2cc(S(=O)(=O)N3CCCCC3)ccc2N2CCOCC2)cc1

>  <Energy>  (30) 
77.04450629831607

>  <Genealogy>  (30) 
Cc1ccc([N-]C(=O)c2cc(S(=O)(=O)N3CCCCC3)ccc2N2CCOCC2)cc1 (protonated)
Cc1ccc([N-]C(=O)c2cc(S(=O)(=O)N3CCCCC3)ccc2N2CCOCC2)cc1 (3D coordinates assigned)
Cc1ccc([N-]C(=O)c2cc(S(=O)(=O)N3CCCCC3)ccc2N2CCOCC2)cc1 (nonaromatic ring conformer: 77.04450629831607 kcal/mol)

>  <smiles>  (30) 
Cc1ccc(NC(=O)c2cc(S(=O)(=O)N3CCCCC3)ccc2N2CCOCC2)cc1

>  <score_type>  (30) 
oracle

>  <origin>  (30) 
adgpu

>  <m_score__min__energy>  (30) 
-10.75

>  <m_primary>  (30) 
energy

$$$$
30:0
     RDKit          3D

 42 43  0  0  0  0  0  0  0  0999 V2000
   -6.8020   25.6150  -29.3870 C   0  0  0  0  0  0  0  0  0  0  0  0
   -6.7370   24.4070  -30.2710 C   0  0  0  0  0  0  0  0  0  0  0  0
   -7.0270   23.1350  -29.7540 C   0  0  0  0  0  0  0  0  0  0  0  0
   -6.9370   22.0040  -30.5710 C   0  0  0  0  0  0  0  0  0  0  0  0
   -6.5530   22.1280  -31.9160 C   0  0  0  0  0  0  0  0  0  0  0  0
   -6.4770   20.9050  -32.8070 C   0  0  0  0  0  0  0  0  0  0  0  0
   -5.1120   20.3410  -32.9290 N   0  0  0  0  0  0  0  0  0  0  0  0
   -5.0610   19.2120  -33.8770 C   0  0  0  0  0  0  0  0  0  0  0  0
   -4.1030   21.3720  -33.2470 C   0  0  0  0  0  0  0  0  0  0  0  0
   -2.7800   21.0140  -32.6470 C   0  0  0  0  0  0  0  0  0  0  0  0
   -1.7140   21.3640  -33.2230 O   0  0  0  0  0  0  0  0  0  0  0  0
   -2.7330   20.3040  -31.4070 N   0  0  0  0  0  0  0  0  0  0  0  0
   -3.4230   20.7600  -30.2090 C   0  0  0  0  0  0  0  0  0  0  0  0
   -2.9620   22.1470  -29.8680 C   0  0  0  0  0  0  0  0  0  0  0  0
   -1.8110   22.3360  -29.0880 C   0  0  0  0  0  0  0  0  0  0  0  0
   -1.3590   23.6270  -28.7990 C   0  0  0  0  0  0  0  0  0  0  0  0
   -2.0450   24.7390  -29.2990 C   0  0  0  0  0  0  0  0  0  0  0  0
   -1.5900   26.0200  -29.0090 O   0  0  0  0  0  0  0  0  0  0  0  0
   -3.1860   24.5580  -30.0900 C   0  0  0  0  0  0  0  0  0  0  0  0
   -3.8700   25.6590  -30.5930 O   0  0  0  0  0  0  0  0  0  0  0  0
   -3.6390   23.2670  -30.3780 C   0  0  0  0  0  0  0  0  0  0  0  0
   -6.2370   23.3990  -32.4240 C   0  0  0  0  0  0  0  0  0  0  0  0
   -6.3230   24.5300  -31.6060 C   0  0  0  0  0  0  0  0  0  0  0  0
   -6.7850   25.2996  -28.3333 H   0  0  0  0  0  0  0  0  0  0  0  0
   -5.9375   26.2644  -29.5893 H   0  0  0  0  0  0  0  0  0  0  0  0
   -7.7312   26.1679  -29.5893 H   0  0  0  0  0  0  0  0  0  0  0  0
   -7.3265   23.0273  -28.7011 H   0  0  0  0  0  0  0  0  0  0  0  0
   -7.1684   21.0112  -30.1577 H   0  0  0  0  0  0  0  0  0  0  0  0
   -7.1370   20.1300  -32.3901 H   0  0  0  0  0  0  0  0  0  0  0  0
   -6.7854   21.2214  -33.8144 H   0  0  0  0  0  0  0  0  0  0  0  0
   -5.0182   18.2655  -33.3181 H   0  0  0  0  0  0  0  0  0  0  0  0
   -5.9606   19.2237  -34.5099 H   0  0  0  0  0  0  0  0  0  0  0  0
   -4.1661   19.3048  -34.5099 H   0  0  0  0  0  0  0  0  0  0  0  0
   -3.9961   21.4490  -34.3391 H   0  0  0  0  0  0  0  0  0  0  0  0
   -4.4341   22.3342  -32.8292 H   0  0  0  0  0  0  0  0  0  0  0  0
   -4.5079   20.7677  -30.3904 H   0  0  0  0  0  0  0  0  0  0  0  0
   -3.1976   20.0812  -29.3733 H   0  0  0  0  0  0  0  0  0  0  0  0
   -1.2619   21.4645  -28.7022 H   0  0  0  0  0  0  0  0  0  0  0  0
   -0.4625   23.7687  -28.1775 H   0  0  0  0  0  0  0  0  0  0  0  0
   -4.5304   23.1277  -31.0074 H   0  0  0  0  0  0  0  0  0  0  0  0
   -5.9199   23.5053  -33.4719 H   0  0  0  0  0  0  0  0  0  0  0  0
   -6.0651   25.5198  -32.0107 H   0  0  0  0  0  0  0  0  0  0  0  0
  1  2  1  0
  2  3  2  0
  3  4  1  0
  4  5  2  0
  5  6  1  0
  6  7  1  0
  7  8  1  0
  7  9  1  0
  9 10  1  0
 10 11  2  0
 10 12  1  0
 12 13  1  0
 13 14  1  0
 14 15  2  0
 15 16  1  0
 16 17  2  0
 17 18  1  0
 17 19  1  0
 19 20  1  0
 19 21  2  0
  5 22  1  0
 22 23  2  0
 23  2  1  0
 21 14  1  0
  1 24  1  0
  1 25  1  0
  1 26  1  0
  3 27  1  0
  4 28  1  0
  6 29  1  0
  6 30  1  0
  8 31  1  0
  8 32  1  0
  8 33  1  0
  9 34  1  0
  9 35  1  0
 13 36  1  0
 13 37  1  0
 15 38  1  0
 16 39  1  0
 21 40  1  0
 22 41  1  0
 23 42  1  0
M  CHG  3  12  -1  18  -1  20  -1
M  END
>  <UniqueID>  (31) 
30

>  <SMILES>  (31) 
Cc1ccc(CN(C)CC(=O)[N-]Cc2ccc([O-])c([O-])c2)cc1

>  <Energy>  (31) 
40.55328767253446

>  <Genealogy>  (31) 
Cc1ccc(CN(C)CC(=O)[N-]Cc2ccc([O-])c([O-])c2)cc1 (protonated)
Cc1ccc(CN(C)CC(=O)[N-]Cc2ccc([O-])c([O-])c2)cc1 (3D coordinates assigned)
Cc1ccc(CN(C)CC(=O)[N-]Cc2ccc([O-])c([O-])c2)cc1 (optimized conformer: 40.55328767253446 kcal/mol)

>  <smiles>  (31) 
Cc1ccc(CN(C)CC(=O)NCc2ccc(O)c(O)c2)cc1

>  <score_type>  (31) 
oracle

>  <origin>  (31) 
adgpu

>  <m_score__min__energy>  (31) 
-13.5

>  <m_primary>  (31) 
energy

$$$$
31:0
     RDKit          3D

 39 41  0  0  0  0  0  0  0  0999 V2000
   -3.6320   21.4560  -33.0300 C   0  0  0  0  0  0  0  0  0  0  0  0
   -3.9090   22.4570  -32.0550 O   0  0  0  0  0  0  0  0  0  0  0  0
   -3.7880   22.2780  -30.6670 C   0  0  0  0  0  0  0  0  0  0  0  0
   -3.0900   21.1770  -30.1260 C   0  0  0  0  0  0  0  0  0  0  0  0
   -2.9660   21.0270  -28.7410 C   0  0  0  0  0  0  0  0  0  0  0  0
   -3.5390   21.9640  -27.8800 C   0  0  0  0  0  0  0  0  0  0  0  0
   -4.2410   23.0520  -28.4000 C   0  0  0  0  0  0  0  0  0  0  0  0
   -4.3750   23.2170  -29.7880 C   0  0  0  0  0  0  0  0  0  0  0  0
   -5.2490   24.6430  -30.3750 S   0  0  0  0  0  0  0  0  0  0  0  0
   -6.0810   25.2680  -29.2890 O   0  0  0  0  0  0  0  0  0  0  0  0
   -4.2440   25.6600  -30.8430 O   0  0  0  0  0  0  0  0  0  0  0  0
   -6.2730   24.2060  -31.7090 N   0  0  0  0  0  0  0  0  0  0  0  0
   -7.5800   23.7680  -31.2100 C   0  0  0  0  0  0  0  0  0  0  0  0
   -7.7950   22.3330  -31.5640 C   0  0  0  0  0  0  0  0  0  0  0  0
   -6.8810   21.5700  -32.1950 N   0  0  0  0  0  0  0  0  0  0  0  0
   -7.5520   20.4020  -32.3260 C   0  0  0  0  0  0  0  0  0  0  0  0
   -6.9910   19.1990  -32.9790 C   0  0  0  0  0  0  0  0  0  0  0  0
   -6.1100   19.3270  -34.0680 C   0  0  0  0  0  0  0  0  0  0  0  0
   -5.5900   18.1860  -34.6920 C   0  0  0  0  0  0  0  0  0  0  0  0
   -5.9400   16.9130  -34.2340 C   0  0  0  0  0  0  0  0  0  0  0  0
   -6.8050   16.7770  -33.1470 C   0  0  0  0  0  0  0  0  0  0  0  0
   -7.3330   17.9130  -32.5220 C   0  0  0  0  0  0  0  0  0  0  0  0
   -8.7970   20.4660  -31.8060 N   0  0  0  0  0  0  0  0  0  0  0  0
   -8.9090   21.6760  -31.3490 O   0  0  0  0  0  0  0  0  0  0  0  0
   -3.3714   20.5143  -32.5248 H   0  0  0  0  0  0  0  0  0  0  0  0
   -4.5210   21.3009  -33.6590 H   0  0  0  0  0  0  0  0  0  0  0  0
   -2.7897   21.7799  -33.6590 H   0  0  0  0  0  0  0  0  0  0  0  0
   -2.6403   20.4316  -30.7984 H   0  0  0  0  0  0  0  0  0  0  0  0
   -2.4154   20.1683  -28.3293 H   0  0  0  0  0  0  0  0  0  0  0  0
   -3.4372   21.8448  -26.7912 H   0  0  0  0  0  0  0  0  0  0  0  0
   -4.6931   23.7864  -27.7171 H   0  0  0  0  0  0  0  0  0  0  0  0
   -5.8150   23.3940  -32.1870 H   0  0  0  0  0  0  0  0  0  0  0  0
   -7.6124   23.8844  -30.1167 H   0  0  0  0  0  0  0  0  0  0  0  0
   -8.3705   24.3803  -31.6685 H   0  0  0  0  0  0  0  0  0  0  0  0
   -5.8285   20.3266  -34.4308 H   0  0  0  0  0  0  0  0  0  0  0  0
   -4.9040   18.2923  -35.5453 H   0  0  0  0  0  0  0  0  0  0  0  0
   -5.5341   16.0188  -34.7297 H   0  0  0  0  0  0  0  0  0  0  0  0
   -7.0724   15.7749  -32.7806 H   0  0  0  0  0  0  0  0  0  0  0  0
   -8.0187   17.7996  -31.6694 H   0  0  0  0  0  0  0  0  0  0  0  0
  1  2  1  0
  2  3  1  0
  3  4  2  0
  4  5  1  0
  5  6  2  0
  6  7  1  0
  7  8  2  0
  8  9  1  0
  9 10  2  0
  9 11  2  0
  9 12  1  0
 12 13  1  0
 13 14  1  0
 14 15  2  0
 15 16  1  0
 16 17  1  0
 17 18  2  0
 18 19  1  0
 19 20  2  0
 20 21  1  0
 21 22  2  0
 16 23  2  0
 23 24  1  0
  8  3  1  0
 24 14  1  0
 22 17  1  0
  1 25  1  0
  1 26  1  0
  1 27  1  0
  4 28  1  0
  5 29  1  0
  6 30  1  0
  7 31  1  0
 12 32  1  0
 13 33  1  0
 13 34  1  0
 18 35  1  0
 19 36  1  0
 20 37  1  0
 21 38  1  0
 22 39  1  0
M  END
>  <UniqueID>  (32) 
31

>  <SMILES>  (32) 
COc1ccccc1S(=O)(=O)NCc1nc(-c2ccccc2)no1

>  <Energy>  (32) 
72.28124916315895

>  <Genealogy>  (32) 
COc1ccccc1S(=O)(=O)NCc1nc(-c2ccccc2)no1 (3D coordinates assigned)
COc1ccccc1S(=O)(=O)NCc1nc(-c2ccccc2)no1 (optimized conformer: 72.28124916315895 kcal/mol)

>  <smiles>  (32) 
COc1ccccc1S(=O)(=O)NCc1nc(-c2ccccc2)no1

>  <score_type>  (32) 
oracle

>  <origin>  (32) 
adgpu

>  <m_score__min__energy>  (32) 
-8.5399999999999991

>  <m_primary>  (32) 
energy

$$$$
32:0
     RDKit          3D

 53 56  0  0  0  0  0  0  0  0999 V2000
   -4.3390   13.7480  -35.2360 C   0  0  0  0  0  0  0  0  0  0  0  0
   -4.3840   15.1400  -34.6780 C   0  0  0  0  0  0  0  0  0  0  0  0
   -3.8640   16.2110  -35.4140 C   0  0  0  0  0  0  0  0  0  0  0  0
   -3.9320   17.5100  -34.9090 C   0  0  0  0  0  0  0  0  0  0  0  0
   -4.5380   17.7640  -33.6690 C   0  0  0  0  0  0  0  0  0  0  0  0
   -4.5870   19.1600  -33.1720 C   0  0  0  0  0  0  0  0  0  0  0  0
   -5.8190   19.7170  -32.8230 C   0  0  0  0  0  0  0  0  0  0  0  0
   -5.8760   20.9770  -32.3280 N   0  0  0  0  0  0  0  0  0  0  0  0
   -4.7830   21.7230  -32.1480 N   0  0  0  0  0  0  0  0  0  0  0  0
   -4.9550   23.0910  -31.6450 C   0  0  0  0  0  0  0  0  0  0  0  0
   -4.1520   23.2860  -30.3830 C   0  0  0  0  0  0  0  0  0  0  0  0
   -3.9210   22.1920  -29.5340 C   0  0  0  0  0  0  0  0  0  0  0  0
   -3.2220   22.3420  -28.3670 N   0  0  0  0  0  0  0  0  0  0  0  0
   -2.9940   21.1780  -27.5020 C   0  0  0  0  0  0  0  0  0  0  0  0
   -2.7300   23.5700  -28.0040 C   0  0  0  0  0  0  0  0  0  0  0  0
   -2.0820   23.7110  -26.9310 O   0  0  0  0  0  0  0  0  0  0  0  0
   -2.9420   24.6830  -28.8220 C   0  0  0  0  0  0  0  0  0  0  0  0
   -3.6550   24.5450  -30.0110 C   0  0  0  0  0  0  0  0  0  0  0  0
   -3.8600   25.6620  -30.8140 O   0  0  0  0  0  0  0  0  0  0  0  0
   -3.5450   21.2340  -32.4750 C   0  0  0  0  0  0  0  0  0  0  0  0
   -2.5170   21.9520  -32.3250 O   0  0  0  0  0  0  0  0  0  0  0  0
   -3.4200   19.9320  -32.9940 C   0  0  0  0  0  0  0  0  0  0  0  0
   -2.0850   19.4010  -33.3640 C   0  0  0  0  0  0  0  0  0  0  0  0
   -1.5490   18.2940  -32.6860 C   0  0  0  0  0  0  0  0  0  0  0  0
   -0.3000   17.7830  -33.0480 C   0  0  0  0  0  0  0  0  0  0  0  0
    0.4260   18.3740  -34.0880 C   0  0  0  0  0  0  0  0  0  0  0  0
    1.6360   17.8750  -34.4390 F   0  0  0  0  0  0  0  0  0  0  0  0
   -0.0990   19.4790  -34.7640 C   0  0  0  0  0  0  0  0  0  0  0  0
   -1.3480   19.9930  -34.4050 C   0  0  0  0  0  0  0  0  0  0  0  0
   -5.1010   16.6930  -32.9360 C   0  0  0  0  0  0  0  0  0  0  0  0
   -5.7800   16.9160  -31.6100 C   0  0  0  0  0  0  0  0  0  0  0  0
   -5.0090   15.3870  -33.4480 C   0  0  0  0  0  0  0  0  0  0  0  0
   -4.3155   13.0223  -34.4097 H   0  0  0  0  0  0  0  0  0  0  0  0
   -5.2319   13.5715  -35.8537 H   0  0  0  0  0  0  0  0  0  0  0  0
   -3.4366   13.6296  -35.8537 H   0  0  0  0  0  0  0  0  0  0  0  0
   -3.3999   16.0279  -36.3944 H   0  0  0  0  0  0  0  0  0  0  0  0
   -3.5066   18.3427  -35.4883 H   0  0  0  0  0  0  0  0  0  0  0  0
   -6.7426   19.1332  -32.9499 H   0  0  0  0  0  0  0  0  0  0  0  0
   -4.6116   23.8048  -32.4083 H   0  0  0  0  0  0  0  0  0  0  0  0
   -6.0190   23.2613  -31.4237 H   0  0  0  0  0  0  0  0  0  0  0  0
   -4.3074   21.2000  -29.8108 H   0  0  0  0  0  0  0  0  0  0  0  0
   -3.0545   21.4870  -26.4480 H   0  0  0  0  0  0  0  0  0  0  0  0
   -3.7597   20.4148  -27.7049 H   0  0  0  0  0  0  0  0  0  0  0  0
   -1.9969   20.7601  -27.7049 H   0  0  0  0  0  0  0  0  0  0  0  0
   -2.5466   25.6664  -28.5277 H   0  0  0  0  0  0  0  0  0  0  0  0
   -2.1150   17.8272  -31.8664 H   0  0  0  0  0  0  0  0  0  0  0  0
    0.1134   16.9144  -32.5144 H   0  0  0  0  0  0  0  0  0  0  0  0
    0.4722   19.9451  -35.5804 H   0  0  0  0  0  0  0  0  0  0  0  0
   -1.7561   20.8639  -34.9388 H   0  0  0  0  0  0  0  0  0  0  0  0
   -5.0779   16.6854  -30.7952 H   0  0  0  0  0  0  0  0  0  0  0  0
   -6.0987   17.9660  -31.5333 H   0  0  0  0  0  0  0  0  0  0  0  0
   -6.6592   16.2594  -31.5333 H   0  0  0  0  0  0  0  0  0  0  0  0
   -5.4329   14.5484  -32.8761 H   0  0  0  0  0  0  0  0  0  0  0  0
  1  2  1  0
  2  3  2  0
  3  4  1  0
  4  5  2  0
  5  6  1  0
  6  7  1  0
  7  8  2  0
  8  9  1  0
  9 10  1  0
 10 11  1  0
 11 12  2  0
 12 13  1  0
 13 14  1  0
 13 15  1  0
 15 16  2  0
 15 17  1  0
 17 18  2  0
 18 19  1  0
  9 20  1  0
 20 21  2  0
 20 22  1  0
 22 23  1  0
 23 24  2  0
 24 25  1  0
 25 26  2  0
 26 27  1  0
 26 28  1  0
 28 29  2  0
  5 30  1  0
 30 31  1  0
 30 32  2  0
 32  2  1  0
 22  6  2  0
 29 23  1  0
 18 11  1  0
  1 33  1  0
  1 34  1  0
  1 35  1  0
  3 36  1  0
  4 37  1  0
  7 38  1  0
 10 39  1  0
 10 40  1  0
 12 41  1  0
 14 42  1  0
 14 43  1  0
 14 44  1  0
 17 45  1  0
 24 46  1  0
 25 47  1  0
 28 48  1  0
 29 49  1  0
 31 50  1  0
 31 51  1  0
 31 52  1  0
 32 53  1  0
M  CHG  1  19  -1
M  END
>  <UniqueID>  (33) 
32

>  <SMILES>  (33) 
Cc1ccc(-c2cnn(Cc3cn(C)c(=O)cc3[O-])c(=O)c2-c2ccc(F)cc2)c(C)c1

>  <Energy>  (33) 
74.87167775298235

>  <Genealogy>  (33) 
Cc1ccc(-c2cnn(Cc3cn(C)c(=O)cc3[O-])c(=O)c2-c2ccc(F)cc2)c(C)c1 (protonated)
Cc1ccc(-c2cnn(Cc3cn(C)c(=O)cc3[O-])c(=O)c2-c2ccc(F)cc2)c(C)c1 (3D coordinates assigned)
Cc1ccc(-c2cnn(Cc3cn(C)c(=O)cc3[O-])c(=O)c2-c2ccc(F)cc2)c(C)c1 (optimized conformer: 74.87167775298235 kcal/mol)

>  <smiles>  (33) 
Cc1ccc(-c2cnn(Cc3cn(C)c(=O)cc3O)c(=O)c2-c2ccc(F)cc2)c(C)c1

>  <score_type>  (33) 
oracle

>  <origin>  (33) 
adgpu

>  <m_score__min__energy>  (33) 
-11.16

>  <m_primary>  (33) 
energy

$$$$
33:0
     RDKit          3D

 46 48  0  0  0  0  0  0  0  0999 V2000
   -6.1790   26.0380  -29.7890 C   0  0  0  0  0  0  0  0  0  0  0  0
   -5.8310   24.7080  -30.3980 C   0  0  0  0  0  0  0  0  0  0  0  0
   -6.8400   23.7730  -30.6720 C   0  0  0  0  0  0  0  0  0  0  0  0
   -6.5240   22.5250  -31.2300 C   0  0  0  0  0  0  0  0  0  0  0  0
   -7.5430   21.5440  -31.4890 N   0  0  0  0  0  0  0  0  0  0  0  0
   -7.3140   20.2920  -32.1600 C   0  0  0  0  0  0  0  0  0  0  0  0
   -7.8680   19.1150  -31.6330 C   0  0  0  0  0  0  0  0  0  0  0  0
   -7.6370   17.8840  -32.2550 C   0  0  0  0  0  0  0  0  0  0  0  0
   -6.8390   17.8170  -33.4000 C   0  0  0  0  0  0  0  0  0  0  0  0
   -6.2630   18.9800  -33.9190 C   0  0  0  0  0  0  0  0  0  0  0  0
   -6.4930   20.2120  -33.3000 C   0  0  0  0  0  0  0  0  0  0  0  0
   -5.1840   22.2010  -31.4740 C   0  0  0  0  0  0  0  0  0  0  0  0
   -4.1600   23.1280  -31.2120 C   0  0  0  0  0  0  0  0  0  0  0  0
   -2.7810   22.7900  -31.4560 N   0  0  0  0  0  0  0  0  0  0  0  0
   -2.3620   21.5810  -32.1150 C   0  0  0  0  0  0  0  0  0  0  0  0
   -2.9690   21.2050  -33.3240 C   0  0  0  0  0  0  0  0  0  0  0  0
   -2.5750   20.0440  -33.9860 C   0  0  0  0  0  0  0  0  0  0  0  0
   -1.5630   19.2350  -33.4550 C   0  0  0  0  0  0  0  0  0  0  0  0
   -1.1460   17.9810  -34.1720 C   0  0  0  0  0  0  0  0  0  0  0  0
   -0.9380   19.6040  -32.2510 C   0  0  0  0  0  0  0  0  0  0  0  0
    0.0650   18.7910  -31.7270 O   0  0  0  0  0  0  0  0  0  0  0  0
   -1.3230   20.7830  -31.5770 C   0  0  0  0  0  0  0  0  0  0  0  0
   -0.6700   21.1610  -30.2640 C   0  0  0  0  0  0  0  0  0  0  0  0
   -0.3620   20.0110  -29.5260 O   0  0  0  0  0  0  0  0  0  0  0  0
   -4.4890   24.3790  -30.6620 C   0  0  0  0  0  0  0  0  0  0  0  0
   -3.4830   25.2990  -30.3810 O   0  0  0  0  0  0  0  0  0  0  0  0
   -6.1575   25.9560  -28.6923 H   0  0  0  0  0  0  0  0  0  0  0  0
   -5.4481   26.7929  -30.1146 H   0  0  0  0  0  0  0  0  0  0  0  0
   -7.1859   26.3382  -30.1146 H   0  0  0  0  0  0  0  0  0  0  0  0
   -7.8881   24.0203  -30.4475 H   0  0  0  0  0  0  0  0  0  0  0  0
   -8.5140   21.7500  -31.1600 H   0  0  0  0  0  0  0  0  0  0  0  0
   -8.4876   19.1611  -30.7253 H   0  0  0  0  0  0  0  0  0  0  0  0
   -8.0840   16.9675  -31.8424 H   0  0  0  0  0  0  0  0  0  0  0  0
   -6.6641   16.8493  -33.8928 H   0  0  0  0  0  0  0  0  0  0  0  0
   -5.6280   18.9257  -34.8156 H   0  0  0  0  0  0  0  0  0  0  0  0
   -6.0299   21.1234  -33.7060 H   0  0  0  0  0  0  0  0  0  0  0  0
   -4.9293   21.2091  -31.8756 H   0  0  0  0  0  0  0  0  0  0  0  0
   -2.0460   23.4710  -31.1620 H   0  0  0  0  0  0  0  0  0  0  0  0
   -3.7636   21.8333  -33.7528 H   0  0  0  0  0  0  0  0  0  0  0  0
   -3.0617   19.7614  -34.9311 H   0  0  0  0  0  0  0  0  0  0  0  0
   -0.8882   17.2059  -33.4353 H   0  0  0  0  0  0  0  0  0  0  0  0
   -1.9746   17.6264  -34.8026 H   0  0  0  0  0  0  0  0  0  0  0  0
   -0.2701   18.1932  -34.8026 H   0  0  0  0  0  0  0  0  0  0  0  0
    0.2550   21.7208  -30.4666 H   0  0  0  0  0  0  0  0  0  0  0  0
   -1.3672   21.7830  -29.6834 H   0  0  0  0  0  0  0  0  0  0  0  0
   -0.0780   19.3220  -30.1830 H   0  0  0  0  0  0  0  0  0  0  0  0
  1  2  1  0
  2  3  2  0
  3  4  1  0
  4  5  1  0
  5  6  1  0
  6  7  2  0
  7  8  1  0
  8  9  2  0
  9 10  1  0
 10 11  2  0
  4 12  2  0
 12 13  1  0
 13 14  1  0
 14 15  1  0
 15 16  2  0
 16 17  1  0
 17 18  2  0
 18 19  1  0
 18 20  1  0
 20 21  1  0
 20 22  2  0
 22 23  1  0
 23 24  1  0
 13 25  2  0
 25 26  1  0
 25  2  1  0
 11  6  1  0
 22 15  1  0
  1 27  1  0
  1 28  1  0
  1 29  1  0
  3 30  1  0
  5 31  1  0
  7 32  1  0
  8 33  1  0
  9 34  1  0
 10 35  1  0
 11 36  1  0
 12 37  1  0
 14 38  1  0
 16 39  1  0
 17 40  1  0
 19 41  1  0
 19 42  1  0
 19 43  1  0
 23 44  1  0
 23 45  1  0
 24 46  1  0
M  CHG  2  21  -1  26  -1
M  END
>  <UniqueID>  (34) 
33

>  <SMILES>  (34) 
Cc1cc(Nc2ccccc2)cc(Nc2ccc(C)c([O-])c2CO)c1[O-]

>  <Energy>  (34) 
61.60211670672023

>  <Genealogy>  (34) 
Cc1cc(Nc2ccccc2)cc(Nc2ccc(C)c([O-])c2CO)c1[O-] (protonated)
Cc1cc(Nc2ccccc2)cc(Nc2ccc(C)c([O-])c2CO)c1[O-] (3D coordinates assigned)
Cc1cc(Nc2ccccc2)cc(Nc2ccc(C)c([O-])c2CO)c1[O-] (optimized conformer: 61.60211670672023 kcal/mol)

>  <smiles>  (34) 
Cc1cc(Nc2ccccc2)cc(Nc2ccc(C)c(O)c2CO)c1O

>  <score_type>  (34) 
oracle

>  <origin>  (34) 
adgpu

>  <m_score__min__energy>  (34) 
-11.789999999999999

>  <m_primary>  (34) 
energy

$$$$
34:0
     RDKit          3D

 42 44  0  0  0  0  0  0  0  0999 V2000
   -3.0320   17.2690  -33.0930 C   0  0  0  0  0  0  0  0  0  0  0  0
   -3.5700   18.6230  -32.9510 N   0  0  0  0  0  0  0  0  0  0  0  0
   -4.9910   18.8350  -32.7990 C   0  0  0  0  0  0  0  0  0  0  0  0
   -5.7490   18.0300  -31.9280 C   0  0  0  0  0  0  0  0  0  0  0  0
   -7.1250   18.2320  -31.7890 C   0  0  0  0  0  0  0  0  0  0  0  0
   -7.7620   19.2380  -32.5190 C   0  0  0  0  0  0  0  0  0  0  0  0
   -7.0240   20.0400  -33.3910 C   0  0  0  0  0  0  0  0  0  0  0  0
   -5.6480   19.8410  -33.5340 C   0  0  0  0  0  0  0  0  0  0  0  0
   -2.4660   19.9720  -32.9660 S   0  0  0  0  0  0  0  0  0  0  0  0
   -2.7130   20.7890  -34.2040 O   0  0  0  0  0  0  0  0  0  0  0  0
   -1.0490   19.4740  -32.9960 O   0  0  0  0  0  0  0  0  0  0  0  0
   -2.7010   20.9730  -31.5350 C   0  0  0  0  0  0  0  0  0  0  0  0
   -2.4350   20.4580  -30.2590 C   0  0  0  0  0  0  0  0  0  0  0  0
   -2.6060   21.2620  -29.1300 C   0  0  0  0  0  0  0  0  0  0  0  0
   -3.0510   22.5790  -29.2670 C   0  0  0  0  0  0  0  0  0  0  0  0
   -3.3400   23.1020  -30.5330 C   0  0  0  0  0  0  0  0  0  0  0  0
   -3.7740   24.4660  -30.6320 N   0  0  0  0  0  0  0  0  0  0  0  0
   -5.1300   24.9330  -30.6300 C   0  0  0  0  0  0  0  0  0  0  0  0
   -5.3740   26.1660  -30.5250 O   0  0  0  0  0  0  0  0  0  0  0  0
   -6.2450   23.9720  -30.8050 C   0  0  0  0  0  0  0  0  0  0  0  0
   -6.8630   23.8040  -32.0560 C   0  0  0  0  0  0  0  0  0  0  0  0
   -7.9100   22.8930  -32.2030 C   0  0  0  0  0  0  0  0  0  0  0  0
   -8.3350   22.1530  -31.0990 C   0  0  0  0  0  0  0  0  0  0  0  0
   -7.7310   22.3220  -29.8940 N   0  0  0  0  0  0  0  0  0  0  0  0
   -6.7080   23.2030  -29.7230 C   0  0  0  0  0  0  0  0  0  0  0  0
   -3.1410   22.2980  -31.6720 C   0  0  0  0  0  0  0  0  0  0  0  0
   -2.8601   16.8364  -32.0964 H   0  0  0  0  0  0  0  0  0  0  0  0
   -3.7505   16.6449  -33.6447 H   0  0  0  0  0  0  0  0  0  0  0  0
   -2.0811   17.3082  -33.6447 H   0  0  0  0  0  0  0  0  0  0  0  0
   -5.2539   17.2347  -31.3515 H   0  0  0  0  0  0  0  0  0  0  0  0
   -7.7069   17.5980  -31.1039 H   0  0  0  0  0  0  0  0  0  0  0  0
   -8.8445   19.3981  -32.4068 H   0  0  0  0  0  0  0  0  0  0  0  0
   -7.5267   20.8308  -33.9672 H   0  0  0  0  0  0  0  0  0  0  0  0
   -5.0738   20.4748  -34.2258 H   0  0  0  0  0  0  0  0  0  0  0  0
   -2.0911   19.4192  -30.1466 H   0  0  0  0  0  0  0  0  0  0  0  0
   -2.3897   20.8572  -28.1303 H   0  0  0  0  0  0  0  0  0  0  0  0
   -3.1752   23.2094  -28.3741 H   0  0  0  0  0  0  0  0  0  0  0  0
   -6.5209   24.3915  -32.9207 H   0  0  0  0  0  0  0  0  0  0  0  0
   -8.3960   22.7595  -33.1807 H   0  0  0  0  0  0  0  0  0  0  0  0
   -9.1595   21.4325  -31.2045 H   0  0  0  0  0  0  0  0  0  0  0  0
   -6.2410   23.3140  -28.7332 H   0  0  0  0  0  0  0  0  0  0  0  0
   -3.3314   22.7109  -32.6736 H   0  0  0  0  0  0  0  0  0  0  0  0
  1  2  1  0
  2  3  1  0
  3  4  2  0
  4  5  1  0
  5  6  2  0
  6  7  1  0
  7  8  2  0
  2  9  1  0
  9 10  2  0
  9 11  2  0
  9 12  1  0
 12 13  2  0
 13 14  1  0
 14 15  2  0
 15 16  1  0
 16 17  1  0
 17 18  1  0
 18 19  2  0
 18 20  1  0
 20 21  2  0
 21 22  1  0
 22 23  2  0
 23 24  1  0
 24 25  2  0
 16 26  2  0
  8  3  1  0
 26 12  1  0
 25 20  1  0
  1 27  1  0
  1 28  1  0
  1 29  1  0
  4 30  1  0
  5 31  1  0
  6 32  1  0
  7 33  1  0
  8 34  1  0
 13 35  1  0
 14 36  1  0
 15 37  1  0
 21 38  1  0
 22 39  1  0
 23 40  1  0
 25 41  1  0
 26 42  1  0
M  CHG  1  17  -1
M  END
>  <UniqueID>  (35) 
34

>  <SMILES>  (35) 
CN(c1ccccc1)S(=O)(=O)c1cccc([N-]C(=O)c2cccnc2)c1

>  <Energy>  (35) 
53.93174330071776

>  <Genealogy>  (35) 
CN(c1ccccc1)S(=O)(=O)c1cccc([N-]C(=O)c2cccnc2)c1 (protonated)
CN(c1ccccc1)S(=O)(=O)c1cccc([N-]C(=O)c2cccnc2)c1 (3D coordinates assigned)
CN(c1ccccc1)S(=O)(=O)c1cccc([N-]C(=O)c2cccnc2)c1 (optimized conformer: 53.93174330071776 kcal/mol)

>  <smiles>  (35) 
CN(c1ccccc1)S(=O)(=O)c1cccc(NC(=O)c2cccnc2)c1

>  <score_type>  (35) 
oracle

>  <origin>  (35) 
adgpu

>  <m_score__min__energy>  (35) 
-10.550000000000001

>  <m_primary>  (35) 
energy

$$$$
35:0
     RDKit          3D

 59 61  0  0  0  0  0  0  0  0999 V2000
   -5.8560   18.0370  -34.2970 C   0  0  0  0  0  0  0  0  0  0  0  0
   -4.6820   17.5490  -33.4550 C   0  0  0  0  0  0  0  0  0  0  0  0
   -3.4100   17.7700  -34.1610 N   0  0  0  0  0  0  0  0  0  0  0  0
   -2.9230   16.7300  -35.0800 C   0  0  0  0  0  0  0  0  0  0  0  0
   -3.7640   15.4660  -34.9530 C   0  0  0  0  0  0  0  0  0  0  0  0
   -2.6040   18.9450  -33.9120 C   0  0  0  0  0  0  0  0  0  0  0  0
   -1.4950   19.0930  -34.5010 O   0  0  0  0  0  0  0  0  0  0  0  0
   -3.0430   20.0020  -32.9870 C   0  0  0  0  0  0  0  0  0  0  0  0
   -2.2670   20.3250  -31.8690 C   0  0  0  0  0  0  0  0  0  0  0  0
   -2.6810   21.3310  -30.9950 C   0  0  0  0  0  0  0  0  0  0  0  0
   -3.8750   22.0340  -31.2280 C   0  0  0  0  0  0  0  0  0  0  0  0
   -4.3610   23.2860  -30.0770 S   0  0  0  0  0  0  0  0  0  0  0  0
   -5.7500   22.9740  -29.5920 O   0  0  0  0  0  0  0  0  0  0  0  0
   -4.3650   24.6290  -30.7530 O   0  0  0  0  0  0  0  0  0  0  0  0
   -3.2480   23.3470  -28.7460 N   0  0  0  0  0  0  0  0  0  0  0  0
   -2.3610   24.2830  -28.5970 C   0  0  0  0  0  0  0  0  0  0  0  0
   -2.1830   25.2890  -29.4210 O   0  0  0  0  0  0  0  0  0  0  0  0
   -1.2510   26.0850  -28.9820 N   0  0  0  0  0  0  0  0  0  0  0  0
   -0.8040   25.5660  -27.8190 C   0  0  0  0  0  0  0  0  0  0  0  0
    0.2520   26.2000  -26.9740 C   0  0  0  0  0  0  0  0  0  0  0  0
   -1.4830   24.3930  -27.5440 C   0  0  0  0  0  0  0  0  0  0  0  0
   -1.3890   23.5340  -26.3210 C   0  0  0  0  0  0  0  0  0  0  0  0
   -4.6500   21.7200  -32.3710 C   0  0  0  0  0  0  0  0  0  0  0  0
   -5.8520   22.4330  -32.6880 N   0  0  0  0  0  0  0  0  0  0  0  0
   -7.1680   21.9630  -32.3450 C   0  0  0  0  0  0  0  0  0  0  0  0
   -8.2030   22.8540  -32.0060 C   0  0  0  0  0  0  0  0  0  0  0  0
   -9.4670   22.3660  -31.6620 C   0  0  0  0  0  0  0  0  0  0  0  0
   -9.7140   20.9910  -31.6540 C   0  0  0  0  0  0  0  0  0  0  0  0
   -8.6920   20.0910  -31.9910 C   0  0  0  0  0  0  0  0  0  0  0  0
   -8.9590   18.6170  -32.0230 C   0  0  0  0  0  0  0  0  0  0  0  0
   -7.4300   20.5830  -32.3580 C   0  0  0  0  0  0  0  0  0  0  0  0
   -4.2430   20.6850  -33.2220 C   0  0  0  0  0  0  0  0  0  0  0  0
   -6.6671   18.3741  -33.6348 H   0  0  0  0  0  0  0  0  0  0  0  0
   -5.5292   18.8738  -34.9318 H   0  0  0  0  0  0  0  0  0  0  0  0
   -6.2186   17.2151  -34.9318 H   0  0  0  0  0  0  0  0  0  0  0  0
   -4.6670   18.0992  -32.5026 H   0  0  0  0  0  0  0  0  0  0  0  0
   -4.8022   16.4713  -33.2705 H   0  0  0  0  0  0  0  0  0  0  0  0
   -2.9844   17.1028  -36.1131 H   0  0  0  0  0  0  0  0  0  0  0  0
   -1.8806   16.4898  -34.8236 H   0  0  0  0  0  0  0  0  0  0  0  0
   -3.9185   15.2338  -33.8890 H   0  0  0  0  0  0  0  0  0  0  0  0
   -4.7381   15.6233  -35.4392 H   0  0  0  0  0  0  0  0  0  0  0  0
   -3.2426   14.6283  -35.4392 H   0  0  0  0  0  0  0  0  0  0  0  0
   -1.3280   19.7847  -31.6782 H   0  0  0  0  0  0  0  0  0  0  0  0
   -2.0670   21.5758  -30.1157 H   0  0  0  0  0  0  0  0  0  0  0  0
    0.0082   26.0536  -25.9114 H   0  0  0  0  0  0  0  0  0  0  0  0
    1.2250   25.7366  -27.1942 H   0  0  0  0  0  0  0  0  0  0  0  0
    0.3004   27.2767  -27.1942 H   0  0  0  0  0  0  0  0  0  0  0  0
   -1.4581   24.1656  -25.4231 H   0  0  0  0  0  0  0  0  0  0  0  0
   -2.2127   22.8050  -26.3208 H   0  0  0  0  0  0  0  0  0  0  0  0
   -0.4271   23.0004  -26.3208 H   0  0  0  0  0  0  0  0  0  0  0  0
   -5.7510   23.3950  -33.0880 H   0  0  0  0  0  0  0  0  0  0  0  0
   -8.0169   23.9381  -32.0117 H   0  0  0  0  0  0  0  0  0  0  0  0
  -10.2711   23.0681  -31.3963 H   0  0  0  0  0  0  0  0  0  0  0  0
  -10.7111   20.6136  -31.3831 H   0  0  0  0  0  0  0  0  0  0  0  0
   -9.0283   18.2345  -30.9940 H   0  0  0  0  0  0  0  0  0  0  0  0
   -9.9061   18.4273  -32.5493 H   0  0  0  0  0  0  0  0  0  0  0  0
   -8.1386   18.1071  -32.5493 H   0  0  0  0  0  0  0  0  0  0  0  0
   -6.6382   19.8811  -32.6588 H   0  0  0  0  0  0  0  0  0  0  0  0
   -4.8704   20.4063  -34.0815 H   0  0  0  0  0  0  0  0  0  0  0  0
  1  2  1  0
  2  3  1  0
  3  4  1  0
  4  5  1  0
  3  6  1  0
  6  7  2  0
  6  8  1  0
  8  9  2  0
  9 10  1  0
 10 11  2  0
 11 12  1  0
 12 13  2  0
 12 14  2  0
 12 15  1  0
 15 16  2  3
 16 17  1  0
 17 18  1  0
 18 19  1  0
 19 20  1  0
 19 21  2  0
 21 22  1  0
 11 23  1  0
 23 24  1  0
 24 25  1  0
 25 26  2  0
 26 27  1  0
 27 28  2  0
 28 29  1  0
 29 30  1  0
 29 31  2  0
 23 32  2  0
 32  8  1  0
 21 16  1  0
 31 25  1  0
  1 33  1  0
  1 34  1  0
  1 35  1  0
  2 36  1  0
  2 37  1  0
  4 38  1  0
  4 39  1  0
  5 40  1  0
  5 41  1  0
  5 42  1  0
  9 43  1  0
 10 44  1  0
 20 45  1  0
 20 46  1  0
 20 47  1  0
 22 48  1  0
 22 49  1  0
 22 50  1  0
 24 51  1  0
 26 52  1  0
 27 53  1  0
 28 54  1  0
 30 55  1  0
 30 56  1  0
 30 57  1  0
 31 58  1  0
 32 59  1  0
M  CHG  1  18  -1
M  END
>  <UniqueID>  (36) 
35

>  <SMILES>  (36) 
CCN(CC)C(=O)c1ccc(S(=O)(=O)N=c2o[n-]c(C)c2C)c(Nc2cccc(C)c2)c1

>  <Energy>  (36) 
97.40198441384038

>  <Genealogy>  (36) 
CCN(CC)C(=O)c1ccc(S(=O)(=O)N=c2o[n-]c(C)c2C)c(Nc2cccc(C)c2)c1 (protonated)
CCN(CC)C(=O)c1ccc(S(=O)(=O)N=c2o[n-]c(C)c2C)c(Nc2cccc(C)c2)c1 (3D coordinates assigned)
CCN(CC)C(=O)c1ccc(S(=O)(=O)N=c2o[n-]c(C)c2C)c(Nc2cccc(C)c2)c1 (optimized conformer: 97.40198441384038 kcal/mol)

>  <smiles>  (36) 
CCN(CC)C(=O)c1ccc(S(=O)(=O)N=c2o[nH]c(C)c2C)c(Nc2cccc(C)c2)c1

>  <score_type>  (36) 
oracle

>  <origin>  (36) 
adgpu

>  <m_score__min__energy>  (36) 
-13.220000000000001

>  <m_primary>  (36) 
energy

$$$$
36:0
     RDKit          3D

 54 57  0  0  0  0  0  0  0  0999 V2000
   -2.8420   18.3840  -34.5250 N   0  0  0  0  0  0  0  0  0  0  0  0
   -2.2740   19.1120  -33.4280 C   0  0  0  0  0  0  0  0  0  0  0  0
   -0.8990   19.0050  -33.1830 C   0  0  0  0  0  0  0  0  0  0  0  0
   -0.3300   19.6140  -32.0650 C   0  0  0  0  0  0  0  0  0  0  0  0
   -1.1430   20.3390  -31.1840 C   0  0  0  0  0  0  0  0  0  0  0  0
   -0.5860   20.9870  -29.9690 C   0  0  0  0  0  0  0  0  0  0  0  0
   -0.7650   22.3660  -29.7430 C   0  0  0  0  0  0  0  0  0  0  0  0
   -0.2480   22.9700  -28.5920 C   0  0  0  0  0  0  0  0  0  0  0  0
    0.4480   22.2070  -27.6540 C   0  0  0  0  0  0  0  0  0  0  0  0
    0.6280   20.8390  -27.8610 C   0  0  0  0  0  0  0  0  0  0  0  0
    0.1140   20.2260  -29.0090 C   0  0  0  0  0  0  0  0  0  0  0  0
    0.3250   18.8970  -29.1900 F   0  0  0  0  0  0  0  0  0  0  0  0
   -2.4720   20.4490  -31.4520 N   0  0  0  0  0  0  0  0  0  0  0  0
   -3.0630   19.8800  -32.5380 C   0  0  0  0  0  0  0  0  0  0  0  0
   -4.5100   20.1160  -32.7370 C   0  0  0  0  0  0  0  0  0  0  0  0
   -5.0490   19.8620  -33.8480 O   0  0  0  0  0  0  0  0  0  0  0  0
   -5.2950   20.6600  -31.6650 N   0  0  0  0  0  0  0  0  0  0  0  0
   -6.7150   20.8420  -31.7500 C   0  0  0  0  0  0  0  0  0  0  0  0
   -7.5230   19.8130  -32.2630 C   0  0  0  0  0  0  0  0  0  0  0  0
   -8.9010   19.9950  -32.3900 C   0  0  0  0  0  0  0  0  0  0  0  0
   -9.4860   21.2030  -32.0100 C   0  0  0  0  0  0  0  0  0  0  0  0
   -8.6920   22.2350  -31.5030 C   0  0  0  0  0  0  0  0  0  0  0  0
   -7.3020   22.0730  -31.3790 C   0  0  0  0  0  0  0  0  0  0  0  0
   -6.5050   23.1270  -30.8000 N   0  0  0  0  0  0  0  0  0  0  0  0
   -5.9370   22.9260  -29.4550 C   0  0  0  0  0  0  0  0  0  0  0  0
   -4.4080   23.1370  -29.3980 C   0  0  0  0  0  0  0  0  0  0  0  0
   -3.7850   23.8790  -30.5970 C   0  0  0  0  0  0  0  0  0  0  0  0
   -4.2070   25.2840  -30.6890 N   0  0  0  0  0  0  0  0  0  0  0  0
   -5.6650   25.5130  -30.7140 C   0  0  0  0  0  0  0  0  0  0  0  0
   -6.4760   24.4410  -31.4750 C   0  0  0  0  0  0  0  0  0  0  0  0
   -3.8710   18.2460  -34.6250 H   0  0  0  0  0  0  0  0  0  0  0  0
   -2.2260   17.8460  -35.1750 H   0  0  0  0  0  0  0  0  0  0  0  0
   -0.2633   18.4363  -33.8777 H   0  0  0  0  0  0  0  0  0  0  0  0
    0.7501   19.5257  -31.8761 H   0  0  0  0  0  0  0  0  0  0  0  0
   -1.3155   22.9724  -30.4773 H   0  0  0  0  0  0  0  0  0  0  0  0
   -0.3904   24.0481  -28.4263 H   0  0  0  0  0  0  0  0  0  0  0  0
    0.8552   22.6843  -26.7505 H   0  0  0  0  0  0  0  0  0  0  0  0
    1.1761   20.2400  -27.1188 H   0  0  0  0  0  0  0  0  0  0  0  0
   -4.8410   20.8070  -30.7380 H   0  0  0  0  0  0  0  0  0  0  0  0
   -7.0670   18.8590  -32.5661 H   0  0  0  0  0  0  0  0  0  0  0  0
   -9.5271   19.1841  -32.7906 H   0  0  0  0  0  0  0  0  0  0  0  0
  -10.5725   21.3432  -32.1095 H   0  0  0  0  0  0  0  0  0  0  0  0
   -9.1595   23.1829  -31.1982 H   0  0  0  0  0  0  0  0  0  0  0  0
   -6.4134   23.6382  -28.7651 H   0  0  0  0  0  0  0  0  0  0  0  0
   -6.1317   21.8808  -29.1727 H   0  0  0  0  0  0  0  0  0  0  0  0
   -4.1812   23.7144  -28.4896 H   0  0  0  0  0  0  0  0  0  0  0  0
   -3.9680   22.1289  -29.4108 H   0  0  0  0  0  0  0  0  0  0  0  0
   -2.6900   23.8483  -30.4969 H   0  0  0  0  0  0  0  0  0  0  0  0
   -4.1298   23.3728  -31.5107 H   0  0  0  0  0  0  0  0  0  0  0  0
   -3.8040   25.6700  -31.5750 H   0  0  0  0  0  0  0  0  0  0  0  0
   -6.0249   25.5408  -29.6749 H   0  0  0  0  0  0  0  0  0  0  0  0
   -5.8207   26.4594  -31.2526 H   0  0  0  0  0  0  0  0  0  0  0  0
   -7.5105   24.7993  -31.5819 H   0  0  0  0  0  0  0  0  0  0  0  0
   -5.9805   24.2925  -32.4458 H   0  0  0  0  0  0  0  0  0  0  0  0
  1  2  1  0
  2  3  2  0
  3  4  1  0
  4  5  2  0
  5  6  1  0
  6  7  2  0
  7  8  1  0
  8  9  2  0
  9 10  1  0
 10 11  2  0
 11 12  1  0
  5 13  1  0
 13 14  2  0
 14 15  1  0
 15 16  2  0
 15 17  1  0
 17 18  1  0
 18 19  2  0
 19 20  1  0
 20 21  2  0
 21 22  1  0
 22 23  2  0
 23 24  1  0
 24 25  1  0
 25 26  1  0
 26 27  1  0
 27 28  1  0
 28 29  1  0
 29 30  1  0
 14  2  1  0
 23 18  1  0
 30 24  1  0
 11  6  1  0
  1 31  1  0
  1 32  1  0
  3 33  1  0
  4 34  1  0
  7 35  1  0
  8 36  1  0
  9 37  1  0
 10 38  1  0
 17 39  1  0
 19 40  1  0
 20 41  1  0
 21 42  1  0
 22 43  1  0
 25 44  1  0
 25 45  1  0
 26 46  1  0
 26 47  1  0
 27 48  1  0
 27 49  1  0
 28 50  1  0
 29 51  1  0
 29 52  1  0
 30 53  1  0
 30 54  1  0
M  END
>  <UniqueID>  (37) 
36

>  <SMILES>  (37) 
Nc1ccc(-c2ccccc2F)nc1C(=O)Nc1ccccc1N1CCCNCC1

>  <Energy>  (37) 
84.6044103703121

>  <Genealogy>  (37) 
Nc1ccc(-c2ccccc2F)nc1C(=O)Nc1ccccc1N1CCCNCC1 (3D coordinates assigned)
Nc1ccc(-c2ccccc2F)nc1C(=O)Nc1ccccc1N1CCCNCC1 (nonaromatic ring conformer: 84.6044103703121 kcal/mol)

>  <smiles>  (37) 
Nc1ccc(-c2ccccc2F)nc1C(=O)Nc1ccccc1N1CCCNCC1

>  <score_type>  (37) 
oracle

>  <origin>  (37) 
adgpu

>  <m_score__min__energy>  (37) 
-6.7400000000000002

>  <m_primary>  (37) 
energy

$$$$
37:0
     RDKit          3D

 48 51  0  0  0  0  0  0  0  0999 V2000
   -2.5480   23.7820  -27.5260 N   0  0  0  0  0  0  0  0  0  0  0  0
   -2.4840   22.9030  -28.6560 C   0  0  0  0  0  0  0  0  0  0  0  0
   -1.4940   21.9220  -28.8060 C   0  0  0  0  0  0  0  0  0  0  0  0
   -0.4660   21.5350  -27.8180 C   0  0  0  0  0  0  0  0  0  0  0  0
   -0.1010   22.3770  -26.9540 O   0  0  0  0  0  0  0  0  0  0  0  0
    0.1140   20.1700  -27.7920 C   0  0  0  0  0  0  0  0  0  0  0  0
   -0.6830   19.0500  -27.4840 C   0  0  0  0  0  0  0  0  0  0  0  0
   -0.1280   17.7670  -27.4780 C   0  0  0  0  0  0  0  0  0  0  0  0
    1.2240   17.5860  -27.7830 C   0  0  0  0  0  0  0  0  0  0  0  0
    1.9170   15.9750  -27.7750 Cl  0  0  0  0  0  0  0  0  0  0  0  0
    2.0190   18.6890  -28.1040 C   0  0  0  0  0  0  0  0  0  0  0  0
    1.4680   19.9740  -28.1130 C   0  0  0  0  0  0  0  0  0  0  0  0
   -1.7080   21.1720  -30.2980 S   0  0  0  0  0  0  0  0  0  0  0  0
   -3.0330   22.0880  -30.7730 C   0  0  0  0  0  0  0  0  0  0  0  0
   -3.7400   21.9060  -32.0060 N   0  0  0  0  0  0  0  0  0  0  0  0
   -4.6820   20.8420  -32.2200 C   0  0  0  0  0  0  0  0  0  0  0  0
   -5.3530   20.7490  -33.4500 C   0  0  0  0  0  0  0  0  0  0  0  0
   -6.2540   19.7050  -33.6870 C   0  0  0  0  0  0  0  0  0  0  0  0
   -6.4840   18.7410  -32.7030 C   0  0  0  0  0  0  0  0  0  0  0  0
   -5.8090   18.8150  -31.4820 C   0  0  0  0  0  0  0  0  0  0  0  0
   -4.9060   19.8550  -31.2410 C   0  0  0  0  0  0  0  0  0  0  0  0
   -3.3620   22.9920  -29.7620 C   0  0  0  0  0  0  0  0  0  0  0  0
   -4.6060   24.2410  -29.9190 S   0  0  0  0  0  0  0  0  0  0  0  0
   -4.1160   25.3110  -30.8550 O   0  0  0  0  0  0  0  0  0  0  0  0
   -4.9230   24.8790  -28.5960 O   0  0  0  0  0  0  0  0  0  0  0  0
   -6.0740   23.4890  -30.5340 C   0  0  0  0  0  0  0  0  0  0  0  0
   -6.8060   22.6280  -29.7040 C   0  0  0  0  0  0  0  0  0  0  0  0
   -7.9670   22.0140  -30.1800 C   0  0  0  0  0  0  0  0  0  0  0  0
   -8.4010   22.2520  -31.4900 C   0  0  0  0  0  0  0  0  0  0  0  0
   -9.8550   21.4760  -32.0890 Cl  0  0  0  0  0  0  0  0  0  0  0  0
   -7.6740   23.1100  -32.3200 C   0  0  0  0  0  0  0  0  0  0  0  0
   -6.5130   23.7290  -31.8440 C   0  0  0  0  0  0  0  0  0  0  0  0
   -1.8350   23.7480  -26.7660 H   0  0  0  0  0  0  0  0  0  0  0  0
   -3.3500   24.4350  -27.3930 H   0  0  0  0  0  0  0  0  0  0  0  0
   -1.7485   19.1858  -27.2468 H   0  0  0  0  0  0  0  0  0  0  0  0
   -0.7565   16.8982  -27.2328 H   0  0  0  0  0  0  0  0  0  0  0  0
    3.0815   18.5461  -28.3504 H   0  0  0  0  0  0  0  0  0  0  0  0
    2.0984   20.8371  -28.3730 H   0  0  0  0  0  0  0  0  0  0  0  0
   -3.6470   22.6490  -32.7340 H   0  0  0  0  0  0  0  0  0  0  0  0
   -5.1693   21.5010  -34.2315 H   0  0  0  0  0  0  0  0  0  0  0  0
   -6.7821   19.6434  -34.6500 H   0  0  0  0  0  0  0  0  0  0  0  0
   -7.1963   17.9238  -32.8892 H   0  0  0  0  0  0  0  0  0  0  0  0
   -5.9883   18.0535  -30.7087 H   0  0  0  0  0  0  0  0  0  0  0  0
   -4.3683   19.9023  -30.2825 H   0  0  0  0  0  0  0  0  0  0  0  0
   -6.4654   22.4356  -28.6759 H   0  0  0  0  0  0  0  0  0  0  0  0
   -8.5412   21.3425  -29.5248 H   0  0  0  0  0  0  0  0  0  0  0  0
   -8.0150   23.2988  -33.3486 H   0  0  0  0  0  0  0  0  0  0  0  0
   -5.9435   24.4052  -32.4986 H   0  0  0  0  0  0  0  0  0  0  0  0
  1  2  1  0
  2  3  2  0
  3  4  1  0
  4  5  2  0
  4  6  1  0
  6  7  2  0
  7  8  1  0
  8  9  2  0
  9 10  1  0
  9 11  1  0
 11 12  2  0
  3 13  1  0
 13 14  1  0
 14 15  1  0
 15 16  1  0
 16 17  2  0
 17 18  1  0
 18 19  2  0
 19 20  1  0
 20 21  2  0
 14 22  2  0
 22 23  1  0
 23 24  2  0
 23 25  2  0
 23 26  1  0
 26 27  2  0
 27 28  1  0
 28 29  2  0
 29 30  1  0
 29 31  1  0
 31 32  2  0
 22  2  1  0
 32 26  1  0
 12  6  1  0
 21 16  1  0
  1 33  1  0
  1 34  1  0
  7 35  1  0
  8 36  1  0
 11 37  1  0
 12 38  1  0
 15 39  1  0
 17 40  1  0
 18 41  1  0
 19 42  1  0
 20 43  1  0
 21 44  1  0
 27 45  1  0
 28 46  1  0
 31 47  1  0
 32 48  1  0
M  END
>  <UniqueID>  (38) 
37

>  <SMILES>  (38) 
Nc1c(C(=O)c2ccc(Cl)cc2)sc(Nc2ccccc2)c1S(=O)(=O)c1ccc(Cl)cc1

>  <Energy>  (38) 
93.44876042945455

>  <Genealogy>  (38) 
Nc1c(C(=O)c2ccc(Cl)cc2)sc(Nc2ccccc2)c1S(=O)(=O)c1ccc(Cl)cc1 (3D coordinates assigned)
Nc1c(C(=O)c2ccc(Cl)cc2)sc(Nc2ccccc2)c1S(=O)(=O)c1ccc(Cl)cc1 (optimized conformer: 93.44876042945455 kcal/mol)

>  <smiles>  (38) 
Nc1c(C(=O)c2ccc(Cl)cc2)sc(Nc2ccccc2)c1S(=O)(=O)c1ccc(Cl)cc1

>  <score_type>  (38) 
oracle

>  <origin>  (38) 
adgpu

>  <m_score__min__energy>  (38) 
-10.81

>  <m_primary>  (38) 
energy

$$$$
38:0
     RDKit          3D

 42 44  0  0  0  0  0  0  0  0999 V2000
   -9.0580   21.5100  -31.5450 C   0  0  0  0  0  0  0  0  0  0  0  0
   -8.6770   22.8780  -31.6600 O   0  0  0  0  0  0  0  0  0  0  0  0
   -7.3850   23.3650  -31.4030 C   0  0  0  0  0  0  0  0  0  0  0  0
   -7.2300   24.3490  -30.4200 C   0  0  0  0  0  0  0  0  0  0  0  0
   -5.9650   24.8680  -30.1270 C   0  0  0  0  0  0  0  0  0  0  0  0
   -4.8280   24.3840  -30.7970 C   0  0  0  0  0  0  0  0  0  0  0  0
   -3.5250   24.9190  -30.5290 N   0  0  0  0  0  0  0  0  0  0  0  0
   -2.6870   24.5520  -29.4240 C   0  0  0  0  0  0  0  0  0  0  0  0
   -1.6950   25.2750  -29.1460 O   0  0  0  0  0  0  0  0  0  0  0  0
   -2.8790   23.2550  -28.6820 C   0  0  0  0  0  0  0  0  0  0  0  0
   -2.6420   22.0490  -29.5950 C   0  0  0  0  0  0  0  0  0  0  0  0
   -2.0970   22.4820  -30.8860 N   0  0  0  0  0  0  0  0  0  0  0  0
   -1.7300   21.0950  -31.8660 S   0  0  0  0  0  0  0  0  0  0  0  0
   -0.8700   20.1360  -31.0890 O   0  0  0  0  0  0  0  0  0  0  0  0
   -0.9640   21.5380  -33.0810 O   0  0  0  0  0  0  0  0  0  0  0  0
   -3.2150   20.2970  -32.3800 C   0  0  0  0  0  0  0  0  0  0  0  0
   -3.2950   19.6790  -33.6550 C   0  0  0  0  0  0  0  0  0  0  0  0
   -4.4790   19.0370  -34.0670 C   0  0  0  0  0  0  0  0  0  0  0  0
   -5.5530   19.0290  -33.1790 C   0  0  0  0  0  0  0  0  0  0  0  0
   -6.7710   18.4850  -33.3590 N   0  0  0  0  0  0  0  0  0  0  0  0
   -7.3780   18.7860  -32.1810 C   0  0  0  0  0  0  0  0  0  0  0  0
   -8.5650   18.4570  -31.9220 O   0  0  0  0  0  0  0  0  0  0  0  0
   -6.6170   19.4570  -31.3340 O   0  0  0  0  0  0  0  0  0  0  0  0
   -5.4740   19.6140  -31.9510 C   0  0  0  0  0  0  0  0  0  0  0  0
   -4.3240   20.2590  -31.5070 C   0  0  0  0  0  0  0  0  0  0  0  0
   -4.9810   23.4220  -31.8020 C   0  0  0  0  0  0  0  0  0  0  0  0
   -6.2470   22.9060  -32.1000 C   0  0  0  0  0  0  0  0  0  0  0  0
   -9.1336   21.2386  -30.4817 H   0  0  0  0  0  0  0  0  0  0  0  0
  -10.0325   21.3586  -32.0323 H   0  0  0  0  0  0  0  0  0  0  0  0
   -8.3021   20.8766  -32.0323 H   0  0  0  0  0  0  0  0  0  0  0  0
   -8.1106   24.7172  -29.8733 H   0  0  0  0  0  0  0  0  0  0  0  0
   -5.8592   25.6582  -29.3691 H   0  0  0  0  0  0  0  0  0  0  0  0
   -2.1686   23.2140  -27.8432 H   0  0  0  0  0  0  0  0  0  0  0  0
   -3.9161   23.2148  -28.3174 H   0  0  0  0  0  0  0  0  0  0  0  0
   -1.9292   21.3641  -29.1125 H   0  0  0  0  0  0  0  0  0  0  0  0
   -3.6011   21.5385  -29.7667 H   0  0  0  0  0  0  0  0  0  0  0  0
   -2.8390   23.0150  -31.3960 H   0  0  0  0  0  0  0  0  0  0  0  0
   -2.4247   19.7016  -34.3274 H   0  0  0  0  0  0  0  0  0  0  0  0
   -4.5533   18.5588  -35.0548 H   0  0  0  0  0  0  0  0  0  0  0  0
   -4.2803   20.7231  -30.5107 H   0  0  0  0  0  0  0  0  0  0  0  0
   -4.1013   23.0697  -32.3606 H   0  0  0  0  0  0  0  0  0  0  0  0
   -6.3557   22.1391  -32.8811 H   0  0  0  0  0  0  0  0  0  0  0  0
  1  2  1  0
  2  3  1  0
  3  4  2  0
  4  5  1  0
  5  6  2  0
  6  7  1  0
  7  8  1  0
  8  9  2  0
  8 10  1  0
 10 11  1  0
 11 12  1  0
 12 13  1  0
 13 14  2  0
 13 15  2  0
 13 16  1  0
 16 17  2  0
 17 18  1  0
 18 19  2  0
 19 20  1  0
 20 21  1  0
 21 22  2  0
 21 23  1  0
 23 24  1  0
 24 25  2  0
  6 26  1  0
 26 27  2  0
 27  3  1  0
 25 16  1  0
 24 19  1  0
  1 28  1  0
  1 29  1  0
  1 30  1  0
  4 31  1  0
  5 32  1  0
 10 33  1  0
 10 34  1  0
 11 35  1  0
 11 36  1  0
 12 37  1  0
 17 38  1  0
 18 39  1  0
 25 40  1  0
 26 41  1  0
 27 42  1  0
M  CHG  2   7  -1  20  -1
M  END
>  <UniqueID>  (39) 
38

>  <SMILES>  (39) 
COc1ccc([N-]C(=O)CCNS(=O)(=O)c2ccc3[n-]c(=O)oc3c2)cc1

>  <Energy>  (39) 
81.9802800449958

>  <Genealogy>  (39) 
COc1ccc([N-]C(=O)CCNS(=O)(=O)c2ccc3[n-]c(=O)oc3c2)cc1 (protonated)
COc1ccc([N-]C(=O)CCNS(=O)(=O)c2ccc3[n-]c(=O)oc3c2)cc1 (3D coordinates assigned)
COc1ccc([N-]C(=O)CCNS(=O)(=O)c2ccc3[n-]c(=O)oc3c2)cc1 (optimized conformer: 81.9802800449958 kcal/mol)

>  <smiles>  (39) 
COc1ccc(NC(=O)CCNS(=O)(=O)c2ccc3[nH]c(=O)oc3c2)cc1

>  <score_type>  (39) 
oracle

>  <origin>  (39) 
adgpu

>  <m_score__min__energy>  (39) 
-10.34

>  <m_primary>  (39) 
energy

$$$$
39:0
     RDKit          3D

 49 51  0  0  0  0  0  0  0  0999 V2000
  -10.4395   21.3627  -30.6856 H   0  0  0  0  0  0  0  0  0  0  0  0
   -9.5250   21.9260  -30.9230 C   0  0  0  0  0  0  0  0  0  0  0  0
   -9.4620   22.6990  -32.0850 C   0  0  0  0  0  0  0  0  0  0  0  0
  -10.3280   22.7437  -32.7618 H   0  0  0  0  0  0  0  0  0  0  0  0
   -8.3010   23.4160  -32.3900 C   0  0  0  0  0  0  0  0  0  0  0  0
   -8.2563   24.0228  -33.3064 H   0  0  0  0  0  0  0  0  0  0  0  0
   -7.1900   23.3640  -31.5290 C   0  0  0  0  0  0  0  0  0  0  0  0
   -5.9230   24.1090  -31.8670 C   0  0  0  0  0  0  0  0  0  0  0  0
   -5.9595   25.1099  -31.4123 H   0  0  0  0  0  0  0  0  0  0  0  0
   -5.8404   24.1917  -32.9608 H   0  0  0  0  0  0  0  0  0  0  0  0
   -4.7390   23.3820  -31.3510 N   0  0  0  0  0  0  0  0  0  0  0  0
   -3.8950   23.9850  -30.4520 C   0  0  0  0  0  0  0  0  0  0  0  0
   -4.1180   25.1770  -30.0950 O   0  0  0  0  0  0  0  0  0  0  0  0
   -2.8120   23.3100  -29.9390 N   0  0  0  0  0  0  0  0  0  0  0  0
   -1.9100   23.9740  -28.9560 C   0  0  0  0  0  0  0  0  0  0  0  0
   -2.1265   25.0519  -28.9925 H   0  0  0  0  0  0  0  0  0  0  0  0
   -2.1930   23.5080  -27.5190 C   0  0  0  0  0  0  0  0  0  0  0  0
   -1.7572   24.2256  -26.8083 H   0  0  0  0  0  0  0  0  0  0  0  0
   -3.2798   23.4486  -27.3601 H   0  0  0  0  0  0  0  0  0  0  0  0
   -1.7445   22.5162  -27.3601 H   0  0  0  0  0  0  0  0  0  0  0  0
   -0.4320   23.8000  -29.3340 C   0  0  0  0  0  0  0  0  0  0  0  0
    0.1745   23.7286  -28.4191 H   0  0  0  0  0  0  0  0  0  0  0  0
   -0.3108   22.8814  -29.9269 H   0  0  0  0  0  0  0  0  0  0  0  0
   -0.1008   24.6654  -29.9269 H   0  0  0  0  0  0  0  0  0  0  0  0
   -2.5820   22.0240  -30.3600 C   0  0  0  0  0  0  0  0  0  0  0  0
   -1.5870   21.3740  -29.9410 O   0  0  0  0  0  0  0  0  0  0  0  0
   -3.4210   21.4300  -31.2420 N   0  0  0  0  0  0  0  0  0  0  0  0
   -3.1810   20.4660  -31.5650 H   0  0  0  0  0  0  0  0  0  0  0  0
   -4.5120   22.0830  -31.7250 C   0  0  0  0  0  0  0  0  0  0  0  0
   -5.3270   21.5020  -32.5670 N   0  0  0  0  0  0  0  0  0  0  0  0
   -5.3310   20.1290  -32.9820 C   0  0  0  0  0  0  0  0  0  0  0  0
   -4.1810   19.5880  -33.5660 C   0  0  0  0  0  0  0  0  0  0  0  0
   -3.2725   20.2018  -33.6545 H   0  0  0  0  0  0  0  0  0  0  0  0
   -4.1790   18.2720  -34.0380 C   0  0  0  0  0  0  0  0  0  0  0  0
   -3.2639   17.8489  -34.4780 H   0  0  0  0  0  0  0  0  0  0  0  0
   -5.3450   17.4860  -33.9520 C   0  0  0  0  0  0  0  0  0  0  0  0
   -5.3930   16.1600  -34.4080 O   0  0  0  0  0  0  0  0  0  0  0  0
   -6.4820   15.2700  -34.1790 C   0  0  0  0  0  0  0  0  0  0  0  0
   -6.6332   15.1465  -33.0965 H   0  0  0  0  0  0  0  0  0  0  0  0
   -7.3951   15.6837  -34.6319 H   0  0  0  0  0  0  0  0  0  0  0  0
   -6.2584   14.2928  -34.6319 H   0  0  0  0  0  0  0  0  0  0  0  0
   -6.5040   18.0420  -33.4000 C   0  0  0  0  0  0  0  0  0  0  0  0
   -7.4215   17.4387  -33.3354 H   0  0  0  0  0  0  0  0  0  0  0  0
   -6.5050   19.3580  -32.9300 C   0  0  0  0  0  0  0  0  0  0  0  0
   -7.4279   19.7920  -32.5179 H   0  0  0  0  0  0  0  0  0  0  0  0
   -7.2610   22.5830  -30.3640 C   0  0  0  0  0  0  0  0  0  0  0  0
   -6.3969   22.5324  -29.6852 H   0  0  0  0  0  0  0  0  0  0  0  0
   -8.4260   21.8690  -30.0630 C   0  0  0  0  0  0  0  0  0  0  0  0
   -8.4764   21.2616  -29.1473 H   0  0  0  0  0  0  0  0  0  0  0  0
  1  2  1  0
  2  3  2  0
  3  4  1  0
  3  5  1  0
  5  6  1  0
  5  7  2  0
  7  8  1  0
  8  9  1  0
  8 10  1  0
  8 11  1  0
 11 12  1  0
 12 13  2  0
 12 14  1  0
 14 15  1  0
 15 16  1  0
 15 17  1  0
 17 18  1  0
 17 19  1  0
 17 20  1  0
 15 21  1  0
 21 22  1  0
 21 23  1  0
 21 24  1  0
 14 25  1  0
 25 26  2  0
 25 27  1  0
 27 28  1  0
 27 29  1  0
 29 30  2  0
 30 31  1  0
 31 32  2  0
 32 33  1  0
 32 34  1  0
 34 35  1  0
 34 36  2  0
 36 37  1  0
 37 38  1  0
 38 39  1  0
 38 40  1  0
 38 41  1  0
 36 42  1  0
 42 43  1  0
 42 44  2  0
 44 45  1  0
  7 46  1  0
 46 47  1  0
 46 48  2  0
 48 49  1  0
 48  2  1  0
 29 11  1  0
 44 31  1  0
M  END
>  <UniqueID>  (40) 
39

>  <SMILES>  (40) 
COc1ccc(/N=c2\[nH]c(=O)n(C(C)C)c(=O)n2Cc2ccccc2)cc1

>  <Energy>  (40) 
66.24670853141436

>  <Genealogy>  (40) 
COc1ccc(/N=c2\[nH]c(=O)n(C(C)C)c(=O)n2Cc2ccccc2)cc1 (cis-trans isomerization)
COc1ccc(/N=c2\[nH]c(=O)n(C(C)C)c(=O)n2Cc2ccccc2)cc1 (3D coordinates assigned)
COc1ccc(/N=c2\[nH]c(=O)n(C(C)C)c(=O)n2Cc2ccccc2)cc1 (optimized conformer: 66.24670853141436 kcal/mol)

>  <smiles>  (40) 
COc1ccc(N=c2[nH]c(=O)n(C(C)C)c(=O)n2Cc2ccccc2)cc1

>  <score_type>  (40) 
oracle

>  <origin>  (40) 
adgpu

>  <m_score__min__energy>  (40) 
-7.5999999999999996

>  <m_primary>  (40) 
energy

$$$$
40:0
     RDKit          3D

 41 43  0  0  1  0  0  0  0  0999 V2000
   -6.3470   25.6250  -29.5010 C   0  0  0  0  0  0  0  0  0  0  0  0
   -6.1840   24.3540  -30.2600 C   0  0  0  0  0  0  0  0  0  0  0  0
   -7.2490   23.5150  -30.5340 C   0  0  0  0  0  0  0  0  0  0  0  0
   -7.1120   22.3340  -31.2360 C   0  0  0  0  0  0  0  0  0  0  0  0
   -8.2430   21.4740  -31.5090 C   0  0  0  0  0  0  0  0  0  0  0  0
   -9.1590   20.7880  -31.7350 N   0  0  0  0  0  0  0  0  0  0  0  0
   -5.8400   21.9930  -31.6790 C   0  0  0  0  0  0  0  0  0  0  0  0
   -4.7570   22.8190  -31.4160 C   0  0  0  0  0  0  0  0  0  0  0  0
   -3.4140   22.4030  -31.9140 C   0  0  0  0  0  0  0  0  0  0  0  0
   -4.9380   23.9930  -30.7080 C   0  0  0  0  0  0  0  0  0  0  0  0
   -3.7670   24.7860  -30.4820 N   0  0  0  0  0  0  0  0  0  0  0  0
   -3.0080   24.5550  -29.4660 C   0  0  0  0  0  0  0  0  0  0  0  0
   -3.3650   23.5250  -28.6190 C   0  0  0  0  0  0  0  0  0  0  0  0
   -2.6150   23.2010  -27.5050 C   0  0  0  0  0  0  0  0  0  0  0  0
   -1.5060   23.9340  -27.2690 N   0  0  0  0  0  0  0  0  0  0  0  0
   -1.1410   24.9520  -28.0940 C   0  0  0  0  0  0  0  0  0  0  0  0
   -0.0630   25.6370  -27.8330 N   0  0  0  0  0  0  0  0  0  0  0  0
    0.7500   25.3520  -26.7020 C   0  0  0  0  0  0  0  0  0  0  0  0
    0.3360   25.5400  -25.4030 C   0  0  0  0  0  0  0  0  0  0  0  0
    1.2070   25.2310  -24.3590 C   0  0  0  0  0  0  0  0  0  0  0  0
    2.4860   24.7360  -24.6240 C   0  0  0  0  0  0  0  0  0  0  0  0
    3.6100   24.3350  -23.3530 Cl  0  0  0  0  0  0  0  0  0  0  0  0
    2.8990   24.5470  -25.9310 C   0  0  0  0  0  0  0  0  0  0  0  0
    2.0250   24.8570  -26.9770 C   0  0  0  0  0  0  0  0  0  0  0  0
   -1.8970   25.2550  -29.1890 N   0  0  0  0  0  0  0  0  0  0  0  0
   -6.3199   25.4137  -28.4218 H   0  0  0  0  0  0  0  0  0  0  0  0
   -5.5299   26.3143  -29.7603 H   0  0  0  0  0  0  0  0  0  0  0  0
   -7.3116   26.0858  -29.7603 H   0  0  0  0  0  0  0  0  0  0  0  0
   -8.2492   23.8013  -30.1769 H   0  0  0  0  0  0  0  0  0  0  0  0
   -5.6905   21.0604  -32.2429 H   0  0  0  0  0  0  0  0  0  0  0  0
   -2.7531   22.1983  -31.0588 H   0  0  0  0  0  0  0  0  0  0  0  0
   -3.5150   21.4940  -32.5252 H   0  0  0  0  0  0  0  0  0  0  0  0
   -2.9835   23.2099  -32.5252 H   0  0  0  0  0  0  0  0  0  0  0  0
   -4.2737   22.9450  -28.8376 H   0  0  0  0  0  0  0  0  0  0  0  0
   -2.9097   22.3784  -26.8368 H   0  0  0  0  0  0  0  0  0  0  0  0
   -0.9390   23.6870  -26.4240 H   0  0  0  0  0  0  0  0  0  0  0  0
   -0.6706   25.9296  -25.1908 H   0  0  0  0  0  0  0  0  0  0  0  0
    0.8842   25.3783  -23.3178 H   0  0  0  0  0  0  0  0  0  0  0  0
    3.9050   24.1567  -26.1448 H   0  0  0  0  0  0  0  0  0  0  0  0
    2.3434   24.7103  -28.0196 H   0  0  0  0  0  0  0  0  0  0  0  0
   -1.6230   26.0390  -29.8320 H   0  0  0  0  0  0  0  0  0  0  0  0
  1  2  1  0
  2  3  2  0
  3  4  1  0
  4  5  1  0
  5  6  3  0
  4  7  2  0
  7  8  1  0
  8  9  1  0
  8 10  2  0
 10 11  1  0
 11 12  2  0
 12 13  1  0
 13 14  2  0
 14 15  1  0
 15 16  1  0
 16 17  2  0
 17 18  1  0
 18 19  2  0
 19 20  1  0
 20 21  2  0
 21 22  1  0
 21 23  1  0
 23 24  2  0
 16 25  1  0
 10  2  1  0
 25 12  1  0
 24 18  1  0
  1 26  1  0
  1 27  1  0
  1 28  1  0
  3 29  1  0
  7 30  1  0
  9 31  1  0
  9 32  1  0
  9 33  1  0
 13 34  1  0
 14 35  1  0
 15 36  1  0
 19 37  1  0
 20 38  1  0
 23 39  1  0
 24 40  1  0
 25 41  1  0
M  END
>  <smiles>  (41) 
Cc1cc(C#N)cc(C)c1N=c1cc[nH]c(=Nc2ccc(Cl)cc2)[nH]1

>  <score_type>  (41) 
oracle

>  <origin>  (41) 
adgpu

>  <m_score__min__energy>  (41) 
-9.3200000000000003

>  <m_primary>  (41) 
energy

$$$$
41:0
     RDKit          3D

 44 46  0  0  0  0  0  0  0  0999 V2000
    0.1580   21.4620  -27.2230 O   0  0  0  0  0  0  0  0  0  0  0  0
   -0.7680   20.9960  -28.3100 S   0  0  0  0  0  0  0  0  0  0  0  0
   -1.6980   19.9550  -27.7520 O   0  0  0  0  0  0  0  0  0  0  0  0
    0.1680   20.2910  -29.5870 N   0  0  0  0  0  0  0  0  0  0  0  0
   -0.3710   19.6300  -30.7400 C   0  0  0  0  0  0  0  0  0  0  0  0
    0.2940   18.5630  -31.3710 C   0  0  0  0  0  0  0  0  0  0  0  0
   -0.2750   17.9390  -32.4850 C   0  0  0  0  0  0  0  0  0  0  0  0
   -1.5070   18.3740  -32.9800 C   0  0  0  0  0  0  0  0  0  0  0  0
   -2.1730   19.4430  -32.3660 C   0  0  0  0  0  0  0  0  0  0  0  0
   -3.7260   19.9860  -32.9960 S   0  0  0  0  0  0  0  0  0  0  0  0
   -4.1190   19.1320  -34.1690 O   0  0  0  0  0  0  0  0  0  0  0  0
   -3.5850   21.4120  -33.4470 O   0  0  0  0  0  0  0  0  0  0  0  0
   -4.9380   19.8660  -31.7380 N   0  0  0  0  0  0  0  0  0  0  0  0
   -5.7680   18.6420  -31.8810 C   0  0  0  0  0  0  0  0  0  0  0  0
   -7.2620   18.9210  -32.1170 C   0  0  0  0  0  0  0  0  0  0  0  0
   -7.4430   20.0340  -33.1470 C   0  0  0  0  0  0  0  0  0  0  0  0
   -6.7280   21.3300  -32.7260 C   0  0  0  0  0  0  0  0  0  0  0  0
   -5.7060   21.1190  -31.5940 C   0  0  0  0  0  0  0  0  0  0  0  0
   -1.6030   20.0640  -31.2460 C   0  0  0  0  0  0  0  0  0  0  0  0
   -1.6760   22.3770  -28.9170 C   0  0  0  0  0  0  0  0  0  0  0  0
   -2.9640   22.1950  -29.4390 C   0  0  0  0  0  0  0  0  0  0  0  0
   -3.6900   23.2920  -29.9140 C   0  0  0  0  0  0  0  0  0  0  0  0
   -3.1320   24.5740  -29.8730 C   0  0  0  0  0  0  0  0  0  0  0  0
   -3.8590   25.6600  -30.3450 O   0  0  0  0  0  0  0  0  0  0  0  0
   -1.8430   24.7590  -29.3560 C   0  0  0  0  0  0  0  0  0  0  0  0
   -1.2830   26.0310  -29.3150 O   0  0  0  0  0  0  0  0  0  0  0  0
   -1.1160   23.6620  -28.8810 C   0  0  0  0  0  0  0  0  0  0  0  0
    1.2653   18.2184  -30.9864 H   0  0  0  0  0  0  0  0  0  0  0  0
    0.2484   17.1036  -32.9730 H   0  0  0  0  0  0  0  0  0  0  0  0
   -1.9548   17.8766  -33.8530 H   0  0  0  0  0  0  0  0  0  0  0  0
   -5.3856   18.0630  -32.7345 H   0  0  0  0  0  0  0  0  0  0  0  0
   -5.6937   18.0951  -30.9295 H   0  0  0  0  0  0  0  0  0  0  0  0
   -7.7474   18.0050  -32.4850 H   0  0  0  0  0  0  0  0  0  0  0  0
   -7.7187   19.2376  -31.1677 H   0  0  0  0  0  0  0  0  0  0  0  0
   -7.0308   19.6975  -34.1098 H   0  0  0  0  0  0  0  0  0  0  0  0
   -8.5185   20.2501  -33.2287 H   0  0  0  0  0  0  0  0  0  0  0  0
   -6.2011   21.7386  -33.6009 H   0  0  0  0  0  0  0  0  0  0  0  0
   -7.4971   22.0193  -32.3475 H   0  0  0  0  0  0  0  0  0  0  0  0
   -5.0019   21.9641  -31.5951 H   0  0  0  0  0  0  0  0  0  0  0  0
   -6.2678   21.0547  -30.6505 H   0  0  0  0  0  0  0  0  0  0  0  0
   -2.1279   20.8997  -30.7601 H   0  0  0  0  0  0  0  0  0  0  0  0
   -3.4046   21.1877  -29.4751 H   0  0  0  0  0  0  0  0  0  0  0  0
   -4.7017   23.1463  -30.3206 H   0  0  0  0  0  0  0  0  0  0  0  0
   -0.1028   23.8079  -28.4784 H   0  0  0  0  0  0  0  0  0  0  0  0
  1  2  2  0
  2  3  2  0
  2  4  1  0
  4  5  1  0
  5  6  2  0
  6  7  1  0
  7  8  2  0
  8  9  1  0
  9 10  1  0
 10 11  2  0
 10 12  2  0
 10 13  1  0
 13 14  1  0
 14 15  1  0
 15 16  1  0
 16 17  1  0
 17 18  1  0
  9 19  2  0
  2 20  1  0
 20 21  2  0
 21 22  1  0
 22 23  2  0
 23 24  1  0
 23 25  1  0
 25 26  1  0
 25 27  2  0
 19  5  1  0
 27 20  1  0
 18 13  1  0
  6 28  1  0
  7 29  1  0
  8 30  1  0
 14 31  1  0
 14 32  1  0
 15 33  1  0
 15 34  1  0
 16 35  1  0
 16 36  1  0
 17 37  1  0
 17 38  1  0
 18 39  1  0
 18 40  1  0
 19 41  1  0
 21 42  1  0
 22 43  1  0
 27 44  1  0
M  CHG  3   4  -1  24  -1  26  -1
M  END
>  <UniqueID>  (42) 
40

>  <SMILES>  (42) 
O=S(=O)([N-]c1cccc(S(=O)(=O)N2CCCCC2)c1)c1ccc([O-])c([O-])c1

>  <Energy>  (42) 
55.74321744380453

>  <Genealogy>  (42) 
O=S(=O)([N-]c1cccc(S(=O)(=O)N2CCCCC2)c1)c1ccc([O-])c([O-])c1 (protonated)
O=S(=O)([N-]c1cccc(S(=O)(=O)N2CCCCC2)c1)c1ccc([O-])c([O-])c1 (3D coordinates assigned)
O=S(=O)([N-]c1cccc(S(=O)(=O)N2CCCCC2)c1)c1ccc([O-])c([O-])c1 (nonaromatic ring conformer: 55.74321744380453 kcal/mol)

>  <smiles>  (42) 
O=S(=O)(Nc1cccc(S(=O)(=O)N2CCCCC2)c1)c1ccc(O)c(O)c1

>  <score_type>  (42) 
oracle

>  <origin>  (42) 
adgpu

>  <m_score__min__energy>  (42) 
-14.619999999999999

>  <m_primary>  (42) 
energy

$$$$
42:0
     RDKit          3D

 43 45  0  0  0  0  0  0  0  0999 V2000
   -9.0890   18.9150  -32.0040 C   0  0  0  0  0  0  0  0  0  0  0  0
   -9.1390   20.3360  -32.0790 O   0  0  0  0  0  0  0  0  0  0  0  0
   -8.0180   21.1740  -31.9800 C   0  0  0  0  0  0  0  0  0  0  0  0
   -8.1900   22.4530  -31.4360 C   0  0  0  0  0  0  0  0  0  0  0  0
   -7.1020   23.3220  -31.3110 C   0  0  0  0  0  0  0  0  0  0  0  0
   -5.8220   22.9130  -31.7120 C   0  0  0  0  0  0  0  0  0  0  0  0
   -4.6900   23.7830  -31.5960 N   0  0  0  0  0  0  0  0  0  0  0  0
   -4.2490   24.4400  -30.3980 C   0  0  0  0  0  0  0  0  0  0  0  0
   -3.9250   25.6550  -30.4680 O   0  0  0  0  0  0  0  0  0  0  0  0
   -4.1620   23.7120  -29.0680 C   0  0  2  0  0  0  0  0  0  0  0  0
   -3.1630   24.3500  -28.0780 C   0  0  0  0  0  0  0  0  0  0  0  0
   -2.5680   23.1730  -27.4120 C   0  0  0  0  0  0  0  0  0  0  0  0
   -1.8080   23.2460  -26.4090 O   0  0  0  0  0  0  0  0  0  0  0  0
   -2.9170   21.9500  -28.0330 N   0  0  0  0  0  0  0  0  0  0  0  0
   -2.2180   20.7110  -27.8370 C   0  0  0  0  0  0  0  0  0  0  0  0
   -2.7120   19.7790  -26.9100 C   0  0  0  0  0  0  0  0  0  0  0  0
   -2.0320   18.5820  -26.6770 C   0  0  0  0  0  0  0  0  0  0  0  0
   -0.8480   18.3070  -27.3630 C   0  0  0  0  0  0  0  0  0  0  0  0
   -0.3480   19.2230  -28.2910 C   0  0  0  0  0  0  0  0  0  0  0  0
   -1.0320   20.4220  -28.5510 C   0  0  0  0  0  0  0  0  0  0  0  0
   -0.4660   21.3820  -29.5610 C   0  0  0  0  0  0  0  0  0  0  0  0
   -3.7150   22.2380  -29.2140 C   0  0  0  0  0  0  0  0  0  0  0  0
   -5.6510   21.6490  -32.2860 C   0  0  0  0  0  0  0  0  0  0  0  0
   -6.7390   20.7770  -32.4120 C   0  0  0  0  0  0  0  0  0  0  0  0
   -9.0780   18.6037  -30.9490 H   0  0  0  0  0  0  0  0  0  0  0  0
   -9.9728   18.4902  -32.5025 H   0  0  0  0  0  0  0  0  0  0  0  0
   -8.1776   18.5534  -32.5025 H   0  0  0  0  0  0  0  0  0  0  0  0
   -9.1880   22.7760  -31.1048 H   0  0  0  0  0  0  0  0  0  0  0  0
   -7.2505   24.3301  -30.8966 H   0  0  0  0  0  0  0  0  0  0  0  0
   -5.1900   23.7825  -28.6829 H   0  0  0  0  0  0  0  0  0  0  0  0
   -2.3972   24.9345  -28.6089 H   0  0  0  0  0  0  0  0  0  0  0  0
   -3.6334   25.0559  -27.3778 H   0  0  0  0  0  0  0  0  0  0  0  0
   -3.6420   19.9937  -26.3631 H   0  0  0  0  0  0  0  0  0  0  0  0
   -2.4294   17.8557  -25.9528 H   0  0  0  0  0  0  0  0  0  0  0  0
   -0.3081   17.3677  -27.1725 H   0  0  0  0  0  0  0  0  0  0  0  0
    0.5895   19.0037  -28.8229 H   0  0  0  0  0  0  0  0  0  0  0  0
    0.0257   22.2160  -29.0388 H   0  0  0  0  0  0  0  0  0  0  0  0
    0.2688   20.8599  -30.1915 H   0  0  0  0  0  0  0  0  0  0  0  0
   -1.2786   21.7722  -30.1915 H   0  0  0  0  0  0  0  0  0  0  0  0
   -3.1123   22.1084  -30.1251 H   0  0  0  0  0  0  0  0  0  0  0  0
   -4.5763   21.5589  -29.2975 H   0  0  0  0  0  0  0  0  0  0  0  0
   -4.6569   21.3386  -32.6401 H   0  0  0  0  0  0  0  0  0  0  0  0
   -6.5936   19.7785  -32.8500 H   0  0  0  0  0  0  0  0  0  0  0  0
  1  2  1  0
  2  3  1  0
  3  4  2  0
  4  5  1  0
  5  6  2  0
  6  7  1  0
  7  8  1  0
  8  9  2  0
  8 10  1  0
 10 11  1  0
 11 12  1  0
 12 13  2  0
 12 14  1  0
 14 15  1  0
 15 16  2  0
 16 17  1  0
 17 18  2  0
 18 19  1  0
 19 20  2  0
 20 21  1  0
 14 22  1  0
  6 23  1  0
 23 24  2  0
 24  3  1  0
 22 10  1  0
 20 15  1  0
  1 25  1  0
  1 26  1  0
  1 27  1  0
  4 28  1  0
  5 29  1  0
 10 30  1  1
 11 31  1  0
 11 32  1  0
 16 33  1  0
 17 34  1  0
 18 35  1  0
 19 36  1  0
 21 37  1  0
 21 38  1  0
 21 39  1  0
 22 40  1  0
 22 41  1  0
 23 42  1  0
 24 43  1  0
M  CHG  1   7  -1
M  END
>  <UniqueID>  (43) 
41

>  <SMILES>  (43) 
COc1ccc([N-]C(=O)[C@@H]2CC(=O)N(c3ccccc3C)C2)cc1

>  <Energy>  (43) 
63.44433917152716

>  <Genealogy>  (43) 
COc1ccc([N-]C(=O)C2CC(=O)N(c3ccccc3C)C2)cc1 (protonated)
COc1ccc([N-]C(=O)[C@@H]2CC(=O)N(c3ccccc3C)C2)cc1 (chirality)
COc1ccc([N-]C(=O)[C@@H]2CC(=O)N(c3ccccc3C)C2)cc1 (3D coordinates assigned)
COc1ccc([N-]C(=O)[C@@H]2CC(=O)N(c3ccccc3C)C2)cc1 (nonaromatic ring conformer: 63.44433917152716 kcal/mol)

>  <smiles>  (43) 
COc1ccc(NC(=O)C2CC(=O)N(c3ccccc3C)C2)cc1

>  <score_type>  (43) 
oracle

>  <origin>  (43) 
adgpu

>  <m_score__min__energy>  (43) 
-9.9700000000000006

>  <m_primary>  (43) 
energy

$$$$
43:0
     RDKit          3D

 41 43  0  0  1  0  0  0  0  0999 V2000
   -6.4780   17.2080  -33.8630 C   0  0  0  0  0  0  0  0  0  0  0  0
   -6.5580   18.3910  -32.9530 C   0  0  0  0  0  0  0  0  0  0  0  0
   -5.8760   18.3680  -31.9280 O   0  0  0  0  0  0  0  0  0  0  0  0
   -7.3900   19.4650  -33.2910 N   0  0  0  0  0  0  0  0  0  0  0  0
   -7.5830   20.6510  -32.5530 C   0  0  0  0  0  0  0  0  0  0  0  0
   -8.7580   21.0380  -31.9550 C   0  0  0  0  0  0  0  0  0  0  0  0
   -8.8810   22.2210  -31.2410 C   0  0  0  0  0  0  0  0  0  0  0  0
   -7.8120   23.0790  -31.0950 C   0  0  0  0  0  0  0  0  0  0  0  0
   -6.6280   22.6990  -31.6910 C   0  0  0  0  0  0  0  0  0  0  0  0
   -5.4850   23.5370  -31.5790 N   0  0  0  0  0  0  0  0  0  0  0  0
   -4.8130   23.4970  -30.4780 C   0  0  0  0  0  0  0  0  0  0  0  0
   -5.1260   22.7210  -29.4490 N   0  0  0  0  0  0  0  0  0  0  0  0
   -4.3650   22.7370  -28.3220 C   0  0  0  0  0  0  0  0  0  0  0  0
   -3.2450   23.5670  -28.2290 C   0  0  0  0  0  0  0  0  0  0  0  0
   -2.9410   24.3670  -29.3190 C   0  0  0  0  0  0  0  0  0  0  0  0
   -1.9270   25.1460  -29.2850 N   0  0  0  0  0  0  0  0  0  0  0  0
   -1.0810   25.2200  -28.1420 C   0  0  0  0  0  0  0  0  0  0  0  0
   -0.0560   24.2970  -27.9250 C   0  0  0  0  0  0  0  0  0  0  0  0
    0.7430   24.4040  -26.8050 C   0  0  0  0  0  0  0  0  0  0  0  0
    0.5700   25.4000  -25.8760 C   0  0  0  0  0  0  0  0  0  0  0  0
   -0.4370   26.3120  -26.0820 C   0  0  0  0  0  0  0  0  0  0  0  0
   -1.2600   26.2270  -27.2070 C   0  0  0  0  0  0  0  0  0  0  0  0
   -3.7280   24.3210  -30.4260 N   0  0  0  0  0  0  0  0  0  0  0  0
   -6.5090   21.5230  -32.4000 C   0  0  0  0  0  0  0  0  0  0  0  0
   -6.4158   16.2878  -33.2635 H   0  0  0  0  0  0  0  0  0  0  0  0
   -7.3758   17.1722  -34.4976 H   0  0  0  0  0  0  0  0  0  0  0  0
   -5.5836   17.2934  -34.4976 H   0  0  0  0  0  0  0  0  0  0  0  0
   -7.9280   19.3780  -34.1920 H   0  0  0  0  0  0  0  0  0  0  0  0
   -9.6370   20.3830  -32.0462 H   0  0  0  0  0  0  0  0  0  0  0  0
   -9.8477   22.4787  -30.7837 H   0  0  0  0  0  0  0  0  0  0  0  0
   -7.8991   24.0196  -30.5313 H   0  0  0  0  0  0  0  0  0  0  0  0
   -5.9660   22.0900  -29.5020 H   0  0  0  0  0  0  0  0  0  0  0  0
   -4.6342   22.0895  -27.4745 H   0  0  0  0  0  0  0  0  0  0  0  0
   -2.6250   23.5849  -27.3206 H   0  0  0  0  0  0  0  0  0  0  0  0
    0.1146   23.4846  -28.6468 H   0  0  0  0  0  0  0  0  0  0  0  0
    1.5450   23.6670  -26.6515 H   0  0  0  0  0  0  0  0  0  0  0  0
    1.2198   25.4661  -24.9909 H   0  0  0  0  0  0  0  0  0  0  0  0
   -0.5968   27.1190  -25.3518 H   0  0  0  0  0  0  0  0  0  0  0  0
   -2.0597   26.9681  -27.3527 H   0  0  0  0  0  0  0  0  0  0  0  0
   -3.4720   24.9310  -31.2210 H   0  0  0  0  0  0  0  0  0  0  0  0
   -5.5413   21.2673  -32.8562 H   0  0  0  0  0  0  0  0  0  0  0  0
  1  2  1  0
  2  3  2  0
  2  4  1  0
  4  5  1  0
  5  6  2  0
  6  7  1  0
  7  8  2  0
  8  9  1  0
  9 10  1  0
 10 11  2  0
 11 12  1  0
 12 13  1  0
 13 14  2  0
 14 15  1  0
 15 16  2  0
 16 17  1  0
 17 18  2  0
 18 19  1  0
 19 20  2  0
 20 21  1  0
 21 22  2  0
 15 23  1  0
  9 24  2  0
 24  5  1  0
 23 11  1  0
 22 17  1  0
  1 25  1  0
  1 26  1  0
  1 27  1  0
  4 28  1  0
  6 29  1  0
  7 30  1  0
  8 31  1  0
 12 32  1  0
 13 33  1  0
 14 34  1  0
 18 35  1  0
 19 36  1  0
 20 37  1  0
 21 38  1  0
 22 39  1  0
 23 40  1  0
 24 41  1  0
M  END
>  <smiles>  (44) 
CC(=O)Nc1cccc(N=c2[nH]ccc(=Nc3ccccc3)[nH]2)c1

>  <score_type>  (44) 
oracle

>  <origin>  (44) 
adgpu

>  <m_score__min__energy>  (44) 
-8.9700000000000006

>  <m_primary>  (44) 
energy

$$$$
44:0
     RDKit          3D

 46 48  0  0  0  0  0  0  0  0999 V2000
    1.6340   18.4540  -30.8220 C   0  0  0  0  0  0  0  0  0  0  0  0
    1.5450   19.7070  -31.4950 O   0  0  0  0  0  0  0  0  0  0  0  0
    0.3950   20.1940  -32.1400 C   0  0  0  0  0  0  0  0  0  0  0  0
    0.4450   20.6350  -33.4820 C   0  0  0  0  0  0  0  0  0  0  0  0
   -0.6940   21.1460  -34.1050 C   0  0  0  0  0  0  0  0  0  0  0  0
   -1.8930   21.2340  -33.4000 C   0  0  0  0  0  0  0  0  0  0  0  0
   -1.9590   20.8020  -32.0730 C   0  0  0  0  0  0  0  0  0  0  0  0
   -0.8340   20.2630  -31.4360 C   0  0  0  0  0  0  0  0  0  0  0  0
   -1.0010   19.8190  -30.0780 N   0  0  0  0  0  0  0  0  0  0  0  0
   -2.0660   20.4750  -28.8730 S   0  0  0  0  0  0  0  0  0  0  0  0
   -3.4820   20.0780  -29.1900 O   0  0  0  0  0  0  0  0  0  0  0  0
   -1.6760   19.9730  -27.5100 O   0  0  0  0  0  0  0  0  0  0  0  0
   -1.9570   22.2330  -28.8890 C   0  0  0  0  0  0  0  0  0  0  0  0
   -1.0150   22.8830  -28.0810 C   0  0  0  0  0  0  0  0  0  0  0  0
   -0.9190   24.2750  -28.0990 C   0  0  0  0  0  0  0  0  0  0  0  0
   -1.7600   25.0300  -28.9220 C   0  0  0  0  0  0  0  0  0  0  0  0
   -1.6080   26.4120  -28.9620 O   0  0  0  0  0  0  0  0  0  0  0  0
   -2.7280   24.3860  -29.7170 C   0  0  0  0  0  0  0  0  0  0  0  0
   -3.6040   25.1200  -30.5840 N   0  0  0  0  0  0  0  0  0  0  0  0
   -5.0360   25.0770  -30.5340 C   0  0  0  0  0  0  0  0  0  0  0  0
   -5.6800   26.0750  -30.1070 O   0  0  0  0  0  0  0  0  0  0  0  0
   -5.7590   23.8470  -30.9400 C   0  0  0  0  0  0  0  0  0  0  0  0
   -7.0450   23.5760  -30.4340 C   0  0  0  0  0  0  0  0  0  0  0  0
   -7.7180   22.4060  -30.8010 C   0  0  0  0  0  0  0  0  0  0  0  0
   -7.1210   21.4980  -31.6800 C   0  0  0  0  0  0  0  0  0  0  0  0
   -5.8500   21.7640  -32.2140 C   0  0  0  0  0  0  0  0  0  0  0  0
   -5.1880   20.7700  -33.1250 C   0  0  0  0  0  0  0  0  0  0  0  0
   -5.1680   22.9300  -31.8300 C   0  0  0  0  0  0  0  0  0  0  0  0
   -2.8000   22.9880  -29.7170 C   0  0  0  0  0  0  0  0  0  0  0  0
    1.6222   18.6202  -29.7347 H   0  0  0  0  0  0  0  0  0  0  0  0
    0.7784   17.8237  -31.1059 H   0  0  0  0  0  0  0  0  0  0  0  0
    2.5701   17.9510  -31.1059 H   0  0  0  0  0  0  0  0  0  0  0  0
    1.3908   20.5747  -34.0404 H   0  0  0  0  0  0  0  0  0  0  0  0
   -0.6457   21.4793  -35.1522 H   0  0  0  0  0  0  0  0  0  0  0  0
   -2.7888   21.6442  -33.8891 H   0  0  0  0  0  0  0  0  0  0  0  0
   -2.9069   20.8863  -31.5212 H   0  0  0  0  0  0  0  0  0  0  0  0
   -0.3500   22.2951  -27.4313 H   0  0  0  0  0  0  0  0  0  0  0  0
   -0.1780   24.7808  -27.4625 H   0  0  0  0  0  0  0  0  0  0  0  0
   -7.5231   24.2888  -29.7460 H   0  0  0  0  0  0  0  0  0  0  0  0
   -8.7200   22.1999  -30.3967 H   0  0  0  0  0  0  0  0  0  0  0  0
   -7.6484   20.5724  -31.9542 H   0  0  0  0  0  0  0  0  0  0  0  0
   -4.6777   20.0038  -32.5228 H   0  0  0  0  0  0  0  0  0  0  0  0
   -5.9483   20.2913  -33.7597 H   0  0  0  0  0  0  0  0  0  0  0  0
   -4.4532   21.2870  -33.7597 H   0  0  0  0  0  0  0  0  0  0  0  0
   -4.1622   23.1288  -32.2285 H   0  0  0  0  0  0  0  0  0  0  0  0
   -3.5228   22.4783  -30.3710 H   0  0  0  0  0  0  0  0  0  0  0  0
  1  2  1  0
  2  3  1  0
  3  4  2  0
  4  5  1  0
  5  6  2  0
  6  7  1  0
  7  8  2  0
  8  9  1  0
  9 10  1  0
 10 11  2  0
 10 12  2  0
 10 13  1  0
 13 14  2  0
 14 15  1  0
 15 16  2  0
 16 17  1  0
 16 18  1  0
 18 19  1  0
 19 20  1  0
 20 21  2  0
 20 22  1  0
 22 23  2  0
 23 24  1  0
 24 25  2  0
 25 26  1  0
 26 27  1  0
 26 28  2  0
 18 29  2  0
  8  3  1  0
 29 13  1  0
 28 22  1  0
  1 30  1  0
  1 31  1  0
  1 32  1  0
  4 33  1  0
  5 34  1  0
  6 35  1  0
  7 36  1  0
 14 37  1  0
 15 38  1  0
 23 39  1  0
 24 40  1  0
 25 41  1  0
 27 42  1  0
 27 43  1  0
 27 44  1  0
 28 45  1  0
 29 46  1  0
M  CHG  3   9  -1  17  -1  19  -1
M  END
>  <UniqueID>  (45) 
42

>  <SMILES>  (45) 
COc1ccccc1[N-]S(=O)(=O)c1ccc([O-])c([N-]C(=O)c2cccc(C)c2)c1

>  <Energy>  (45) 
61.64783153625876

>  <Genealogy>  (45) 
COc1ccccc1[N-]S(=O)(=O)c1ccc([O-])c([N-]C(=O)c2cccc(C)c2)c1 (protonated)
COc1ccccc1[N-]S(=O)(=O)c1ccc([O-])c([N-]C(=O)c2cccc(C)c2)c1 (3D coordinates assigned)
COc1ccccc1[N-]S(=O)(=O)c1ccc([O-])c([N-]C(=O)c2cccc(C)c2)c1 (optimized conformer: 61.64783153625876 kcal/mol)

>  <smiles>  (45) 
COc1ccccc1NS(=O)(=O)c1ccc(O)c(NC(=O)c2cccc(C)c2)c1

>  <score_type>  (45) 
oracle

>  <origin>  (45) 
adgpu

>  <m_score__min__energy>  (45) 
-12.91

>  <m_primary>  (45) 
energy

$$$$
45:0
     RDKit          3D

 37 39  0  0  0  0  0  0  0  0999 V2000
   -5.4260   18.2780  -34.4170 C   0  0  0  0  0  0  0  0  0  0  0  0
   -5.4730   18.4010  -32.9990 O   0  0  0  0  0  0  0  0  0  0  0  0
   -5.7900   19.5840  -32.3090 C   0  0  0  0  0  0  0  0  0  0  0  0
   -4.7970   20.3710  -31.6940 C   0  0  0  0  0  0  0  0  0  0  0  0
   -5.1520   21.5500  -31.0150 C   0  0  0  0  0  0  0  0  0  0  0  0
   -4.1320   22.4040  -30.3530 C   0  0  0  0  0  0  0  0  0  0  0  0
   -4.4640   23.7140  -29.9610 C   0  0  0  0  0  0  0  0  0  0  0  0
   -3.5150   24.5330  -29.3430 C   0  0  0  0  0  0  0  0  0  0  0  0
   -2.2190   24.0600  -29.1090 C   0  0  0  0  0  0  0  0  0  0  0  0
   -1.0200   25.1010  -28.3490 S   0  0  0  0  0  0  0  0  0  0  0  0
   -1.3400   25.1920  -26.6020 C   0  0  0  0  0  0  0  0  0  0  0  0
   -1.0900   26.4790  -28.9460 O   0  0  0  0  0  0  0  0  0  0  0  0
    0.3560   24.5440  -28.5790 O   0  0  0  0  0  0  0  0  0  0  0  0
   -1.8730   22.7660  -29.5150 C   0  0  0  0  0  0  0  0  0  0  0  0
   -2.8200   21.9440  -30.1320 C   0  0  0  0  0  0  0  0  0  0  0  0
   -6.4620   21.9090  -30.9460 N   0  0  0  0  0  0  0  0  0  0  0  0
   -7.4500   21.1780  -31.5240 C   0  0  0  0  0  0  0  0  0  0  0  0
   -8.7800   21.6020  -31.4220 C   0  0  0  0  0  0  0  0  0  0  0  0
   -9.8000   20.8540  -32.0170 C   0  0  0  0  0  0  0  0  0  0  0  0
   -9.4960   19.6820  -32.7140 C   0  0  0  0  0  0  0  0  0  0  0  0
   -8.1700   19.2490  -32.8200 C   0  0  0  0  0  0  0  0  0  0  0  0
   -7.1340   19.9930  -32.2260 C   0  0  0  0  0  0  0  0  0  0  0  0
   -5.0453   17.2817  -34.6862 H   0  0  0  0  0  0  0  0  0  0  0  0
   -6.4372   18.4081  -34.8300 H   0  0  0  0  0  0  0  0  0  0  0  0
   -4.7592   19.0492  -34.8300 H   0  0  0  0  0  0  0  0  0  0  0  0
   -3.7423   20.0629  -31.7449 H   0  0  0  0  0  0  0  0  0  0  0  0
   -5.4792   24.0968  -30.1425 H   0  0  0  0  0  0  0  0  0  0  0  0
   -3.7882   25.5543  -29.0391 H   0  0  0  0  0  0  0  0  0  0  0  0
   -0.4260   24.9321  -26.0478 H   0  0  0  0  0  0  0  0  0  0  0  0
   -1.6503   26.2140  -26.3388 H   0  0  0  0  0  0  0  0  0  0  0  0
   -2.1416   24.4862  -26.3388 H   0  0  0  0  0  0  0  0  0  0  0  0
   -0.8513   22.3944  -29.3477 H   0  0  0  0  0  0  0  0  0  0  0  0
   -2.5377   20.9288  -30.4477 H   0  0  0  0  0  0  0  0  0  0  0  0
   -9.0226   22.5241  -30.8735 H   0  0  0  0  0  0  0  0  0  0  0  0
  -10.8446   21.1890  -31.9362 H   0  0  0  0  0  0  0  0  0  0  0  0
  -10.3023   19.0975  -33.1812 H   0  0  0  0  0  0  0  0  0  0  0  0
   -7.9368   18.3248  -33.3690 H   0  0  0  0  0  0  0  0  0  0  0  0
  1  2  1  0
  2  3  1  0
  3  4  2  0
  4  5  1  0
  5  6  1  0
  6  7  2  0
  7  8  1  0
  8  9  2  0
  9 10  1  0
 10 11  1  0
 10 12  2  0
 10 13  2  0
  9 14  1  0
 14 15  2  0
  5 16  2  0
 16 17  1  0
 17 18  2  0
 18 19  1  0
 19 20  2  0
 20 21  1  0
 21 22  2  0
 22  3  1  0
 15  6  1  0
 22 17  1  0
  1 23  1  0
  1 24  1  0
  1 25  1  0
  4 26  1  0
  7 27  1  0
  8 28  1  0
 11 29  1  0
 11 30  1  0
 11 31  1  0
 14 32  1  0
 15 33  1  0
 18 34  1  0
 19 35  1  0
 20 36  1  0
 21 37  1  0
M  END
>  <UniqueID>  (46) 
43

>  <SMILES>  (46) 
COc1cc(-c2ccc(S(C)(=O)=O)cc2)nc2ccccc12

>  <Energy>  (46) 
44.08363573750151

>  <Genealogy>  (46) 
COc1cc(-c2ccc(S(C)(=O)=O)cc2)nc2ccccc12 (3D coordinates assigned)
COc1cc(-c2ccc(S(C)(=O)=O)cc2)nc2ccccc12 (optimized conformer: 44.08363573750151 kcal/mol)

>  <smiles>  (46) 
COc1cc(-c2ccc(S(C)(=O)=O)cc2)nc2ccccc12

>  <score_type>  (46) 
oracle

>  <origin>  (46) 
adgpu

>  <m_score__min__energy>  (46) 
-8.0199999999999996

>  <m_primary>  (46) 
energy

$$$$
46:0
     RDKit          3D

 52 56  0  0  0  0  0  0  0  0999 V2000
    0.5110   25.1810  -27.8440 O   0  0  0  0  0  0  0  0  0  0  0  0
   -0.7350   25.3480  -27.7370 C   0  0  0  0  0  0  0  0  0  0  0  0
   -1.2560   26.3160  -26.8110 N   0  0  0  0  0  0  0  0  0  0  0  0
   -0.5030   26.8540  -25.7090 C   0  0  0  0  0  0  0  0  0  0  0  0
   -0.8510   26.4970  -24.3960 C   0  0  0  0  0  0  0  0  0  0  0  0
   -0.1210   26.9890  -23.3110 C   0  0  0  0  0  0  0  0  0  0  0  0
    0.9740   27.8320  -23.5270 C   0  0  0  0  0  0  0  0  0  0  0  0
    1.6830   28.3070  -22.4740 F   0  0  0  0  0  0  0  0  0  0  0  0
    1.3420   28.1760  -24.8300 C   0  0  0  0  0  0  0  0  0  0  0  0
    0.6140   27.6860  -25.9190 C   0  0  0  0  0  0  0  0  0  0  0  0
   -1.6370   24.5710  -28.6040 C   0  0  0  0  0  0  0  0  0  0  0  0
   -2.9240   24.9240  -29.0010 C   0  0  0  0  0  0  0  0  0  0  0  0
   -3.5370   23.9710  -29.8240 C   0  0  0  0  0  0  0  0  0  0  0  0
   -2.7410   22.8510  -30.0680 C   0  0  0  0  0  0  0  0  0  0  0  0
   -3.0570   21.6820  -30.9220 C   0  0  0  0  0  0  0  0  0  0  0  0
   -2.0300   21.0440  -31.5360 N   0  0  0  0  0  0  0  0  0  0  0  0
   -2.2230   19.9690  -32.3370 C   0  0  0  0  0  0  0  0  0  0  0  0
   -0.8200   19.2510  -33.1200 Cl  0  0  0  0  0  0  0  0  0  0  0  0
   -3.5270   19.4880  -32.5510 C   0  0  0  0  0  0  0  0  0  0  0  0
   -3.7470   18.3410  -33.4630 C   0  0  0  0  0  0  0  0  0  0  0  0
   -4.5820   18.4800  -34.5830 C   0  0  0  0  0  0  0  0  0  0  0  0
   -4.8140   17.3890  -35.4270 C   0  0  0  0  0  0  0  0  0  0  0  0
   -4.2130   16.1560  -35.1580 C   0  0  0  0  0  0  0  0  0  0  0  0
   -3.3810   16.0110  -34.0430 C   0  0  0  0  0  0  0  0  0  0  0  0
   -3.1490   17.0980  -33.1970 C   0  0  0  0  0  0  0  0  0  0  0  0
   -4.5820   20.1120  -31.9240 N   0  0  0  0  0  0  0  0  0  0  0  0
   -5.9270   19.6140  -32.0900 C   0  0  0  0  0  0  0  0  0  0  0  0
   -6.2740   18.3420  -31.6080 C   0  0  0  0  0  0  0  0  0  0  0  0
   -7.5810   17.8680  -31.7550 C   0  0  0  0  0  0  0  0  0  0  0  0
   -8.5470   18.6590  -32.3840 C   0  0  0  0  0  0  0  0  0  0  0  0
   -8.2050   19.9240  -32.8710 C   0  0  0  0  0  0  0  0  0  0  0  0
   -6.9000   20.4020  -32.7270 C   0  0  0  0  0  0  0  0  0  0  0  0
   -4.3660   21.1920  -31.1060 C   0  0  0  0  0  0  0  0  0  0  0  0
   -5.3340   21.7230  -30.4940 O   0  0  0  0  0  0  0  0  0  0  0  0
   -1.2720   23.0720  -29.2750 S   0  0  0  0  0  0  0  0  0  0  0  0
   -2.1940   26.7310  -27.0050 H   0  0  0  0  0  0  0  0  0  0  0  0
   -1.7043   25.8253  -24.2206 H   0  0  0  0  0  0  0  0  0  0  0  0
   -0.4078   26.7130  -22.2855 H   0  0  0  0  0  0  0  0  0  0  0  0
    2.2068   28.8342  -25.0000 H   0  0  0  0  0  0  0  0  0  0  0  0
    0.9148   27.9513  -26.9433 H   0  0  0  0  0  0  0  0  0  0  0  0
   -3.4125   25.8616  -28.6973 H   0  0  0  0  0  0  0  0  0  0  0  0
   -4.5486   24.0935  -30.2383 H   0  0  0  0  0  0  0  0  0  0  0  0
   -5.0551   19.4496  -34.7974 H   0  0  0  0  0  0  0  0  0  0  0  0
   -5.4698   17.5014  -36.3030 H   0  0  0  0  0  0  0  0  0  0  0  0
   -4.3945   15.2992  -35.8236 H   0  0  0  0  0  0  0  0  0  0  0  0
   -2.9090   15.0401  -33.8322 H   0  0  0  0  0  0  0  0  0  0  0  0
   -2.4960   16.9803  -32.3197 H   0  0  0  0  0  0  0  0  0  0  0  0
   -5.5159   17.7169  -31.1136 H   0  0  0  0  0  0  0  0  0  0  0  0
   -7.8497   16.8712  -31.3752 H   0  0  0  0  0  0  0  0  0  0  0  0
   -9.5758   18.2861  -32.4957 H   0  0  0  0  0  0  0  0  0  0  0  0
   -8.9649   20.5444  -33.3686 H   0  0  0  0  0  0  0  0  0  0  0  0
   -6.6340   21.3971  -33.1131 H   0  0  0  0  0  0  0  0  0  0  0  0
  1  2  2  0
  2  3  1  0
  3  4  1  0
  4  5  2  0
  5  6  1  0
  6  7  2  0
  7  8  1  0
  7  9  1  0
  9 10  2  0
  2 11  1  0
 11 12  2  0
 12 13  1  0
 13 14  2  0
 14 15  1  0
 15 16  2  0
 16 17  1  0
 17 18  1  0
 17 19  2  0
 19 20  1  0
 20 21  2  0
 21 22  1  0
 22 23  2  0
 23 24  1  0
 24 25  2  0
 19 26  1  0
 26 27  1  0
 27 28  2  0
 28 29  1  0
 29 30  2  0
 30 31  1  0
 31 32  2  0
 26 33  1  0
 33 34  2  0
 14 35  1  0
 10  4  1  0
 35 11  1  0
 33 15  1  0
 25 20  1  0
 32 27  1  0
  3 36  1  0
  5 37  1  0
  6 38  1  0
  9 39  1  0
 10 40  1  0
 12 41  1  0
 13 42  1  0
 21 43  1  0
 22 44  1  0
 23 45  1  0
 24 46  1  0
 25 47  1  0
 28 48  1  0
 29 49  1  0
 30 50  1  0
 31 51  1  0
 32 52  1  0
M  END
>  <UniqueID>  (47) 
44

>  <SMILES>  (47) 
O=C(Nc1ccc(F)cc1)c1ccc(-c2nc(Cl)c(-c3ccccc3)n(-c3ccccc3)c2=O)s1

>  <Energy>  (47) 
111.11176315747365

>  <Genealogy>  (47) 
O=C(Nc1ccc(F)cc1)c1ccc(-c2nc(Cl)c(-c3ccccc3)n(-c3ccccc3)c2=O)s1 (3D coordinates assigned)
O=C(Nc1ccc(F)cc1)c1ccc(-c2nc(Cl)c(-c3ccccc3)n(-c3ccccc3)c2=O)s1 (optimized conformer: 111.11176315747365 kcal/mol)

>  <smiles>  (47) 
O=C(Nc1ccc(F)cc1)c1ccc(-c2nc(Cl)c(-c3ccccc3)n(-c3ccccc3)c2=O)s1

>  <score_type>  (47) 
oracle

>  <origin>  (47) 
adgpu

>  <m_score__min__energy>  (47) 
-9.3200000000000003

>  <m_primary>  (47) 
energy

$$$$
47:0
     RDKit          3D

 75 80  0  0  0  0  0  0  0  0999 V2000
   -1.0590   14.7400  -33.9640 C   0  0  0  0  0  0  0  0  0  0  0  0
   -2.3690   14.7930  -34.5190 O   0  0  0  0  0  0  0  0  0  0  0  0
   -3.4450   15.4990  -33.9560 C   0  0  0  0  0  0  0  0  0  0  0  0
   -3.9770   16.6550  -34.5580 C   0  0  0  0  0  0  0  0  0  0  0  0
   -5.0420   17.3460  -33.9630 C   0  0  0  0  0  0  0  0  0  0  0  0
   -5.6080   16.8570  -32.7700 C   0  0  0  0  0  0  0  0  0  0  0  0
   -5.0700   15.7120  -32.1640 C   0  0  0  0  0  0  0  0  0  0  0  0
   -3.9920   15.0280  -32.7530 C   0  0  0  0  0  0  0  0  0  0  0  0
   -3.4330   13.8780  -32.1730 O   0  0  0  0  0  0  0  0  0  0  0  0
   -4.0910   13.0580  -31.2120 C   0  0  0  0  0  0  0  0  0  0  0  0
   -6.7190   17.6140  -32.0820 C   0  0  0  0  0  0  0  0  0  0  0  0
   -7.4560   18.4630  -33.0350 N   0  0  0  0  0  0  0  0  0  0  0  0
   -8.6680   19.3920  -32.1860 S   0  0  0  0  0  0  0  0  0  0  0  0
   -9.1170   18.6330  -30.9660 O   0  0  0  0  0  0  0  0  0  0  0  0
   -9.8640   19.5830  -33.0770 O   0  0  0  0  0  0  0  0  0  0  0  0
   -8.0540   20.9730  -31.6980 C   0  0  0  0  0  0  0  0  0  0  0  0
   -8.7430   22.1490  -32.0720 C   0  0  0  0  0  0  0  0  0  0  0  0
   -8.2510   23.4120  -31.7040 C   0  0  0  0  0  0  0  0  0  0  0  0
   -7.0740   23.4660  -30.9650 C   0  0  0  0  0  0  0  0  0  0  0  0
   -6.2450   24.8130  -30.4050 S   0  0  0  0  0  0  0  0  0  0  0  0
   -5.0350   23.8630  -29.6870 C   0  0  0  0  0  0  0  0  0  0  0  0
   -3.8640   24.3830  -28.9620 C   0  0  0  0  0  0  0  0  0  0  0  0
   -3.1270   25.2350  -29.5260 O   0  0  0  0  0  0  0  0  0  0  0  0
   -3.5850   23.9640  -27.6170 N   0  0  0  0  0  0  0  0  0  0  0  0
   -2.4490   24.4410  -26.8800 C   0  0  0  0  0  0  0  0  0  0  0  0
   -2.5220   25.6700  -26.2010 C   0  0  0  0  0  0  0  0  0  0  0  0
   -1.4040   26.1790  -25.5380 C   0  0  0  0  0  0  0  0  0  0  0  0
   -0.2030   25.4710  -25.5490 C   0  0  0  0  0  0  0  0  0  0  0  0
   -0.1150   24.2490  -26.2190 C   0  0  0  0  0  0  0  0  0  0  0  0
   -1.2320   23.7220  -26.8910 C   0  0  0  0  0  0  0  0  0  0  0  0
   -1.1360   22.4330  -27.5270 N   0  0  0  0  0  0  0  0  0  0  0  0
   -0.1240   22.2030  -28.5660 C   0  0  0  0  0  0  0  0  0  0  0  0
   -0.5330   21.0350  -29.4800 C   0  0  0  0  0  0  0  0  0  0  0  0
   -1.9720   21.0790  -29.8220 N   0  0  0  0  0  0  0  0  0  0  0  0
   -2.2740   22.1780  -30.7560 C   0  0  0  0  0  0  0  0  0  0  0  0
   -2.8760   21.0940  -28.6410 C   0  0  0  0  0  0  0  0  0  0  0  0
   -2.1690   21.4170  -27.3120 C   0  0  0  0  0  0  0  0  0  0  0  0
   -5.2560   22.5390  -29.8700 N   0  0  0  0  0  0  0  0  0  0  0  0
   -6.3900   22.3230  -30.5850 C   0  0  0  0  0  0  0  0  0  0  0  0
   -6.8670   21.0620  -30.9440 C   0  0  0  0  0  0  0  0  0  0  0  0
   -6.5280   19.3650  -33.7350 C   0  0  0  0  0  0  0  0  0  0  0  0
   -5.6260   18.5480  -34.6630 C   0  0  0  0  0  0  0  0  0  0  0  0
   -1.1256   14.7427  -32.8660 H   0  0  0  0  0  0  0  0  0  0  0  0
   -0.5559   13.8208  -34.2986 H   0  0  0  0  0  0  0  0  0  0  0  0
   -0.4833   15.6156  -34.2986 H   0  0  0  0  0  0  0  0  0  0  0  0
   -3.5527   17.0199  -35.5050 H   0  0  0  0  0  0  0  0  0  0  0  0
   -5.4959   15.3455  -31.2183 H   0  0  0  0  0  0  0  0  0  0  0  0
   -3.8225   13.3926  -30.1991 H   0  0  0  0  0  0  0  0  0  0  0  0
   -5.1798   13.1362  -31.3474 H   0  0  0  0  0  0  0  0  0  0  0  0
   -3.7788   12.0119  -31.3474 H   0  0  0  0  0  0  0  0  0  0  0  0
   -7.4166   16.8941  -31.6291 H   0  0  0  0  0  0  0  0  0  0  0  0
   -6.2742   18.2609  -31.3115 H   0  0  0  0  0  0  0  0  0  0  0  0
   -9.6722   22.0745  -32.6561 H   0  0  0  0  0  0  0  0  0  0  0  0
   -8.7812   24.3318  -31.9919 H   0  0  0  0  0  0  0  0  0  0  0  0
   -4.2940   23.3920  -27.1050 H   0  0  0  0  0  0  0  0  0  0  0  0
   -3.4663   26.2341  -26.1922 H   0  0  0  0  0  0  0  0  0  0  0  0
   -1.4706   27.1397  -25.0063 H   0  0  0  0  0  0  0  0  0  0  0  0
    0.6774   25.8760  -25.0286 H   0  0  0  0  0  0  0  0  0  0  0  0
    0.8351   23.6946  -26.2211 H   0  0  0  0  0  0  0  0  0  0  0  0
   -0.0164   23.1145  -29.1723 H   0  0  0  0  0  0  0  0  0  0  0  0
    0.8297   21.9515  -28.0789 H   0  0  0  0  0  0  0  0  0  0  0  0
    0.0548   21.0873  -30.4083 H   0  0  0  0  0  0  0  0  0  0  0  0
   -0.3397   20.0962  -28.9402 H   0  0  0  0  0  0  0  0  0  0  0  0
   -2.5233   23.0853  -30.1863 H   0  0  0  0  0  0  0  0  0  0  0  0
   -1.3960   22.3725  -31.3895 H   0  0  0  0  0  0  0  0  0  0  0  0
   -3.1281   21.8966  -31.3895 H   0  0  0  0  0  0  0  0  0  0  0  0
   -3.6543   21.8524  -28.8114 H   0  0  0  0  0  0  0  0  0  0  0  0
   -3.2866   20.0782  -28.5430 H   0  0  0  0  0  0  0  0  0  0  0  0
   -2.9071   21.7954  -26.5895 H   0  0  0  0  0  0  0  0  0  0  0  0
   -1.6993   20.5021  -26.9217 H   0  0  0  0  0  0  0  0  0  0  0  0
   -6.3257   20.1528  -30.6435 H   0  0  0  0  0  0  0  0  0  0  0  0
   -7.1012   20.0928  -34.3280 H   0  0  0  0  0  0  0  0  0  0  0  0
   -5.9094   19.8987  -32.9984 H   0  0  0  0  0  0  0  0  0  0  0  0
   -6.2186   18.2053  -35.5240 H   0  0  0  0  0  0  0  0  0  0  0  0
   -4.7949   19.1924  -34.9856 H   0  0  0  0  0  0  0  0  0  0  0  0
  1  2  1  0
  2  3  1  0
  3  4  2  0
  4  5  1  0
  5  6  2  0
  6  7  1  0
  7  8  2  0
  8  9  1  0
  9 10  1  0
  6 11  1  0
 11 12  1  0
 12 13  1  0
 13 14  2  0
 13 15  2  0
 13 16  1  0
 16 17  2  0
 17 18  1  0
 18 19  2  0
 19 20  1  0
 20 21  1  0
 21 22  1  0
 22 23  2  0
 22 24  1  0
 24 25  1  0
 25 26  2  0
 26 27  1  0
 27 28  2  0
 28 29  1  0
 29 30  2  0
 30 31  1  0
 31 32  1  0
 32 33  1  0
 33 34  1  0
 34 35  1  0
 34 36  1  0
 36 37  1  0
 21 38  2  0
 38 39  1  0
 39 40  2  0
 12 41  1  0
 41 42  1  0
  8  3  1  0
 40 16  1  0
 42  5  1  0
 39 19  1  0
 30 25  1  0
 37 31  1  0
  1 43  1  0
  1 44  1  0
  1 45  1  0
  4 46  1  0
  7 47  1  0
 10 48  1  0
 10 49  1  0
 10 50  1  0
 11 51  1  0
 11 52  1  0
 17 53  1  0
 18 54  1  0
 24 55  1  0
 26 56  1  0
 27 57  1  0
 28 58  1  0
 29 59  1  0
 32 60  1  0
 32 61  1  0
 33 62  1  0
 33 63  1  0
 35 64  1  0
 35 65  1  0
 35 66  1  0
 36 67  1  0
 36 68  1  0
 37 69  1  0
 37 70  1  0
 40 71  1  0
 41 72  1  0
 41 73  1  0
 42 74  1  0
 42 75  1  0
M  END
>  <UniqueID>  (48) 
45

>  <SMILES>  (48) 
COc1cc2c(cc1OC)CN(S(=O)(=O)c1ccc3sc(C(=O)Nc4ccccc4N4CCN(C)CC4)nc3c1)CC2

>  <Energy>  (48) 
130.79229244921052

>  <Genealogy>  (48) 
COc1cc2c(cc1OC)CN(S(=O)(=O)c1ccc3sc(C(=O)Nc4ccccc4N4CCN(C)CC4)nc3c1)CC2 (3D coordinates assigned)
COc1cc2c(cc1OC)CN(S(=O)(=O)c1ccc3sc(C(=O)Nc4ccccc4N4CCN(C)CC4)nc3c1)CC2 (nonaromatic ring conformer: 130.79229244921052 kcal/mol)

>  <smiles>  (48) 
COc1cc2c(cc1OC)CN(S(=O)(=O)c1ccc3sc(C(=O)Nc4ccccc4N4CCN(C)CC4)nc3c1)CC2

>  <score_type>  (48) 
oracle

>  <origin>  (48) 
adgpu

>  <m_score__min__energy>  (48) 
-11.44

>  <m_primary>  (48) 
energy

$$$$
48:0
     RDKit          3D

 42 45  0  0  0  0  0  0  0  0999 V2000
   -3.0720   15.9830  -36.6080 H   0  0  0  0  0  0  0  0  0  0  0  0
   -3.0040   16.1990  -35.6200 O   0  0  0  0  0  0  0  0  0  0  0  0
   -4.1340   16.4940  -34.8590 C   0  0  0  0  0  0  0  0  0  0  0  0
   -5.0740   15.4990  -34.5660 C   0  0  0  0  0  0  0  0  0  0  0  0
   -4.9255   14.4753  -34.9402 H   0  0  0  0  0  0  0  0  0  0  0  0
   -6.2000   15.8050  -33.7990 C   0  0  0  0  0  0  0  0  0  0  0  0
   -6.9374   15.0216  -33.5699 H   0  0  0  0  0  0  0  0  0  0  0  0
   -6.3920   17.1040  -33.3220 C   0  0  0  0  0  0  0  0  0  0  0  0
   -7.2804   17.3377  -32.7169 H   0  0  0  0  0  0  0  0  0  0  0  0
   -5.4570   18.1160  -33.6100 C   0  0  0  0  0  0  0  0  0  0  0  0
   -5.6600   19.4980  -33.1060 C   0  0  0  0  0  0  0  0  0  0  0  0
   -4.6610   20.3290  -32.5920 C   0  0  0  0  0  0  0  0  0  0  0  0
   -3.5913   20.0975  -32.4813 H   0  0  0  0  0  0  0  0  0  0  0  0
   -5.3020   21.4990  -32.2540 C   0  0  0  0  0  0  0  0  0  0  0  0
   -4.8040   22.6770  -31.7010 C   0  0  0  0  0  0  0  0  0  0  0  0
   -3.7351   22.7816  -31.4634 H   0  0  0  0  0  0  0  0  0  0  0  0
   -5.7110   23.7360  -31.4530 C   0  0  0  0  0  0  0  0  0  0  0  0
   -5.2280   25.0090  -30.8670 C   0  0  0  0  0  0  0  0  0  0  0  0
   -5.9990   26.0050  -30.8240 O   0  0  0  0  0  0  0  0  0  0  0  0
   -3.8610   25.1240  -30.4360 N   0  0  0  0  0  0  0  0  0  0  0  0
   -3.2790   24.6020  -29.3910 C   0  0  0  0  0  0  0  0  0  0  0  0
   -1.9840   24.9400  -29.1440 N   0  0  0  0  0  0  0  0  0  0  0  0
   -1.2850   24.4450  -28.0860 C   0  0  0  0  0  0  0  0  0  0  0  0
    0.1360   24.8600  -27.8710 C   0  0  0  0  0  0  0  0  0  0  0  0
    0.3412   24.9199  -26.7920 H   0  0  0  0  0  0  0  0  0  0  0  0
    0.8076   24.1205  -28.3315 H   0  0  0  0  0  0  0  0  0  0  0  0
    0.3041   25.8447  -28.3315 H   0  0  0  0  0  0  0  0  0  0  0  0
   -1.8980   23.5430  -27.2110 C   0  0  0  0  0  0  0  0  0  0  0  0
   -1.3446   23.1407  -26.3496 H   0  0  0  0  0  0  0  0  0  0  0  0
   -3.2180   23.1590  -27.4420 C   0  0  0  0  0  0  0  0  0  0  0  0
   -3.7096   22.4459  -26.7639 H   0  0  0  0  0  0  0  0  0  0  0  0
   -3.9170   23.6790  -28.5340 C   0  0  0  0  0  0  0  0  0  0  0  0
   -4.9559   23.3719  -28.7246 H   0  0  0  0  0  0  0  0  0  0  0  0
   -7.0850   23.5650  -31.7750 C   0  0  0  0  0  0  0  0  0  0  0  0
   -7.7934   24.3849  -31.5853 H   0  0  0  0  0  0  0  0  0  0  0  0
   -7.5500   22.3610  -32.3330 C   0  0  0  0  0  0  0  0  0  0  0  0
   -8.6129   22.2256  -32.5819 H   0  0  0  0  0  0  0  0  0  0  0  0
   -6.6260   21.3460  -32.5610 C   0  0  0  0  0  0  0  0  0  0  0  0
   -6.8600   20.1310  -33.0830 N   0  0  0  0  0  0  0  0  0  0  0  0
   -7.7880   19.7570  -33.3820 H   0  0  0  0  0  0  0  0  0  0  0  0
   -4.3260   17.7960  -34.3840 C   0  0  0  0  0  0  0  0  0  0  0  0
   -3.5866   18.5762  -34.6175 H   0  0  0  0  0  0  0  0  0  0  0  0
  1  2  1  0
  2  3  1  0
  3  4  2  0
  4  5  1  0
  4  6  1  0
  6  7  1  0
  6  8  2  0
  8  9  1  0
  8 10  1  0
 10 11  1  0
 11 12  2  0
 12 13  1  0
 12 14  1  0
 14 15  2  0
 15 16  1  0
 15 17  1  0
 17 18  1  0
 18 19  2  0
 18 20  1  0
 20 21  2  0
 21 22  1  0
 22 23  1  0
 23 24  1  0
 24 25  1  0
 24 26  1  0
 24 27  1  0
 23 28  2  0
 28 29  1  0
 28 30  1  0
 30 31  1  0
 30 32  2  0
 32 33  1  0
 17 34  2  0
 34 35  1  0
 34 36  1  0
 36 37  1  0
 36 38  2  0
 38 39  1  0
 39 40  1  0
 10 41  2  0
 41 42  1  0
 41  3  1  0
 39 11  1  0
 38 14  1  0
 32 21  1  0
M  CHG  1  22  -1
M  END
>  <UniqueID>  (49) 
46

>  <SMILES>  (49) 
Cc1ccc/c(=N\C(=O)c2ccc3[nH]c(-c4cccc(O)c4)cc3c2)[n-]1

>  <Energy>  (49) 
89.29264997643527

>  <Genealogy>  (49) 
Cc1cccc(=NC(=O)c2ccc3[nH]c(-c4cccc(O)c4)cc3c2)[n-]1 (protonated)
Cc1ccc/c(=N\C(=O)c2ccc3[nH]c(-c4cccc(O)c4)cc3c2)[n-]1 (cis-trans isomerization)
Cc1ccc/c(=N\C(=O)c2ccc3[nH]c(-c4cccc(O)c4)cc3c2)[n-]1 (3D coordinates assigned)
Cc1ccc/c(=N\C(=O)c2ccc3[nH]c(-c4cccc(O)c4)cc3c2)[n-]1 (optimized conformer: 89.29264997643527 kcal/mol)

>  <smiles>  (49) 
Cc1cccc(=NC(=O)c2ccc3[nH]c(-c4cccc(O)c4)cc3c2)[nH]1

>  <score_type>  (49) 
oracle

>  <origin>  (49) 
adgpu

>  <m_score__min__energy>  (49) 
-10.609999999999999

>  <m_primary>  (49) 
energy

$$$$
49:0
     RDKit          3D

 31 33  0  0  0  0  0  0  0  0999 V2000
   -2.1340   25.3930  -29.3330 O   0  0  0  0  0  0  0  0  0  0  0  0
   -3.1050   24.5330  -29.8310 C   0  0  0  0  0  0  0  0  0  0  0  0
   -2.9490   23.1500  -29.6940 C   0  0  0  0  0  0  0  0  0  0  0  0
   -3.9240   22.2820  -30.1970 C   0  0  0  0  0  0  0  0  0  0  0  0
   -5.0570   22.7920  -30.8560 C   0  0  0  0  0  0  0  0  0  0  0  0
   -6.1020   21.8870  -31.3860 C   0  0  0  0  0  0  0  0  0  0  0  0
   -7.3980   22.1380  -31.0530 N   0  0  0  0  0  0  0  0  0  0  0  0
   -8.3960   21.3450  -31.4430 N   0  0  0  0  0  0  0  0  0  0  0  0
   -8.1670   20.2390  -32.1940 C   0  0  0  0  0  0  0  0  0  0  0  0
   -9.5080   19.2240  -32.6840 Cl  0  0  0  0  0  0  0  0  0  0  0  0
   -6.8670   19.9300  -32.5830 C   0  0  0  0  0  0  0  0  0  0  0  0
   -5.8090   20.7630  -32.1950 C   0  0  0  0  0  0  0  0  0  0  0  0
   -4.4440   20.4710  -32.6960 C   0  0  0  0  0  0  0  0  0  0  0  0
   -3.9460   19.1570  -32.6670 C   0  0  0  0  0  0  0  0  0  0  0  0
   -2.6590   18.8810  -33.1370 C   0  0  0  0  0  0  0  0  0  0  0  0
   -1.8590   19.9080  -33.6480 C   0  0  0  0  0  0  0  0  0  0  0  0
   -0.5780   19.6180  -34.1100 O   0  0  0  0  0  0  0  0  0  0  0  0
   -2.3540   21.2180  -33.6900 C   0  0  0  0  0  0  0  0  0  0  0  0
   -3.6410   21.4980  -33.2210 C   0  0  0  0  0  0  0  0  0  0  0  0
   -5.2140   24.1840  -30.9720 C   0  0  0  0  0  0  0  0  0  0  0  0
   -4.2370   25.0480  -30.4670 C   0  0  0  0  0  0  0  0  0  0  0  0
   -2.0591   22.7444  -29.1904 H   0  0  0  0  0  0  0  0  0  0  0  0
   -3.8039   21.1952  -30.0765 H   0  0  0  0  0  0  0  0  0  0  0  0
   -6.6708   19.0356  -33.1925 H   0  0  0  0  0  0  0  0  0  0  0  0
   -4.5716   18.3426  -32.2728 H   0  0  0  0  0  0  0  0  0  0  0  0
   -2.2736   17.8512  -33.1048 H   0  0  0  0  0  0  0  0  0  0  0  0
    0.1490   19.2920  -33.4840 H   0  0  0  0  0  0  0  0  0  0  0  0
   -1.7285   22.0282  -34.0930 H   0  0  0  0  0  0  0  0  0  0  0  0
   -4.0270   22.5272  -33.2631 H   0  0  0  0  0  0  0  0  0  0  0  0
   -6.1088   24.5954  -31.4619 H   0  0  0  0  0  0  0  0  0  0  0  0
   -4.3604   26.1361  -30.5709 H   0  0  0  0  0  0  0  0  0  0  0  0
  1  2  1  0
  2  3  2  0
  3  4  1  0
  4  5  2  0
  5  6  1  0
  6  7  2  0
  7  8  1  0
  8  9  2  0
  9 10  1  0
  9 11  1  0
 11 12  2  0
 12 13  1  0
 13 14  2  0
 14 15  1  0
 15 16  2  0
 16 17  1  0
 16 18  1  0
 18 19  2  0
  5 20  1  0
 20 21  2  0
 21  2  1  0
 12  6  1  0
 19 13  1  0
  3 22  1  0
  4 23  1  0
 11 24  1  0
 14 25  1  0
 15 26  1  0
 17 27  1  0
 18 28  1  0
 19 29  1  0
 20 30  1  0
 21 31  1  0
M  CHG  1   1  -1
M  END
>  <UniqueID>  (50) 
47

>  <SMILES>  (50) 
[O-]c1ccc(-c2nnc(Cl)cc2-c2ccc(O)cc2)cc1

>  <Energy>  (50) 
46.88921455370492

>  <Genealogy>  (50) 
[O-]c1ccc(-c2nnc(Cl)cc2-c2ccc(O)cc2)cc1 (protonated)
[O-]c1ccc(-c2nnc(Cl)cc2-c2ccc(O)cc2)cc1 (3D coordinates assigned)
[O-]c1ccc(-c2nnc(Cl)cc2-c2ccc(O)cc2)cc1 (optimized conformer: 46.88921455370492 kcal/mol)

>  <smiles>  (50) 
Oc1ccc(-c2cc(Cl)nnc2-c2ccc(O)cc2)cc1

>  <score_type>  (50) 
oracle

>  <origin>  (50) 
adgpu

>  <m_score__min__energy>  (50) 
-9.8800000000000008

>  <m_primary>  (50) 
energy

$$$$
