0:0
     RDKit          3D

 31 32  0  0  0  0  0  0  0  0999 V2000
   -1.7610   25.0800  -28.0910 C   0  0  0  0  0  0  0  0  0  0  0  0
   -2.4060   25.2960  -29.3420 O   0  0  0  0  0  0  0  0  0  0  0  0
   -3.5010   24.5520  -29.8050 C   0  0  0  0  0  0  0  0  0  0  0  0
   -4.6020   25.1490  -30.4500 C   0  0  0  0  0  0  0  0  0  0  0  0
   -5.6690   24.3630  -30.8950 C   0  0  0  0  0  0  0  0  0  0  0  0
   -5.6500   22.9740  -30.7090 C   0  0  0  0  0  0  0  0  0  0  0  0
   -6.7570   22.1740  -31.1570 N   0  0  0  0  0  0  0  0  0  0  0  0
   -8.0180   22.2400  -30.4030 C   0  0  0  0  0  0  0  0  0  0  0  0
   -9.1700   21.7850  -31.2070 N   0  0  0  0  0  0  0  0  0  0  0  0
   -9.4920   22.7360  -32.2840 C   0  0  0  0  0  0  0  0  0  0  0  0
   -8.9480   20.4210  -31.7250 C   0  0  0  0  0  0  0  0  0  0  0  0
   -7.7210   20.3470  -32.5120 N   0  0  0  0  0  0  0  0  0  0  0  0
   -6.5990   21.1600  -32.1700 C   0  0  0  0  0  0  0  0  0  0  0  0
   -5.2420   21.0740  -33.0930 S   0  0  0  0  0  0  0  0  0  0  0  0
   -4.5590   22.3790  -30.0600 C   0  0  0  0  0  0  0  0  0  0  0  0
   -3.4920   23.1650  -29.6150 C   0  0  0  0  0  0  0  0  0  0  0  0
   -2.4589   25.3137  -27.2735 H   0  0  0  0  0  0  0  0  0  0  0  0
   -1.4481   24.0281  -28.0166 H   0  0  0  0  0  0  0  0  0  0  0  0
   -0.8777   25.7314  -28.0166 H   0  0  0  0  0  0  0  0  0  0  0  0
   -4.6222   26.2380  -30.6041 H   0  0  0  0  0  0  0  0  0  0  0  0
   -6.5275   24.8369  -31.3934 H   0  0  0  0  0  0  0  0  0  0  0  0
   -7.9325   21.6005  -29.5121 H   0  0  0  0  0  0  0  0  0  0  0  0
   -8.1922   23.2900  -30.1252 H   0  0  0  0  0  0  0  0  0  0  0  0
   -9.8155   23.6913  -31.8450 H   0  0  0  0  0  0  0  0  0  0  0  0
   -8.5998   22.9016  -32.9058 H   0  0  0  0  0  0  0  0  0  0  0  0
  -10.3012   22.3255  -32.9058 H   0  0  0  0  0  0  0  0  0  0  0  0
   -8.8731   19.7235  -30.8777 H   0  0  0  0  0  0  0  0  0  0  0  0
   -9.7944   20.1538  -32.3747 H   0  0  0  0  0  0  0  0  0  0  0  0
   -7.6640   19.6730  -33.3090 H   0  0  0  0  0  0  0  0  0  0  0  0
   -4.5425   21.2907  -29.9005 H   0  0  0  0  0  0  0  0  0  0  0  0
   -2.6377   22.6894  -29.1110 H   0  0  0  0  0  0  0  0  0  0  0  0
  1  2  1  0
  2  3  1  0
  3  4  2  0
  4  5  1  0
  5  6  2  0
  6  7  1  0
  7  8  1  0
  8  9  1  0
  9 10  1  0
  9 11  1  0
 11 12  1  0
 12 13  1  0
 13 14  2  0
  6 15  1  0
 15 16  2  0
 16  3  1  0
 13  7  1  0
  1 17  1  0
  1 18  1  0
  1 19  1  0
  4 20  1  0
  5 21  1  0
  8 22  1  0
  8 23  1  0
 10 24  1  0
 10 25  1  0
 10 26  1  0
 11 27  1  0
 11 28  1  0
 12 29  1  0
 15 30  1  0
 16 31  1  0
M  END
>  <UniqueID>  (1) 
1

>  <SMILES>  (1) 
COc1ccc(N2CN(C)CNC2=S)cc1

>  <Energy>  (1) 
38.858239091435564

>  <Genealogy>  (1) 
COc1ccc(N2CN(C)CNC2=S)cc1 (3D coordinates assigned)
COc1ccc(N2CN(C)CNC2=S)cc1 (nonaromatic ring conformer: 38.858239091435564 kcal/mol)

>  <smiles>  (1) 
COc1ccc(N2CN(C)CNC2=S)cc1

>  <score_type>  (1) 
oracle

>  <origin>  (1) 
adgpu

>  <m_score__min__energy>  (1) 
-6.25

>  <m_primary>  (1) 
energy

$$$$
1:0
     RDKit          3D

 32 34  0  0  0  0  0  0  0  0999 V2000
   -5.9550   25.8100  -30.5720 O   0  0  0  0  0  0  0  0  0  0  0  0
   -5.0280   24.9910  -30.8100 C   0  0  0  0  0  0  0  0  0  0  0  0
   -3.6780   25.2910  -30.4340 N   0  0  0  0  0  0  0  0  0  0  0  0
   -2.9380   24.6350  -29.3960 C   0  0  0  0  0  0  0  0  0  0  0  0
   -3.3720   23.3790  -28.9540 C   0  0  0  0  0  0  0  0  0  0  0  0
   -2.6740   22.7010  -27.9500 C   0  0  0  0  0  0  0  0  0  0  0  0
   -1.5260   23.2680  -27.3910 C   0  0  0  0  0  0  0  0  0  0  0  0
   -1.0650   24.5060  -27.8480 C   0  0  0  0  0  0  0  0  0  0  0  0
   -1.7550   25.1860  -28.8570 C   0  0  0  0  0  0  0  0  0  0  0  0
   -1.2380   26.3830  -29.3400 O   0  0  0  0  0  0  0  0  0  0  0  0
   -5.3350   23.6990  -31.4330 C   0  0  0  0  0  0  0  0  0  0  0  0
   -6.5040   22.9810  -31.2870 C   0  0  0  0  0  0  0  0  0  0  0  0
   -6.3040   21.8580  -32.0660 C   0  0  0  0  0  0  0  0  0  0  0  0
   -7.2410   20.7210  -32.2120 C   0  0  0  0  0  0  0  0  0  0  0  0
   -8.6050   20.9250  -31.9310 C   0  0  0  0  0  0  0  0  0  0  0  0
   -9.5100   19.8630  -31.9890 C   0  0  0  0  0  0  0  0  0  0  0  0
   -9.0680   18.5850  -32.3260 C   0  0  0  0  0  0  0  0  0  0  0  0
   -7.7220   18.3680  -32.6230 C   0  0  0  0  0  0  0  0  0  0  0  0
   -6.8050   19.4250  -32.5880 C   0  0  0  0  0  0  0  0  0  0  0  0
   -5.4870   19.1560  -32.9650 O   0  0  0  0  0  0  0  0  0  0  0  0
   -5.0760   21.9080  -32.6200 N   0  0  0  0  0  0  0  0  0  0  0  0
   -4.4880   23.0320  -32.2390 N   0  0  0  0  0  0  0  0  0  0  0  0
   -4.2682   22.9227  -29.3998 H   0  0  0  0  0  0  0  0  0  0  0  0
   -3.0290   21.7205  -27.6000 H   0  0  0  0  0  0  0  0  0  0  0  0
   -0.9851   22.7404  -26.5916 H   0  0  0  0  0  0  0  0  0  0  0  0
   -0.1563   24.9471  -27.4125 H   0  0  0  0  0  0  0  0  0  0  0  0
   -7.3896   23.2422  -30.6891 H   0  0  0  0  0  0  0  0  0  0  0  0
   -8.9616   21.9305  -31.6631 H   0  0  0  0  0  0  0  0  0  0  0  0
  -10.5737   20.0355  -31.7683 H   0  0  0  0  0  0  0  0  0  0  0  0
   -9.7802   17.7473  -32.3579 H   0  0  0  0  0  0  0  0  0  0  0  0
   -7.3784   17.3570  -32.8871 H   0  0  0  0  0  0  0  0  0  0  0  0
   -4.7200   19.7910  -32.7960 H   0  0  0  0  0  0  0  0  0  0  0  0
  1  2  2  0
  2  3  1  0
  3  4  1  0
  4  5  2  0
  5  6  1  0
  6  7  2  0
  7  8  1  0
  8  9  2  0
  9 10  1  0
  2 11  1  0
 11 12  1  0
 12 13  2  0
 13 14  1  0
 14 15  2  0
 15 16  1  0
 16 17  2  0
 17 18  1  0
 18 19  2  0
 19 20  1  0
 13 21  1  0
 21 22  1  0
  9  4  1  0
 22 11  2  0
 19 14  1  0
  5 23  1  0
  6 24  1  0
  7 25  1  0
  8 26  1  0
 12 27  1  0
 15 28  1  0
 16 29  1  0
 17 30  1  0
 18 31  1  0
 20 32  1  0
M  CHG  3   3  -1  10  -1  21  -1
M  END
>  <UniqueID>  (2) 
2

>  <SMILES>  (2) 
O=C([N-]c1ccccc1[O-])c1cc(-c2ccccc2O)[n-]n1

>  <Energy>  (2) 
74.90862305127796

>  <Genealogy>  (2) 
O=C([N-]c1ccccc1[O-])c1cc(-c2ccccc2O)[n-]n1 (protonated)
O=C([N-]c1ccccc1[O-])c1cc(-c2ccccc2O)[n-]n1 (3D coordinates assigned)
O=C([N-]c1ccccc1[O-])c1cc(-c2ccccc2O)[n-]n1 (optimized conformer: 74.90862305127796 kcal/mol)

>  <smiles>  (2) 
O=C(Nc1ccccc1O)c1cc(-c2ccccc2O)[nH]n1

>  <score_type>  (2) 
oracle

>  <origin>  (2) 
adgpu

>  <m_score__min__energy>  (2) 
-12.74

>  <m_primary>  (2) 
energy

$$$$
2:0
     RDKit          3D

 51 55  0  0  0  0  0  0  0  0999 V2000
   -3.6980   23.9120  -28.7930 O   0  0  0  0  0  0  0  0  0  0  0  0
   -4.2800   23.9880  -30.1770 S   0  0  0  0  0  0  0  0  0  0  0  0
   -3.8540   25.2870  -30.8050 O   0  0  0  0  0  0  0  0  0  0  0  0
   -3.6620   22.6350  -31.1200 C   0  0  0  0  0  0  0  0  0  0  0  0
   -2.5540   21.9030  -30.6740 C   0  0  0  0  0  0  0  0  0  0  0  0
   -2.0680   20.8310  -31.4280 C   0  0  0  0  0  0  0  0  0  0  0  0
   -2.6870   20.4780  -32.6400 C   0  0  0  0  0  0  0  0  0  0  0  0
   -2.2150   19.3020  -33.3920 C   0  0  0  0  0  0  0  0  0  0  0  0
   -1.5300   19.3550  -34.5530 N   0  0  0  0  0  0  0  0  0  0  0  0
   -1.3610   18.1000  -34.9450 N   0  0  0  0  0  0  0  0  0  0  0  0
   -1.9420   17.3350  -34.0040 C   0  0  0  0  0  0  0  0  0  0  0  0
   -2.0700   15.5500  -34.0840 S   0  0  0  0  0  0  0  0  0  0  0  0
   -3.7540   15.5580  -34.8020 C   0  0  0  0  0  0  0  0  0  0  0  0
   -4.6000   16.6100  -34.1530 C   0  0  0  0  0  0  0  0  0  0  0  0
   -4.8910   17.7900  -34.7610 N   0  0  0  0  0  0  0  0  0  0  0  0
   -5.7850   18.3340  -33.9240 C   0  0  0  0  0  0  0  0  0  0  0  0
   -6.4660   19.5410  -34.0700 C   0  0  0  0  0  0  0  0  0  0  0  0
   -7.4150   19.8780  -33.0860 C   0  0  0  0  0  0  0  0  0  0  0  0
   -7.6610   19.0070  -32.0000 C   0  0  0  0  0  0  0  0  0  0  0  0
   -6.9530   17.7960  -31.8860 C   0  0  0  0  0  0  0  0  0  0  0  0
   -6.0150   17.5010  -32.8720 C   0  0  0  0  0  0  0  0  0  0  0  0
   -5.2750   16.3900  -32.9940 N   0  0  0  0  0  0  0  0  0  0  0  0
   -2.4540   18.0620  -33.0430 O   0  0  0  0  0  0  0  0  0  0  0  0
   -3.7830   21.2280  -33.0950 C   0  0  0  0  0  0  0  0  0  0  0  0
   -4.2640   22.3020  -32.3410 C   0  0  0  0  0  0  0  0  0  0  0  0
   -6.0220   23.9080  -30.0850 N   0  0  0  0  0  0  0  0  0  0  0  0
   -6.4500   22.5130  -29.8350 C   0  0  0  0  0  0  0  0  0  0  0  0
   -7.9190   22.3010  -30.2120 C   0  0  0  0  0  0  0  0  0  0  0  0
   -8.1440   22.5440  -31.7140 C   0  0  0  0  0  0  0  0  0  0  0  0
   -7.1220   23.5230  -32.3180 C   0  0  0  0  0  0  0  0  0  0  0  0
   -6.6480   24.5440  -31.2720 C   0  0  0  0  0  0  0  0  0  0  0  0
   -2.0645   22.1729  -29.7266 H   0  0  0  0  0  0  0  0  0  0  0  0
   -1.1973   20.2610  -31.0715 H   0  0  0  0  0  0  0  0  0  0  0  0
   -3.6860   15.7636  -35.8805 H   0  0  0  0  0  0  0  0  0  0  0  0
   -4.2171   14.5752  -34.6299 H   0  0  0  0  0  0  0  0  0  0  0  0
   -6.2692   20.2066  -34.9234 H   0  0  0  0  0  0  0  0  0  0  0  0
   -7.9687   20.8254  -33.1628 H   0  0  0  0  0  0  0  0  0  0  0  0
   -8.4094   19.2771  -31.2404 H   0  0  0  0  0  0  0  0  0  0  0  0
   -7.1342   17.1070  -31.0478 H   0  0  0  0  0  0  0  0  0  0  0  0
   -4.2653   20.9693  -34.0491 H   0  0  0  0  0  0  0  0  0  0  0  0
   -5.1192   22.8887  -32.7077 H   0  0  0  0  0  0  0  0  0  0  0  0
   -5.8255   21.8345  -30.4347 H   0  0  0  0  0  0  0  0  0  0  0  0
   -6.3354   22.3038  -28.7612 H   0  0  0  0  0  0  0  0  0  0  0  0
   -8.2075   21.2680  -29.9677 H   0  0  0  0  0  0  0  0  0  0  0  0
   -8.5327   23.0171  -29.6457 H   0  0  0  0  0  0  0  0  0  0  0  0
   -8.0640   21.5822  -32.2417 H   0  0  0  0  0  0  0  0  0  0  0  0
   -9.1419   22.9916  -31.8318 H   0  0  0  0  0  0  0  0  0  0  0  0
   -6.2541   22.9553  -32.6847 H   0  0  0  0  0  0  0  0  0  0  0  0
   -7.6051   24.0671  -33.1430 H   0  0  0  0  0  0  0  0  0  0  0  0
   -5.9108   25.2114  -31.7421 H   0  0  0  0  0  0  0  0  0  0  0  0
   -7.5343   25.0939  -30.9226 H   0  0  0  0  0  0  0  0  0  0  0  0
  1  2  2  0
  2  3  2  0
  2  4  1  0
  4  5  2  0
  5  6  1  0
  6  7  2  0
  7  8  1  0
  8  9  2  0
  9 10  1  0
 10 11  2  0
 11 12  1  0
 12 13  1  0
 13 14  1  0
 14 15  2  0
 15 16  1  0
 16 17  2  0
 17 18  1  0
 18 19  2  0
 19 20  1  0
 20 21  2  0
 21 22  1  0
 11 23  1  0
  7 24  1  0
 24 25  2  0
  2 26  1  0
 26 27  1  0
 27 28  1  0
 28 29  1  0
 29 30  1  0
 30 31  1  0
 25  4  1  0
 31 26  1  0
 23  8  1  0
 22 14  1  0
 21 16  1  0
  5 32  1  0
  6 33  1  0
 13 34  1  0
 13 35  1  0
 17 36  1  0
 18 37  1  0
 19 38  1  0
 20 39  1  0
 24 40  1  0
 25 41  1  0
 27 42  1  0
 27 43  1  0
 28 44  1  0
 28 45  1  0
 29 46  1  0
 29 47  1  0
 30 48  1  0
 30 49  1  0
 31 50  1  0
 31 51  1  0
M  CHG  1  22  -1
M  END
>  <UniqueID>  (3) 
3

>  <SMILES>  (3) 
O=S(=O)(c1ccc(-c2nnc(SCc3nc4ccccc4[n-]3)o2)cc1)N1CCCCC1

>  <Energy>  (3) 
124.24790115799854

>  <Genealogy>  (3) 
O=S(=O)(c1ccc(-c2nnc(SCc3nc4ccccc4[n-]3)o2)cc1)N1CCCCC1 (protonated)
O=S(=O)(c1ccc(-c2nnc(SCc3nc4ccccc4[n-]3)o2)cc1)N1CCCCC1 (3D coordinates assigned)
O=S(=O)(c1ccc(-c2nnc(SCc3nc4ccccc4[n-]3)o2)cc1)N1CCCCC1 (nonaromatic ring conformer: 124.24790115799854 kcal/mol)

>  <smiles>  (3) 
O=S(=O)(c1ccc(-c2nnc(SCc3nc4ccccc4[nH]3)o2)cc1)N1CCCCC1

>  <score_type>  (3) 
oracle

>  <origin>  (3) 
adgpu

>  <m_score__min__energy>  (3) 
-10.48

>  <m_primary>  (3) 
energy

$$$$
3:0
     RDKit          3D

 48 51  0  0  0  0  0  0  0  0999 V2000
   -3.3130   19.7550  -27.2850 O   0  0  0  0  0  0  0  0  0  0  0  0
   -2.2780   20.1880  -27.8620 C   0  0  0  0  0  0  0  0  0  0  0  0
   -2.2050   21.6160  -28.2440 C   0  0  0  0  0  0  0  0  0  0  0  0
   -0.9780   22.1910  -28.6110 C   0  0  0  0  0  0  0  0  0  0  0  0
   -0.9070   23.5420  -28.9620 C   0  0  0  0  0  0  0  0  0  0  0  0
   -2.0610   24.3330  -28.9530 C   0  0  0  0  0  0  0  0  0  0  0  0
   -1.9750   25.6700  -29.3240 O   0  0  0  0  0  0  0  0  0  0  0  0
   -3.2930   23.7710  -28.5860 C   0  0  0  0  0  0  0  0  0  0  0  0
   -4.4780   24.5690  -28.5360 N   0  0  0  0  0  0  0  0  0  0  0  0
   -5.2820   25.0290  -30.0010 S   0  0  0  0  0  0  0  0  0  0  0  0
   -4.2810   25.6650  -30.9250 O   0  0  0  0  0  0  0  0  0  0  0  0
   -6.3580   26.0370  -29.7130 O   0  0  0  0  0  0  0  0  0  0  0  0
   -5.9800   23.5940  -30.7630 C   0  0  0  0  0  0  0  0  0  0  0  0
   -7.3630   23.3730  -30.6840 C   0  0  0  0  0  0  0  0  0  0  0  0
   -7.9410   22.2560  -31.2940 C   0  0  0  0  0  0  0  0  0  0  0  0
   -7.1480   21.3480  -31.9960 C   0  0  0  0  0  0  0  0  0  0  0  0
   -5.7660   21.5560  -32.0970 C   0  0  0  0  0  0  0  0  0  0  0  0
   -4.9540   20.6720  -32.8170 C   0  0  0  0  0  0  0  0  0  0  0  0
   -3.5830   20.9130  -32.9190 C   0  0  0  0  0  0  0  0  0  0  0  0
   -3.0350   22.0350  -32.2950 C   0  0  0  0  0  0  0  0  0  0  0  0
   -3.8330   22.8840  -31.5950 N   0  0  0  0  0  0  0  0  0  0  0  0
   -5.1760   22.6830  -31.4780 C   0  0  0  0  0  0  0  0  0  0  0  0
   -3.3640   22.4110  -28.2580 C   0  0  0  0  0  0  0  0  0  0  0  0
   -1.1830   19.2910  -28.1170 N   0  0  0  0  0  0  0  0  0  0  0  0
   -0.5380   19.2540  -29.4360 C   0  0  0  0  0  0  0  0  0  0  0  0
    0.9910   19.0990  -29.2990 C   0  0  0  0  0  0  0  0  0  0  0  0
    1.4070   18.5080  -28.0120 N   0  0  0  0  0  0  0  0  0  0  0  0
    0.4360   17.5290  -27.5170 C   0  0  0  0  0  0  0  0  0  0  0  0
   -0.8590   18.2520  -27.1330 C   0  0  0  0  0  0  0  0  0  0  0  0
   -0.0670   21.5746  -28.6224 H   0  0  0  0  0  0  0  0  0  0  0  0
    0.0591   23.9847  -29.2462 H   0  0  0  0  0  0  0  0  0  0  0  0
   -4.6110   25.1980  -27.7130 H   0  0  0  0  0  0  0  0  0  0  0  0
   -7.9984   24.0852  -30.1371 H   0  0  0  0  0  0  0  0  0  0  0  0
   -9.0262   22.0922  -31.2202 H   0  0  0  0  0  0  0  0  0  0  0  0
   -7.6078   20.4685  -32.4704 H   0  0  0  0  0  0  0  0  0  0  0  0
   -5.3956   19.7888  -33.3017 H   0  0  0  0  0  0  0  0  0  0  0  0
   -2.9396   20.2244  -33.4864 H   0  0  0  0  0  0  0  0  0  0  0  0
   -1.9555   22.2324  -32.3699 H   0  0  0  0  0  0  0  0  0  0  0  0
   -4.3363   21.9608  -28.0090 H   0  0  0  0  0  0  0  0  0  0  0  0
   -0.9362   18.4026  -30.0075 H   0  0  0  0  0  0  0  0  0  0  0  0
   -0.7494   20.1998  -29.9564 H   0  0  0  0  0  0  0  0  0  0  0  0
    1.3502   18.4514  -30.1124 H   0  0  0  0  0  0  0  0  0  0  0  0
    1.4256   20.1083  -29.3486 H   0  0  0  0  0  0  0  0  0  0  0  0
    2.3210   18.0190  -28.1570 H   0  0  0  0  0  0  0  0  0  0  0  0
    0.2251   16.7900  -28.3040 H   0  0  0  0  0  0  0  0  0  0  0  0
    0.8469   17.0148  -26.6357 H   0  0  0  0  0  0  0  0  0  0  0  0
   -1.6817   17.5229  -27.0932 H   0  0  0  0  0  0  0  0  0  0  0  0
   -0.7219   18.7258  -26.1498 H   0  0  0  0  0  0  0  0  0  0  0  0
  1  2  2  0
  2  3  1  0
  3  4  2  0
  4  5  1  0
  5  6  2  0
  6  7  1  0
  6  8  1  0
  8  9  1  0
  9 10  1  0
 10 11  2  0
 10 12  2  0
 10 13  1  0
 13 14  2  0
 14 15  1  0
 15 16  2  0
 16 17  1  0
 17 18  2  0
 18 19  1  0
 19 20  2  0
 20 21  1  0
 21 22  2  0
  8 23  2  0
  2 24  1  0
 24 25  1  0
 25 26  1  0
 26 27  1  0
 27 28  1  0
 28 29  1  0
 23  3  1  0
 29 24  1  0
 22 13  1  0
 22 17  1  0
  4 30  1  0
  5 31  1  0
  9 32  1  0
 14 33  1  0
 15 34  1  0
 16 35  1  0
 18 36  1  0
 19 37  1  0
 20 38  1  0
 23 39  1  0
 25 40  1  0
 25 41  1  0
 26 42  1  0
 26 43  1  0
 27 44  1  0
 28 45  1  0
 28 46  1  0
 29 47  1  0
 29 48  1  0
M  CHG  1   7  -1
M  END
>  <UniqueID>  (4) 
4

>  <SMILES>  (4) 
O=C(c1ccc([O-])c(NS(=O)(=O)c2cccc3cccnc23)c1)N1CCNCC1

>  <Energy>  (4) 
65.77405445973474

>  <Genealogy>  (4) 
O=C(c1ccc([O-])c(NS(=O)(=O)c2cccc3cccnc23)c1)N1CCNCC1 (protonated)
O=C(c1ccc([O-])c(NS(=O)(=O)c2cccc3cccnc23)c1)N1CCNCC1 (3D coordinates assigned)
O=C(c1ccc([O-])c(NS(=O)(=O)c2cccc3cccnc23)c1)N1CCNCC1 (nonaromatic ring conformer: 65.77405445973474 kcal/mol)

>  <smiles>  (4) 
O=C(c1ccc(O)c(NS(=O)(=O)c2cccc3cccnc23)c1)N1CCNCC1

>  <score_type>  (4) 
oracle

>  <origin>  (4) 
adgpu

>  <m_score__min__energy>  (4) 
-13.56

>  <m_primary>  (4) 
energy

$$$$
4:0
     RDKit          3D

 38 41  0  0  0  0  0  0  0  0999 V2000
   -3.7610   13.8850  -32.6150 C   0  0  0  0  0  0  0  0  0  0  0  0
   -3.5630   15.2190  -33.7730 S   0  0  0  0  0  0  0  0  0  0  0  0
   -3.7680   14.7070  -35.1710 O   0  0  0  0  0  0  0  0  0  0  0  0
   -2.1720   15.7780  -33.6630 O   0  0  0  0  0  0  0  0  0  0  0  0
   -4.7410   16.4780  -33.4200 C   0  0  0  0  0  0  0  0  0  0  0  0
   -5.3990   16.5010  -32.1830 C   0  0  0  0  0  0  0  0  0  0  0  0
   -6.3460   17.4910  -31.9080 C   0  0  0  0  0  0  0  0  0  0  0  0
   -6.6430   18.4770  -32.8650 C   0  0  0  0  0  0  0  0  0  0  0  0
   -7.6540   19.5140  -32.5680 C   0  0  0  0  0  0  0  0  0  0  0  0
   -9.0360   19.3660  -32.6710 C   0  0  0  0  0  0  0  0  0  0  0  0
   -9.6620   20.5160  -32.3390 N   0  0  0  0  0  0  0  0  0  0  0  0
   -8.6930   21.3890  -32.0170 C   0  0  0  0  0  0  0  0  0  0  0  0
   -8.8570   22.7010  -31.5810 C   0  0  0  0  0  0  0  0  0  0  0  0
   -7.7050   23.4370  -31.2550 C   0  0  0  0  0  0  0  0  0  0  0  0
   -6.4180   22.8510  -31.3540 C   0  0  0  0  0  0  0  0  0  0  0  0
   -5.2210   23.6320  -30.9890 C   0  0  0  0  0  0  0  0  0  0  0  0
   -5.0730   24.9540  -31.2170 N   0  0  0  0  0  0  0  0  0  0  0  0
   -3.8780   25.2870  -30.7520 N   0  0  0  0  0  0  0  0  0  0  0  0
   -3.3520   24.1510  -30.2610 C   0  0  0  0  0  0  0  0  0  0  0  0
   -2.1820   24.0730  -29.7160 N   0  0  0  0  0  0  0  0  0  0  0  0
   -4.1600   23.1310  -30.3980 O   0  0  0  0  0  0  0  0  0  0  0  0
   -6.2910   21.5140  -31.7960 C   0  0  0  0  0  0  0  0  0  0  0  0
   -7.4520   20.8170  -32.1380 C   0  0  0  0  0  0  0  0  0  0  0  0
   -5.9990   18.4340  -34.1120 C   0  0  0  0  0  0  0  0  0  0  0  0
   -5.0530   17.4420  -34.3860 C   0  0  0  0  0  0  0  0  0  0  0  0
   -3.7026   14.2781  -31.5893 H   0  0  0  0  0  0  0  0  0  0  0  0
   -4.7399   13.4075  -32.7695 H   0  0  0  0  0  0  0  0  0  0  0  0
   -2.9630   13.1438  -32.7695 H   0  0  0  0  0  0  0  0  0  0  0  0
   -5.1692   15.7370  -31.4257 H   0  0  0  0  0  0  0  0  0  0  0  0
   -6.8623   17.4989  -30.9367 H   0  0  0  0  0  0  0  0  0  0  0  0
   -9.5459   18.4415  -32.9797 H   0  0  0  0  0  0  0  0  0  0  0  0
  -10.6930   20.6860  -32.3290 H   0  0  0  0  0  0  0  0  0  0  0  0
   -9.8583   23.1481  -31.4943 H   0  0  0  0  0  0  0  0  0  0  0  0
   -7.8031   24.4799  -30.9191 H   0  0  0  0  0  0  0  0  0  0  0  0
   -1.5710   24.9170  -29.6280 H   0  0  0  0  0  0  0  0  0  0  0  0
   -5.3034   21.0352  -31.8686 H   0  0  0  0  0  0  0  0  0  0  0  0
   -6.2404   19.1856  -34.8780 H   0  0  0  0  0  0  0  0  0  0  0  0
   -4.5516   17.4188  -35.3648 H   0  0  0  0  0  0  0  0  0  0  0  0
  1  2  1  0
  2  3  2  0
  2  4  2  0
  2  5  1  0
  5  6  2  0
  6  7  1  0
  7  8  2  0
  8  9  1  0
  9 10  2  0
 10 11  1  0
 11 12  1  0
 12 13  2  0
 13 14  1  0
 14 15  2  0
 15 16  1  0
 16 17  2  0
 17 18  1  0
 18 19  1  0
 19 20  2  3
 19 21  1  0
 15 22  1  0
 22 23  2  0
  8 24  1  0
 24 25  2  0
 25  5  1  0
 23  9  1  0
 23 12  1  0
 21 16  1  0
  1 26  1  0
  1 27  1  0
  1 28  1  0
  6 29  1  0
  7 30  1  0
 10 31  1  0
 11 32  1  0
 13 33  1  0
 14 34  1  0
 20 35  1  0
 22 36  1  0
 24 37  1  0
 25 38  1  0
M  CHG  1  18  -1
M  END
>  <UniqueID>  (5) 
5

>  <SMILES>  (5) 
CS(=O)(=O)c1ccc(-c2c[nH]c3ccc(-c4n[n-]c(=N)o4)cc23)cc1

>  <Energy>  (5) 
112.43481916476023

>  <Genealogy>  (5) 
CS(=O)(=O)c1ccc(-c2c[nH]c3ccc(-c4n[n-]c(=N)o4)cc23)cc1 (protonated)
CS(=O)(=O)c1ccc(-c2c[nH]c3ccc(-c4n[n-]c(=N)o4)cc23)cc1 (3D coordinates assigned)
CS(=O)(=O)c1ccc(-c2c[nH]c3ccc(-c4n[n-]c(=N)o4)cc23)cc1 (optimized conformer: 112.43481916476023 kcal/mol)

>  <smiles>  (5) 
CS(=O)(=O)c1ccc(-c2c[nH]c3ccc(-c4n[nH]c(=N)o4)cc23)cc1

>  <score_type>  (5) 
oracle

>  <origin>  (5) 
adgpu

>  <m_score__min__energy>  (5) 
-10.99

>  <m_primary>  (5) 
energy

$$$$
5:0
     RDKit          3D

 54 57  0  0  0  0  0  0  0  0999 V2000
   -5.7340   25.2930  -30.8540 S   0  0  0  0  0  0  0  0  0  0  0  0
   -5.1590   23.7620  -30.9850 C   0  0  0  0  0  0  0  0  0  0  0  0
   -4.8250   23.0230  -29.8020 N   0  0  0  0  0  0  0  0  0  0  0  0
   -3.9410   23.4940  -28.7650 C   0  0  0  0  0  0  0  0  0  0  0  0
   -4.3730   24.4650  -27.8400 C   0  0  0  0  0  0  0  0  0  0  0  0
   -3.5200   24.9170  -26.8310 C   0  0  0  0  0  0  0  0  0  0  0  0
   -2.2220   24.4160  -26.7380 C   0  0  0  0  0  0  0  0  0  0  0  0
   -1.7670   23.4730  -27.6630 C   0  0  0  0  0  0  0  0  0  0  0  0
   -2.6100   23.0220  -28.6890 C   0  0  0  0  0  0  0  0  0  0  0  0
   -1.9530   21.8260  -29.8670 S   0  0  0  0  0  0  0  0  0  0  0  0
   -1.8130   20.5210  -28.6360 C   0  0  0  0  0  0  0  0  0  0  0  0
   -0.6950   19.6750  -28.6190 C   0  0  0  0  0  0  0  0  0  0  0  0
   -0.5960   18.6640  -27.6590 C   0  0  0  0  0  0  0  0  0  0  0  0
   -1.6150   18.4880  -26.7190 C   0  0  0  0  0  0  0  0  0  0  0  0
   -2.7410   19.3180  -26.7440 C   0  0  0  0  0  0  0  0  0  0  0  0
   -2.8440   20.3290  -27.7050 C   0  0  0  0  0  0  0  0  0  0  0  0
   -5.2970   23.0710  -32.2360 N   0  0  0  0  0  0  0  0  0  0  0  0
   -4.6620   21.8080  -32.4930 C   0  0  0  0  0  0  0  0  0  0  0  0
   -3.3030   21.7550  -32.8440 C   0  0  0  0  0  0  0  0  0  0  0  0
   -2.6870   20.5280  -33.1090 C   0  0  0  0  0  0  0  0  0  0  0  0
   -3.4250   19.3460  -33.0370 C   0  0  0  0  0  0  0  0  0  0  0  0
   -4.7820   19.3880  -32.7060 C   0  0  0  0  0  0  0  0  0  0  0  0
   -5.4070   20.6130  -32.4340 C   0  0  0  0  0  0  0  0  0  0  0  0
   -6.7870   20.6280  -32.0500 N   0  0  0  0  0  0  0  0  0  0  0  0
   -7.2050   21.3560  -30.8460 C   0  0  0  0  0  0  0  0  0  0  0  0
   -8.4200   22.2450  -31.1520 C   0  0  0  0  0  0  0  0  0  0  0  0
   -9.4690   21.5710  -32.0680 C   0  0  0  0  0  0  0  0  0  0  0  0
   -9.1900   20.0830  -32.3240 C   0  0  0  0  0  0  0  0  0  0  0  0
   -7.7670   19.8920  -32.8610 C   0  0  0  0  0  0  0  0  0  0  0  0
   -5.1980   22.0510  -29.7490 H   0  0  0  0  0  0  0  0  0  0  0  0
   -5.3926   24.8712  -27.9134 H   0  0  0  0  0  0  0  0  0  0  0  0
   -3.8722   25.6686  -26.1092 H   0  0  0  0  0  0  0  0  0  0  0  0
   -1.5553   24.7638  -25.9351 H   0  0  0  0  0  0  0  0  0  0  0  0
   -0.7417   23.0821  -27.5861 H   0  0  0  0  0  0  0  0  0  0  0  0
    0.1052   19.8071  -29.3621 H   0  0  0  0  0  0  0  0  0  0  0  0
    0.2853   18.0059  -27.6433 H   0  0  0  0  0  0  0  0  0  0  0  0
   -1.5318   17.6968  -25.9593 H   0  0  0  0  0  0  0  0  0  0  0  0
   -3.5456   19.1754  -26.0076 H   0  0  0  0  0  0  0  0  0  0  0  0
   -3.7346   20.9741  -27.7305 H   0  0  0  0  0  0  0  0  0  0  0  0
   -5.9300   23.4730  -32.9640 H   0  0  0  0  0  0  0  0  0  0  0  0
   -2.7194   22.6850  -32.9109 H   0  0  0  0  0  0  0  0  0  0  0  0
   -1.6200   20.4946  -33.3744 H   0  0  0  0  0  0  0  0  0  0  0  0
   -2.9384   18.3808  -33.2409 H   0  0  0  0  0  0  0  0  0  0  0  0
   -5.3628   18.4550  -32.6586 H   0  0  0  0  0  0  0  0  0  0  0  0
   -7.4729   20.6339  -30.0606 H   0  0  0  0  0  0  0  0  0  0  0  0
   -6.3739   21.9921  -30.5073 H   0  0  0  0  0  0  0  0  0  0  0  0
   -8.9067   22.5072  -30.2010 H   0  0  0  0  0  0  0  0  0  0  0  0
   -8.0447   23.1286  -31.6891 H   0  0  0  0  0  0  0  0  0  0  0  0
  -10.4570   21.6637  -31.5934 H   0  0  0  0  0  0  0  0  0  0  0  0
   -9.4253   22.0814  -33.0415 H   0  0  0  0  0  0  0  0  0  0  0  0
   -9.2998   19.5261  -31.3818 H   0  0  0  0  0  0  0  0  0  0  0  0
   -9.9066   19.7082  -33.0697 H   0  0  0  0  0  0  0  0  0  0  0  0
   -7.5170   18.8210  -32.8405 H   0  0  0  0  0  0  0  0  0  0  0  0
   -7.7288   20.2809  -33.8893 H   0  0  0  0  0  0  0  0  0  0  0  0
  1  2  2  0
  2  3  1  0
  3  4  1  0
  4  5  2  0
  5  6  1  0
  6  7  2  0
  7  8  1  0
  8  9  2  0
  9 10  1  0
 10 11  1  0
 11 12  2  0
 12 13  1  0
 13 14  2  0
 14 15  1  0
 15 16  2  0
  2 17  1  0
 17 18  1  0
 18 19  2  0
 19 20  1  0
 20 21  2  0
 21 22  1  0
 22 23  2  0
 23 24  1  0
 24 25  1  0
 25 26  1  0
 26 27  1  0
 27 28  1  0
 28 29  1  0
  9  4  1  0
 16 11  1  0
 23 18  1  0
 29 24  1  0
  3 30  1  0
  5 31  1  0
  6 32  1  0
  7 33  1  0
  8 34  1  0
 12 35  1  0
 13 36  1  0
 14 37  1  0
 15 38  1  0
 16 39  1  0
 17 40  1  0
 19 41  1  0
 20 42  1  0
 21 43  1  0
 22 44  1  0
 25 45  1  0
 25 46  1  0
 26 47  1  0
 26 48  1  0
 27 49  1  0
 27 50  1  0
 28 51  1  0
 28 52  1  0
 29 53  1  0
 29 54  1  0
M  END
>  <UniqueID>  (6) 
6

>  <SMILES>  (6) 
S=C(Nc1ccccc1Sc1ccccc1)Nc1ccccc1N1CCCCC1

>  <Energy>  (6) 
66.09388168268978

>  <Genealogy>  (6) 
S=C(Nc1ccccc1Sc1ccccc1)Nc1ccccc1N1CCCCC1 (3D coordinates assigned)
S=C(Nc1ccccc1Sc1ccccc1)Nc1ccccc1N1CCCCC1 (nonaromatic ring conformer: 66.09388168268978 kcal/mol)

>  <smiles>  (6) 
S=C(Nc1ccccc1Sc1ccccc1)Nc1ccccc1N1CCCCC1

>  <score_type>  (6) 
oracle

>  <origin>  (6) 
adgpu

>  <m_score__min__energy>  (6) 
-10.630000000000001

>  <m_primary>  (6) 
energy

$$$$
6:0
     RDKit          3D

 51 54  0  0  0  0  0  0  0  0999 V2000
   -5.6280   15.7120  -34.1370 C   0  0  0  0  0  0  0  0  0  0  0  0
   -6.0270   17.1080  -33.7620 C   0  0  0  0  0  0  0  0  0  0  0  0
   -5.2720   18.2020  -34.1930 C   0  0  0  0  0  0  0  0  0  0  0  0
   -5.6720   19.4940  -33.8700 C   0  0  0  0  0  0  0  0  0  0  0  0
   -6.8380   19.6910  -33.1250 C   0  0  0  0  0  0  0  0  0  0  0  0
   -7.2210   20.9580  -32.8210 N   0  0  0  0  0  0  0  0  0  0  0  0
   -8.3480   21.2070  -32.1100 C   0  0  0  0  0  0  0  0  0  0  0  0
   -8.7490   22.6240  -31.8170 C   0  0  0  0  0  0  0  0  0  0  0  0
   -7.6230   23.5310  -32.0420 N   0  0  0  0  0  0  0  0  0  0  0  0
   -6.5030   23.6750  -31.1470 C   0  0  0  0  0  0  0  0  0  0  0  0
   -5.7250   24.8410  -31.2070 C   0  0  0  0  0  0  0  0  0  0  0  0
   -4.6210   25.0040  -30.3650 C   0  0  0  0  0  0  0  0  0  0  0  0
   -4.2860   24.0060  -29.4420 C   0  0  0  0  0  0  0  0  0  0  0  0
   -2.8730   24.1850  -28.4070 S   0  0  0  0  0  0  0  0  0  0  0  0
   -3.3190   24.5710  -27.0230 O   0  0  0  0  0  0  0  0  0  0  0  0
   -1.9830   25.2720  -28.9430 O   0  0  0  0  0  0  0  0  0  0  0  0
   -2.0110   22.6680  -28.3420 N   0  0  0  0  0  0  0  0  0  0  0  0
   -2.7280   21.6670  -27.5500 C   0  0  0  0  0  0  0  0  0  0  0  0
   -1.6780   20.7140  -26.9980 C   0  0  0  0  0  0  0  0  0  0  0  0
   -0.3550   21.4610  -27.1040 C   0  0  0  0  0  0  0  0  0  0  0  0
   -0.7000   22.8150  -27.7070 C   0  0  0  0  0  0  0  0  0  0  0  0
   -5.0600   22.8410  -29.3730 C   0  0  0  0  0  0  0  0  0  0  0  0
   -6.1640   22.6760  -30.2140 C   0  0  0  0  0  0  0  0  0  0  0  0
   -9.1350   20.1400  -31.6770 C   0  0  0  0  0  0  0  0  0  0  0  0
   -8.7420   18.8380  -31.9900 C   0  0  0  0  0  0  0  0  0  0  0  0
   -9.4600   17.8770  -31.5960 O   0  0  0  0  0  0  0  0  0  0  0  0
   -7.5960   18.6150  -32.7130 N   0  0  0  0  0  0  0  0  0  0  0  0
   -7.2020   17.3390  -33.0300 C   0  0  0  0  0  0  0  0  0  0  0  0
   -5.4592   15.1213  -33.2246 H   0  0  0  0  0  0  0  0  0  0  0  0
   -6.4296   15.2485  -34.7308 H   0  0  0  0  0  0  0  0  0  0  0  0
   -4.7025   15.7422  -34.7308 H   0  0  0  0  0  0  0  0  0  0  0  0
   -4.3609   18.0411  -34.7880 H   0  0  0  0  0  0  0  0  0  0  0  0
   -5.0739   20.3565  -34.1991 H   0  0  0  0  0  0  0  0  0  0  0  0
   -9.5812   22.9089  -32.4775 H   0  0  0  0  0  0  0  0  0  0  0  0
   -9.0596   22.6959  -30.7642 H   0  0  0  0  0  0  0  0  0  0  0  0
   -7.6100   24.0590  -32.9460 H   0  0  0  0  0  0  0  0  0  0  0  0
   -5.9861   25.6341  -31.9231 H   0  0  0  0  0  0  0  0  0  0  0  0
   -4.0137   25.9190  -30.4278 H   0  0  0  0  0  0  0  0  0  0  0  0
   -1.8850   22.3130  -29.3200 H   0  0  0  0  0  0  0  0  0  0  0  0
   -3.2701   22.1530  -26.7254 H   0  0  0  0  0  0  0  0  0  0  0  0
   -3.4663   21.1305  -28.1641 H   0  0  0  0  0  0  0  0  0  0  0  0
   -1.8969   20.4667  -25.9488 H   0  0  0  0  0  0  0  0  0  0  0  0
   -1.6563   19.7646  -27.5531 H   0  0  0  0  0  0  0  0  0  0  0  0
    0.0962   21.5871  -26.1087 H   0  0  0  0  0  0  0  0  0  0  0  0
    0.3744   20.9140  -27.7194 H   0  0  0  0  0  0  0  0  0  0  0  0
   -0.7436   23.5814  -26.9191 H   0  0  0  0  0  0  0  0  0  0  0  0
    0.0610   23.1302  -28.4361 H   0  0  0  0  0  0  0  0  0  0  0  0
   -4.7977   22.0517  -28.6532 H   0  0  0  0  0  0  0  0  0  0  0  0
   -6.7712   21.7612  -30.1468 H   0  0  0  0  0  0  0  0  0  0  0  0
  -10.0520   20.3221  -31.0973 H   0  0  0  0  0  0  0  0  0  0  0  0
   -7.8157   16.4856  -32.7058 H   0  0  0  0  0  0  0  0  0  0  0  0
  1  2  1  0
  2  3  1  0
  3  4  2  0
  4  5  1  0
  5  6  2  0
  6  7  1  0
  7  8  1  0
  8  9  1  0
  9 10  1  0
 10 11  2  0
 11 12  1  0
 12 13  2  0
 13 14  1  0
 14 15  2  0
 14 16  2  0
 14 17  1  0
 17 18  1  0
 18 19  1  0
 19 20  1  0
 20 21  1  0
 13 22  1  0
 22 23  2  0
  7 24  2  0
 24 25  1  0
 25 26  2  0
 25 27  1  0
 27 28  1  0
 28  2  2  0
 27  5  1  0
 23 10  1  0
 21 17  1  0
  1 29  1  0
  1 30  1  0
  1 31  1  0
  3 32  1  0
  4 33  1  0
  8 34  1  0
  8 35  1  0
  9 36  1  0
 11 37  1  0
 12 38  1  0
 17 39  1  0
 18 40  1  0
 18 41  1  0
 19 42  1  0
 19 43  1  0
 20 44  1  0
 20 45  1  0
 21 46  1  0
 21 47  1  0
 22 48  1  0
 23 49  1  0
 24 50  1  0
 28 51  1  0
M  CHG  1  17   1
M  END
>  <UniqueID>  (7) 
7

>  <SMILES>  (7) 
Cc1ccc2nc(CNc3ccc(S(=O)(=O)[NH+]4CCCC4)cc3)cc(=O)n2c1

>  <Energy>  (7) 
57.79644729232947

>  <Genealogy>  (7) 
Cc1ccc2nc(CNc3ccc(S(=O)(=O)[NH+]4CCCC4)cc3)cc(=O)n2c1 (protonated)
Cc1ccc2nc(CNc3ccc(S(=O)(=O)[NH+]4CCCC4)cc3)cc(=O)n2c1 (3D coordinates assigned)
Cc1ccc2nc(CNc3ccc(S(=O)(=O)[NH+]4CCCC4)cc3)cc(=O)n2c1 (nonaromatic ring conformer: 57.79644729232947 kcal/mol)

>  <smiles>  (7) 
Cc1ccc2nc(CNc3ccc(S(=O)(=O)N4CCCC4)cc3)cc(=O)n2c1

>  <score_type>  (7) 
oracle

>  <origin>  (7) 
adgpu

>  <m_score__min__energy>  (7) 
-9.1099999999999994

>  <m_primary>  (7) 
energy

$$$$
7:0
     RDKit          3D

 45 47  0  0  0  0  0  0  0  0999 V2000
   -0.1910   21.9230  -31.1550 O   0  0  0  0  0  0  0  0  0  0  0  0
   -1.6410   21.6900  -30.8480 S   0  0  0  0  0  0  0  0  0  0  0  0
   -2.2380   20.8820  -31.9670 O   0  0  0  0  0  0  0  0  0  0  0  0
   -2.4540   23.2150  -30.7180 N   0  0  0  0  0  0  0  0  0  0  0  0
   -3.8740   23.2760  -30.8690 C   0  0  0  0  0  0  0  0  0  0  0  0
   -4.5870   22.1030  -31.1500 C   0  0  0  0  0  0  0  0  0  0  0  0
   -5.9730   22.1510  -31.3590 C   0  0  0  0  0  0  0  0  0  0  0  0
   -6.8640   20.6950  -31.7910 S   0  0  0  0  0  0  0  0  0  0  0  0
   -7.2930   20.8110  -33.2300 O   0  0  0  0  0  0  0  0  0  0  0  0
   -8.0990   20.5750  -30.9360 O   0  0  0  0  0  0  0  0  0  0  0  0
   -5.8430   19.2850  -31.6000 N   0  0  0  0  0  0  0  0  0  0  0  0
   -6.6210   18.0290  -31.5700 C   0  0  0  0  0  0  0  0  0  0  0  0
   -7.1470   17.6110  -32.9590 C   0  0  0  0  0  0  0  0  0  0  0  0
   -6.1590   17.9130  -34.1000 C   0  0  0  0  0  0  0  0  0  0  0  0
   -4.7420   18.1300  -33.5790 C   0  0  0  0  0  0  0  0  0  0  0  0
   -4.7080   19.2870  -32.5590 C   0  0  0  0  0  0  0  0  0  0  0  0
   -6.6450   23.3760  -31.2720 C   0  0  0  0  0  0  0  0  0  0  0  0
   -5.9420   24.5480  -30.9800 C   0  0  0  0  0  0  0  0  0  0  0  0
   -4.5590   24.5030  -30.7770 C   0  0  0  0  0  0  0  0  0  0  0  0
   -3.8780   25.6740  -30.4660 O   0  0  0  0  0  0  0  0  0  0  0  0
   -1.7820   20.8440  -29.3050 C   0  0  0  0  0  0  0  0  0  0  0  0
   -2.8920   21.1030  -28.4840 C   0  0  0  0  0  0  0  0  0  0  0  0
   -3.0580   20.4120  -27.2820 C   0  0  0  0  0  0  0  0  0  0  0  0
   -2.1260   19.4490  -26.8960 C   0  0  0  0  0  0  0  0  0  0  0  0
   -1.0170   19.1790  -27.7090 C   0  0  0  0  0  0  0  0  0  0  0  0
   -0.8440   19.8700  -28.9140 C   0  0  0  0  0  0  0  0  0  0  0  0
    0.2420   19.5920  -29.6840 F   0  0  0  0  0  0  0  0  0  0  0  0
   -1.9890   23.9440  -30.1300 H   0  0  0  0  0  0  0  0  0  0  0  0
   -4.0575   21.1405  -31.2069 H   0  0  0  0  0  0  0  0  0  0  0  0
   -5.9757   17.2263  -31.1837 H   0  0  0  0  0  0  0  0  0  0  0  0
   -7.4957   18.1997  -30.9252 H   0  0  0  0  0  0  0  0  0  0  0  0
   -7.3455   16.5291  -32.9462 H   0  0  0  0  0  0  0  0  0  0  0  0
   -8.0575   18.1970  -33.1526 H   0  0  0  0  0  0  0  0  0  0  0  0
   -6.1548   17.0654  -34.8011 H   0  0  0  0  0  0  0  0  0  0  0  0
   -6.4852   18.8372  -34.5994 H   0  0  0  0  0  0  0  0  0  0  0  0
   -4.3912   17.2084  -33.0916 H   0  0  0  0  0  0  0  0  0  0  0  0
   -4.0887   18.3857  -34.4262 H   0  0  0  0  0  0  0  0  0  0  0  0
   -3.7718   19.2148  -31.9861 H   0  0  0  0  0  0  0  0  0  0  0  0
   -4.7825   20.2205  -33.1362 H   0  0  0  0  0  0  0  0  0  0  0  0
   -7.7322   23.4163  -31.4343 H   0  0  0  0  0  0  0  0  0  0  0  0
   -6.4769   25.5066  -30.9098 H   0  0  0  0  0  0  0  0  0  0  0  0
   -3.6348   21.8545  -28.7898 H   0  0  0  0  0  0  0  0  0  0  0  0
   -3.9243   20.6273  -26.6392 H   0  0  0  0  0  0  0  0  0  0  0  0
   -2.2616   18.9006  -25.9521 H   0  0  0  0  0  0  0  0  0  0  0  0
   -0.2809   18.4224  -27.3996 H   0  0  0  0  0  0  0  0  0  0  0  0
  1  2  2  0
  2  3  2  0
  2  4  1  0
  4  5  1  0
  5  6  2  0
  6  7  1  0
  7  8  1  0
  8  9  2  0
  8 10  2  0
  8 11  1  0
 11 12  1  0
 12 13  1  0
 13 14  1  0
 14 15  1  0
 15 16  1  0
  7 17  2  0
 17 18  1  0
 18 19  2  0
 19 20  1  0
  2 21  1  0
 21 22  2  0
 22 23  1  0
 23 24  2  0
 24 25  1  0
 25 26  2  0
 26 27  1  0
 19  5  1  0
 26 21  1  0
 16 11  1  0
  4 28  1  0
  6 29  1  0
 12 30  1  0
 12 31  1  0
 13 32  1  0
 13 33  1  0
 14 34  1  0
 14 35  1  0
 15 36  1  0
 15 37  1  0
 16 38  1  0
 16 39  1  0
 17 40  1  0
 18 41  1  0
 22 42  1  0
 23 43  1  0
 24 44  1  0
 25 45  1  0
M  CHG  1  20  -1
M  END
>  <UniqueID>  (8) 
8

>  <SMILES>  (8) 
O=S(=O)(Nc1cc(S(=O)(=O)N2CCCCC2)ccc1[O-])c1ccccc1F

>  <Energy>  (8) 
58.216412429576714

>  <Genealogy>  (8) 
O=S(=O)(Nc1cc(S(=O)(=O)N2CCCCC2)ccc1[O-])c1ccccc1F (protonated)
O=S(=O)(Nc1cc(S(=O)(=O)N2CCCCC2)ccc1[O-])c1ccccc1F (3D coordinates assigned)
O=S(=O)(Nc1cc(S(=O)(=O)N2CCCCC2)ccc1[O-])c1ccccc1F (nonaromatic ring conformer: 58.216412429576714 kcal/mol)

>  <smiles>  (8) 
O=S(=O)(Nc1cc(S(=O)(=O)N2CCCCC2)ccc1O)c1ccccc1F

>  <score_type>  (8) 
oracle

>  <origin>  (8) 
adgpu

>  <m_score__min__energy>  (8) 
-12.15

>  <m_primary>  (8) 
energy

$$$$
8:0
     RDKit          3D

 43 45  0  0  0  0  0  0  0  0999 V2000
   -8.5250   18.2300  -31.5980 C   0  0  0  0  0  0  0  0  0  0  0  0
   -8.6900   19.4570  -32.4490 C   0  0  0  0  0  0  0  0  0  0  0  0
   -9.7990   19.9700  -32.5310 O   0  0  0  0  0  0  0  0  0  0  0  0
   -7.5620   20.0310  -33.1600 N   0  0  1  0  0  0  0  0  0  0  0  0
   -7.0970   21.1990  -32.4760 C   0  0  0  0  0  0  0  0  0  0  0  0
   -7.8180   22.3910  -32.3300 C   0  0  0  0  0  0  0  0  0  0  0  0
   -7.2290   23.4570  -31.6350 C   0  0  0  0  0  0  0  0  0  0  0  0
   -5.9290   23.3270  -31.1020 C   0  0  0  0  0  0  0  0  0  0  0  0
   -5.1880   24.6460  -30.2000 S   0  0  0  0  0  0  0  0  0  0  0  0
   -3.8760   24.9990  -30.8410 O   0  0  0  0  0  0  0  0  0  0  0  0
   -6.0750   25.8600  -30.2220 O   0  0  0  0  0  0  0  0  0  0  0  0
   -4.9090   24.1560  -28.5570 N   0  0  0  0  0  0  0  0  0  0  0  0
   -3.7330   23.2920  -28.4920 C   0  0  0  0  0  0  0  0  0  0  0  0
   -2.5390   24.1160  -28.1070 C   0  0  0  0  0  0  0  0  0  0  0  0
   -2.5650   24.9200  -26.9590 C   0  0  0  0  0  0  0  0  0  0  0  0
   -1.4590   25.7080  -26.6330 C   0  0  0  0  0  0  0  0  0  0  0  0
   -0.3400   25.6930  -27.4670 C   0  0  0  0  0  0  0  0  0  0  0  0
   -0.3350   24.9230  -28.5880 N   0  0  0  0  0  0  0  0  0  0  0  0
   -1.3990   24.1450  -28.9260 C   0  0  0  0  0  0  0  0  0  0  0  0
   -5.2240   22.1230  -31.2700 C   0  0  0  0  0  0  0  0  0  0  0  0
   -5.8340   21.0800  -31.9680 C   0  0  0  0  0  0  0  0  0  0  0  0
   -5.2800   19.7490  -32.2690 C   0  0  0  0  0  0  0  0  0  0  0  0
   -6.3840   19.1100  -33.1540 C   0  0  2  0  0  0  0  0  0  0  0  0
   -5.8670   18.8630  -34.5810 C   0  0  0  0  0  0  0  0  0  0  0  0
   -8.5630   18.5128  -30.5356 H   0  0  0  0  0  0  0  0  0  0  0  0
   -9.3357   17.5197  -31.8176 H   0  0  0  0  0  0  0  0  0  0  0  0
   -7.5554   17.7591  -31.8176 H   0  0  0  0  0  0  0  0  0  0  0  0
   -7.8370   20.3080  -34.1310 H   0  0  0  0  0  0  0  0  0  0  0  0
   -8.8286   22.4891  -32.7532 H   0  0  0  0  0  0  0  0  0  0  0  0
   -7.7827   24.3985  -31.5048 H   0  0  0  0  0  0  0  0  0  0  0  0
   -3.8952   22.5050  -27.7408 H   0  0  0  0  0  0  0  0  0  0  0  0
   -3.5608   22.8259  -29.4734 H   0  0  0  0  0  0  0  0  0  0  0  0
   -3.4566   24.9303  -26.3149 H   0  0  0  0  0  0  0  0  0  0  0  0
   -1.4697   26.3339  -25.7285 H   0  0  0  0  0  0  0  0  0  0  0  0
    0.5393   26.3049  -27.2172 H   0  0  0  0  0  0  0  0  0  0  0  0
   -1.3659   23.5377  -29.8426 H   0  0  0  0  0  0  0  0  0  0  0  0
   -4.2105   22.0050  -30.8591 H   0  0  0  0  0  0  0  0  0  0  0  0
   -4.3299   19.8299  -32.8173 H   0  0  0  0  0  0  0  0  0  0  0  0
   -5.0474   19.1602  -31.3695 H   0  0  0  0  0  0  0  0  0  0  0  0
   -6.6769   18.1316  -32.7455 H   0  0  0  0  0  0  0  0  0  0  0  0
   -4.8753   18.3892  -34.5348 H   0  0  0  0  0  0  0  0  0  0  0  0
   -6.5651   18.2011  -35.1145 H   0  0  0  0  0  0  0  0  0  0  0  0
   -5.7907   19.8220  -35.1145 H   0  0  0  0  0  0  0  0  0  0  0  0
  1  2  1  0
  2  3  2  0
  2  4  1  0
  4  5  1  0
  5  6  2  0
  6  7  1  0
  7  8  2  0
  8  9  1  0
  9 10  2  0
  9 11  2  0
  9 12  1  0
 12 13  1  0
 13 14  1  0
 14 15  2  0
 15 16  1  0
 16 17  2  0
 17 18  1  0
 18 19  2  0
  8 20  1  0
 20 21  2  0
 21 22  1  0
 22 23  1  0
 23 24  1  0
 23  4  1  0
 21  5  1  0
 19 14  1  0
  1 25  1  0
  1 26  1  0
  1 27  1  0
  4 28  1  6
  6 29  1  0
  7 30  1  0
 13 31  1  0
 13 32  1  0
 15 33  1  0
 16 34  1  0
 17 35  1  0
 19 36  1  0
 20 37  1  0
 22 38  1  0
 22 39  1  0
 23 40  1  1
 24 41  1  0
 24 42  1  0
 24 43  1  0
M  CHG  2   4   1  12  -1
M  END
>  <UniqueID>  (9) 
9

>  <SMILES>  (9) 
CC(=O)[N@H+]1c2ccc(S(=O)(=O)[N-]Cc3cccnc3)cc2C[C@@H]1C

>  <Energy>  (9) 
52.834498773489386

>  <Genealogy>  (9) 
CC(=O)[NH+]1c2ccc(S(=O)(=O)[N-]Cc3cccnc3)cc2CC1C (protonated)
CC(=O)[N@H+]1c2ccc(S(=O)(=O)[N-]Cc3cccnc3)cc2C[C@@H]1C (chirality)
CC(=O)[N@H+]1c2ccc(S(=O)(=O)[N-]Cc3cccnc3)cc2C[C@@H]1C (3D coordinates assigned)
CC(=O)[N@H+]1c2ccc(S(=O)(=O)[N-]Cc3cccnc3)cc2C[C@@H]1C (nonaromatic ring conformer: 52.834498773489386 kcal/mol)

>  <smiles>  (9) 
CC(=O)N1c2ccc(S(=O)(=O)NCc3cccnc3)cc2CC1C

>  <score_type>  (9) 
oracle

>  <origin>  (9) 
adgpu

>  <m_score__min__energy>  (9) 
-10.48

>  <m_primary>  (9) 
energy

$$$$
9:0
     RDKit          3D

 57 60  0  0  0  0  0  0  0  0999 V2000
   -6.4220   17.9640  -31.4140 C   0  0  0  0  0  0  0  0  0  0  0  0
   -6.6900   17.4800  -32.7790 N   0  0  0  0  0  0  0  0  0  0  0  0
   -5.9810   16.2270  -33.1300 C   0  0  0  0  0  0  0  0  0  0  0  0
   -4.8090   16.4080  -34.1140 C   0  0  0  0  0  0  0  0  0  0  0  0
   -3.7930   17.3770  -33.5770 C   0  0  0  0  0  0  0  0  0  0  0  0
   -2.5400   16.8890  -33.1630 C   0  0  0  0  0  0  0  0  0  0  0  0
   -1.5630   17.7540  -32.6590 C   0  0  0  0  0  0  0  0  0  0  0  0
   -0.3160   17.2610  -32.2820 O   0  0  0  0  0  0  0  0  0  0  0  0
   -1.8280   19.1220  -32.5500 C   0  0  0  0  0  0  0  0  0  0  0  0
   -0.8030   19.9880  -32.0390 N   0  0  0  0  0  0  0  0  0  0  0  0
   -0.4840   20.2880  -30.3590 S   0  0  0  0  0  0  0  0  0  0  0  0
    0.9830   20.0870  -30.0950 O   0  0  0  0  0  0  0  0  0  0  0  0
   -1.2560   19.3200  -29.5040 O   0  0  0  0  0  0  0  0  0  0  0  0
   -0.9050   21.9560  -29.9710 C   0  0  0  0  0  0  0  0  0  0  0  0
    0.0250   22.8140  -29.3620 C   0  0  0  0  0  0  0  0  0  0  0  0
   -0.3420   24.1190  -29.0180 C   0  0  0  0  0  0  0  0  0  0  0  0
   -1.6350   24.5810  -29.2840 C   0  0  0  0  0  0  0  0  0  0  0  0
   -1.9670   25.8860  -28.9270 O   0  0  0  0  0  0  0  0  0  0  0  0
   -2.5720   23.7290  -29.9060 C   0  0  0  0  0  0  0  0  0  0  0  0
   -4.2260   24.2410  -30.2630 S   0  0  0  0  0  0  0  0  0  0  0  0
   -5.0750   24.2450  -29.0190 O   0  0  0  0  0  0  0  0  0  0  0  0
   -4.1870   25.6350  -30.8280 O   0  0  0  0  0  0  0  0  0  0  0  0
   -4.9120   23.1520  -31.4430 N   0  0  0  0  0  0  0  0  0  0  0  0
   -5.2750   21.8700  -30.8400 C   0  0  0  0  0  0  0  0  0  0  0  0
   -6.4400   21.3160  -31.6510 C   0  0  0  0  0  0  0  0  0  0  0  0
   -6.9730   22.4920  -32.4510 C   0  0  0  0  0  0  0  0  0  0  0  0
   -6.1520   23.6880  -32.0020 C   0  0  0  0  0  0  0  0  0  0  0  0
   -2.1970   22.4210  -30.2430 C   0  0  0  0  0  0  0  0  0  0  0  0
   -3.0820   19.6140  -32.9500 C   0  0  0  0  0  0  0  0  0  0  0  0
   -4.0800   18.7580  -33.4510 C   0  0  0  0  0  0  0  0  0  0  0  0
   -5.3980   19.3930  -33.8760 C   0  0  0  0  0  0  0  0  0  0  0  0
   -6.6820   18.5270  -33.8220 C   0  0  0  0  0  0  0  0  0  0  0  0
   -6.8209   17.2436  -30.6846 H   0  0  0  0  0  0  0  0  0  0  0  0
   -5.3368   18.0698  -31.2690 H   0  0  0  0  0  0  0  0  0  0  0  0
   -6.9082   18.9400  -31.2690 H   0  0  0  0  0  0  0  0  0  0  0  0
   -5.5860   15.7850  -32.2034 H   0  0  0  0  0  0  0  0  0  0  0  0
   -6.7162   15.5835  -33.6353 H   0  0  0  0  0  0  0  0  0  0  0  0
   -4.3244   15.4342  -34.2779 H   0  0  0  0  0  0  0  0  0  0  0  0
   -5.2060   16.8076  -35.0588 H   0  0  0  0  0  0  0  0  0  0  0  0
   -2.3257   15.8126  -33.2367 H   0  0  0  0  0  0  0  0  0  0  0  0
    0.3620   17.8420  -31.8050 H   0  0  0  0  0  0  0  0  0  0  0  0
    1.0452   22.4586  -29.1549 H   0  0  0  0  0  0  0  0  0  0  0  0
    0.3893   24.7847  -28.5363 H   0  0  0  0  0  0  0  0  0  0  0  0
   -4.4217   21.1771  -30.8811 H   0  0  0  0  0  0  0  0  0  0  0  0
   -5.5541   21.9958  -29.7835 H   0  0  0  0  0  0  0  0  0  0  0  0
   -6.0944   20.5179  -32.3245 H   0  0  0  0  0  0  0  0  0  0  0  0
   -7.2147   20.8771  -31.0051 H   0  0  0  0  0  0  0  0  0  0  0  0
   -6.8403   22.3165  -33.5288 H   0  0  0  0  0  0  0  0  0  0  0  0
   -8.0490   22.6475  -32.2837 H   0  0  0  0  0  0  0  0  0  0  0  0
   -5.9316   24.3413  -32.8591 H   0  0  0  0  0  0  0  0  0  0  0  0
   -6.6969   24.2891  -31.2591 H   0  0  0  0  0  0  0  0  0  0  0  0
   -2.9255   21.7532  -30.7261 H   0  0  0  0  0  0  0  0  0  0  0  0
   -3.2879   20.6916  -32.8697 H   0  0  0  0  0  0  0  0  0  0  0  0
   -5.5649   20.2637  -33.2249 H   0  0  0  0  0  0  0  0  0  0  0  0
   -5.2620   19.6104  -34.9457 H   0  0  0  0  0  0  0  0  0  0  0  0
   -7.5363   19.1956  -33.6399 H   0  0  0  0  0  0  0  0  0  0  0  0
   -6.7356   17.9992  -34.7856 H   0  0  0  0  0  0  0  0  0  0  0  0
  1  2  1  0
  2  3  1  0
  3  4  1  0
  4  5  1  0
  5  6  2  0
  6  7  1  0
  7  8  1  0
  7  9  2  0
  9 10  1  0
 10 11  1  0
 11 12  2  0
 11 13  2  0
 11 14  1  0
 14 15  2  0
 15 16  1  0
 16 17  2  0
 17 18  1  0
 17 19  1  0
 19 20  1  0
 20 21  2  0
 20 22  2  0
 20 23  1  0
 23 24  1  0
 24 25  1  0
 25 26  1  0
 26 27  1  0
 19 28  2  0
  9 29  1  0
 29 30  2  0
 30 31  1  0
 31 32  1  0
 32  2  1  0
 30  5  1  0
 28 14  1  0
 27 23  1  0
  1 33  1  0
  1 34  1  0
  1 35  1  0
  3 36  1  0
  3 37  1  0
  4 38  1  0
  4 39  1  0
  6 40  1  0
  8 41  1  0
 15 42  1  0
 16 43  1  0
 24 44  1  0
 24 45  1  0
 25 46  1  0
 25 47  1  0
 26 48  1  0
 26 49  1  0
 27 50  1  0
 27 51  1  0
 28 52  1  0
 29 53  1  0
 31 54  1  0
 31 55  1  0
 32 56  1  0
 32 57  1  0
M  CHG  2  10  -1  18  -1
M  END
>  <UniqueID>  (10) 
10

>  <SMILES>  (10) 
CN1CCc2cc(O)c([N-]S(=O)(=O)c3ccc([O-])c(S(=O)(=O)N4CCCC4)c3)cc2CC1

>  <Energy>  (10) 
81.21776824720094

>  <Genealogy>  (10) 
CN1CCc2cc(O)c([N-]S(=O)(=O)c3ccc([O-])c(S(=O)(=O)N4CCCC4)c3)cc2CC1 (protonated)
CN1CCc2cc(O)c([N-]S(=O)(=O)c3ccc([O-])c(S(=O)(=O)N4CCCC4)c3)cc2CC1 (3D coordinates assigned)
CN1CCc2cc(O)c([N-]S(=O)(=O)c3ccc([O-])c(S(=O)(=O)N4CCCC4)c3)cc2CC1 (nonaromatic ring conformer: 81.21776824720094 kcal/mol)

>  <smiles>  (10) 
CN1CCc2cc(O)c(NS(=O)(=O)c3ccc(O)c(S(=O)(=O)N4CCCC4)c3)cc2CC1

>  <score_type>  (10) 
oracle

>  <origin>  (10) 
adgpu

>  <m_score__min__energy>  (10) 
-10.699999999999999

>  <m_primary>  (10) 
energy

$$$$
10:0
     RDKit          3D

 43 44  0  0  0  0  0  0  0  0999 V2000
   -3.7970   16.4730  -33.2300 C   0  0  0  0  0  0  0  0  0  0  0  0
   -5.1010   16.7920  -34.0000 C   0  0  0  0  0  0  0  0  0  0  0  0
   -5.8390   15.4570  -34.2400 C   0  0  0  0  0  0  0  0  0  0  0  0
   -4.7040   17.4080  -35.3600 C   0  0  0  0  0  0  0  0  0  0  0  0
   -6.0260   17.7690  -33.2460 C   0  0  0  0  0  0  0  0  0  0  0  0
   -6.4960   17.4320  -31.9550 C   0  0  0  0  0  0  0  0  0  0  0  0
   -7.3510   18.2840  -31.2530 C   0  0  0  0  0  0  0  0  0  0  0  0
   -7.7540   19.4960  -31.8160 C   0  0  0  0  0  0  0  0  0  0  0  0
   -8.8640   20.5860  -30.9180 S   0  0  0  0  0  0  0  0  0  0  0  0
   -8.6410   22.0080  -32.0400 C   0  0  0  0  0  0  0  0  0  0  0  0
   -7.3560   22.7180  -31.7420 C   0  0  0  0  0  0  0  0  0  0  0  0
   -7.3490   23.8820  -30.9690 C   0  0  0  0  0  0  0  0  0  0  0  0
   -6.1280   24.4920  -30.6710 C   0  0  0  0  0  0  0  0  0  0  0  0
   -6.1240   25.8470  -29.7460 S   0  0  0  0  0  0  0  0  0  0  0  0
   -4.9350   23.9200  -31.1580 C   0  0  0  0  0  0  0  0  0  0  0  0
   -3.6810   24.4510  -30.8460 O   0  0  0  0  0  0  0  0  0  0  0  0
   -5.0270   22.7600  -31.9560 C   0  0  0  0  0  0  0  0  0  0  0  0
   -3.8590   22.1230  -32.4950 N   0  0  0  0  0  0  0  0  0  0  0  0
   -3.7320   22.0330  -33.8410 O   0  0  0  0  0  0  0  0  0  0  0  0
   -2.7500   21.7500  -31.6670 C   0  0  0  0  0  0  0  0  0  0  0  0
   -1.9610   22.6280  -31.2290 O   0  0  0  0  0  0  0  0  0  0  0  0
   -6.2140   22.2100  -32.1960 O   0  0  0  0  0  0  0  0  0  0  0  0
   -7.3060   19.8500  -33.0910 C   0  0  0  0  0  0  0  0  0  0  0  0
   -6.4510   19.0010  -33.7990 C   0  0  0  0  0  0  0  0  0  0  0  0
   -3.9893   16.5200  -32.1480 H   0  0  0  0  0  0  0  0  0  0  0  0
   -3.4509   15.4637  -33.4974 H   0  0  0  0  0  0  0  0  0  0  0  0
   -3.0240   17.2085  -33.4974 H   0  0  0  0  0  0  0  0  0  0  0  0
   -6.0922   14.9989  -33.2725 H   0  0  0  0  0  0  0  0  0  0  0  0
   -6.7613   15.6451  -34.8092 H   0  0  0  0  0  0  0  0  0  0  0  0
   -5.1892   14.7760  -34.8092 H   0  0  0  0  0  0  0  0  0  0  0  0
   -4.1152   18.3216  -35.1908 H   0  0  0  0  0  0  0  0  0  0  0  0
   -4.1021   16.6840  -35.9288 H   0  0  0  0  0  0  0  0  0  0  0  0
   -5.6120   17.6570  -35.9288 H   0  0  0  0  0  0  0  0  0  0  0  0
   -6.1826   16.4826  -31.4963 H   0  0  0  0  0  0  0  0  0  0  0  0
   -7.7083   17.9990  -30.2525 H   0  0  0  0  0  0  0  0  0  0  0  0
   -8.6230   21.6489  -33.0796 H   0  0  0  0  0  0  0  0  0  0  0  0
   -9.4758   22.7093  -31.8942 H   0  0  0  0  0  0  0  0  0  0  0  0
   -8.2919   24.3121  -30.6002 H   0  0  0  0  0  0  0  0  0  0  0  0
   -2.9340   24.5470  -31.5220 H   0  0  0  0  0  0  0  0  0  0  0  0
   -4.6250   22.2750  -34.1970 H   0  0  0  0  0  0  0  0  0  0  0  0
   -2.5876   20.6921  -31.4131 H   0  0  0  0  0  0  0  0  0  0  0  0
   -7.6277   20.8014  -33.5397 H   0  0  0  0  0  0  0  0  0  0  0  0
   -6.1032   19.2943  -34.8005 H   0  0  0  0  0  0  0  0  0  0  0  0
  1  2  1  0
  2  3  1  0
  2  4  1  0
  2  5  1  0
  5  6  2  0
  6  7  1  0
  7  8  2  0
  8  9  1  0
  9 10  1  0
 10 11  1  0
 11 12  2  0
 12 13  1  0
 13 14  2  0
 13 15  1  0
 15 16  1  0
 15 17  2  0
 17 18  1  0
 18 19  1  0
 18 20  1  0
 20 21  2  0
 17 22  1  0
  8 23  1  0
 23 24  2  0
 24  5  1  0
 22 11  1  0
  1 25  1  0
  1 26  1  0
  1 27  1  0
  3 28  1  0
  3 29  1  0
  3 30  1  0
  4 31  1  0
  4 32  1  0
  4 33  1  0
  6 34  1  0
  7 35  1  0
 10 36  1  0
 10 37  1  0
 12 38  1  0
 16 39  1  0
 19 40  1  0
 20 41  1  0
 23 42  1  0
 24 43  1  0
M  END
>  <UniqueID>  (11) 
11

>  <SMILES>  (11) 
CC(C)(C)c1ccc(SCc2cc(=S)c(O)c(N(O)C=O)o2)cc1

>  <Energy>  (11) 
42.85127685311487

>  <Genealogy>  (11) 
CC(C)(C)c1ccc(SCc2cc(=S)c(O)c(N(O)C=O)o2)cc1 (3D coordinates assigned)
CC(C)(C)c1ccc(SCc2cc(=S)c(O)c(N(O)C=O)o2)cc1 (optimized conformer: 42.85127685311487 kcal/mol)

>  <smiles>  (11) 
CC(C)(C)c1ccc(SCc2cc(=S)c(O)c(N(O)C=O)o2)cc1

>  <score_type>  (11) 
oracle

>  <origin>  (11) 
adgpu

>  <m_score__min__energy>  (11) 
-8.5999999999999996

>  <m_primary>  (11) 
energy

$$$$
11:0
     RDKit          3D

 55 58  0  0  0  0  0  0  0  0999 V2000
   -7.9150   20.4090  -32.8270 C   0  0  0  0  0  0  0  0  0  0  0  0
   -7.2220   21.5630  -32.1500 C   0  0  0  0  0  0  0  0  0  0  0  0
   -8.0000   22.6190  -31.6400 C   0  0  0  0  0  0  0  0  0  0  0  0
   -7.3970   23.7100  -31.0110 C   0  0  0  0  0  0  0  0  0  0  0  0
   -6.0060   23.7570  -30.8640 C   0  0  0  0  0  0  0  0  0  0  0  0
   -5.2450   25.1530  -30.1020 S   0  0  0  0  0  0  0  0  0  0  0  0
   -5.6050   26.3890  -30.8780 O   0  0  0  0  0  0  0  0  0  0  0  0
   -5.7340   25.3280  -28.6910 O   0  0  0  0  0  0  0  0  0  0  0  0
   -3.5210   24.9620  -30.1280 N   0  0  0  0  0  0  0  0  0  0  0  0
   -2.7190   24.4780  -29.0410 C   0  0  0  0  0  0  0  0  0  0  0  0
   -3.0500   23.3100  -28.3280 C   0  0  0  0  0  0  0  0  0  0  0  0
   -2.2280   22.8620  -27.2900 C   0  0  0  0  0  0  0  0  0  0  0  0
   -1.0790   23.5770  -26.9450 C   0  0  0  0  0  0  0  0  0  0  0  0
   -0.7530   24.7480  -27.6320 C   0  0  0  0  0  0  0  0  0  0  0  0
   -1.5710   25.2030  -28.6740 C   0  0  0  0  0  0  0  0  0  0  0  0
   -1.2370   26.3720  -29.3460 O   0  0  0  0  0  0  0  0  0  0  0  0
   -5.2250   22.7130  -31.3700 C   0  0  0  0  0  0  0  0  0  0  0  0
   -5.8110   21.6330  -32.0470 C   0  0  0  0  0  0  0  0  0  0  0  0
   -4.7370   20.3950  -32.7230 S   0  0  0  0  0  0  0  0  0  0  0  0
   -4.7780   19.1880  -31.8260 O   0  0  0  0  0  0  0  0  0  0  0  0
   -5.1560   20.0150  -34.1170 O   0  0  0  0  0  0  0  0  0  0  0  0
   -3.1240   21.0320  -32.7870 N   0  0  0  0  0  0  0  0  0  0  0  0
   -2.1140   20.8110  -31.7980 C   0  0  0  0  0  0  0  0  0  0  0  0
   -2.5200   20.5330  -30.4870 C   0  0  0  0  0  0  0  0  0  0  0  0
   -1.5770   20.2770  -29.4800 C   0  0  0  0  0  0  0  0  0  0  0  0
   -0.2040   20.2860  -29.7970 C   0  0  0  0  0  0  0  0  0  0  0  0
    0.2040   20.6230  -31.0970 C   0  0  0  0  0  0  0  0  0  0  0  0
   -0.7400   20.8910  -32.0930 C   0  0  0  0  0  0  0  0  0  0  0  0
   -0.2990   21.2670  -33.3570 O   0  0  0  0  0  0  0  0  0  0  0  0
    0.8400   20.0360  -28.7300 C   0  0  0  0  0  0  0  0  0  0  0  0
    0.3140   19.2760  -27.5770 N   0  0  0  0  0  0  0  0  0  0  0  0
    0.1630   17.8420  -27.8850 C   0  0  0  0  0  0  0  0  0  0  0  0
   -0.9300   19.8820  -27.0630 C   0  0  0  0  0  0  0  0  0  0  0  0
   -2.0590   19.8860  -28.1070 C   0  0  0  0  0  0  0  0  0  0  0  0
   -8.3235   19.7287  -32.0652 H   0  0  0  0  0  0  0  0  0  0  0  0
   -8.7337   20.7903  -33.4550 H   0  0  0  0  0  0  0  0  0  0  0  0
   -7.1937   19.8655  -33.4550 H   0  0  0  0  0  0  0  0  0  0  0  0
   -9.0951   22.5845  -31.7380 H   0  0  0  0  0  0  0  0  0  0  0  0
   -8.0170   24.5349  -30.6299 H   0  0  0  0  0  0  0  0  0  0  0  0
   -3.9589   22.7479  -28.5888 H   0  0  0  0  0  0  0  0  0  0  0  0
   -2.4869   21.9434  -26.7431 H   0  0  0  0  0  0  0  0  0  0  0  0
   -0.4309   23.2176  -26.1321 H   0  0  0  0  0  0  0  0  0  0  0  0
    0.1481   25.3144  -27.3543 H   0  0  0  0  0  0  0  0  0  0  0  0
   -4.1336   22.7391  -31.2350 H   0  0  0  0  0  0  0  0  0  0  0  0
   -3.5925   20.5151  -30.2433 H   0  0  0  0  0  0  0  0  0  0  0  0
    1.2767   20.6768  -31.3345 H   0  0  0  0  0  0  0  0  0  0  0  0
    1.6689   19.4672  -29.1765 H   0  0  0  0  0  0  0  0  0  0  0  0
    1.1706   21.0162  -28.3559 H   0  0  0  0  0  0  0  0  0  0  0  0
    0.1028   17.2699  -26.9474 H   0  0  0  0  0  0  0  0  0  0  0  0
   -0.7564   17.6872  -28.4687 H   0  0  0  0  0  0  0  0  0  0  0  0
    1.0300   17.4991  -28.4687 H   0  0  0  0  0  0  0  0  0  0  0  0
   -1.2640   19.3103  -26.1846 H   0  0  0  0  0  0  0  0  0  0  0  0
   -0.7099   20.9285  -26.8051 H   0  0  0  0  0  0  0  0  0  0  0  0
   -2.4932   18.8767  -28.1602 H   0  0  0  0  0  0  0  0  0  0  0  0
   -2.8031   20.6316  -27.7902 H   0  0  0  0  0  0  0  0  0  0  0  0
  1  2  1  0
  2  3  2  0
  3  4  1  0
  4  5  2  0
  5  6  1  0
  6  7  2  0
  6  8  2  0
  6  9  1  0
  9 10  1  0
 10 11  2  0
 11 12  1  0
 12 13  2  0
 13 14  1  0
 14 15  2  0
 15 16  1  0
  5 17  1  0
 17 18  2  0
 18 19  1  0
 19 20  2  0
 19 21  2  0
 19 22  1  0
 22 23  1  0
 23 24  2  0
 24 25  1  0
 25 26  2  0
 26 27  1  0
 27 28  2  0
 28 29  1  0
 26 30  1  0
 30 31  1  0
 31 32  1  0
 31 33  1  0
 33 34  1  0
 18  2  1  0
 28 23  1  0
 15 10  1  0
 34 25  1  0
  1 35  1  0
  1 36  1  0
  1 37  1  0
  3 38  1  0
  4 39  1  0
 11 40  1  0
 12 41  1  0
 13 42  1  0
 14 43  1  0
 17 44  1  0
 24 45  1  0
 27 46  1  0
 30 47  1  0
 30 48  1  0
 32 49  1  0
 32 50  1  0
 32 51  1  0
 33 52  1  0
 33 53  1  0
 34 54  1  0
 34 55  1  0
M  CHG  4   9  -1  16  -1  22  -1  29  -1
M  END
>  <UniqueID>  (12) 
12

>  <SMILES>  (12) 
Cc1ccc(S(=O)(=O)[N-]c2ccccc2[O-])cc1S(=O)(=O)[N-]c1cc2c(cc1[O-])CN(C)CC2

>  <Energy>  (12) 
77.50856161253333

>  <Genealogy>  (12) 
Cc1ccc(S(=O)(=O)[N-]c2ccccc2[O-])cc1S(=O)(=O)[N-]c1cc2c(cc1[O-])CN(C)CC2 (protonated)
Cc1ccc(S(=O)(=O)[N-]c2ccccc2[O-])cc1S(=O)(=O)[N-]c1cc2c(cc1[O-])CN(C)CC2 (3D coordinates assigned)
Cc1ccc(S(=O)(=O)[N-]c2ccccc2[O-])cc1S(=O)(=O)[N-]c1cc2c(cc1[O-])CN(C)CC2 (nonaromatic ring conformer: 77.50856161253333 kcal/mol)

>  <smiles>  (12) 
Cc1ccc(S(=O)(=O)Nc2ccccc2O)cc1S(=O)(=O)Nc1cc2c(cc1O)CN(C)CC2

>  <score_type>  (12) 
oracle

>  <origin>  (12) 
adgpu

>  <m_score__min__energy>  (12) 
-15.51

>  <m_primary>  (12) 
energy

$$$$
12:0
     RDKit          3D

 43 45  0  0  0  0  0  0  0  0999 V2000
   -8.9490   20.8440  -32.2870 C   0  0  0  0  0  0  0  0  0  0  0  0
   -8.0830   21.9060  -31.6820 C   0  0  0  0  0  0  0  0  0  0  0  0
   -8.0120   22.0470  -30.2890 C   0  0  0  0  0  0  0  0  0  0  0  0
   -7.2040   23.0370  -29.7190 C   0  0  0  0  0  0  0  0  0  0  0  0
   -6.4630   23.9000  -30.5380 C   0  0  0  0  0  0  0  0  0  0  0  0
   -5.3820   25.1000  -29.8300 S   0  0  0  0  0  0  0  0  0  0  0  0
   -5.2930   24.9200  -28.3410 O   0  0  0  0  0  0  0  0  0  0  0  0
   -5.9270   26.4680  -30.1270 O   0  0  0  0  0  0  0  0  0  0  0  0
   -3.7950   24.9520  -30.5140 N   0  0  0  0  0  0  0  0  0  0  0  0
   -2.7470   24.1210  -29.9900 C   0  0  0  0  0  0  0  0  0  0  0  0
   -2.7690   22.7500  -30.2940 C   0  0  0  0  0  0  0  0  0  0  0  0
   -3.7660   22.2420  -31.1250 O   0  0  0  0  0  0  0  0  0  0  0  0
   -1.8040   21.8940  -29.7510 C   0  0  0  0  0  0  0  0  0  0  0  0
   -0.8240   22.3950  -28.8950 C   0  0  0  0  0  0  0  0  0  0  0  0
   -0.7710   23.7630  -28.5980 C   0  0  0  0  0  0  0  0  0  0  0  0
    0.4630   24.3300  -27.4640 S   0  0  0  0  0  0  0  0  0  0  0  0
    1.7090   24.7790  -28.1740 O   0  0  0  0  0  0  0  0  0  0  0  0
    0.8220   23.2090  -26.5270 O   0  0  0  0  0  0  0  0  0  0  0  0
   -0.1850   25.7050  -26.5770 C   0  0  0  0  0  0  0  0  0  0  0  0
   -1.1010   25.4840  -25.5400 C   0  0  0  0  0  0  0  0  0  0  0  0
   -1.6180   26.5620  -24.8150 C   0  0  0  0  0  0  0  0  0  0  0  0
   -1.2250   27.8650  -25.1270 C   0  0  0  0  0  0  0  0  0  0  0  0
   -0.3160   28.0920  -26.1640 C   0  0  0  0  0  0  0  0  0  0  0  0
    0.2060   27.0160  -26.8880 C   0  0  0  0  0  0  0  0  0  0  0  0
   -1.7130   24.6360  -29.1770 C   0  0  0  0  0  0  0  0  0  0  0  0
   -1.6060   26.0070  -28.9720 O   0  0  0  0  0  0  0  0  0  0  0  0
   -6.5600   23.7840  -31.9310 C   0  0  0  0  0  0  0  0  0  0  0  0
   -7.3670   22.7940  -32.5010 C   0  0  0  0  0  0  0  0  0  0  0  0
   -9.4257   20.2594  -31.4863 H   0  0  0  0  0  0  0  0  0  0  0  0
   -9.7247   21.3139  -32.9095 H   0  0  0  0  0  0  0  0  0  0  0  0
   -8.3326   20.1788  -32.9095 H   0  0  0  0  0  0  0  0  0  0  0  0
   -8.5945   21.3759  -29.6407 H   0  0  0  0  0  0  0  0  0  0  0  0
   -7.1502   23.1383  -28.6250 H   0  0  0  0  0  0  0  0  0  0  0  0
   -4.4550   22.8460  -31.5610 H   0  0  0  0  0  0  0  0  0  0  0  0
   -1.8187   20.8227  -30.0003 H   0  0  0  0  0  0  0  0  0  0  0  0
   -0.0868   21.7108  -28.4495 H   0  0  0  0  0  0  0  0  0  0  0  0
   -1.4146   24.4584  -25.2953 H   0  0  0  0  0  0  0  0  0  0  0  0
   -2.3340   26.3837  -23.9992 H   0  0  0  0  0  0  0  0  0  0  0  0
   -1.6310   28.7132  -24.5563 H   0  0  0  0  0  0  0  0  0  0  0  0
   -0.0106   29.1195  -26.4111 H   0  0  0  0  0  0  0  0  0  0  0  0
    0.9235   27.1973  -27.7018 H   0  0  0  0  0  0  0  0  0  0  0  0
   -5.9994   24.4741  -32.5787 H   0  0  0  0  0  0  0  0  0  0  0  0
   -7.4411   22.7107  -33.5953 H   0  0  0  0  0  0  0  0  0  0  0  0
  1  2  1  0
  2  3  2  0
  3  4  1  0
  4  5  2  0
  5  6  1  0
  6  7  2  0
  6  8  2  0
  6  9  1  0
  9 10  1  0
 10 11  2  0
 11 12  1  0
 11 13  1  0
 13 14  2  0
 14 15  1  0
 15 16  1  0
 16 17  2  0
 16 18  2  0
 16 19  1  0
 19 20  2  0
 20 21  1  0
 21 22  2  0
 22 23  1  0
 23 24  2  0
 15 25  2  0
 25 26  1  0
  5 27  1  0
 27 28  2  0
 28  2  1  0
 25 10  1  0
 24 19  1  0
  1 29  1  0
  1 30  1  0
  1 31  1  0
  3 32  1  0
  4 33  1  0
 12 34  1  0
 13 35  1  0
 14 36  1  0
 20 37  1  0
 21 38  1  0
 22 39  1  0
 23 40  1  0
 24 41  1  0
 27 42  1  0
 28 43  1  0
M  CHG  2   9  -1  26  -1
M  END
>  <UniqueID>  (13) 
13

>  <SMILES>  (13) 
Cc1ccc(S(=O)(=O)[N-]c2c(O)ccc(S(=O)(=O)c3ccccc3)c2[O-])cc1

>  <Energy>  (13) 
53.06473448282215

>  <Genealogy>  (13) 
Cc1ccc(S(=O)(=O)[N-]c2c(O)ccc(S(=O)(=O)c3ccccc3)c2[O-])cc1 (protonated)
Cc1ccc(S(=O)(=O)[N-]c2c(O)ccc(S(=O)(=O)c3ccccc3)c2[O-])cc1 (3D coordinates assigned)
Cc1ccc(S(=O)(=O)[N-]c2c(O)ccc(S(=O)(=O)c3ccccc3)c2[O-])cc1 (optimized conformer: 53.06473448282215 kcal/mol)

>  <smiles>  (13) 
Cc1ccc(S(=O)(=O)Nc2c(O)ccc(S(=O)(=O)c3ccccc3)c2O)cc1

>  <score_type>  (13) 
oracle

>  <origin>  (13) 
adgpu

>  <m_score__min__energy>  (13) 
-13.16

>  <m_primary>  (13) 
energy

$$$$
13:0
     RDKit          3D

 43 45  0  0  0  0  0  0  0  0999 V2000
   -6.4230   25.8310  -29.6440 O   0  0  0  0  0  0  0  0  0  0  0  0
   -5.2500   24.9380  -29.9320 S   0  0  0  0  0  0  0  0  0  0  0  0
   -4.2990   25.6540  -30.8510 O   0  0  0  0  0  0  0  0  0  0  0  0
   -4.4300   24.5620  -28.4480 N   0  0  0  0  0  0  0  0  0  0  0  0
   -3.2140   23.7940  -28.3990 C   0  0  0  0  0  0  0  0  0  0  0  0
   -3.2090   22.4710  -27.9160 C   0  0  0  0  0  0  0  0  0  0  0  0
   -2.0120   21.7530  -27.8270 C   0  0  0  0  0  0  0  0  0  0  0  0
   -2.0150   20.1230  -27.1810 Cl  0  0  0  0  0  0  0  0  0  0  0  0
   -0.8140   22.3370  -28.2450 C   0  0  0  0  0  0  0  0  0  0  0  0
   -0.8110   23.6380  -28.7540 C   0  0  0  0  0  0  0  0  0  0  0  0
   -2.0020   24.3670  -28.8320 C   0  0  0  0  0  0  0  0  0  0  0  0
   -1.9730   25.6660  -29.3270 O   0  0  0  0  0  0  0  0  0  0  0  0
   -5.8380   23.4530  -30.6740 C   0  0  0  0  0  0  0  0  0  0  0  0
   -4.9320   22.4310  -30.9870 C   0  0  0  0  0  0  0  0  0  0  0  0
   -5.3630   21.2970  -31.6810 C   0  0  0  0  0  0  0  0  0  0  0  0
   -6.7060   21.1750  -32.0640 C   0  0  0  0  0  0  0  0  0  0  0  0
   -7.2480   19.8060  -33.0290 S   0  0  0  0  0  0  0  0  0  0  0  0
   -8.7430   19.6760  -32.9420 O   0  0  0  0  0  0  0  0  0  0  0  0
   -6.8630   20.0490  -34.4610 O   0  0  0  0  0  0  0  0  0  0  0  0
   -6.4730   18.3520  -32.4350 N   0  0  0  0  0  0  0  0  0  0  0  0
   -7.1720   17.1260  -32.8820 C   0  0  0  0  0  0  0  0  0  0  0  0
   -6.4830   16.4490  -34.0800 C   0  0  0  0  0  0  0  0  0  0  0  0
   -5.8800   17.4180  -34.9060 O   0  0  0  0  0  0  0  0  0  0  0  0
   -4.7700   18.0010  -34.2470 C   0  0  0  0  0  0  0  0  0  0  0  0
   -5.0350   18.3320  -32.7580 C   0  0  0  0  0  0  0  0  0  0  0  0
   -7.6170   22.1840  -31.7260 C   0  0  0  0  0  0  0  0  0  0  0  0
   -7.1860   23.3180  -31.0330 C   0  0  0  0  0  0  0  0  0  0  0  0
   -4.9390   24.7770  -27.5610 H   0  0  0  0  0  0  0  0  0  0  0  0
   -4.1532   21.9990  -27.6066 H   0  0  0  0  0  0  0  0  0  0  0  0
    0.1273   21.7724  -28.1734 H   0  0  0  0  0  0  0  0  0  0  0  0
    0.1318   24.0908  -29.0948 H   0  0  0  0  0  0  0  0  0  0  0  0
   -3.8780   22.5215  -30.6855 H   0  0  0  0  0  0  0  0  0  0  0  0
   -4.6472   20.4989  -31.9271 H   0  0  0  0  0  0  0  0  0  0  0  0
   -7.2012   16.4132  -32.0447 H   0  0  0  0  0  0  0  0  0  0  0  0
   -8.1820   17.4197  -33.2038 H   0  0  0  0  0  0  0  0  0  0  0  0
   -5.7128   15.7554  -33.7117 H   0  0  0  0  0  0  0  0  0  0  0  0
   -7.2361   15.8988  -34.6632 H   0  0  0  0  0  0  0  0  0  0  0  0
   -3.9252   17.2987  -34.3018 H   0  0  0  0  0  0  0  0  0  0  0  0
   -4.5573   18.9530  -34.7555 H   0  0  0  0  0  0  0  0  0  0  0  0
   -4.5431   17.5714  -32.1339 H   0  0  0  0  0  0  0  0  0  0  0  0
   -4.6325   19.3365  -32.5606 H   0  0  0  0  0  0  0  0  0  0  0  0
   -8.6756   22.0831  -32.0072 H   0  0  0  0  0  0  0  0  0  0  0  0
   -7.9061   24.1064  -30.7686 H   0  0  0  0  0  0  0  0  0  0  0  0
  1  2  2  0
  2  3  2  0
  2  4  1  0
  4  5  1  0
  5  6  2  0
  6  7  1  0
  7  8  1  0
  7  9  2  0
  9 10  1  0
 10 11  2  0
 11 12  1  0
  2 13  1  0
 13 14  2  0
 14 15  1  0
 15 16  2  0
 16 17  1  0
 17 18  2  0
 17 19  2  0
 17 20  1  0
 20 21  1  0
 21 22  1  0
 22 23  1  0
 23 24  1  0
 24 25  1  0
 16 26  1  0
 26 27  2  0
 11  5  1  0
 27 13  1  0
 25 20  1  0
  4 28  1  0
  6 29  1  0
  9 30  1  0
 10 31  1  0
 14 32  1  0
 15 33  1  0
 21 34  1  0
 21 35  1  0
 22 36  1  0
 22 37  1  0
 24 38  1  0
 24 39  1  0
 25 40  1  0
 25 41  1  0
 26 42  1  0
 27 43  1  0
M  CHG  1  12  -1
M  END
>  <UniqueID>  (14) 
14

>  <SMILES>  (14) 
O=S(=O)(Nc1cc(Cl)ccc1[O-])c1ccc(S(=O)(=O)N2CCOCC2)cc1

>  <Energy>  (14) 
57.94780744097992

>  <Genealogy>  (14) 
O=S(=O)(Nc1cc(Cl)ccc1[O-])c1ccc(S(=O)(=O)N2CCOCC2)cc1 (protonated)
O=S(=O)(Nc1cc(Cl)ccc1[O-])c1ccc(S(=O)(=O)N2CCOCC2)cc1 (3D coordinates assigned)
O=S(=O)(Nc1cc(Cl)ccc1[O-])c1ccc(S(=O)(=O)N2CCOCC2)cc1 (nonaromatic ring conformer: 57.94780744097992 kcal/mol)

>  <smiles>  (14) 
O=S(=O)(Nc1cc(Cl)ccc1O)c1ccc(S(=O)(=O)N2CCOCC2)cc1

>  <score_type>  (14) 
oracle

>  <origin>  (14) 
adgpu

>  <m_score__min__energy>  (14) 
-13.73

>  <m_primary>  (14) 
energy

$$$$
14:0
     RDKit          3D

 20 22  0  0  0  0  0  0  0  0999 V2000
   -3.0610   19.4240  -31.6450 H   0  0  0  0  0  0  0  0  0  0  0  0
   -2.6480   20.3390  -31.3560 N   0  0  0  0  0  0  0  0  0  0  0  0
   -3.3780   21.3990  -31.2270 C   0  0  0  0  0  0  0  0  0  0  0  0
   -4.7280   21.3390  -31.4710 N   0  0  0  0  0  0  0  0  0  0  0  0
   -5.5360   22.4340  -31.3390 C   0  0  0  0  0  0  0  0  0  0  0  0
   -6.9780   22.2970  -31.6100 C   0  0  0  0  0  0  0  0  0  0  0  0
   -7.5800   21.1320  -31.7050 O   0  0  0  0  0  0  0  0  0  0  0  0
   -8.8590   21.3340  -31.9220 C   0  0  0  0  0  0  0  0  0  0  0  0
   -9.6119   20.5425  -32.0515 H   0  0  0  0  0  0  0  0  0  0  0  0
   -9.1160   22.6880  -31.9630 C   0  0  0  0  0  0  0  0  0  0  0  0
  -10.0906   23.1712  -32.1263 H   0  0  0  0  0  0  0  0  0  0  0  0
   -7.9050   23.3140  -31.7580 C   0  0  0  0  0  0  0  0  0  0  0  0
   -7.7150   24.3968  -31.7200 H   0  0  0  0  0  0  0  0  0  0  0  0
   -4.9240   23.6330  -30.9610 C   0  0  0  0  0  0  0  0  0  0  0  0
   -5.3400   24.9380  -30.8030 C   0  0  0  0  0  0  0  0  0  0  0  0
   -6.3688   25.3072  -30.9268 H   0  0  0  0  0  0  0  0  0  0  0  0
   -4.2620   25.6860  -30.4690 N   0  0  0  0  0  0  0  0  0  0  0  0
   -3.1820   24.9110  -30.4190 N   0  0  0  0  0  0  0  0  0  0  0  0
   -3.5870   23.6680  -30.7230 C   0  0  0  0  0  0  0  0  0  0  0  0
   -2.7980   22.5760  -30.8490 N   0  0  0  0  0  0  0  0  0  0  0  0
  1  2  1  0
  2  3  2  0
  3  4  1  0
  4  5  2  0
  5  6  1  0
  6  7  1  0
  7  8  1  0
  8  9  1  0
  8 10  2  0
 10 11  1  0
 10 12  1  0
 12 13  1  0
  5 14  1  0
 14 15  2  0
 15 16  1  0
 15 17  1  0
 17 18  1  0
 18 19  2  0
 19 20  1  0
 20  3  1  0
 12  6  2  0
 19 14  1  0
M  CHG  2  17  -1  20  -1
M  END
>  <UniqueID>  (15) 
15

>  <SMILES>  (15) 
[H]/N=c1\nc(-c2ccco2)c2c[n-]nc2[n-]1

>  <Energy>  (15) 
92.22466346353066

>  <Genealogy>  (15) 
N=c1nc(-c2ccco2)c2c[n-]nc2[n-]1 (protonated)
[H]/N=c1\nc(-c2ccco2)c2c[n-]nc2[n-]1 (cis-trans isomerization)
[H]/N=c1\nc(-c2ccco2)c2c[n-]nc2[n-]1 (3D coordinates assigned)
[H]/N=c1\nc(-c2ccco2)c2c[n-]nc2[n-]1 (optimized conformer: 92.22466346353066 kcal/mol)

>  <smiles>  (15) 
N=c1nc(-c2ccco2)c2c[nH]nc2[nH]1

>  <score_type>  (15) 
oracle

>  <origin>  (15) 
adgpu

>  <m_score__min__energy>  (15) 
-7.6799999999999997

>  <m_primary>  (15) 
energy

$$$$
15:0
     RDKit          3D

 43 45  0  0  0  0  0  0  0  0999 V2000
   -3.9540   25.6490  -30.8970 O   0  0  0  0  0  0  0  0  0  0  0  0
   -4.9080   24.8700  -30.0350 S   0  0  0  0  0  0  0  0  0  0  0  0
   -6.1560   25.6860  -29.8430 O   0  0  0  0  0  0  0  0  0  0  0  0
   -4.1700   24.5680  -28.5000 N   0  0  0  0  0  0  0  0  0  0  0  0
   -2.9580   23.8180  -28.4160 C   0  0  0  0  0  0  0  0  0  0  0  0
   -2.9860   22.5120  -27.9110 C   0  0  0  0  0  0  0  0  0  0  0  0
   -1.8080   21.7580  -27.8460 C   0  0  0  0  0  0  0  0  0  0  0  0
   -1.8540   20.1100  -27.2480 Cl  0  0  0  0  0  0  0  0  0  0  0  0
   -0.5980   22.3150  -28.2720 C   0  0  0  0  0  0  0  0  0  0  0  0
   -0.5650   23.6220  -28.7670 C   0  0  0  0  0  0  0  0  0  0  0  0
   -1.7430   24.3750  -28.8440 C   0  0  0  0  0  0  0  0  0  0  0  0
   -1.6980   25.6730  -29.3390 O   0  0  0  0  0  0  0  0  0  0  0  0
   -5.3270   23.3280  -30.7900 C   0  0  0  0  0  0  0  0  0  0  0  0
   -4.3630   22.6670  -31.5680 C   0  0  0  0  0  0  0  0  0  0  0  0
   -4.6320   21.4080  -32.1200 C   0  0  0  0  0  0  0  0  0  0  0  0
   -3.3880   20.5560  -33.0350 S   0  0  0  0  0  0  0  0  0  0  0  0
   -2.6080   21.5500  -33.8510 O   0  0  0  0  0  0  0  0  0  0  0  0
   -4.0560   19.6050  -33.9890 O   0  0  0  0  0  0  0  0  0  0  0  0
   -2.2950   19.6510  -32.0040 N   0  0  0  0  0  0  0  0  0  0  0  0
   -1.7040   20.4810  -30.9330 C   0  0  0  0  0  0  0  0  0  0  0  0
   -0.2720   20.9440  -31.2550 C   0  0  0  0  0  0  0  0  0  0  0  0
   -0.0790   21.0290  -32.6460 O   0  0  0  0  0  0  0  0  0  0  0  0
   -0.0810   19.7310  -33.2060 C   0  0  0  0  0  0  0  0  0  0  0  0
   -1.2960   18.8810  -32.7680 C   0  0  0  0  0  0  0  0  0  0  0  0
   -5.8840   20.8190  -31.9190 C   0  0  0  0  0  0  0  0  0  0  0  0
   -6.8540   21.4740  -31.1590 C   0  0  0  0  0  0  0  0  0  0  0  0
   -6.5850   22.7200  -30.5830 C   0  0  0  0  0  0  0  0  0  0  0  0
   -7.5860   23.3140  -29.8110 O   0  0  0  0  0  0  0  0  0  0  0  0
   -3.9354   22.0777  -27.5647 H   0  0  0  0  0  0  0  0  0  0  0  0
    0.3284   21.7243  -28.2175 H   0  0  0  0  0  0  0  0  0  0  0  0
    0.3887   24.0599  -29.0968 H   0  0  0  0  0  0  0  0  0  0  0  0
   -3.3871   23.1424  -31.7457 H   0  0  0  0  0  0  0  0  0  0  0  0
   -2.3360   21.3697  -30.7886 H   0  0  0  0  0  0  0  0  0  0  0  0
   -1.6543   19.8619  -30.0251 H   0  0  0  0  0  0  0  0  0  0  0  0
   -0.1026   21.9336  -30.8056 H   0  0  0  0  0  0  0  0  0  0  0  0
    0.4380   20.2118  -30.8430 H   0  0  0  0  0  0  0  0  0  0  0  0
   -0.0955   19.8231  -34.3020 H   0  0  0  0  0  0  0  0  0  0  0  0
    0.8234   19.2183  -32.8466 H   0  0  0  0  0  0  0  0  0  0  0  0
   -1.7809   18.4737  -33.6674 H   0  0  0  0  0  0  0  0  0  0  0  0
   -0.9193   18.0860  -32.1076 H   0  0  0  0  0  0  0  0  0  0  0  0
   -6.1051   19.8364  -32.3612 H   0  0  0  0  0  0  0  0  0  0  0  0
   -7.8387   21.0064  -31.0116 H   0  0  0  0  0  0  0  0  0  0  0  0
   -7.4100   24.0550  -29.1480 H   0  0  0  0  0  0  0  0  0  0  0  0
  1  2  2  0
  2  3  2  0
  2  4  1  0
  4  5  1  0
  5  6  2  0
  6  7  1  0
  7  8  1  0
  7  9  2  0
  9 10  1  0
 10 11  2  0
 11 12  1  0
  2 13  1  0
 13 14  2  0
 14 15  1  0
 15 16  1  0
 16 17  2  0
 16 18  2  0
 16 19  1  0
 19 20  1  0
 20 21  1  0
 21 22  1  0
 22 23  1  0
 23 24  1  0
 15 25  2  0
 25 26  1  0
 26 27  2  0
 27 28  1  0
 11  5  1  0
 27 13  1  0
 24 19  1  0
  6 29  1  0
  9 30  1  0
 10 31  1  0
 14 32  1  0
 20 33  1  0
 20 34  1  0
 21 35  1  0
 21 36  1  0
 23 37  1  0
 23 38  1  0
 24 39  1  0
 24 40  1  0
 25 41  1  0
 26 42  1  0
 28 43  1  0
M  CHG  2   4  -1  12  -1
M  END
>  <UniqueID>  (16) 
16

>  <SMILES>  (16) 
O=S(=O)([N-]c1cc(Cl)ccc1[O-])c1cc(S(=O)(=O)N2CCOCC2)ccc1O

>  <Energy>  (16) 
62.49995512615661

>  <Genealogy>  (16) 
O=S(=O)([N-]c1cc(Cl)ccc1[O-])c1cc(S(=O)(=O)N2CCOCC2)ccc1O (protonated)
O=S(=O)([N-]c1cc(Cl)ccc1[O-])c1cc(S(=O)(=O)N2CCOCC2)ccc1O (3D coordinates assigned)
O=S(=O)([N-]c1cc(Cl)ccc1[O-])c1cc(S(=O)(=O)N2CCOCC2)ccc1O (nonaromatic ring conformer: 62.49995512615661 kcal/mol)

>  <smiles>  (16) 
O=S(=O)(Nc1cc(Cl)ccc1O)c1cc(S(=O)(=O)N2CCOCC2)ccc1O

>  <score_type>  (16) 
oracle

>  <origin>  (16) 
adgpu

>  <m_score__min__energy>  (16) 
-12.91

>  <m_primary>  (16) 
energy

$$$$
16:0
     RDKit          3D

 69 73  0  0  0  0  0  0  0  0999 V2000
   -7.7840   20.8150  -31.2210 C   0  0  0  0  0  0  0  0  0  0  0  0
   -7.3520   19.4810  -31.7550 C   0  0  0  0  0  0  0  0  0  0  0  0
   -6.2390   18.8230  -31.2220 C   0  0  0  0  0  0  0  0  0  0  0  0
   -5.8270   17.5980  -31.7510 C   0  0  0  0  0  0  0  0  0  0  0  0
   -6.5250   17.0430  -32.8440 C   0  0  0  0  0  0  0  0  0  0  0  0
   -6.2070   15.9000  -33.3870 N   0  0  0  0  0  0  0  0  0  0  0  0
   -5.0800   15.0520  -33.1120 C   0  0  0  0  0  0  0  0  0  0  0  0
   -4.5500   15.0210  -31.9690 O   0  0  0  0  0  0  0  0  0  0  0  0
   -4.4560   14.2710  -34.2350 C   0  0  0  0  0  0  0  0  0  0  0  0
   -3.1800   14.8800  -34.6890 N   0  0  0  0  0  0  0  0  0  0  0  0
   -2.3910   15.4350  -33.5420 C   0  0  0  0  0  0  0  0  0  0  0  0
   -1.9170   16.8780  -33.7530 C   0  0  0  0  0  0  0  0  0  0  0  0
   -3.0520   17.6990  -34.1780 N   0  0  0  0  0  0  0  0  0  0  0  0
   -3.3140   18.9690  -33.5570 C   0  0  0  0  0  0  0  0  0  0  0  0
   -2.3660   19.5380  -32.6960 C   0  0  0  0  0  0  0  0  0  0  0  0
   -2.6020   20.7790  -32.0580 C   0  0  0  0  0  0  0  0  0  0  0  0
   -3.8290   21.4460  -32.3130 C   0  0  0  0  0  0  0  0  0  0  0  0
   -4.7690   20.8700  -33.1910 C   0  0  0  0  0  0  0  0  0  0  0  0
   -4.5130   19.6460  -33.8070 C   0  0  0  0  0  0  0  0  0  0  0  0
   -5.4270   19.1350  -34.6700 F   0  0  0  0  0  0  0  0  0  0  0  0
   -4.0940   22.6750  -31.6850 C   0  0  0  0  0  0  0  0  0  0  0  0
   -5.1830   23.2720  -31.9090 O   0  0  0  0  0  0  0  0  0  0  0  0
   -3.1490   23.2340  -30.8080 C   0  0  0  0  0  0  0  0  0  0  0  0
   -3.3860   24.5320  -30.1160 C   0  0  0  0  0  0  0  0  0  0  0  0
   -3.1280   24.6570  -28.8900 O   0  0  0  0  0  0  0  0  0  0  0  0
   -3.8910   25.6290  -30.8040 O   0  0  0  0  0  0  0  0  0  0  0  0
   -1.9500   22.5410  -30.5860 C   0  0  0  0  0  0  0  0  0  0  0  0
   -1.6810   21.3460  -31.1980 N   0  0  0  0  0  0  0  0  0  0  0  0
   -0.3870   20.7000  -30.8880 C   0  0  0  0  0  0  0  0  0  0  0  0
    0.4330   20.4830  -32.1360 C   0  0  0  0  0  0  0  0  0  0  0  0
    1.3780   19.4450  -32.1930 C   0  0  0  0  0  0  0  0  0  0  0  0
    2.1290   19.2330  -33.3520 C   0  0  0  0  0  0  0  0  0  0  0  0
    1.9250   20.0330  -34.4890 C   0  0  0  0  0  0  0  0  0  0  0  0
    2.7530   19.8420  -35.7340 C   0  0  0  0  0  0  0  0  0  0  0  0
    2.4500   18.6440  -36.3600 F   0  0  0  0  0  0  0  0  0  0  0  0
    4.0940   19.8450  -35.3970 F   0  0  0  0  0  0  0  0  0  0  0  0
    2.5090   20.8710  -36.6290 F   0  0  0  0  0  0  0  0  0  0  0  0
    0.9820   21.0730  -34.4290 C   0  0  0  0  0  0  0  0  0  0  0  0
    0.2340   21.2870  -33.2690 C   0  0  0  0  0  0  0  0  0  0  0  0
   -3.9170   17.2170  -35.2580 C   0  0  0  0  0  0  0  0  0  0  0  0
   -3.4300   15.8570  -35.7820 C   0  0  0  0  0  0  0  0  0  0  0  0
   -7.6030   17.7090  -33.3400 N   0  0  0  0  0  0  0  0  0  0  0  0
   -8.0230   18.9000  -32.8370 C   0  0  0  0  0  0  0  0  0  0  0  0
   -7.7759   20.7898  -30.1213 H   0  0  0  0  0  0  0  0  0  0  0  0
   -7.0920   21.5933  -31.5751 H   0  0  0  0  0  0  0  0  0  0  0  0
   -8.8009   21.0399  -31.5751 H   0  0  0  0  0  0  0  0  0  0  0  0
   -5.6864   19.2718  -30.3834 H   0  0  0  0  0  0  0  0  0  0  0  0
   -4.9645   17.0697  -31.3185 H   0  0  0  0  0  0  0  0  0  0  0  0
   -4.2577   13.2460  -33.8884 H   0  0  0  0  0  0  0  0  0  0  0  0
   -5.1564   14.2735  -35.0832 H   0  0  0  0  0  0  0  0  0  0  0  0
   -2.6100   14.1140  -35.1230 H   0  0  0  0  0  0  0  0  0  0  0  0
   -3.0222   15.4062  -32.6416 H   0  0  0  0  0  0  0  0  0  0  0  0
   -1.4883   14.8138  -33.4458 H   0  0  0  0  0  0  0  0  0  0  0  0
   -1.5093   17.2730  -32.8108 H   0  0  0  0  0  0  0  0  0  0  0  0
   -1.1339   16.9011  -34.5251 H   0  0  0  0  0  0  0  0  0  0  0  0
   -1.4191   19.0092  -32.5123 H   0  0  0  0  0  0  0  0  0  0  0  0
   -5.7158   21.3924  -33.3926 H   0  0  0  0  0  0  0  0  0  0  0  0
   -1.2042   22.9698  -29.9005 H   0  0  0  0  0  0  0  0  0  0  0  0
    0.1773   21.3428  -30.1963 H   0  0  0  0  0  0  0  0  0  0  0  0
   -0.5899   19.7196  -30.4323 H   0  0  0  0  0  0  0  0  0  0  0  0
    1.5278   18.7944  -31.3188 H   0  0  0  0  0  0  0  0  0  0  0  0
    2.8851   18.4344  -33.3745 H   0  0  0  0  0  0  0  0  0  0  0  0
    0.8316   21.7240  -35.3028 H   0  0  0  0  0  0  0  0  0  0  0  0
   -0.5161   22.0911  -33.2433 H   0  0  0  0  0  0  0  0  0  0  0  0
   -4.9435   17.1101  -34.8773 H   0  0  0  0  0  0  0  0  0  0  0  0
   -3.8882   17.9435  -36.0834 H   0  0  0  0  0  0  0  0  0  0  0  0
   -4.1955   15.4442  -36.4555 H   0  0  0  0  0  0  0  0  0  0  0  0
   -2.4768   16.0231  -36.3053 H   0  0  0  0  0  0  0  0  0  0  0  0
   -8.8917   19.4079  -33.2812 H   0  0  0  0  0  0  0  0  0  0  0  0
  1  2  1  0
  2  3  1  0
  3  4  2  0
  4  5  1  0
  5  6  2  3
  6  7  1  0
  7  8  2  0
  7  9  1  0
  9 10  1  0
 10 11  1  0
 11 12  1  0
 12 13  1  0
 13 14  1  0
 14 15  2  0
 15 16  1  0
 16 17  2  0
 17 18  1  0
 18 19  2  0
 19 20  1  0
 17 21  1  0
 21 22  2  0
 21 23  1  0
 23 24  1  0
 24 25  2  0
 24 26  1  0
 23 27  2  0
 27 28  1  0
 28 29  1  0
 29 30  1  0
 30 31  2  0
 31 32  1  0
 32 33  2  0
 33 34  1  0
 34 35  1  0
 34 36  1  0
 34 37  1  0
 33 38  1  0
 38 39  2  0
 13 40  1  0
 40 41  1  0
  5 42  1  0
 42 43  1  0
 43  2  2  0
 41 10  1  0
 19 14  1  0
 39 30  1  0
 28 16  1  0
  1 44  1  0
  1 45  1  0
  1 46  1  0
  3 47  1  0
  4 48  1  0
  9 49  1  0
  9 50  1  0
 10 51  1  0
 11 52  1  0
 11 53  1  0
 12 54  1  0
 12 55  1  0
 15 56  1  0
 18 57  1  0
 27 58  1  0
 29 59  1  0
 29 60  1  0
 31 61  1  0
 32 62  1  0
 38 63  1  0
 39 64  1  0
 40 65  1  0
 40 66  1  0
 41 67  1  0
 41 68  1  0
 43 69  1  0
M  CHG  3  10   1  26  -1  42  -1
M  END
>  <UniqueID>  (17) 
17

>  <SMILES>  (17) 
Cc1ccc(=NC(=O)C[NH+]2CCN(c3cc4c(cc3F)c(=O)c(C(=O)[O-])cn4Cc3ccc(C(F)(F)F)cc3)CC2)[n-]c1

>  <Energy>  (17) 
107.26533510252501

>  <Genealogy>  (17) 
Cc1ccc(=NC(=O)C[NH+]2CCN(c3cc4c(cc3F)c(=O)c(C(=O)[O-])cn4Cc3ccc(C(F)(F)F)cc3)CC2)[n-]c1 (protonated)
Cc1ccc(=NC(=O)C[NH+]2CCN(c3cc4c(cc3F)c(=O)c(C(=O)[O-])cn4Cc3ccc(C(F)(F)F)cc3)CC2)[n-]c1 (3D coordinates assigned)
Cc1ccc(=NC(=O)C[NH+]2CCN(c3cc4c(cc3F)c(=O)c(C(=O)[O-])cn4Cc3ccc(C(F)(F)F)cc3)CC2)[n-]c1 (nonaromatic ring conformer: 107.26533510252501 kcal/mol)

>  <smiles>  (17) 
Cc1ccc(=NC(=O)CN2CCN(c3cc4c(cc3F)c(=O)c(C(=O)O)cn4Cc3ccc(C(F)(F)F)cc3)CC2)[nH]c1

>  <score_type>  (17) 
oracle

>  <origin>  (17) 
adgpu

>  <m_score__min__energy>  (17) 
-10.58

>  <m_primary>  (17) 
energy

$$$$
17:0
     RDKit          3D

 61 64  0  0  0  0  0  0  0  0999 V2000
   -7.7840   22.1870  -31.3130 C   0  0  0  0  0  0  0  0  0  0  0  0
   -7.0370   21.0320  -31.9370 C   0  0  0  0  0  0  0  0  0  0  0  0
   -5.7380   21.2110  -32.4300 C   0  0  0  0  0  0  0  0  0  0  0  0
   -5.0950   22.4980  -32.3510 N   0  0  0  0  0  0  0  0  0  0  0  0
   -4.1150   22.8220  -31.3480 C   0  0  0  0  0  0  0  0  0  0  0  0
   -2.9630   22.0260  -31.2170 C   0  0  0  0  0  0  0  0  0  0  0  0
   -2.0030   22.3180  -30.2510 C   0  0  0  0  0  0  0  0  0  0  0  0
   -2.1710   23.4130  -29.3990 C   0  0  0  0  0  0  0  0  0  0  0  0
   -0.9870   23.7390  -28.1290 S   0  0  0  0  0  0  0  0  0  0  0  0
   -1.4880   24.8590  -27.2570 O   0  0  0  0  0  0  0  0  0  0  0  0
    0.3050   24.1810  -28.7580 O   0  0  0  0  0  0  0  0  0  0  0  0
   -0.6970   22.3200  -27.1480 N   0  0  0  0  0  0  0  0  0  0  0  0
   -1.9260   21.5110  -27.0340 C   0  0  0  0  0  0  0  0  0  0  0  0
   -1.5880   20.0600  -26.6500 C   0  0  0  0  0  0  0  0  0  0  0  0
   -0.7540   19.3910  -27.5900 O   0  0  0  0  0  0  0  0  0  0  0  0
    0.0340   20.2680  -28.3850 C   0  0  0  0  0  0  0  0  0  0  0  0
    0.4640   21.5450  -27.6380 C   0  0  0  0  0  0  0  0  0  0  0  0
   -3.3000   24.2300  -29.5390 C   0  0  0  0  0  0  0  0  0  0  0  0
   -4.2830   23.9410  -30.5000 C   0  0  0  0  0  0  0  0  0  0  0  0
   -5.7310   24.9580  -30.6030 S   0  0  0  0  0  0  0  0  0  0  0  0
   -6.8640   24.5910  -29.3450 N   0  0  0  0  0  0  0  0  0  0  0  0
   -6.4100   24.7270  -31.9240 O   0  0  0  0  0  0  0  0  0  0  0  0
   -5.3300   26.4010  -30.4910 O   0  0  0  0  0  0  0  0  0  0  0  0
   -5.0560   20.1080  -32.9590 C   0  0  0  0  0  0  0  0  0  0  0  0
   -3.8570   20.2400  -33.3360 O   0  0  0  0  0  0  0  0  0  0  0  0
   -5.6730   18.8870  -33.0380 N   0  0  0  0  0  0  0  0  0  0  0  0
   -4.9200   17.7790  -33.5760 C   0  0  0  0  0  0  0  0  0  0  0  0
   -4.6080   17.7350  -34.9440 C   0  0  0  0  0  0  0  0  0  0  0  0
   -3.8750   16.6620  -35.4610 C   0  0  0  0  0  0  0  0  0  0  0  0
   -3.4490   15.6320  -34.6170 C   0  0  0  0  0  0  0  0  0  0  0  0
   -3.7520   15.6750  -33.2530 C   0  0  0  0  0  0  0  0  0  0  0  0
   -4.4830   16.7480  -32.7310 C   0  0  0  0  0  0  0  0  0  0  0  0
   -6.9390   18.7170  -32.6030 N   0  0  0  0  0  0  0  0  0  0  0  0
   -7.5980   17.3990  -32.7120 C   0  0  0  0  0  0  0  0  0  0  0  0
   -7.6160   19.7540  -32.0090 C   0  0  0  0  0  0  0  0  0  0  0  0
   -8.7670   19.5670  -31.5210 O   0  0  0  0  0  0  0  0  0  0  0  0
   -7.7327   22.1076  -30.2171 H   0  0  0  0  0  0  0  0  0  0  0  0
   -7.3275   23.1350  -31.6337 H   0  0  0  0  0  0  0  0  0  0  0  0
   -8.8358   22.1595  -31.6337 H   0  0  0  0  0  0  0  0  0  0  0  0
   -5.3090   23.2050  -33.0900 H   0  0  0  0  0  0  0  0  0  0  0  0
   -2.8186   21.1637  -31.8845 H   0  0  0  0  0  0  0  0  0  0  0  0
   -1.1088   21.6841  -30.1583 H   0  0  0  0  0  0  0  0  0  0  0  0
   -2.5752   21.9474  -26.2606 H   0  0  0  0  0  0  0  0  0  0  0  0
   -2.4397   21.5090  -28.0067 H   0  0  0  0  0  0  0  0  0  0  0  0
   -1.0739   20.0705  -25.6776 H   0  0  0  0  0  0  0  0  0  0  0  0
   -2.5396   19.5090  -26.6205 H   0  0  0  0  0  0  0  0  0  0  0  0
    0.9381   19.7304  -28.7069 H   0  0  0  0  0  0  0  0  0  0  0  0
   -0.5864   20.5818  -29.2374 H   0  0  0  0  0  0  0  0  0  0  0  0
    1.0886   21.2600  -26.7786 H   0  0  0  0  0  0  0  0  0  0  0  0
    1.0214   22.1789  -28.3433 H   0  0  0  0  0  0  0  0  0  0  0  0
   -3.4184   25.1089  -28.8883 H   0  0  0  0  0  0  0  0  0  0  0  0
   -6.5940   23.6700  -28.9350 H   0  0  0  0  0  0  0  0  0  0  0  0
   -6.7530   25.3160  -28.6000 H   0  0  0  0  0  0  0  0  0  0  0  0
   -4.9403   18.5451  -35.6098 H   0  0  0  0  0  0  0  0  0  0  0  0
   -3.6332   16.6284  -36.5336 H   0  0  0  0  0  0  0  0  0  0  0  0
   -2.8752   14.7875  -35.0264 H   0  0  0  0  0  0  0  0  0  0  0  0
   -3.4155   14.8647  -32.5895 H   0  0  0  0  0  0  0  0  0  0  0  0
   -4.7153   16.7831  -31.6564 H   0  0  0  0  0  0  0  0  0  0  0  0
   -7.7957   17.0035  -31.7048 H   0  0  0  0  0  0  0  0  0  0  0  0
   -8.5478   17.5078  -33.2562 H   0  0  0  0  0  0  0  0  0  0  0  0
   -6.9411   16.7045  -33.2562 H   0  0  0  0  0  0  0  0  0  0  0  0
  1  2  1  0
  2  3  2  0
  3  4  1  0
  4  5  1  0
  5  6  2  0
  6  7  1  0
  7  8  2  0
  8  9  1  0
  9 10  2  0
  9 11  2  0
  9 12  1  0
 12 13  1  0
 13 14  1  0
 14 15  1  0
 15 16  1  0
 16 17  1  0
  8 18  1  0
 18 19  2  0
 19 20  1  0
 20 21  1  0
 20 22  2  0
 20 23  2  0
  3 24  1  0
 24 25  2  0
 24 26  1  0
 26 27  1  0
 27 28  2  0
 28 29  1  0
 29 30  2  0
 30 31  1  0
 31 32  2  0
 26 33  1  0
 33 34  1  0
 33 35  1  0
 35 36  2  0
 35  2  1  0
 19  5  1  0
 32 27  1  0
 17 12  1  0
  1 37  1  0
  1 38  1  0
  1 39  1  0
  4 40  1  0
  6 41  1  0
  7 42  1  0
 13 43  1  0
 13 44  1  0
 14 45  1  0
 14 46  1  0
 16 47  1  0
 16 48  1  0
 17 49  1  0
 17 50  1  0
 18 51  1  0
 21 52  1  0
 21 53  1  0
 28 54  1  0
 29 55  1  0
 30 56  1  0
 31 57  1  0
 32 58  1  0
 34 59  1  0
 34 60  1  0
 34 61  1  0
M  END
>  <UniqueID>  (18) 
18

>  <SMILES>  (18) 
Cc1c(Nc2ccc(S(=O)(=O)N3CCOCC3)cc2S(N)(=O)=O)c(=O)n(-c2ccccc2)n(C)c1=O

>  <Energy>  (18) 
98.7102805443337

>  <Genealogy>  (18) 
Cc1c(Nc2ccc(S(=O)(=O)N3CCOCC3)cc2S(N)(=O)=O)c(=O)n(-c2ccccc2)n(C)c1=O (3D coordinates assigned)
Cc1c(Nc2ccc(S(=O)(=O)N3CCOCC3)cc2S(N)(=O)=O)c(=O)n(-c2ccccc2)n(C)c1=O (nonaromatic ring conformer: 98.7102805443337 kcal/mol)

>  <smiles>  (18) 
Cc1c(Nc2ccc(S(=O)(=O)N3CCOCC3)cc2S(N)(=O)=O)c(=O)n(-c2ccccc2)n(C)c1=O

>  <score_type>  (18) 
oracle

>  <origin>  (18) 
adgpu

>  <m_score__min__energy>  (18) 
-11.66

>  <m_primary>  (18) 
energy

$$$$
18:0
     RDKit          3D

 44 46  0  0  0  0  0  0  0  0999 V2000
   -6.6780   23.7520  -33.1950 H   0  0  0  0  0  0  0  0  0  0  0  0
   -5.7640   23.7870  -32.6900 N   0  0  0  0  0  0  0  0  0  0  0  0
   -5.0630   22.7180  -32.4850 C   0  0  0  0  0  0  0  0  0  0  0  0
   -5.5140   21.5140  -32.9290 N   0  0  0  0  0  0  0  0  0  0  0  0
   -4.8010   20.3710  -32.7360 C   0  0  0  0  0  0  0  0  0  0  0  0
   -5.3230   19.1150  -33.2220 N   0  0  0  0  0  0  0  0  0  0  0  0
   -4.4870   18.1900  -34.0010 C   0  0  0  0  0  0  0  0  0  0  0  0
   -3.7805   18.7692  -34.6138 H   0  0  0  0  0  0  0  0  0  0  0  0
   -3.9390   17.5355  -33.3072 H   0  0  0  0  0  0  0  0  0  0  0  0
   -5.3580   17.3220  -34.9190 C   0  0  0  0  0  0  0  0  0  0  0  0
   -5.8190   17.9710  -35.6781 H   0  0  0  0  0  0  0  0  0  0  0  0
   -4.7010   16.5613  -35.3658 H   0  0  0  0  0  0  0  0  0  0  0  0
   -6.4380   16.6000  -34.1980 N   0  0  0  0  0  0  0  0  0  0  0  0
   -6.0820   15.1900  -33.9740 C   0  0  0  0  0  0  0  0  0  0  0  0
   -6.0319   14.9917  -32.8932 H   0  0  0  0  0  0  0  0  0  0  0  0
   -6.8448   14.5422  -34.4307 H   0  0  0  0  0  0  0  0  0  0  0  0
   -5.1031   14.9820  -34.4307 H   0  0  0  0  0  0  0  0  0  0  0  0
   -6.8690   17.2330  -32.9280 C   0  0  0  0  0  0  0  0  0  0  0  0
   -7.9250   16.9829  -32.7481 H   0  0  0  0  0  0  0  0  0  0  0  0
   -6.2240   16.8495  -32.1237 H   0  0  0  0  0  0  0  0  0  0  0  0
   -6.7220   18.7570  -32.9620 C   0  0  0  0  0  0  0  0  0  0  0  0
   -7.3585   19.1677  -33.7596 H   0  0  0  0  0  0  0  0  0  0  0  0
   -7.0295   19.1736  -31.9915 H   0  0  0  0  0  0  0  0  0  0  0  0
   -3.5800   20.4390  -32.0510 C   0  0  0  0  0  0  0  0  0  0  0  0
   -2.9833   19.5305  -31.8817 H   0  0  0  0  0  0  0  0  0  0  0  0
   -3.1300   21.6850  -31.5840 C   0  0  0  0  0  0  0  0  0  0  0  0
   -1.9200   21.8230  -30.8850 O   0  0  0  0  0  0  0  0  0  0  0  0
   -1.8080   21.8540  -29.4890 C   0  0  0  0  0  0  0  0  0  0  0  0
   -1.4100   20.6850  -28.8290 C   0  0  0  0  0  0  0  0  0  0  0  0
   -1.1703   19.7838  -29.4124 H   0  0  0  0  0  0  0  0  0  0  0  0
   -1.3150   20.6540  -27.4380 C   0  0  0  0  0  0  0  0  0  0  0  0
   -1.0117   19.7275  -26.9284 H   0  0  0  0  0  0  0  0  0  0  0  0
   -1.6040   21.7960  -26.6930 C   0  0  0  0  0  0  0  0  0  0  0  0
   -1.5391   21.7665  -25.5953 H   0  0  0  0  0  0  0  0  0  0  0  0
   -1.9760   22.9780  -27.3380 C   0  0  0  0  0  0  0  0  0  0  0  0
   -2.1983   23.8764  -26.7435 H   0  0  0  0  0  0  0  0  0  0  0  0
   -2.0690   23.0300  -28.7420 C   0  0  0  0  0  0  0  0  0  0  0  0
   -2.3950   24.3030  -29.4240 C   0  0  0  0  0  0  0  0  0  0  0  0
   -1.6468   25.1088  -29.4528 H   0  0  0  0  0  0  0  0  0  0  0  0
   -3.5490   24.4830  -29.9880 N   0  0  0  0  0  0  0  0  0  0  0  0
   -3.8700   25.6620  -30.6280 O   0  0  0  0  0  0  0  0  0  0  0  0
   -4.1710   25.6760  -31.5960 H   0  0  0  0  0  0  0  0  0  0  0  0
   -3.8770   22.7970  -31.8230 N   0  0  0  0  0  0  0  0  0  0  0  0
   -3.5350   23.7230  -31.4800 H   0  0  0  0  0  0  0  0  0  0  0  0
  1  2  1  0
  2  3  2  0
  3  4  1  0
  4  5  2  0
  5  6  1  0
  6  7  1  0
  7  8  1  0
  7  9  1  0
  7 10  1  0
 10 11  1  0
 10 12  1  0
 10 13  1  0
 13 14  1  0
 14 15  1  0
 14 16  1  0
 14 17  1  0
 13 18  1  0
 18 19  1  0
 18 20  1  0
 18 21  1  0
 21 22  1  0
 21 23  1  0
  5 24  1  0
 24 25  1  0
 24 26  2  0
 26 27  1  0
 27 28  1  0
 28 29  2  0
 29 30  1  0
 29 31  1  0
 31 32  1  0
 31 33  2  0
 33 34  1  0
 33 35  1  0
 35 36  1  0
 35 37  2  0
 37 38  1  0
 38 39  1  0
 38 40  2  0
 40 41  1  0
 41 42  1  0
 26 43  1  0
 43 44  1  0
 43  3  1  0
 21  6  1  0
 37 28  1  0
M  END
>  <UniqueID>  (19) 
19

>  <SMILES>  (19) 
[H]/N=c1\nc(N2CCN(C)CC2)cc(Oc2ccccc2/C=N/O)[nH]1

>  <Energy>  (19) 
62.325498439947616

>  <Genealogy>  (19) 
[H]/N=c1\nc(N2CCN(C)CC2)cc(Oc2ccccc2/C=N/O)[nH]1 (cis-trans isomerization)
[H]/N=c1\nc(N2CCN(C)CC2)cc(Oc2ccccc2/C=N/O)[nH]1 (3D coordinates assigned)
[H]/N=c1\nc(N2CCN(C)CC2)cc(Oc2ccccc2/C=N/O)[nH]1 (nonaromatic ring conformer: 62.325498439947616 kcal/mol)

>  <smiles>  (19) 
CN1CCN(c2cc(Oc3ccccc3C=NO)[nH]c(=N)n2)CC1

>  <score_type>  (19) 
oracle

>  <origin>  (19) 
adgpu

>  <m_score__min__energy>  (19) 
-8.3599999999999994

>  <m_primary>  (19) 
energy

$$$$
19:0
     RDKit          3D

 55 57  0  0  0  0  0  0  0  0999 V2000
   -8.6598   19.6551  -31.3607 H   0  0  0  0  0  0  0  0  0  0  0  0
   -7.6360   19.7570  -31.7500 C   0  0  0  0  0  0  0  0  0  0  0  0
   -7.1630   18.8630  -32.7080 C   0  0  0  0  0  0  0  0  0  0  0  0
   -7.8174   18.0613  -33.0807 H   0  0  0  0  0  0  0  0  0  0  0  0
   -5.8610   18.9820  -33.1960 C   0  0  0  0  0  0  0  0  0  0  0  0
   -5.4965   18.2727  -33.9537 H   0  0  0  0  0  0  0  0  0  0  0  0
   -5.0110   19.9990  -32.7290 C   0  0  0  0  0  0  0  0  0  0  0  0
   -3.3550   20.0560  -33.3620 S   0  0  0  0  0  0  0  0  0  0  0  0
   -3.0870   21.4680  -33.7990 O   0  0  0  0  0  0  0  0  0  0  0  0
   -3.2060   19.1630  -34.5620 O   0  0  0  0  0  0  0  0  0  0  0  0
   -2.1540   19.6210  -32.1850 N   0  0  0  0  0  0  0  0  0  0  0  0
   -0.8530   19.6470  -32.2560 C   0  0  0  0  0  0  0  0  0  0  0  0
   -0.1090   19.2560  -31.2470 O   0  0  0  0  0  0  0  0  0  0  0  0
    1.1500   19.3250  -31.5500 N   0  0  0  0  0  0  0  0  0  0  0  0
    1.9320   19.0500  -30.9150 H   0  0  0  0  0  0  0  0  0  0  0  0
    1.2560   19.7780  -32.8110 C   0  0  0  0  0  0  0  0  0  0  0  0
    2.5550   19.9400  -33.5350 C   0  0  0  0  0  0  0  0  0  0  0  0
    3.3715   20.0418  -32.8049 H   0  0  0  0  0  0  0  0  0  0  0  0
    2.7355   19.0574  -34.1662 H   0  0  0  0  0  0  0  0  0  0  0  0
    2.5132   20.8399  -34.1662 H   0  0  0  0  0  0  0  0  0  0  0  0
   -0.0150   20.0230  -33.3140 C   0  0  0  0  0  0  0  0  0  0  0  0
   -0.3220   20.4540  -34.7170 C   0  0  0  0  0  0  0  0  0  0  0  0
   -0.9600   21.3498  -34.6941 H   0  0  0  0  0  0  0  0  0  0  0  0
    0.6160   20.6853  -35.2431 H   0  0  0  0  0  0  0  0  0  0  0  0
   -0.8471   19.6431  -35.2431 H   0  0  0  0  0  0  0  0  0  0  0  0
   -5.5020   20.9250  -31.7720 C   0  0  0  0  0  0  0  0  0  0  0  0
   -4.6740   22.0250  -31.2410 C   0  0  0  0  0  0  0  0  0  0  0  0
   -5.1030   23.3510  -31.3850 C   0  0  0  0  0  0  0  0  0  0  0  0
   -6.0371   23.5671  -31.9243 H   0  0  0  0  0  0  0  0  0  0  0  0
   -4.3480   24.4080  -30.8450 C   0  0  0  0  0  0  0  0  0  0  0  0
   -4.7660   25.7440  -30.9330 O   0  0  0  0  0  0  0  0  0  0  0  0
   -5.7560   26.3380  -30.0960 C   0  0  0  0  0  0  0  0  0  0  0  0
   -5.2795   26.7271  -29.1841 H   0  0  0  0  0  0  0  0  0  0  0  0
   -6.2447   27.1627  -30.6354 H   0  0  0  0  0  0  0  0  0  0  0  0
   -6.7940   25.2950  -29.7190 C   0  0  0  0  0  0  0  0  0  0  0  0
   -6.8630   25.2257  -28.6234 H   0  0  0  0  0  0  0  0  0  0  0  0
   -7.7719   25.5856  -30.1303 H   0  0  0  0  0  0  0  0  0  0  0  0
   -6.4987   24.3185  -30.1303 H   0  0  0  0  0  0  0  0  0  0  0  0
   -3.1430   24.1260  -30.1870 C   0  0  0  0  0  0  0  0  0  0  0  0
   -2.3940   25.1740  -29.6610 O   0  0  0  0  0  0  0  0  0  0  0  0
   -2.6930   22.7980  -30.0580 C   0  0  0  0  0  0  0  0  0  0  0  0
   -1.3820   22.4870  -29.3760 C   0  0  0  0  0  0  0  0  0  0  0  0
   -1.2853   23.1246  -28.4849 H   0  0  0  0  0  0  0  0  0  0  0  0
   -0.5714   22.6807  -30.0940 H   0  0  0  0  0  0  0  0  0  0  0  0
   -1.2920   21.0160  -28.9450 C   0  0  0  0  0  0  0  0  0  0  0  0
   -0.2332   20.7541  -28.8020 H   0  0  0  0  0  0  0  0  0  0  0  0
   -1.7554   20.4066  -29.7349 H   0  0  0  0  0  0  0  0  0  0  0  0
   -2.0450   20.7420  -27.6440 C   0  0  0  0  0  0  0  0  0  0  0  0
   -1.3959   20.9782  -26.7879 H   0  0  0  0  0  0  0  0  0  0  0  0
   -2.9477   21.3693  -27.6037 H   0  0  0  0  0  0  0  0  0  0  0  0
   -2.3335   19.6813  -27.6037 H   0  0  0  0  0  0  0  0  0  0  0  0
   -3.4610   21.7540  -30.5940 C   0  0  0  0  0  0  0  0  0  0  0  0
   -3.1088   20.7156  -30.5059 H   0  0  0  0  0  0  0  0  0  0  0  0
   -6.8110   20.7820  -31.2840 C   0  0  0  0  0  0  0  0  0  0  0  0
   -7.1899   21.4846  -30.5271 H   0  0  0  0  0  0  0  0  0  0  0  0
  1  2  1  0
  2  3  2  0
  3  4  1  0
  3  5  1  0
  5  6  1  0
  5  7  2  0
  7  8  1  0
  8  9  2  0
  8 10  2  0
  8 11  1  0
 11 12  2  0
 12 13  1  0
 13 14  1  0
 14 15  1  0
 14 16  1  0
 16 17  1  0
 17 18  1  0
 17 19  1  0
 17 20  1  0
 16 21  2  0
 21 22  1  0
 22 23  1  0
 22 24  1  0
 22 25  1  0
  7 26  1  0
 26 27  1  0
 27 28  2  0
 28 29  1  0
 28 30  1  0
 30 31  1  0
 31 32  1  0
 32 33  1  0
 32 34  1  0
 32 35  1  0
 35 36  1  0
 35 37  1  0
 35 38  1  0
 30 39  2  0
 39 40  1  0
 39 41  1  0
 41 42  1  0
 42 43  1  0
 42 44  1  0
 42 45  1  0
 45 46  1  0
 45 47  1  0
 45 48  1  0
 48 49  1  0
 48 50  1  0
 48 51  1  0
 41 52  2  0
 52 53  1  0
 26 54  2  0
 54 55  1  0
 54  2  1  0
 21 12  1  0
 52 27  1  0
M  CHG  1  40  -1
M  END
>  <UniqueID>  (20) 
20

>  <SMILES>  (20) 
CCCc1cc(-c2ccccc2S(=O)(=O)/N=c2/o[nH]c(C)c2C)cc(OCC)c1[O-]

>  <Energy>  (20) 
92.919778309994

>  <Genealogy>  (20) 
CCCc1cc(-c2ccccc2S(=O)(=O)N=c2o[nH]c(C)c2C)cc(OCC)c1[O-] (protonated)
CCCc1cc(-c2ccccc2S(=O)(=O)/N=c2/o[nH]c(C)c2C)cc(OCC)c1[O-] (cis-trans isomerization)
CCCc1cc(-c2ccccc2S(=O)(=O)/N=c2/o[nH]c(C)c2C)cc(OCC)c1[O-] (3D coordinates assigned)
CCCc1cc(-c2ccccc2S(=O)(=O)/N=c2/o[nH]c(C)c2C)cc(OCC)c1[O-] (optimized conformer: 92.919778309994 kcal/mol)

>  <smiles>  (20) 
CCCc1cc(-c2ccccc2S(=O)(=O)N=c2o[nH]c(C)c2C)cc(OCC)c1O

>  <score_type>  (20) 
oracle

>  <origin>  (20) 
adgpu

>  <m_score__min__energy>  (20) 
-12.619999999999999

>  <m_primary>  (20) 
energy

$$$$
20:0
     RDKit          3D

 57 60  0  0  0  0  0  0  0  0999 V2000
   -5.0020   26.3230  -30.4570 O   0  0  0  0  0  0  0  0  0  0  0  0
   -4.5410   25.1480  -30.4700 C   0  0  0  0  0  0  0  0  0  0  0  0
   -3.1490   24.9280  -30.2060 N   0  0  0  0  0  0  0  0  0  0  0  0
   -2.5980   24.1880  -29.1070 C   0  0  0  0  0  0  0  0  0  0  0  0
   -3.2860   23.1160  -28.5130 C   0  0  0  0  0  0  0  0  0  0  0  0
   -2.7250   22.4380  -27.4260 C   0  0  0  0  0  0  0  0  0  0  0  0
   -1.4840   22.8290  -26.9190 C   0  0  0  0  0  0  0  0  0  0  0  0
   -0.7950   23.9040  -27.4960 C   0  0  0  0  0  0  0  0  0  0  0  0
    0.7590   24.4120  -26.8420 S   0  0  0  0  0  0  0  0  0  0  0  0
    1.4090   23.2450  -26.1500 O   0  0  0  0  0  0  0  0  0  0  0  0
    1.6550   24.8630  -27.9620 O   0  0  0  0  0  0  0  0  0  0  0  0
    0.5120   25.7020  -25.6910 N   0  0  0  0  0  0  0  0  0  0  0  0
   -0.0210   25.1960  -24.4280 C   0  0  0  0  0  0  0  0  0  0  0  0
   -0.8050   26.3380  -23.8000 C   0  0  0  0  0  0  0  0  0  0  0  0
   -1.1140   27.2900  -24.9450 C   0  0  0  0  0  0  0  0  0  0  0  0
   -0.4780   26.6620  -26.1760 C   0  0  0  0  0  0  0  0  0  0  0  0
   -1.3640   24.5890  -28.5790 C   0  0  0  0  0  0  0  0  0  0  0  0
   -5.4610   24.0010  -30.6850 C   0  0  0  0  0  0  0  0  0  0  0  0
   -5.0110   22.8830  -31.4140 C   0  0  0  0  0  0  0  0  0  0  0  0
   -5.8540   21.7880  -31.6430 C   0  0  0  0  0  0  0  0  0  0  0  0
   -5.2760   20.3860  -32.5430 S   0  0  0  0  0  0  0  0  0  0  0  0
   -4.1440   20.8260  -33.4290 O   0  0  0  0  0  0  0  0  0  0  0  0
   -4.7490   19.3520  -31.5860 O   0  0  0  0  0  0  0  0  0  0  0  0
   -6.5550   19.7120  -33.5340 N   0  0  0  0  0  0  0  0  0  0  0  0
   -7.6850   19.2260  -32.7240 C   0  0  0  0  0  0  0  0  0  0  0  0
   -7.3460   17.9130  -31.9760 C   0  0  0  0  0  0  0  0  0  0  0  0
   -6.2310   17.2250  -32.5160 O   0  0  0  0  0  0  0  0  0  0  0  0
   -6.2810   17.2420  -33.9240 C   0  0  0  0  0  0  0  0  0  0  0  0
   -6.0430   18.6700  -34.4530 C   0  0  0  0  0  0  0  0  0  0  0  0
   -7.1540   21.7950  -31.1310 C   0  0  0  0  0  0  0  0  0  0  0  0
   -7.6130   22.8910  -30.4020 C   0  0  0  0  0  0  0  0  0  0  0  0
   -6.7790   23.9940  -30.1710 C   0  0  0  0  0  0  0  0  0  0  0  0
   -7.2590   25.0680  -29.4210 O   0  0  0  0  0  0  0  0  0  0  0  0
   -4.2676   22.8097  -28.9038 H   0  0  0  0  0  0  0  0  0  0  0  0
   -3.2629   21.5943  -26.9691 H   0  0  0  0  0  0  0  0  0  0  0  0
   -1.0463   22.2918  -26.0647 H   0  0  0  0  0  0  0  0  0  0  0  0
   -0.6830   24.3370  -24.6121 H   0  0  0  0  0  0  0  0  0  0  0  0
    0.7871   24.8564  -23.7635 H   0  0  0  0  0  0  0  0  0  0  0  0
   -1.7355   25.9639  -23.3482 H   0  0  0  0  0  0  0  0  0  0  0  0
   -0.2378   26.8322  -22.9975 H   0  0  0  0  0  0  0  0  0  0  0  0
   -2.2011   27.3880  -25.0812 H   0  0  0  0  0  0  0  0  0  0  0  0
   -0.7235   28.3004  -24.7534 H   0  0  0  0  0  0  0  0  0  0  0  0
   -1.2421   26.1480  -26.7776 H   0  0  0  0  0  0  0  0  0  0  0  0
   -0.0101   27.4260  -26.8142 H   0  0  0  0  0  0  0  0  0  0  0  0
   -0.8368   25.4489  -29.0179 H   0  0  0  0  0  0  0  0  0  0  0  0
   -3.9843   22.8696  -31.8086 H   0  0  0  0  0  0  0  0  0  0  0  0
   -7.9486   19.9969  -31.9849 H   0  0  0  0  0  0  0  0  0  0  0  0
   -8.5245   19.0202  -33.4043 H   0  0  0  0  0  0  0  0  0  0  0  0
   -7.1289   18.1571  -30.9256 H   0  0  0  0  0  0  0  0  0  0  0  0
   -8.2165   17.2485  -32.0793 H   0  0  0  0  0  0  0  0  0  0  0  0
   -5.5034   16.5736  -34.3224 H   0  0  0  0  0  0  0  0  0  0  0  0
   -7.2751   16.9019  -34.2498 H   0  0  0  0  0  0  0  0  0  0  0  0
   -4.9616   18.8199  -34.5876 H   0  0  0  0  0  0  0  0  0  0  0  0
   -6.5883   18.7677  -35.4033 H   0  0  0  0  0  0  0  0  0  0  0  0
   -7.8166   20.9340  -31.3035 H   0  0  0  0  0  0  0  0  0  0  0  0
   -8.6387   22.8904  -30.0045 H   0  0  0  0  0  0  0  0  0  0  0  0
   -6.6660   25.8500  -29.1690 H   0  0  0  0  0  0  0  0  0  0  0  0
  1  2  2  0
  2  3  1  0
  3  4  1  0
  4  5  2  0
  5  6  1  0
  6  7  2  0
  7  8  1  0
  8  9  1  0
  9 10  2  0
  9 11  2  0
  9 12  1  0
 12 13  1  0
 13 14  1  0
 14 15  1  0
 15 16  1  0
  8 17  2  0
  2 18  1  0
 18 19  2  0
 19 20  1  0
 20 21  1  0
 21 22  2  0
 21 23  2  0
 21 24  1  0
 24 25  1  0
 25 26  1  0
 26 27  1  0
 27 28  1  0
 28 29  1  0
 20 30  2  0
 30 31  1  0
 31 32  2  0
 32 33  1  0
 17  4  1  0
 32 18  1  0
 16 12  1  0
 29 24  1  0
  5 34  1  0
  6 35  1  0
  7 36  1  0
 13 37  1  0
 13 38  1  0
 14 39  1  0
 14 40  1  0
 15 41  1  0
 15 42  1  0
 16 43  1  0
 16 44  1  0
 17 45  1  0
 19 46  1  0
 25 47  1  0
 25 48  1  0
 26 49  1  0
 26 50  1  0
 28 51  1  0
 28 52  1  0
 29 53  1  0
 29 54  1  0
 30 55  1  0
 31 56  1  0
 33 57  1  0
M  CHG  1   3  -1
M  END
>  <UniqueID>  (21) 
21

>  <SMILES>  (21) 
O=C([N-]c1cccc(S(=O)(=O)N2CCCC2)c1)c1cc(S(=O)(=O)N2CCOCC2)ccc1O

>  <Energy>  (21) 
76.37439282987775

>  <Genealogy>  (21) 
O=C([N-]c1cccc(S(=O)(=O)N2CCCC2)c1)c1cc(S(=O)(=O)N2CCOCC2)ccc1O (protonated)
O=C([N-]c1cccc(S(=O)(=O)N2CCCC2)c1)c1cc(S(=O)(=O)N2CCOCC2)ccc1O (3D coordinates assigned)
O=C([N-]c1cccc(S(=O)(=O)N2CCCC2)c1)c1cc(S(=O)(=O)N2CCOCC2)ccc1O (nonaromatic ring conformer: 76.37439282987775 kcal/mol)

>  <smiles>  (21) 
O=C(Nc1cccc(S(=O)(=O)N2CCCC2)c1)c1cc(S(=O)(=O)N2CCOCC2)ccc1O

>  <score_type>  (21) 
oracle

>  <origin>  (21) 
adgpu

>  <m_score__min__energy>  (21) 
-11.51

>  <m_primary>  (21) 
energy

$$$$
21:0
     RDKit          3D

 58 61  0  0  0  0  0  0  0  0999 V2000
   -5.4530   17.9750  -33.4420 C   0  0  0  0  0  0  0  0  0  0  0  0
   -4.4550   18.7900  -34.2640 C   0  0  0  0  0  0  0  0  0  0  0  0
   -3.6850   19.6910  -33.3990 N   0  0  0  0  0  0  0  0  0  0  0  0
   -2.3480   19.6540  -33.1530 C   0  0  0  0  0  0  0  0  0  0  0  0
   -1.2200   18.3890  -33.7670 S   0  0  0  0  0  0  0  0  0  0  0  0
   -0.0510   19.5710  -34.4390 C   0  0  0  0  0  0  0  0  0  0  0  0
   -0.4860   20.5400  -35.3500 C   0  0  0  0  0  0  0  0  0  0  0  0
    0.4180   21.4690  -35.8720 C   0  0  0  0  0  0  0  0  0  0  0  0
    1.7660   21.4320  -35.4900 C   0  0  0  0  0  0  0  0  0  0  0  0
    2.8900   22.6290  -36.1360 S   0  0  0  0  0  0  0  0  0  0  0  0
    2.1330   23.7460  -36.7980 O   0  0  0  0  0  0  0  0  0  0  0  0
    3.6970   23.2000  -35.0030 O   0  0  0  0  0  0  0  0  0  0  0  0
    3.9640   21.9040  -37.2960 N   0  0  0  0  0  0  0  0  0  0  0  0
    3.7280   20.4630  -37.3550 C   0  0  0  0  0  0  0  0  0  0  0  0
    2.2060   20.4420  -34.6000 C   0  0  0  0  0  0  0  0  0  0  0  0
    1.3010   19.5090  -34.0850 C   0  0  0  0  0  0  0  0  0  0  0  0
   -1.9830   20.6860  -32.2890 C   0  0  0  0  0  0  0  0  0  0  0  0
   -0.6170   21.0110  -31.7680 C   0  0  0  0  0  0  0  0  0  0  0  0
   -3.1460   21.3830  -32.0320 C   0  0  0  0  0  0  0  0  0  0  0  0
   -3.3730   22.5130  -31.2450 C   0  0  0  0  0  0  0  0  0  0  0  0
   -4.6910   23.0030  -31.1540 C   0  0  0  0  0  0  0  0  0  0  0  0
   -5.0490   24.4260  -30.1820 S   0  0  0  0  0  0  0  0  0  0  0  0
   -4.6430   25.6550  -30.9440 O   0  0  0  0  0  0  0  0  0  0  0  0
   -6.5250   24.4510  -29.8970 O   0  0  0  0  0  0  0  0  0  0  0  0
   -4.1640   24.3520  -28.6910 N   0  0  0  0  0  0  0  0  0  0  0  0
   -2.8750   23.7580  -28.4660 C   0  0  0  0  0  0  0  0  0  0  0  0
   -2.8460   22.4560  -27.9490 C   0  0  0  0  0  0  0  0  0  0  0  0
   -1.6310   21.8150  -27.6940 C   0  0  0  0  0  0  0  0  0  0  0  0
   -0.4280   22.4680  -27.9640 C   0  0  0  0  0  0  0  0  0  0  0  0
   -0.4380   23.7580  -28.4950 C   0  0  0  0  0  0  0  0  0  0  0  0
   -1.6510   24.4070  -28.7560 C   0  0  0  0  0  0  0  0  0  0  0  0
   -1.6110   25.6770  -29.3180 O   0  0  0  0  0  0  0  0  0  0  0  0
   -5.7390   22.3420  -31.8350 C   0  0  0  0  0  0  0  0  0  0  0  0
   -5.4790   21.2040  -32.6190 C   0  0  0  0  0  0  0  0  0  0  0  0
   -4.1590   20.7510  -32.7070 C   0  0  0  0  0  0  0  0  0  0  0  0
   -5.2604   18.1323  -32.3705 H   0  0  0  0  0  0  0  0  0  0  0  0
   -6.4765   18.2987  -33.6820 H   0  0  0  0  0  0  0  0  0  0  0  0
   -5.3403   16.9074  -33.6820 H   0  0  0  0  0  0  0  0  0  0  0  0
   -3.7646   18.1044  -34.7771 H   0  0  0  0  0  0  0  0  0  0  0  0
   -5.0098   19.3926  -34.9982 H   0  0  0  0  0  0  0  0  0  0  0  0
   -1.5421   20.5705  -35.6560 H   0  0  0  0  0  0  0  0  0  0  0  0
    0.0707   22.2315  -36.5847 H   0  0  0  0  0  0  0  0  0  0  0  0
    4.9420   22.0550  -36.9570 H   0  0  0  0  0  0  0  0  0  0  0  0
    3.6620   20.0601  -36.3336 H   0  0  0  0  0  0  0  0  0  0  0  0
    2.7858   20.2673  -37.8879 H   0  0  0  0  0  0  0  0  0  0  0  0
    4.5585   19.9769  -37.8879 H   0  0  0  0  0  0  0  0  0  0  0  0
    3.2652   20.3993  -34.3064 H   0  0  0  0  0  0  0  0  0  0  0  0
    1.6530   18.7240  -33.3995 H   0  0  0  0  0  0  0  0  0  0  0  0
   -0.6336   21.0071  -30.6681 H   0  0  0  0  0  0  0  0  0  0  0  0
    0.1008   20.2586  -32.1266 H   0  0  0  0  0  0  0  0  0  0  0  0
   -0.3150   22.0061  -32.1266 H   0  0  0  0  0  0  0  0  0  0  0  0
   -2.5473   23.0066  -30.7115 H   0  0  0  0  0  0  0  0  0  0  0  0
   -3.7909   21.9324  -27.7415 H   0  0  0  0  0  0  0  0  0  0  0  0
   -1.6229   20.7957  -27.2805 H   0  0  0  0  0  0  0  0  0  0  0  0
    0.5286   21.9655  -27.7581 H   0  0  0  0  0  0  0  0  0  0  0  0
    0.5125   24.2683  -28.7099 H   0  0  0  0  0  0  0  0  0  0  0  0
   -6.7679   22.7217  -31.7507 H   0  0  0  0  0  0  0  0  0  0  0  0
   -6.2914   20.6846  -33.1484 H   0  0  0  0  0  0  0  0  0  0  0  0
  1  2  1  0
  2  3  1  0
  3  4  1  0
  4  5  1  0
  5  6  1  0
  6  7  2  0
  7  8  1  0
  8  9  2  0
  9 10  1  0
 10 11  2  0
 10 12  2  0
 10 13  1  0
 13 14  1  0
  9 15  1  0
 15 16  2  0
  4 17  2  0
 17 18  1  0
 17 19  1  0
 19 20  2  0
 20 21  1  0
 21 22  1  0
 22 23  2  0
 22 24  2  0
 22 25  1  0
 25 26  1  0
 26 27  2  0
 27 28  1  0
 28 29  2  0
 29 30  1  0
 30 31  2  0
 31 32  1  0
 21 33  2  0
 33 34  1  0
 34 35  2  0
 35  3  1  0
 16  6  1  0
 35 19  1  0
 31 26  1  0
  1 36  1  0
  1 37  1  0
  1 38  1  0
  2 39  1  0
  2 40  1  0
  7 41  1  0
  8 42  1  0
 13 43  1  0
 14 44  1  0
 14 45  1  0
 14 46  1  0
 15 47  1  0
 16 48  1  0
 18 49  1  0
 18 50  1  0
 18 51  1  0
 20 52  1  0
 27 53  1  0
 28 54  1  0
 29 55  1  0
 30 56  1  0
 33 57  1  0
 34 58  1  0
M  CHG  2  25  -1  32  -1
M  END
>  <UniqueID>  (22) 
22

>  <SMILES>  (22) 
CCn1c(Sc2ccc(S(=O)(=O)NC)cc2)c(C)c2cc(S(=O)(=O)[N-]c3ccccc3[O-])ccc21

>  <Energy>  (22) 
92.51925001152478

>  <Genealogy>  (22) 
CCn1c(Sc2ccc(S(=O)(=O)NC)cc2)c(C)c2cc(S(=O)(=O)[N-]c3ccccc3[O-])ccc21 (protonated)
CCn1c(Sc2ccc(S(=O)(=O)NC)cc2)c(C)c2cc(S(=O)(=O)[N-]c3ccccc3[O-])ccc21 (3D coordinates assigned)
CCn1c(Sc2ccc(S(=O)(=O)NC)cc2)c(C)c2cc(S(=O)(=O)[N-]c3ccccc3[O-])ccc21 (optimized conformer: 92.51925001152478 kcal/mol)

>  <smiles>  (22) 
CCn1c(Sc2ccc(S(=O)(=O)NC)cc2)c(C)c2cc(S(=O)(=O)Nc3ccccc3O)ccc21

>  <score_type>  (22) 
oracle

>  <origin>  (22) 
adgpu

>  <m_score__min__energy>  (22) 
-14.130000000000001

>  <m_primary>  (22) 
energy

$$$$
22:0
     RDKit          3D

 60 64  0  0  0  0  0  0  0  0999 V2000
   -1.1830   19.9880  -26.7100 C   0  0  0  0  0  0  0  0  0  0  0  0
   -1.6520   19.7490  -28.0860 N   0  0  0  0  0  0  0  0  0  0  0  0
   -0.5870   20.0700  -29.0760 C   0  0  0  0  0  0  0  0  0  0  0  0
   -0.7850   21.4540  -29.7080 C   0  0  0  0  0  0  0  0  0  0  0  0
   -2.0720   21.5350  -30.4400 N   0  0  0  0  0  0  0  0  0  0  0  0
   -2.4630   22.9440  -30.6410 C   0  0  0  0  0  0  0  0  0  0  0  0
   -3.0420   23.5320  -29.3770 C   0  0  0  0  0  0  0  0  0  0  0  0
   -4.3910   23.7050  -29.0730 C   0  0  0  0  0  0  0  0  0  0  0  0
   -5.5450   23.3350  -29.9110 C   0  0  0  0  0  0  0  0  0  0  0  0
   -5.5460   23.6590  -31.2740 C   0  0  0  0  0  0  0  0  0  0  0  0
   -6.6270   23.3020  -32.0860 C   0  0  0  0  0  0  0  0  0  0  0  0
   -7.7310   22.6220  -31.5390 C   0  0  0  0  0  0  0  0  0  0  0  0
   -8.8340   22.2210  -32.3110 O   0  0  0  0  0  0  0  0  0  0  0  0
   -9.3660   20.8970  -32.3630 C   0  0  0  0  0  0  0  0  0  0  0  0
   -8.2630   19.8730  -32.4320 C   0  0  0  0  0  0  0  0  0  0  0  0
   -8.2750   18.7540  -31.5840 C   0  0  0  0  0  0  0  0  0  0  0  0
   -7.2420   17.8130  -31.6410 C   0  0  0  0  0  0  0  0  0  0  0  0
   -6.1860   17.9890  -32.5390 C   0  0  0  0  0  0  0  0  0  0  0  0
   -6.1570   19.1070  -33.3750 C   0  0  0  0  0  0  0  0  0  0  0  0
   -7.1880   20.0500  -33.3200 C   0  0  0  0  0  0  0  0  0  0  0  0
   -7.7410   22.3310  -30.1710 C   0  0  0  0  0  0  0  0  0  0  0  0
   -6.6610   22.6890  -29.3600 C   0  0  0  0  0  0  0  0  0  0  0  0
   -4.5210   24.3800  -27.9060 N   0  0  0  0  0  0  0  0  0  0  0  0
   -3.2460   24.5880  -27.5170 C   0  0  0  0  0  0  0  0  0  0  0  0
   -2.8550   25.2610  -26.3630 C   0  0  0  0  0  0  0  0  0  0  0  0
   -1.4790   25.4170  -26.1300 C   0  0  0  0  0  0  0  0  0  0  0  0
   -0.8760   26.3340  -24.5670 Br  0  0  0  0  0  0  0  0  0  0  0  0
   -0.5440   24.9080  -27.0490 C   0  0  0  0  0  0  0  0  0  0  0  0
   -0.9930   24.2410  -28.1980 C   0  0  0  0  0  0  0  0  0  0  0  0
   -2.3360   24.0980  -28.3790 N   0  0  0  0  0  0  0  0  0  0  0  0
   -3.1530   20.7210  -29.8250 C   0  0  0  0  0  0  0  0  0  0  0  0
   -2.9200   20.4830  -28.3260 C   0  0  0  0  0  0  0  0  0  0  0  0
   -1.9293   19.6077  -25.9970 H   0  0  0  0  0  0  0  0  0  0  0  0
   -0.2270   19.4672  -26.5528 H   0  0  0  0  0  0  0  0  0  0  0  0
   -1.0425   21.0676  -26.5528 H   0  0  0  0  0  0  0  0  0  0  0  0
   -1.8580   18.7240  -28.1630 H   0  0  0  0  0  0  0  0  0  0  0  0
    0.3882   20.0485  -28.5675 H   0  0  0  0  0  0  0  0  0  0  0  0
   -0.6345   19.3205  -29.8798 H   0  0  0  0  0  0  0  0  0  0  0  0
   -0.7765   22.2148  -28.9136 H   0  0  0  0  0  0  0  0  0  0  0  0
    0.0320   21.6281  -30.4236 H   0  0  0  0  0  0  0  0  0  0  0  0
   -1.5760   23.5248  -30.9341 H   0  0  0  0  0  0  0  0  0  0  0  0
   -3.2294   22.9853  -31.4290 H   0  0  0  0  0  0  0  0  0  0  0  0
   -4.6909   24.1977  -31.7082 H   0  0  0  0  0  0  0  0  0  0  0  0
   -6.6144   23.5537  -33.1567 H   0  0  0  0  0  0  0  0  0  0  0  0
   -9.9686   20.7160  -31.4607 H   0  0  0  0  0  0  0  0  0  0  0  0
   -9.9865   20.8044  -33.2666 H   0  0  0  0  0  0  0  0  0  0  0  0
   -9.1013   18.6167  -30.8710 H   0  0  0  0  0  0  0  0  0  0  0  0
   -7.2608   16.9346  -30.9791 H   0  0  0  0  0  0  0  0  0  0  0  0
   -5.3765   17.2458  -32.5874 H   0  0  0  0  0  0  0  0  0  0  0  0
   -5.3222   19.2461  -34.0776 H   0  0  0  0  0  0  0  0  0  0  0  0
   -7.1576   20.9338  -33.9742 H   0  0  0  0  0  0  0  0  0  0  0  0
   -8.6068   21.8157  -29.7296 H   0  0  0  0  0  0  0  0  0  0  0  0
   -6.6863   22.4629  -28.2838 H   0  0  0  0  0  0  0  0  0  0  0  0
   -3.5993   25.6576  -25.6568 H   0  0  0  0  0  0  0  0  0  0  0  0
    0.5338   25.0324  -26.8675 H   0  0  0  0  0  0  0  0  0  0  0  0
   -0.2792   23.8434  -28.9344 H   0  0  0  0  0  0  0  0  0  0  0  0
   -4.1102   21.2471  -29.9554 H   0  0  0  0  0  0  0  0  0  0  0  0
   -3.1629   19.7410  -30.3245 H   0  0  0  0  0  0  0  0  0  0  0  0
   -2.8743   21.4545  -27.8120 H   0  0  0  0  0  0  0  0  0  0  0  0
   -3.7510   19.8756  -27.9381 H   0  0  0  0  0  0  0  0  0  0  0  0
  1  2  1  0
  2  3  1  0
  3  4  1  0
  4  5  1  0
  5  6  1  0
  6  7  1  0
  7  8  2  0
  8  9  1  0
  9 10  2  0
 10 11  1  0
 11 12  2  0
 12 13  1  0
 13 14  1  0
 14 15  1  0
 15 16  2  0
 16 17  1  0
 17 18  2  0
 18 19  1  0
 19 20  2  0
 12 21  1  0
 21 22  2  0
  8 23  1  0
 23 24  2  0
 24 25  1  0
 25 26  2  0
 26 27  1  0
 26 28  1  0
 28 29  2  0
 29 30  1  0
  5 31  1  0
 31 32  1  0
 32  2  1  0
 30  7  1  0
 22  9  1  0
 30 24  1  0
 20 15  1  0
  1 33  1  0
  1 34  1  0
  1 35  1  0
  2 36  1  0
  3 37  1  0
  3 38  1  0
  4 39  1  0
  4 40  1  0
  6 41  1  0
  6 42  1  0
 10 43  1  0
 11 44  1  0
 14 45  1  0
 14 46  1  0
 16 47  1  0
 17 48  1  0
 18 49  1  0
 19 50  1  0
 20 51  1  0
 21 52  1  0
 22 53  1  0
 25 54  1  0
 28 55  1  0
 29 56  1  0
 31 57  1  0
 31 58  1  0
 32 59  1  0
 32 60  1  0
M  CHG  1   2   1
M  END
>  <UniqueID>  (23) 
23

>  <SMILES>  (23) 
C[NH+]1CCN(Cc2c(-c3ccc(OCc4ccccc4)cc3)nc3cc(Br)ccn23)CC1

>  <Energy>  (23) 
116.86643894939621

>  <Genealogy>  (23) 
C[NH+]1CCN(Cc2c(-c3ccc(OCc4ccccc4)cc3)nc3cc(Br)ccn23)CC1 (protonated)
C[NH+]1CCN(Cc2c(-c3ccc(OCc4ccccc4)cc3)nc3cc(Br)ccn23)CC1 (3D coordinates assigned)
C[NH+]1CCN(Cc2c(-c3ccc(OCc4ccccc4)cc3)nc3cc(Br)ccn23)CC1 (nonaromatic ring conformer: 116.86643894939621 kcal/mol)

>  <smiles>  (23) 
CN1CCN(Cc2c(-c3ccc(OCc4ccccc4)cc3)nc3cc(Br)ccn23)CC1

>  <score_type>  (23) 
oracle

>  <origin>  (23) 
adgpu

>  <m_score__min__energy>  (23) 
-9.0600000000000005

>  <m_primary>  (23) 
energy

$$$$
23:0
     RDKit          3D

 61 64  0  0  0  0  0  0  0  0999 V2000
   -1.1680   20.2710  -27.5530 C   0  0  0  0  0  0  0  0  0  0  0  0
   -1.3290   21.6810  -28.0430 C   0  0  0  0  0  0  0  0  0  0  0  0
   -0.2060   22.5000  -28.2350 C   0  0  0  0  0  0  0  0  0  0  0  0
   -0.3630   23.8190  -28.6690 C   0  0  0  0  0  0  0  0  0  0  0  0
   -1.6410   24.3370  -28.9050 C   0  0  0  0  0  0  0  0  0  0  0  0
   -1.7680   25.6510  -29.3410 O   0  0  0  0  0  0  0  0  0  0  0  0
   -2.7790   23.5310  -28.6980 C   0  0  0  0  0  0  0  0  0  0  0  0
   -4.1710   24.0730  -28.9020 C   0  0  0  0  0  0  0  0  0  0  0  0
   -4.2960   24.9910  -30.4790 S   0  0  0  0  0  0  0  0  0  0  0  0
   -5.2050   23.7010  -31.3360 C   0  0  0  0  0  0  0  0  0  0  0  0
   -4.7080   23.0210  -32.3860 N   0  0  0  0  0  0  0  0  0  0  0  0
   -5.6110   22.1090  -32.7180 N   0  0  0  0  0  0  0  0  0  0  0  0
   -6.6500   22.2570  -31.8720 C   0  0  0  0  0  0  0  0  0  0  0  0
   -7.8190   21.3150  -31.8460 C   0  0  0  0  0  0  0  0  0  0  0  0
   -7.3940   19.9470  -32.2850 C   0  0  0  0  0  0  0  0  0  0  0  0
   -7.8860   18.9320  -31.7220 O   0  0  0  0  0  0  0  0  0  0  0  0
   -6.4820   19.7940  -33.3860 N   0  0  0  0  0  0  0  0  0  0  0  0
   -5.7880   18.5680  -33.6630 C   0  0  0  0  0  0  0  0  0  0  0  0
   -4.4190   18.5990  -33.9660 C   0  0  0  0  0  0  0  0  0  0  0  0
   -3.7290   17.4150  -34.2370 C   0  0  0  0  0  0  0  0  0  0  0  0
   -4.3960   16.1810  -34.1920 C   0  0  0  0  0  0  0  0  0  0  0  0
   -3.5370   14.6890  -34.5810 S   0  0  0  0  0  0  0  0  0  0  0  0
   -2.1430   15.0230  -35.0350 O   0  0  0  0  0  0  0  0  0  0  0  0
   -4.2400   13.9920  -35.7130 O   0  0  0  0  0  0  0  0  0  0  0  0
   -3.4620   13.6130  -33.2020 N   0  0  0  0  0  0  0  0  0  0  0  0
   -4.1310   12.3230  -33.4800 C   0  0  0  0  0  0  0  0  0  0  0  0
   -5.5100   12.2300  -32.8000 C   0  0  0  0  0  0  0  0  0  0  0  0
   -5.4520   12.3770  -31.3870 O   0  0  0  0  0  0  0  0  0  0  0  0
   -4.4210   13.2520  -30.9430 C   0  0  0  0  0  0  0  0  0  0  0  0
   -3.9790   14.2860  -31.9940 C   0  0  0  0  0  0  0  0  0  0  0  0
   -5.7550   16.1440  -33.8490 C   0  0  0  0  0  0  0  0  0  0  0  0
   -6.4470   17.3290  -33.5880 C   0  0  0  0  0  0  0  0  0  0  0  0
   -6.4310   23.2580  -30.9940 N   0  0  0  0  0  0  0  0  0  0  0  0
   -7.2350   23.6500  -29.8380 C   0  0  0  0  0  0  0  0  0  0  0  0
   -2.6120   22.2060  -28.2590 C   0  0  0  0  0  0  0  0  0  0  0  0
   -1.1671   20.2629  -26.4530 H   0  0  0  0  0  0  0  0  0  0  0  0
   -2.0018   19.6566  -27.9235 H   0  0  0  0  0  0  0  0  0  0  0  0
   -0.2171   19.8604  -27.9235 H   0  0  0  0  0  0  0  0  0  0  0  0
    0.8015   22.1024  -28.0432 H   0  0  0  0  0  0  0  0  0  0  0  0
    0.5222   24.4529  -28.8258 H   0  0  0  0  0  0  0  0  0  0  0  0
   -4.8840   23.2355  -28.9164 H   0  0  0  0  0  0  0  0  0  0  0  0
   -4.4015   24.7631  -28.0770 H   0  0  0  0  0  0  0  0  0  0  0  0
   -8.2181   21.2600  -30.8224 H   0  0  0  0  0  0  0  0  0  0  0  0
   -8.5936   21.6868  -32.5329 H   0  0  0  0  0  0  0  0  0  0  0  0
   -6.3840   20.5840  -34.0630 H   0  0  0  0  0  0  0  0  0  0  0  0
   -3.8857   19.5608  -33.9904 H   0  0  0  0  0  0  0  0  0  0  0  0
   -2.6583   17.4500  -34.4867 H   0  0  0  0  0  0  0  0  0  0  0  0
   -4.2632   12.2185  -34.5670 H   0  0  0  0  0  0  0  0  0  0  0  0
   -3.4984   11.5183  -33.0770 H   0  0  0  0  0  0  0  0  0  0  0  0
   -6.1542   13.0232  -33.2073 H   0  0  0  0  0  0  0  0  0  0  0  0
   -5.9078   11.2255  -33.0067 H   0  0  0  0  0  0  0  0  0  0  0  0
   -4.7849   13.7934  -30.0573 H   0  0  0  0  0  0  0  0  0  0  0  0
   -3.5437   12.6247  -30.7264 H   0  0  0  0  0  0  0  0  0  0  0  0
   -4.8407   14.9116  -32.2699 H   0  0  0  0  0  0  0  0  0  0  0  0
   -3.1788   14.9069  -31.5649 H   0  0  0  0  0  0  0  0  0  0  0  0
   -6.2781   15.1784  -33.7852 H   0  0  0  0  0  0  0  0  0  0  0  0
   -7.5138   17.2922  -33.3223 H   0  0  0  0  0  0  0  0  0  0  0  0
   -6.6994   23.3889  -28.9134 H   0  0  0  0  0  0  0  0  0  0  0  0
   -7.4117   24.7354  -29.8653 H   0  0  0  0  0  0  0  0  0  0  0  0
   -8.1989   23.1208  -29.8653 H   0  0  0  0  0  0  0  0  0  0  0  0
   -3.4956   21.5749  -28.0832 H   0  0  0  0  0  0  0  0  0  0  0  0
  1  2  1  0
  2  3  2  0
  3  4  1  0
  4  5  2  0
  5  6  1  0
  5  7  1  0
  7  8  1  0
  8  9  1  0
  9 10  1  0
 10 11  2  0
 11 12  1  0
 12 13  2  0
 13 14  1  0
 14 15  1  0
 15 16  2  0
 15 17  1  0
 17 18  1  0
 18 19  2  0
 19 20  1  0
 20 21  2  0
 21 22  1  0
 22 23  2  0
 22 24  2  0
 22 25  1  0
 25 26  1  0
 26 27  1  0
 27 28  1  0
 28 29  1  0
 29 30  1  0
 21 31  1  0
 31 32  2  0
 13 33  1  0
 33 34  1  0
  7 35  2  0
 35  2  1  0
 33 10  1  0
 32 18  1  0
 30 25  1  0
  1 36  1  0
  1 37  1  0
  1 38  1  0
  3 39  1  0
  4 40  1  0
  8 41  1  0
  8 42  1  0
 14 43  1  0
 14 44  1  0
 17 45  1  0
 19 46  1  0
 20 47  1  0
 26 48  1  0
 26 49  1  0
 27 50  1  0
 27 51  1  0
 29 52  1  0
 29 53  1  0
 30 54  1  0
 30 55  1  0
 31 56  1  0
 32 57  1  0
 34 58  1  0
 34 59  1  0
 34 60  1  0
 35 61  1  0
M  CHG  1   6  -1
M  END
>  <UniqueID>  (24) 
24

>  <SMILES>  (24) 
Cc1ccc([O-])c(CSc2nnc(CC(=O)Nc3ccc(S(=O)(=O)N4CCOCC4)cc3)n2C)c1

>  <Energy>  (24) 
105.95035755738748

>  <Genealogy>  (24) 
Cc1ccc([O-])c(CSc2nnc(CC(=O)Nc3ccc(S(=O)(=O)N4CCOCC4)cc3)n2C)c1 (protonated)
Cc1ccc([O-])c(CSc2nnc(CC(=O)Nc3ccc(S(=O)(=O)N4CCOCC4)cc3)n2C)c1 (3D coordinates assigned)
Cc1ccc([O-])c(CSc2nnc(CC(=O)Nc3ccc(S(=O)(=O)N4CCOCC4)cc3)n2C)c1 (nonaromatic ring conformer: 105.95035755738748 kcal/mol)

>  <smiles>  (24) 
Cc1ccc(O)c(CSc2nnc(CC(=O)Nc3ccc(S(=O)(=O)N4CCOCC4)cc3)n2C)c1

>  <score_type>  (24) 
oracle

>  <origin>  (24) 
adgpu

>  <m_score__min__energy>  (24) 
-12.6

>  <m_primary>  (24) 
energy

$$$$
24:0
     RDKit          3D

 42 44  0  0  0  0  0  0  0  0999 V2000
   -8.2300   20.1060  -32.5560 C   0  0  0  0  0  0  0  0  0  0  0  0
   -7.4880   21.3220  -32.0710 C   0  0  0  0  0  0  0  0  0  0  0  0
   -8.2260   22.4320  -31.6210 C   0  0  0  0  0  0  0  0  0  0  0  0
   -7.5780   23.5670  -31.1350 C   0  0  0  0  0  0  0  0  0  0  0  0
   -6.1830   23.6190  -31.0980 C   0  0  0  0  0  0  0  0  0  0  0  0
   -5.3610   25.0120  -30.4010 S   0  0  0  0  0  0  0  0  0  0  0  0
   -5.7210   26.2360  -31.1930 O   0  0  0  0  0  0  0  0  0  0  0  0
   -5.7770   25.2070  -28.9700 O   0  0  0  0  0  0  0  0  0  0  0  0
   -3.6430   24.7800  -30.4630 N   0  0  0  0  0  0  0  0  0  0  0  0
   -2.8870   23.9700  -29.5520 C   0  0  0  0  0  0  0  0  0  0  0  0
   -3.5460   22.9670  -28.8330 C   0  0  0  0  0  0  0  0  0  0  0  0
   -2.8410   22.1750  -27.9270 C   0  0  0  0  0  0  0  0  0  0  0  0
   -1.4730   22.3920  -27.7480 C   0  0  0  0  0  0  0  0  0  0  0  0
   -0.8260   21.6810  -26.9330 O   0  0  0  0  0  0  0  0  0  0  0  0
   -0.8390   23.3690  -28.4540 N   0  0  0  0  0  0  0  0  0  0  0  0
   -1.5080   24.1520  -29.3450 C   0  0  0  0  0  0  0  0  0  0  0  0
   -5.4370   22.5390  -31.5830 C   0  0  0  0  0  0  0  0  0  0  0  0
   -6.0720   21.3880  -32.0720 C   0  0  0  0  0  0  0  0  0  0  0  0
   -5.0590   20.0270  -32.5820 S   0  0  0  0  0  0  0  0  0  0  0  0
   -5.3240   19.6920  -34.0230 O   0  0  0  0  0  0  0  0  0  0  0  0
   -5.3760   18.8110  -31.7570 O   0  0  0  0  0  0  0  0  0  0  0  0
   -3.3690   20.4830  -32.4070 C   0  0  0  0  0  0  0  0  0  0  0  0
   -2.5890   20.8040  -33.5290 C   0  0  0  0  0  0  0  0  0  0  0  0
   -1.2440   21.1510  -33.3720 C   0  0  0  0  0  0  0  0  0  0  0  0
   -0.6720   21.1810  -32.0980 C   0  0  0  0  0  0  0  0  0  0  0  0
   -1.4440   20.8650  -30.9760 C   0  0  0  0  0  0  0  0  0  0  0  0
   -2.7900   20.5160  -31.1290 C   0  0  0  0  0  0  0  0  0  0  0  0
   -8.5849   19.5244  -31.6924 H   0  0  0  0  0  0  0  0  0  0  0  0
   -9.0904   20.4202  -33.1651 H   0  0  0  0  0  0  0  0  0  0  0  0
   -7.5571   19.4845  -33.1651 H   0  0  0  0  0  0  0  0  0  0  0  0
   -9.3252   22.4042  -31.6529 H   0  0  0  0  0  0  0  0  0  0  0  0
   -8.1679   24.4247  -30.7794 H   0  0  0  0  0  0  0  0  0  0  0  0
   -4.6233   22.8026  -28.9827 H   0  0  0  0  0  0  0  0  0  0  0  0
   -3.3574   21.3871  -27.3590 H   0  0  0  0  0  0  0  0  0  0  0  0
    0.1850   23.5240  -28.3150 H   0  0  0  0  0  0  0  0  0  0  0  0
   -0.9678   24.9297  -29.9048 H   0  0  0  0  0  0  0  0  0  0  0  0
   -4.3384   22.5934  -31.5807 H   0  0  0  0  0  0  0  0  0  0  0  0
   -3.0369   20.7825  -34.5335 H   0  0  0  0  0  0  0  0  0  0  0  0
   -0.6350   21.4009  -34.2533 H   0  0  0  0  0  0  0  0  0  0  0  0
    0.3869   21.4535  -31.9774 H   0  0  0  0  0  0  0  0  0  0  0  0
   -0.9930   20.8908  -29.9730 H   0  0  0  0  0  0  0  0  0  0  0  0
   -3.3961   20.2668  -30.2455 H   0  0  0  0  0  0  0  0  0  0  0  0
  1  2  1  0
  2  3  2  0
  3  4  1  0
  4  5  2  0
  5  6  1  0
  6  7  2  0
  6  8  2  0
  6  9  1  0
  9 10  1  0
 10 11  1  0
 11 12  2  0
 12 13  1  0
 13 14  2  0
 13 15  1  0
 15 16  1  0
  5 17  1  0
 17 18  2  0
 18 19  1  0
 19 20  2  0
 19 21  2  0
 19 22  1  0
 22 23  2  0
 23 24  1  0
 24 25  2  0
 25 26  1  0
 26 27  2  0
 18  2  1  0
 27 22  1  0
 16 10  2  0
  1 28  1  0
  1 29  1  0
  1 30  1  0
  3 31  1  0
  4 32  1  0
 11 33  1  0
 12 34  1  0
 15 35  1  0
 16 36  1  0
 17 37  1  0
 23 38  1  0
 24 39  1  0
 25 40  1  0
 26 41  1  0
 27 42  1  0
M  CHG  1   9  -1
M  END
>  <UniqueID>  (25) 
25

>  <SMILES>  (25) 
Cc1ccc(S(=O)(=O)[N-]c2ccc(=O)[nH]c2)cc1S(=O)(=O)c1ccccc1

>  <Energy>  (25) 
48.99330743771337

>  <Genealogy>  (25) 
Cc1ccc(S(=O)(=O)[N-]c2ccc(=O)[nH]c2)cc1S(=O)(=O)c1ccccc1 (protonated)
Cc1ccc(S(=O)(=O)[N-]c2ccc(=O)[nH]c2)cc1S(=O)(=O)c1ccccc1 (3D coordinates assigned)
Cc1ccc(S(=O)(=O)[N-]c2ccc(=O)[nH]c2)cc1S(=O)(=O)c1ccccc1 (optimized conformer: 48.99330743771337 kcal/mol)

>  <smiles>  (25) 
Cc1ccc(S(=O)(=O)Nc2ccc(=O)[nH]c2)cc1S(=O)(=O)c1ccccc1

>  <score_type>  (25) 
oracle

>  <origin>  (25) 
adgpu

>  <m_score__min__energy>  (25) 
-10.27

>  <m_primary>  (25) 
energy

$$$$
25:0
     RDKit          3D

 58 61  0  0  0  0  0  0  0  0999 V2000
   -3.9950   17.1670  -33.4470 C   0  0  0  0  0  0  0  0  0  0  0  0
   -5.6610   16.7620  -32.9550 S   0  0  0  0  0  0  0  0  0  0  0  0
   -5.6920   16.5620  -31.4660 O   0  0  0  0  0  0  0  0  0  0  0  0
   -6.0660   15.4760  -33.6220 O   0  0  0  0  0  0  0  0  0  0  0  0
   -6.7870   18.0260  -33.3900 N   0  0  0  0  0  0  0  0  0  0  0  0
   -7.9460   18.0760  -32.4670 C   0  0  0  0  0  0  0  0  0  0  0  0
   -7.8610   19.1980  -31.4210 C   0  0  0  0  0  0  0  0  0  0  0  0
   -7.5470   20.4840  -32.0520 N   0  0  0  0  0  0  0  0  0  0  0  0
   -7.8530   21.7070  -31.3680 C   0  0  0  0  0  0  0  0  0  0  0  0
   -9.0220   21.9010  -30.9380 O   0  0  0  0  0  0  0  0  0  0  0  0
   -6.8120   22.7370  -31.1520 C   0  0  0  0  0  0  0  0  0  0  0  0
   -7.1660   24.0360  -30.7500 C   0  0  0  0  0  0  0  0  0  0  0  0
   -6.1810   25.0050  -30.5480 C   0  0  0  0  0  0  0  0  0  0  0  0
   -4.8330   24.6890  -30.7340 C   0  0  0  0  0  0  0  0  0  0  0  0
   -3.8620   25.6620  -30.5260 O   0  0  0  0  0  0  0  0  0  0  0  0
   -4.4670   23.3920  -31.1230 C   0  0  0  0  0  0  0  0  0  0  0  0
   -3.0970   23.0540  -31.3320 N   0  0  0  0  0  0  0  0  0  0  0  0
   -2.1480   22.3980  -30.0440 S   0  0  0  0  0  0  0  0  0  0  0  0
   -2.7150   21.0740  -29.6110 O   0  0  0  0  0  0  0  0  0  0  0  0
   -0.7410   22.1840  -30.5290 O   0  0  0  0  0  0  0  0  0  0  0  0
   -2.1460   23.5260  -28.6920 C   0  0  0  0  0  0  0  0  0  0  0  0
   -3.2810   23.6690  -27.8830 C   0  0  0  0  0  0  0  0  0  0  0  0
   -3.2660   24.5510  -26.7980 C   0  0  0  0  0  0  0  0  0  0  0  0
   -2.1030   25.2740  -26.4970 C   0  0  0  0  0  0  0  0  0  0  0  0
   -0.9620   25.1260  -27.2990 C   0  0  0  0  0  0  0  0  0  0  0  0
   -0.9880   24.2580  -28.3990 C   0  0  0  0  0  0  0  0  0  0  0  0
    0.2590   25.9370  -26.9670 C   0  0  0  0  0  0  0  0  0  0  0  0
    0.5190   25.9110  -25.4520 C   0  0  0  0  0  0  0  0  0  0  0  0
   -0.7380   26.1810  -24.5820 C   0  0  0  0  0  0  0  0  0  0  0  0
   -2.0670   26.2610  -25.3620 C   0  0  0  0  0  0  0  0  0  0  0  0
   -5.4540   22.4200  -31.3240 C   0  0  0  0  0  0  0  0  0  0  0  0
   -6.9940   20.5130  -33.4080 C   0  0  0  0  0  0  0  0  0  0  0  0
   -6.0790   19.3060  -33.6040 C   0  0  0  0  0  0  0  0  0  0  0  0
   -3.3746   17.3178  -32.5513 H   0  0  0  0  0  0  0  0  0  0  0  0
   -3.5794   16.3437  -34.0466 H   0  0  0  0  0  0  0  0  0  0  0  0
   -4.0037   18.0892  -34.0466 H   0  0  0  0  0  0  0  0  0  0  0  0
   -8.8576   18.2272  -33.0637 H   0  0  0  0  0  0  0  0  0  0  0  0
   -7.9555   17.1247  -31.9147 H   0  0  0  0  0  0  0  0  0  0  0  0
   -8.8272   19.2790  -30.9014 H   0  0  0  0  0  0  0  0  0  0  0  0
   -7.0591   18.9526  -30.7091 H   0  0  0  0  0  0  0  0  0  0  0  0
   -8.2246   24.2910  -30.5936 H   0  0  0  0  0  0  0  0  0  0  0  0
   -6.4678   26.0216  -30.2411 H   0  0  0  0  0  0  0  0  0  0  0  0
   -4.1872   23.0853  -28.1022 H   0  0  0  0  0  0  0  0  0  0  0  0
   -4.1673   24.6777  -26.1802 H   0  0  0  0  0  0  0  0  0  0  0  0
   -0.0964   24.1511  -29.0343 H   0  0  0  0  0  0  0  0  0  0  0  0
    1.1288   25.5154  -27.4921 H   0  0  0  0  0  0  0  0  0  0  0  0
    0.0958   26.9773  -27.2850 H   0  0  0  0  0  0  0  0  0  0  0  0
    0.9141   24.9191  -25.1875 H   0  0  0  0  0  0  0  0  0  0  0  0
    1.2283   26.7248  -25.2407 H   0  0  0  0  0  0  0  0  0  0  0  0
   -0.8235   25.3690  -23.8449 H   0  0  0  0  0  0  0  0  0  0  0  0
   -0.5892   27.1711  -24.1264 H   0  0  0  0  0  0  0  0  0  0  0  0
   -2.8980   26.0449  -24.6745 H   0  0  0  0  0  0  0  0  0  0  0  0
   -2.1586   27.2731  -25.7830 H   0  0  0  0  0  0  0  0  0  0  0  0
   -5.1644   21.4006  -31.6188 H   0  0  0  0  0  0  0  0  0  0  0  0
   -7.8139   20.4757  -34.1404 H   0  0  0  0  0  0  0  0  0  0  0  0
   -6.4190   21.4395  -33.5525 H   0  0  0  0  0  0  0  0  0  0  0  0
   -5.6836   19.3245  -34.6303 H   0  0  0  0  0  0  0  0  0  0  0  0
   -5.2703   19.3721  -32.8613 H   0  0  0  0  0  0  0  0  0  0  0  0
  1  2  1  0
  2  3  2  0
  2  4  2  0
  2  5  1  0
  5  6  1  0
  6  7  1  0
  7  8  1  0
  8  9  1  0
  9 10  2  0
  9 11  1  0
 11 12  2  0
 12 13  1  0
 13 14  2  0
 14 15  1  0
 14 16  1  0
 16 17  1  0
 17 18  1  0
 18 19  2  0
 18 20  2  0
 18 21  1  0
 21 22  2  0
 22 23  1  0
 23 24  2  0
 24 25  1  0
 25 26  2  0
 25 27  1  0
 27 28  1  0
 28 29  1  0
 29 30  1  0
 16 31  2  0
  8 32  1  0
 32 33  1  0
 33  5  1  0
 31 11  1  0
 26 21  1  0
 30 24  1  0
  1 34  1  0
  1 35  1  0
  1 36  1  0
  6 37  1  0
  6 38  1  0
  7 39  1  0
  7 40  1  0
 12 41  1  0
 13 42  1  0
 22 43  1  0
 23 44  1  0
 26 45  1  0
 27 46  1  0
 27 47  1  0
 28 48  1  0
 28 49  1  0
 29 50  1  0
 29 51  1  0
 30 52  1  0
 30 53  1  0
 31 54  1  0
 32 55  1  0
 32 56  1  0
 33 57  1  0
 33 58  1  0
M  CHG  2  15  -1  17  -1
M  END
>  <UniqueID>  (26) 
26

>  <SMILES>  (26) 
CS(=O)(=O)N1CCN(C(=O)c2ccc([O-])c([N-]S(=O)(=O)c3ccc4c(c3)CCCC4)c2)CC1

>  <Energy>  (26) 
74.37167310194909

>  <Genealogy>  (26) 
CS(=O)(=O)N1CCN(C(=O)c2ccc([O-])c([N-]S(=O)(=O)c3ccc4c(c3)CCCC4)c2)CC1 (protonated)
CS(=O)(=O)N1CCN(C(=O)c2ccc([O-])c([N-]S(=O)(=O)c3ccc4c(c3)CCCC4)c2)CC1 (3D coordinates assigned)
CS(=O)(=O)N1CCN(C(=O)c2ccc([O-])c([N-]S(=O)(=O)c3ccc4c(c3)CCCC4)c2)CC1 (nonaromatic ring conformer: 74.37167310194909 kcal/mol)

>  <smiles>  (26) 
CS(=O)(=O)N1CCN(C(=O)c2ccc(O)c(NS(=O)(=O)c3ccc4c(c3)CCCC4)c2)CC1

>  <score_type>  (26) 
oracle

>  <origin>  (26) 
adgpu

>  <m_score__min__energy>  (26) 
-15.82

>  <m_primary>  (26) 
energy

$$$$
26:0
     RDKit          3D

 48 50  0  0  0  0  0  0  0  0999 V2000
   -4.4740   20.6390  -33.4830 N   0  0  0  0  0  0  0  0  0  0  0  0
   -5.5430   20.8150  -33.0800 C   0  0  0  0  0  0  0  0  0  0  0  0
   -6.8800   21.0300  -32.5840 C   0  0  0  0  0  0  0  0  0  0  0  0
   -7.8670   20.0690  -32.8380 C   0  0  0  0  0  0  0  0  0  0  0  0
   -9.1740   20.2680  -32.3900 C   0  0  0  0  0  0  0  0  0  0  0  0
   -9.5020   21.4290  -31.6880 C   0  0  0  0  0  0  0  0  0  0  0  0
   -8.5260   22.3940  -31.4300 C   0  0  0  0  0  0  0  0  0  0  0  0
   -7.2010   22.2040  -31.8760 C   0  0  0  0  0  0  0  0  0  0  0  0
   -6.1910   23.1510  -31.6360 O   0  0  0  0  0  0  0  0  0  0  0  0
   -5.5070   23.3330  -30.3950 C   0  0  0  0  0  0  0  0  0  0  0  0
   -4.9330   24.7210  -30.3080 C   0  0  0  0  0  0  0  0  0  0  0  0
   -5.7100   25.7020  -30.1710 O   0  0  0  0  0  0  0  0  0  0  0  0
   -3.5260   24.9580  -30.4350 N   0  0  0  0  0  0  0  0  0  0  0  0
   -2.5120   24.2680  -29.6930 C   0  0  0  0  0  0  0  0  0  0  0  0
   -2.4840   22.8650  -29.6560 C   0  0  0  0  0  0  0  0  0  0  0  0
   -1.5010   22.1930  -28.9160 C   0  0  0  0  0  0  0  0  0  0  0  0
   -1.5010   20.4290  -28.8330 S   0  0  0  0  0  0  0  0  0  0  0  0
   -0.2470   19.9680  -28.1430 O   0  0  0  0  0  0  0  0  0  0  0  0
   -2.6700   19.9880  -27.9990 O   0  0  0  0  0  0  0  0  0  0  0  0
   -1.6070   19.6660  -30.4060 N   0  0  0  0  0  0  0  0  0  0  0  0
   -2.3010   20.5010  -31.4170 C   0  0  0  0  0  0  0  0  0  0  0  0
   -1.4620   20.7860  -32.6700 C   0  0  0  0  0  0  0  0  0  0  0  0
   -0.0390   21.1620  -32.2760 C   0  0  0  0  0  0  0  0  0  0  0  0
    0.6470   20.0350  -31.4910 C   0  0  0  0  0  0  0  0  0  0  0  0
   -0.3400   19.0440  -30.8410 C   0  0  0  0  0  0  0  0  0  0  0  0
   -0.5620   22.9360  -28.1870 C   0  0  0  0  0  0  0  0  0  0  0  0
   -0.5970   24.3330  -28.2080 C   0  0  0  0  0  0  0  0  0  0  0  0
   -1.5760   25.0000  -28.9530 C   0  0  0  0  0  0  0  0  0  0  0  0
   -1.6040   26.3890  -28.9630 O   0  0  0  0  0  0  0  0  0  0  0  0
   -7.6112   19.1541  -33.3926 H   0  0  0  0  0  0  0  0  0  0  0  0
   -9.9455   19.5099  -32.5902 H   0  0  0  0  0  0  0  0  0  0  0  0
  -10.5328   21.5844  -31.3368 H   0  0  0  0  0  0  0  0  0  0  0  0
   -8.7916   23.3067  -30.8764 H   0  0  0  0  0  0  0  0  0  0  0  0
   -6.2142   23.1812  -29.5663 H   0  0  0  0  0  0  0  0  0  0  0  0
   -4.6858   22.6039  -30.3313 H   0  0  0  0  0  0  0  0  0  0  0  0
   -3.2386   22.2888  -30.2115 H   0  0  0  0  0  0  0  0  0  0  0  0
   -3.2188   19.9794  -31.7260 H   0  0  0  0  0  0  0  0  0  0  0  0
   -2.5064   21.4720  -30.9426 H   0  0  0  0  0  0  0  0  0  0  0  0
   -1.4381   19.8871  -33.3035 H   0  0  0  0  0  0  0  0  0  0  0  0
   -1.9145   21.6228  -33.2223 H   0  0  0  0  0  0  0  0  0  0  0  0
    0.5415   21.3665  -33.1877 H   0  0  0  0  0  0  0  0  0  0  0  0
   -0.0845   22.0520  -31.6311 H   0  0  0  0  0  0  0  0  0  0  0  0
    1.2965   19.4764  -32.1810 H   0  0  0  0  0  0  0  0  0  0  0  0
    1.2119   20.5088  -30.6747 H   0  0  0  0  0  0  0  0  0  0  0  0
   -0.5732   18.2563  -31.5725 H   0  0  0  0  0  0  0  0  0  0  0  0
    0.1497   18.6482  -29.9390 H   0  0  0  0  0  0  0  0  0  0  0  0
    0.2064   22.4168  -27.5954 H   0  0  0  0  0  0  0  0  0  0  0  0
    0.1464   24.9094  -27.6378 H   0  0  0  0  0  0  0  0  0  0  0  0
  1  2  3  0
  2  3  1  0
  3  4  2  0
  4  5  1  0
  5  6  2  0
  6  7  1  0
  7  8  2  0
  8  9  1  0
  9 10  1  0
 10 11  1  0
 11 12  2  0
 11 13  1  0
 13 14  1  0
 14 15  2  0
 15 16  1  0
 16 17  1  0
 17 18  2  0
 17 19  2  0
 17 20  1  0
 20 21  1  0
 21 22  1  0
 22 23  1  0
 23 24  1  0
 24 25  1  0
 16 26  2  0
 26 27  1  0
 27 28  2  0
 28 29  1  0
  8  3  1  0
 28 14  1  0
 25 20  1  0
  4 30  1  0
  5 31  1  0
  6 32  1  0
  7 33  1  0
 10 34  1  0
 10 35  1  0
 15 36  1  0
 21 37  1  0
 21 38  1  0
 22 39  1  0
 22 40  1  0
 23 41  1  0
 23 42  1  0
 24 43  1  0
 24 44  1  0
 25 45  1  0
 25 46  1  0
 26 47  1  0
 27 48  1  0
M  CHG  2  13  -1  29  -1
M  END
>  <UniqueID>  (27) 
27

>  <SMILES>  (27) 
N#Cc1ccccc1OCC(=O)[N-]c1cc(S(=O)(=O)N2CCCCC2)ccc1[O-]

>  <Energy>  (27) 
57.307260014175945

>  <Genealogy>  (27) 
N#Cc1ccccc1OCC(=O)[N-]c1cc(S(=O)(=O)N2CCCCC2)ccc1[O-] (protonated)
N#Cc1ccccc1OCC(=O)[N-]c1cc(S(=O)(=O)N2CCCCC2)ccc1[O-] (3D coordinates assigned)
N#Cc1ccccc1OCC(=O)[N-]c1cc(S(=O)(=O)N2CCCCC2)ccc1[O-] (nonaromatic ring conformer: 57.307260014175945 kcal/mol)

>  <smiles>  (27) 
N#Cc1ccccc1OCC(=O)Nc1cc(S(=O)(=O)N2CCCCC2)ccc1O

>  <score_type>  (27) 
oracle

>  <origin>  (27) 
adgpu

>  <m_score__min__energy>  (27) 
-13.710000000000001

>  <m_primary>  (27) 
energy

$$$$
27:0
     RDKit          3D

 47 49  0  0  0  0  0  0  0  0999 V2000
   -6.4980   17.3710  -33.5640 C   0  0  0  0  0  0  0  0  0  0  0  0
   -6.0020   18.6340  -34.2570 C   0  0  0  0  0  0  0  0  0  0  0  0
   -4.6040   18.5470  -34.5260 O   0  0  0  0  0  0  0  0  0  0  0  0
   -3.6240   19.1410  -33.7250 C   0  0  0  0  0  0  0  0  0  0  0  0
   -2.3150   19.3560  -34.1310 C   0  0  0  0  0  0  0  0  0  0  0  0
   -1.5360   19.9880  -33.1550 C   0  0  0  0  0  0  0  0  0  0  0  0
   -2.2380   20.2500  -31.9870 C   0  0  0  0  0  0  0  0  0  0  0  0
   -1.6070   21.1150  -30.5970 S   0  0  0  0  0  0  0  0  0  0  0  0
   -0.1160   20.9350  -30.5520 O   0  0  0  0  0  0  0  0  0  0  0  0
   -2.2020   20.5720  -29.3270 O   0  0  0  0  0  0  0  0  0  0  0  0
   -1.9810   22.8060  -30.7310 N   0  0  0  0  0  0  0  0  0  0  0  0
   -3.3200   23.3390  -30.6870 C   0  0  0  0  0  0  0  0  0  0  0  0
   -4.4050   22.6440  -31.2550 C   0  0  0  0  0  0  0  0  0  0  0  0
   -5.6950   23.1920  -31.2390 C   0  0  0  0  0  0  0  0  0  0  0  0
   -7.0150   22.3450  -32.0430 S   0  0  0  0  0  0  0  0  0  0  0  0
   -7.9700   23.3410  -32.6380 O   0  0  0  0  0  0  0  0  0  0  0  0
   -6.4250   21.5140  -33.1470 O   0  0  0  0  0  0  0  0  0  0  0  0
   -7.8550   21.3050  -30.9110 N   0  0  0  0  0  0  0  0  0  0  0  0
   -9.2760   21.6710  -30.7810 C   0  0  0  0  0  0  0  0  0  0  0  0
  -10.1210   21.2010  -31.9890 C   0  0  0  0  0  0  0  0  0  0  0  0
   -9.4790   20.2190  -32.7820 O   0  0  0  0  0  0  0  0  0  0  0  0
   -8.8680   19.2550  -31.9570 C   0  0  0  0  0  0  0  0  0  0  0  0
   -7.6660   19.8710  -31.2240 C   0  0  0  0  0  0  0  0  0  0  0  0
   -5.9140   24.4340  -30.6340 C   0  0  0  0  0  0  0  0  0  0  0  0
   -4.8510   25.1200  -30.0430 C   0  0  0  0  0  0  0  0  0  0  0  0
   -3.5600   24.5820  -30.0690 C   0  0  0  0  0  0  0  0  0  0  0  0
   -2.5190   25.2920  -29.4820 O   0  0  0  0  0  0  0  0  0  0  0  0
   -3.8250   19.7160  -32.1510 S   0  0  0  0  0  0  0  0  0  0  0  0
   -6.4449   17.5061  -32.4736 H   0  0  0  0  0  0  0  0  0  0  0  0
   -7.5396   17.1758  -33.8590 H   0  0  0  0  0  0  0  0  0  0  0  0
   -5.8676   16.5192  -33.8590 H   0  0  0  0  0  0  0  0  0  0  0  0
   -6.5446   18.7621  -35.2052 H   0  0  0  0  0  0  0  0  0  0  0  0
   -6.1813   19.4938  -33.5947 H   0  0  0  0  0  0  0  0  0  0  0  0
   -1.9293   19.0604  -35.1178 H   0  0  0  0  0  0  0  0  0  0  0  0
   -0.4773   20.2498  -33.2988 H   0  0  0  0  0  0  0  0  0  0  0  0
   -1.1780   23.4460  -30.9190 H   0  0  0  0  0  0  0  0  0  0  0  0
   -4.2383   21.6596  -31.7166 H   0  0  0  0  0  0  0  0  0  0  0  0
   -9.6776   21.2077  -29.8677 H   0  0  0  0  0  0  0  0  0  0  0  0
   -9.3362   22.7685  -30.7373 H   0  0  0  0  0  0  0  0  0  0  0  0
  -11.0644   20.7804  -31.6109 H   0  0  0  0  0  0  0  0  0  0  0  0
  -10.2823   22.0794  -32.6312 H   0  0  0  0  0  0  0  0  0  0  0  0
   -9.5982   18.8934  -31.2180 H   0  0  0  0  0  0  0  0  0  0  0  0
   -8.5190   18.4181  -32.5797 H   0  0  0  0  0  0  0  0  0  0  0  0
   -7.5111   19.3238  -30.2824 H   0  0  0  0  0  0  0  0  0  0  0  0
   -6.7958   19.7911  -31.8921 H   0  0  0  0  0  0  0  0  0  0  0  0
   -6.9237   24.8704  -30.6238 H   0  0  0  0  0  0  0  0  0  0  0  0
   -5.0298   26.0891  -29.5542 H   0  0  0  0  0  0  0  0  0  0  0  0
  1  2  1  0
  2  3  1  0
  3  4  1  0
  4  5  2  0
  5  6  1  0
  6  7  2  0
  7  8  1  0
  8  9  2  0
  8 10  2  0
  8 11  1  0
 11 12  1  0
 12 13  2  0
 13 14  1  0
 14 15  1  0
 15 16  2  0
 15 17  2  0
 15 18  1  0
 18 19  1  0
 19 20  1  0
 20 21  1  0
 21 22  1  0
 22 23  1  0
 14 24  2  0
 24 25  1  0
 25 26  2  0
 26 27  1  0
  7 28  1  0
 28  4  1  0
 26 12  1  0
 23 18  1  0
  1 29  1  0
  1 30  1  0
  1 31  1  0
  2 32  1  0
  2 33  1  0
  5 34  1  0
  6 35  1  0
 11 36  1  0
 13 37  1  0
 19 38  1  0
 19 39  1  0
 20 40  1  0
 20 41  1  0
 22 42  1  0
 22 43  1  0
 23 44  1  0
 23 45  1  0
 24 46  1  0
 25 47  1  0
M  CHG  1  27  -1
M  END
>  <UniqueID>  (28) 
28

>  <SMILES>  (28) 
CCOc1ccc(S(=O)(=O)Nc2cc(S(=O)(=O)N3CCOCC3)ccc2[O-])s1

>  <Energy>  (28) 
82.99449078468348

>  <Genealogy>  (28) 
CCOc1ccc(S(=O)(=O)Nc2cc(S(=O)(=O)N3CCOCC3)ccc2[O-])s1 (protonated)
CCOc1ccc(S(=O)(=O)Nc2cc(S(=O)(=O)N3CCOCC3)ccc2[O-])s1 (3D coordinates assigned)
CCOc1ccc(S(=O)(=O)Nc2cc(S(=O)(=O)N3CCOCC3)ccc2[O-])s1 (nonaromatic ring conformer: 82.99449078468348 kcal/mol)

>  <smiles>  (28) 
CCOc1ccc(S(=O)(=O)Nc2cc(S(=O)(=O)N3CCOCC3)ccc2O)s1

>  <score_type>  (28) 
oracle

>  <origin>  (28) 
adgpu

>  <m_score__min__energy>  (28) 
-12

>  <m_primary>  (28) 
energy

$$$$
28:0
     RDKit          3D

 54 57  0  0  0  0  0  0  0  0999 V2000
   -0.3770   24.9010  -28.9240 O   0  0  0  0  0  0  0  0  0  0  0  0
   -1.6440   24.1040  -28.7850 S   0  0  0  0  0  0  0  0  0  0  0  0
   -2.0180   24.0320  -27.3290 O   0  0  0  0  0  0  0  0  0  0  0  0
   -2.9160   24.9240  -29.6490 N   0  0  0  0  0  0  0  0  0  0  0  0
   -4.2360   24.5490  -29.1390 C   0  0  0  0  0  0  0  0  0  0  0  0
   -5.0960   23.9990  -30.2340 C   0  0  0  0  0  0  0  0  0  0  0  0
   -4.8160   22.8600  -30.9070 N   0  0  0  0  0  0  0  0  0  0  0  0
   -5.7580   22.5910  -31.8530 C   0  0  0  0  0  0  0  0  0  0  0  0
   -5.6870   21.3640  -32.7110 C   0  0  0  0  0  0  0  0  0  0  0  0
   -6.7630   20.3890  -32.3160 C   0  0  0  0  0  0  0  0  0  0  0  0
   -8.1160   20.7630  -32.3860 C   0  0  0  0  0  0  0  0  0  0  0  0
   -9.1180   19.8440  -32.0600 C   0  0  0  0  0  0  0  0  0  0  0  0
   -8.7770   18.5460  -31.6670 C   0  0  0  0  0  0  0  0  0  0  0  0
   -7.4350   18.1640  -31.6050 C   0  0  0  0  0  0  0  0  0  0  0  0
   -6.4300   19.0790  -31.9340 C   0  0  0  0  0  0  0  0  0  0  0  0
   -6.8060   23.5090  -31.9290 C   0  0  0  0  0  0  0  0  0  0  0  0
   -6.5290   24.7000  -30.7730 S   0  0  0  0  0  0  0  0  0  0  0  0
   -1.3660   22.4840  -29.4470 C   0  0  0  0  0  0  0  0  0  0  0  0
   -1.7360   22.2250  -30.7770 C   0  0  0  0  0  0  0  0  0  0  0  0
   -1.5490   20.9570  -31.3380 C   0  0  0  0  0  0  0  0  0  0  0  0
   -2.0130   20.6490  -33.0100 S   0  0  0  0  0  0  0  0  0  0  0  0
   -0.7940   20.7260  -33.8860 O   0  0  0  0  0  0  0  0  0  0  0  0
   -2.9920   21.7000  -33.4610 O   0  0  0  0  0  0  0  0  0  0  0  0
   -2.7210   19.0580  -33.1360 N   0  0  0  0  0  0  0  0  0  0  0  0
   -1.7890   18.0890  -33.7210 C   0  0  0  0  0  0  0  0  0  0  0  0
   -2.6340   17.0320  -34.4250 C   0  0  0  0  0  0  0  0  0  0  0  0
   -4.0250   17.6340  -34.5510 C   0  0  0  0  0  0  0  0  0  0  0  0
   -3.8980   19.0520  -34.0080 C   0  0  0  0  0  0  0  0  0  0  0  0
   -0.9630   19.9440  -30.5740 C   0  0  0  0  0  0  0  0  0  0  0  0
   -0.5610   20.1960  -29.2640 C   0  0  0  0  0  0  0  0  0  0  0  0
   -0.7510   21.4600  -28.6930 C   0  0  0  0  0  0  0  0  0  0  0  0
   -0.1630   21.7160  -27.0560 Cl  0  0  0  0  0  0  0  0  0  0  0  0
   -4.1160   23.7847  -28.3571 H   0  0  0  0  0  0  0  0  0  0  0  0
   -4.7217   25.4464  -28.7282 H   0  0  0  0  0  0  0  0  0  0  0  0
   -5.8243   21.6492  -33.7645 H   0  0  0  0  0  0  0  0  0  0  0  0
   -4.7047   20.8880  -32.5750 H   0  0  0  0  0  0  0  0  0  0  0  0
   -8.3875   21.7822  -32.6983 H   0  0  0  0  0  0  0  0  0  0  0  0
  -10.1755   20.1423  -32.1127 H   0  0  0  0  0  0  0  0  0  0  0  0
   -9.5662   17.8254  -31.4065 H   0  0  0  0  0  0  0  0  0  0  0  0
   -7.1683   17.1422  -31.2970 H   0  0  0  0  0  0  0  0  0  0  0  0
   -5.3746   18.7717  -31.8935 H   0  0  0  0  0  0  0  0  0  0  0  0
   -7.6601   23.4625  -32.6206 H   0  0  0  0  0  0  0  0  0  0  0  0
   -2.1779   23.0284  -31.3846 H   0  0  0  0  0  0  0  0  0  0  0  0
   -2.9980   18.7390  -32.1770 H   0  0  0  0  0  0  0  0  0  0  0  0
   -1.1282   18.5888  -34.4446 H   0  0  0  0  0  0  0  0  0  0  0  0
   -1.1550   17.6344  -32.9455 H   0  0  0  0  0  0  0  0  0  0  0  0
   -2.2204   16.8105  -35.4199 H   0  0  0  0  0  0  0  0  0  0  0  0
   -2.6504   16.0858  -33.8643 H   0  0  0  0  0  0  0  0  0  0  0  0
   -4.3438   17.6513  -35.6036 H   0  0  0  0  0  0  0  0  0  0  0  0
   -4.7771   17.0493  -34.0011 H   0  0  0  0  0  0  0  0  0  0  0  0
   -3.7625   19.7650  -34.8346 H   0  0  0  0  0  0  0  0  0  0  0  0
   -4.8027   19.3506  -33.4582 H   0  0  0  0  0  0  0  0  0  0  0  0
   -0.8186   18.9439  -31.0086 H   0  0  0  0  0  0  0  0  0  0  0  0
   -0.0907   19.3956  -28.6739 H   0  0  0  0  0  0  0  0  0  0  0  0
  1  2  2  0
  2  3  2  0
  2  4  1  0
  4  5  1  0
  5  6  1  0
  6  7  2  0
  7  8  1  0
  8  9  1  0
  9 10  1  0
 10 11  2  0
 11 12  1  0
 12 13  2  0
 13 14  1  0
 14 15  2  0
  8 16  2  0
 16 17  1  0
  2 18  1  0
 18 19  2  0
 19 20  1  0
 20 21  1  0
 21 22  2  0
 21 23  2  0
 21 24  1  0
 24 25  1  0
 25 26  1  0
 26 27  1  0
 27 28  1  0
 20 29  2  0
 29 30  1  0
 30 31  2  0
 31 32  1  0
 17  6  1  0
 31 18  1  0
 15 10  1  0
 28 24  1  0
  5 33  1  0
  5 34  1  0
  9 35  1  0
  9 36  1  0
 11 37  1  0
 12 38  1  0
 13 39  1  0
 14 40  1  0
 15 41  1  0
 16 42  1  0
 19 43  1  0
 24 44  1  0
 25 45  1  0
 25 46  1  0
 26 47  1  0
 26 48  1  0
 27 49  1  0
 27 50  1  0
 28 51  1  0
 28 52  1  0
 29 53  1  0
 30 54  1  0
M  CHG  2   4  -1  24   1
M  END
>  <UniqueID>  (29) 
29

>  <SMILES>  (29) 
O=S(=O)([N-]Cc1nc(Cc2ccccc2)cs1)c1cc(S(=O)(=O)[NH+]2CCCC2)ccc1Cl

>  <Energy>  (29) 
85.36493247302464

>  <Genealogy>  (29) 
O=S(=O)([N-]Cc1nc(Cc2ccccc2)cs1)c1cc(S(=O)(=O)[NH+]2CCCC2)ccc1Cl (protonated)
O=S(=O)([N-]Cc1nc(Cc2ccccc2)cs1)c1cc(S(=O)(=O)[NH+]2CCCC2)ccc1Cl (3D coordinates assigned)
O=S(=O)([N-]Cc1nc(Cc2ccccc2)cs1)c1cc(S(=O)(=O)[NH+]2CCCC2)ccc1Cl (nonaromatic ring conformer: 85.36493247302464 kcal/mol)

>  <smiles>  (29) 
O=S(=O)(NCc1nc(Cc2ccccc2)cs1)c1cc(S(=O)(=O)N2CCCC2)ccc1Cl

>  <score_type>  (29) 
oracle

>  <origin>  (29) 
adgpu

>  <m_score__min__energy>  (29) 
-11.66

>  <m_primary>  (29) 
energy

$$$$
29:0
     RDKit          3D

 38 40  0  0  0  0  0  0  0  0999 V2000
   -2.2080   23.3850  -29.4720 C   0  0  0  0  0  0  0  0  0  0  0  0
   -3.5140   23.6640  -30.1340 C   0  0  0  0  0  0  0  0  0  0  0  0
   -4.4990   22.7570  -30.2680 N   0  0  0  0  0  0  0  0  0  0  0  0
   -5.4290   23.4700  -30.9400 C   0  0  0  0  0  0  0  0  0  0  0  0
   -6.7440   22.9290  -31.3480 C   0  0  0  0  0  0  0  0  0  0  0  0
   -7.8270   23.7920  -31.5850 C   0  0  0  0  0  0  0  0  0  0  0  0
   -9.0670   23.2790  -31.9740 C   0  0  0  0  0  0  0  0  0  0  0  0
   -9.2390   21.9020  -32.1290 C   0  0  0  0  0  0  0  0  0  0  0  0
   -8.1700   21.0270  -31.8970 C   0  0  0  0  0  0  0  0  0  0  0  0
   -8.3880   19.2880  -32.1080 S   0  0  0  0  0  0  0  0  0  0  0  0
   -8.7600   18.6700  -30.7870 O   0  0  0  0  0  0  0  0  0  0  0  0
   -9.5190   19.0460  -33.0680 O   0  0  0  0  0  0  0  0  0  0  0  0
   -6.9390   18.5280  -32.7190 N   0  0  0  0  0  0  0  0  0  0  0  0
   -7.2150   17.1350  -33.1050 C   0  0  0  0  0  0  0  0  0  0  0  0
   -5.9000   16.3920  -33.4060 C   0  0  0  0  0  0  0  0  0  0  0  0
   -4.7630   17.3470  -33.8030 C   0  0  0  0  0  0  0  0  0  0  0  0
   -5.2960   18.5280  -34.6200 C   0  0  0  0  0  0  0  0  0  0  0  0
   -6.4020   19.2960  -33.8620 C   0  0  0  0  0  0  0  0  0  0  0  0
   -6.9260   21.5430  -31.5050 C   0  0  0  0  0  0  0  0  0  0  0  0
   -5.0200   24.7280  -31.1990 N   0  0  0  0  0  0  0  0  0  0  0  0
   -3.8300   24.8080  -30.6870 O   0  0  0  0  0  0  0  0  0  0  0  0
   -2.3372   23.4126  -28.3800 H   0  0  0  0  0  0  0  0  0  0  0  0
   -1.8491   22.3899  -29.7737 H   0  0  0  0  0  0  0  0  0  0  0  0
   -1.4739   24.1466  -29.7737 H   0  0  0  0  0  0  0  0  0  0  0  0
   -7.6980   24.8776  -31.4636 H   0  0  0  0  0  0  0  0  0  0  0  0
   -9.9097   23.9615  -32.1586 H   0  0  0  0  0  0  0  0  0  0  0  0
  -10.2175   21.5029  -32.4344 H   0  0  0  0  0  0  0  0  0  0  0  0
   -7.7381   16.6272  -32.2812 H   0  0  0  0  0  0  0  0  0  0  0  0
   -7.8420   17.1322  -34.0088 H   0  0  0  0  0  0  0  0  0  0  0  0
   -5.5956   15.8351  -32.5075 H   0  0  0  0  0  0  0  0  0  0  0  0
   -6.0833   15.7183  -34.2560 H   0  0  0  0  0  0  0  0  0  0  0  0
   -4.2800   17.7293  -32.8916 H   0  0  0  0  0  0  0  0  0  0  0  0
   -4.0401   16.7929  -34.4198 H   0  0  0  0  0  0  0  0  0  0  0  0
   -4.4657   19.2173  -34.8332 H   0  0  0  0  0  0  0  0  0  0  0  0
   -5.7298   18.1327  -35.5504 H   0  0  0  0  0  0  0  0  0  0  0  0
   -5.9822   20.2409  -33.4867 H   0  0  0  0  0  0  0  0  0  0  0  0
   -7.2292   19.4736  -34.5650 H   0  0  0  0  0  0  0  0  0  0  0  0
   -6.0857   20.8581  -31.3188 H   0  0  0  0  0  0  0  0  0  0  0  0
  1  2  1  0
  2  3  2  0
  3  4  1  0
  4  5  1  0
  5  6  2  0
  6  7  1  0
  7  8  2  0
  8  9  1  0
  9 10  1  0
 10 11  2  0
 10 12  2  0
 10 13  1  0
 13 14  1  0
 14 15  1  0
 15 16  1  0
 16 17  1  0
 17 18  1  0
  9 19  2  0
  4 20  2  0
 20 21  1  0
 21  2  1  0
 19  5  1  0
 18 13  1  0
  1 22  1  0
  1 23  1  0
  1 24  1  0
  6 25  1  0
  7 26  1  0
  8 27  1  0
 14 28  1  0
 14 29  1  0
 15 30  1  0
 15 31  1  0
 16 32  1  0
 16 33  1  0
 17 34  1  0
 17 35  1  0
 18 36  1  0
 18 37  1  0
 19 38  1  0
M  END
>  <UniqueID>  (30) 
30

>  <SMILES>  (30) 
Cc1nc(-c2cccc(S(=O)(=O)N3CCCCC3)c2)no1

>  <Energy>  (30) 
73.22021386211077

>  <Genealogy>  (30) 
Cc1nc(-c2cccc(S(=O)(=O)N3CCCCC3)c2)no1 (3D coordinates assigned)
Cc1nc(-c2cccc(S(=O)(=O)N3CCCCC3)c2)no1 (nonaromatic ring conformer: 73.22021386211077 kcal/mol)

>  <smiles>  (30) 
Cc1nc(-c2cccc(S(=O)(=O)N3CCCCC3)c2)no1

>  <score_type>  (30) 
oracle

>  <origin>  (30) 
adgpu

>  <m_score__min__energy>  (30) 
-9.5199999999999996

>  <m_primary>  (30) 
energy

$$$$
30:0
     RDKit          3D

 44 46  0  0  0  0  0  0  0  0999 V2000
   -2.3340   20.8880  -27.0890 C   0  0  0  0  0  0  0  0  0  0  0  0
   -2.6040   22.0490  -28.0020 C   0  0  0  0  0  0  0  0  0  0  0  0
   -2.7870   23.3300  -27.4670 C   0  0  0  0  0  0  0  0  0  0  0  0
   -3.0810   24.4070  -28.3080 C   0  0  0  0  0  0  0  0  0  0  0  0
   -3.2020   24.2120  -29.6860 C   0  0  0  0  0  0  0  0  0  0  0  0
   -3.4930   25.2950  -30.5090 O   0  0  0  0  0  0  0  0  0  0  0  0
   -3.0300   22.9330  -30.2380 C   0  0  0  0  0  0  0  0  0  0  0  0
   -3.1560   22.7680  -31.6570 N   0  0  0  0  0  0  0  0  0  0  0  0
   -2.9730   21.2690  -32.5090 S   0  0  0  0  0  0  0  0  0  0  0  0
   -2.2920   21.5230  -33.8260 O   0  0  0  0  0  0  0  0  0  0  0  0
   -2.1180   20.3380  -31.6970 O   0  0  0  0  0  0  0  0  0  0  0  0
   -4.5520   20.5260  -32.7440 C   0  0  0  0  0  0  0  0  0  0  0  0
   -4.6560   19.3460  -33.4900 C   0  0  0  0  0  0  0  0  0  0  0  0
   -5.9020   18.7380  -33.6730 C   0  0  0  0  0  0  0  0  0  0  0  0
   -7.0470   19.3030  -33.1050 C   0  0  0  0  0  0  0  0  0  0  0  0
   -6.9510   20.4780  -32.3480 C   0  0  0  0  0  0  0  0  0  0  0  0
   -8.3960   21.1940  -31.6400 S   0  0  0  0  0  0  0  0  0  0  0  0
   -8.8990   20.3160  -30.5260 O   0  0  0  0  0  0  0  0  0  0  0  0
   -9.4670   21.2920  -32.6900 O   0  0  0  0  0  0  0  0  0  0  0  0
   -8.0190   22.7910  -31.0440 N   0  0  0  0  0  0  0  0  0  0  0  0
   -7.2670   23.5670  -32.0310 C   0  0  0  0  0  0  0  0  0  0  0  0
   -6.4200   24.5610  -31.2510 C   0  0  0  0  0  0  0  0  0  0  0  0
   -6.3800   24.0290  -29.8260 C   0  0  0  0  0  0  0  0  0  0  0  0
   -7.1600   22.7250  -29.8630 C   0  0  0  0  0  0  0  0  0  0  0  0
   -5.7030   21.0940  -32.1770 C   0  0  0  0  0  0  0  0  0  0  0  0
   -2.7390   21.8510  -29.3860 C   0  0  0  0  0  0  0  0  0  0  0  0
   -2.4109   21.2187  -26.0427 H   0  0  0  0  0  0  0  0  0  0  0  0
   -3.0714   20.0939  -27.2777 H   0  0  0  0  0  0  0  0  0  0  0  0
   -1.3218   20.5008  -27.2777 H   0  0  0  0  0  0  0  0  0  0  0  0
   -2.6992   23.4891  -26.3821 H   0  0  0  0  0  0  0  0  0  0  0  0
   -3.2177   25.4123  -27.8830 H   0  0  0  0  0  0  0  0  0  0  0  0
   -3.7555   18.8960  -33.9333 H   0  0  0  0  0  0  0  0  0  0  0  0
   -5.9809   17.8140  -34.2647 H   0  0  0  0  0  0  0  0  0  0  0  0
   -8.0262   18.8240  -33.2526 H   0  0  0  0  0  0  0  0  0  0  0  0
   -6.6218   22.9024  -32.6243 H   0  0  0  0  0  0  0  0  0  0  0  0
   -7.9437   24.0840  -32.7273 H   0  0  0  0  0  0  0  0  0  0  0  0
   -5.4045   24.6136  -31.6706 H   0  0  0  0  0  0  0  0  0  0  0  0
   -6.8378   25.5776  -31.2960 H   0  0  0  0  0  0  0  0  0  0  0  0
   -5.3416   23.8481  -29.5112 H   0  0  0  0  0  0  0  0  0  0  0  0
   -6.8099   24.7439  -29.1090 H   0  0  0  0  0  0  0  0  0  0  0  0
   -6.4706   21.8714  -29.9413 H   0  0  0  0  0  0  0  0  0  0  0  0
   -7.7524   22.5886  -28.9462 H   0  0  0  0  0  0  0  0  0  0  0  0
   -5.6261   22.0253  -31.5966 H   0  0  0  0  0  0  0  0  0  0  0  0
   -2.6163   20.8424  -29.8074 H   0  0  0  0  0  0  0  0  0  0  0  0
  1  2  1  0
  2  3  2  0
  3  4  1  0
  4  5  2  0
  5  6  1  0
  5  7  1  0
  7  8  1  0
  8  9  1  0
  9 10  2  0
  9 11  2  0
  9 12  1  0
 12 13  2  0
 13 14  1  0
 14 15  2  0
 15 16  1  0
 16 17  1  0
 17 18  2  0
 17 19  2  0
 17 20  1  0
 20 21  1  0
 21 22  1  0
 22 23  1  0
 23 24  1  0
 16 25  2  0
  7 26  2  0
 26  2  1  0
 25 12  1  0
 24 20  1  0
  1 27  1  0
  1 28  1  0
  1 29  1  0
  3 30  1  0
  4 31  1  0
 13 32  1  0
 14 33  1  0
 15 34  1  0
 21 35  1  0
 21 36  1  0
 22 37  1  0
 22 38  1  0
 23 39  1  0
 23 40  1  0
 24 41  1  0
 24 42  1  0
 25 43  1  0
 26 44  1  0
M  CHG  2   6  -1   8  -1
M  END
>  <UniqueID>  (31) 
31

>  <SMILES>  (31) 
Cc1ccc([O-])c([N-]S(=O)(=O)c2cccc(S(=O)(=O)N3CCCC3)c2)c1

>  <Energy>  (31) 
47.83623943972146

>  <Genealogy>  (31) 
Cc1ccc([O-])c([N-]S(=O)(=O)c2cccc(S(=O)(=O)N3CCCC3)c2)c1 (protonated)
Cc1ccc([O-])c([N-]S(=O)(=O)c2cccc(S(=O)(=O)N3CCCC3)c2)c1 (3D coordinates assigned)
Cc1ccc([O-])c([N-]S(=O)(=O)c2cccc(S(=O)(=O)N3CCCC3)c2)c1 (nonaromatic ring conformer: 47.83623943972146 kcal/mol)

>  <smiles>  (31) 
Cc1ccc(O)c(NS(=O)(=O)c2cccc(S(=O)(=O)N3CCCC3)c2)c1

>  <score_type>  (31) 
oracle

>  <origin>  (31) 
adgpu

>  <m_score__min__energy>  (31) 
-14.289999999999999

>  <m_primary>  (31) 
energy

$$$$
31:0
     RDKit          3D

 57 60  0  0  0  0  0  0  0  0999 V2000
   -0.3920   19.3420  -29.3990 C   0  0  0  0  0  0  0  0  0  0  0  0
   -0.1140   19.9020  -28.0640 N   0  0  0  0  0  0  0  0  0  0  0  0
   -1.1780   19.5980  -27.0850 C   0  0  0  0  0  0  0  0  0  0  0  0
   -2.5160   20.2680  -27.4440 C   0  0  0  0  0  0  0  0  0  0  0  0
   -2.3460   21.6840  -27.9360 C   0  0  0  0  0  0  0  0  0  0  0  0
   -3.4850   22.4990  -28.0740 C   0  0  0  0  0  0  0  0  0  0  0  0
   -3.3690   23.8330  -28.5080 C   0  0  0  0  0  0  0  0  0  0  0  0
   -4.5130   24.7090  -28.5490 N   0  0  0  0  0  0  0  0  0  0  0  0
   -5.3390   25.1400  -30.0160 S   0  0  0  0  0  0  0  0  0  0  0  0
   -4.3370   25.6780  -31.0000 O   0  0  0  0  0  0  0  0  0  0  0  0
   -6.3600   26.2030  -29.7210 O   0  0  0  0  0  0  0  0  0  0  0  0
   -6.1670   23.7330  -30.6800 C   0  0  0  0  0  0  0  0  0  0  0  0
   -7.1910   23.1200  -29.9440 C   0  0  0  0  0  0  0  0  0  0  0  0
   -7.7700   21.9330  -30.4020 C   0  0  0  0  0  0  0  0  0  0  0  0
   -7.3320   21.3500  -31.5990 C   0  0  0  0  0  0  0  0  0  0  0  0
   -8.0450   19.8380  -32.1470 S   0  0  0  0  0  0  0  0  0  0  0  0
   -9.0270   19.3650  -31.1100 O   0  0  0  0  0  0  0  0  0  0  0  0
   -8.7630   20.0530  -33.4510 O   0  0  0  0  0  0  0  0  0  0  0  0
   -6.7780   18.6510  -32.3690 N   0  0  0  0  0  0  0  0  0  0  0  0
   -5.7030   19.1680  -33.2610 C   0  0  0  0  0  0  0  0  0  0  0  0
   -5.7520   18.5710  -34.6770 C   0  0  0  0  0  0  0  0  0  0  0  0
   -5.6510   17.0350  -34.6340 C   0  0  0  0  0  0  0  0  0  0  0  0
   -6.3100   16.4260  -33.3780 C   0  0  0  0  0  0  0  0  0  0  0  0
   -7.3730   17.3640  -32.7970 C   0  0  0  0  0  0  0  0  0  0  0  0
   -6.3430   21.9870  -32.3560 C   0  0  0  0  0  0  0  0  0  0  0  0
   -5.7570   23.1710  -31.8960 C   0  0  0  0  0  0  0  0  0  0  0  0
   -2.1010   24.3150  -28.8850 C   0  0  0  0  0  0  0  0  0  0  0  0
   -1.9520   25.6210  -29.3430 O   0  0  0  0  0  0  0  0  0  0  0  0
   -0.9700   23.4930  -28.7900 C   0  0  0  0  0  0  0  0  0  0  0  0
   -1.0820   22.1780  -28.3170 C   0  0  0  0  0  0  0  0  0  0  0  0
    0.1670   21.3500  -28.1180 C   0  0  0  0  0  0  0  0  0  0  0  0
   -0.8788   18.3615  -29.2912 H   0  0  0  0  0  0  0  0  0  0  0  0
   -1.0568   20.0227  -29.9510 H   0  0  0  0  0  0  0  0  0  0  0  0
    0.5521   19.2240  -29.9510 H   0  0  0  0  0  0  0  0  0  0  0  0
   -1.3264   18.5086  -27.0518 H   0  0  0  0  0  0  0  0  0  0  0  0
   -0.8576   19.9917  -26.1091 H   0  0  0  0  0  0  0  0  0  0  0  0
   -3.0043   19.6777  -28.2334 H   0  0  0  0  0  0  0  0  0  0  0  0
   -3.1242   20.3058  -26.5282 H   0  0  0  0  0  0  0  0  0  0  0  0
   -4.4783   22.0884  -27.8398 H   0  0  0  0  0  0  0  0  0  0  0  0
   -4.9710   24.9990  -27.6580 H   0  0  0  0  0  0  0  0  0  0  0  0
   -7.5393   23.5740  -29.0045 H   0  0  0  0  0  0  0  0  0  0  0  0
   -8.5723   21.4547  -29.8209 H   0  0  0  0  0  0  0  0  0  0  0  0
   -5.8079   20.2603  -33.3382 H   0  0  0  0  0  0  0  0  0  0  0  0
   -4.7403   18.8759  -32.8161 H   0  0  0  0  0  0  0  0  0  0  0  0
   -6.7013   18.8555  -35.1543 H   0  0  0  0  0  0  0  0  0  0  0  0
   -4.8988   18.9616  -35.2509 H   0  0  0  0  0  0  0  0  0  0  0  0
   -6.1485   16.6252  -35.5254 H   0  0  0  0  0  0  0  0  0  0  0  0
   -4.5827   16.7745  -34.6062 H   0  0  0  0  0  0  0  0  0  0  0  0
   -6.7842   15.4713  -33.6493 H   0  0  0  0  0  0  0  0  0  0  0  0
   -5.5306   16.2710  -32.6174 H   0  0  0  0  0  0  0  0  0  0  0  0
   -8.1364   17.5596  -33.5644 H   0  0  0  0  0  0  0  0  0  0  0  0
   -7.8213   16.8788  -31.9174 H   0  0  0  0  0  0  0  0  0  0  0  0
   -6.0250   21.5553  -33.3165 H   0  0  0  0  0  0  0  0  0  0  0  0
   -4.9724   23.6619  -32.4905 H   0  0  0  0  0  0  0  0  0  0  0  0
    0.0141   23.8829  -29.0891 H   0  0  0  0  0  0  0  0  0  0  0  0
    0.8553   21.5443  -28.9538 H   0  0  0  0  0  0  0  0  0  0  0  0
    0.6083   21.6397  -27.1530 H   0  0  0  0  0  0  0  0  0  0  0  0
  1  2  1  0
  2  3  1  0
  3  4  1  0
  4  5  1  0
  5  6  2  0
  6  7  1  0
  7  8  1  0
  8  9  1  0
  9 10  2  0
  9 11  2  0
  9 12  1  0
 12 13  2  0
 13 14  1  0
 14 15  2  0
 15 16  1  0
 16 17  2  0
 16 18  2  0
 16 19  1  0
 19 20  1  0
 20 21  1  0
 21 22  1  0
 22 23  1  0
 23 24  1  0
 15 25  1  0
 25 26  2  0
  7 27  2  0
 27 28  1  0
 27 29  1  0
 29 30  2  0
 30 31  1  0
 31  2  1  0
 30  5  1  0
 26 12  1  0
 24 19  1  0
  1 32  1  0
  1 33  1  0
  1 34  1  0
  3 35  1  0
  3 36  1  0
  4 37  1  0
  4 38  1  0
  6 39  1  0
  8 40  1  0
 13 41  1  0
 14 42  1  0
 20 43  1  0
 20 44  1  0
 21 45  1  0
 21 46  1  0
 22 47  1  0
 22 48  1  0
 23 49  1  0
 23 50  1  0
 24 51  1  0
 24 52  1  0
 25 53  1  0
 26 54  1  0
 29 55  1  0
 31 56  1  0
 31 57  1  0
M  CHG  1  28  -1
M  END
>  <UniqueID>  (32) 
32

>  <SMILES>  (32) 
CN1CCc2cc(NS(=O)(=O)c3ccc(S(=O)(=O)N4CCCCC4)cc3)c([O-])cc2C1

>  <Energy>  (32) 
71.35095576801903

>  <Genealogy>  (32) 
CN1CCc2cc(NS(=O)(=O)c3ccc(S(=O)(=O)N4CCCCC4)cc3)c([O-])cc2C1 (protonated)
CN1CCc2cc(NS(=O)(=O)c3ccc(S(=O)(=O)N4CCCCC4)cc3)c([O-])cc2C1 (3D coordinates assigned)
CN1CCc2cc(NS(=O)(=O)c3ccc(S(=O)(=O)N4CCCCC4)cc3)c([O-])cc2C1 (nonaromatic ring conformer: 71.35095576801903 kcal/mol)

>  <smiles>  (32) 
CN1CCc2cc(NS(=O)(=O)c3ccc(S(=O)(=O)N4CCCCC4)cc3)c(O)cc2C1

>  <score_type>  (32) 
oracle

>  <origin>  (32) 
adgpu

>  <m_score__min__energy>  (32) 
-15.289999999999999

>  <m_primary>  (32) 
energy

$$$$
32:0
     RDKit          3D

 52 54  0  0  0  0  0  0  0  0999 V2000
   -3.3900   19.8150  -27.1610 C   0  0  0  0  0  0  0  0  0  0  0  0
   -1.9650   20.3790  -27.3580 C   0  0  0  0  0  0  0  0  0  0  0  0
   -1.2840   20.5170  -25.9870 C   0  0  0  0  0  0  0  0  0  0  0  0
   -1.1700   19.3840  -28.2300 C   0  0  0  0  0  0  0  0  0  0  0  0
   -2.0170   21.7490  -28.0230 C   0  0  0  0  0  0  0  0  0  0  0  0
   -1.1360   22.8120  -27.8070 C   0  0  0  0  0  0  0  0  0  0  0  0
   -1.4700   23.9880  -28.5040 C   0  0  0  0  0  0  0  0  0  0  0  0
   -0.6600   25.2210  -28.4210 C   0  0  0  0  0  0  0  0  0  0  0  0
   -1.1380   26.4500  -28.9630 N   0  0  0  0  0  0  0  0  0  0  0  0
    0.4710   25.1940  -27.8620 O   0  0  0  0  0  0  0  0  0  0  0  0
   -2.6510   23.8590  -29.2380 C   0  0  0  0  0  0  0  0  0  0  0  0
   -3.2140   24.8740  -30.0780 N   0  0  0  0  0  0  0  0  0  0  0  0
   -4.5040   24.8220  -30.6980 C   0  0  0  0  0  0  0  0  0  0  0  0
   -5.3680   25.7080  -30.4600 O   0  0  0  0  0  0  0  0  0  0  0  0
   -4.8070   23.7240  -31.5650 N   0  0  0  0  0  0  0  0  0  0  0  0
   -6.0760   23.0630  -31.6830 C   0  0  0  0  0  0  0  0  0  0  0  0
   -7.2710   23.7900  -31.8320 C   0  0  0  0  0  0  0  0  0  0  0  0
   -8.4930   23.1210  -31.9590 C   0  0  0  0  0  0  0  0  0  0  0  0
   -8.5310   21.7250  -31.9560 C   0  0  0  0  0  0  0  0  0  0  0  0
   -7.3480   20.9940  -31.8310 C   0  0  0  0  0  0  0  0  0  0  0  0
   -6.1210   21.6560  -31.6920 C   0  0  0  0  0  0  0  0  0  0  0  0
   -4.6130   20.6880  -31.5160 S   0  0  0  0  0  0  0  0  0  0  0  0
   -3.8100   21.3340  -33.0270 C   0  0  0  0  0  0  0  0  0  0  0  0
   -2.3180   21.1430  -32.9910 C   0  0  0  0  0  0  0  0  0  0  0  0
   -1.6030   21.3470  -31.7980 C   0  0  0  0  0  0  0  0  0  0  0  0
   -0.2130   21.1860  -31.7720 C   0  0  0  0  0  0  0  0  0  0  0  0
    0.4720   20.8270  -32.9370 C   0  0  0  0  0  0  0  0  0  0  0  0
   -0.2330   20.6130  -34.1260 C   0  0  0  0  0  0  0  0  0  0  0  0
   -1.6230   20.7690  -34.1550 C   0  0  0  0  0  0  0  0  0  0  0  0
   -3.2530   22.3020  -29.0350 S   0  0  0  0  0  0  0  0  0  0  0  0
   -3.6052   19.7298  -26.0856 H   0  0  0  0  0  0  0  0  0  0  0  0
   -4.1202   20.4919  -27.6286 H   0  0  0  0  0  0  0  0  0  0  0  0
   -3.4591   18.8217  -27.6286 H   0  0  0  0  0  0  0  0  0  0  0  0
   -2.0282   20.3662  -25.1911 H   0  0  0  0  0  0  0  0  0  0  0  0
   -0.4898   19.7615  -25.8944 H   0  0  0  0  0  0  0  0  0  0  0  0
   -0.8466   21.5220  -25.8944 H   0  0  0  0  0  0  0  0  0  0  0  0
   -0.6154   18.6899  -27.5814 H   0  0  0  0  0  0  0  0  0  0  0  0
   -1.8657   18.8159  -28.8650 H   0  0  0  0  0  0  0  0  0  0  0  0
   -0.4623   19.9371  -28.8650 H   0  0  0  0  0  0  0  0  0  0  0  0
   -0.2576   22.7361  -27.1492 H   0  0  0  0  0  0  0  0  0  0  0  0
   -0.8570   26.7570  -29.9210 H   0  0  0  0  0  0  0  0  0  0  0  0
   -7.2445   24.8896  -31.8487 H   0  0  0  0  0  0  0  0  0  0  0  0
   -9.4255   23.6955  -32.0614 H   0  0  0  0  0  0  0  0  0  0  0  0
   -9.4934   21.2011  -32.0522 H   0  0  0  0  0  0  0  0  0  0  0  0
   -7.3794   19.8945  -31.8417 H   0  0  0  0  0  0  0  0  0  0  0  0
   -4.2161   20.8034  -33.9008 H   0  0  0  0  0  0  0  0  0  0  0  0
   -4.0156   22.4128  -33.0894 H   0  0  0  0  0  0  0  0  0  0  0  0
   -2.1383   21.6344  -30.8810 H   0  0  0  0  0  0  0  0  0  0  0  0
    0.3410   21.3420  -30.8346 H   0  0  0  0  0  0  0  0  0  0  0  0
    1.5659   20.7128  -32.9184 H   0  0  0  0  0  0  0  0  0  0  0  0
    0.3062   20.3217  -35.0394 H   0  0  0  0  0  0  0  0  0  0  0  0
   -2.1742   20.5985  -35.0915 H   0  0  0  0  0  0  0  0  0  0  0  0
  1  2  1  0
  2  3  1  0
  2  4  1  0
  2  5  1  0
  5  6  2  0
  6  7  1  0
  7  8  1  0
  8  9  1  0
  8 10  2  0
  7 11  2  0
 11 12  1  0
 12 13  1  0
 13 14  2  0
 13 15  1  0
 15 16  1  0
 16 17  2  0
 17 18  1  0
 18 19  2  0
 19 20  1  0
 20 21  2  0
 21 22  1  0
 22 23  1  0
 23 24  1  0
 24 25  2  0
 25 26  1  0
 26 27  2  0
 27 28  1  0
 28 29  2  0
 11 30  1  0
 30  5  1  0
 21 16  1  0
 29 24  1  0
  1 31  1  0
  1 32  1  0
  1 33  1  0
  3 34  1  0
  3 35  1  0
  3 36  1  0
  4 37  1  0
  4 38  1  0
  4 39  1  0
  6 40  1  0
  9 41  1  0
 17 42  1  0
 18 43  1  0
 19 44  1  0
 20 45  1  0
 23 46  1  0
 23 47  1  0
 25 48  1  0
 26 49  1  0
 27 50  1  0
 28 51  1  0
 29 52  1  0
M  CHG  3   9  -1  12  -1  15  -1
M  END
>  <UniqueID>  (33) 
33

>  <SMILES>  (33) 
CC(C)(C)c1cc(C([NH-])=O)c([N-]C(=O)[N-]c2ccccc2SCc2ccccc2)s1

>  <Energy>  (33) 
74.31686829153902

>  <Genealogy>  (33) 
CC(C)(C)c1cc(C([NH-])=O)c([N-]C(=O)[N-]c2ccccc2SCc2ccccc2)s1 (protonated)
CC(C)(C)c1cc(C([NH-])=O)c([N-]C(=O)[N-]c2ccccc2SCc2ccccc2)s1 (3D coordinates assigned)
CC(C)(C)c1cc(C([NH-])=O)c([N-]C(=O)[N-]c2ccccc2SCc2ccccc2)s1 (optimized conformer: 74.31686829153902 kcal/mol)

>  <smiles>  (33) 
CC(C)(C)c1cc(C(N)=O)c(NC(=O)Nc2ccccc2SCc2ccccc2)s1

>  <score_type>  (33) 
oracle

>  <origin>  (33) 
adgpu

>  <m_score__min__energy>  (33) 
-14.470000000000001

>  <m_primary>  (33) 
energy

$$$$
33:0
     RDKit          3D

 48 51  0  0  0  0  0  0  0  0999 V2000
   -6.7890   24.5690  -30.0060 O   0  0  0  0  0  0  0  0  0  0  0  0
   -5.3330   24.4930  -30.3690 S   0  0  0  0  0  0  0  0  0  0  0  0
   -4.9860   25.6750  -31.2300 O   0  0  0  0  0  0  0  0  0  0  0  0
   -4.3800   24.5250  -28.9190 N   0  0  0  0  0  0  0  0  0  0  0  0
   -3.1930   23.7470  -28.7130 C   0  0  0  0  0  0  0  0  0  0  0  0
   -3.2530   22.4050  -28.3000 C   0  0  0  0  0  0  0  0  0  0  0  0
   -2.0800   21.6840  -28.0410 C   0  0  0  0  0  0  0  0  0  0  0  0
   -0.8260   22.2900  -28.2530 C   0  0  0  0  0  0  0  0  0  0  0  0
   -0.7670   23.6230  -28.6820 C   0  0  0  0  0  0  0  0  0  0  0  0
   -1.9420   24.3440  -28.9140 C   0  0  0  0  0  0  0  0  0  0  0  0
   -1.8600   25.6680  -29.3300 O   0  0  0  0  0  0  0  0  0  0  0  0
    0.4510   21.5590  -27.9160 C   0  0  0  0  0  0  0  0  0  0  0  0
    0.2570   20.1020  -27.8800 N   0  0  0  0  0  0  0  0  0  0  0  0
   -0.8640   19.7580  -26.9990 C   0  0  0  0  0  0  0  0  0  0  0  0
   -2.1770   20.2420  -27.6170 C   0  0  0  0  0  0  0  0  0  0  0  0
   -5.0370   22.9810  -31.2200 C   0  0  0  0  0  0  0  0  0  0  0  0
   -3.7920   22.7600  -31.8190 C   0  0  0  0  0  0  0  0  0  0  0  0
   -3.5660   21.6020  -32.5670 C   0  0  0  0  0  0  0  0  0  0  0  0
   -4.5860   20.6610  -32.7340 C   0  0  0  0  0  0  0  0  0  0  0  0
   -4.3450   19.5290  -33.5060 O   0  0  0  0  0  0  0  0  0  0  0  0
   -5.8400   20.8710  -32.1330 C   0  0  0  0  0  0  0  0  0  0  0  0
   -7.1490   19.7110  -32.3660 S   0  0  0  0  0  0  0  0  0  0  0  0
   -7.9900   20.1570  -33.5300 O   0  0  0  0  0  0  0  0  0  0  0  0
   -8.0210   19.6470  -31.1410 O   0  0  0  0  0  0  0  0  0  0  0  0
   -6.4830   18.1090  -32.6610 C   0  0  0  0  0  0  0  0  0  0  0  0
   -6.5100   17.5460  -33.9450 C   0  0  0  0  0  0  0  0  0  0  0  0
   -5.9610   16.2800  -34.1690 C   0  0  0  0  0  0  0  0  0  0  0  0
   -5.3820   15.5710  -33.1120 C   0  0  0  0  0  0  0  0  0  0  0  0
   -5.3520   16.1270  -31.8290 C   0  0  0  0  0  0  0  0  0  0  0  0
   -5.9000   17.3940  -31.6040 C   0  0  0  0  0  0  0  0  0  0  0  0
   -6.0550   22.0280  -31.3700 C   0  0  0  0  0  0  0  0  0  0  0  0
   -4.2308   21.9158  -28.1789 H   0  0  0  0  0  0  0  0  0  0  0  0
    0.2097   24.1047  -28.8371 H   0  0  0  0  0  0  0  0  0  0  0  0
    1.2087   21.7979  -28.6768 H   0  0  0  0  0  0  0  0  0  0  0  0
    0.7756   21.8839  -26.9165 H   0  0  0  0  0  0  0  0  0  0  0  0
    1.1250   19.6800  -27.4740 H   0  0  0  0  0  0  0  0  0  0  0  0
   -0.9031   18.6666  -26.8671 H   0  0  0  0  0  0  0  0  0  0  0  0
   -0.7211   20.2447  -26.0230 H   0  0  0  0  0  0  0  0  0  0  0  0
   -2.4087   19.6240  -28.4970 H   0  0  0  0  0  0  0  0  0  0  0  0
   -2.9713   20.1537  -26.8612 H   0  0  0  0  0  0  0  0  0  0  0  0
   -2.9878   23.5011  -31.7004 H   0  0  0  0  0  0  0  0  0  0  0  0
   -2.5814   21.4300  -33.0264 H   0  0  0  0  0  0  0  0  0  0  0  0
   -6.9644   18.1020  -34.7783 H   0  0  0  0  0  0  0  0  0  0  0  0
   -5.9845   15.8413  -35.1775 H   0  0  0  0  0  0  0  0  0  0  0  0
   -4.9498   14.5752  -33.2897 H   0  0  0  0  0  0  0  0  0  0  0  0
   -4.8977   15.5682  -30.9975 H   0  0  0  0  0  0  0  0  0  0  0  0
   -5.8738   17.8313  -30.5950 H   0  0  0  0  0  0  0  0  0  0  0  0
   -7.0294   22.1892  -30.8856 H   0  0  0  0  0  0  0  0  0  0  0  0
  1  2  2  0
  2  3  2  0
  2  4  1  0
  4  5  1  0
  5  6  2  0
  6  7  1  0
  7  8  2  0
  8  9  1  0
  9 10  2  0
 10 11  1  0
  8 12  1  0
 12 13  1  0
 13 14  1  0
 14 15  1  0
  2 16  1  0
 16 17  2  0
 17 18  1  0
 18 19  2  0
 19 20  1  0
 19 21  1  0
 21 22  1  0
 22 23  2  0
 22 24  2  0
 22 25  1  0
 25 26  2  0
 26 27  1  0
 27 28  2  0
 28 29  1  0
 29 30  2  0
 21 31  2  0
 10  5  1  0
 31 16  1  0
 15  7  1  0
 30 25  1  0
  6 32  1  0
  9 33  1  0
 12 34  1  0
 12 35  1  0
 13 36  1  0
 14 37  1  0
 14 38  1  0
 15 39  1  0
 15 40  1  0
 17 41  1  0
 18 42  1  0
 26 43  1  0
 27 44  1  0
 28 45  1  0
 29 46  1  0
 30 47  1  0
 31 48  1  0
M  CHG  3   4  -1  11  -1  20  -1
M  END
>  <UniqueID>  (34) 
34

>  <SMILES>  (34) 
O=S(=O)([N-]c1cc2c(cc1[O-])CNCC2)c1ccc([O-])c(S(=O)(=O)c2ccccc2)c1

>  <Energy>  (34) 
59.15653491139588

>  <Genealogy>  (34) 
O=S(=O)([N-]c1cc2c(cc1[O-])CNCC2)c1ccc([O-])c(S(=O)(=O)c2ccccc2)c1 (protonated)
O=S(=O)([N-]c1cc2c(cc1[O-])CNCC2)c1ccc([O-])c(S(=O)(=O)c2ccccc2)c1 (3D coordinates assigned)
O=S(=O)([N-]c1cc2c(cc1[O-])CNCC2)c1ccc([O-])c(S(=O)(=O)c2ccccc2)c1 (nonaromatic ring conformer: 59.15653491139588 kcal/mol)

>  <smiles>  (34) 
O=S(=O)(Nc1cc2c(cc1O)CNCC2)c1ccc(O)c(S(=O)(=O)c2ccccc2)c1

>  <score_type>  (34) 
oracle

>  <origin>  (34) 
adgpu

>  <m_score__min__energy>  (34) 
-14.369999999999999

>  <m_primary>  (34) 
energy

$$$$
34:0
     RDKit          3D

 63 67  0  0  0  0  0  0  0  0999 V2000
    0.8070   21.2060  -27.1030 O   0  0  0  0  0  0  0  0  0  0  0  0
   -0.0520   20.8800  -27.9780 C   0  0  0  0  0  0  0  0  0  0  0  0
   -0.9520   21.9320  -28.5230 C   0  0  0  0  0  0  0  0  0  0  0  0
   -2.2740   21.6040  -28.8740 C   0  0  0  0  0  0  0  0  0  0  0  0
   -3.1130   22.5610  -29.4500 C   0  0  0  0  0  0  0  0  0  0  0  0
   -2.6610   23.8700  -29.6620 C   0  0  0  0  0  0  0  0  0  0  0  0
   -3.5620   24.8090  -30.2650 N   0  0  0  0  0  0  0  0  0  0  0  0
   -5.2350   24.5250  -30.6470 S   0  0  0  0  0  0  0  0  0  0  0  0
   -6.0360   24.4820  -29.3750 O   0  0  0  0  0  0  0  0  0  0  0  0
   -5.7190   25.6660  -31.4940 O   0  0  0  0  0  0  0  0  0  0  0  0
   -5.4130   23.0180  -31.5740 C   0  0  0  0  0  0  0  0  0  0  0  0
   -4.3150   22.5690  -32.3270 C   0  0  0  0  0  0  0  0  0  0  0  0
   -4.3940   21.3990  -33.0830 C   0  0  0  0  0  0  0  0  0  0  0  0
   -5.5700   20.6580  -33.1090 C   0  0  0  0  0  0  0  0  0  0  0  0
   -6.6910   21.0860  -32.3880 C   0  0  0  0  0  0  0  0  0  0  0  0
   -7.8800   20.3400  -32.4390 C   0  0  0  0  0  0  0  0  0  0  0  0
   -9.0110   20.7660  -31.7400 C   0  0  0  0  0  0  0  0  0  0  0  0
   -8.9660   21.9410  -30.9890 C   0  0  0  0  0  0  0  0  0  0  0  0
   -7.7910   22.6970  -30.9260 C   0  0  0  0  0  0  0  0  0  0  0  0
   -6.6300   22.2820  -31.6160 C   0  0  0  0  0  0  0  0  0  0  0  0
   -1.3490   24.2110  -29.2930 C   0  0  0  0  0  0  0  0  0  0  0  0
   -0.4950   23.2430  -28.7550 C   0  0  0  0  0  0  0  0  0  0  0  0
   -0.1270   19.5040  -28.4100 N   0  0  0  0  0  0  0  0  0  0  0  0
    0.2220   18.4310  -27.4720 C   0  0  0  0  0  0  0  0  0  0  0  0
    1.5640   17.7740  -27.8620 C   0  0  0  0  0  0  0  0  0  0  0  0
    1.9420   17.9670  -29.3600 C   0  0  0  0  0  0  0  0  0  0  0  0
    2.5960   19.2110  -29.4960 O   0  0  0  0  0  0  0  0  0  0  0  0
    2.8780   16.8230  -29.8380 C   0  0  0  0  0  0  0  0  0  0  0  0
    2.6490   15.5270  -29.0900 C   0  0  0  0  0  0  0  0  0  0  0  0
    1.5970   14.6610  -29.4530 C   0  0  0  0  0  0  0  0  0  0  0  0
    1.3990   13.4610  -28.7550 C   0  0  0  0  0  0  0  0  0  0  0  0
    2.2370   13.1230  -27.6870 C   0  0  0  0  0  0  0  0  0  0  0  0
    3.2760   13.9830  -27.3140 C   0  0  0  0  0  0  0  0  0  0  0  0
    3.4850   15.1780  -28.0130 C   0  0  0  0  0  0  0  0  0  0  0  0
    0.6440   17.9700  -30.2110 C   0  0  0  0  0  0  0  0  0  0  0  0
   -0.2560   19.1650  -29.8400 C   0  0  0  0  0  0  0  0  0  0  0  0
   -2.6501   20.5862  -28.6936 H   0  0  0  0  0  0  0  0  0  0  0  0
   -4.1375   22.2844  -29.7396 H   0  0  0  0  0  0  0  0  0  0  0  0
   -3.3798   23.1481  -32.3204 H   0  0  0  0  0  0  0  0  0  0  0  0
   -3.5214   21.0612  -33.6614 H   0  0  0  0  0  0  0  0  0  0  0  0
   -5.6199   19.7309  -33.6990 H   0  0  0  0  0  0  0  0  0  0  0  0
   -7.9203   19.4150  -33.0330 H   0  0  0  0  0  0  0  0  0  0  0  0
   -9.9379   20.1751  -31.7814 H   0  0  0  0  0  0  0  0  0  0  0  0
   -9.8605   22.2750  -30.4429 H   0  0  0  0  0  0  0  0  0  0  0  0
   -7.7706   23.6236  -30.3336 H   0  0  0  0  0  0  0  0  0  0  0  0
   -0.9923   25.2428  -29.4277 H   0  0  0  0  0  0  0  0  0  0  0  0
    0.5441   23.5087  -28.5107 H   0  0  0  0  0  0  0  0  0  0  0  0
    0.3077   18.8516  -26.4592 H   0  0  0  0  0  0  0  0  0  0  0  0
   -0.5670   17.6652  -27.5042 H   0  0  0  0  0  0  0  0  0  0  0  0
    2.3595   18.2149  -27.2433 H   0  0  0  0  0  0  0  0  0  0  0  0
    1.4537   16.6924  -27.6945 H   0  0  0  0  0  0  0  0  0  0  0  0
    2.1740   19.8510  -28.8620 H   0  0  0  0  0  0  0  0  0  0  0  0
    2.6994   16.6470  -30.9090 H   0  0  0  0  0  0  0  0  0  0  0  0
    3.9135   17.1392  -29.6438 H   0  0  0  0  0  0  0  0  0  0  0  0
    0.9298   14.9275  -30.2860 H   0  0  0  0  0  0  0  0  0  0  0  0
    0.5830   12.7840  -29.0479 H   0  0  0  0  0  0  0  0  0  0  0  0
    2.0792   12.1814  -27.1406 H   0  0  0  0  0  0  0  0  0  0  0  0
    3.9300   13.7196  -26.4697 H   0  0  0  0  0  0  0  0  0  0  0  0
    4.3068   15.8475  -27.7189 H   0  0  0  0  0  0  0  0  0  0  0  0
    0.9119   18.0381  -31.2757 H   0  0  0  0  0  0  0  0  0  0  0  0
    0.0918   17.0398  -30.0118 H   0  0  0  0  0  0  0  0  0  0  0  0
    0.0374   20.0366  -30.4436 H   0  0  0  0  0  0  0  0  0  0  0  0
   -1.3020   18.8898  -30.0406 H   0  0  0  0  0  0  0  0  0  0  0  0
  1  2  2  0
  2  3  1  0
  3  4  2  0
  4  5  1  0
  5  6  2  0
  6  7  1  0
  7  8  1  0
  8  9  2  0
  8 10  2  0
  8 11  1  0
 11 12  2  0
 12 13  1  0
 13 14  2  0
 14 15  1  0
 15 16  2  0
 16 17  1  0
 17 18  2  0
 18 19  1  0
 19 20  2  0
  6 21  1  0
 21 22  2  0
  2 23  1  0
 23 24  1  0
 24 25  1  0
 25 26  1  0
 26 27  1  0
 26 28  1  0
 28 29  1  0
 29 30  2  0
 30 31  1  0
 31 32  2  0
 32 33  1  0
 33 34  2  0
 26 35  1  0
 35 36  1  0
 22  3  1  0
 36 23  1  0
 20 11  1  0
 34 29  1  0
 20 15  1  0
  4 37  1  0
  5 38  1  0
 12 39  1  0
 13 40  1  0
 14 41  1  0
 16 42  1  0
 17 43  1  0
 18 44  1  0
 19 45  1  0
 21 46  1  0
 22 47  1  0
 24 48  1  0
 24 49  1  0
 25 50  1  0
 25 51  1  0
 27 52  1  0
 28 53  1  0
 28 54  1  0
 30 55  1  0
 31 56  1  0
 32 57  1  0
 33 58  1  0
 34 59  1  0
 35 60  1  0
 35 61  1  0
 36 62  1  0
 36 63  1  0
M  CHG  1   7  -1
M  END
>  <UniqueID>  (35) 
35

>  <SMILES>  (35) 
O=C(c1ccc([N-]S(=O)(=O)c2cccc3ccccc23)cc1)N1CCC(O)(Cc2ccccc2)CC1

>  <Energy>  (35) 
89.6568781419761

>  <Genealogy>  (35) 
O=C(c1ccc([N-]S(=O)(=O)c2cccc3ccccc23)cc1)N1CCC(O)(Cc2ccccc2)CC1 (protonated)
O=C(c1ccc([N-]S(=O)(=O)c2cccc3ccccc23)cc1)N1CCC(O)(Cc2ccccc2)CC1 (3D coordinates assigned)
O=C(c1ccc([N-]S(=O)(=O)c2cccc3ccccc23)cc1)N1CCC(O)(Cc2ccccc2)CC1 (nonaromatic ring conformer: 89.6568781419761 kcal/mol)

>  <smiles>  (35) 
O=C(c1ccc(NS(=O)(=O)c2cccc3ccccc23)cc1)N1CCC(O)(Cc2ccccc2)CC1

>  <score_type>  (35) 
oracle

>  <origin>  (35) 
adgpu

>  <m_score__min__energy>  (35) 
-11.15

>  <m_primary>  (35) 
energy

$$$$
35:0
     RDKit          3D

 57 60  0  0  0  0  0  0  0  0999 V2000
   -8.0190   23.2690  -31.2360 C   0  0  0  0  0  0  0  0  0  0  0  0
   -7.1190   22.2850  -31.9200 C   0  0  0  0  0  0  0  0  0  0  0  0
   -5.8270   22.5290  -32.3550 C   0  0  0  0  0  0  0  0  0  0  0  0
   -5.0640   23.7090  -32.1130 N   0  0  0  0  0  0  0  0  0  0  0  0
   -4.7920   24.2410  -30.4920 S   0  0  0  0  0  0  0  0  0  0  0  0
   -3.8780   25.4350  -30.4890 O   0  0  0  0  0  0  0  0  0  0  0  0
   -6.1030   24.6350  -29.8690 O   0  0  0  0  0  0  0  0  0  0  0  0
   -4.0760   22.9150  -29.5810 C   0  0  0  0  0  0  0  0  0  0  0  0
   -3.5070   21.8230  -30.2520 C   0  0  0  0  0  0  0  0  0  0  0  0
   -2.8660   20.8110  -29.5300 C   0  0  0  0  0  0  0  0  0  0  0  0
   -2.7790   20.8890  -28.1330 C   0  0  0  0  0  0  0  0  0  0  0  0
   -1.9930   19.6070  -27.2150 S   0  0  0  0  0  0  0  0  0  0  0  0
   -3.0120   18.5530  -26.8760 O   0  0  0  0  0  0  0  0  0  0  0  0
   -1.4370   20.1640  -25.9320 O   0  0  0  0  0  0  0  0  0  0  0  0
   -0.7130   18.9030  -28.1710 N   0  0  0  0  0  0  0  0  0  0  0  0
   -0.1000   17.7760  -27.4480 C   0  0  0  0  0  0  0  0  0  0  0  0
    1.0410   17.1530  -28.2870 C   0  0  0  0  0  0  0  0  0  0  0  0
    1.3870   17.9460  -29.4090 O   0  0  0  0  0  0  0  0  0  0  0  0
    1.6120   19.2770  -28.9990 C   0  0  0  0  0  0  0  0  0  0  0  0
    0.3010   19.9250  -28.5030 C   0  0  0  0  0  0  0  0  0  0  0  0
   -3.3490   21.9790  -27.4620 C   0  0  0  0  0  0  0  0  0  0  0  0
   -3.9910   22.9900  -28.1830 C   0  0  0  0  0  0  0  0  0  0  0  0
   -5.3290   21.2940  -32.7010 C   0  0  0  0  0  0  0  0  0  0  0  0
   -4.1500   21.0550  -33.0690 O   0  0  0  0  0  0  0  0  0  0  0  0
   -6.2830   20.3580  -32.5260 N   0  0  0  0  0  0  0  0  0  0  0  0
   -6.1110   18.9450  -32.7230 C   0  0  0  0  0  0  0  0  0  0  0  0
   -5.9880   18.0820  -31.6210 C   0  0  0  0  0  0  0  0  0  0  0  0
   -5.8020   16.7090  -31.8200 C   0  0  0  0  0  0  0  0  0  0  0  0
   -5.7320   16.1930  -33.1170 C   0  0  0  0  0  0  0  0  0  0  0  0
   -5.8420   17.0480  -34.2170 C   0  0  0  0  0  0  0  0  0  0  0  0
   -6.0260   18.4210  -34.0220 C   0  0  0  0  0  0  0  0  0  0  0  0
   -7.3770   20.9600  -32.0600 N   0  0  0  0  0  0  0  0  0  0  0  0
   -8.6090   20.2770  -31.6560 C   0  0  0  0  0  0  0  0  0  0  0  0
   -7.9197   23.1605  -30.1459 H   0  0  0  0  0  0  0  0  0  0  0  0
   -7.7362   24.2905  -31.5300 H   0  0  0  0  0  0  0  0  0  0  0  0
   -9.0617   23.0782  -31.5300 H   0  0  0  0  0  0  0  0  0  0  0  0
   -3.5649   21.7622  -31.3488 H   0  0  0  0  0  0  0  0  0  0  0  0
   -2.4290   19.9517  -30.0597 H   0  0  0  0  0  0  0  0  0  0  0  0
   -1.1430   18.5450  -29.0550 H   0  0  0  0  0  0  0  0  0  0  0  0
    0.3084   18.1375  -26.4927 H   0  0  0  0  0  0  0  0  0  0  0  0
   -0.8677   17.0097  -27.2653 H   0  0  0  0  0  0  0  0  0  0  0  0
    1.9287   17.0416  -27.6470 H   0  0  0  0  0  0  0  0  0  0  0  0
    0.6870   16.1813  -28.6619 H   0  0  0  0  0  0  0  0  0  0  0  0
    2.3493   19.2835  -28.1827 H   0  0  0  0  0  0  0  0  0  0  0  0
    1.9879   19.8526  -29.8577 H   0  0  0  0  0  0  0  0  0  0  0  0
    0.5146   20.5225  -27.6044 H   0  0  0  0  0  0  0  0  0  0  0  0
   -0.0977   20.5599  -29.3079 H   0  0  0  0  0  0  0  0  0  0  0  0
   -3.2912   22.0393  -26.3652 H   0  0  0  0  0  0  0  0  0  0  0  0
   -4.4310   23.8472  -27.6522 H   0  0  0  0  0  0  0  0  0  0  0  0
   -6.0380   18.4864  -30.5993 H   0  0  0  0  0  0  0  0  0  0  0  0
   -5.7109   16.0357  -30.9550 H   0  0  0  0  0  0  0  0  0  0  0  0
   -5.5902   15.1133  -33.2721 H   0  0  0  0  0  0  0  0  0  0  0  0
   -5.7838   16.6409  -35.2372 H   0  0  0  0  0  0  0  0  0  0  0  0
   -6.1043   19.0922  -34.8900 H   0  0  0  0  0  0  0  0  0  0  0  0
   -8.6672   20.2447  -30.5580 H   0  0  0  0  0  0  0  0  0  0  0  0
   -9.4778   20.8223  -32.0534 H   0  0  0  0  0  0  0  0  0  0  0  0
   -8.6068   19.2513  -32.0534 H   0  0  0  0  0  0  0  0  0  0  0  0
  1  2  1  0
  2  3  2  0
  3  4  1  0
  4  5  1  0
  5  6  2  0
  5  7  2  0
  5  8  1  0
  8  9  2  0
  9 10  1  0
 10 11  2  0
 11 12  1  0
 12 13  2  0
 12 14  2  0
 12 15  1  0
 15 16  1  0
 16 17  1  0
 17 18  1  0
 18 19  1  0
 19 20  1  0
 11 21  1  0
 21 22  2  0
  3 23  1  0
 23 24  2  0
 23 25  1  0
 25 26  1  0
 26 27  2  0
 27 28  1  0
 28 29  2  0
 29 30  1  0
 30 31  2  0
 25 32  1  0
 32 33  1  0
 32  2  1  0
 22  8  1  0
 31 26  1  0
 20 15  1  0
  1 34  1  0
  1 35  1  0
  1 36  1  0
  9 37  1  0
 10 38  1  0
 15 39  1  0
 16 40  1  0
 16 41  1  0
 17 42  1  0
 17 43  1  0
 19 44  1  0
 19 45  1  0
 20 46  1  0
 20 47  1  0
 21 48  1  0
 22 49  1  0
 27 50  1  0
 28 51  1  0
 29 52  1  0
 30 53  1  0
 31 54  1  0
 33 55  1  0
 33 56  1  0
 33 57  1  0
M  CHG  2   4  -1  15   1
M  END
>  <UniqueID>  (36) 
36

>  <SMILES>  (36) 
Cc1c([N-]S(=O)(=O)c2ccc(S(=O)(=O)[NH+]3CCOCC3)cc2)c(=O)n(-c2ccccc2)n1C

>  <Energy>  (36) 
115.54547059518487

>  <Genealogy>  (36) 
Cc1c([N-]S(=O)(=O)c2ccc(S(=O)(=O)[NH+]3CCOCC3)cc2)c(=O)n(-c2ccccc2)n1C (protonated)
Cc1c([N-]S(=O)(=O)c2ccc(S(=O)(=O)[NH+]3CCOCC3)cc2)c(=O)n(-c2ccccc2)n1C (3D coordinates assigned)
Cc1c([N-]S(=O)(=O)c2ccc(S(=O)(=O)[NH+]3CCOCC3)cc2)c(=O)n(-c2ccccc2)n1C (nonaromatic ring conformer: 115.54547059518487 kcal/mol)

>  <smiles>  (36) 
Cc1c(NS(=O)(=O)c2ccc(S(=O)(=O)N3CCOCC3)cc2)c(=O)n(-c2ccccc2)n1C

>  <score_type>  (36) 
oracle

>  <origin>  (36) 
adgpu

>  <m_score__min__energy>  (36) 
-11.720000000000001

>  <m_primary>  (36) 
energy

$$$$
36:0
     RDKit          3D

 62 65  0  0  0  0  0  0  0  0999 V2000
    1.1330   15.3380  -29.7640 C   0  0  0  0  0  0  0  0  0  0  0  0
    0.7340   16.7120  -29.3150 C   0  0  0  0  0  0  0  0  0  0  0  0
    0.4130   17.7040  -30.2520 C   0  0  0  0  0  0  0  0  0  0  0  0
    0.0140   18.9740  -29.8260 C   0  0  0  0  0  0  0  0  0  0  0  0
   -0.0830   19.2710  -28.4540 C   0  0  0  0  0  0  0  0  0  0  0  0
   -0.5010   20.6210  -28.0140 C   0  0  0  0  0  0  0  0  0  0  0  0
    0.2050   21.3720  -27.1340 N   0  0  0  0  0  0  0  0  0  0  0  0
   -0.3800   22.5760  -26.8900 C   0  0  0  0  0  0  0  0  0  0  0  0
    0.2310   23.5610  -25.9440 C   0  0  0  0  0  0  0  0  0  0  0  0
   -1.5810   22.7910  -27.5700 C   0  0  0  0  0  0  0  0  0  0  0  0
   -2.4130   24.0390  -27.5700 C   0  0  0  0  0  0  0  0  0  0  0  0
   -2.0230   24.9410  -28.7390 C   0  0  0  0  0  0  0  0  0  0  0  0
   -3.0820   24.9320  -29.7400 N   0  0  0  0  0  0  0  0  0  0  0  0
   -3.4390   23.7860  -30.5220 C   0  0  0  0  0  0  0  0  0  0  0  0
   -2.5260   23.0400  -30.9640 O   0  0  0  0  0  0  0  0  0  0  0  0
   -4.8470   23.4570  -30.8170 C   0  0  0  0  0  0  0  0  0  0  0  0
   -5.1600   22.1870  -31.3290 C   0  0  0  0  0  0  0  0  0  0  0  0
   -6.4880   21.8350  -31.5990 C   0  0  0  0  0  0  0  0  0  0  0  0
   -6.8710   20.2330  -32.2360 S   0  0  0  0  0  0  0  0  0  0  0  0
   -7.7350   19.5030  -31.2430 O   0  0  0  0  0  0  0  0  0  0  0  0
   -7.6530   20.3790  -33.5130 O   0  0  0  0  0  0  0  0  0  0  0  0
   -5.4270   19.2990  -32.5390 N   0  0  0  0  0  0  0  0  0  0  0  0
   -4.5500   20.0050  -33.4880 C   0  0  0  0  0  0  0  0  0  0  0  0
   -3.1770   19.3110  -33.5650 C   0  0  0  0  0  0  0  0  0  0  0  0
   -3.2400   17.8340  -33.1400 C   0  0  0  0  0  0  0  0  0  0  0  0
   -4.5550   17.1890  -33.5850 C   0  0  0  0  0  0  0  0  0  0  0  0
   -5.7830   17.9580  -33.0470 C   0  0  0  0  0  0  0  0  0  0  0  0
   -7.5120   22.7550  -31.3490 C   0  0  0  0  0  0  0  0  0  0  0  0
   -7.2120   24.0180  -30.8330 C   0  0  0  0  0  0  0  0  0  0  0  0
   -5.8860   24.3800  -30.5680 C   0  0  0  0  0  0  0  0  0  0  0  0
   -5.6350   25.6640  -30.0770 O   0  0  0  0  0  0  0  0  0  0  0  0
   -1.8880   21.4390  -28.5210 S   0  0  0  0  0  0  0  0  0  0  0  0
    0.2230   18.2660  -27.5190 C   0  0  0  0  0  0  0  0  0  0  0  0
    0.6240   16.9980  -27.9460 C   0  0  0  0  0  0  0  0  0  0  0  0
    1.3172   14.7038  -28.8843 H   0  0  0  0  0  0  0  0  0  0  0  0
    0.3247   14.9007  -30.3685 H   0  0  0  0  0  0  0  0  0  0  0  0
    2.0498   15.4016  -30.3685 H   0  0  0  0  0  0  0  0  0  0  0  0
    0.4754   17.4819  -31.3275 H   0  0  0  0  0  0  0  0  0  0  0  0
   -0.2263   19.7480  -30.5697 H   0  0  0  0  0  0  0  0  0  0  0  0
    0.0351   23.2452  -24.9087 H   0  0  0  0  0  0  0  0  0  0  0  0
    1.3168   23.6076  -26.1139 H   0  0  0  0  0  0  0  0  0  0  0  0
   -0.2097   24.5545  -26.1139 H   0  0  0  0  0  0  0  0  0  0  0  0
   -3.4747   23.7664  -27.6615 H   0  0  0  0  0  0  0  0  0  0  0  0
   -2.2409   24.5816  -26.6288 H   0  0  0  0  0  0  0  0  0  0  0  0
   -1.8730   25.9679  -28.3744 H   0  0  0  0  0  0  0  0  0  0  0  0
   -1.0912   24.5700  -29.1907 H   0  0  0  0  0  0  0  0  0  0  0  0
   -4.3546   21.4625  -31.5195 H   0  0  0  0  0  0  0  0  0  0  0  0
   -5.0154   20.0002  -34.4847 H   0  0  0  0  0  0  0  0  0  0  0  0
   -4.4090   21.0399  -33.1429 H   0  0  0  0  0  0  0  0  0  0  0  0
   -2.8119   19.3648  -34.6013 H   0  0  0  0  0  0  0  0  0  0  0  0
   -2.5001   19.8304  -32.8708 H   0  0  0  0  0  0  0  0  0  0  0  0
   -2.4003   17.2918  -33.5991 H   0  0  0  0  0  0  0  0  0  0  0  0
   -3.1790   17.7829  -32.0429 H   0  0  0  0  0  0  0  0  0  0  0  0
   -4.5935   17.1811  -34.6843 H   0  0  0  0  0  0  0  0  0  0  0  0
   -4.5881   16.1665  -33.1807 H   0  0  0  0  0  0  0  0  0  0  0  0
   -6.5141   18.0708  -33.8611 H   0  0  0  0  0  0  0  0  0  0  0  0
   -6.2005   17.3808  -32.2089 H   0  0  0  0  0  0  0  0  0  0  0  0
   -8.5568   22.4829  -31.5595 H   0  0  0  0  0  0  0  0  0  0  0  0
   -8.0236   24.7332  -30.6335 H   0  0  0  0  0  0  0  0  0  0  0  0
   -4.9820   25.8470  -29.3270 H   0  0  0  0  0  0  0  0  0  0  0  0
    0.1459   18.4802  -26.4428 H   0  0  0  0  0  0  0  0  0  0  0  0
    0.8549   16.2190  -27.2044 H   0  0  0  0  0  0  0  0  0  0  0  0
  1  2  1  0
  2  3  2  0
  3  4  1  0
  4  5  2  0
  5  6  1  0
  6  7  2  0
  7  8  1  0
  8  9  1  0
  8 10  2  0
 10 11  1  0
 11 12  1  0
 12 13  1  0
 13 14  1  0
 14 15  2  0
 14 16  1  0
 16 17  2  0
 17 18  1  0
 18 19  1  0
 19 20  2  0
 19 21  2  0
 19 22  1  0
 22 23  1  0
 23 24  1  0
 24 25  1  0
 25 26  1  0
 26 27  1  0
 18 28  2  0
 28 29  1  0
 29 30  2  0
 30 31  1  0
 10 32  1  0
  5 33  1  0
 33 34  2  0
 34  2  1  0
 32  6  1  0
 30 16  1  0
 27 22  1  0
  1 35  1  0
  1 36  1  0
  1 37  1  0
  3 38  1  0
  4 39  1  0
  9 40  1  0
  9 41  1  0
  9 42  1  0
 11 43  1  0
 11 44  1  0
 12 45  1  0
 12 46  1  0
 17 47  1  0
 23 48  1  0
 23 49  1  0
 24 50  1  0
 24 51  1  0
 25 52  1  0
 25 53  1  0
 26 54  1  0
 26 55  1  0
 27 56  1  0
 27 57  1  0
 28 58  1  0
 29 59  1  0
 31 60  1  0
 33 61  1  0
 34 62  1  0
M  CHG  1  13  -1
M  END
>  <UniqueID>  (37) 
37

>  <SMILES>  (37) 
Cc1ccc(-c2nc(C)c(CC[N-]C(=O)c3cc(S(=O)(=O)N4CCCCC4)ccc3O)s2)cc1

>  <Energy>  (37) 
96.99788549363524

>  <Genealogy>  (37) 
Cc1ccc(-c2nc(C)c(CC[N-]C(=O)c3cc(S(=O)(=O)N4CCCCC4)ccc3O)s2)cc1 (protonated)
Cc1ccc(-c2nc(C)c(CC[N-]C(=O)c3cc(S(=O)(=O)N4CCCCC4)ccc3O)s2)cc1 (3D coordinates assigned)
Cc1ccc(-c2nc(C)c(CC[N-]C(=O)c3cc(S(=O)(=O)N4CCCCC4)ccc3O)s2)cc1 (nonaromatic ring conformer: 96.99788549363524 kcal/mol)

>  <smiles>  (37) 
Cc1ccc(-c2nc(C)c(CCNC(=O)c3cc(S(=O)(=O)N4CCCCC4)ccc3O)s2)cc1

>  <score_type>  (37) 
oracle

>  <origin>  (37) 
adgpu

>  <m_score__min__energy>  (37) 
-11.42

>  <m_primary>  (37) 
energy

$$$$
37:0
     RDKit          3D

 42 44  0  0  0  0  0  0  0  0999 V2000
    4.3680   21.7870  -37.6890 N   0  0  0  0  0  0  0  0  0  0  0  0
    4.2870   21.7070  -35.9650 S   0  0  0  0  0  0  0  0  0  0  0  0
    4.8580   22.9640  -35.3730 O   0  0  0  0  0  0  0  0  0  0  0  0
    5.1010   20.5370  -35.4890 O   0  0  0  0  0  0  0  0  0  0  0  0
    2.6070   21.5230  -35.4620 C   0  0  0  0  0  0  0  0  0  0  0  0
    1.6000   22.2880  -36.0670 C   0  0  0  0  0  0  0  0  0  0  0  0
    0.2690   22.1480  -35.6650 C   0  0  0  0  0  0  0  0  0  0  0  0
   -0.0720   21.2530  -34.6360 C   0  0  0  0  0  0  0  0  0  0  0  0
   -1.4380   21.0730  -34.2220 N   0  0  0  0  0  0  0  0  0  0  0  0
   -1.9140   21.3040  -32.8850 C   0  0  0  0  0  0  0  0  0  0  0  0
   -1.1650   20.8730  -31.7770 C   0  0  0  0  0  0  0  0  0  0  0  0
   -1.6430   21.0680  -30.4820 C   0  0  0  0  0  0  0  0  0  0  0  0
   -0.8910   20.6430  -29.3940 O   0  0  0  0  0  0  0  0  0  0  0  0
   -2.8780   21.6830  -30.2780 C   0  0  0  0  0  0  0  0  0  0  0  0
   -3.6540   22.1070  -31.3670 C   0  0  0  0  0  0  0  0  0  0  0  0
   -5.2260   22.8570  -31.0560 S   0  0  0  0  0  0  0  0  0  0  0  0
   -5.3420   23.2640  -29.6130 O   0  0  0  0  0  0  0  0  0  0  0  0
   -5.3520   24.0880  -31.9100 O   0  0  0  0  0  0  0  0  0  0  0  0
   -6.5160   21.7140  -31.4170 C   0  0  0  0  0  0  0  0  0  0  0  0
   -6.2450   20.5760  -32.1920 C   0  0  0  0  0  0  0  0  0  0  0  0
   -7.2650   19.6660  -32.4850 C   0  0  0  0  0  0  0  0  0  0  0  0
   -8.5580   19.8840  -32.0030 C   0  0  0  0  0  0  0  0  0  0  0  0
   -8.8330   21.0130  -31.2250 C   0  0  0  0  0  0  0  0  0  0  0  0
   -7.8150   21.9250  -30.9300 C   0  0  0  0  0  0  0  0  0  0  0  0
   -3.1700   21.9080  -32.6830 C   0  0  0  0  0  0  0  0  0  0  0  0
   -3.9030   22.3050  -33.8060 O   0  0  0  0  0  0  0  0  0  0  0  0
    0.9350   20.4770  -34.0440 C   0  0  0  0  0  0  0  0  0  0  0  0
    2.2680   20.6150  -34.4460 C   0  0  0  0  0  0  0  0  0  0  0  0
    3.2230   19.8660  -33.8410 F   0  0  0  0  0  0  0  0  0  0  0  0
    4.0360   22.7370  -37.9690 H   0  0  0  0  0  0  0  0  0  0  0  0
    1.8590   23.0023  -36.8624 H   0  0  0  0  0  0  0  0  0  0  0  0
   -0.5161   22.7413  -36.1564 H   0  0  0  0  0  0  0  0  0  0  0  0
   -2.1250   20.7430  -34.9370 H   0  0  0  0  0  0  0  0  0  0  0  0
   -0.1949   20.3784  -31.9325 H   0  0  0  0  0  0  0  0  0  0  0  0
   -3.2471   21.8371  -29.2533 H   0  0  0  0  0  0  0  0  0  0  0  0
   -5.2272   20.3995  -32.5700 H   0  0  0  0  0  0  0  0  0  0  0  0
   -7.0492   18.7771  -33.0959 H   0  0  0  0  0  0  0  0  0  0  0  0
   -9.3597   19.1676  -32.2354 H   0  0  0  0  0  0  0  0  0  0  0  0
   -9.8510   21.1837  -30.8448 H   0  0  0  0  0  0  0  0  0  0  0  0
   -8.0330   22.8102  -30.3145 H   0  0  0  0  0  0  0  0  0  0  0  0
   -4.6330   23.0030  -33.7810 H   0  0  0  0  0  0  0  0  0  0  0  0
    0.6747   19.7538  -33.2571 H   0  0  0  0  0  0  0  0  0  0  0  0
  1  2  1  0
  2  3  2  0
  2  4  2  0
  2  5  1  0
  5  6  2  0
  6  7  1  0
  7  8  2  0
  8  9  1  0
  9 10  1  0
 10 11  2  0
 11 12  1  0
 12 13  1  0
 12 14  2  0
 14 15  1  0
 15 16  1  0
 16 17  2  0
 16 18  2  0
 16 19  1  0
 19 20  2  0
 20 21  1  0
 21 22  2  0
 22 23  1  0
 23 24  2  0
 15 25  2  0
 25 26  1  0
  8 27  1  0
 27 28  2  0
 28 29  1  0
 28  5  1  0
 25 10  1  0
 24 19  1  0
  1 30  1  0
  6 31  1  0
  7 32  1  0
  9 33  1  0
 11 34  1  0
 14 35  1  0
 20 36  1  0
 21 37  1  0
 22 38  1  0
 23 39  1  0
 24 40  1  0
 26 41  1  0
 27 42  1  0
M  CHG  2   1  -1  13  -1
M  END
>  <UniqueID>  (38) 
38

>  <SMILES>  (38) 
[NH-]S(=O)(=O)c1ccc(Nc2cc([O-])cc(S(=O)(=O)c3ccccc3)c2O)cc1F

>  <Energy>  (38) 
54.922722706639654

>  <Genealogy>  (38) 
[NH-]S(=O)(=O)c1ccc(Nc2cc([O-])cc(S(=O)(=O)c3ccccc3)c2O)cc1F (protonated)
[NH-]S(=O)(=O)c1ccc(Nc2cc([O-])cc(S(=O)(=O)c3ccccc3)c2O)cc1F (3D coordinates assigned)
[NH-]S(=O)(=O)c1ccc(Nc2cc([O-])cc(S(=O)(=O)c3ccccc3)c2O)cc1F (optimized conformer: 54.922722706639654 kcal/mol)

>  <smiles>  (38) 
NS(=O)(=O)c1ccc(Nc2cc(O)cc(S(=O)(=O)c3ccccc3)c2O)cc1F

>  <score_type>  (38) 
oracle

>  <origin>  (38) 
adgpu

>  <m_score__min__energy>  (38) 
-10.699999999999999

>  <m_primary>  (38) 
energy

$$$$
38:0
     RDKit          3D

 53 56  0  0  0  0  0  0  0  0999 V2000
   -2.6894   24.2573  -26.1185 H   0  0  0  0  0  0  0  0  0  0  0  0
   -2.5800   23.7180  -27.0710 C   0  0  0  0  0  0  0  0  0  0  0  0
   -1.7700   22.5860  -27.1420 C   0  0  0  0  0  0  0  0  0  0  0  0
   -1.2353   22.2366  -26.2465 H   0  0  0  0  0  0  0  0  0  0  0  0
   -1.6360   21.8950  -28.3470 C   0  0  0  0  0  0  0  0  0  0  0  0
   -0.9929   21.0039  -28.3950 H   0  0  0  0  0  0  0  0  0  0  0  0
   -2.3140   22.3260  -29.4990 C   0  0  0  0  0  0  0  0  0  0  0  0
   -2.1620   21.3680  -30.9810 S   0  0  0  0  0  0  0  0  0  0  0  0
   -3.3230   20.4190  -31.0850 O   0  0  0  0  0  0  0  0  0  0  0  0
   -2.1620   22.2910  -32.1680 O   0  0  0  0  0  0  0  0  0  0  0  0
   -0.6780   20.4720  -30.9050 N   0  0  0  0  0  0  0  0  0  0  0  0
   -0.0560   19.8500  -31.8640 C   0  0  0  0  0  0  0  0  0  0  0  0
    1.3740   19.0350  -31.6440 S   0  0  0  0  0  0  0  0  0  0  0  0
    1.6440   18.4810  -33.1850 N   0  0  0  0  0  0  0  0  0  0  0  0
    0.5940   18.9360  -33.9200 C   0  0  0  0  0  0  0  0  0  0  0  0
    0.4920   18.6270  -35.3800 C   0  0  0  0  0  0  0  0  0  0  0  0
    0.1497   17.5900  -35.5123 H   0  0  0  0  0  0  0  0  0  0  0  0
   -0.2272   19.3134  -35.8507 H   0  0  0  0  0  0  0  0  0  0  0  0
    1.4785   18.7503  -35.8507 H   0  0  0  0  0  0  0  0  0  0  0  0
   -0.3780   19.7040  -33.2230 C   0  0  0  0  0  0  0  0  0  0  0  0
   -1.7930   20.3500  -34.0480 Cl  0  0  0  0  0  0  0  0  0  0  0  0
   -3.1260   23.4880  -29.4320 C   0  0  0  0  0  0  0  0  0  0  0  0
   -3.8430   24.0270  -30.6120 C   0  0  0  0  0  0  0  0  0  0  0  0
   -3.8210   25.2650  -30.8410 O   0  0  0  0  0  0  0  0  0  0  0  0
   -4.6490   23.1870  -31.4490 N   0  0  0  0  0  0  0  0  0  0  0  0
   -5.9290   22.6350  -31.1070 C   0  0  0  0  0  0  0  0  0  0  0  0
   -6.7170   23.1820  -30.0790 C   0  0  0  0  0  0  0  0  0  0  0  0
   -6.3556   24.0552  -29.5160 H   0  0  0  0  0  0  0  0  0  0  0  0
   -7.9580   22.6190  -29.7710 C   0  0  0  0  0  0  0  0  0  0  0  0
   -8.5759   23.0559  -28.9727 H   0  0  0  0  0  0  0  0  0  0  0  0
   -8.4160   21.5020  -30.4750 C   0  0  0  0  0  0  0  0  0  0  0  0
   -9.4002   21.0706  -30.2401 H   0  0  0  0  0  0  0  0  0  0  0  0
   -7.6240   20.9310  -31.4790 C   0  0  0  0  0  0  0  0  0  0  0  0
   -8.2150   19.5390  -32.3830 S   0  0  0  0  0  0  0  0  0  0  0  0
   -9.1170   20.0140  -33.4870 O   0  0  0  0  0  0  0  0  0  0  0  0
   -9.0050   18.6410  -31.4700 O   0  0  0  0  0  0  0  0  0  0  0  0
   -6.8580   18.6800  -33.0660 N   0  0  0  0  0  0  0  0  0  0  0  0
   -6.2060   19.4640  -34.1150 C   0  0  0  0  0  0  0  0  0  0  0  0
   -6.6915   19.2793  -35.0846 H   0  0  0  0  0  0  0  0  0  0  0  0
   -6.2772   20.5420  -33.9081 H   0  0  0  0  0  0  0  0  0  0  0  0
   -4.7560   19.0070  -34.1580 C   0  0  0  0  0  0  0  0  0  0  0  0
   -4.6028   18.2887  -34.9769 H   0  0  0  0  0  0  0  0  0  0  0  0
   -4.0673   19.8459  -34.3366 H   0  0  0  0  0  0  0  0  0  0  0  0
   -4.5030   18.3430  -32.8130 C   0  0  0  0  0  0  0  0  0  0  0  0
   -4.2115   17.2914  -32.9516 H   0  0  0  0  0  0  0  0  0  0  0  0
   -3.6849   18.8312  -32.2630 H   0  0  0  0  0  0  0  0  0  0  0  0
   -5.8230   18.4350  -32.0630 C   0  0  0  0  0  0  0  0  0  0  0  0
   -6.0244   17.4927  -31.5324 H   0  0  0  0  0  0  0  0  0  0  0  0
   -5.7981   19.2404  -31.3142 H   0  0  0  0  0  0  0  0  0  0  0  0
   -6.3790   21.4980  -31.7880 C   0  0  0  0  0  0  0  0  0  0  0  0
   -5.7520   21.0461  -32.5708 H   0  0  0  0  0  0  0  0  0  0  0  0
   -3.2520   24.1670  -28.2080 C   0  0  0  0  0  0  0  0  0  0  0  0
   -3.8877   25.0626  -28.1458 H   0  0  0  0  0  0  0  0  0  0  0  0
  1  2  1  0
  2  3  2  0
  3  4  1  0
  3  5  1  0
  5  6  1  0
  5  7  2  0
  7  8  1  0
  8  9  2  0
  8 10  2  0
  8 11  1  0
 11 12  2  0
 12 13  1  0
 13 14  1  0
 14 15  1  0
 15 16  1  0
 16 17  1  0
 16 18  1  0
 16 19  1  0
 15 20  2  0
 20 21  1  0
  7 22  1  0
 22 23  1  0
 23 24  2  0
 23 25  1  0
 25 26  1  0
 26 27  2  0
 27 28  1  0
 27 29  1  0
 29 30  1  0
 29 31  2  0
 31 32  1  0
 31 33  1  0
 33 34  1  0
 34 35  2  0
 34 36  2  0
 34 37  1  0
 37 38  1  0
 38 39  1  0
 38 40  1  0
 38 41  1  0
 41 42  1  0
 41 43  1  0
 41 44  1  0
 44 45  1  0
 44 46  1  0
 44 47  1  0
 47 48  1  0
 47 49  1  0
 33 50  2  0
 50 51  1  0
 22 52  2  0
 52 53  1  0
 52  2  1  0
 20 12  1  0
 50 26  1  0
 47 37  1  0
M  CHG  2  14  -1  25  -1
M  END
>  <UniqueID>  (39) 
39

>  <SMILES>  (39) 
Cc1[n-]s/c(=N/S(=O)(=O)c2ccccc2C(=O)[N-]c2cccc(S(=O)(=O)N3CCCC3)c2)c1Cl

>  <Energy>  (39) 
108.49175115097113

>  <Genealogy>  (39) 
Cc1[n-]sc(=NS(=O)(=O)c2ccccc2C(=O)[N-]c2cccc(S(=O)(=O)N3CCCC3)c2)c1Cl (protonated)
Cc1[n-]s/c(=N/S(=O)(=O)c2ccccc2C(=O)[N-]c2cccc(S(=O)(=O)N3CCCC3)c2)c1Cl (cis-trans isomerization)
Cc1[n-]s/c(=N/S(=O)(=O)c2ccccc2C(=O)[N-]c2cccc(S(=O)(=O)N3CCCC3)c2)c1Cl (3D coordinates assigned)
Cc1[n-]s/c(=N/S(=O)(=O)c2ccccc2C(=O)[N-]c2cccc(S(=O)(=O)N3CCCC3)c2)c1Cl (nonaromatic ring conformer: 108.49175115097113 kcal/mol)

>  <smiles>  (39) 
Cc1[nH]sc(=NS(=O)(=O)c2ccccc2C(=O)Nc2cccc(S(=O)(=O)N3CCCC3)c2)c1Cl

>  <score_type>  (39) 
oracle

>  <origin>  (39) 
adgpu

>  <m_score__min__energy>  (39) 
-11.279999999999999

>  <m_primary>  (39) 
energy

$$$$
39:0
     RDKit          3D

 38 41  0  0  0  0  0  0  0  0999 V2000
   -9.7050   20.8170  -32.1190 O   0  0  0  0  0  0  0  0  0  0  0  0
   -8.5080   21.2050  -32.1040 C   0  0  0  0  0  0  0  0  0  0  0  0
   -7.5110   20.5300  -32.7190 N   0  0  0  0  0  0  0  0  0  0  0  0
   -6.3250   21.1700  -32.5470 C   0  0  0  0  0  0  0  0  0  0  0  0
   -5.1080   20.7210  -33.0620 C   0  0  0  0  0  0  0  0  0  0  0  0
   -5.0400   19.5500  -33.8090 O   0  0  0  0  0  0  0  0  0  0  0  0
   -3.9480   21.4720  -32.8140 C   0  0  0  0  0  0  0  0  0  0  0  0
   -4.0140   22.6590  -32.0600 C   0  0  0  0  0  0  0  0  0  0  0  0
   -5.2430   23.1140  -31.5450 C   0  0  0  0  0  0  0  0  0  0  0  0
   -5.3330   24.6200  -30.6310 S   0  0  0  0  0  0  0  0  0  0  0  0
   -6.2320   24.4650  -29.4360 O   0  0  0  0  0  0  0  0  0  0  0  0
   -5.8890   25.6940  -31.5230 O   0  0  0  0  0  0  0  0  0  0  0  0
   -3.7510   25.0870  -30.0940 N   0  0  0  0  0  0  0  0  0  0  0  0
   -2.8500   24.2520  -29.3540 C   0  0  0  0  0  0  0  0  0  0  0  0
   -3.1890   22.9390  -28.9820 C   0  0  0  0  0  0  0  0  0  0  0  0
   -2.2820   22.1360  -28.2740 C   0  0  0  0  0  0  0  0  0  0  0  0
   -1.0010   22.6470  -27.9550 C   0  0  0  0  0  0  0  0  0  0  0  0
   -0.6800   23.9660  -28.3050 C   0  0  0  0  0  0  0  0  0  0  0  0
   -1.5940   24.7600  -29.0010 C   0  0  0  0  0  0  0  0  0  0  0  0
   -1.2450   26.0610  -29.3470 O   0  0  0  0  0  0  0  0  0  0  0  0
   -0.0070   21.8420  -27.1500 C   0  0  0  0  0  0  0  0  0  0  0  0
   -0.3010   20.3400  -27.1830 C   0  0  0  0  0  0  0  0  0  0  0  0
   -1.7780   20.0790  -26.8850 C   0  0  0  0  0  0  0  0  0  0  0  0
   -2.6600   20.7060  -27.9680 C   0  0  0  0  0  0  0  0  0  0  0  0
   -6.3830   22.3430  -31.8020 C   0  0  0  0  0  0  0  0  0  0  0  0
   -7.9780   22.6080  -31.3280 S   0  0  0  0  0  0  0  0  0  0  0  0
   -2.9809   21.1306  -33.2116 H   0  0  0  0  0  0  0  0  0  0  0  0
   -3.0969   23.2364  -31.8714 H   0  0  0  0  0  0  0  0  0  0  0  0
   -4.1772   22.5365  -29.2493 H   0  0  0  0  0  0  0  0  0  0  0  0
    0.3012   24.3795  -28.0288 H   0  0  0  0  0  0  0  0  0  0  0  0
    0.9992   22.0130  -27.5602 H   0  0  0  0  0  0  0  0  0  0  0  0
   -0.0804   22.1728  -26.1035 H   0  0  0  0  0  0  0  0  0  0  0  0
   -0.0571   19.9448  -28.1802 H   0  0  0  0  0  0  0  0  0  0  0  0
    0.3111   19.8398  -26.4180 H   0  0  0  0  0  0  0  0  0  0  0  0
   -1.9557   18.9938  -26.8562 H   0  0  0  0  0  0  0  0  0  0  0  0
   -2.0310   20.5294  -25.9139 H   0  0  0  0  0  0  0  0  0  0  0  0
   -2.5624   20.1118  -28.8886 H   0  0  0  0  0  0  0  0  0  0  0  0
   -3.6940   20.7094  -27.5928 H   0  0  0  0  0  0  0  0  0  0  0  0
  1  2  2  0
  2  3  1  0
  3  4  1  0
  4  5  2  0
  5  6  1  0
  5  7  1  0
  7  8  2  0
  8  9  1  0
  9 10  1  0
 10 11  2  0
 10 12  2  0
 10 13  1  0
 13 14  1  0
 14 15  2  0
 15 16  1  0
 16 17  2  0
 17 18  1  0
 18 19  2  0
 19 20  1  0
 17 21  1  0
 21 22  1  0
 22 23  1  0
 23 24  1  0
  9 25  2  0
 25 26  1  0
 26  2  1  0
 25  4  1  0
 19 14  1  0
 24 16  1  0
  7 27  1  0
  8 28  1  0
 15 29  1  0
 18 30  1  0
 21 31  1  0
 21 32  1  0
 22 33  1  0
 22 34  1  0
 23 35  1  0
 23 36  1  0
 24 37  1  0
 24 38  1  0
M  CHG  4   3  -1   6  -1  13  -1  20  -1
M  END
>  <UniqueID>  (40) 
40

>  <SMILES>  (40) 
O=c1[n-]c2c([O-])ccc(S(=O)(=O)[N-]c3cc4c(cc3[O-])CCCC4)c2s1

>  <Energy>  (40) 
79.35358523626859

>  <Genealogy>  (40) 
O=c1[n-]c2c([O-])ccc(S(=O)(=O)[N-]c3cc4c(cc3[O-])CCCC4)c2s1 (protonated)
O=c1[n-]c2c([O-])ccc(S(=O)(=O)[N-]c3cc4c(cc3[O-])CCCC4)c2s1 (3D coordinates assigned)
O=c1[n-]c2c([O-])ccc(S(=O)(=O)[N-]c3cc4c(cc3[O-])CCCC4)c2s1 (nonaromatic ring conformer: 79.35358523626859 kcal/mol)

>  <smiles>  (40) 
O=c1[nH]c2c(O)ccc(S(=O)(=O)Nc3cc4c(cc3O)CCCC4)c2s1

>  <score_type>  (40) 
oracle

>  <origin>  (40) 
adgpu

>  <m_score__min__energy>  (40) 
-13.199999999999999

>  <m_primary>  (40) 
energy

$$$$
40:0
     RDKit          3D

 53 56  0  0  0  0  0  0  0  0999 V2000
   -2.1040   22.7430  -26.9230 O   0  0  0  0  0  0  0  0  0  0  0  0
   -3.1760   22.3110  -27.8840 S   0  0  0  0  0  0  0  0  0  0  0  0
   -4.2010   21.5050  -27.1380 O   0  0  0  0  0  0  0  0  0  0  0  0
   -3.9560   23.7190  -28.5370 N   0  0  0  0  0  0  0  0  0  0  0  0
   -4.8870   23.6890  -29.6360 C   0  0  0  0  0  0  0  0  0  0  0  0
   -5.8660   22.6830  -29.7390 C   0  0  0  0  0  0  0  0  0  0  0  0
   -6.7110   22.6150  -30.8580 C   0  0  0  0  0  0  0  0  0  0  0  0
   -7.6310   21.5180  -31.0070 N   0  0  0  0  0  0  0  0  0  0  0  0
   -9.0790   21.7170  -30.8790 C   0  0  0  0  0  0  0  0  0  0  0  0
   -9.8350   20.9570  -31.9940 C   0  0  0  0  0  0  0  0  0  0  0  0
   -9.0260   20.0360  -32.7110 O   0  0  0  0  0  0  0  0  0  0  0  0
   -8.2330   19.2800  -31.8190 C   0  0  0  0  0  0  0  0  0  0  0  0
   -7.1200   20.1650  -31.2550 C   0  0  0  0  0  0  0  0  0  0  0  0
   -6.6040   23.5920  -31.8590 C   0  0  0  0  0  0  0  0  0  0  0  0
   -5.6680   24.6200  -31.7430 C   0  0  0  0  0  0  0  0  0  0  0  0
   -4.8080   24.6700  -30.6440 C   0  0  0  0  0  0  0  0  0  0  0  0
   -3.8640   25.6880  -30.5680 O   0  0  0  0  0  0  0  0  0  0  0  0
   -2.4230   21.3270  -29.1510 C   0  0  0  0  0  0  0  0  0  0  0  0
   -2.8700   21.4670  -30.4740 C   0  0  0  0  0  0  0  0  0  0  0  0
   -2.2830   20.7290  -31.5090 C   0  0  0  0  0  0  0  0  0  0  0  0
   -2.9050   20.8750  -33.1510 S   0  0  0  0  0  0  0  0  0  0  0  0
   -3.6710   22.1610  -33.2890 O   0  0  0  0  0  0  0  0  0  0  0  0
   -1.7570   20.9120  -34.1210 O   0  0  0  0  0  0  0  0  0  0  0  0
   -3.9480   19.5090  -33.5360 C   0  0  0  0  0  0  0  0  0  0  0  0
   -3.4200   18.2100  -33.5490 C   0  0  0  0  0  0  0  0  0  0  0  0
   -4.2340   17.1240  -33.8800 C   0  0  0  0  0  0  0  0  0  0  0  0
   -5.5770   17.3290  -34.2090 C   0  0  0  0  0  0  0  0  0  0  0  0
   -6.1090   18.6220  -34.1960 C   0  0  0  0  0  0  0  0  0  0  0  0
   -5.2990   19.7100  -33.8560 C   0  0  0  0  0  0  0  0  0  0  0  0
   -1.2240   19.8600  -31.2240 C   0  0  0  0  0  0  0  0  0  0  0  0
   -0.7840   19.7000  -29.9080 C   0  0  0  0  0  0  0  0  0  0  0  0
   -1.3860   20.4140  -28.8660 C   0  0  0  0  0  0  0  0  0  0  0  0
   -0.8300   20.1120  -27.2240 Cl  0  0  0  0  0  0  0  0  0  0  0  0
   -3.6350   24.6400  -28.1650 H   0  0  0  0  0  0  0  0  0  0  0  0
   -5.9702   21.9414  -28.9333 H   0  0  0  0  0  0  0  0  0  0  0  0
   -9.4098   21.3432  -29.8988 H   0  0  0  0  0  0  0  0  0  0  0  0
   -9.2983   22.7910  -30.9712 H   0  0  0  0  0  0  0  0  0  0  0  0
  -10.6662   20.4029  -31.5336 H   0  0  0  0  0  0  0  0  0  0  0  0
  -10.1801   21.7104  -32.7174 H   0  0  0  0  0  0  0  0  0  0  0  0
   -8.8599   18.9086  -30.9949 H   0  0  0  0  0  0  0  0  0  0  0  0
   -7.7894   18.4271  -32.3537 H   0  0  0  0  0  0  0  0  0  0  0  0
   -6.7557   19.7345  -30.3105 H   0  0  0  0  0  0  0  0  0  0  0  0
   -6.2971   20.2179  -31.9831 H   0  0  0  0  0  0  0  0  0  0  0  0
   -7.2614   23.5473  -32.7398 H   0  0  0  0  0  0  0  0  0  0  0  0
   -5.6072   25.3951  -32.5212 H   0  0  0  0  0  0  0  0  0  0  0  0
   -3.6903   22.1640  -30.7002 H   0  0  0  0  0  0  0  0  0  0  0  0
   -2.3617   18.0457  -33.2978 H   0  0  0  0  0  0  0  0  0  0  0  0
   -3.8174   16.1059  -33.8817 H   0  0  0  0  0  0  0  0  0  0  0  0
   -6.2147   16.4740  -34.4779 H   0  0  0  0  0  0  0  0  0  0  0  0
   -7.1661   18.7836  -34.4536 H   0  0  0  0  0  0  0  0  0  0  0  0
   -5.7219   20.7253  -33.8394 H   0  0  0  0  0  0  0  0  0  0  0  0
   -0.7373   19.3020  -32.0375 H   0  0  0  0  0  0  0  0  0  0  0  0
    0.0421   19.0074  -29.6891 H   0  0  0  0  0  0  0  0  0  0  0  0
  1  2  2  0
  2  3  2  0
  2  4  1  0
  4  5  1  0
  5  6  2  0
  6  7  1  0
  7  8  1  0
  8  9  1  0
  9 10  1  0
 10 11  1  0
 11 12  1  0
 12 13  1  0
  7 14  2  0
 14 15  1  0
 15 16  2  0
 16 17  1  0
  2 18  1  0
 18 19  2  0
 19 20  1  0
 20 21  1  0
 21 22  2  0
 21 23  2  0
 21 24  1  0
 24 25  2  0
 25 26  1  0
 26 27  2  0
 27 28  1  0
 28 29  2  0
 20 30  2  0
 30 31  1  0
 31 32  2  0
 32 33  1  0
 16  5  1  0
 32 18  1  0
 13  8  1  0
 29 24  1  0
  4 34  1  0
  6 35  1  0
  9 36  1  0
  9 37  1  0
 10 38  1  0
 10 39  1  0
 12 40  1  0
 12 41  1  0
 13 42  1  0
 13 43  1  0
 14 44  1  0
 15 45  1  0
 19 46  1  0
 25 47  1  0
 26 48  1  0
 27 49  1  0
 28 50  1  0
 29 51  1  0
 30 52  1  0
 31 53  1  0
M  CHG  1  17  -1
M  END
>  <UniqueID>  (41) 
41

>  <SMILES>  (41) 
O=S(=O)(Nc1cc(N2CCOCC2)ccc1[O-])c1cc(S(=O)(=O)c2ccccc2)ccc1Cl

>  <Energy>  (41) 
69.37464475504969

>  <Genealogy>  (41) 
O=S(=O)(Nc1cc(N2CCOCC2)ccc1[O-])c1cc(S(=O)(=O)c2ccccc2)ccc1Cl (protonated)
O=S(=O)(Nc1cc(N2CCOCC2)ccc1[O-])c1cc(S(=O)(=O)c2ccccc2)ccc1Cl (3D coordinates assigned)
O=S(=O)(Nc1cc(N2CCOCC2)ccc1[O-])c1cc(S(=O)(=O)c2ccccc2)ccc1Cl (nonaromatic ring conformer: 69.37464475504969 kcal/mol)

>  <smiles>  (41) 
O=S(=O)(Nc1cc(N2CCOCC2)ccc1O)c1cc(S(=O)(=O)c2ccccc2)ccc1Cl

>  <score_type>  (41) 
oracle

>  <origin>  (41) 
adgpu

>  <m_score__min__energy>  (41) 
-13.550000000000001

>  <m_primary>  (41) 
energy

$$$$
41:0
     RDKit          3D

 62 65  0  0  0  0  0  0  0  0999 V2000
   -1.8560   22.8520  -29.6400 O   0  0  0  0  0  0  0  0  0  0  0  0
   -2.4440   22.6330  -30.7330 C   0  0  0  0  0  0  0  0  0  0  0  0
   -1.7060   22.1460  -31.8630 N   0  0  0  0  0  0  0  0  0  0  0  0
   -1.1830   20.8200  -32.0260 C   0  0  0  0  0  0  0  0  0  0  0  0
   -0.1910   20.3860  -31.1380 C   0  0  0  0  0  0  0  0  0  0  0  0
    0.3510   19.0980  -31.2460 C   0  0  0  0  0  0  0  0  0  0  0  0
    1.5820   18.5590  -30.1000 S   0  0  0  0  0  0  0  0  0  0  0  0
    1.9640   17.1360  -30.4070 O   0  0  0  0  0  0  0  0  0  0  0  0
    2.8100   19.4130  -30.2620 O   0  0  0  0  0  0  0  0  0  0  0  0
    1.0080   18.6520  -28.4520 N   0  0  0  0  0  0  0  0  0  0  0  0
   -0.4500   18.4170  -28.4240 C   0  0  0  0  0  0  0  0  0  0  0  0
   -1.0770   18.6080  -27.0300 C   0  0  0  0  0  0  0  0  0  0  0  0
   -1.6720   20.0050  -26.7770 C   0  0  0  0  0  0  0  0  0  0  0  0
   -0.6920   21.1910  -26.9300 C   0  0  0  0  0  0  0  0  0  0  0  0
    0.3250   21.0360  -28.0730 C   0  0  0  0  0  0  0  0  0  0  0  0
    1.3910   19.9380  -27.8320 C   0  0  0  0  0  0  0  0  0  0  0  0
   -0.0930   18.2450  -32.2650 C   0  0  0  0  0  0  0  0  0  0  0  0
   -1.0460   18.6880  -33.1840 C   0  0  0  0  0  0  0  0  0  0  0  0
   -1.5800   19.9770  -33.0840 C   0  0  0  0  0  0  0  0  0  0  0  0
   -2.4660   20.4170  -34.0580 O   0  0  0  0  0  0  0  0  0  0  0  0
   -3.8840   22.9480  -30.8780 C   0  0  0  0  0  0  0  0  0  0  0  0
   -4.7940   21.9150  -31.1660 C   0  0  0  0  0  0  0  0  0  0  0  0
   -6.1590   22.1840  -31.3210 C   0  0  0  0  0  0  0  0  0  0  0  0
   -7.2630   20.8630  -31.6900 S   0  0  0  0  0  0  0  0  0  0  0  0
   -8.5160   20.9990  -30.8690 O   0  0  0  0  0  0  0  0  0  0  0  0
   -7.6210   20.9350  -33.1500 O   0  0  0  0  0  0  0  0  0  0  0  0
   -6.4610   19.3480  -31.3320 N   0  0  0  0  0  0  0  0  0  0  0  0
   -7.3790   18.1950  -31.4640 C   0  0  0  0  0  0  0  0  0  0  0  0
   -7.2270   17.4670  -32.8140 C   0  0  0  0  0  0  0  0  0  0  0  0
   -6.8500   18.3760  -33.8240 O   0  0  0  0  0  0  0  0  0  0  0  0
   -5.5270   18.8360  -33.6020 C   0  0  0  0  0  0  0  0  0  0  0  0
   -5.2300   19.1760  -32.1220 C   0  0  0  0  0  0  0  0  0  0  0  0
   -6.6270   23.4950  -31.1850 C   0  0  0  0  0  0  0  0  0  0  0  0
   -5.7360   24.5280  -30.8890 C   0  0  0  0  0  0  0  0  0  0  0  0
   -4.3710   24.2640  -30.7330 C   0  0  0  0  0  0  0  0  0  0  0  0
   -3.5140   25.3130  -30.4150 O   0  0  0  0  0  0  0  0  0  0  0  0
    0.1664   21.0627  -30.3478 H   0  0  0  0  0  0  0  0  0  0  0  0
   -0.9294   19.1205  -29.1207 H   0  0  0  0  0  0  0  0  0  0  0  0
   -0.6140   17.3679  -28.7113 H   0  0  0  0  0  0  0  0  0  0  0  0
   -1.8811   17.8668  -26.9117 H   0  0  0  0  0  0  0  0  0  0  0  0
   -0.2611   18.4820  -26.3030 H   0  0  0  0  0  0  0  0  0  0  0  0
   -2.4969   20.1546  -27.4892 H   0  0  0  0  0  0  0  0  0  0  0  0
   -1.9852   20.0101  -25.7225 H   0  0  0  0  0  0  0  0  0  0  0  0
   -1.2810   22.1013  -27.1155 H   0  0  0  0  0  0  0  0  0  0  0  0
   -0.1097   21.2372  -25.9979 H   0  0  0  0  0  0  0  0  0  0  0  0
   -0.2251   20.7865  -28.9923 H   0  0  0  0  0  0  0  0  0  0  0  0
    0.8664   21.9908  -28.1452 H   0  0  0  0  0  0  0  0  0  0  0  0
    2.3470   20.2698  -28.2632 H   0  0  0  0  0  0  0  0  0  0  0  0
    1.4786   19.7804  -26.7469 H   0  0  0  0  0  0  0  0  0  0  0  0
    0.3101   17.2243  -32.3411 H   0  0  0  0  0  0  0  0  0  0  0  0
   -1.3790   18.0194  -33.9916 H   0  0  0  0  0  0  0  0  0  0  0  0
   -4.4285   20.8828  -31.2708 H   0  0  0  0  0  0  0  0  0  0  0  0
   -7.1676   17.4819  -30.6536 H   0  0  0  0  0  0  0  0  0  0  0  0
   -8.4077   18.5804  -31.4076 H   0  0  0  0  0  0  0  0  0  0  0  0
   -6.4555   16.6885  -32.7209 H   0  0  0  0  0  0  0  0  0  0  0  0
   -8.1918   17.0133  -33.0849 H   0  0  0  0  0  0  0  0  0  0  0  0
   -4.8271   18.0517  -33.9259 H   0  0  0  0  0  0  0  0  0  0  0  0
   -5.4079   19.7662  -34.1770 H   0  0  0  0  0  0  0  0  0  0  0  0
   -4.6387   18.3590  -31.6828 H   0  0  0  0  0  0  0  0  0  0  0  0
   -4.6785   20.1275  -32.0986 H   0  0  0  0  0  0  0  0  0  0  0  0
   -7.6979   23.7122  -31.3114 H   0  0  0  0  0  0  0  0  0  0  0  0
   -6.1097   25.5566  -30.7776 H   0  0  0  0  0  0  0  0  0  0  0  0
  1  2  2  0
  2  3  1  0
  3  4  1  0
  4  5  2  0
  5  6  1  0
  6  7  1  0
  7  8  2  0
  7  9  2  0
  7 10  1  0
 10 11  1  0
 11 12  1  0
 12 13  1  0
 13 14  1  0
 14 15  1  0
 15 16  1  0
  6 17  2  0
 17 18  1  0
 18 19  2  0
 19 20  1  0
  2 21  1  0
 21 22  2  0
 22 23  1  0
 23 24  1  0
 24 25  2  0
 24 26  2  0
 24 27  1  0
 27 28  1  0
 28 29  1  0
 29 30  1  0
 30 31  1  0
 31 32  1  0
 23 33  2  0
 33 34  1  0
 34 35  2  0
 35 36  1  0
 19  4  1  0
 35 21  1  0
 16 10  1  0
 32 27  1  0
  5 37  1  0
 11 38  1  0
 11 39  1  0
 12 40  1  0
 12 41  1  0
 13 42  1  0
 13 43  1  0
 14 44  1  0
 14 45  1  0
 15 46  1  0
 15 47  1  0
 16 48  1  0
 16 49  1  0
 17 50  1  0
 18 51  1  0
 22 52  1  0
 28 53  1  0
 28 54  1  0
 29 55  1  0
 29 56  1  0
 31 57  1  0
 31 58  1  0
 32 59  1  0
 32 60  1  0
 33 61  1  0
 34 62  1  0
M  CHG  3   3  -1  20  -1  36  -1
M  END
>  <UniqueID>  (42) 
42

>  <SMILES>  (42) 
O=C([N-]c1cc(S(=O)(=O)N2CCCCCC2)ccc1[O-])c1cc(S(=O)(=O)N2CCOCC2)ccc1[O-]

>  <Energy>  (42) 
90.8448081862968

>  <Genealogy>  (42) 
O=C([N-]c1cc(S(=O)(=O)N2CCCCCC2)ccc1[O-])c1cc(S(=O)(=O)N2CCOCC2)ccc1[O-] (protonated)
O=C([N-]c1cc(S(=O)(=O)N2CCCCCC2)ccc1[O-])c1cc(S(=O)(=O)N2CCOCC2)ccc1[O-] (3D coordinates assigned)
O=C([N-]c1cc(S(=O)(=O)N2CCCCCC2)ccc1[O-])c1cc(S(=O)(=O)N2CCOCC2)ccc1[O-] (nonaromatic ring conformer: 90.8448081862968 kcal/mol)

>  <smiles>  (42) 
O=C(Nc1cc(S(=O)(=O)N2CCCCCC2)ccc1O)c1cc(S(=O)(=O)N2CCOCC2)ccc1O

>  <score_type>  (42) 
oracle

>  <origin>  (42) 
adgpu

>  <m_score__min__energy>  (42) 
-13.359999999999999

>  <m_primary>  (42) 
energy

$$$$
42:0
     RDKit          3D

 51 54  0  0  0  0  0  0  0  0999 V2000
   -2.3170   21.9950  -34.4310 H   0  0  0  0  0  0  0  0  0  0  0  0
   -2.7190   21.7770  -33.5280 O   0  0  0  0  0  0  0  0  0  0  0  0
   -3.5480   20.6750  -33.3110 C   0  0  0  0  0  0  0  0  0  0  0  0
   -3.1900   19.4540  -33.8890 C   0  0  0  0  0  0  0  0  0  0  0  0
   -2.2562   19.3771  -34.4653 H   0  0  0  0  0  0  0  0  0  0  0  0
   -4.0060   18.3310  -33.7420 C   0  0  0  0  0  0  0  0  0  0  0  0
   -3.7096   17.3772  -34.2029 H   0  0  0  0  0  0  0  0  0  0  0  0
   -5.2030   18.4090  -33.0100 C   0  0  0  0  0  0  0  0  0  0  0  0
   -6.0650   17.2140  -32.8480 C   0  0  0  0  0  0  0  0  0  0  0  0
   -7.2330   17.2170  -33.3260 O   0  0  0  0  0  0  0  0  0  0  0  0
   -5.6020   16.0950  -32.0730 N   0  0  0  0  0  0  0  0  0  0  0  0
   -4.8830   15.0770  -32.4590 C   0  0  0  0  0  0  0  0  0  0  0  0
   -4.6440   14.0470  -31.5390 C   0  0  0  0  0  0  0  0  0  0  0  0
   -5.0655   14.1057  -30.5246 H   0  0  0  0  0  0  0  0  0  0  0  0
   -3.8700   12.9460  -31.9120 C   0  0  0  0  0  0  0  0  0  0  0  0
   -3.6933   12.1315  -31.1942 H   0  0  0  0  0  0  0  0  0  0  0  0
   -3.3350   12.8780  -33.1580 N   0  0  0  0  0  0  0  0  0  0  0  0
   -3.5310   13.8660  -34.0710 C   0  0  0  0  0  0  0  0  0  0  0  0
   -3.0812   13.7846  -35.0715 H   0  0  0  0  0  0  0  0  0  0  0  0
   -4.3020   14.9850  -33.7430 C   0  0  0  0  0  0  0  0  0  0  0  0
   -4.4550   15.7877  -34.4793 H   0  0  0  0  0  0  0  0  0  0  0  0
   -5.5570   19.6330  -32.4180 C   0  0  0  0  0  0  0  0  0  0  0  0
   -6.4917   19.7063  -31.8427 H   0  0  0  0  0  0  0  0  0  0  0  0
   -4.7340   20.7660  -32.5500 C   0  0  0  0  0  0  0  0  0  0  0  0
   -5.1230   22.0140  -31.8610 C   0  0  0  0  0  0  0  0  0  0  0  0
   -6.4760   22.3370  -31.6980 C   0  0  0  0  0  0  0  0  0  0  0  0
   -7.2510   21.6602  -32.0871 H   0  0  0  0  0  0  0  0  0  0  0  0
   -6.8460   23.5140  -31.0440 C   0  0  0  0  0  0  0  0  0  0  0  0
   -7.9112   23.7646  -30.9318 H   0  0  0  0  0  0  0  0  0  0  0  0
   -5.8670   24.3810  -30.5280 C   0  0  0  0  0  0  0  0  0  0  0  0
   -6.2780   25.6420  -29.8190 C   0  0  0  0  0  0  0  0  0  0  0  0
   -6.2267   25.4846  -28.7315 H   0  0  0  0  0  0  0  0  0  0  0  0
   -5.6000   26.4602  -30.1034 H   0  0  0  0  0  0  0  0  0  0  0  0
   -7.3079   25.9036  -30.1034 H   0  0  0  0  0  0  0  0  0  0  0  0
   -4.5060   24.0330  -30.6380 C   0  0  0  0  0  0  0  0  0  0  0  0
   -3.4950   24.9240  -30.1350 N   0  0  0  0  0  0  0  0  0  0  0  0
   -2.5840   24.6620  -29.2380 C   0  0  0  0  0  0  0  0  0  0  0  0
   -1.6500   25.6130  -28.9690 N   0  0  0  0  0  0  0  0  0  0  0  0
   -0.6670   25.4270  -28.0500 C   0  0  0  0  0  0  0  0  0  0  0  0
    0.0721   26.2212  -27.8685 H   0  0  0  0  0  0  0  0  0  0  0  0
   -0.5930   24.2310  -27.3360 C   0  0  0  0  0  0  0  0  0  0  0  0
    0.2142   24.0695  -26.6064 H   0  0  0  0  0  0  0  0  0  0  0  0
   -1.5550   23.2380  -27.5560 C   0  0  0  0  0  0  0  0  0  0  0  0
   -1.4900   21.9370  -26.8120 C   0  0  0  0  0  0  0  0  0  0  0  0
   -1.4998   22.1327  -25.7296 H   0  0  0  0  0  0  0  0  0  0  0  0
   -2.3583   21.3173  -27.0804 H   0  0  0  0  0  0  0  0  0  0  0  0
   -0.5643   21.4070  -27.0804 H   0  0  0  0  0  0  0  0  0  0  0  0
   -2.5540   23.4490  -28.5180 C   0  0  0  0  0  0  0  0  0  0  0  0
   -3.3097   22.6731  -28.7099 H   0  0  0  0  0  0  0  0  0  0  0  0
   -4.1430   22.8660  -31.3300 C   0  0  0  0  0  0  0  0  0  0  0  0
   -3.0790   22.6174  -31.4570 H   0  0  0  0  0  0  0  0  0  0  0  0
  1  2  1  0
  2  3  1  0
  3  4  2  0
  4  5  1  0
  4  6  1  0
  6  7  1  0
  6  8  2  0
  8  9  1  0
  9 10  2  0
  9 11  1  0
 11 12  2  3
 12 13  1  0
 13 14  1  0
 13 15  2  0
 15 16  1  0
 15 17  1  0
 17 18  1  0
 18 19  1  0
 18 20  2  0
 20 21  1  0
  8 22  1  0
 22 23  1  0
 22 24  2  0
 24 25  1  0
 25 26  2  0
 26 27  1  0
 26 28  1  0
 28 29  1  0
 28 30  2  0
 30 31  1  0
 31 32  1  0
 31 33  1  0
 31 34  1  0
 30 35  1  0
 35 36  1  0
 36 37  2  0
 37 38  1  0
 38 39  1  0
 39 40  1  0
 39 41  2  0
 41 42  1  0
 41 43  1  0
 43 44  1  0
 44 45  1  0
 44 46  1  0
 44 47  1  0
 43 48  2  0
 48 49  1  0
 35 50  2  0
 50 51  1  0
 24  3  1  0
 50 25  1  0
 20 12  1  0
 48 37  1  0
M  CHG  2  17  -1  38  -1
M  END
>  <UniqueID>  (43) 
43

>  <SMILES>  (43) 
Cc1cc[n-]/c(=N/c2cc(-c3cc(C(=O)N=c4cc[n-]cc4)ccc3O)ccc2C)c1

>  <Energy>  (43) 
81.83157676101294

>  <Genealogy>  (43) 
Cc1cc[n-]c(=Nc2cc(-c3cc(C(=O)N=c4cc[n-]cc4)ccc3O)ccc2C)c1 (protonated)
Cc1cc[n-]/c(=N/c2cc(-c3cc(C(=O)N=c4cc[n-]cc4)ccc3O)ccc2C)c1 (cis-trans isomerization)
Cc1cc[n-]/c(=N/c2cc(-c3cc(C(=O)N=c4cc[n-]cc4)ccc3O)ccc2C)c1 (3D coordinates assigned)
Cc1cc[n-]/c(=N/c2cc(-c3cc(C(=O)N=c4cc[n-]cc4)ccc3O)ccc2C)c1 (optimized conformer: 81.83157676101294 kcal/mol)

>  <smiles>  (43) 
Cc1cc[nH]c(=Nc2cc(-c3cc(C(=O)N=c4cc[nH]cc4)ccc3O)ccc2C)c1

>  <score_type>  (43) 
oracle

>  <origin>  (43) 
adgpu

>  <m_score__min__energy>  (43) 
-12.199999999999999

>  <m_primary>  (43) 
energy

$$$$
43:0
     RDKit          3D

 59 62  0  0  0  0  0  0  0  0999 V2000
   -1.8360   24.2450  -28.7370 O   0  0  0  0  0  0  0  0  0  0  0  0
   -2.6140   23.3080  -29.0630 C   0  0  0  0  0  0  0  0  0  0  0  0
   -4.0090   23.4020  -28.7520 N   0  0  0  0  0  0  0  0  0  0  0  0
   -5.0370   23.6640  -29.7150 C   0  0  0  0  0  0  0  0  0  0  0  0
   -6.1010   22.7630  -29.8950 C   0  0  0  0  0  0  0  0  0  0  0  0
   -7.0470   22.9740  -30.9040 C   0  0  0  0  0  0  0  0  0  0  0  0
   -8.2990   21.7670  -31.1720 S   0  0  0  0  0  0  0  0  0  0  0  0
   -9.0730   21.5850  -29.8950 O   0  0  0  0  0  0  0  0  0  0  0  0
   -9.2400   22.2200  -32.2540 O   0  0  0  0  0  0  0  0  0  0  0  0
   -7.5460   20.2590  -31.6300 N   0  0  0  0  0  0  0  0  0  0  0  0
   -6.7240   20.4570  -32.8450 C   0  0  0  0  0  0  0  0  0  0  0  0
   -6.3170   19.1220  -33.5090 C   0  0  0  0  0  0  0  0  0  0  0  0
   -6.4660   17.9470  -32.5410 C   0  0  0  0  0  0  0  0  0  0  0  0
   -7.9090   17.8460  -32.0180 C   0  0  0  0  0  0  0  0  0  0  0  0
   -8.5710   19.2260  -31.8450 C   0  0  0  0  0  0  0  0  0  0  0  0
   -6.9460   24.1070  -31.7230 C   0  0  0  0  0  0  0  0  0  0  0  0
   -5.8910   25.0060  -31.5470 C   0  0  0  0  0  0  0  0  0  0  0  0
   -4.9280   24.7780  -30.5580 C   0  0  0  0  0  0  0  0  0  0  0  0
   -3.8660   25.6640  -30.4150 O   0  0  0  0  0  0  0  0  0  0  0  0
   -2.0870   22.1150  -29.7580 C   0  0  0  0  0  0  0  0  0  0  0  0
   -1.2240   21.2230  -29.0990 C   0  0  0  0  0  0  0  0  0  0  0  0
   -0.7890   20.0600  -29.7410 C   0  0  0  0  0  0  0  0  0  0  0  0
   -1.2250   19.7660  -31.0350 C   0  0  0  0  0  0  0  0  0  0  0  0
   -2.0850   20.6450  -31.7030 C   0  0  0  0  0  0  0  0  0  0  0  0
   -2.7150   20.2300  -33.2960 S   0  0  0  0  0  0  0  0  0  0  0  0
   -3.8330   21.1790  -33.6300 O   0  0  0  0  0  0  0  0  0  0  0  0
   -3.2790   18.8360  -33.2550 O   0  0  0  0  0  0  0  0  0  0  0  0
   -1.4570   20.3710  -34.5090 N   0  0  0  0  0  0  0  0  0  0  0  0
   -0.5410   21.5020  -34.2630 C   0  0  0  0  0  0  0  0  0  0  0  0
    0.5230   21.1590  -33.2140 C   0  0  0  0  0  0  0  0  0  0  0  0
    1.2530   20.0180  -33.6090 O   0  0  0  0  0  0  0  0  0  0  0  0
    0.3900   18.9010  -33.6610 C   0  0  0  0  0  0  0  0  0  0  0  0
   -0.7260   19.1040  -34.7030 C   0  0  0  0  0  0  0  0  0  0  0  0
   -2.5030   21.8230  -31.0680 C   0  0  0  0  0  0  0  0  0  0  0  0
   -6.1905   21.8856  -29.2377 H   0  0  0  0  0  0  0  0  0  0  0  0
   -7.3023   21.0493  -33.5694 H   0  0  0  0  0  0  0  0  0  0  0  0
   -5.8016   20.9749  -32.5434 H   0  0  0  0  0  0  0  0  0  0  0  0
   -6.9596   18.9476  -34.3846 H   0  0  0  0  0  0  0  0  0  0  0  0
   -5.2604   19.1923  -33.8069 H   0  0  0  0  0  0  0  0  0  0  0  0
   -6.2063   17.0146  -33.0637 H   0  0  0  0  0  0  0  0  0  0  0  0
   -5.7929   18.1085  -31.6861 H   0  0  0  0  0  0  0  0  0  0  0  0
   -8.5028   17.2568  -32.7323 H   0  0  0  0  0  0  0  0  0  0  0  0
   -7.8735   17.3657  -31.0290 H   0  0  0  0  0  0  0  0  0  0  0  0
   -9.1468   19.4686  -32.7503 H   0  0  0  0  0  0  0  0  0  0  0  0
   -9.2387   19.1963  -30.9713 H   0  0  0  0  0  0  0  0  0  0  0  0
   -7.6980   24.2886  -32.5050 H   0  0  0  0  0  0  0  0  0  0  0  0
   -5.8173   25.8965  -32.1885 H   0  0  0  0  0  0  0  0  0  0  0  0
   -0.8895   21.4408  -28.0740 H   0  0  0  0  0  0  0  0  0  0  0  0
   -0.1009   19.3739  -29.2253 H   0  0  0  0  0  0  0  0  0  0  0  0
   -0.8918   18.8419  -31.5299 H   0  0  0  0  0  0  0  0  0  0  0  0
   -0.0390   21.7645  -35.2059 H   0  0  0  0  0  0  0  0  0  0  0  0
   -1.1357   22.3453  -33.8819 H   0  0  0  0  0  0  0  0  0  0  0  0
    1.2115   22.0098  -33.1044 H   0  0  0  0  0  0  0  0  0  0  0  0
    0.0251   20.9500  -32.2557 H   0  0  0  0  0  0  0  0  0  0  0  0
    0.9743   18.0090  -33.9310 H   0  0  0  0  0  0  0  0  0  0  0  0
   -0.0764   18.7763  -32.6726 H   0  0  0  0  0  0  0  0  0  0  0  0
   -0.2753   19.1069  -35.7064 H   0  0  0  0  0  0  0  0  0  0  0  0
   -1.4465   18.2812  -34.5854 H   0  0  0  0  0  0  0  0  0  0  0  0
   -3.1623   22.5247  -31.5999 H   0  0  0  0  0  0  0  0  0  0  0  0
  1  2  2  0
  2  3  1  0
  3  4  1  0
  4  5  2  0
  5  6  1  0
  6  7  1  0
  7  8  2  0
  7  9  2  0
  7 10  1  0
 10 11  1  0
 11 12  1  0
 12 13  1  0
 13 14  1  0
 14 15  1  0
  6 16  2  0
 16 17  1  0
 17 18  2  0
 18 19  1  0
  2 20  1  0
 20 21  2  0
 21 22  1  0
 22 23  2  0
 23 24  1  0
 24 25  1  0
 25 26  2  0
 25 27  2  0
 25 28  1  0
 28 29  1  0
 29 30  1  0
 30 31  1  0
 31 32  1  0
 32 33  1  0
 24 34  2  0
 18  4  1  0
 34 20  1  0
 15 10  1  0
 33 28  1  0
  5 35  1  0
 11 36  1  0
 11 37  1  0
 12 38  1  0
 12 39  1  0
 13 40  1  0
 13 41  1  0
 14 42  1  0
 14 43  1  0
 15 44  1  0
 15 45  1  0
 16 46  1  0
 17 47  1  0
 21 48  1  0
 22 49  1  0
 23 50  1  0
 29 51  1  0
 29 52  1  0
 30 53  1  0
 30 54  1  0
 32 55  1  0
 32 56  1  0
 33 57  1  0
 33 58  1  0
 34 59  1  0
M  CHG  2   3  -1  19  -1
M  END
>  <UniqueID>  (44) 
44

>  <SMILES>  (44) 
O=C([N-]c1cc(S(=O)(=O)N2CCCCC2)ccc1[O-])c1cccc(S(=O)(=O)N2CCOCC2)c1

>  <Energy>  (44) 
73.58709426150592

>  <Genealogy>  (44) 
O=C([N-]c1cc(S(=O)(=O)N2CCCCC2)ccc1[O-])c1cccc(S(=O)(=O)N2CCOCC2)c1 (protonated)
O=C([N-]c1cc(S(=O)(=O)N2CCCCC2)ccc1[O-])c1cccc(S(=O)(=O)N2CCOCC2)c1 (3D coordinates assigned)
O=C([N-]c1cc(S(=O)(=O)N2CCCCC2)ccc1[O-])c1cccc(S(=O)(=O)N2CCOCC2)c1 (nonaromatic ring conformer: 73.58709426150592 kcal/mol)

>  <smiles>  (44) 
O=C(Nc1cc(S(=O)(=O)N2CCCCC2)ccc1O)c1cccc(S(=O)(=O)N2CCOCC2)c1

>  <score_type>  (44) 
oracle

>  <origin>  (44) 
adgpu

>  <m_score__min__energy>  (44) 
-15.109999999999999

>  <m_primary>  (44) 
energy

$$$$
44:0
     RDKit          3D

 60 63  0  0  0  0  0  0  0  0999 V2000
   -2.7100   22.3070  -31.7090 O   0  0  0  0  0  0  0  0  0  0  0  0
   -3.5420   22.9390  -30.9990 C   0  0  0  0  0  0  0  0  0  0  0  0
   -3.0670   23.8130  -29.9620 N   0  0  0  0  0  0  0  0  0  0  0  0
   -1.8050   23.6360  -29.2920 C   0  0  0  0  0  0  0  0  0  0  0  0
   -1.2750   22.3510  -29.0740 C   0  0  0  0  0  0  0  0  0  0  0  0
   -0.0520   22.1850  -28.4120 C   0  0  0  0  0  0  0  0  0  0  0  0
    0.5980   20.5650  -28.1800 S   0  0  0  0  0  0  0  0  0  0  0  0
    1.9320   20.6410  -27.4850 O   0  0  0  0  0  0  0  0  0  0  0  0
   -0.3610   19.7790  -27.3270 O   0  0  0  0  0  0  0  0  0  0  0  0
    0.7910   19.7870  -29.7330 N   0  0  0  0  0  0  0  0  0  0  0  0
    1.5590   18.5260  -29.6110 C   0  0  0  0  0  0  0  0  0  0  0  0
    0.6610   17.2830  -29.7460 C   0  0  0  0  0  0  0  0  0  0  0  0
   -0.0480   17.2350  -30.9760 O   0  0  0  0  0  0  0  0  0  0  0  0
   -0.4510   18.5140  -31.4560 C   0  0  0  0  0  0  0  0  0  0  0  0
   -0.5260   19.6000  -30.3710 C   0  0  0  0  0  0  0  0  0  0  0  0
    0.6350   23.3060  -27.9340 C   0  0  0  0  0  0  0  0  0  0  0  0
    0.1080   24.5850  -28.1240 C   0  0  0  0  0  0  0  0  0  0  0  0
   -1.1070   24.7540  -28.7990 C   0  0  0  0  0  0  0  0  0  0  0  0
   -1.6110   26.0380  -28.9800 O   0  0  0  0  0  0  0  0  0  0  0  0
   -4.9950   22.8030  -31.2780 C   0  0  0  0  0  0  0  0  0  0  0  0
   -5.8590   23.9010  -31.1560 C   0  0  0  0  0  0  0  0  0  0  0  0
   -7.2220   23.7550  -31.3950 C   0  0  0  0  0  0  0  0  0  0  0  0
   -7.7530   22.5170  -31.7660 C   0  0  0  0  0  0  0  0  0  0  0  0
   -9.4990   22.4180  -31.9810 Cl  0  0  0  0  0  0  0  0  0  0  0  0
   -6.9020   21.3950  -31.9140 C   0  0  0  0  0  0  0  0  0  0  0  0
   -7.5890   19.8080  -32.3580 S   0  0  0  0  0  0  0  0  0  0  0  0
   -8.5830   20.0290  -33.4650 O   0  0  0  0  0  0  0  0  0  0  0  0
   -8.3280   19.2770  -31.1610 O   0  0  0  0  0  0  0  0  0  0  0  0
   -6.4810   18.5780  -32.9320 N   0  0  0  0  0  0  0  0  0  0  0  0
   -5.7310   18.9870  -34.1330 C   0  0  0  0  0  0  0  0  0  0  0  0
   -4.6420   17.9560  -34.4490 C   0  0  0  0  0  0  0  0  0  0  0  0
   -5.2430   16.5530  -34.5800 C   0  0  0  0  0  0  0  0  0  0  0  0
   -6.0610   16.1920  -33.3340 C   0  0  0  0  0  0  0  0  0  0  0  0
   -7.1240   17.2600  -33.0700 C   0  0  0  0  0  0  0  0  0  0  0  0
   -5.5320   21.5520  -31.6370 C   0  0  0  0  0  0  0  0  0  0  0  0
   -3.6310   24.6640  -29.7390 H   0  0  0  0  0  0  0  0  0  0  0  0
   -1.8270   21.4675  -29.4272 H   0  0  0  0  0  0  0  0  0  0  0  0
    2.3231   18.4986  -30.4018 H   0  0  0  0  0  0  0  0  0  0  0  0
    2.0169   18.5048  -28.6111 H   0  0  0  0  0  0  0  0  0  0  0  0
    1.2928   16.3856  -29.6716 H   0  0  0  0  0  0  0  0  0  0  0  0
   -0.0861   17.3308  -28.9400 H   0  0  0  0  0  0  0  0  0  0  0  0
    0.2709   18.8389  -32.2197 H   0  0  0  0  0  0  0  0  0  0  0  0
   -1.4693   18.3951  -31.8547 H   0  0  0  0  0  0  0  0  0  0  0  0
   -0.8437   20.5481  -30.8295 H   0  0  0  0  0  0  0  0  0  0  0  0
   -1.2505   19.2869  -29.6048 H   0  0  0  0  0  0  0  0  0  0  0  0
    1.5924   23.1796  -27.4073 H   0  0  0  0  0  0  0  0  0  0  0  0
    0.6494   25.4630  -27.7420 H   0  0  0  0  0  0  0  0  0  0  0  0
   -5.4566   24.8839  -30.8696 H   0  0  0  0  0  0  0  0  0  0  0  0
   -7.8887   24.6237  -31.2907 H   0  0  0  0  0  0  0  0  0  0  0  0
   -6.4216   19.0601  -34.9861 H   0  0  0  0  0  0  0  0  0  0  0  0
   -5.2600   19.9638  -33.9486 H   0  0  0  0  0  0  0  0  0  0  0  0
   -4.1515   18.2280  -35.3952 H   0  0  0  0  0  0  0  0  0  0  0  0
   -3.9115   17.9513  -33.6266 H   0  0  0  0  0  0  0  0  0  0  0  0
   -5.8984   16.5225  -35.4629 H   0  0  0  0  0  0  0  0  0  0  0  0
   -4.4234   15.8270  -34.6860 H   0  0  0  0  0  0  0  0  0  0  0  0
   -6.5533   15.2210  -33.4917 H   0  0  0  0  0  0  0  0  0  0  0  0
   -5.3867   16.1357  -32.4668 H   0  0  0  0  0  0  0  0  0  0  0  0
   -7.8332   17.2855  -33.9105 H   0  0  0  0  0  0  0  0  0  0  0  0
   -7.6605   17.0177  -32.1408 H   0  0  0  0  0  0  0  0  0  0  0  0
   -4.8660   20.6789  -31.7022 H   0  0  0  0  0  0  0  0  0  0  0  0
  1  2  2  0
  2  3  1  0
  3  4  1  0
  4  5  2  0
  5  6  1  0
  6  7  1  0
  7  8  2  0
  7  9  2  0
  7 10  1  0
 10 11  1  0
 11 12  1  0
 12 13  1  0
 13 14  1  0
 14 15  1  0
  6 16  2  0
 16 17  1  0
 17 18  2  0
 18 19  1  0
  2 20  1  0
 20 21  2  0
 21 22  1  0
 22 23  2  0
 23 24  1  0
 23 25  1  0
 25 26  1  0
 26 27  2  0
 26 28  2  0
 26 29  1  0
 29 30  1  0
 30 31  1  0
 31 32  1  0
 32 33  1  0
 33 34  1  0
 25 35  2  0
 18  4  1  0
 35 20  1  0
 15 10  1  0
 34 29  1  0
  3 36  1  0
  5 37  1  0
 11 38  1  0
 11 39  1  0
 12 40  1  0
 12 41  1  0
 14 42  1  0
 14 43  1  0
 15 44  1  0
 15 45  1  0
 16 46  1  0
 17 47  1  0
 21 48  1  0
 22 49  1  0
 30 50  1  0
 30 51  1  0
 31 52  1  0
 31 53  1  0
 32 54  1  0
 32 55  1  0
 33 56  1  0
 33 57  1  0
 34 58  1  0
 34 59  1  0
 35 60  1  0
M  CHG  1  19  -1
M  END
>  <UniqueID>  (45) 
45

>  <SMILES>  (45) 
O=C(Nc1cc(S(=O)(=O)N2CCOCC2)ccc1[O-])c1ccc(Cl)c(S(=O)(=O)N2CCCCC2)c1

>  <Energy>  (45) 
83.62865714117618

>  <Genealogy>  (45) 
O=C(Nc1cc(S(=O)(=O)N2CCOCC2)ccc1[O-])c1ccc(Cl)c(S(=O)(=O)N2CCCCC2)c1 (protonated)
O=C(Nc1cc(S(=O)(=O)N2CCOCC2)ccc1[O-])c1ccc(Cl)c(S(=O)(=O)N2CCCCC2)c1 (3D coordinates assigned)
O=C(Nc1cc(S(=O)(=O)N2CCOCC2)ccc1[O-])c1ccc(Cl)c(S(=O)(=O)N2CCCCC2)c1 (nonaromatic ring conformer: 83.62865714117618 kcal/mol)

>  <smiles>  (45) 
O=C(Nc1cc(S(=O)(=O)N2CCOCC2)ccc1O)c1ccc(Cl)c(S(=O)(=O)N2CCCCC2)c1

>  <score_type>  (45) 
oracle

>  <origin>  (45) 
adgpu

>  <m_score__min__energy>  (45) 
-13.359999999999999

>  <m_primary>  (45) 
energy

$$$$
45:0
     RDKit          3D

 59 62  0  0  0  0  0  0  0  0999 V2000
   -3.8970   20.5190  -32.1270 O   0  0  0  0  0  0  0  0  0  0  0  0
   -4.1370   21.7530  -32.0700 C   0  0  0  0  0  0  0  0  0  0  0  0
   -3.1140   22.6490  -32.3550 O   0  0  0  0  0  0  0  0  0  0  0  0
   -5.4980   22.2590  -31.7800 C   0  0  0  0  0  0  0  0  0  0  0  0
   -5.7730   23.2290  -30.8730 C   0  0  0  0  0  0  0  0  0  0  0  0
   -4.5270   24.0930  -29.9490 S   0  0  0  0  0  0  0  0  0  0  0  0
   -5.1420   24.7680  -28.7560 O   0  0  0  0  0  0  0  0  0  0  0  0
   -3.9140   25.1530  -30.8230 O   0  0  0  0  0  0  0  0  0  0  0  0
   -3.2970   22.9650  -29.3870 C   0  0  0  0  0  0  0  0  0  0  0  0
   -3.6480   21.9260  -28.5190 C   0  0  0  0  0  0  0  0  0  0  0  0
   -2.6890   21.0010  -28.1040 C   0  0  0  0  0  0  0  0  0  0  0  0
   -1.3590   21.0920  -28.5550 C   0  0  0  0  0  0  0  0  0  0  0  0
   -0.3800   20.0970  -28.1750 N   0  0  0  0  0  0  0  0  0  0  0  0
    0.9940   20.4990  -27.8450 C   0  0  0  0  0  0  0  0  0  0  0  0
    2.0280   19.4580  -28.3100 C   0  0  0  0  0  0  0  0  0  0  0  0
    1.5320   18.0660  -28.3190 N   0  0  0  0  0  0  0  0  0  0  0  0
    1.3890   17.3910  -29.9320 S   0  0  0  0  0  0  0  0  0  0  0  0
    2.7670   17.1200  -30.4720 O   0  0  0  0  0  0  0  0  0  0  0  0
    0.6680   16.0740  -29.8430 O   0  0  0  0  0  0  0  0  0  0  0  0
    0.5440   18.4400  -31.0800 C   0  0  0  0  0  0  0  0  0  0  0  0
   -0.6350   18.0080  -31.7070 C   0  0  0  0  0  0  0  0  0  0  0  0
   -1.3210   18.8530  -32.5840 C   0  0  0  0  0  0  0  0  0  0  0  0
   -0.8480   20.1450  -32.8300 C   0  0  0  0  0  0  0  0  0  0  0  0
   -1.5380   20.9760  -33.7100 O   0  0  0  0  0  0  0  0  0  0  0  0
    0.3140   20.5920  -32.1880 C   0  0  0  0  0  0  0  0  0  0  0  0
    1.0070   19.7450  -31.3170 C   0  0  0  0  0  0  0  0  0  0  0  0
    0.3530   17.8270  -27.4700 C   0  0  0  0  0  0  0  0  0  0  0  0
   -0.8230   18.7350  -27.8410 C   0  0  0  0  0  0  0  0  0  0  0  0
   -1.0070   22.1680  -29.3940 C   0  0  0  0  0  0  0  0  0  0  0  0
   -1.9680   23.0950  -29.8070 C   0  0  0  0  0  0  0  0  0  0  0  0
   -7.2170   23.6190  -30.6600 C   0  0  0  0  0  0  0  0  0  0  0  0
   -8.0980   22.3680  -30.5500 C   0  0  0  0  0  0  0  0  0  0  0  0
   -7.8510   21.3500  -31.6880 C   0  0  0  0  0  0  0  0  0  0  0  0
   -6.6490   21.6940  -32.5860 C   0  0  0  0  0  0  0  0  0  0  0  0
   -4.6846   21.8376  -28.1618 H   0  0  0  0  0  0  0  0  0  0  0  0
   -2.9759   20.1916  -27.4166 H   0  0  0  0  0  0  0  0  0  0  0  0
    1.2108   21.4588  -28.3368 H   0  0  0  0  0  0  0  0  0  0  0  0
    1.0686   20.5860  -26.7510 H   0  0  0  0  0  0  0  0  0  0  0  0
    2.3421   19.7178  -29.3317 H   0  0  0  0  0  0  0  0  0  0  0  0
    2.8548   19.4917  -27.5853 H   0  0  0  0  0  0  0  0  0  0  0  0
   -1.0217   16.9978  -31.5069 H   0  0  0  0  0  0  0  0  0  0  0  0
   -2.2360   18.5000  -33.0821 H   0  0  0  0  0  0  0  0  0  0  0  0
   -2.4040   21.4290  -33.4410 H   0  0  0  0  0  0  0  0  0  0  0  0
    0.6826   21.6124  -32.3694 H   0  0  0  0  0  0  0  0  0  0  0  0
    1.9185   20.1022  -30.8154 H   0  0  0  0  0  0  0  0  0  0  0  0
    0.0407   16.7786  -27.5851 H   0  0  0  0  0  0  0  0  0  0  0  0
    0.6357   18.0497  -26.4305 H   0  0  0  0  0  0  0  0  0  0  0  0
   -1.3424   18.3066  -28.7109 H   0  0  0  0  0  0  0  0  0  0  0  0
   -1.4928   18.7981  -26.9707 H   0  0  0  0  0  0  0  0  0  0  0  0
    0.0353   22.2796  -29.7275 H   0  0  0  0  0  0  0  0  0  0  0  0
   -1.6793   23.9289  -30.4638 H   0  0  0  0  0  0  0  0  0  0  0  0
   -7.3013   24.2044  -29.7325 H   0  0  0  0  0  0  0  0  0  0  0  0
   -7.5548   24.2191  -31.5177 H   0  0  0  0  0  0  0  0  0  0  0  0
   -7.8889   21.8760  -29.5886 H   0  0  0  0  0  0  0  0  0  0  0  0
   -9.1451   22.6965  -30.6254 H   0  0  0  0  0  0  0  0  0  0  0  0
   -7.6740   20.3627  -31.2365 H   0  0  0  0  0  0  0  0  0  0  0  0
   -8.7437   21.3682  -32.3305 H   0  0  0  0  0  0  0  0  0  0  0  0
   -6.3124   20.7805  -33.0981 H   0  0  0  0  0  0  0  0  0  0  0  0
   -6.9679   22.4554  -33.3130 H   0  0  0  0  0  0  0  0  0  0  0  0
  1  2  2  0
  2  3  1  0
  2  4  1  0
  4  5  2  0
  5  6  1  0
  6  7  2  0
  6  8  2  0
  6  9  1  0
  9 10  2  0
 10 11  1  0
 11 12  2  0
 12 13  1  0
 13 14  1  0
 14 15  1  0
 15 16  1  0
 16 17  1  0
 17 18  2  0
 17 19  2  0
 17 20  1  0
 20 21  2  0
 21 22  1  0
 22 23  2  0
 23 24  1  0
 23 25  1  0
 25 26  2  0
 16 27  1  0
 27 28  1  0
 12 29  1  0
 29 30  2  0
  5 31  1  0
 31 32  1  0
 32 33  1  0
 33 34  1  0
 34  4  1  0
 30  9  1  0
 28 13  1  0
 26 20  1  0
 10 35  1  0
 11 36  1  0
 14 37  1  0
 14 38  1  0
 15 39  1  0
 15 40  1  0
 21 41  1  0
 22 42  1  0
 24 43  1  0
 25 44  1  0
 26 45  1  0
 27 46  1  0
 27 47  1  0
 28 48  1  0
 28 49  1  0
 29 50  1  0
 30 51  1  0
 31 52  1  0
 31 53  1  0
 32 54  1  0
 32 55  1  0
 33 56  1  0
 33 57  1  0
 34 58  1  0
 34 59  1  0
M  CHG  1   3  -1
M  END
>  <UniqueID>  (46) 
46

>  <SMILES>  (46) 
O=C([O-])C1=C(S(=O)(=O)c2ccc(N3CCN(S(=O)(=O)c4ccc(O)cc4)CC3)cc2)CCCC1

>  <Energy>  (46) 
79.38939365386042

>  <Genealogy>  (46) 
O=C([O-])C1=C(S(=O)(=O)c2ccc(N3CCN(S(=O)(=O)c4ccc(O)cc4)CC3)cc2)CCCC1 (protonated)
O=C([O-])C1=C(S(=O)(=O)c2ccc(N3CCN(S(=O)(=O)c4ccc(O)cc4)CC3)cc2)CCCC1 (3D coordinates assigned)
O=C([O-])C1=C(S(=O)(=O)c2ccc(N3CCN(S(=O)(=O)c4ccc(O)cc4)CC3)cc2)CCCC1 (nonaromatic ring conformer: 79.38939365386042 kcal/mol)

>  <smiles>  (46) 
O=C(O)C1=C(S(=O)(=O)c2ccc(N3CCN(S(=O)(=O)c4ccc(O)cc4)CC3)cc2)CCCC1

>  <score_type>  (46) 
oracle

>  <origin>  (46) 
adgpu

>  <m_score__min__energy>  (46) 
-11.25

>  <m_primary>  (46) 
energy

$$$$
46:0
     RDKit          3D

 56 59  0  0  0  0  0  0  0  0999 V2000
   -6.7700   19.9840  -34.2760 O   0  0  0  0  0  0  0  0  0  0  0  0
   -5.7530   20.2240  -33.1940 S   0  0  0  0  0  0  0  0  0  0  0  0
   -4.5550   20.8700  -33.8350 O   0  0  0  0  0  0  0  0  0  0  0  0
   -6.4250   21.3550  -32.0120 C   0  0  0  0  0  0  0  0  0  0  0  0
   -7.6890   21.1150  -31.4550 C   0  0  0  0  0  0  0  0  0  0  0  0
   -8.1890   21.9550  -30.4590 C   0  0  0  0  0  0  0  0  0  0  0  0
   -7.4260   23.0290  -29.9970 C   0  0  0  0  0  0  0  0  0  0  0  0
   -6.1660   23.2930  -30.5520 C   0  0  0  0  0  0  0  0  0  0  0  0
   -5.1900   24.6340  -29.9390 S   0  0  0  0  0  0  0  0  0  0  0  0
   -6.1000   25.6680  -29.3350 O   0  0  0  0  0  0  0  0  0  0  0  0
   -4.4740   25.2730  -31.0960 O   0  0  0  0  0  0  0  0  0  0  0  0
   -4.0220   24.1430  -28.7290 N   0  0  0  0  0  0  0  0  0  0  0  0
   -4.2150   22.7460  -28.2850 C   0  0  0  0  0  0  0  0  0  0  0  0
   -3.5240   21.7250  -29.2040 C   0  0  0  0  0  0  0  0  0  0  0  0
   -2.2140   22.2000  -29.6590 N   0  0  0  0  0  0  0  0  0  0  0  0
   -1.6100   21.6110  -30.8310 C   0  0  0  0  0  0  0  0  0  0  0  0
   -2.2320   21.7090  -32.0900 C   0  0  0  0  0  0  0  0  0  0  0  0
   -1.6740   21.0810  -33.2070 C   0  0  0  0  0  0  0  0  0  0  0  0
   -0.4910   20.3470  -33.0850 C   0  0  0  0  0  0  0  0  0  0  0  0
    0.0490   19.7210  -34.2050 O   0  0  0  0  0  0  0  0  0  0  0  0
    0.1370   20.2460  -31.8380 C   0  0  0  0  0  0  0  0  0  0  0  0
   -0.4200   20.8710  -30.7180 C   0  0  0  0  0  0  0  0  0  0  0  0
   -1.6360   23.3680  -28.9940 C   0  0  0  0  0  0  0  0  0  0  0  0
   -2.6300   24.5310  -29.0720 C   0  0  0  0  0  0  0  0  0  0  0  0
   -5.6690   22.4510  -31.5640 C   0  0  0  0  0  0  0  0  0  0  0  0
   -5.2620   18.6870  -32.5080 N   0  0  0  0  0  0  0  0  0  0  0  0
   -4.1500   18.0630  -33.2440 C   0  0  0  0  0  0  0  0  0  0  0  0
   -4.6170   17.3410  -34.5260 C   0  0  0  0  0  0  0  0  0  0  0  0
   -6.0230   17.2190  -34.6170 O   0  0  0  0  0  0  0  0  0  0  0  0
   -6.5430   16.7220  -33.4060 C   0  0  0  0  0  0  0  0  0  0  0  0
   -6.3970   17.7680  -32.2860 C   0  0  0  0  0  0  0  0  0  0  0  0
   -8.2888   20.2616  -31.8043 H   0  0  0  0  0  0  0  0  0  0  0  0
   -9.1877   21.7702  -30.0365 H   0  0  0  0  0  0  0  0  0  0  0  0
   -7.8155   23.6713  -29.1934 H   0  0  0  0  0  0  0  0  0  0  0  0
   -3.8032   22.6401  -27.2705 H   0  0  0  0  0  0  0  0  0  0  0  0
   -5.2946   22.5371  -28.3125 H   0  0  0  0  0  0  0  0  0  0  0  0
   -3.3890   20.7833  -28.6517 H   0  0  0  0  0  0  0  0  0  0  0  0
   -4.1600   21.5770  -30.0892 H   0  0  0  0  0  0  0  0  0  0  0  0
   -3.1638   22.2839  -32.1955 H   0  0  0  0  0  0  0  0  0  0  0  0
   -2.1680   21.1648  -34.1862 H   0  0  0  0  0  0  0  0  0  0  0  0
    0.6510   18.9110  -34.1200 H   0  0  0  0  0  0  0  0  0  0  0  0
    1.0710   19.6735  -31.7389 H   0  0  0  0  0  0  0  0  0  0  0  0
    0.0769   20.7830  -29.7406 H   0  0  0  0  0  0  0  0  0  0  0  0
   -1.4312   23.1283  -27.9401 H   0  0  0  0  0  0  0  0  0  0  0  0
   -0.6956   23.6498  -29.4902 H   0  0  0  0  0  0  0  0  0  0  0  0
   -2.3045   25.3151  -28.3725 H   0  0  0  0  0  0  0  0  0  0  0  0
   -2.6386   24.8806  -30.1149 H   0  0  0  0  0  0  0  0  0  0  0  0
   -4.6825   22.6522  -32.0070 H   0  0  0  0  0  0  0  0  0  0  0  0
   -3.4293   18.8457  -33.5232 H   0  0  0  0  0  0  0  0  0  0  0  0
   -3.6955   17.3093  -32.5842 H   0  0  0  0  0  0  0  0  0  0  0  0
   -4.2584   17.9089  -35.3972 H   0  0  0  0  0  0  0  0  0  0  0  0
   -4.2022   16.3226  -34.4967 H   0  0  0  0  0  0  0  0  0  0  0  0
   -7.6081   16.4825  -33.5408 H   0  0  0  0  0  0  0  0  0  0  0  0
   -5.9835   15.8181  -33.1233 H   0  0  0  0  0  0  0  0  0  0  0  0
   -7.3232   18.3591  -32.2337 H   0  0  0  0  0  0  0  0  0  0  0  0
   -6.2066   17.2258  -31.3480 H   0  0  0  0  0  0  0  0  0  0  0  0
  1  2  2  0
  2  3  2  0
  2  4  1  0
  4  5  2  0
  5  6  1  0
  6  7  2  0
  7  8  1  0
  8  9  1  0
  9 10  2  0
  9 11  2  0
  9 12  1  0
 12 13  1  0
 13 14  1  0
 14 15  1  0
 15 16  1  0
 16 17  2  0
 17 18  1  0
 18 19  2  0
 19 20  1  0
 19 21  1  0
 21 22  2  0
 15 23  1  0
 23 24  1  0
  8 25  2  0
  2 26  1  0
 26 27  1  0
 27 28  1  0
 28 29  1  0
 29 30  1  0
 30 31  1  0
 25  4  1  0
 31 26  1  0
 24 12  1  0
 22 16  1  0
  5 32  1  0
  6 33  1  0
  7 34  1  0
 13 35  1  0
 13 36  1  0
 14 37  1  0
 14 38  1  0
 17 39  1  0
 18 40  1  0
 20 41  1  0
 21 42  1  0
 22 43  1  0
 23 44  1  0
 23 45  1  0
 24 46  1  0
 24 47  1  0
 25 48  1  0
 27 49  1  0
 27 50  1  0
 28 51  1  0
 28 52  1  0
 30 53  1  0
 30 54  1  0
 31 55  1  0
 31 56  1  0
M  END
>  <UniqueID>  (47) 
47

>  <SMILES>  (47) 
O=S(=O)(c1cccc(S(=O)(=O)N2CCN(c3ccc(O)cc3)CC2)c1)N1CCOCC1

>  <Energy>  (47) 
75.26024468484184

>  <Genealogy>  (47) 
O=S(=O)(c1cccc(S(=O)(=O)N2CCN(c3ccc(O)cc3)CC2)c1)N1CCOCC1 (3D coordinates assigned)
O=S(=O)(c1cccc(S(=O)(=O)N2CCN(c3ccc(O)cc3)CC2)c1)N1CCOCC1 (nonaromatic ring conformer: 75.26024468484184 kcal/mol)

>  <smiles>  (47) 
O=S(=O)(c1cccc(S(=O)(=O)N2CCN(c3ccc(O)cc3)CC2)c1)N1CCOCC1

>  <score_type>  (47) 
oracle

>  <origin>  (47) 
adgpu

>  <m_score__min__energy>  (47) 
-10.09

>  <m_primary>  (47) 
energy

$$$$
47:0
     RDKit          3D

 61 64  0  0  0  0  0  0  0  0999 V2000
   -0.8670   26.7960  -28.1820 C   0  0  0  0  0  0  0  0  0  0  0  0
   -1.3590   25.6580  -28.9600 N   0  0  0  0  0  0  0  0  0  0  0  0
   -0.6880   24.1860  -28.3290 S   0  0  0  0  0  0  0  0  0  0  0  0
   -0.9290   24.1260  -26.8460 O   0  0  0  0  0  0  0  0  0  0  0  0
    0.7960   24.1730  -28.5830 O   0  0  0  0  0  0  0  0  0  0  0  0
   -1.4180   22.7900  -29.1200 C   0  0  0  0  0  0  0  0  0  0  0  0
   -2.0380   21.7850  -28.3620 C   0  0  0  0  0  0  0  0  0  0  0  0
   -2.6160   20.6980  -29.0060 C   0  0  0  0  0  0  0  0  0  0  0  0
   -2.5850   20.5950  -30.4010 C   0  0  0  0  0  0  0  0  0  0  0  0
   -1.9750   21.5930  -31.1740 C   0  0  0  0  0  0  0  0  0  0  0  0
   -1.9650   21.5000  -32.6500 C   0  0  0  0  0  0  0  0  0  0  0  0
   -0.8700   21.5550  -33.2720 O   0  0  0  0  0  0  0  0  0  0  0  0
   -3.2070   21.4140  -33.3680 N   0  0  0  0  0  0  0  0  0  0  0  0
   -4.4880   21.0520  -32.8350 C   0  0  0  0  0  0  0  0  0  0  0  0
   -5.3230   21.9910  -32.1960 C   0  0  0  0  0  0  0  0  0  0  0  0
   -6.5740   21.6020  -31.6960 C   0  0  0  0  0  0  0  0  0  0  0  0
   -7.5910   22.7760  -30.8600 S   0  0  0  0  0  0  0  0  0  0  0  0
   -8.6580   22.0350  -30.1030 O   0  0  0  0  0  0  0  0  0  0  0  0
   -8.2490   23.6770  -31.8690 O   0  0  0  0  0  0  0  0  0  0  0  0
   -6.6510   23.7410  -29.7440 N   0  0  0  0  0  0  0  0  0  0  0  0
   -5.3670   23.0750  -29.4480 C   0  0  0  0  0  0  0  0  0  0  0  0
   -4.3180   24.0970  -28.9790 C   0  0  0  0  0  0  0  0  0  0  0  0
   -4.0140   25.0880  -29.9500 O   0  0  0  0  0  0  0  0  0  0  0  0
   -5.0730   25.3320  -30.8670 C   0  0  0  0  0  0  0  0  0  0  0  0
   -6.4740   25.1190  -30.2610 C   0  0  0  0  0  0  0  0  0  0  0  0
   -6.9940   20.2750  -31.8330 C   0  0  0  0  0  0  0  0  0  0  0  0
   -6.1890   19.3490  -32.4920 C   0  0  0  0  0  0  0  0  0  0  0  0
   -4.9410   19.7320  -33.0030 C   0  0  0  0  0  0  0  0  0  0  0  0
   -4.1320   18.7670  -33.6920 N   0  0  0  0  0  0  0  0  0  0  0  0
   -4.7970   17.8790  -34.6630 C   0  0  0  0  0  0  0  0  0  0  0  0
   -3.7910   16.9500  -35.3720 C   0  0  0  0  0  0  0  0  0  0  0  0
   -2.8070   16.4720  -34.4870 O   0  0  0  0  0  0  0  0  0  0  0  0
   -2.0110   17.5530  -34.0610 C   0  0  0  0  0  0  0  0  0  0  0  0
   -2.8160   18.4520  -33.1300 C   0  0  0  0  0  0  0  0  0  0  0  0
   -1.3850   22.6900  -30.5200 C   0  0  0  0  0  0  0  0  0  0  0  0
   -0.9625   26.5751  -27.1087 H   0  0  0  0  0  0  0  0  0  0  0  0
    0.1900   26.9777  -28.4263 H   0  0  0  0  0  0  0  0  0  0  0  0
   -1.4588   27.6905  -28.4263 H   0  0  0  0  0  0  0  0  0  0  0  0
   -2.0662   21.8573  -27.2647 H   0  0  0  0  0  0  0  0  0  0  0  0
   -3.1031   19.9100  -28.4128 H   0  0  0  0  0  0  0  0  0  0  0  0
   -3.0424   19.7249  -30.8947 H   0  0  0  0  0  0  0  0  0  0  0  0
   -4.9915   23.0344  -32.0890 H   0  0  0  0  0  0  0  0  0  0  0  0
   -5.5223   22.3279  -28.6557 H   0  0  0  0  0  0  0  0  0  0  0  0
   -5.0015   22.5897  -30.3650 H   0  0  0  0  0  0  0  0  0  0  0  0
   -4.7005   24.5990  -28.0781 H   0  0  0  0  0  0  0  0  0  0  0  0
   -3.3894   23.5398  -28.7860 H   0  0  0  0  0  0  0  0  0  0  0  0
   -4.9990   26.3729  -31.2150 H   0  0  0  0  0  0  0  0  0  0  0  0
   -4.9627   24.6081  -31.6879 H   0  0  0  0  0  0  0  0  0  0  0  0
   -6.6149   25.8298  -29.4334 H   0  0  0  0  0  0  0  0  0  0  0  0
   -7.2167   25.2820  -31.0559 H   0  0  0  0  0  0  0  0  0  0  0  0
   -7.9636   19.9615  -31.4188 H   0  0  0  0  0  0  0  0  0  0  0  0
   -6.5343   18.3115  -32.6122 H   0  0  0  0  0  0  0  0  0  0  0  0
   -5.5380   17.2628  -34.1326 H   0  0  0  0  0  0  0  0  0  0  0  0
   -5.2790   18.5073  -35.4265 H   0  0  0  0  0  0  0  0  0  0  0  0
   -4.3353   16.0931  -35.7956 H   0  0  0  0  0  0  0  0  0  0  0  0
   -3.2887   17.5289  -36.1610 H   0  0  0  0  0  0  0  0  0  0  0  0
   -1.1298   17.1691  -33.5261 H   0  0  0  0  0  0  0  0  0  0  0  0
   -1.6886   18.1340  -34.9376 H   0  0  0  0  0  0  0  0  0  0  0  0
   -2.9524   17.9383  -32.1669 H   0  0  0  0  0  0  0  0  0  0  0  0
   -2.2634   19.3938  -32.9970 H   0  0  0  0  0  0  0  0  0  0  0  0
   -0.8933   23.4767  -31.1110 H   0  0  0  0  0  0  0  0  0  0  0  0
  1  2  1  0
  2  3  1  0
  3  4  2  0
  3  5  2  0
  3  6  1  0
  6  7  2  0
  7  8  1  0
  8  9  2  0
  9 10  1  0
 10 11  1  0
 11 12  2  0
 11 13  1  0
 13 14  1  0
 14 15  2  0
 15 16  1  0
 16 17  1  0
 17 18  2  0
 17 19  2  0
 17 20  1  0
 20 21  1  0
 21 22  1  0
 22 23  1  0
 23 24  1  0
 24 25  1  0
 16 26  2  0
 26 27  1  0
 27 28  2  0
 28 29  1  0
 29 30  1  0
 30 31  1  0
 31 32  1  0
 32 33  1  0
 33 34  1  0
 10 35  2  0
 35  6  1  0
 28 14  1  0
 34 29  1  0
 25 20  1  0
  1 36  1  0
  1 37  1  0
  1 38  1  0
  7 39  1  0
  8 40  1  0
  9 41  1  0
 15 42  1  0
 21 43  1  0
 21 44  1  0
 22 45  1  0
 22 46  1  0
 24 47  1  0
 24 48  1  0
 25 49  1  0
 25 50  1  0
 26 51  1  0
 27 52  1  0
 30 53  1  0
 30 54  1  0
 31 55  1  0
 31 56  1  0
 33 57  1  0
 33 58  1  0
 34 59  1  0
 34 60  1  0
 35 61  1  0
M  CHG  2   2  -1  13  -1
M  END
>  <UniqueID>  (48) 
48

>  <SMILES>  (48) 
C[N-]S(=O)(=O)c1cccc(C(=O)[N-]c2cc(S(=O)(=O)N3CCOCC3)ccc2N2CCOCC2)c1

>  <Energy>  (48) 
85.89907405301692

>  <Genealogy>  (48) 
C[N-]S(=O)(=O)c1cccc(C(=O)[N-]c2cc(S(=O)(=O)N3CCOCC3)ccc2N2CCOCC2)c1 (protonated)
C[N-]S(=O)(=O)c1cccc(C(=O)[N-]c2cc(S(=O)(=O)N3CCOCC3)ccc2N2CCOCC2)c1 (3D coordinates assigned)
C[N-]S(=O)(=O)c1cccc(C(=O)[N-]c2cc(S(=O)(=O)N3CCOCC3)ccc2N2CCOCC2)c1 (nonaromatic ring conformer: 85.89907405301692 kcal/mol)

>  <smiles>  (48) 
CNS(=O)(=O)c1cccc(C(=O)Nc2cc(S(=O)(=O)N3CCOCC3)ccc2N2CCOCC2)c1

>  <score_type>  (48) 
oracle

>  <origin>  (48) 
adgpu

>  <m_score__min__energy>  (48) 
-11.800000000000001

>  <m_primary>  (48) 
energy

$$$$
48:0
     RDKit          3D

 65 69  0  0  0  0  0  0  0  0999 V2000
    3.1670   23.3450  -35.8710 C   0  0  0  0  0  0  0  0  0  0  0  0
    2.3920   22.0730  -35.7450 C   0  0  0  0  0  0  0  0  0  0  0  0
    1.2120   22.0340  -34.9900 C   0  0  0  0  0  0  0  0  0  0  0  0
    0.4890   20.8350  -34.8850 C   0  0  0  0  0  0  0  0  0  0  0  0
   -0.7700   20.7780  -34.0970 C   0  0  0  0  0  0  0  0  0  0  0  0
   -1.8920   20.1070  -34.5930 C   0  0  0  0  0  0  0  0  0  0  0  0
   -3.0780   20.0540  -33.8600 C   0  0  0  0  0  0  0  0  0  0  0  0
   -3.1850   20.6710  -32.5870 C   0  0  0  0  0  0  0  0  0  0  0  0
   -2.0400   21.3540  -32.0860 C   0  0  0  0  0  0  0  0  0  0  0  0
   -0.8520   21.3960  -32.8420 C   0  0  0  0  0  0  0  0  0  0  0  0
   -2.1000   21.9760  -30.8270 C   0  0  0  0  0  0  0  0  0  0  0  0
   -1.0750   22.5380  -30.3490 O   0  0  0  0  0  0  0  0  0  0  0  0
   -3.2910   21.9470  -30.0890 C   0  0  0  0  0  0  0  0  0  0  0  0
   -3.4120   22.6010  -28.7610 C   0  0  0  0  0  0  0  0  0  0  0  0
   -4.3890   22.3140  -28.0170 O   0  0  0  0  0  0  0  0  0  0  0  0
   -2.4490   23.5700  -28.3230 N   0  0  0  0  0  0  0  0  0  0  0  0
   -2.4570   24.0900  -26.9560 C   0  0  0  0  0  0  0  0  0  0  0  0
   -1.6220   25.3420  -26.8650 C   0  0  0  0  0  0  0  0  0  0  0  0
   -1.2470   25.8470  -25.6120 C   0  0  0  0  0  0  0  0  0  0  0  0
   -0.5030   27.0230  -25.5250 C   0  0  0  0  0  0  0  0  0  0  0  0
   -0.1420   27.6960  -26.6970 C   0  0  0  0  0  0  0  0  0  0  0  0
    0.6290   28.9770  -26.6270 C   0  0  0  0  0  0  0  0  0  0  0  0
   -0.5350   27.2070  -27.9050 N   0  0  0  0  0  0  0  0  0  0  0  0
   -1.2580   26.0620  -28.0190 C   0  0  0  0  0  0  0  0  0  0  0  0
   -1.6010   25.6610  -29.1630 O   0  0  0  0  0  0  0  0  0  0  0  0
   -4.3840   21.2480  -30.6050 C   0  0  0  0  0  0  0  0  0  0  0  0
   -4.3420   20.6240  -31.8230 N   0  0  0  0  0  0  0  0  0  0  0  0
   -5.5810   19.9140  -32.2210 C   0  0  0  0  0  0  0  0  0  0  0  0
   -6.7860   20.8360  -32.1450 C   0  0  0  0  0  0  0  0  0  0  0  0
   -6.6150   22.2200  -32.3510 C   0  0  0  0  0  0  0  0  0  0  0  0
   -5.3950   22.7350  -32.6380 F   0  0  0  0  0  0  0  0  0  0  0  0
   -7.7050   23.0910  -32.2690 C   0  0  0  0  0  0  0  0  0  0  0  0
   -8.9750   22.5990  -31.9780 C   0  0  0  0  0  0  0  0  0  0  0  0
   -9.1640   21.2340  -31.7710 C   0  0  0  0  0  0  0  0  0  0  0  0
   -8.0850   20.3460  -31.8550 C   0  0  0  0  0  0  0  0  0  0  0  0
   -8.4240   18.6360  -31.6020 Cl  0  0  0  0  0  0  0  0  0  0  0  0
    0.9770   19.6910  -35.5400 C   0  0  0  0  0  0  0  0  0  0  0  0
    2.1590   19.7680  -36.2880 C   0  0  0  0  0  0  0  0  0  0  0  0
    2.6970   18.5570  -36.9810 C   0  0  0  0  0  0  0  0  0  0  0  0
    2.8330   20.9470  -36.3690 N   0  0  0  0  0  0  0  0  0  0  0  0
    3.4026   23.7317  -34.8685 H   0  0  0  0  0  0  0  0  0  0  0  0
    4.1014   23.1524  -36.4186 H   0  0  0  0  0  0  0  0  0  0  0  0
    2.5674   24.0870  -36.4186 H   0  0  0  0  0  0  0  0  0  0  0  0
    0.8531   22.9406  -34.4809 H   0  0  0  0  0  0  0  0  0  0  0  0
   -1.8389   19.6140  -35.5749 H   0  0  0  0  0  0  0  0  0  0  0  0
   -3.9467   19.5236  -34.2772 H   0  0  0  0  0  0  0  0  0  0  0  0
    0.0261   21.9228  -32.4403 H   0  0  0  0  0  0  0  0  0  0  0  0
   -1.7910   23.9850  -29.0210 H   0  0  0  0  0  0  0  0  0  0  0  0
   -3.4914   24.3221  -26.6626 H   0  0  0  0  0  0  0  0  0  0  0  0
   -2.0346   23.3297  -26.2826 H   0  0  0  0  0  0  0  0  0  0  0  0
   -1.5404   25.3142  -24.6955 H   0  0  0  0  0  0  0  0  0  0  0  0
   -0.2025   27.4181  -24.5434 H   0  0  0  0  0  0  0  0  0  0  0  0
    0.7929   29.2493  -25.5739 H   0  0  0  0  0  0  0  0  0  0  0  0
    1.5999   28.8484  -27.1278 H   0  0  0  0  0  0  0  0  0  0  0  0
    0.0609   29.7747  -27.1278 H   0  0  0  0  0  0  0  0  0  0  0  0
   -5.3098   21.1969  -30.0132 H   0  0  0  0  0  0  0  0  0  0  0  0
   -5.4712   19.5502  -33.2533 H   0  0  0  0  0  0  0  0  0  0  0  0
   -5.7397   19.0727  -31.5303 H   0  0  0  0  0  0  0  0  0  0  0  0
   -7.5593   24.1686  -32.4348 H   0  0  0  0  0  0  0  0  0  0  0  0
   -9.8295   23.2885  -31.9115 H   0  0  0  0  0  0  0  0  0  0  0  0
  -10.1690   20.8512  -31.5398 H   0  0  0  0  0  0  0  0  0  0  0  0
    0.4324   18.7382  -35.4655 H   0  0  0  0  0  0  0  0  0  0  0  0
    3.0240   17.8209  -36.2319 H   0  0  0  0  0  0  0  0  0  0  0  0
    1.9106   18.1150  -37.6104 H   0  0  0  0  0  0  0  0  0  0  0  0
    3.5521   18.8443  -37.6104 H   0  0  0  0  0  0  0  0  0  0  0  0
  1  2  1  0
  2  3  2  0
  3  4  1  0
  4  5  1  0
  5  6  2  0
  6  7  1  0
  7  8  2  0
  8  9  1  0
  9 10  2  0
  9 11  1  0
 11 12  2  0
 11 13  1  0
 13 14  1  0
 14 15  2  0
 14 16  1  0
 16 17  1  0
 17 18  1  0
 18 19  2  0
 19 20  1  0
 20 21  2  0
 21 22  1  0
 21 23  1  0
 23 24  1  0
 24 25  2  0
 13 26  2  0
 26 27  1  0
 27 28  1  0
 28 29  1  0
 29 30  2  0
 30 31  1  0
 30 32  1  0
 32 33  2  0
 33 34  1  0
 34 35  2  0
 35 36  1  0
  4 37  2  0
 37 38  1  0
 38 39  1  0
 38 40  2  0
 40  2  1  0
 10  5  1  0
 24 18  1  0
 35 29  1  0
 27  8  1  0
  1 41  1  0
  1 42  1  0
  1 43  1  0
  3 44  1  0
  6 45  1  0
  7 46  1  0
 10 47  1  0
 16 48  1  0
 17 49  1  0
 17 50  1  0
 19 51  1  0
 20 52  1  0
 22 53  1  0
 22 54  1  0
 22 55  1  0
 26 56  1  0
 28 57  1  0
 28 58  1  0
 32 59  1  0
 33 60  1  0
 34 61  1  0
 37 62  1  0
 39 63  1  0
 39 64  1  0
 39 65  1  0
M  CHG  1  23  -1
M  END
>  <UniqueID>  (49) 
49

>  <SMILES>  (49) 
Cc1cc(-c2ccc3c(c2)c(=O)c(C(=O)NCc2ccc(C)[n-]c2=O)cn3Cc2c(F)cccc2Cl)cc(C)n1

>  <Energy>  (49) 
92.82138157892686

>  <Genealogy>  (49) 
Cc1cc(-c2ccc3c(c2)c(=O)c(C(=O)NCc2ccc(C)[n-]c2=O)cn3Cc2c(F)cccc2Cl)cc(C)n1 (protonated)
Cc1cc(-c2ccc3c(c2)c(=O)c(C(=O)NCc2ccc(C)[n-]c2=O)cn3Cc2c(F)cccc2Cl)cc(C)n1 (3D coordinates assigned)
Cc1cc(-c2ccc3c(c2)c(=O)c(C(=O)NCc2ccc(C)[n-]c2=O)cn3Cc2c(F)cccc2Cl)cc(C)n1 (optimized conformer: 92.82138157892686 kcal/mol)

>  <smiles>  (49) 
Cc1cc(-c2ccc3c(c2)c(=O)c(C(=O)NCc2ccc(C)[nH]c2=O)cn3Cc2c(F)cccc2Cl)cc(C)n1

>  <score_type>  (49) 
oracle

>  <origin>  (49) 
adgpu

>  <m_score__min__energy>  (49) 
-11.43

>  <m_primary>  (49) 
energy

$$$$
