0:0
     RDKit          3D

 71 75  0  0  0  0  0  0  0  0999 V2000
   -0.7941   20.7927  -25.2817 H   0  0  0  0  0  0  0  0  0  0  0  0
   -0.5180   21.8570  -25.3140 C   0  0  0  0  0  0  0  0  0  0  0  0
   -0.6050   22.6360  -24.1570 C   0  0  0  0  0  0  0  0  0  0  0  0
   -0.9467   22.1838  -23.2143 H   0  0  0  0  0  0  0  0  0  0  0  0
   -0.2580   23.9900  -24.1970 C   0  0  0  0  0  0  0  0  0  0  0  0
   -0.3210   24.5986  -23.2828 H   0  0  0  0  0  0  0  0  0  0  0  0
    0.1710   24.5770  -25.4000 C   0  0  0  0  0  0  0  0  0  0  0  0
    0.5410   26.0100  -25.4390 C   0  0  0  0  0  0  0  0  0  0  0  0
    1.8810   26.3630  -25.6650 C   0  0  0  0  0  0  0  0  0  0  0  0
    2.6388   25.5760  -25.7925 H   0  0  0  0  0  0  0  0  0  0  0  0
    2.2580   27.7030  -25.7290 C   0  0  0  0  0  0  0  0  0  0  0  0
    3.3067   27.9684  -25.9286 H   0  0  0  0  0  0  0  0  0  0  0  0
    1.3110   28.7080  -25.5410 C   0  0  0  0  0  0  0  0  0  0  0  0
    1.6160   29.7633  -25.5993 H   0  0  0  0  0  0  0  0  0  0  0  0
   -0.0280   28.3840  -25.2780 C   0  0  0  0  0  0  0  0  0  0  0  0
   -1.0090   29.5010  -25.0310 C   0  0  0  0  0  0  0  0  0  0  0  0
   -1.1355   29.6451  -23.9478 H   0  0  0  0  0  0  0  0  0  0  0  0
   -0.6289   30.4293  -25.4824 H   0  0  0  0  0  0  0  0  0  0  0  0
   -1.9786   29.2440  -25.4824 H   0  0  0  0  0  0  0  0  0  0  0  0
   -0.4270   27.0240  -25.2650 C   0  0  0  0  0  0  0  0  0  0  0  0
   -1.7900   26.6590  -24.9840 N   0  0  0  0  0  0  0  0  0  0  0  0
   -2.5300   25.9260  -25.7630 C   0  0  0  0  0  0  0  0  0  0  0  0
   -2.0210   25.3980  -26.9100 N   0  0  0  0  0  0  0  0  0  0  0  0
   -2.7690   24.6210  -27.7390 C   0  0  0  0  0  0  0  0  0  0  0  0
   -2.1850   24.1040  -28.9560 N   0  0  0  0  0  0  0  0  0  0  0  0
   -2.8660   23.1240  -29.7580 C   0  0  0  0  0  0  0  0  0  0  0  0
   -2.5480   21.7680  -29.6160 C   0  0  0  0  0  0  0  0  0  0  0  0
   -1.7768   21.4607  -28.8943 H   0  0  0  0  0  0  0  0  0  0  0  0
   -3.2020   20.8040  -30.3830 C   0  0  0  0  0  0  0  0  0  0  0  0
   -2.9426   19.7419  -30.2623 H   0  0  0  0  0  0  0  0  0  0  0  0
   -4.1900   21.1800  -31.3090 C   0  0  0  0  0  0  0  0  0  0  0  0
   -4.8790   20.1820  -32.0950 N   0  0  0  0  0  0  0  0  0  0  0  0
   -4.1310   19.2660  -32.9650 C   0  0  0  0  0  0  0  0  0  0  0  0
   -3.2067   19.7580  -33.3022 H   0  0  0  0  0  0  0  0  0  0  0  0
   -3.8855   18.3541  -32.4010 H   0  0  0  0  0  0  0  0  0  0  0  0
   -4.9810   18.8870  -34.1890 C   0  0  0  0  0  0  0  0  0  0  0  0
   -5.0740   19.7735  -34.8336 H   0  0  0  0  0  0  0  0  0  0  0  0
   -4.4663   18.0528  -34.6881 H   0  0  0  0  0  0  0  0  0  0  0  0
   -6.3480   18.4090  -33.8510 N   0  0  0  0  0  0  0  0  0  0  0  0
   -6.5370   17.0030  -34.2380 C   0  0  0  0  0  0  0  0  0  0  0  0
   -6.6205   16.3819  -33.3340 H   0  0  0  0  0  0  0  0  0  0  0  0
   -7.4561   16.9073  -34.8348 H   0  0  0  0  0  0  0  0  0  0  0  0
   -5.6758   16.6680  -34.8348 H   0  0  0  0  0  0  0  0  0  0  0  0
   -6.7420   18.6070  -32.4400 C   0  0  0  0  0  0  0  0  0  0  0  0
   -7.8343   18.5085  -32.3557 H   0  0  0  0  0  0  0  0  0  0  0  0
   -6.2345   17.8470  -31.8277 H   0  0  0  0  0  0  0  0  0  0  0  0
   -6.3260   19.9900  -31.9360 C   0  0  0  0  0  0  0  0  0  0  0  0
   -6.8588   20.7606  -32.5124 H   0  0  0  0  0  0  0  0  0  0  0  0
   -6.5802   20.0708  -30.8688 H   0  0  0  0  0  0  0  0  0  0  0  0
   -4.5080   22.5430  -31.4500 C   0  0  0  0  0  0  0  0  0  0  0  0
   -5.2789   22.8490  -32.1725 H   0  0  0  0  0  0  0  0  0  0  0  0
   -3.8520   23.5200  -30.6780 C   0  0  0  0  0  0  0  0  0  0  0  0
   -4.1550   24.8870  -30.7890 O   0  0  0  0  0  0  0  0  0  0  0  0
   -5.4210   25.4610  -30.4790 C   0  0  0  0  0  0  0  0  0  0  0  0
   -5.5413   25.5156  -29.3870 H   0  0  0  0  0  0  0  0  0  0  0  0
   -5.4789   26.4734  -30.9053 H   0  0  0  0  0  0  0  0  0  0  0  0
   -6.2206   24.8374  -30.9053 H   0  0  0  0  0  0  0  0  0  0  0  0
   -0.8460   24.5410  -29.3580 C   0  0  0  0  0  0  0  0  0  0  0  0
   -0.2402   24.7387  -28.4614 H   0  0  0  0  0  0  0  0  0  0  0  0
   -0.3674   23.7524  -29.9573 H   0  0  0  0  0  0  0  0  0  0  0  0
   -0.9248   25.4601  -29.9573 H   0  0  0  0  0  0  0  0  0  0  0  0
   -4.1060   24.3630  -27.3960 C   0  0  0  0  0  0  0  0  0  0  0  0
   -4.7434   23.7492  -28.0495 H   0  0  0  0  0  0  0  0  0  0  0  0
   -4.6110   24.8990  -26.2120 C   0  0  0  0  0  0  0  0  0  0  0  0
   -5.6535   24.7020  -25.9216 H   0  0  0  0  0  0  0  0  0  0  0  0
   -3.8190   25.6640  -25.4160 N   0  0  0  0  0  0  0  0  0  0  0  0
   -4.2150   26.0560  -24.5320 H   0  0  0  0  0  0  0  0  0  0  0  0
    0.2670   23.7820  -26.5560 C   0  0  0  0  0  0  0  0  0  0  0  0
    0.6171   24.2267  -27.4992 H   0  0  0  0  0  0  0  0  0  0  0  0
   -0.0810   22.4280  -26.5110 C   0  0  0  0  0  0  0  0  0  0  0  0
   -0.0103   21.8122  -27.4197 H   0  0  0  0  0  0  0  0  0  0  0  0
  1  2  1  0
  2  3  2  0
  3  4  1  0
  3  5  1  0
  5  6  1  0
  5  7  2  0
  7  8  1  0
  8  9  2  0
  9 10  1  0
  9 11  1  0
 11 12  1  0
 11 13  2  0
 13 14  1  0
 13 15  1  0
 15 16  1  0
 16 17  1  0
 16 18  1  0
 16 19  1  0
 15 20  2  0
 20 21  1  0
 21 22  2  0
 22 23  1  0
 23 24  2  0
 24 25  1  0
 25 26  1  0
 26 27  2  0
 27 28  1  0
 27 29  1  0
 29 30  1  0
 29 31  2  0
 31 32  1  0
 32 33  1  0
 33 34  1  0
 33 35  1  0
 33 36  1  0
 36 37  1  0
 36 38  1  0
 36 39  1  0
 39 40  1  0
 40 41  1  0
 40 42  1  0
 40 43  1  0
 39 44  1  0
 44 45  1  0
 44 46  1  0
 44 47  1  0
 47 48  1  0
 47 49  1  0
 31 50  1  0
 50 51  1  0
 50 52  2  0
 52 53  1  0
 53 54  1  0
 54 55  1  0
 54 56  1  0
 54 57  1  0
 25 58  1  0
 58 59  1  0
 58 60  1  0
 58 61  1  0
 24 62  1  0
 62 63  1  0
 62 64  2  0
 64 65  1  0
 64 66  1  0
 66 67  1  0
  7 68  1  0
 68 69  1  0
 68 70  2  0
 70 71  1  0
 70  2  1  0
 20  8  1  0
 66 22  1  0
 52 26  1  0
 47 32  1  0
M  END
>  <UniqueID>  (1) 
1

>  <SMILES>  (1) 
COc1cc(N2CCN(C)CC2)ccc1N(C)c1cc[nH]/c(=N/c2c(C)cccc2-c2ccccc2)n1

>  <Energy>  (1) 
106.45147420895532

>  <Genealogy>  (1) 
COc1cc(N2CCN(C)CC2)ccc1N(C)c1cc[nH]/c(=N/c2c(C)cccc2-c2ccccc2)n1 (cis-trans isomerization)
COc1cc(N2CCN(C)CC2)ccc1N(C)c1cc[nH]/c(=N/c2c(C)cccc2-c2ccccc2)n1 (3D coordinates assigned)
COc1cc(N2CCN(C)CC2)ccc1N(C)c1cc[nH]/c(=N/c2c(C)cccc2-c2ccccc2)n1 (nonaromatic ring conformer: 106.45147420895532 kcal/mol)

>  <smiles>  (1) 
COc1cc(N2CCN(C)CC2)ccc1N(C)c1cc[nH]c(=Nc2c(C)cccc2-c2ccccc2)n1

>  <score_type>  (1) 
oracle

>  <origin>  (1) 
adgpu

>  <m_score__min__energy>  (1) 
-10.74

>  <m_primary>  (1) 
energy

$$$$
1:0
     RDKit          3D

 47 49  0  0  0  0  0  0  0  0999 V2000
   -7.6190   17.8970  -32.4000 C   0  0  0  0  0  0  0  0  0  0  0  0
   -6.3010   18.5670  -32.6960 C   0  0  0  0  0  0  0  0  0  0  0  0
   -5.1370   17.7770  -32.7510 C   0  0  0  0  0  0  0  0  0  0  0  0
   -3.8870   18.3600  -32.9740 C   0  0  0  0  0  0  0  0  0  0  0  0
   -3.7700   19.7500  -33.1220 C   0  0  0  0  0  0  0  0  0  0  0  0
   -2.4450   20.3610  -33.3590 C   0  0  0  0  0  0  0  0  0  0  0  0
   -1.9970   20.4140  -34.5350 O   0  0  0  0  0  0  0  0  0  0  0  0
   -1.6530   20.8870  -32.2890 N   0  0  0  0  0  0  0  0  0  0  0  0
   -1.3350   20.1560  -31.0660 C   0  0  0  0  0  0  0  0  0  0  0  0
   -2.2220   20.6320  -29.9190 C   0  0  0  0  0  0  0  0  0  0  0  0
   -2.0570   22.1120  -29.6630 C   0  0  0  0  0  0  0  0  0  0  0  0
   -0.9690   22.5840  -28.9050 C   0  0  0  0  0  0  0  0  0  0  0  0
   -0.8120   23.9590  -28.6730 C   0  0  0  0  0  0  0  0  0  0  0  0
   -1.7380   24.8700  -29.2000 C   0  0  0  0  0  0  0  0  0  0  0  0
   -1.5930   26.2260  -28.9520 O   0  0  0  0  0  0  0  0  0  0  0  0
   -2.8130   24.4110  -29.9740 C   0  0  0  0  0  0  0  0  0  0  0  0
   -3.7270   25.3150  -30.5090 O   0  0  0  0  0  0  0  0  0  0  0  0
   -2.9680   23.0370  -30.2080 C   0  0  0  0  0  0  0  0  0  0  0  0
   -4.9230   20.5460  -33.0860 C   0  0  0  0  0  0  0  0  0  0  0  0
   -6.1940   19.9750  -32.8710 C   0  0  0  0  0  0  0  0  0  0  0  0
   -7.4000   20.8920  -32.8100 C   0  0  0  0  0  0  0  0  0  0  0  0
   -7.1500   22.0640  -31.8970 C   0  0  0  0  0  0  0  0  0  0  0  0
   -6.5340   23.2290  -32.3840 C   0  0  0  0  0  0  0  0  0  0  0  0
   -6.2890   24.3070  -31.5300 C   0  0  0  0  0  0  0  0  0  0  0  0
   -6.6490   24.2290  -30.1840 C   0  0  0  0  0  0  0  0  0  0  0  0
   -7.2590   23.0730  -29.6880 C   0  0  0  0  0  0  0  0  0  0  0  0
   -7.5050   21.9920  -30.5390 C   0  0  0  0  0  0  0  0  0  0  0  0
   -7.7580   17.8263  -31.3111 H   0  0  0  0  0  0  0  0  0  0  0  0
   -8.4372   18.4886  -32.8365 H   0  0  0  0  0  0  0  0  0  0  0  0
   -7.6232   16.8873  -32.8365 H   0  0  0  0  0  0  0  0  0  0  0  0
   -5.2125   16.6878  -32.6168 H   0  0  0  0  0  0  0  0  0  0  0  0
   -2.9902   17.7259  -33.0338 H   0  0  0  0  0  0  0  0  0  0  0  0
   -1.5016   19.0814  -31.2318 H   0  0  0  0  0  0  0  0  0  0  0  0
   -0.2823   20.3379  -30.8037 H   0  0  0  0  0  0  0  0  0  0  0  0
   -3.2729   20.4290  -30.1729 H   0  0  0  0  0  0  0  0  0  0  0  0
   -1.9253   20.0910  -29.0084 H   0  0  0  0  0  0  0  0  0  0  0  0
   -0.2388   21.8721  -28.4928 H   0  0  0  0  0  0  0  0  0  0  0  0
    0.0383   24.3223  -28.0772 H   0  0  0  0  0  0  0  0  0  0  0  0
   -3.8076   22.6792  -30.8220 H   0  0  0  0  0  0  0  0  0  0  0  0
   -4.8349   21.6333  -33.2277 H   0  0  0  0  0  0  0  0  0  0  0  0
   -7.6178   21.2656  -33.8214 H   0  0  0  0  0  0  0  0  0  0  0  0
   -8.2522   20.3195  -32.4151 H   0  0  0  0  0  0  0  0  0  0  0  0
   -6.2432   23.2926  -33.4430 H   0  0  0  0  0  0  0  0  0  0  0  0
   -5.8117   25.2185  -31.9190 H   0  0  0  0  0  0  0  0  0  0  0  0
   -6.4526   25.0779  -29.5126 H   0  0  0  0  0  0  0  0  0  0  0  0
   -7.5454   23.0142  -28.6276 H   0  0  0  0  0  0  0  0  0  0  0  0
   -7.9785   21.0810  -30.1443 H   0  0  0  0  0  0  0  0  0  0  0  0
  1  2  1  0
  2  3  2  0
  3  4  1  0
  4  5  2  0
  5  6  1  0
  6  7  2  0
  6  8  1  0
  8  9  1  0
  9 10  1  0
 10 11  1  0
 11 12  2  0
 12 13  1  0
 13 14  2  0
 14 15  1  0
 14 16  1  0
 16 17  1  0
 16 18  2  0
  5 19  1  0
 19 20  2  0
 20 21  1  0
 21 22  1  0
 22 23  2  0
 23 24  1  0
 24 25  2  0
 25 26  1  0
 26 27  2  0
 20  2  1  0
 27 22  1  0
 18 11  1  0
  1 28  1  0
  1 29  1  0
  1 30  1  0
  3 31  1  0
  4 32  1  0
  9 33  1  0
  9 34  1  0
 10 35  1  0
 10 36  1  0
 12 37  1  0
 13 38  1  0
 18 39  1  0
 19 40  1  0
 21 41  1  0
 21 42  1  0
 23 43  1  0
 24 44  1  0
 25 45  1  0
 26 46  1  0
 27 47  1  0
M  CHG  3   8  -1  15  -1  17  -1
M  END
>  <UniqueID>  (2) 
2

>  <SMILES>  (2) 
Cc1ccc(C(=O)[N-]CCc2ccc([O-])c([O-])c2)cc1Cc1ccccc1

>  <Energy>  (2) 
51.27313188170246

>  <Genealogy>  (2) 
Cc1ccc(C(=O)[N-]CCc2ccc([O-])c([O-])c2)cc1Cc1ccccc1 (protonated)
Cc1ccc(C(=O)[N-]CCc2ccc([O-])c([O-])c2)cc1Cc1ccccc1 (3D coordinates assigned)
Cc1ccc(C(=O)[N-]CCc2ccc([O-])c([O-])c2)cc1Cc1ccccc1 (optimized conformer: 51.27313188170246 kcal/mol)

>  <smiles>  (2) 
Cc1ccc(C(=O)NCCc2ccc(O)c(O)c2)cc1Cc1ccccc1

>  <score_type>  (2) 
oracle

>  <origin>  (2) 
adgpu

>  <m_score__min__energy>  (2) 
-14.65

>  <m_primary>  (2) 
energy

$$$$
2:0
     RDKit          3D

 34 36  0  0  0  0  0  0  0  0999 V2000
    0.1063   24.1641  -27.9546 H   0  0  0  0  0  0  0  0  0  0  0  0
   -0.9750   24.2290  -28.1460 C   0  0  0  0  0  0  0  0  0  0  0  0
   -1.4800   24.5930  -29.3560 N   0  0  0  0  0  0  0  0  0  0  0  0
   -2.8300   24.6020  -29.3470 C   0  0  0  0  0  0  0  0  0  0  0  0
   -3.5260   24.9200  -30.3950 N   0  0  0  0  0  0  0  0  0  0  0  0
   -5.2590   24.9500  -30.4420 S   0  0  0  0  0  0  0  0  0  0  0  0
   -5.8080   25.0020  -29.0440 O   0  0  0  0  0  0  0  0  0  0  0  0
   -5.7320   26.1560  -31.2050 O   0  0  0  0  0  0  0  0  0  0  0  0
   -5.8300   23.4910  -31.2450 C   0  0  0  0  0  0  0  0  0  0  0  0
   -7.1900   23.1570  -31.2240 C   0  0  0  0  0  0  0  0  0  0  0  0
   -7.9086   23.8156  -30.7142 H   0  0  0  0  0  0  0  0  0  0  0  0
   -7.6370   21.9890  -31.8490 C   0  0  0  0  0  0  0  0  0  0  0  0
   -8.7082   21.7393  -31.8342 H   0  0  0  0  0  0  0  0  0  0  0  0
   -6.7330   21.1320  -32.4950 C   0  0  0  0  0  0  0  0  0  0  0  0
   -7.2260   19.9340  -33.1200 N   0  0  0  0  0  0  0  0  0  0  0  0
   -7.7940   20.0150  -33.9930 H   0  0  0  0  0  0  0  0  0  0  0  0
   -7.0500   18.3450  -32.4460 S   0  0  0  0  0  0  0  0  0  0  0  0
   -8.3960   17.6810  -32.3790 O   0  0  0  0  0  0  0  0  0  0  0  0
   -6.4860   18.4530  -31.0580 O   0  0  0  0  0  0  0  0  0  0  0  0
   -5.9520   17.3970  -33.4300 C   0  0  0  0  0  0  0  0  0  0  0  0
   -4.9150   18.0180  -34.5970 S   0  0  0  0  0  0  0  0  0  0  0  0
   -4.2340   16.5410  -35.0270 C   0  0  0  0  0  0  0  0  0  0  0  0
   -3.4581   16.3889  -35.7918 H   0  0  0  0  0  0  0  0  0  0  0  0
   -4.8180   15.5450  -34.2520 C   0  0  0  0  0  0  0  0  0  0  0  0
   -4.5488   14.4817  -34.3358 H   0  0  0  0  0  0  0  0  0  0  0  0
   -5.7810   16.0230  -33.3550 C   0  0  0  0  0  0  0  0  0  0  0  0
   -6.3424   15.3770  -32.6640 H   0  0  0  0  0  0  0  0  0  0  0  0
   -5.3660   21.4730  -32.5130 C   0  0  0  0  0  0  0  0  0  0  0  0
   -4.6450   20.8165  -33.0220 H   0  0  0  0  0  0  0  0  0  0  0  0
   -4.9210   22.6420  -31.8870 C   0  0  0  0  0  0  0  0  0  0  0  0
   -3.8507   22.8956  -31.8993 H   0  0  0  0  0  0  0  0  0  0  0  0
   -3.4500   24.1590  -27.8430 S   0  0  0  0  0  0  0  0  0  0  0  0
   -1.9220   23.9450  -27.1690 C   0  0  0  0  0  0  0  0  0  0  0  0
   -1.7100   23.6344  -26.1353 H   0  0  0  0  0  0  0  0  0  0  0  0
  1  2  1  0
  2  3  1  0
  3  4  1  0
  4  5  2  0
  5  6  1  0
  6  7  2  0
  6  8  2  0
  6  9  1  0
  9 10  2  0
 10 11  1  0
 10 12  1  0
 12 13  1  0
 12 14  2  0
 14 15  1  0
 15 16  1  0
 15 17  1  0
 17 18  2  0
 17 19  2  0
 17 20  1  0
 20 21  1  0
 21 22  1  0
 22 23  1  0
 22 24  2  0
 24 25  1  0
 24 26  1  0
 26 27  1  0
 14 28  1  0
 28 29  1  0
 28 30  2  0
 30 31  1  0
  4 32  1  0
 32 33  1  0
 33 34  1  0
 33  2  2  0
 30  9  1  0
 26 20  2  0
M  CHG  1   3  -1
M  END
>  <UniqueID>  (3) 
3

>  <SMILES>  (3) 
O=S(=O)(/N=c1/[n-]ccs1)c1ccc(NS(=O)(=O)c2cccs2)cc1

>  <Energy>  (3) 
99.48284723910423

>  <Genealogy>  (3) 
O=S(=O)(N=c1[n-]ccs1)c1ccc(NS(=O)(=O)c2cccs2)cc1 (protonated)
O=S(=O)(/N=c1/[n-]ccs1)c1ccc(NS(=O)(=O)c2cccs2)cc1 (cis-trans isomerization)
O=S(=O)(/N=c1/[n-]ccs1)c1ccc(NS(=O)(=O)c2cccs2)cc1 (3D coordinates assigned)
O=S(=O)(/N=c1/[n-]ccs1)c1ccc(NS(=O)(=O)c2cccs2)cc1 (optimized conformer: 99.48284723910423 kcal/mol)

>  <smiles>  (3) 
O=S(=O)(N=c1[nH]ccs1)c1ccc(NS(=O)(=O)c2cccs2)cc1

>  <score_type>  (3) 
oracle

>  <origin>  (3) 
adgpu

>  <m_score__min__energy>  (3) 
-10.27

>  <m_primary>  (3) 
energy

$$$$
3:0
     RDKit          3D

 41 43  0  0  0  0  0  0  0  0999 V2000
   -3.2060   23.9570  -27.7910 C   0  0  0  0  0  0  0  0  0  0  0  0
   -2.3450   24.5390  -29.2370 S   0  0  0  0  0  0  0  0  0  0  0  0
   -1.5080   25.7420  -28.9010 O   0  0  0  0  0  0  0  0  0  0  0  0
   -1.4410   23.4450  -29.7320 O   0  0  0  0  0  0  0  0  0  0  0  0
   -3.4770   24.9350  -30.4890 N   0  0  0  0  0  0  0  0  0  0  0  0
   -4.8660   24.5770  -30.5090 C   0  0  0  0  0  0  0  0  0  0  0  0
   -5.7970   25.4920  -30.0040 C   0  0  0  0  0  0  0  0  0  0  0  0
   -7.1600   25.1880  -30.0060 C   0  0  0  0  0  0  0  0  0  0  0  0
   -7.6070   23.9680  -30.5150 C   0  0  0  0  0  0  0  0  0  0  0  0
   -6.6900   23.0320  -31.0260 C   0  0  0  0  0  0  0  0  0  0  0  0
   -7.1620   21.7340  -31.5710 C   0  0  0  0  0  0  0  0  0  0  0  0
   -8.3370   21.1370  -31.0800 C   0  0  0  0  0  0  0  0  0  0  0  0
   -8.7780   19.9180  -31.5940 C   0  0  0  0  0  0  0  0  0  0  0  0
   -8.0540   19.2730  -32.5990 C   0  0  0  0  0  0  0  0  0  0  0  0
   -6.8700   19.8460  -33.0970 C   0  0  0  0  0  0  0  0  0  0  0  0
   -6.1100   19.2120  -34.1420 N   0  0  0  0  0  0  0  0  0  0  0  0
   -5.0270   18.3020  -33.8950 C   0  0  0  0  0  0  0  0  0  0  0  0
   -5.2360   16.9070  -33.9250 C   0  0  0  0  0  0  0  0  0  0  0  0
   -6.8310   16.2250  -34.2190 Cl  0  0  0  0  0  0  0  0  0  0  0  0
   -4.1690   16.0370  -33.6750 C   0  0  0  0  0  0  0  0  0  0  0  0
   -2.9020   16.5420  -33.3860 C   0  0  0  0  0  0  0  0  0  0  0  0
   -2.6920   17.9220  -33.3340 C   0  0  0  0  0  0  0  0  0  0  0  0
   -3.7510   18.8030  -33.5820 C   0  0  0  0  0  0  0  0  0  0  0  0
   -3.4480   20.5350  -33.5250 Cl  0  0  0  0  0  0  0  0  0  0  0  0
   -6.4380   21.0790  -32.5860 C   0  0  0  0  0  0  0  0  0  0  0  0
   -5.3170   23.3450  -31.0150 C   0  0  0  0  0  0  0  0  0  0  0  0
   -2.6856   24.3088  -26.8880 H   0  0  0  0  0  0  0  0  0  0  0  0
   -4.2351   24.3454  -27.7959 H   0  0  0  0  0  0  0  0  0  0  0  0
   -3.2292   22.8573  -27.7959 H   0  0  0  0  0  0  0  0  0  0  0  0
   -5.4529   26.4567  -29.6030 H   0  0  0  0  0  0  0  0  0  0  0  0
   -7.8838   25.9128  -29.6049 H   0  0  0  0  0  0  0  0  0  0  0  0
   -8.6825   23.7371  -30.5166 H   0  0  0  0  0  0  0  0  0  0  0  0
   -8.9119   21.6349  -30.2853 H   0  0  0  0  0  0  0  0  0  0  0  0
   -9.7008   19.4622  -31.2059 H   0  0  0  0  0  0  0  0  0  0  0  0
   -8.4108   18.3139  -33.0024 H   0  0  0  0  0  0  0  0  0  0  0  0
   -6.4070   19.3540  -35.1340 H   0  0  0  0  0  0  0  0  0  0  0  0
   -4.3306   14.9494  -33.7066 H   0  0  0  0  0  0  0  0  0  0  0  0
   -2.0659   15.8522  -33.1985 H   0  0  0  0  0  0  0  0  0  0  0  0
   -1.6929   18.3170  -33.0978 H   0  0  0  0  0  0  0  0  0  0  0  0
   -5.5218   21.5402  -32.9833 H   0  0  0  0  0  0  0  0  0  0  0  0
   -4.5899   22.6182  -31.4063 H   0  0  0  0  0  0  0  0  0  0  0  0
  1  2  1  0
  2  3  2  0
  2  4  2  0
  2  5  1  0
  5  6  1  0
  6  7  2  0
  7  8  1  0
  8  9  2  0
  9 10  1  0
 10 11  1  0
 11 12  2  0
 12 13  1  0
 13 14  2  0
 14 15  1  0
 15 16  1  0
 16 17  1  0
 17 18  2  0
 18 19  1  0
 18 20  1  0
 20 21  2  0
 21 22  1  0
 22 23  2  0
 23 24  1  0
 15 25  2  0
 10 26  2  0
 26  6  1  0
 25 11  1  0
 23 17  1  0
  1 27  1  0
  1 28  1  0
  1 29  1  0
  7 30  1  0
  8 31  1  0
  9 32  1  0
 12 33  1  0
 13 34  1  0
 14 35  1  0
 16 36  1  0
 20 37  1  0
 21 38  1  0
 22 39  1  0
 25 40  1  0
 26 41  1  0
M  CHG  1   5  -1
M  END
>  <UniqueID>  (4) 
4

>  <SMILES>  (4) 
CS(=O)(=O)[N-]c1cccc(-c2cccc(Nc3c(Cl)cccc3Cl)c2)c1

>  <Energy>  (4) 
55.44981944232564

>  <Genealogy>  (4) 
CS(=O)(=O)[N-]c1cccc(-c2cccc(Nc3c(Cl)cccc3Cl)c2)c1 (protonated)
CS(=O)(=O)[N-]c1cccc(-c2cccc(Nc3c(Cl)cccc3Cl)c2)c1 (3D coordinates assigned)
CS(=O)(=O)[N-]c1cccc(-c2cccc(Nc3c(Cl)cccc3Cl)c2)c1 (optimized conformer: 55.44981944232564 kcal/mol)

>  <smiles>  (4) 
CS(=O)(=O)Nc1cccc(-c2cccc(Nc3c(Cl)cccc3Cl)c2)c1

>  <score_type>  (4) 
oracle

>  <origin>  (4) 
adgpu

>  <m_score__min__energy>  (4) 
-11.67

>  <m_primary>  (4) 
energy

$$$$
4:0
     RDKit          3D

 40 42  0  0  0  0  0  0  0  0999 V2000
   -9.1110   18.5140  -31.6830 C   0  0  0  0  0  0  0  0  0  0  0  0
   -7.9470   19.3460  -32.0370 N   0  0  0  0  0  0  0  0  0  0  0  0
   -6.7750   18.7540  -32.4230 C   0  0  0  0  0  0  0  0  0  0  0  0
   -6.6670   17.4980  -32.4670 O   0  0  0  0  0  0  0  0  0  0  0  0
   -5.6810   19.5330  -32.7750 C   0  0  0  0  0  0  0  0  0  0  0  0
   -5.7990   20.9200  -32.7530 C   0  0  0  0  0  0  0  0  0  0  0  0
   -4.6640   21.7180  -33.1240 N   0  0  0  0  0  0  0  0  0  0  0  0
   -3.3290   21.4790  -32.6400 C   0  0  0  0  0  0  0  0  0  0  0  0
   -2.8810   22.1720  -31.5050 C   0  0  0  0  0  0  0  0  0  0  0  0
   -1.6030   21.9420  -30.9900 C   0  0  0  0  0  0  0  0  0  0  0  0
   -0.7620   21.0080  -31.5980 C   0  0  0  0  0  0  0  0  0  0  0  0
    0.4780   20.7820  -31.0950 F   0  0  0  0  0  0  0  0  0  0  0  0
   -1.2000   20.2970  -32.7170 C   0  0  0  0  0  0  0  0  0  0  0  0
   -2.4790   20.5230  -33.2390 C   0  0  0  0  0  0  0  0  0  0  0  0
   -2.8890   19.7790  -34.2960 F   0  0  0  0  0  0  0  0  0  0  0  0
   -6.9880   21.5060  -32.3990 N   0  0  0  0  0  0  0  0  0  0  0  0
   -7.0890   22.9800  -32.3280 C   0  0  0  0  0  0  0  0  0  0  0  0
   -6.2470   23.5120  -31.1950 C   0  0  0  0  0  0  0  0  0  0  0  0
   -5.9170   22.6820  -30.1110 C   0  0  0  0  0  0  0  0  0  0  0  0
   -5.1010   23.1580  -29.0810 C   0  0  0  0  0  0  0  0  0  0  0  0
   -4.6100   24.4660  -29.1230 C   0  0  0  0  0  0  0  0  0  0  0  0
   -4.9400   25.3020  -30.1940 C   0  0  0  0  0  0  0  0  0  0  0  0
   -5.7580   24.8310  -31.2240 C   0  0  0  0  0  0  0  0  0  0  0  0
   -8.0590   20.7150  -32.0460 C   0  0  0  0  0  0  0  0  0  0  0  0
   -9.1570   21.2510  -31.7240 O   0  0  0  0  0  0  0  0  0  0  0  0
   -9.1979   18.4519  -30.5882 H   0  0  0  0  0  0  0  0  0  0  0  0
  -10.0242   18.9653  -32.0983 H   0  0  0  0  0  0  0  0  0  0  0  0
   -8.9796   17.5039  -32.0983 H   0  0  0  0  0  0  0  0  0  0  0  0
   -4.7321   19.0598  -33.0678 H   0  0  0  0  0  0  0  0  0  0  0  0
   -4.8110   22.4730  -33.8310 H   0  0  0  0  0  0  0  0  0  0  0  0
   -3.5421   22.9029  -31.0164 H   0  0  0  0  0  0  0  0  0  0  0  0
   -1.2590   22.4971  -30.1048 H   0  0  0  0  0  0  0  0  0  0  0  0
   -0.5378   19.5568  -33.1899 H   0  0  0  0  0  0  0  0  0  0  0  0
   -6.7366   23.4133  -33.2757 H   0  0  0  0  0  0  0  0  0  0  0  0
   -8.1389   23.2572  -32.1523 H   0  0  0  0  0  0  0  0  0  0  0  0
   -6.3026   21.6525  -30.0726 H   0  0  0  0  0  0  0  0  0  0  0  0
   -4.8447   22.5022  -28.2359 H   0  0  0  0  0  0  0  0  0  0  0  0
   -3.9642   24.8375  -28.3137 H   0  0  0  0  0  0  0  0  0  0  0  0
   -4.5551   26.3320  -30.2257 H   0  0  0  0  0  0  0  0  0  0  0  0
   -6.0209   25.4942  -32.0613 H   0  0  0  0  0  0  0  0  0  0  0  0
  1  2  1  0
  2  3  1  0
  3  4  2  0
  3  5  1  0
  5  6  2  0
  6  7  1  0
  7  8  1  0
  8  9  2  0
  9 10  1  0
 10 11  2  0
 11 12  1  0
 11 13  1  0
 13 14  2  0
 14 15  1  0
  6 16  1  0
 16 17  1  0
 17 18  1  0
 18 19  2  0
 19 20  1  0
 20 21  2  0
 21 22  1  0
 22 23  2  0
 16 24  1  0
 24 25  2  0
 24  2  1  0
 14  8  1  0
 23 18  1  0
  1 26  1  0
  1 27  1  0
  1 28  1  0
  5 29  1  0
  7 30  1  0
  9 31  1  0
 10 32  1  0
 13 33  1  0
 17 34  1  0
 17 35  1  0
 19 36  1  0
 20 37  1  0
 21 38  1  0
 22 39  1  0
 23 40  1  0
M  END
>  <UniqueID>  (5) 
5

>  <SMILES>  (5) 
Cn1c(=O)cc(Nc2ccc(F)cc2F)n(Cc2ccccc2)c1=O

>  <Energy>  (5) 
55.62379694045608

>  <Genealogy>  (5) 
Cn1c(=O)cc(Nc2ccc(F)cc2F)n(Cc2ccccc2)c1=O (3D coordinates assigned)
Cn1c(=O)cc(Nc2ccc(F)cc2F)n(Cc2ccccc2)c1=O (optimized conformer: 55.62379694045608 kcal/mol)

>  <smiles>  (5) 
Cn1c(=O)cc(Nc2ccc(F)cc2F)n(Cc2ccccc2)c1=O

>  <score_type>  (5) 
oracle

>  <origin>  (5) 
adgpu

>  <m_score__min__energy>  (5) 
-7.6299999999999999

>  <m_primary>  (5) 
energy

$$$$
5:0
     RDKit          3D

 38 40  0  0  0  0  0  0  0  0999 V2000
   -8.9290   19.2670  -32.2220 C   0  0  0  0  0  0  0  0  0  0  0  0
   -8.2370   20.3980  -32.7420 O   0  0  0  0  0  0  0  0  0  0  0  0
   -6.8450   20.5760  -32.7120 C   0  0  0  0  0  0  0  0  0  0  0  0
   -6.2660   21.6220  -31.9650 C   0  0  0  0  0  0  0  0  0  0  0  0
   -4.8780   21.8030  -31.9330 C   0  0  0  0  0  0  0  0  0  0  0  0
   -4.2930   22.9060  -31.1420 C   0  0  0  0  0  0  0  0  0  0  0  0
   -3.3700   22.7410  -30.1740 N   0  0  0  0  0  0  0  0  0  0  0  0
   -3.1690   24.0140  -29.7710 C   0  0  0  0  0  0  0  0  0  0  0  0
   -2.2250   24.3980  -28.7010 C   0  0  0  0  0  0  0  0  0  0  0  0
   -2.6760   24.6250  -27.3910 C   0  0  0  0  0  0  0  0  0  0  0  0
   -1.7730   24.9880  -26.3900 C   0  0  0  0  0  0  0  0  0  0  0  0
   -0.4210   25.1220  -26.7070 C   0  0  0  0  0  0  0  0  0  0  0  0
    0.0070   24.9000  -27.9780 N   0  0  0  0  0  0  0  0  0  0  0  0
   -0.8530   24.5460  -28.9700 C   0  0  0  0  0  0  0  0  0  0  0  0
   -3.9260   24.8930  -30.4570 N   0  0  0  0  0  0  0  0  0  0  0  0
   -4.6050   24.1700  -31.2940 O   0  0  0  0  0  0  0  0  0  0  0  0
   -4.0550   20.9310  -32.6560 C   0  0  0  0  0  0  0  0  0  0  0  0
   -4.6090   19.8820  -33.4080 C   0  0  0  0  0  0  0  0  0  0  0  0
   -3.8070   18.9920  -34.1420 O   0  0  0  0  0  0  0  0  0  0  0  0
   -2.5650   18.4610  -33.6900 C   0  0  0  0  0  0  0  0  0  0  0  0
   -6.0020   19.6970  -33.4420 C   0  0  0  0  0  0  0  0  0  0  0  0
   -6.4780   18.6240  -34.2180 O   0  0  0  0  0  0  0  0  0  0  0  0
   -6.4180   17.2420  -33.8860 C   0  0  0  0  0  0  0  0  0  0  0  0
   -8.9095   19.2988  -31.1226 H   0  0  0  0  0  0  0  0  0  0  0  0
   -9.9721   19.2831  -32.5709 H   0  0  0  0  0  0  0  0  0  0  0  0
   -8.4398   18.3456  -32.5709 H   0  0  0  0  0  0  0  0  0  0  0  0
   -6.9146   22.3065  -31.3986 H   0  0  0  0  0  0  0  0  0  0  0  0
   -3.7443   24.5165  -27.1525 H   0  0  0  0  0  0  0  0  0  0  0  0
   -2.1237   25.1664  -25.3628 H   0  0  0  0  0  0  0  0  0  0  0  0
    0.3000   25.4078  -25.9270 H   0  0  0  0  0  0  0  0  0  0  0  0
   -0.4733   24.3746  -29.9881 H   0  0  0  0  0  0  0  0  0  0  0  0
   -2.9639   21.0688  -32.6349 H   0  0  0  0  0  0  0  0  0  0  0  0
   -2.5479   18.4537  -32.5902 H   0  0  0  0  0  0  0  0  0  0  0  0
   -2.4470   17.4338  -34.0654 H   0  0  0  0  0  0  0  0  0  0  0  0
   -1.7409   19.0855  -34.0654 H   0  0  0  0  0  0  0  0  0  0  0  0
   -6.4130   17.1276  -32.7920 H   0  0  0  0  0  0  0  0  0  0  0  0
   -7.2946   16.7259  -34.3047 H   0  0  0  0  0  0  0  0  0  0  0  0
   -5.5000   16.8038  -34.3047 H   0  0  0  0  0  0  0  0  0  0  0  0
  1  2  1  0
  2  3  1  0
  3  4  2  0
  4  5  1  0
  5  6  1  0
  6  7  2  0
  7  8  1  0
  8  9  1  0
  9 10  2  0
 10 11  1  0
 11 12  2  0
 12 13  1  0
 13 14  2  0
  8 15  2  0
 15 16  1  0
  5 17  2  0
 17 18  1  0
 18 19  1  0
 19 20  1  0
 18 21  2  0
 21 22  1  0
 22 23  1  0
 21  3  1  0
 16  6  1  0
 14  9  1  0
  1 24  1  0
  1 25  1  0
  1 26  1  0
  4 27  1  0
 10 28  1  0
 11 29  1  0
 12 30  1  0
 14 31  1  0
 17 32  1  0
 20 33  1  0
 20 34  1  0
 20 35  1  0
 23 36  1  0
 23 37  1  0
 23 38  1  0
M  END
>  <UniqueID>  (6) 
6

>  <SMILES>  (6) 
COc1cc(-c2nc(-c3cccnc3)no2)cc(OC)c1OC

>  <Energy>  (6) 
76.4819420517586

>  <Genealogy>  (6) 
COc1cc(-c2nc(-c3cccnc3)no2)cc(OC)c1OC (3D coordinates assigned)
COc1cc(-c2nc(-c3cccnc3)no2)cc(OC)c1OC (optimized conformer: 76.4819420517586 kcal/mol)

>  <smiles>  (6) 
COc1cc(-c2nc(-c3cccnc3)no2)cc(OC)c1OC

>  <score_type>  (6) 
oracle

>  <origin>  (6) 
adgpu

>  <m_score__min__energy>  (6) 
-7.1200000000000001

>  <m_primary>  (6) 
energy

$$$$
6:0
     RDKit          3D

 34 36  0  0  0  0  0  0  0  0999 V2000
   -9.3510   19.3750  -32.7100 N   0  0  0  0  0  0  0  0  0  0  0  0
   -8.2290   19.5530  -32.4930 C   0  0  0  0  0  0  0  0  0  0  0  0
   -6.8330   19.7740  -32.2220 C   0  0  0  0  0  0  0  0  0  0  0  0
   -6.3060   20.9240  -31.6740 C   0  0  0  0  0  0  0  0  0  0  0  0
   -4.9820   20.7600  -31.4580 N   0  0  0  0  0  0  0  0  0  0  0  0
   -4.0810   21.7330  -30.8920 C   0  0  0  0  0  0  0  0  0  0  0  0
   -2.8520   21.3330  -30.3410 C   0  0  0  0  0  0  0  0  0  0  0  0
   -1.9800   22.2740  -29.7920 C   0  0  0  0  0  0  0  0  0  0  0  0
   -2.3090   23.6410  -29.7780 C   0  0  0  0  0  0  0  0  0  0  0  0
   -1.3570   24.6180  -29.1860 C   0  0  0  0  0  0  0  0  0  0  0  0
   -1.7290   25.7950  -28.9320 O   0  0  0  0  0  0  0  0  0  0  0  0
   -0.0450   24.2590  -28.8990 O   0  0  0  0  0  0  0  0  0  0  0  0
   -3.5430   24.0490  -30.3330 C   0  0  0  0  0  0  0  0  0  0  0  0
   -3.9080   25.3950  -30.3450 O   0  0  0  0  0  0  0  0  0  0  0  0
   -4.4140   23.0970  -30.8820 C   0  0  0  0  0  0  0  0  0  0  0  0
   -4.6660   19.5090  -31.8610 C   0  0  0  0  0  0  0  0  0  0  0  0
   -5.7920   18.8660  -32.3470 C   0  0  0  0  0  0  0  0  0  0  0  0
   -5.8430   17.4780  -32.8650 C   0  0  0  0  0  0  0  0  0  0  0  0
   -6.8520   17.0770  -33.7600 C   0  0  0  0  0  0  0  0  0  0  0  0
   -6.8840   15.7660  -34.2480 C   0  0  0  0  0  0  0  0  0  0  0  0
   -5.9100   14.8470  -33.8530 C   0  0  0  0  0  0  0  0  0  0  0  0
   -4.8970   15.2370  -32.9750 C   0  0  0  0  0  0  0  0  0  0  0  0
   -4.8590   16.5470  -32.4850 C   0  0  0  0  0  0  0  0  0  0  0  0
   -6.8766   21.8366  -31.4470 H   0  0  0  0  0  0  0  0  0  0  0  0
   -2.5747   20.2685  -30.3424 H   0  0  0  0  0  0  0  0  0  0  0  0
   -1.0224   21.9419  -29.3645 H   0  0  0  0  0  0  0  0  0  0  0  0
   -3.4870   26.0690  -29.7160 H   0  0  0  0  0  0  0  0  0  0  0  0
   -5.3726   23.4237  -31.3113 H   0  0  0  0  0  0  0  0  0  0  0  0
   -3.6604   19.0661  -31.8102 H   0  0  0  0  0  0  0  0  0  0  0  0
   -7.6197   17.7979  -34.0777 H   0  0  0  0  0  0  0  0  0  0  0  0
   -7.6782   15.4588  -34.9443 H   0  0  0  0  0  0  0  0  0  0  0  0
   -5.9408   13.8154  -34.2337 H   0  0  0  0  0  0  0  0  0  0  0  0
   -4.1276   14.5133  -32.6680 H   0  0  0  0  0  0  0  0  0  0  0  0
   -4.0550   16.8508  -31.7985 H   0  0  0  0  0  0  0  0  0  0  0  0
  1  2  3  0
  2  3  1  0
  3  4  2  0
  4  5  1  0
  5  6  1  0
  6  7  2  0
  7  8  1  0
  8  9  2  0
  9 10  1  0
 10 11  2  0
 10 12  1  0
  9 13  1  0
 13 14  1  0
 13 15  2  0
  5 16  1  0
 16 17  2  0
 17 18  1  0
 18 19  2  0
 19 20  1  0
 20 21  2  0
 21 22  1  0
 22 23  2  0
 17  3  1  0
 23 18  1  0
 15  6  1  0
  4 24  1  0
  7 25  1  0
  8 26  1  0
 14 27  1  0
 15 28  1  0
 16 29  1  0
 19 30  1  0
 20 31  1  0
 21 32  1  0
 22 33  1  0
 23 34  1  0
M  CHG  1  12  -1
M  END
>  <UniqueID>  (7) 
7

>  <SMILES>  (7) 
N#Cc1cn(-c2ccc(C(=O)[O-])c(O)c2)cc1-c1ccccc1

>  <Energy>  (7) 
72.79355076515486

>  <Genealogy>  (7) 
N#Cc1cn(-c2ccc(C(=O)[O-])c(O)c2)cc1-c1ccccc1 (protonated)
N#Cc1cn(-c2ccc(C(=O)[O-])c(O)c2)cc1-c1ccccc1 (3D coordinates assigned)
N#Cc1cn(-c2ccc(C(=O)[O-])c(O)c2)cc1-c1ccccc1 (optimized conformer: 72.79355076515486 kcal/mol)

>  <smiles>  (7) 
N#Cc1cn(-c2ccc(C(=O)O)c(O)c2)cc1-c1ccccc1

>  <score_type>  (7) 
oracle

>  <origin>  (7) 
adgpu

>  <m_score__min__energy>  (7) 
-10.890000000000001

>  <m_primary>  (7) 
energy

$$$$
7:0
     RDKit          3D

 46 48  0  0  0  0  0  0  0  0999 V2000
   -6.8540   22.0880  -32.3690 C   0  0  0  0  0  0  0  0  0  0  0  0
   -6.7180   20.6860  -32.8710 C   0  0  0  0  0  0  0  0  0  0  0  0
   -7.7600   19.8400  -32.9770 N   0  0  0  0  0  0  0  0  0  0  0  0
   -7.2840   18.6890  -33.3550 O   0  0  0  0  0  0  0  0  0  0  0  0
   -5.9780   18.7310  -33.4900 C   0  0  0  0  0  0  0  0  0  0  0  0
   -5.1660   17.5540  -33.9190 C   0  0  0  0  0  0  0  0  0  0  0  0
   -5.5480   20.0170  -33.1980 C   0  0  0  0  0  0  0  0  0  0  0  0
   -3.8920   20.6570  -33.1750 S   0  0  0  0  0  0  0  0  0  0  0  0
   -3.8780   22.0040  -33.8440 O   0  0  0  0  0  0  0  0  0  0  0  0
   -3.0120   19.7450  -33.9820 O   0  0  0  0  0  0  0  0  0  0  0  0
   -3.2210   20.7850  -31.5580 N   0  0  2  0  0  0  0  0  0  0  0  0
   -4.2790   21.0090  -30.5370 C   0  0  0  0  0  0  0  0  0  0  0  0
   -4.4290   22.4890  -30.1600 C   0  0  0  0  0  0  0  0  0  0  0  0
   -3.1140   23.0610  -29.5650 C   0  0  2  0  0  0  0  0  0  0  0  0
   -2.9960   24.5570  -29.7810 C   0  0  0  0  0  0  0  0  0  0  0  0
   -3.8680   25.1540  -30.4710 O   0  0  0  0  0  0  0  0  0  0  0  0
   -1.8470   25.2760  -29.3100 N   0  0  0  0  0  0  0  0  0  0  0  0
   -1.6010   25.6790  -27.9560 C   0  0  0  0  0  0  0  0  0  0  0  0
   -2.1000   24.9470  -26.8600 C   0  0  0  0  0  0  0  0  0  0  0  0
   -1.8020   25.3470  -25.5540 C   0  0  0  0  0  0  0  0  0  0  0  0
   -0.9990   26.4690  -25.3310 C   0  0  0  0  0  0  0  0  0  0  0  0
   -0.4830   27.1870  -26.4150 C   0  0  0  0  0  0  0  0  0  0  0  0
    0.3060   28.2700  -26.1980 F   0  0  0  0  0  0  0  0  0  0  0  0
   -0.7770   26.7880  -27.7230 C   0  0  0  0  0  0  0  0  0  0  0  0
   -1.8700   22.3090  -30.1090 C   0  0  0  0  0  0  0  0  0  0  0  0
   -2.1210   21.7810  -31.5260 C   0  0  0  0  0  0  0  0  0  0  0  0
   -6.8537   22.0852  -31.2690 H   0  0  0  0  0  0  0  0  0  0  0  0
   -6.0102   22.6918  -32.7344 H   0  0  0  0  0  0  0  0  0  0  0  0
   -7.7981   22.5183  -32.7344 H   0  0  0  0  0  0  0  0  0  0  0  0
   -4.7973   17.0196  -33.0310 H   0  0  0  0  0  0  0  0  0  0  0  0
   -5.7905   16.8775  -34.5210 H   0  0  0  0  0  0  0  0  0  0  0  0
   -4.3119   17.8976  -34.5210 H   0  0  0  0  0  0  0  0  0  0  0  0
   -2.7940   19.8490  -31.3540 H   0  0  0  0  0  0  0  0  0  0  0  0
   -5.2378   20.6483  -30.9377 H   0  0  0  0  0  0  0  0  0  0  0  0
   -3.9880   20.4609  -29.6288 H   0  0  0  0  0  0  0  0  0  0  0  0
   -4.6927   23.0623  -31.0610 H   0  0  0  0  0  0  0  0  0  0  0  0
   -5.2176   22.5726  -29.3977 H   0  0  0  0  0  0  0  0  0  0  0  0
   -3.1541   22.8951  -28.4783 H   0  0  0  0  0  0  0  0  0  0  0  0
   -2.7255   24.0587  -27.0325 H   0  0  0  0  0  0  0  0  0  0  0  0
   -2.2000   24.7780  -24.7009 H   0  0  0  0  0  0  0  0  0  0  0  0
   -0.7727   26.7876  -24.3027 H   0  0  0  0  0  0  0  0  0  0  0  0
   -0.3592   27.3476  -28.5729 H   0  0  0  0  0  0  0  0  0  0  0  0
   -1.0134   22.9988  -30.1290 H   0  0  0  0  0  0  0  0  0  0  0  0
   -1.6621   21.4539  -29.4490 H   0  0  0  0  0  0  0  0  0  0  0  0
   -2.3868   22.6257  -32.1785 H   0  0  0  0  0  0  0  0  0  0  0  0
   -1.2022   21.2859  -31.8734 H   0  0  0  0  0  0  0  0  0  0  0  0
  1  2  1  0
  2  3  2  0
  3  4  1  0
  4  5  1  0
  5  6  1  0
  5  7  2  0
  7  8  1  0
  8  9  2  0
  8 10  2  0
  8 11  1  0
 11 12  1  0
 12 13  1  0
 13 14  1  0
 14 15  1  0
 15 16  2  0
 15 17  1  0
 17 18  1  0
 18 19  2  0
 19 20  1  0
 20 21  2  0
 21 22  1  0
 22 23  1  0
 22 24  2  0
 14 25  1  0
 25 26  1  0
  7  2  1  0
 26 11  1  0
 24 18  1  0
  1 27  1  0
  1 28  1  0
  1 29  1  0
  6 30  1  0
  6 31  1  0
  6 32  1  0
 11 33  1  1
 12 34  1  0
 12 35  1  0
 13 36  1  0
 13 37  1  0
 14 38  1  1
 19 39  1  0
 20 40  1  0
 21 41  1  0
 24 42  1  0
 25 43  1  0
 25 44  1  0
 26 45  1  0
 26 46  1  0
M  CHG  2  11   1  17  -1
M  END
>  <UniqueID>  (8) 
8

>  <SMILES>  (8) 
Cc1noc(C)c1S(=O)(=O)[NH+]1CCC(C(=O)[N-]c2cccc(F)c2)CC1

>  <Energy>  (8) 
87.62435317948398

>  <Genealogy>  (8) 
Cc1noc(C)c1S(=O)(=O)[NH+]1CCC(C(=O)[N-]c2cccc(F)c2)CC1 (protonated)
Cc1noc(C)c1S(=O)(=O)[NH+]1CCC(C(=O)[N-]c2cccc(F)c2)CC1 (3D coordinates assigned)
Cc1noc(C)c1S(=O)(=O)[NH+]1CCC(C(=O)[N-]c2cccc(F)c2)CC1 (nonaromatic ring conformer: 87.62435317948398 kcal/mol)

>  <smiles>  (8) 
Cc1noc(C)c1S(=O)(=O)N1CCC(C(=O)Nc2cccc(F)c2)CC1

>  <score_type>  (8) 
oracle

>  <origin>  (8) 
adgpu

>  <m_score__min__energy>  (8) 
-9.9299999999999997

>  <m_primary>  (8) 
energy

$$$$
8:0
     RDKit          3D

 29 30  0  0  0  0  0  0  0  0999 V2000
   -6.3860   25.7300  -29.3900 C   0  0  0  0  0  0  0  0  0  0  0  0
   -5.9420   24.5950  -30.2730 C   0  0  0  0  0  0  0  0  0  0  0  0
   -6.9050   23.9070  -31.0310 C   0  0  0  0  0  0  0  0  0  0  0  0
   -6.5250   22.8770  -31.8960 C   0  0  0  0  0  0  0  0  0  0  0  0
   -5.1800   22.5220  -32.0100 C   0  0  0  0  0  0  0  0  0  0  0  0
   -4.2150   23.1830  -31.2490 C   0  0  0  0  0  0  0  0  0  0  0  0
   -4.5850   24.2000  -30.3560 C   0  0  0  0  0  0  0  0  0  0  0  0
   -3.5630   24.8420  -29.5790 N   0  0  0  0  0  0  0  0  0  0  0  0
   -2.9740   24.2240  -28.4250 C   0  0  0  0  0  0  0  0  0  0  0  0
   -3.1540   22.9920  -28.2160 O   0  0  0  0  0  0  0  0  0  0  0  0
   -2.1120   25.0000  -27.5030 C   0  0  0  0  0  0  0  0  0  0  0  0
   -2.1540   24.7280  -26.1230 C   0  0  0  0  0  0  0  0  0  0  0  0
   -1.3460   25.4410  -25.2340 C   0  0  0  0  0  0  0  0  0  0  0  0
   -0.4930   26.4390  -25.7080 C   0  0  0  0  0  0  0  0  0  0  0  0
   -0.4530   26.7320  -27.0720 C   0  0  0  0  0  0  0  0  0  0  0  0
   -1.2620   26.0270  -27.9710 C   0  0  0  0  0  0  0  0  0  0  0  0
   -1.2290   26.3750  -29.3170 O   0  0  0  0  0  0  0  0  0  0  0  0
   -6.2725   25.4399  -28.3350 H   0  0  0  0  0  0  0  0  0  0  0  0
   -5.7686   26.6170  -29.5948 H   0  0  0  0  0  0  0  0  0  0  0  0
   -7.4414   25.9626  -29.5948 H   0  0  0  0  0  0  0  0  0  0  0  0
   -7.9666   24.1814  -30.9428 H   0  0  0  0  0  0  0  0  0  0  0  0
   -7.2859   22.3462  -32.4869 H   0  0  0  0  0  0  0  0  0  0  0  0
   -4.8803   21.7201  -32.7007 H   0  0  0  0  0  0  0  0  0  0  0  0
   -3.1557   22.9045  -31.3500 H   0  0  0  0  0  0  0  0  0  0  0  0
   -3.0800   25.6710  -29.9950 H   0  0  0  0  0  0  0  0  0  0  0  0
   -2.8286   23.9476  -25.7411 H   0  0  0  0  0  0  0  0  0  0  0  0
   -1.3821   25.2154  -24.1580 H   0  0  0  0  0  0  0  0  0  0  0  0
    0.1474   26.9943  -25.0069 H   0  0  0  0  0  0  0  0  0  0  0  0
    0.2178   27.5211  -27.4426 H   0  0  0  0  0  0  0  0  0  0  0  0
  1  2  1  0
  2  3  2  0
  3  4  1  0
  4  5  2  0
  5  6  1  0
  6  7  2  0
  7  8  1  0
  8  9  1  0
  9 10  2  0
  9 11  1  0
 11 12  2  0
 12 13  1  0
 13 14  2  0
 14 15  1  0
 15 16  2  0
 16 17  1  0
  7  2  1  0
 16 11  1  0
  1 18  1  0
  1 19  1  0
  1 20  1  0
  3 21  1  0
  4 22  1  0
  5 23  1  0
  6 24  1  0
  8 25  1  0
 12 26  1  0
 13 27  1  0
 14 28  1  0
 15 29  1  0
M  CHG  1  17  -1
M  END
>  <UniqueID>  (9) 
9

>  <SMILES>  (9) 
Cc1ccccc1NC(=O)c1ccccc1[O-]

>  <Energy>  (9) 
39.30202267153015

>  <Genealogy>  (9) 
Cc1ccccc1NC(=O)c1ccccc1[O-] (protonated)
Cc1ccccc1NC(=O)c1ccccc1[O-] (3D coordinates assigned)
Cc1ccccc1NC(=O)c1ccccc1[O-] (optimized conformer: 39.30202267153015 kcal/mol)

>  <smiles>  (9) 
Cc1ccccc1NC(=O)c1ccccc1O

>  <score_type>  (9) 
oracle

>  <origin>  (9) 
adgpu

>  <m_score__min__energy>  (9) 
-9.8699999999999992

>  <m_primary>  (9) 
energy

$$$$
9:0
     RDKit          3D

 36 38  0  0  0  0  0  0  0  0999 V2000
   -2.7630   21.8950  -30.9030 C   0  0  0  0  0  0  0  0  0  0  0  0
   -3.4610   23.1810  -30.5980 C   0  0  0  0  0  0  0  0  0  0  0  0
   -2.8270   24.2600  -30.0980 N   0  0  0  0  0  0  0  0  0  0  0  0
   -3.7110   25.2090  -29.9870 O   0  0  0  0  0  0  0  0  0  0  0  0
   -4.8940   24.8060  -30.3860 C   0  0  0  0  0  0  0  0  0  0  0  0
   -6.1120   25.6720  -30.3890 C   0  0  0  0  0  0  0  0  0  0  0  0
   -4.8030   23.4850  -30.7900 C   0  0  0  0  0  0  0  0  0  0  0  0
   -5.8860   22.6390  -31.3370 C   0  0  0  0  0  0  0  0  0  0  0  0
   -5.6170   21.3930  -31.9190 C   0  0  0  0  0  0  0  0  0  0  0  0
   -6.6850   20.6280  -32.4160 C   0  0  0  0  0  0  0  0  0  0  0  0
   -6.4740   19.3430  -33.0380 N   0  0  0  0  0  0  0  0  0  0  0  0
   -7.1900   18.1560  -32.5960 C   0  0  0  0  0  0  0  0  0  0  0  0
   -6.8180   17.1310  -33.5930 C   0  0  0  0  0  0  0  0  0  0  0  0
   -7.2420   15.9860  -33.5700 O   0  0  0  0  0  0  0  0  0  0  0  0
   -5.8850   17.6360  -34.6310 C   0  0  0  0  0  0  0  0  0  0  0  0
   -5.6130   19.0910  -34.2030 C   0  0  2  0  0  0  0  0  0  0  0  0
   -4.1370   19.2910  -33.8330 C   0  0  0  0  0  0  0  0  0  0  0  0
   -7.9500   21.1210  -32.3170 N   0  0  0  0  0  0  0  0  0  0  0  0
   -8.1970   22.3240  -31.7380 C   0  0  0  0  0  0  0  0  0  0  0  0
   -7.1720   23.0670  -31.2510 N   0  0  0  0  0  0  0  0  0  0  0  0
   -2.4908   21.3935  -29.9626 H   0  0  0  0  0  0  0  0  0  0  0  0
   -3.4316   21.2441  -31.4855 H   0  0  0  0  0  0  0  0  0  0  0  0
   -1.8529   22.1010  -31.4855 H   0  0  0  0  0  0  0  0  0  0  0  0
   -6.4125   25.8857  -29.3526 H   0  0  0  0  0  0  0  0  0  0  0  0
   -5.8895   26.6159  -30.9083 H   0  0  0  0  0  0  0  0  0  0  0  0
   -6.9304   25.1519  -30.9083 H   0  0  0  0  0  0  0  0  0  0  0  0
   -4.5845   21.0195  -31.9857 H   0  0  0  0  0  0  0  0  0  0  0  0
   -6.8687   17.8570  -31.5874 H   0  0  0  0  0  0  0  0  0  0  0  0
   -8.2768   18.3131  -32.5313 H   0  0  0  0  0  0  0  0  0  0  0  0
   -4.9544   17.0496  -34.6403 H   0  0  0  0  0  0  0  0  0  0  0  0
   -6.2985   17.5615  -35.6476 H   0  0  0  0  0  0  0  0  0  0  0  0
   -5.8300   19.7896  -35.0245 H   0  0  0  0  0  0  0  0  0  0  0  0
   -4.0321   19.3052  -32.7381 H   0  0  0  0  0  0  0  0  0  0  0  0
   -3.5399   18.4656  -34.2479 H   0  0  0  0  0  0  0  0  0  0  0  0
   -3.7811   20.2456  -34.2479 H   0  0  0  0  0  0  0  0  0  0  0  0
   -9.2294   22.6965  -31.6638 H   0  0  0  0  0  0  0  0  0  0  0  0
  1  2  1  0
  2  3  2  0
  3  4  1  0
  4  5  1  0
  5  6  1  0
  5  7  2  0
  7  8  1  0
  8  9  2  0
  9 10  1  0
 10 11  1  0
 11 12  1  0
 12 13  1  0
 13 14  2  0
 13 15  1  0
 15 16  1  0
 16 17  1  0
 10 18  2  0
 18 19  1  0
 19 20  2  0
  7  2  1  0
 20  8  1  0
 16 11  1  0
  1 21  1  0
  1 22  1  0
  1 23  1  0
  6 24  1  0
  6 25  1  0
  6 26  1  0
  9 27  1  0
 12 28  1  0
 12 29  1  0
 15 30  1  0
 15 31  1  0
 16 32  1  6
 17 33  1  0
 17 34  1  0
 17 35  1  0
 19 36  1  0
M  END
>  <UniqueID>  (10) 
10

>  <SMILES>  (10) 
Cc1noc(C)c1-c1cc(N2CC(=O)C[C@@H]2C)ncn1

>  <Energy>  (10) 
71.02739128451816

>  <Genealogy>  (10) 
Cc1noc(C)c1-c1cc(N2CC(=O)C[C@@H]2C)ncn1 (chirality)
Cc1noc(C)c1-c1cc(N2CC(=O)C[C@@H]2C)ncn1 (3D coordinates assigned)
Cc1noc(C)c1-c1cc(N2CC(=O)C[C@@H]2C)ncn1 (nonaromatic ring conformer: 71.02739128451816 kcal/mol)

>  <smiles>  (10) 
Cc1noc(C)c1-c1cc(N2CC(=O)CC2C)ncn1

>  <score_type>  (10) 
oracle

>  <origin>  (10) 
adgpu

>  <m_score__min__energy>  (10) 
-8.4000000000000004

>  <m_primary>  (10) 
energy

$$$$
10:0
     RDKit          3D

 50 52  0  0  0  0  0  0  0  0999 V2000
   -2.9510   25.2840  -26.4820 C   0  0  0  0  0  0  0  0  0  0  0  0
   -1.8680   24.4480  -27.1100 C   0  0  0  0  0  0  0  0  0  0  0  0
   -1.0740   23.6140  -26.3050 C   0  0  0  0  0  0  0  0  0  0  0  0
   -0.0890   22.8070  -26.8790 C   0  0  0  0  0  0  0  0  0  0  0  0
    0.1010   22.8110  -28.2610 C   0  0  0  0  0  0  0  0  0  0  0  0
   -0.6880   23.6290  -29.0740 C   0  0  0  0  0  0  0  0  0  0  0  0
   -1.6660   24.4680  -28.5070 C   0  0  0  0  0  0  0  0  0  0  0  0
   -2.5110   25.2940  -29.3230 N   0  0  0  0  0  0  0  0  0  0  0  0
   -3.7210   24.9110  -29.9900 C   0  0  0  0  0  0  0  0  0  0  0  0
   -4.2440   25.6560  -30.8610 O   0  0  0  0  0  0  0  0  0  0  0  0
   -4.4250   23.6590  -29.5690 C   0  0  0  0  0  0  0  0  0  0  0  0
   -4.9070   22.9290  -30.7450 N   0  0  0  0  0  0  0  0  0  0  0  0
   -3.9810   22.1870  -31.5580 C   0  0  0  0  0  0  0  0  0  0  0  0
   -2.6150   22.1800  -31.2410 C   0  0  0  0  0  0  0  0  0  0  0  0
   -1.7100   21.4720  -32.0370 C   0  0  0  0  0  0  0  0  0  0  0  0
   -2.1610   20.7540  -33.1590 C   0  0  0  0  0  0  0  0  0  0  0  0
   -1.2810   20.0470  -33.9910 O   0  0  0  0  0  0  0  0  0  0  0  0
   -0.0560   20.5280  -34.4730 C   0  0  0  0  0  0  0  0  0  0  0  0
    1.1710   19.9480  -34.0980 C   0  0  0  0  0  0  0  0  0  0  0  0
    2.3710   20.4460  -34.6130 C   0  0  0  0  0  0  0  0  0  0  0  0
    2.3570   21.5160  -35.5120 C   0  0  0  0  0  0  0  0  0  0  0  0
    1.1420   22.0830  -35.9040 C   0  0  0  0  0  0  0  0  0  0  0  0
   -0.0610   21.5860  -35.3920 C   0  0  0  0  0  0  0  0  0  0  0  0
   -3.5210   20.7820  -33.4860 C   0  0  0  0  0  0  0  0  0  0  0  0
   -4.4280   21.4860  -32.6900 C   0  0  0  0  0  0  0  0  0  0  0  0
   -6.5280   23.2100  -31.3130 S   0  0  0  0  0  0  0  0  0  0  0  0
   -7.4570   21.6920  -31.3000 C   0  0  0  0  0  0  0  0  0  0  0  0
   -6.4880   23.7680  -32.7080 O   0  0  0  0  0  0  0  0  0  0  0  0
   -7.2170   24.1900  -30.4050 O   0  0  0  0  0  0  0  0  0  0  0  0
   -2.8723   25.2233  -25.3865 H   0  0  0  0  0  0  0  0  0  0  0  0
   -2.8372   26.3308  -26.8003 H   0  0  0  0  0  0  0  0  0  0  0  0
   -3.9348   24.9088  -26.8003 H   0  0  0  0  0  0  0  0  0  0  0  0
   -1.2290   23.5965  -25.2161 H   0  0  0  0  0  0  0  0  0  0  0  0
    0.5378   22.1673  -26.2403 H   0  0  0  0  0  0  0  0  0  0  0  0
    0.8728   22.1695  -28.7113 H   0  0  0  0  0  0  0  0  0  0  0  0
   -0.5439   23.6173  -30.1645 H   0  0  0  0  0  0  0  0  0  0  0  0
   -3.7271   23.0214  -29.0065 H   0  0  0  0  0  0  0  0  0  0  0  0
   -5.2838   23.9260  -28.9356 H   0  0  0  0  0  0  0  0  0  0  0  0
   -2.2541   22.7341  -30.3620 H   0  0  0  0  0  0  0  0  0  0  0  0
   -0.6394   21.4765  -31.7845 H   0  0  0  0  0  0  0  0  0  0  0  0
    1.1851   19.1001  -33.3974 H   0  0  0  0  0  0  0  0  0  0  0  0
    3.3277   19.9952  -34.3104 H   0  0  0  0  0  0  0  0  0  0  0  0
    3.3027   21.9117  -35.9109 H   0  0  0  0  0  0  0  0  0  0  0  0
    1.1313   22.9213  -36.6161 H   0  0  0  0  0  0  0  0  0  0  0  0
   -1.0160   22.0279  -35.7124 H   0  0  0  0  0  0  0  0  0  0  0  0
   -3.8791   20.2454  -34.3770 H   0  0  0  0  0  0  0  0  0  0  0  0
   -5.4966   21.4913  -32.9509 H   0  0  0  0  0  0  0  0  0  0  0  0
   -7.6444   21.3857  -30.2603 H   0  0  0  0  0  0  0  0  0  0  0  0
   -8.4164   21.8449  -31.8159 H   0  0  0  0  0  0  0  0  0  0  0  0
   -6.8843   20.9072  -31.8159 H   0  0  0  0  0  0  0  0  0  0  0  0
  1  2  1  0
  2  3  2  0
  3  4  1  0
  4  5  2  0
  5  6  1  0
  6  7  2  0
  7  8  1  0
  8  9  1  0
  9 10  2  0
  9 11  1  0
 11 12  1  0
 12 13  1  0
 13 14  2  0
 14 15  1  0
 15 16  2  0
 16 17  1  0
 17 18  1  0
 18 19  2  0
 19 20  1  0
 20 21  2  0
 21 22  1  0
 22 23  2  0
 16 24  1  0
 24 25  2  0
 12 26  1  0
 26 27  1  0
 26 28  2  0
 26 29  2  0
  7  2  1  0
 25 13  1  0
 23 18  1  0
  1 30  1  0
  1 31  1  0
  1 32  1  0
  3 33  1  0
  4 34  1  0
  5 35  1  0
  6 36  1  0
 11 37  1  0
 11 38  1  0
 14 39  1  0
 15 40  1  0
 19 41  1  0
 20 42  1  0
 21 43  1  0
 22 44  1  0
 23 45  1  0
 24 46  1  0
 25 47  1  0
 27 48  1  0
 27 49  1  0
 27 50  1  0
M  CHG  1   8  -1
M  END
>  <UniqueID>  (11) 
11

>  <SMILES>  (11) 
Cc1ccccc1[N-]C(=O)CN(c1ccc(Oc2ccccc2)cc1)S(C)(=O)=O

>  <Energy>  (11) 
60.592899648406664

>  <Genealogy>  (11) 
Cc1ccccc1[N-]C(=O)CN(c1ccc(Oc2ccccc2)cc1)S(C)(=O)=O (protonated)
Cc1ccccc1[N-]C(=O)CN(c1ccc(Oc2ccccc2)cc1)S(C)(=O)=O (3D coordinates assigned)
Cc1ccccc1[N-]C(=O)CN(c1ccc(Oc2ccccc2)cc1)S(C)(=O)=O (optimized conformer: 60.592899648406664 kcal/mol)

>  <smiles>  (11) 
Cc1ccccc1NC(=O)CN(c1ccc(Oc2ccccc2)cc1)S(C)(=O)=O

>  <score_type>  (11) 
oracle

>  <origin>  (11) 
adgpu

>  <m_score__min__energy>  (11) 
-10.35

>  <m_primary>  (11) 
energy

$$$$
11:0
     RDKit          3D

 28 30  0  0  0  0  0  0  0  0999 V2000
   -3.4660   25.2970  -30.4610 O   0  0  0  0  0  0  0  0  0  0  0  0
   -4.7690   24.8140  -30.4620 C   0  0  0  0  0  0  0  0  0  0  0  0
   -5.7850   25.5480  -29.8430 C   0  0  0  0  0  0  0  0  0  0  0  0
   -7.0950   25.0640  -29.8420 C   0  0  0  0  0  0  0  0  0  0  0  0
   -7.3930   23.8450  -30.4610 C   0  0  0  0  0  0  0  0  0  0  0  0
   -6.3790   23.0980  -31.0860 C   0  0  0  0  0  0  0  0  0  0  0  0
   -6.6930   21.8100  -31.7390 C   0  0  0  0  0  0  0  0  0  0  0  0
   -7.9340   21.4410  -32.1150 N   0  0  0  0  0  0  0  0  0  0  0  0
   -7.7890   20.2630  -32.6400 O   0  0  0  0  0  0  0  0  0  0  0  0
   -6.5280   19.9100  -32.5980 C   0  0  0  0  0  0  0  0  0  0  0  0
   -6.0040   18.6290  -33.1090 C   0  0  0  0  0  0  0  0  0  0  0  0
   -5.9460   17.5040  -32.2690 C   0  0  0  0  0  0  0  0  0  0  0  0
   -5.4500   16.2880  -32.7490 C   0  0  0  0  0  0  0  0  0  0  0  0
   -5.0080   16.1810  -34.0710 C   0  0  0  0  0  0  0  0  0  0  0  0
   -4.5160   14.9630  -34.5360 O   0  0  0  0  0  0  0  0  0  0  0  0
   -5.0620   17.2990  -34.9150 C   0  0  0  0  0  0  0  0  0  0  0  0
   -5.5570   18.5160  -34.4370 C   0  0  0  0  0  0  0  0  0  0  0  0
   -5.7690   20.8670  -32.0250 N   0  0  0  0  0  0  0  0  0  0  0  0
   -5.0630   23.5950  -31.0810 C   0  0  0  0  0  0  0  0  0  0  0  0
   -5.5526   26.5069  -29.3567 H   0  0  0  0  0  0  0  0  0  0  0  0
   -7.8937   25.6419  -29.3539 H   0  0  0  0  0  0  0  0  0  0  0  0
   -8.4267   23.4689  -30.4586 H   0  0  0  0  0  0  0  0  0  0  0  0
   -6.2928   17.5804  -31.2279 H   0  0  0  0  0  0  0  0  0  0  0  0
   -5.4074   15.4126  -32.0842 H   0  0  0  0  0  0  0  0  0  0  0  0
   -3.6660   14.9100  -35.0840 H   0  0  0  0  0  0  0  0  0  0  0  0
   -4.7142   17.2186  -35.9555 H   0  0  0  0  0  0  0  0  0  0  0  0
   -5.5969   19.3900  -35.1038 H   0  0  0  0  0  0  0  0  0  0  0  0
   -4.2602   23.0212  -31.5670 H   0  0  0  0  0  0  0  0  0  0  0  0
  1  2  1  0
  2  3  2  0
  3  4  1  0
  4  5  2  0
  5  6  1  0
  6  7  1  0
  7  8  2  0
  8  9  1  0
  9 10  1  0
 10 11  1  0
 11 12  2  0
 12 13  1  0
 13 14  2  0
 14 15  1  0
 14 16  1  0
 16 17  2  0
 10 18  2  0
  6 19  2  0
 19  2  1  0
 18  7  1  0
 17 11  1  0
  3 20  1  0
  4 21  1  0
  5 22  1  0
 12 23  1  0
 13 24  1  0
 15 25  1  0
 16 26  1  0
 17 27  1  0
 19 28  1  0
M  CHG  1   1  -1
M  END
>  <UniqueID>  (12) 
12

>  <SMILES>  (12) 
[O-]c1cccc(-c2noc(-c3ccc(O)cc3)n2)c1

>  <Energy>  (12) 
64.3056775990379

>  <Genealogy>  (12) 
[O-]c1cccc(-c2noc(-c3ccc(O)cc3)n2)c1 (protonated)
[O-]c1cccc(-c2noc(-c3ccc(O)cc3)n2)c1 (3D coordinates assigned)
[O-]c1cccc(-c2noc(-c3ccc(O)cc3)n2)c1 (optimized conformer: 64.3056775990379 kcal/mol)

>  <smiles>  (12) 
Oc1ccc(-c2nc(-c3cccc(O)c3)no2)cc1

>  <score_type>  (12) 
oracle

>  <origin>  (12) 
adgpu

>  <m_score__min__energy>  (12) 
-9.9100000000000001

>  <m_primary>  (12) 
energy

$$$$
12:0
     RDKit          3D

 40 42  0  0  0  0  0  0  0  0999 V2000
   -2.9690   24.5170  -29.4030 C   0  0  0  0  0  0  0  0  0  0  0  0
   -3.8680   24.7960  -30.4720 O   0  0  0  0  0  0  0  0  0  0  0  0
   -4.9710   23.9960  -30.8110 C   0  0  0  0  0  0  0  0  0  0  0  0
   -6.2770   24.3040  -30.3850 C   0  0  0  0  0  0  0  0  0  0  0  0
   -7.3480   23.4820  -30.7410 C   0  0  0  0  0  0  0  0  0  0  0  0
   -7.1320   22.3420  -31.5220 C   0  0  0  0  0  0  0  0  0  0  0  0
   -8.4900   21.3040  -31.9470 S   0  0  0  0  0  0  0  0  0  0  0  0
   -9.6780   22.1240  -32.3690 O   0  0  0  0  0  0  0  0  0  0  0  0
   -8.8650   20.4820  -30.7470 O   0  0  0  0  0  0  0  0  0  0  0  0
   -8.0410   20.2470  -33.2490 N   0  0  0  0  0  0  0  0  0  0  0  0
   -7.1160   19.1540  -33.1140 C   0  0  0  0  0  0  0  0  0  0  0  0
   -7.1960   18.3260  -31.9850 C   0  0  0  0  0  0  0  0  0  0  0  0
   -6.3070   17.2600  -31.8160 C   0  0  0  0  0  0  0  0  0  0  0  0
   -5.3180   16.9950  -32.7810 C   0  0  0  0  0  0  0  0  0  0  0  0
   -4.3930   15.9010  -32.6240 N   0  0  0  0  0  0  0  0  0  0  0  0
   -3.1340   15.7810  -33.0840 C   0  0  0  0  0  0  0  0  0  0  0  0
   -2.6220   14.5930  -32.7120 N   0  0  0  0  0  0  0  0  0  0  0  0
   -3.5860   13.9980  -32.0230 N   0  0  0  0  0  0  0  0  0  0  0  0
   -4.6510   14.7820  -31.9690 N   0  0  0  0  0  0  0  0  0  0  0  0
   -5.2460   17.8190  -33.9170 C   0  0  0  0  0  0  0  0  0  0  0  0
   -6.1340   18.8850  -34.0850 C   0  0  0  0  0  0  0  0  0  0  0  0
   -5.8370   22.0310  -31.9530 C   0  0  0  0  0  0  0  0  0  0  0  0
   -4.7490   22.8540  -31.5990 C   0  0  0  0  0  0  0  0  0  0  0  0
   -3.4370   22.5720  -32.0080 O   0  0  0  0  0  0  0  0  0  0  0  0
   -3.0690   21.4730  -32.8350 C   0  0  0  0  0  0  0  0  0  0  0  0
   -3.4810   24.6759  -28.4424 H   0  0  0  0  0  0  0  0  0  0  0  0
   -2.6321   23.4720  -29.4705 H   0  0  0  0  0  0  0  0  0  0  0  0
   -2.0997   25.1876  -29.4705 H   0  0  0  0  0  0  0  0  0  0  0  0
   -6.4547   25.1973  -29.7682 H   0  0  0  0  0  0  0  0  0  0  0  0
   -8.3655   23.7319  -30.4060 H   0  0  0  0  0  0  0  0  0  0  0  0
   -8.5410   20.3780  -34.1570 H   0  0  0  0  0  0  0  0  0  0  0  0
   -7.9667   18.5173  -31.2238 H   0  0  0  0  0  0  0  0  0  0  0  0
   -6.3814   16.6237  -30.9218 H   0  0  0  0  0  0  0  0  0  0  0  0
   -2.6024   16.5407  -33.6759 H   0  0  0  0  0  0  0  0  0  0  0  0
   -4.4815   17.6226  -34.6832 H   0  0  0  0  0  0  0  0  0  0  0  0
   -6.0647   19.5178  -34.9821 H   0  0  0  0  0  0  0  0  0  0  0  0
   -5.6673   21.1379  -32.5724 H   0  0  0  0  0  0  0  0  0  0  0  0
   -2.7830   20.6188  -32.2038 H   0  0  0  0  0  0  0  0  0  0  0  0
   -3.9215   21.1904  -33.4701 H   0  0  0  0  0  0  0  0  0  0  0  0
   -2.2182   21.7608  -33.4701 H   0  0  0  0  0  0  0  0  0  0  0  0
  1  2  1  0
  2  3  1  0
  3  4  2  0
  4  5  1  0
  5  6  2  0
  6  7  1  0
  7  8  2  0
  7  9  2  0
  7 10  1  0
 10 11  1  0
 11 12  2  0
 12 13  1  0
 13 14  2  0
 14 15  1  0
 15 16  1  0
 16 17  2  0
 17 18  1  0
 18 19  2  0
 14 20  1  0
 20 21  2  0
  6 22  1  0
 22 23  2  0
 23 24  1  0
 24 25  1  0
 23  3  1  0
 21 11  1  0
 19 15  1  0
  1 26  1  0
  1 27  1  0
  1 28  1  0
  4 29  1  0
  5 30  1  0
 10 31  1  0
 12 32  1  0
 13 33  1  0
 16 34  1  0
 20 35  1  0
 21 36  1  0
 22 37  1  0
 25 38  1  0
 25 39  1  0
 25 40  1  0
M  END
>  <UniqueID>  (13) 
13

>  <SMILES>  (13) 
COc1ccc(S(=O)(=O)Nc2ccc(-n3cnnn3)cc2)cc1OC

>  <Energy>  (13) 
85.65829000110314

>  <Genealogy>  (13) 
COc1ccc(S(=O)(=O)Nc2ccc(-n3cnnn3)cc2)cc1OC (3D coordinates assigned)
COc1ccc(S(=O)(=O)Nc2ccc(-n3cnnn3)cc2)cc1OC (optimized conformer: 85.65829000110314 kcal/mol)

>  <smiles>  (13) 
COc1ccc(S(=O)(=O)Nc2ccc(-n3cnnn3)cc2)cc1OC

>  <score_type>  (13) 
oracle

>  <origin>  (13) 
adgpu

>  <m_score__min__energy>  (13) 
-8.7400000000000002

>  <m_primary>  (13) 
energy

$$$$
13:0
     RDKit          3D

 44 46  0  0  0  0  0  0  0  0999 V2000
   -3.8520   25.2990  -30.8770 N   0  0  0  0  0  0  0  0  0  0  0  0
   -5.2100   24.8770  -29.8960 S   0  0  0  0  0  0  0  0  0  0  0  0
   -6.1410   26.0520  -29.7900 O   0  0  0  0  0  0  0  0  0  0  0  0
   -4.7360   24.5130  -28.5170 O   0  0  0  0  0  0  0  0  0  0  0  0
   -6.0540   23.5110  -30.6170 C   0  0  0  0  0  0  0  0  0  0  0  0
   -7.4540   23.4540  -30.5970 C   0  0  0  0  0  0  0  0  0  0  0  0
   -8.1210   22.3620  -31.1590 C   0  0  0  0  0  0  0  0  0  0  0  0
   -7.4000   21.3210  -31.7580 C   0  0  0  0  0  0  0  0  0  0  0  0
   -8.1180   20.2040  -32.3020 N   0  0  0  0  0  0  0  0  0  0  0  0
   -7.5600   18.9280  -32.6310 C   0  0  0  0  0  0  0  0  0  0  0  0
   -7.7760   17.9530  -31.8640 O   0  0  0  0  0  0  0  0  0  0  0  0
   -6.8550   18.7310  -33.8680 N   0  0  0  0  0  0  0  0  0  0  0  0
   -5.9780   17.6210  -34.1250 C   0  0  0  0  0  0  0  0  0  0  0  0
   -4.7720   17.8390  -34.8080 C   0  0  0  0  0  0  0  0  0  0  0  0
   -3.8920   16.7800  -35.0490 C   0  0  0  0  0  0  0  0  0  0  0  0
   -4.2020   15.4900  -34.6030 C   0  0  0  0  0  0  0  0  0  0  0  0
   -3.0850   14.1610  -34.8890 S   0  0  0  0  0  0  0  0  0  0  0  0
   -2.2000   14.4970  -36.0580 O   0  0  0  0  0  0  0  0  0  0  0  0
   -3.8630   12.9130  -35.1980 O   0  0  0  0  0  0  0  0  0  0  0  0
   -2.1230   13.9240  -33.4620 N   0  0  0  0  0  0  0  0  0  0  0  0
   -1.3130   14.7880  -32.9210 C   0  0  0  0  0  0  0  0  0  0  0  0
   -1.1120   16.0790  -33.4540 C   0  0  0  0  0  0  0  0  0  0  0  0
   -0.2260   16.9530  -32.8190 C   0  0  0  0  0  0  0  0  0  0  0  0
    0.4490   16.5470  -31.6680 C   0  0  0  0  0  0  0  0  0  0  0  0
    0.2270   15.2650  -31.1650 C   0  0  0  0  0  0  0  0  0  0  0  0
   -0.6380   14.4260  -31.7960 N   0  0  0  0  0  0  0  0  0  0  0  0
   -5.3900   15.2710  -33.8930 C   0  0  0  0  0  0  0  0  0  0  0  0
   -6.2720   16.3290  -33.6530 C   0  0  0  0  0  0  0  0  0  0  0  0
   -5.9950   21.3630  -31.7460 C   0  0  0  0  0  0  0  0  0  0  0  0
   -5.3280   22.4550  -31.1850 C   0  0  0  0  0  0  0  0  0  0  0  0
   -3.0100   25.2740  -30.2590 H   0  0  0  0  0  0  0  0  0  0  0  0
   -8.0296   24.2711  -30.1376 H   0  0  0  0  0  0  0  0  0  0  0  0
   -9.2198   22.3197  -31.1308 H   0  0  0  0  0  0  0  0  0  0  0  0
   -7.0600   19.3890  -34.6530 H   0  0  0  0  0  0  0  0  0  0  0  0
   -4.5171   18.8507  -35.1564 H   0  0  0  0  0  0  0  0  0  0  0  0
   -2.9522   16.9611  -35.5913 H   0  0  0  0  0  0  0  0  0  0  0  0
   -1.6480   16.3944  -34.3613 H   0  0  0  0  0  0  0  0  0  0  0  0
   -0.0608   17.9612  -33.2268 H   0  0  0  0  0  0  0  0  0  0  0  0
    1.1481   17.2297  -31.1629 H   0  0  0  0  0  0  0  0  0  0  0  0
    0.7519   14.9323  -30.2574 H   0  0  0  0  0  0  0  0  0  0  0  0
   -5.6296   14.2631  -33.5231 H   0  0  0  0  0  0  0  0  0  0  0  0
   -7.2010   16.1500  -33.0919 H   0  0  0  0  0  0  0  0  0  0  0  0
   -5.4184   20.5328  -32.1800 H   0  0  0  0  0  0  0  0  0  0  0  0
   -4.2284   22.4862  -31.1891 H   0  0  0  0  0  0  0  0  0  0  0  0
  1  2  1  0
  2  3  2  0
  2  4  2  0
  2  5  1  0
  5  6  2  0
  6  7  1  0
  7  8  2  0
  8  9  1  0
  9 10  1  0
 10 11  2  0
 10 12  1  0
 12 13  1  0
 13 14  2  0
 14 15  1  0
 15 16  2  0
 16 17  1  0
 17 18  2  0
 17 19  2  0
 17 20  1  0
 20 21  2  3
 21 22  1  0
 22 23  2  0
 23 24  1  0
 24 25  2  0
 25 26  1  0
 16 27  1  0
 27 28  2  0
  8 29  1  0
 29 30  2  0
 30  5  1  0
 28 13  1  0
 26 21  1  0
  1 31  1  0
  6 32  1  0
  7 33  1  0
 12 34  1  0
 14 35  1  0
 15 36  1  0
 22 37  1  0
 23 38  1  0
 24 39  1  0
 25 40  1  0
 27 41  1  0
 28 42  1  0
 29 43  1  0
 30 44  1  0
M  CHG  3   1  -1   9  -1  26  -1
M  END
>  <UniqueID>  (14) 
14

>  <SMILES>  (14) 
[NH-]S(=O)(=O)c1ccc([N-]C(=O)Nc2ccc(S(=O)(=O)N=c3cccc[n-]3)cc2)cc1

>  <Energy>  (14) 
60.416342268831535

>  <Genealogy>  (14) 
[NH-]S(=O)(=O)c1ccc([N-]C(=O)Nc2ccc(S(=O)(=O)N=c3cccc[n-]3)cc2)cc1 (protonated)
[NH-]S(=O)(=O)c1ccc([N-]C(=O)Nc2ccc(S(=O)(=O)N=c3cccc[n-]3)cc2)cc1 (3D coordinates assigned)
[NH-]S(=O)(=O)c1ccc([N-]C(=O)Nc2ccc(S(=O)(=O)N=c3cccc[n-]3)cc2)cc1 (optimized conformer: 60.416342268831535 kcal/mol)

>  <smiles>  (14) 
NS(=O)(=O)c1ccc(NC(=O)Nc2ccc(S(=O)(=O)N=c3cccc[nH]3)cc2)cc1

>  <score_type>  (14) 
oracle

>  <origin>  (14) 
adgpu

>  <m_score__min__energy>  (14) 
-10.73

>  <m_primary>  (14) 
energy

$$$$
14:0
     RDKit          3D

 52 55  0  0  0  0  0  0  0  0999 V2000
   -2.1820   25.2620  -29.3040 N   0  0  0  0  0  0  0  0  0  0  0  0
   -1.2290   24.0370  -28.5440 S   0  0  0  0  0  0  0  0  0  0  0  0
   -1.8150   23.6980  -27.2020 O   0  0  0  0  0  0  0  0  0  0  0  0
    0.1680   24.5580  -28.3480 O   0  0  0  0  0  0  0  0  0  0  0  0
   -1.2070   22.5940  -29.5540 C   0  0  0  0  0  0  0  0  0  0  0  0
   -0.7230   21.3760  -29.0560 C   0  0  0  0  0  0  0  0  0  0  0  0
   -0.7130   20.2410  -29.8700 C   0  0  0  0  0  0  0  0  0  0  0  0
   -1.1670   20.3080  -31.1920 C   0  0  0  0  0  0  0  0  0  0  0  0
   -1.1580   19.1140  -31.9870 N   0  0  0  0  0  0  0  0  0  0  0  0
   -1.7800   18.9330  -33.2670 C   0  0  0  0  0  0  0  0  0  0  0  0
   -1.1420   19.2210  -34.3170 O   0  0  0  0  0  0  0  0  0  0  0  0
   -3.1530   18.3600  -33.3530 C   0  0  0  0  0  0  0  0  0  0  0  0
   -3.3340   17.0720  -33.8830 C   0  0  0  0  0  0  0  0  0  0  0  0
   -4.5770   16.5100  -33.9770 N   0  0  0  0  0  0  0  0  0  0  0  0
   -4.7050   15.1710  -34.5740 C   0  0  0  0  0  0  0  0  0  0  0  0
   -4.9470   14.1420  -33.5020 C   0  0  0  0  0  0  0  0  0  0  0  0
   -5.6510   12.9610  -33.7910 C   0  0  0  0  0  0  0  0  0  0  0  0
   -5.8440   11.9940  -32.8000 C   0  0  0  0  0  0  0  0  0  0  0  0
   -5.3310   12.1960  -31.5160 C   0  0  0  0  0  0  0  0  0  0  0  0
   -4.6230   13.3640  -31.2220 C   0  0  0  0  0  0  0  0  0  0  0  0
   -4.4280   14.3340  -32.2100 C   0  0  0  0  0  0  0  0  0  0  0  0
   -5.6870   17.1970  -33.5660 C   0  0  0  0  0  0  0  0  0  0  0  0
   -6.9470   16.6100  -33.6590 O   0  0  0  0  0  0  0  0  0  0  0  0
   -5.5680   18.4920  -33.0290 C   0  0  0  0  0  0  0  0  0  0  0  0
   -6.7750   19.2320  -32.5880 C   0  0  0  0  0  0  0  0  0  0  0  0
   -6.8640   20.6220  -32.7720 C   0  0  0  0  0  0  0  0  0  0  0  0
   -8.0030   21.3170  -32.3540 C   0  0  0  0  0  0  0  0  0  0  0  0
   -9.0610   20.6310  -31.7510 C   0  0  0  0  0  0  0  0  0  0  0  0
  -10.1640   21.3080  -31.3480 F   0  0  0  0  0  0  0  0  0  0  0  0
   -8.9800   19.2490  -31.5640 C   0  0  0  0  0  0  0  0  0  0  0  0
   -7.8440   18.5500  -31.9780 C   0  0  0  0  0  0  0  0  0  0  0  0
   -4.2910   19.0730  -32.9240 C   0  0  0  0  0  0  0  0  0  0  0  0
   -4.1760   20.2420  -32.4640 O   0  0  0  0  0  0  0  0  0  0  0  0
   -1.6740   21.5260  -31.6830 C   0  0  0  0  0  0  0  0  0  0  0  0
   -1.6860   22.6610  -30.8680 C   0  0  0  0  0  0  0  0  0  0  0  0
   -1.6010   25.6720  -30.0680 H   0  0  0  0  0  0  0  0  0  0  0  0
   -0.3506   21.3142  -28.0228 H   0  0  0  0  0  0  0  0  0  0  0  0
   -0.3448   19.2855  -29.4681 H   0  0  0  0  0  0  0  0  0  0  0  0
   -2.4581   16.5039  -34.2295 H   0  0  0  0  0  0  0  0  0  0  0  0
   -5.5500   15.1669  -35.2783 H   0  0  0  0  0  0  0  0  0  0  0  0
   -3.7725   14.9243  -35.1028 H   0  0  0  0  0  0  0  0  0  0  0  0
   -6.0523   12.7964  -34.8019 H   0  0  0  0  0  0  0  0  0  0  0  0
   -6.4001   11.0735  -33.0312 H   0  0  0  0  0  0  0  0  0  0  0  0
   -5.4846   11.4352  -30.7365 H   0  0  0  0  0  0  0  0  0  0  0  0
   -4.2182   13.5208  -30.2113 H   0  0  0  0  0  0  0  0  0  0  0  0
   -3.8666   15.2504  -31.9753 H   0  0  0  0  0  0  0  0  0  0  0  0
   -6.0341   21.1658  -33.2469 H   0  0  0  0  0  0  0  0  0  0  0  0
   -8.0665   22.4054  -32.5000 H   0  0  0  0  0  0  0  0  0  0  0  0
   -9.8132   18.7099  -31.0894 H   0  0  0  0  0  0  0  0  0  0  0  0
   -7.7847   17.4621  -31.8266 H   0  0  0  0  0  0  0  0  0  0  0  0
   -2.0617   21.5844  -32.7108 H   0  0  0  0  0  0  0  0  0  0  0  0
   -2.0739   23.6124  -31.2609 H   0  0  0  0  0  0  0  0  0  0  0  0
  1  2  1  0
  2  3  2  0
  2  4  2  0
  2  5  1  0
  5  6  2  0
  6  7  1  0
  7  8  2  0
  8  9  1  0
  9 10  1  0
 10 11  2  0
 10 12  1  0
 12 13  2  0
 13 14  1  0
 14 15  1  0
 15 16  1  0
 16 17  2  0
 17 18  1  0
 18 19  2  0
 19 20  1  0
 20 21  2  0
 14 22  1  0
 22 23  1  0
 22 24  2  0
 24 25  1  0
 25 26  2  0
 26 27  1  0
 27 28  2  0
 28 29  1  0
 28 30  1  0
 30 31  2  0
 24 32  1  0
 32 33  2  0
  8 34  1  0
 34 35  2  0
 35  5  1  0
 32 12  1  0
 21 16  1  0
 31 25  1  0
  1 36  1  0
  6 37  1  0
  7 38  1  0
 13 39  1  0
 15 40  1  0
 15 41  1  0
 17 42  1  0
 18 43  1  0
 19 44  1  0
 20 45  1  0
 21 46  1  0
 26 47  1  0
 27 48  1  0
 30 49  1  0
 31 50  1  0
 34 51  1  0
 35 52  1  0
M  CHG  3   1  -1   9  -1  23  -1
M  END
>  <UniqueID>  (15) 
15

>  <SMILES>  (15) 
[NH-]S(=O)(=O)c1ccc([N-]C(=O)c2cn(Cc3ccccc3)c([O-])c(-c3ccc(F)cc3)c2=O)cc1

>  <Energy>  (15) 
72.42080528951357

>  <Genealogy>  (15) 
[NH-]S(=O)(=O)c1ccc([N-]C(=O)c2cn(Cc3ccccc3)c([O-])c(-c3ccc(F)cc3)c2=O)cc1 (protonated)
[NH-]S(=O)(=O)c1ccc([N-]C(=O)c2cn(Cc3ccccc3)c([O-])c(-c3ccc(F)cc3)c2=O)cc1 (3D coordinates assigned)
[NH-]S(=O)(=O)c1ccc([N-]C(=O)c2cn(Cc3ccccc3)c([O-])c(-c3ccc(F)cc3)c2=O)cc1 (optimized conformer: 72.42080528951357 kcal/mol)

>  <smiles>  (15) 
NS(=O)(=O)c1ccc(NC(=O)c2cn(Cc3ccccc3)c(O)c(-c3ccc(F)cc3)c2=O)cc1

>  <score_type>  (15) 
oracle

>  <origin>  (15) 
adgpu

>  <m_score__min__energy>  (15) 
-12.41

>  <m_primary>  (15) 
energy

$$$$
15:0
     RDKit          3D

 50 53  0  0  0  0  0  0  0  0999 V2000
   -1.5990   25.6640  -30.0760 H   0  0  0  0  0  0  0  0  0  0  0  0
   -1.9420   25.2890  -29.1630 N   0  0  0  0  0  0  0  0  0  0  0  0
   -3.0430   24.0060  -29.5260 S   0  0  0  0  0  0  0  0  0  0  0  0
   -3.2640   23.9570  -31.0110 O   0  0  0  0  0  0  0  0  0  0  0  0
   -4.3630   24.2610  -28.8540 O   0  0  0  0  0  0  0  0  0  0  0  0
   -2.3710   22.4740  -28.9540 C   0  0  0  0  0  0  0  0  0  0  0  0
   -2.7050   22.0210  -27.6660 C   0  0  0  0  0  0  0  0  0  0  0  0
   -3.4021   22.6047  -27.0469 H   0  0  0  0  0  0  0  0  0  0  0  0
   -2.1610   20.8390  -27.1660 C   0  0  0  0  0  0  0  0  0  0  0  0
   -2.4279   20.4959  -26.1555 H   0  0  0  0  0  0  0  0  0  0  0  0
   -1.2790   20.0910  -27.9450 C   0  0  0  0  0  0  0  0  0  0  0  0
   -0.8476   19.1607  -27.5470 H   0  0  0  0  0  0  0  0  0  0  0  0
   -0.9430   20.5220  -29.2300 C   0  0  0  0  0  0  0  0  0  0  0  0
   -0.2513   19.9242  -29.8416 H   0  0  0  0  0  0  0  0  0  0  0  0
   -1.4810   21.7140  -29.7500 C   0  0  0  0  0  0  0  0  0  0  0  0
   -1.1330   22.1370  -31.0800 N   0  0  0  0  0  0  0  0  0  0  0  0
   -1.2540   23.1340  -31.3610 H   0  0  0  0  0  0  0  0  0  0  0  0
   -0.3310   21.0910  -32.2050 S   0  0  0  0  0  0  0  0  0  0  0  0
    0.7690   20.3470  -31.5040 O   0  0  0  0  0  0  0  0  0  0  0  0
    0.2580   21.9130  -33.3180 O   0  0  0  0  0  0  0  0  0  0  0  0
   -1.4740   19.9300  -32.8510 C   0  0  0  0  0  0  0  0  0  0  0  0
   -3.0630   19.7500  -32.3450 S   0  0  0  0  0  0  0  0  0  0  0  0
   -3.4290   18.4460  -33.3560 C   0  0  0  0  0  0  0  0  0  0  0  0
   -4.7400   17.7510  -33.4220 C   0  0  0  0  0  0  0  0  0  0  0  0
   -4.8300   16.4120  -33.8460 C   0  0  0  0  0  0  0  0  0  0  0  0
   -3.9197   15.8731  -34.1476 H   0  0  0  0  0  0  0  0  0  0  0  0
   -6.0650   15.7620  -33.8870 C   0  0  0  0  0  0  0  0  0  0  0  0
   -6.1212   14.7124  -34.2113 H   0  0  0  0  0  0  0  0  0  0  0  0
   -7.2290   16.4390  -33.5180 C   0  0  0  0  0  0  0  0  0  0  0  0
   -8.1971   15.9171  -33.5387 H   0  0  0  0  0  0  0  0  0  0  0  0
   -7.1670   17.7860  -33.1200 C   0  0  0  0  0  0  0  0  0  0  0  0
   -8.3350   18.5120  -32.7020 N   0  0  0  0  0  0  0  0  0  0  0  0
   -8.3950   19.7640  -32.3540 C   0  0  0  0  0  0  0  0  0  0  0  0
   -7.2700   20.5280  -32.2670 N   0  0  0  0  0  0  0  0  0  0  0  0
   -7.3260   21.8320  -31.8820 C   0  0  0  0  0  0  0  0  0  0  0  0
   -6.0680   22.6450  -31.7970 C   0  0  0  0  0  0  0  0  0  0  0  0
   -5.5320   22.5800  -30.5220 F   0  0  0  0  0  0  0  0  0  0  0  0
   -5.1360   22.1610  -32.6980 F   0  0  0  0  0  0  0  0  0  0  0  0
   -6.3490   23.9650  -32.0980 F   0  0  0  0  0  0  0  0  0  0  0  0
   -8.5620   22.3980  -31.5550 C   0  0  0  0  0  0  0  0  0  0  0  0
   -8.6326   23.4495  -31.2398 H   0  0  0  0  0  0  0  0  0  0  0  0
   -9.7030   21.6010  -31.6370 C   0  0  0  0  0  0  0  0  0  0  0  0
  -10.6872   22.0216  -31.3833 H   0  0  0  0  0  0  0  0  0  0  0  0
   -9.5990   20.3060  -32.0300 N   0  0  0  0  0  0  0  0  0  0  0  0
   -5.9200   18.4220  -33.0480 C   0  0  0  0  0  0  0  0  0  0  0  0
   -5.8623   19.4618  -32.6937 H   0  0  0  0  0  0  0  0  0  0  0  0
   -2.2840   18.1460  -34.1000 C   0  0  0  0  0  0  0  0  0  0  0  0
   -2.2439   17.3340  -34.8410 H   0  0  0  0  0  0  0  0  0  0  0  0
   -1.1940   18.9750  -33.8140 C   0  0  0  0  0  0  0  0  0  0  0  0
   -0.2141   18.8781  -34.3042 H   0  0  0  0  0  0  0  0  0  0  0  0
  1  2  1  0
  2  3  1  0
  3  4  2  0
  3  5  2  0
  3  6  1  0
  6  7  2  0
  7  8  1  0
  7  9  1  0
  9 10  1  0
  9 11  2  0
 11 12  1  0
 11 13  1  0
 13 14  1  0
 13 15  2  0
 15 16  1  0
 16 17  1  0
 16 18  1  0
 18 19  2  0
 18 20  2  0
 18 21  1  0
 21 22  1  0
 22 23  1  0
 23 24  1  0
 24 25  2  0
 25 26  1  0
 25 27  1  0
 27 28  1  0
 27 29  2  0
 29 30  1  0
 29 31  1  0
 31 32  1  0
 32 33  2  0
 33 34  1  0
 34 35  2  0
 35 36  1  0
 36 37  1  0
 36 38  1  0
 36 39  1  0
 35 40  1  0
 40 41  1  0
 40 42  2  0
 42 43  1  0
 42 44  1  0
 31 45  2  0
 45 46  1  0
 23 47  2  0
 47 48  1  0
 47 49  1  0
 49 50  1  0
 15  6  1  0
 49 21  2  0
 45 24  1  0
 44 33  1  0
M  CHG  2   2  -1  44  -1
M  END
>  <UniqueID>  (16) 
16

>  <SMILES>  (16) 
[NH-]S(=O)(=O)c1ccccc1NS(=O)(=O)c1ccc(-c2cccc(/N=c3\nc(C(F)(F)F)cc[n-]3)c2)s1

>  <Energy>  (16) 
94.42369322321163

>  <Genealogy>  (16) 
[NH-]S(=O)(=O)c1ccccc1NS(=O)(=O)c1ccc(-c2cccc(N=c3nc(C(F)(F)F)cc[n-]3)c2)s1 (protonated)
[NH-]S(=O)(=O)c1ccccc1NS(=O)(=O)c1ccc(-c2cccc(/N=c3\nc(C(F)(F)F)cc[n-]3)c2)s1 (cis-trans isomerization)
[NH-]S(=O)(=O)c1ccccc1NS(=O)(=O)c1ccc(-c2cccc(/N=c3\nc(C(F)(F)F)cc[n-]3)c2)s1 (3D coordinates assigned)
[NH-]S(=O)(=O)c1ccccc1NS(=O)(=O)c1ccc(-c2cccc(/N=c3\nc(C(F)(F)F)cc[n-]3)c2)s1 (optimized conformer: 94.42369322321163 kcal/mol)

>  <smiles>  (16) 
NS(=O)(=O)c1ccccc1NS(=O)(=O)c1ccc(-c2cccc(N=c3nc(C(F)(F)F)cc[nH]3)c2)s1

>  <score_type>  (16) 
oracle

>  <origin>  (16) 
adgpu

>  <m_score__min__energy>  (16) 
-13.380000000000001

>  <m_primary>  (16) 
energy

$$$$
16:0
     RDKit          3D

 33 34  0  0  0  0  0  0  0  0999 V2000
   -8.4180   18.2830  -32.4030 C   0  0  0  0  0  0  0  0  0  0  0  0
   -8.7000   19.6540  -32.6610 O   0  0  0  0  0  0  0  0  0  0  0  0
   -8.1420   20.7250  -31.9480 C   0  0  0  0  0  0  0  0  0  0  0  0
   -8.7360   21.2520  -30.7890 C   0  0  0  0  0  0  0  0  0  0  0  0
   -8.1350   22.3130  -30.1080 C   0  0  0  0  0  0  0  0  0  0  0  0
   -6.9330   22.8740  -30.5780 C   0  0  0  0  0  0  0  0  0  0  0  0
   -6.2950   23.9300  -29.9080 O   0  0  0  0  0  0  0  0  0  0  0  0
   -6.8440   25.2330  -29.7470 C   0  0  0  0  0  0  0  0  0  0  0  0
   -6.3500   22.3610  -31.7500 C   0  0  0  0  0  0  0  0  0  0  0  0
   -4.8200   23.0480  -32.4010 S   0  0  0  0  0  0  0  0  0  0  0  0
   -3.8290   22.4800  -31.0070 C   0  0  0  0  0  0  0  0  0  0  0  0
   -3.1290   23.2620  -30.1070 C   0  0  0  0  0  0  0  0  0  0  0  0
   -3.1280   24.6920  -30.0230 N   0  0  0  0  0  0  0  0  0  0  0  0
   -2.2960   25.2910  -29.3120 O   0  0  0  0  0  0  0  0  0  0  0  0
   -3.9580   25.4200  -30.8430 O   0  0  0  0  0  0  0  0  0  0  0  0
   -2.4560   22.4750  -29.2410 N   0  0  0  0  0  0  0  0  0  0  0  0
   -2.7720   21.2200  -29.6260 C   0  0  0  0  0  0  0  0  0  0  0  0
   -3.6180   21.1930  -30.6760 N   0  0  0  0  0  0  0  0  0  0  0  0
   -4.1040   19.9950  -31.3540 C   0  0  0  0  0  0  0  0  0  0  0  0
   -6.9480   21.2830  -32.4140 C   0  0  0  0  0  0  0  0  0  0  0  0
   -8.3832   18.1139  -31.3166 H   0  0  0  0  0  0  0  0  0  0  0  0
   -9.2061   17.6568  -32.8465 H   0  0  0  0  0  0  0  0  0  0  0  0
   -7.4467   18.0187  -32.8465 H   0  0  0  0  0  0  0  0  0  0  0  0
   -9.6794   20.8267  -30.4159 H   0  0  0  0  0  0  0  0  0  0  0  0
   -8.6048   22.7131  -29.1974 H   0  0  0  0  0  0  0  0  0  0  0  0
   -6.9399   25.4606  -28.6751 H   0  0  0  0  0  0  0  0  0  0  0  0
   -6.1806   25.9715  -30.2207 H   0  0  0  0  0  0  0  0  0  0  0  0
   -7.8359   25.2741  -30.2207 H   0  0  0  0  0  0  0  0  0  0  0  0
   -2.3812   20.3162  -29.1357 H   0  0  0  0  0  0  0  0  0  0  0  0
   -4.4071   19.2478  -30.6058 H   0  0  0  0  0  0  0  0  0  0  0  0
   -4.9678   20.2549  -31.9835 H   0  0  0  0  0  0  0  0  0  0  0  0
   -3.3033   19.5796  -31.9835 H   0  0  0  0  0  0  0  0  0  0  0  0
   -6.4715   20.8694  -33.3150 H   0  0  0  0  0  0  0  0  0  0  0  0
  1  2  1  0
  2  3  1  0
  3  4  2  0
  4  5  1  0
  5  6  2  0
  6  7  1  0
  7  8  1  0
  6  9  1  0
  9 10  1  0
 10 11  1  0
 11 12  2  0
 12 13  1  0
 13 14  2  0
 13 15  1  0
 12 16  1  0
 16 17  2  0
 17 18  1  0
 18 19  1  0
  9 20  2  0
 20  3  1  0
 18 11  1  0
  1 21  1  0
  1 22  1  0
  1 23  1  0
  4 24  1  0
  5 25  1  0
  8 26  1  0
  8 27  1  0
  8 28  1  0
 17 29  1  0
 19 30  1  0
 19 31  1  0
 19 32  1  0
 20 33  1  0
M  CHG  2  13   1  15  -1
M  END
>  <UniqueID>  (17) 
17

>  <SMILES>  (17) 
COc1ccc(OC)c(Sc2c([N+](=O)[O-])ncn2C)c1

>  <Energy>  (17) 
58.3574996080927

>  <Genealogy>  (17) 
COc1ccc(OC)c(Sc2c([N+](=O)[O-])ncn2C)c1 (3D coordinates assigned)
COc1ccc(OC)c(Sc2c([N+](=O)[O-])ncn2C)c1 (optimized conformer: 58.3574996080927 kcal/mol)

>  <smiles>  (17) 
COc1ccc(OC)c(Sc2c([N+](=O)[O-])ncn2C)c1

>  <score_type>  (17) 
oracle

>  <origin>  (17) 
adgpu

>  <m_score__min__energy>  (17) 
-6.9199999999999999

>  <m_primary>  (17) 
energy

$$$$
17:0
     RDKit          3D

 46 49  0  0  0  0  0  0  0  0999 V2000
   -5.4480   20.1650  -33.8420 O   0  0  0  0  0  0  0  0  0  0  0  0
   -5.5500   20.6000  -32.6620 C   0  0  0  0  0  0  0  0  0  0  0  0
   -4.3640   20.8400  -31.8840 N   0  0  0  0  0  0  0  0  0  0  0  0
   -3.0480   20.7410  -32.4550 C   0  0  0  0  0  0  0  0  0  0  0  0
   -2.8770   19.9880  -33.6260 C   0  0  0  0  0  0  0  0  0  0  0  0
   -1.6060   19.8180  -34.1800 C   0  0  0  0  0  0  0  0  0  0  0  0
   -0.4940   20.4020  -33.5710 C   0  0  0  0  0  0  0  0  0  0  0  0
   -0.6530   21.1750  -32.4180 C   0  0  0  0  0  0  0  0  0  0  0  0
   -1.9280   21.3690  -31.8660 C   0  0  0  0  0  0  0  0  0  0  0  0
   -2.0930   22.4680  -30.4520 S   0  0  0  0  0  0  0  0  0  0  0  0
   -1.7820   21.1600  -29.2650 C   0  0  0  0  0  0  0  0  0  0  0  0
   -0.5440   20.5040  -29.2560 C   0  0  0  0  0  0  0  0  0  0  0  0
   -0.2990   19.4820  -28.3340 C   0  0  0  0  0  0  0  0  0  0  0  0
   -1.2910   19.1110  -27.4200 C   0  0  0  0  0  0  0  0  0  0  0  0
   -2.5270   19.7640  -27.4290 C   0  0  0  0  0  0  0  0  0  0  0  0
   -2.7730   20.7860  -28.3500 C   0  0  0  0  0  0  0  0  0  0  0  0
   -6.8920   20.9620  -32.1470 C   0  0  0  0  0  0  0  0  0  0  0  0
   -7.6970   19.9380  -31.6120 C   0  0  0  0  0  0  0  0  0  0  0  0
   -8.9790   20.2150  -31.1310 C   0  0  0  0  0  0  0  0  0  0  0  0
   -9.4730   21.5170  -31.1690 C   0  0  0  0  0  0  0  0  0  0  0  0
   -8.6840   22.5490  -31.6780 C   0  0  0  0  0  0  0  0  0  0  0  0
   -7.3930   22.2880  -32.1590 C   0  0  0  0  0  0  0  0  0  0  0  0
   -6.4110   23.6900  -32.7090 S   0  0  0  0  0  0  0  0  0  0  0  0
   -5.5430   23.8100  -31.1510 C   0  0  0  0  0  0  0  0  0  0  0  0
   -4.6280   24.7960  -30.9600 N   0  0  0  0  0  0  0  0  0  0  0  0
   -3.9560   24.9060  -29.7850 C   0  0  0  0  0  0  0  0  0  0  0  0
   -4.2040   23.9980  -28.7560 C   0  0  0  0  0  0  0  0  0  0  0  0
   -3.2740   24.1280  -27.0930 Br  0  0  0  0  0  0  0  0  0  0  0  0
   -5.1480   22.9930  -28.9690 C   0  0  0  0  0  0  0  0  0  0  0  0
   -5.7990   22.9170  -30.1590 N   0  0  0  0  0  0  0  0  0  0  0  0
   -4.4620   21.4190  -31.0200 H   0  0  0  0  0  0  0  0  0  0  0  0
   -3.7502   19.5280  -34.1116 H   0  0  0  0  0  0  0  0  0  0  0  0
   -1.4813   19.2234  -35.0970 H   0  0  0  0  0  0  0  0  0  0  0  0
    0.5083   20.2535  -33.9992 H   0  0  0  0  0  0  0  0  0  0  0  0
    0.2257   21.6336  -31.9409 H   0  0  0  0  0  0  0  0  0  0  0  0
    0.2362   20.7935  -29.9753 H   0  0  0  0  0  0  0  0  0  0  0  0
    0.6742   18.9694  -28.3272 H   0  0  0  0  0  0  0  0  0  0  0  0
   -1.0986   18.3064  -26.6951 H   0  0  0  0  0  0  0  0  0  0  0  0
   -3.3071   19.4730  -26.7101 H   0  0  0  0  0  0  0  0  0  0  0  0
   -3.7469   21.2973  -28.3558 H   0  0  0  0  0  0  0  0  0  0  0  0
   -7.3120   18.9083  -31.5724 H   0  0  0  0  0  0  0  0  0  0  0  0
   -9.5992   19.4039  -30.7217 H   0  0  0  0  0  0  0  0  0  0  0  0
  -10.4859   21.7316  -30.7974 H   0  0  0  0  0  0  0  0  0  0  0  0
   -9.0779   23.5758  -31.7022 H   0  0  0  0  0  0  0  0  0  0  0  0
   -3.2178   25.7094  -29.6452 H   0  0  0  0  0  0  0  0  0  0  0  0
   -5.3648   22.2634  -28.1748 H   0  0  0  0  0  0  0  0  0  0  0  0
  1  2  2  0
  2  3  1  0
  3  4  1  0
  4  5  2  0
  5  6  1  0
  6  7  2  0
  7  8  1  0
  8  9  2  0
  9 10  1  0
 10 11  1  0
 11 12  2  0
 12 13  1  0
 13 14  2  0
 14 15  1  0
 15 16  2  0
  2 17  1  0
 17 18  2  0
 18 19  1  0
 19 20  2  0
 20 21  1  0
 21 22  2  0
 22 23  1  0
 23 24  1  0
 24 25  2  0
 25 26  1  0
 26 27  2  0
 27 28  1  0
 27 29  1  0
 29 30  2  0
  9  4  1  0
 16 11  1  0
 22 17  1  0
 30 24  1  0
  3 31  1  0
  5 32  1  0
  6 33  1  0
  7 34  1  0
  8 35  1  0
 12 36  1  0
 13 37  1  0
 14 38  1  0
 15 39  1  0
 16 40  1  0
 18 41  1  0
 19 42  1  0
 20 43  1  0
 21 44  1  0
 26 45  1  0
 29 46  1  0
M  END
>  <UniqueID>  (18) 
18

>  <SMILES>  (18) 
O=C(Nc1ccccc1Sc1ccccc1)c1ccccc1Sc1ncc(Br)cn1

>  <Energy>  (18) 
53.21583733208214

>  <Genealogy>  (18) 
O=C(Nc1ccccc1Sc1ccccc1)c1ccccc1Sc1ncc(Br)cn1 (3D coordinates assigned)
O=C(Nc1ccccc1Sc1ccccc1)c1ccccc1Sc1ncc(Br)cn1 (optimized conformer: 53.21583733208214 kcal/mol)

>  <smiles>  (18) 
O=C(Nc1ccccc1Sc1ccccc1)c1ccccc1Sc1ncc(Br)cn1

>  <score_type>  (18) 
oracle

>  <origin>  (18) 
adgpu

>  <m_score__min__energy>  (18) 
-10.140000000000001

>  <m_primary>  (18) 
energy

$$$$
18:0
     RDKit          3D

 37 39  0  0  0  0  0  0  0  0999 V2000
   -5.9640   19.0400  -33.9000 C   0  0  0  0  0  0  0  0  0  0  0  0
   -6.8810   19.8300  -33.0220 C   0  0  0  0  0  0  0  0  0  0  0  0
   -7.8670   19.1840  -32.2630 C   0  0  0  0  0  0  0  0  0  0  0  0
   -8.7280   19.9450  -31.4700 C   0  0  0  0  0  0  0  0  0  0  0  0
   -8.6010   21.3350  -31.4410 C   0  0  0  0  0  0  0  0  0  0  0  0
   -7.5990   21.9500  -32.2050 C   0  0  0  0  0  0  0  0  0  0  0  0
   -7.4680   23.4420  -32.2350 C   0  0  0  0  0  0  0  0  0  0  0  0
   -6.4770   23.8720  -31.2550 N   0  0  0  0  0  0  0  0  0  0  0  0
   -5.2430   23.3570  -31.1050 C   0  0  0  0  0  0  0  0  0  0  0  0
   -4.5990   24.0820  -30.1220 C   0  0  0  0  0  0  0  0  0  0  0  0
   -3.2140   23.9210  -29.6380 C   0  0  0  0  0  0  0  0  0  0  0  0
   -2.7720   22.7640  -29.4180 O   0  0  0  0  0  0  0  0  0  0  0  0
   -2.3760   25.0470  -29.3480 N   0  0  0  0  0  0  0  0  0  0  0  0
   -1.9510   25.4690  -28.0440 C   0  0  0  0  0  0  0  0  0  0  0  0
   -0.8340   26.3060  -27.8680 C   0  0  0  0  0  0  0  0  0  0  0  0
   -0.4340   26.6850  -26.5820 C   0  0  0  0  0  0  0  0  0  0  0  0
   -1.1340   26.2190  -25.4650 C   0  0  0  0  0  0  0  0  0  0  0  0
   -0.6320   26.6950  -23.8530 Cl  0  0  0  0  0  0  0  0  0  0  0  0
   -2.2300   25.3650  -25.6340 C   0  0  0  0  0  0  0  0  0  0  0  0
   -2.6310   24.9850  -26.9190 C   0  0  0  0  0  0  0  0  0  0  0  0
   -5.5060   25.0500  -29.7340 C   0  0  0  0  0  0  0  0  0  0  0  0
   -6.6430   24.9040  -30.4420 N   0  0  0  0  0  0  0  0  0  0  0  0
   -6.7810   21.1870  -32.9810 N   0  0  0  0  0  0  0  0  0  0  0  0
   -5.2778   18.4488  -33.2758 H   0  0  0  0  0  0  0  0  0  0  0  0
   -6.5560   18.3646  -34.5350 H   0  0  0  0  0  0  0  0  0  0  0  0
   -5.3836   19.7255  -34.5350 H   0  0  0  0  0  0  0  0  0  0  0  0
   -7.9613   18.0884  -32.2920 H   0  0  0  0  0  0  0  0  0  0  0  0
   -9.5052   19.4502  -30.8690 H   0  0  0  0  0  0  0  0  0  0  0  0
   -9.2805   21.9419  -30.8247 H   0  0  0  0  0  0  0  0  0  0  0  0
   -7.1505   23.7604  -33.2389 H   0  0  0  0  0  0  0  0  0  0  0  0
   -8.4397   23.8963  -31.9914 H   0  0  0  0  0  0  0  0  0  0  0  0
   -4.8221   22.5093  -31.6657 H   0  0  0  0  0  0  0  0  0  0  0  0
   -0.2734   26.6636  -28.7442 H   0  0  0  0  0  0  0  0  0  0  0  0
    0.4320   27.3502  -26.4496 H   0  0  0  0  0  0  0  0  0  0  0  0
   -2.7766   24.9922  -24.7552 H   0  0  0  0  0  0  0  0  0  0  0  0
   -3.4844   24.3028  -27.0468 H   0  0  0  0  0  0  0  0  0  0  0  0
   -5.3276   25.8187  -28.9677 H   0  0  0  0  0  0  0  0  0  0  0  0
  1  2  1  0
  2  3  2  0
  3  4  1  0
  4  5  2  0
  5  6  1  0
  6  7  1  0
  7  8  1  0
  8  9  1  0
  9 10  2  0
 10 11  1  0
 11 12  2  0
 11 13  1  0
 13 14  1  0
 14 15  2  0
 15 16  1  0
 16 17  2  0
 17 18  1  0
 17 19  1  0
 19 20  2  0
 10 21  1  0
 21 22  2  0
  6 23  2  0
 23  2  1  0
 22  8  1  0
 20 14  1  0
  1 24  1  0
  1 25  1  0
  1 26  1  0
  3 27  1  0
  4 28  1  0
  5 29  1  0
  7 30  1  0
  7 31  1  0
  9 32  1  0
 15 33  1  0
 16 34  1  0
 19 35  1  0
 20 36  1  0
 21 37  1  0
M  CHG  1  13  -1
M  END
>  <UniqueID>  (19) 
19

>  <SMILES>  (19) 
Cc1cccc(Cn2cc(C(=O)[N-]c3ccc(Cl)cc3)cn2)n1

>  <Energy>  (19) 
71.5150279587571

>  <Genealogy>  (19) 
Cc1cccc(Cn2cc(C(=O)[N-]c3ccc(Cl)cc3)cn2)n1 (protonated)
Cc1cccc(Cn2cc(C(=O)[N-]c3ccc(Cl)cc3)cn2)n1 (3D coordinates assigned)
Cc1cccc(Cn2cc(C(=O)[N-]c3ccc(Cl)cc3)cn2)n1 (optimized conformer: 71.5150279587571 kcal/mol)

>  <smiles>  (19) 
Cc1cccc(Cn2cc(C(=O)Nc3ccc(Cl)cc3)cn2)n1

>  <score_type>  (19) 
oracle

>  <origin>  (19) 
adgpu

>  <m_score__min__energy>  (19) 
-10.26

>  <m_primary>  (19) 
energy

$$$$
19:0
     RDKit          3D

 45 47  0  0  0  0  0  0  0  0999 V2000
    0.6980   24.9540  -36.0670 C   0  0  0  0  0  0  0  0  0  0  0  0
    1.0720   23.6750  -36.5620 O   0  0  0  0  0  0  0  0  0  0  0  0
    1.3810   22.5970  -35.7240 C   0  0  0  0  0  0  0  0  0  0  0  0
    0.4030   22.0100  -34.9830 N   0  0  0  0  0  0  0  0  0  0  0  0
    0.6580   20.9550  -34.1660 C   0  0  0  0  0  0  0  0  0  0  0  0
   -0.4060   20.3660  -33.3900 N   0  0  0  0  0  0  0  0  0  0  0  0
   -1.8000   20.5640  -33.8210 C   0  0  0  0  0  0  0  0  0  0  0  0
   -2.7990   19.9400  -32.8380 C   0  0  0  0  0  0  0  0  0  0  0  0
   -2.4380   20.2450  -31.3700 C   0  0  0  0  0  0  0  0  0  0  0  0
   -2.8130   21.6760  -31.0010 C   0  0  0  0  0  0  0  0  0  0  0  0
   -4.0340   22.2110  -31.4510 C   0  0  0  0  0  0  0  0  0  0  0  0
   -4.3830   23.5330  -31.1580 C   0  0  0  0  0  0  0  0  0  0  0  0
   -3.5140   24.3410  -30.4220 C   0  0  0  0  0  0  0  0  0  0  0  0
   -3.8650   25.6550  -30.1340 O   0  0  0  0  0  0  0  0  0  0  0  0
   -2.2910   23.8290  -29.9800 C   0  0  0  0  0  0  0  0  0  0  0  0
   -1.4400   24.6110  -29.2700 F   0  0  0  0  0  0  0  0  0  0  0  0
   -1.9390   22.5060  -30.2700 C   0  0  0  0  0  0  0  0  0  0  0  0
   -0.9600   19.8970  -31.0230 C   0  0  0  0  0  0  0  0  0  0  0  0
   -0.1190   19.4900  -32.2430 C   0  0  0  0  0  0  0  0  0  0  0  0
    1.9240   20.4650  -34.0920 N   0  0  0  0  0  0  0  0  0  0  0  0
    2.9450   21.0030  -34.8110 C   0  0  0  0  0  0  0  0  0  0  0  0
    4.3120   20.4000  -34.6720 C   0  0  0  0  0  0  0  0  0  0  0  0
    2.6990   22.1160  -35.6430 C   0  0  0  0  0  0  0  0  0  0  0  0
    3.8010   22.7340  -36.4700 C   0  0  0  0  0  0  0  0  0  0  0  0
    0.7029   24.9373  -34.9671 H   0  0  0  0  0  0  0  0  0  0  0  0
    1.4129   25.7093  -36.4254 H   0  0  0  0  0  0  0  0  0  0  0  0
   -0.3112   25.2051  -36.4254 H   0  0  0  0  0  0  0  0  0  0  0  0
   -1.9996   21.6433  -33.8932 H   0  0  0  0  0  0  0  0  0  0  0  0
   -1.9281   20.0700  -34.7954 H   0  0  0  0  0  0  0  0  0  0  0  0
   -3.8010   20.3426  -33.0476 H   0  0  0  0  0  0  0  0  0  0  0  0
   -2.7701   18.8488  -32.9736 H   0  0  0  0  0  0  0  0  0  0  0  0
   -3.0438   19.5765  -30.7407 H   0  0  0  0  0  0  0  0  0  0  0  0
   -4.7203   21.5836  -32.0387 H   0  0  0  0  0  0  0  0  0  0  0  0
   -5.3442   23.9373  -31.5081 H   0  0  0  0  0  0  0  0  0  0  0  0
   -0.9724   22.1105  -29.9247 H   0  0  0  0  0  0  0  0  0  0  0  0
   -0.4950   20.7795  -30.5593 H   0  0  0  0  0  0  0  0  0  0  0  0
   -0.9840   19.0308  -30.3454 H   0  0  0  0  0  0  0  0  0  0  0  0
    0.9482   19.5677  -31.9878 H   0  0  0  0  0  0  0  0  0  0  0  0
   -0.3723   18.4552  -32.5170 H   0  0  0  0  0  0  0  0  0  0  0  0
    4.5581   20.2914  -33.6054 H   0  0  0  0  0  0  0  0  0  0  0  0
    4.3275   19.4115  -35.1544 H   0  0  0  0  0  0  0  0  0  0  0  0
    5.0525   21.0550  -35.1544 H   0  0  0  0  0  0  0  0  0  0  0  0
    4.5640   23.1619  -35.8031 H   0  0  0  0  0  0  0  0  0  0  0  0
    4.2602   21.9618  -37.1047 H   0  0  0  0  0  0  0  0  0  0  0  0
    3.3816   23.5285  -37.1047 H   0  0  0  0  0  0  0  0  0  0  0  0
  1  2  1  0
  2  3  1  0
  3  4  2  0
  4  5  1  0
  5  6  1  0
  6  7  1  0
  7  8  1  0
  8  9  1  0
  9 10  1  0
 10 11  2  0
 11 12  1  0
 12 13  2  0
 13 14  1  0
 13 15  1  0
 15 16  1  0
 15 17  2  0
  9 18  1  0
 18 19  1  0
  5 20  2  0
 20 21  1  0
 21 22  1  0
 21 23  2  0
 23 24  1  0
 23  3  1  0
 19  6  1  0
 17 10  1  0
  1 25  1  0
  1 26  1  0
  1 27  1  0
  7 28  1  0
  7 29  1  0
  8 30  1  0
  8 31  1  0
  9 32  1  0
 11 33  1  0
 12 34  1  0
 17 35  1  0
 18 36  1  0
 18 37  1  0
 19 38  1  0
 19 39  1  0
 22 40  1  0
 22 41  1  0
 22 42  1  0
 24 43  1  0
 24 44  1  0
 24 45  1  0
M  CHG  1  14  -1
M  END
>  <UniqueID>  (20) 
20

>  <SMILES>  (20) 
COc1nc(N2CCC(c3ccc([O-])c(F)c3)CC2)nc(C)c1C

>  <Energy>  (20) 
49.685267177735064

>  <Genealogy>  (20) 
COc1nc(N2CCC(c3ccc([O-])c(F)c3)CC2)nc(C)c1C (protonated)
COc1nc(N2CCC(c3ccc([O-])c(F)c3)CC2)nc(C)c1C (3D coordinates assigned)
COc1nc(N2CCC(c3ccc([O-])c(F)c3)CC2)nc(C)c1C (nonaromatic ring conformer: 49.685267177735064 kcal/mol)

>  <smiles>  (20) 
COc1nc(N2CCC(c3ccc(O)c(F)c3)CC2)nc(C)c1C

>  <score_type>  (20) 
oracle

>  <origin>  (20) 
adgpu

>  <m_score__min__energy>  (20) 
-9.6400000000000006

>  <m_primary>  (20) 
energy

$$$$
20:0
     RDKit          3D

 61 65  0  0  0  0  0  0  0  0999 V2000
   -2.4170   23.9570  -27.2810 C   0  0  0  0  0  0  0  0  0  0  0  0
   -2.9420   24.1210  -28.6700 C   0  0  0  0  0  0  0  0  0  0  0  0
   -2.9490   25.2990  -29.3220 N   0  0  0  0  0  0  0  0  0  0  0  0
   -3.4970   25.0880  -30.4820 O   0  0  0  0  0  0  0  0  0  0  0  0
   -3.8490   23.8330  -30.6260 C   0  0  0  0  0  0  0  0  0  0  0  0
   -4.4040   23.4050  -31.7220 N   0  0  0  0  0  0  0  0  0  0  0  0
   -4.8490   21.7920  -32.1900 S   0  0  0  0  0  0  0  0  0  0  0  0
   -4.4400   21.5250  -33.6110 O   0  0  0  0  0  0  0  0  0  0  0  0
   -4.2000   20.8040  -31.2630 O   0  0  0  0  0  0  0  0  0  0  0  0
   -6.6110   21.6210  -32.0850 C   0  0  0  0  0  0  0  0  0  0  0  0
   -7.3690   22.7150  -31.6390 C   0  0  0  0  0  0  0  0  0  0  0  0
   -8.7610   22.6320  -31.5630 C   0  0  0  0  0  0  0  0  0  0  0  0
   -9.4150   21.4570  -31.9350 C   0  0  0  0  0  0  0  0  0  0  0  0
   -8.6770   20.3570  -32.3720 C   0  0  0  0  0  0  0  0  0  0  0  0
   -7.2760   20.4190  -32.4360 C   0  0  0  0  0  0  0  0  0  0  0  0
   -6.5360   19.2220  -32.8780 C   0  0  0  0  0  0  0  0  0  0  0  0
   -6.1590   18.2420  -31.9500 C   0  0  0  0  0  0  0  0  0  0  0  0
   -5.3510   17.1740  -32.3470 C   0  0  0  0  0  0  0  0  0  0  0  0
   -4.8970   17.0820  -33.6720 C   0  0  0  0  0  0  0  0  0  0  0  0
   -3.9320   16.0010  -34.0750 C   0  0  0  0  0  0  0  0  0  0  0  0
   -2.5870   16.3280  -33.6070 N   0  0  0  0  0  0  0  0  0  0  0  0
   -1.8320   17.4180  -34.1430 C   0  0  0  0  0  0  0  0  0  0  0  0
   -1.6630   18.7640  -33.8520 C   0  0  0  0  0  0  0  0  0  0  0  0
   -2.2070   19.6920  -32.9090 N   0  0  0  0  0  0  0  0  0  0  0  0
   -1.4730   20.1810  -31.7770 C   0  0  0  0  0  0  0  0  0  0  0  0
   -1.3380   21.5650  -31.5860 C   0  0  0  0  0  0  0  0  0  0  0  0
   -0.6640   22.0640  -30.4670 C   0  0  0  0  0  0  0  0  0  0  0  0
   -0.1350   21.1840  -29.5190 C   0  0  0  0  0  0  0  0  0  0  0  0
   -0.2790   19.8060  -29.6900 C   0  0  0  0  0  0  0  0  0  0  0  0
   -0.9410   19.3030  -30.8130 C   0  0  0  0  0  0  0  0  0  0  0  0
   -0.7260   18.8620  -34.8620 C   0  0  0  0  0  0  0  0  0  0  0  0
   -0.0020   19.7860  -35.3160 O   0  0  0  0  0  0  0  0  0  0  0  0
   -0.9360   17.5370  -35.1860 C   0  0  0  0  0  0  0  0  0  0  0  0
   -0.4790   16.7520  -36.0580 O   0  0  0  0  0  0  0  0  0  0  0  0
   -5.3270   18.0330  -34.6120 C   0  0  0  0  0  0  0  0  0  0  0  0
   -6.1480   19.0930  -34.2190 C   0  0  0  0  0  0  0  0  0  0  0  0
   -3.5140   23.1370  -29.4640 C   0  0  0  0  0  0  0  0  0  0  0  0
   -3.8330   21.7350  -29.0360 C   0  0  0  0  0  0  0  0  0  0  0  0
   -3.2085   24.2043  -26.5583 H   0  0  0  0  0  0  0  0  0  0  0  0
   -2.0958   22.9157  -27.1310 H   0  0  0  0  0  0  0  0  0  0  0  0
   -1.5602   24.6303  -27.1310 H   0  0  0  0  0  0  0  0  0  0  0  0
   -6.8619   23.6463  -31.3466 H   0  0  0  0  0  0  0  0  0  0  0  0
   -9.3434   23.4954  -31.2089 H   0  0  0  0  0  0  0  0  0  0  0  0
  -10.5122   21.3981  -31.8837 H   0  0  0  0  0  0  0  0  0  0  0  0
   -9.1967   19.4340  -32.6687 H   0  0  0  0  0  0  0  0  0  0  0  0
   -6.5001   18.3139  -30.9067 H   0  0  0  0  0  0  0  0  0  0  0  0
   -5.0689   16.4008  -31.6172 H   0  0  0  0  0  0  0  0  0  0  0  0
   -4.2495   15.0460  -33.6310 H   0  0  0  0  0  0  0  0  0  0  0  0
   -3.9213   15.9188  -35.1719 H   0  0  0  0  0  0  0  0  0  0  0  0
   -2.2820   15.9500  -32.6830 H   0  0  0  0  0  0  0  0  0  0  0  0
   -3.2220   19.9300  -32.9940 H   0  0  0  0  0  0  0  0  0  0  0  0
   -1.7654   22.2621  -32.3218 H   0  0  0  0  0  0  0  0  0  0  0  0
   -0.5501   23.1498  -30.3329 H   0  0  0  0  0  0  0  0  0  0  0  0
    0.3946   21.5769  -28.6386 H   0  0  0  0  0  0  0  0  0  0  0  0
    0.1298   19.1143  -28.9387 H   0  0  0  0  0  0  0  0  0  0  0  0
   -1.0471   18.2161  -30.9447 H   0  0  0  0  0  0  0  0  0  0  0  0
   -5.0157   17.9427  -35.6632 H   0  0  0  0  0  0  0  0  0  0  0  0
   -6.4905   19.8274  -34.9629 H   0  0  0  0  0  0  0  0  0  0  0  0
   -3.8453   21.6808  -27.9374 H   0  0  0  0  0  0  0  0  0  0  0  0
   -4.8196   21.4473  -29.4284 H   0  0  0  0  0  0  0  0  0  0  0  0
   -3.0680   21.0488  -29.4284 H   0  0  0  0  0  0  0  0  0  0  0  0
  1  2  1  0
  2  3  1  0
  3  4  1  0
  4  5  1  0
  5  6  2  3
  6  7  1  0
  7  8  2  0
  7  9  2  0
  7 10  1  0
 10 11  2  0
 11 12  1  0
 12 13  2  0
 13 14  1  0
 14 15  2  0
 15 16  1  0
 16 17  2  0
 17 18  1  0
 18 19  2  0
 19 20  1  0
 20 21  1  0
 21 22  1  0
 22 23  2  0
 23 24  1  0
 24 25  1  0
 25 26  2  0
 26 27  1  0
 27 28  2  0
 28 29  1  0
 29 30  2  0
 23 31  1  0
 31 32  2  0
 31 33  1  0
 33 34  2  0
 19 35  1  0
 35 36  2  0
  5 37  1  0
 37 38  1  0
 37  2  2  0
 15 10  1  0
 36 16  1  0
 33 22  1  0
 30 25  1  0
  1 39  1  0
  1 40  1  0
  1 41  1  0
 11 42  1  0
 12 43  1  0
 13 44  1  0
 14 45  1  0
 17 46  1  0
 18 47  1  0
 20 48  1  0
 20 49  1  0
 21 50  1  0
 24 51  1  0
 26 52  1  0
 27 53  1  0
 28 54  1  0
 29 55  1  0
 30 56  1  0
 35 57  1  0
 36 58  1  0
 38 59  1  0
 38 60  1  0
 38 61  1  0
M  CHG  1   3  -1
M  END
>  <UniqueID>  (21) 
21

>  <SMILES>  (21) 
Cc1[n-]oc(=NS(=O)(=O)c2ccccc2-c2ccc(CNc3c(Nc4ccccc4)c(=O)c3=O)cc2)c1C

>  <Energy>  (21) 
103.01102018297212

>  <Genealogy>  (21) 
Cc1[n-]oc(=NS(=O)(=O)c2ccccc2-c2ccc(CNc3c(Nc4ccccc4)c(=O)c3=O)cc2)c1C (protonated)
Cc1[n-]oc(=NS(=O)(=O)c2ccccc2-c2ccc(CNc3c(Nc4ccccc4)c(=O)c3=O)cc2)c1C (3D coordinates assigned)
Cc1[n-]oc(=NS(=O)(=O)c2ccccc2-c2ccc(CNc3c(Nc4ccccc4)c(=O)c3=O)cc2)c1C (optimized conformer: 103.01102018297212 kcal/mol)

>  <smiles>  (21) 
Cc1[nH]oc(=NS(=O)(=O)c2ccccc2-c2ccc(CNc3c(Nc4ccccc4)c(=O)c3=O)cc2)c1C

>  <score_type>  (21) 
oracle

>  <origin>  (21) 
adgpu

>  <m_score__min__energy>  (21) 
-13.01

>  <m_primary>  (21) 
energy

$$$$
21:0
     RDKit          3D

 42 45  0  0  0  0  0  0  0  0999 V2000
   -0.9286   27.9969  -24.7658 H   0  0  0  0  0  0  0  0  0  0  0  0
   -1.0420   27.2360  -25.5520 C   0  0  0  0  0  0  0  0  0  0  0  0
   -0.4530   27.4180  -26.7640 N   0  0  0  0  0  0  0  0  0  0  0  0
   -0.5850   26.5080  -27.7660 C   0  0  0  0  0  0  0  0  0  0  0  0
   -0.0853   26.6778  -28.7311 H   0  0  0  0  0  0  0  0  0  0  0  0
   -1.3580   25.3520  -27.5710 C   0  0  0  0  0  0  0  0  0  0  0  0
   -1.4630   24.3410  -28.5840 N   0  0  0  0  0  0  0  0  0  0  0  0
   -2.5090   24.0520  -29.3130 C   0  0  0  0  0  0  0  0  0  0  0  0
   -2.3850   23.0960  -30.3420 C   0  0  0  0  0  0  0  0  0  0  0  0
   -1.2280   22.5390  -30.5790 N   0  0  0  0  0  0  0  0  0  0  0  0
   -0.9420   21.5210  -31.5510 C   0  0  0  0  0  0  0  0  0  0  0  0
   -0.1520   20.4290  -31.1680 C   0  0  0  0  0  0  0  0  0  0  0  0
    0.2548   20.3808  -30.1471 H   0  0  0  0  0  0  0  0  0  0  0  0
    0.1230   19.4000  -32.0740 C   0  0  0  0  0  0  0  0  0  0  0  0
    0.7576   18.5548  -31.7692 H   0  0  0  0  0  0  0  0  0  0  0  0
   -0.4080   19.4440  -33.3680 C   0  0  0  0  0  0  0  0  0  0  0  0
   -0.0650   18.1520  -34.5030 Cl  0  0  0  0  0  0  0  0  0  0  0  0
   -1.2240   20.5140  -33.7490 C   0  0  0  0  0  0  0  0  0  0  0  0
   -1.6495   20.5459  -34.7629 H   0  0  0  0  0  0  0  0  0  0  0  0
   -1.5000   21.5430  -32.8440 C   0  0  0  0  0  0  0  0  0  0  0  0
   -2.1560   22.3738  -33.1431 H   0  0  0  0  0  0  0  0  0  0  0  0
   -3.4680   22.8050  -31.1120 N   0  0  0  0  0  0  0  0  0  0  0  0
   -4.6740   23.3880  -30.8980 C   0  0  0  0  0  0  0  0  0  0  0  0
   -5.7700   23.0620  -31.7010 C   0  0  0  0  0  0  0  0  0  0  0  0
   -5.6516   22.3355  -32.5184 H   0  0  0  0  0  0  0  0  0  0  0  0
   -7.0180   23.6540  -31.4720 C   0  0  0  0  0  0  0  0  0  0  0  0
   -8.0890   23.2950  -32.3060 O   0  0  0  0  0  0  0  0  0  0  0  0
   -9.0800   22.3300  -31.9690 C   0  0  0  0  0  0  0  0  0  0  0  0
   -9.1593   22.2527  -30.8746 H   0  0  0  0  0  0  0  0  0  0  0  0
  -10.0498   22.6393  -32.3860 H   0  0  0  0  0  0  0  0  0  0  0  0
   -8.7966   21.3524  -32.3860 H   0  0  0  0  0  0  0  0  0  0  0  0
   -7.1580   24.5830  -30.4220 C   0  0  0  0  0  0  0  0  0  0  0  0
   -8.1344   25.0536  -30.2344 H   0  0  0  0  0  0  0  0  0  0  0  0
   -6.0620   24.9100  -29.6170 C   0  0  0  0  0  0  0  0  0  0  0  0
   -6.1803   25.6337  -28.7971 H   0  0  0  0  0  0  0  0  0  0  0  0
   -4.8130   24.3180  -29.8520 C   0  0  0  0  0  0  0  0  0  0  0  0
   -3.7320   24.6240  -29.0800 N   0  0  0  0  0  0  0  0  0  0  0  0
   -3.8680   25.2810  -28.2790 H   0  0  0  0  0  0  0  0  0  0  0  0
   -1.9370   25.1320  -26.3170 C   0  0  0  0  0  0  0  0  0  0  0  0
   -2.5070   24.2104  -26.1281 H   0  0  0  0  0  0  0  0  0  0  0  0
   -1.7910   26.0830  -25.3050 C   0  0  0  0  0  0  0  0  0  0  0  0
   -2.2611   25.9258  -24.3230 H   0  0  0  0  0  0  0  0  0  0  0  0
  1  2  1  0
  2  3  2  0
  3  4  1  0
  4  5  1  0
  4  6  2  0
  6  7  1  0
  7  8  2  0
  8  9  1  0
  9 10  2  0
 10 11  1  0
 11 12  2  0
 12 13  1  0
 12 14  1  0
 14 15  1  0
 14 16  2  0
 16 17  1  0
 16 18  1  0
 18 19  1  0
 18 20  2  0
 20 21  1  0
  9 22  1  0
 22 23  1  0
 23 24  2  0
 24 25  1  0
 24 26  1  0
 26 27  1  0
 27 28  1  0
 28 29  1  0
 28 30  1  0
 28 31  1  0
 26 32  2  0
 32 33  1  0
 32 34  1  0
 34 35  1  0
 34 36  2  0
 36 37  1  0
 37 38  1  0
  6 39  1  0
 39 40  1  0
 39 41  2  0
 41 42  1  0
 41  2  1  0
 37  8  1  0
 20 11  1  0
 36 23  1  0
M  CHG  1  22  -1
M  END
>  <UniqueID>  (22) 
22

>  <SMILES>  (22) 
COc1ccc2[nH]c(=N\c3cccnc3)/c(=N/c3ccc(Cl)cc3)[n-]c2c1

>  <Energy>  (22) 
66.96331583529589

>  <Genealogy>  (22) 
COc1ccc2[nH]c(=Nc3cccnc3)c(=Nc3ccc(Cl)cc3)[n-]c2c1 (protonated)
COc1ccc2[nH]c(=N\c3cccnc3)/c(=N/c3ccc(Cl)cc3)[n-]c2c1 (cis-trans isomerization)
COc1ccc2[nH]c(=N\c3cccnc3)/c(=N/c3ccc(Cl)cc3)[n-]c2c1 (3D coordinates assigned)
COc1ccc2[nH]c(=N\c3cccnc3)/c(=N/c3ccc(Cl)cc3)[n-]c2c1 (optimized conformer: 66.96331583529589 kcal/mol)

>  <smiles>  (22) 
COc1ccc2[nH]c(=Nc3cccnc3)c(=Nc3ccc(Cl)cc3)[nH]c2c1

>  <score_type>  (22) 
oracle

>  <origin>  (22) 
adgpu

>  <m_score__min__energy>  (22) 
-8.1300000000000008

>  <m_primary>  (22) 
energy

$$$$
22:0
     RDKit          3D

 43 45  0  0  0  0  0  0  0  0999 V2000
   -2.5269   20.5074  -27.5781 H   0  0  0  0  0  0  0  0  0  0  0  0
   -2.2270   20.7550  -28.6070 C   0  0  0  0  0  0  0  0  0  0  0  0
   -1.5150   19.8810  -29.2610 N   0  0  0  0  0  0  0  0  0  0  0  0
   -0.8730   20.0460  -30.5360 C   0  0  0  0  0  0  0  0  0  0  0  0
    0.5250   20.1580  -30.6490 C   0  0  0  0  0  0  0  0  0  0  0  0
    1.1499   20.1503  -29.7438 H   0  0  0  0  0  0  0  0  0  0  0  0
    1.1230   20.2790  -31.9060 C   0  0  0  0  0  0  0  0  0  0  0  0
    2.2143   20.3918  -31.9859 H   0  0  0  0  0  0  0  0  0  0  0  0
    0.3360   20.2570  -33.0650 C   0  0  0  0  0  0  0  0  0  0  0  0
    1.0690   20.3840  -34.6610 S   0  0  0  0  0  0  0  0  0  0  0  0
    2.5210   20.7370  -34.4990 O   0  0  0  0  0  0  0  0  0  0  0  0
    0.9750   19.0820  -35.4090 O   0  0  0  0  0  0  0  0  0  0  0  0
    0.2810   21.6330  -35.5700 N   0  0  0  0  0  0  0  0  0  0  0  0
    0.8230   22.9340  -35.8350 C   0  0  0  0  0  0  0  0  0  0  0  0
    0.0050   24.0470  -36.0960 C   0  0  0  0  0  0  0  0  0  0  0  0
   -1.0891   23.9333  -36.1036 H   0  0  0  0  0  0  0  0  0  0  0  0
    0.5770   25.2980  -36.3460 C   0  0  0  0  0  0  0  0  0  0  0  0
   -0.0715   26.1628  -36.5501 H   0  0  0  0  0  0  0  0  0  0  0  0
    1.9670   25.4600  -36.3390 C   0  0  0  0  0  0  0  0  0  0  0  0
    2.4910   26.7370  -36.5920 O   0  0  0  0  0  0  0  0  0  0  0  0
    2.3030   27.8660  -35.7460 C   0  0  0  0  0  0  0  0  0  0  0  0
    2.3558   27.5488  -34.6941 H   0  0  0  0  0  0  0  0  0  0  0  0
    3.0899   28.6084  -35.9450 H   0  0  0  0  0  0  0  0  0  0  0  0
    1.3180   28.3134  -35.9450 H   0  0  0  0  0  0  0  0  0  0  0  0
    2.7870   24.3460  -36.0770 C   0  0  0  0  0  0  0  0  0  0  0  0
    3.8810   24.4603  -36.0673 H   0  0  0  0  0  0  0  0  0  0  0  0
    2.2140   23.0940  -35.8290 C   0  0  0  0  0  0  0  0  0  0  0  0
    2.8617   22.2280  -35.6276 H   0  0  0  0  0  0  0  0  0  0  0  0
   -1.0530   20.1090  -32.9550 C   0  0  0  0  0  0  0  0  0  0  0  0
   -1.6745   20.0832  -33.8622 H   0  0  0  0  0  0  0  0  0  0  0  0
   -1.6520   19.9940  -31.6980 C   0  0  0  0  0  0  0  0  0  0  0  0
   -2.7413   19.8619  -31.6210 H   0  0  0  0  0  0  0  0  0  0  0  0
   -2.6580   22.0580  -29.1580 C   0  0  0  0  0  0  0  0  0  0  0  0
   -3.7970   22.1130  -29.9750 C   0  0  0  0  0  0  0  0  0  0  0  0
   -4.3626   21.1939  -30.1879 H   0  0  0  0  0  0  0  0  0  0  0  0
   -4.2170   23.3300  -30.5200 C   0  0  0  0  0  0  0  0  0  0  0  0
   -5.1213   23.3688  -31.1451 H   0  0  0  0  0  0  0  0  0  0  0  0
   -3.4900   24.4970  -30.2720 C   0  0  0  0  0  0  0  0  0  0  0  0
   -3.9170   25.7050  -30.8130 O   0  0  0  0  0  0  0  0  0  0  0  0
   -2.3320   24.4460  -29.4870 C   0  0  0  0  0  0  0  0  0  0  0  0
   -1.5950   25.6000  -29.2520 O   0  0  0  0  0  0  0  0  0  0  0  0
   -1.9110   23.2300  -28.9400 C   0  0  0  0  0  0  0  0  0  0  0  0
   -0.9920   23.1896  -28.3368 H   0  0  0  0  0  0  0  0  0  0  0  0
  1  2  1  0
  2  3  2  0
  3  4  1  0
  4  5  2  0
  5  6  1  0
  5  7  1  0
  7  8  1  0
  7  9  2  0
  9 10  1  0
 10 11  2  0
 10 12  2  0
 10 13  1  0
 13 14  1  0
 14 15  2  0
 15 16  1  0
 15 17  1  0
 17 18  1  0
 17 19  2  0
 19 20  1  0
 20 21  1  0
 21 22  1  0
 21 23  1  0
 21 24  1  0
 19 25  1  0
 25 26  1  0
 25 27  2  0
 27 28  1  0
  9 29  1  0
 29 30  1  0
 29 31  2  0
 31 32  1  0
  2 33  1  0
 33 34  2  0
 34 35  1  0
 34 36  1  0
 36 37  1  0
 36 38  2  0
 38 39  1  0
 38 40  1  0
 40 41  1  0
 40 42  2  0
 42 43  1  0
 31  4  1  0
 42 33  1  0
 27 14  1  0
M  CHG  3  13  -1  39  -1  41  -1
M  END
>  <UniqueID>  (23) 
23

>  <SMILES>  (23) 
COc1ccc([N-]S(=O)(=O)c2ccc(/N=C\c3ccc([O-])c([O-])c3)cc2)cc1

>  <Energy>  (23) 
59.83671323304008

>  <Genealogy>  (23) 
COc1ccc([N-]S(=O)(=O)c2ccc(N=Cc3ccc([O-])c([O-])c3)cc2)cc1 (protonated)
COc1ccc([N-]S(=O)(=O)c2ccc(/N=C\c3ccc([O-])c([O-])c3)cc2)cc1 (cis-trans isomerization)
COc1ccc([N-]S(=O)(=O)c2ccc(/N=C\c3ccc([O-])c([O-])c3)cc2)cc1 (3D coordinates assigned)
COc1ccc([N-]S(=O)(=O)c2ccc(/N=C\c3ccc([O-])c([O-])c3)cc2)cc1 (optimized conformer: 59.83671323304008 kcal/mol)

>  <smiles>  (23) 
COc1ccc(NS(=O)(=O)c2ccc(N=Cc3ccc(O)c(O)c3)cc2)cc1

>  <score_type>  (23) 
oracle

>  <origin>  (23) 
adgpu

>  <m_score__min__energy>  (23) 
-13.52

>  <m_primary>  (23) 
energy

$$$$
23:0
     RDKit          3D

 47 50  0  0  0  0  0  0  0  0999 V2000
   -5.6800   24.6520  -29.4210 C   0  0  0  0  0  0  0  0  0  0  0  0
   -4.5520   24.6320  -30.4060 C   0  0  0  0  0  0  0  0  0  0  0  0
   -3.8650   25.6740  -30.5700 O   0  0  0  0  0  0  0  0  0  0  0  0
   -4.2610   23.4750  -31.2020 N   0  0  0  0  0  0  0  0  0  0  0  0
   -3.2220   22.5170  -30.9580 C   0  0  0  0  0  0  0  0  0  0  0  0
   -2.4410   22.5870  -29.7910 C   0  0  0  0  0  0  0  0  0  0  0  0
   -1.3610   21.7180  -29.6100 C   0  0  0  0  0  0  0  0  0  0  0  0
   -1.0340   20.7930  -30.6030 C   0  0  0  0  0  0  0  0  0  0  0  0
   -1.7890   20.7310  -31.7760 C   0  0  0  0  0  0  0  0  0  0  0  0
   -2.8950   21.5750  -31.9530 C   0  0  0  0  0  0  0  0  0  0  0  0
   -3.8600   21.4520  -33.4680 S   0  0  0  0  0  0  0  0  0  0  0  0
   -4.3520   19.7390  -33.1770 C   0  0  0  0  0  0  0  0  0  0  0  0
   -3.8850   18.8090  -34.0480 N   0  0  0  0  0  0  0  0  0  0  0  0
   -4.1940   17.4970  -33.9280 C   0  0  0  0  0  0  0  0  0  0  0  0
   -3.6810   16.5710  -34.8420 C   0  0  0  0  0  0  0  0  0  0  0  0
   -3.9990   15.2150  -34.7170 C   0  0  0  0  0  0  0  0  0  0  0  0
   -4.8300   14.7830  -33.6790 C   0  0  0  0  0  0  0  0  0  0  0  0
   -5.2610   12.9300  -33.5130 Br  0  0  0  0  0  0  0  0  0  0  0  0
   -5.3460   15.7060  -32.7620 C   0  0  0  0  0  0  0  0  0  0  0  0
   -5.0300   17.0730  -32.8810 C   0  0  0  0  0  0  0  0  0  0  0  0
   -5.5260   18.0420  -31.9920 C   0  0  0  0  0  0  0  0  0  0  0  0
   -6.2910   17.6830  -31.0530 O   0  0  0  0  0  0  0  0  0  0  0  0
   -5.1860   19.3680  -32.1460 N   0  0  0  0  0  0  0  0  0  0  0  0
   -5.7540   20.3850  -31.2360 C   0  0  0  0  0  0  0  0  0  0  0  0
   -7.1880   20.6940  -31.5890 C   0  0  0  0  0  0  0  0  0  0  0  0
   -7.9550   19.7680  -32.3180 C   0  0  0  0  0  0  0  0  0  0  0  0
   -9.2800   20.0600  -32.6550 C   0  0  0  0  0  0  0  0  0  0  0  0
   -9.8470   21.2800  -32.2740 C   0  0  0  0  0  0  0  0  0  0  0  0
   -9.0870   22.2110  -31.5610 C   0  0  0  0  0  0  0  0  0  0  0  0
   -7.7610   21.9230  -31.2220 C   0  0  0  0  0  0  0  0  0  0  0  0
   -5.2742   24.6448  -28.3986 H   0  0  0  0  0  0  0  0  0  0  0  0
   -6.2812   25.5609  -29.5705 H   0  0  0  0  0  0  0  0  0  0  0  0
   -6.3131   23.7649  -29.5705 H   0  0  0  0  0  0  0  0  0  0  0  0
   -2.6811   23.3298  -29.0160 H   0  0  0  0  0  0  0  0  0  0  0  0
   -0.7684   21.7632  -28.6844 H   0  0  0  0  0  0  0  0  0  0  0  0
   -0.1813   20.1127  -30.4614 H   0  0  0  0  0  0  0  0  0  0  0  0
   -1.5147   20.0161  -32.5657 H   0  0  0  0  0  0  0  0  0  0  0  0
   -3.0272   16.9094  -35.6594 H   0  0  0  0  0  0  0  0  0  0  0  0
   -3.5949   14.4874  -35.4362 H   0  0  0  0  0  0  0  0  0  0  0  0
   -5.9998   15.3628  -31.9467 H   0  0  0  0  0  0  0  0  0  0  0  0
   -5.7122   20.0063  -30.2041 H   0  0  0  0  0  0  0  0  0  0  0  0
   -5.1645   21.3085  -31.3348 H   0  0  0  0  0  0  0  0  0  0  0  0
   -7.5105   18.8096  -32.6245 H   0  0  0  0  0  0  0  0  0  0  0  0
   -9.8770   19.3293  -33.2204 H   0  0  0  0  0  0  0  0  0  0  0  0
  -10.8911   21.5069  -32.5355 H   0  0  0  0  0  0  0  0  0  0  0  0
   -9.5326   23.1724  -31.2657 H   0  0  0  0  0  0  0  0  0  0  0  0
   -7.1647   22.6615  -30.6660 H   0  0  0  0  0  0  0  0  0  0  0  0
  1  2  1  0
  2  3  2  0
  2  4  1  0
  4  5  1  0
  5  6  2  0
  6  7  1  0
  7  8  2  0
  8  9  1  0
  9 10  2  0
 10 11  1  0
 11 12  1  0
 12 13  2  0
 13 14  1  0
 14 15  2  0
 15 16  1  0
 16 17  2  0
 17 18  1  0
 17 19  1  0
 19 20  2  0
 20 21  1  0
 21 22  2  0
 21 23  1  0
 23 24  1  0
 24 25  1  0
 25 26  2  0
 26 27  1  0
 27 28  2  0
 28 29  1  0
 29 30  2  0
 10  5  1  0
 23 12  1  0
 30 25  1  0
 20 14  1  0
  1 31  1  0
  1 32  1  0
  1 33  1  0
  6 34  1  0
  7 35  1  0
  8 36  1  0
  9 37  1  0
 15 38  1  0
 16 39  1  0
 19 40  1  0
 24 41  1  0
 24 42  1  0
 26 43  1  0
 27 44  1  0
 28 45  1  0
 29 46  1  0
 30 47  1  0
M  CHG  1   4  -1
M  END
>  <UniqueID>  (24) 
24

>  <SMILES>  (24) 
CC(=O)[N-]c1ccccc1Sc1nc2ccc(Br)cc2c(=O)n1Cc1ccccc1

>  <Energy>  (24) 
59.559073986013644

>  <Genealogy>  (24) 
CC(=O)[N-]c1ccccc1Sc1nc2ccc(Br)cc2c(=O)n1Cc1ccccc1 (protonated)
CC(=O)[N-]c1ccccc1Sc1nc2ccc(Br)cc2c(=O)n1Cc1ccccc1 (3D coordinates assigned)
CC(=O)[N-]c1ccccc1Sc1nc2ccc(Br)cc2c(=O)n1Cc1ccccc1 (optimized conformer: 59.559073986013644 kcal/mol)

>  <smiles>  (24) 
CC(=O)Nc1ccccc1Sc1nc2ccc(Br)cc2c(=O)n1Cc1ccccc1

>  <score_type>  (24) 
oracle

>  <origin>  (24) 
adgpu

>  <m_score__min__energy>  (24) 
-11.779999999999999

>  <m_primary>  (24) 
energy

$$$$
24:0
     RDKit          3D

 40 41  0  0  0  0  0  0  0  0999 V2000
   -2.8470   25.2420  -26.3690 C   0  0  0  0  0  0  0  0  0  0  0  0
   -1.4810   25.3110  -27.0470 C   0  0  0  0  0  0  0  0  0  0  0  0
   -1.4710   24.5150  -28.3580 C   0  0  0  0  0  0  0  0  0  0  0  0
   -2.3740   25.1280  -29.3340 N   0  0  0  0  0  0  0  0  0  0  0  0
   -3.4480   24.5670  -29.8050 C   0  0  0  0  0  0  0  0  0  0  0  0
   -4.2230   25.2490  -30.6880 N   0  0  0  0  0  0  0  0  0  0  0  0
   -5.3540   24.6980  -31.2000 C   0  0  0  0  0  0  0  0  0  0  0  0
   -5.7290   23.4020  -30.8320 C   0  0  0  0  0  0  0  0  0  0  0  0
   -7.1850   22.6540  -31.4800 S   0  0  0  0  0  0  0  0  0  0  0  0
   -7.8100   21.8290  -30.3890 O   0  0  0  0  0  0  0  0  0  0  0  0
   -8.1700   23.6980  -31.9270 O   0  0  0  0  0  0  0  0  0  0  0  0
   -6.7900   21.6130  -32.8130 N   0  0  0  0  0  0  0  0  0  0  0  0
   -6.9720   20.1920  -32.8300 C   0  0  0  0  0  0  0  0  0  0  0  0
   -8.1750   19.5410  -32.6490 C   0  0  0  0  0  0  0  0  0  0  0  0
   -9.4860   20.1780  -32.3230 C   0  0  0  0  0  0  0  0  0  0  0  0
   -7.9750   18.2090  -32.6830 N   0  0  0  0  0  0  0  0  0  0  0  0
   -6.6850   18.0020  -32.9090 N   0  0  0  0  0  0  0  0  0  0  0  0
   -6.1060   16.6720  -33.0680 C   0  0  0  0  0  0  0  0  0  0  0  0
   -6.0400   19.1860  -33.0290 C   0  0  0  0  0  0  0  0  0  0  0  0
   -4.5910   19.3380  -33.3850 C   0  0  0  0  0  0  0  0  0  0  0  0
   -4.9250   22.7170  -29.9180 C   0  0  0  0  0  0  0  0  0  0  0  0
   -3.8060   23.3070  -29.4250 N   0  0  0  0  0  0  0  0  0  0  0  0
   -2.7151   25.2487  -25.2770 H   0  0  0  0  0  0  0  0  0  0  0  0
   -3.4504   26.1108  -26.6707 H   0  0  0  0  0  0  0  0  0  0  0  0
   -3.3598   24.3168  -26.6707 H   0  0  0  0  0  0  0  0  0  0  0  0
   -1.2409   26.3623  -27.2639 H   0  0  0  0  0  0  0  0  0  0  0  0
   -0.7333   24.8740  -26.3688 H   0  0  0  0  0  0  0  0  0  0  0  0
   -0.4498   24.5026  -28.7668 H   0  0  0  0  0  0  0  0  0  0  0  0
   -1.8091   23.4882  -28.1547 H   0  0  0  0  0  0  0  0  0  0  0  0
   -5.9750   25.2712  -31.9041 H   0  0  0  0  0  0  0  0  0  0  0  0
   -9.6042   20.2355  -31.2309 H   0  0  0  0  0  0  0  0  0  0  0  0
   -9.5171   21.1917  -32.7490 H   0  0  0  0  0  0  0  0  0  0  0  0
  -10.3022   19.5760  -32.7490 H   0  0  0  0  0  0  0  0  0  0  0  0
   -5.9154   16.2342  -32.0770 H   0  0  0  0  0  0  0  0  0  0  0  0
   -6.8066   16.0311  -33.6234 H   0  0  0  0  0  0  0  0  0  0  0  0
   -5.1596   16.7481  -33.6234 H   0  0  0  0  0  0  0  0  0  0  0  0
   -3.9919   19.4008  -32.4646 H   0  0  0  0  0  0  0  0  0  0  0  0
   -4.2655   18.4691  -33.9758 H   0  0  0  0  0  0  0  0  0  0  0  0
   -4.4529   20.2556  -33.9758 H   0  0  0  0  0  0  0  0  0  0  0  0
   -5.1982   21.7006  -29.5980 H   0  0  0  0  0  0  0  0  0  0  0  0
  1  2  1  0
  2  3  1  0
  3  4  1  0
  4  5  2  3
  5  6  1  0
  6  7  2  0
  7  8  1  0
  8  9  1  0
  9 10  2  0
  9 11  2  0
  9 12  1  0
 12 13  1  0
 13 14  1  0
 14 15  1  0
 14 16  2  0
 16 17  1  0
 17 18  1  0
 17 19  1  0
 19 20  1  0
  8 21  2  0
 21 22  1  0
 22  5  1  0
 19 13  2  0
  1 23  1  0
  1 24  1  0
  1 25  1  0
  2 26  1  0
  2 27  1  0
  3 28  1  0
  3 29  1  0
  7 30  1  0
 15 31  1  0
 15 32  1  0
 15 33  1  0
 18 34  1  0
 18 35  1  0
 18 36  1  0
 20 37  1  0
 20 38  1  0
 20 39  1  0
 21 40  1  0
M  CHG  2  12  -1  22  -1
M  END
>  <UniqueID>  (25) 
25

>  <SMILES>  (25) 
CCCN=c1ncc(S(=O)(=O)[N-]c2c(C)nn(C)c2C)c[n-]1

>  <Energy>  (25) 
70.71794384710743

>  <Genealogy>  (25) 
CCCN=c1ncc(S(=O)(=O)[N-]c2c(C)nn(C)c2C)c[n-]1 (protonated)
CCCN=c1ncc(S(=O)(=O)[N-]c2c(C)nn(C)c2C)c[n-]1 (3D coordinates assigned)
CCCN=c1ncc(S(=O)(=O)[N-]c2c(C)nn(C)c2C)c[n-]1 (optimized conformer: 70.71794384710743 kcal/mol)

>  <smiles>  (25) 
CCCN=c1ncc(S(=O)(=O)Nc2c(C)nn(C)c2C)c[nH]1

>  <score_type>  (25) 
oracle

>  <origin>  (25) 
adgpu

>  <m_score__min__energy>  (25) 
-9.3599999999999994

>  <m_primary>  (25) 
energy

$$$$
25:0
     RDKit          3D

 26 28  0  0  0  0  0  0  0  0999 V2000
   -7.1830   17.9490  -33.0630 O   0  0  0  0  0  0  0  0  0  0  0  0
   -6.8660   19.0970  -33.4370 N   0  0  0  0  0  0  0  0  0  0  0  0
   -6.1130   19.2370  -34.5800 O   0  0  0  0  0  0  0  0  0  0  0  0
   -7.2810   20.2540  -32.6880 C   0  0  0  0  0  0  0  0  0  0  0  0
   -8.6380   20.4520  -32.3810 C   0  0  0  0  0  0  0  0  0  0  0  0
   -9.0430   21.5740  -31.6550 C   0  0  0  0  0  0  0  0  0  0  0  0
   -8.1030   22.5120  -31.2270 C   0  0  0  0  0  0  0  0  0  0  0  0
   -6.7420   22.3350  -31.5210 C   0  0  0  0  0  0  0  0  0  0  0  0
   -5.7410   23.3230  -31.0720 C   0  0  0  0  0  0  0  0  0  0  0  0
   -5.6090   24.5640  -31.5840 N   0  0  0  0  0  0  0  0  0  0  0  0
   -4.6140   25.1370  -30.9250 N   0  0  0  0  0  0  0  0  0  0  0  0
   -4.1770   24.2240  -30.0370 C   0  0  0  0  0  0  0  0  0  0  0  0
   -3.0750   24.4520  -29.1000 C   0  0  0  0  0  0  0  0  0  0  0  0
   -2.9140   23.8320  -27.8780 C   0  0  0  0  0  0  0  0  0  0  0  0
   -1.7520   24.3520  -27.3500 C   0  0  0  0  0  0  0  0  0  0  0  0
   -1.2780   25.2540  -28.2820 C   0  0  0  0  0  0  0  0  0  0  0  0
   -2.0890   25.2920  -29.3140 O   0  0  0  0  0  0  0  0  0  0  0  0
   -4.8630   23.1100  -30.1210 O   0  0  0  0  0  0  0  0  0  0  0  0
   -6.3370   21.2050  -32.2520 C   0  0  0  0  0  0  0  0  0  0  0  0
   -9.3863   19.7181  -32.7149 H   0  0  0  0  0  0  0  0  0  0  0  0
  -10.1077   21.7189  -31.4195 H   0  0  0  0  0  0  0  0  0  0  0  0
   -8.4299   23.3940  -30.6567 H   0  0  0  0  0  0  0  0  0  0  0  0
   -3.5745   23.0804  -27.4210 H   0  0  0  0  0  0  0  0  0  0  0  0
   -1.2946   24.0996  -26.3820 H   0  0  0  0  0  0  0  0  0  0  0  0
   -0.3599   25.8505  -28.1759 H   0  0  0  0  0  0  0  0  0  0  0  0
   -5.2719   21.0614  -32.4862 H   0  0  0  0  0  0  0  0  0  0  0  0
  1  2  2  0
  2  3  1  0
  2  4  1  0
  4  5  2  0
  5  6  1  0
  6  7  2  0
  7  8  1  0
  8  9  1  0
  9 10  2  0
 10 11  1  0
 11 12  2  0
 12 13  1  0
 13 14  2  0
 14 15  1  0
 15 16  2  0
 16 17  1  0
 12 18  1  0
  8 19  2  0
 19  4  1  0
 18  9  1  0
 17 13  1  0
  5 20  1  0
  6 21  1  0
  7 22  1  0
 14 23  1  0
 15 24  1  0
 16 25  1  0
 19 26  1  0
M  CHG  2   2   1   3  -1
M  END
>  <UniqueID>  (26) 
26

>  <SMILES>  (26) 
O=[N+]([O-])c1cccc(-c2nnc(-c3ccco3)o2)c1

>  <Energy>  (26) 
89.4421718016277

>  <Genealogy>  (26) 
O=[N+]([O-])c1cccc(-c2nnc(-c3ccco3)o2)c1 (3D coordinates assigned)
O=[N+]([O-])c1cccc(-c2nnc(-c3ccco3)o2)c1 (optimized conformer: 89.4421718016277 kcal/mol)

>  <smiles>  (26) 
O=[N+]([O-])c1cccc(-c2nnc(-c3ccco3)o2)c1

>  <score_type>  (26) 
oracle

>  <origin>  (26) 
adgpu

>  <m_score__min__energy>  (26) 
-8.1400000000000006

>  <m_primary>  (26) 
energy

$$$$
26:0
     RDKit          3D

 33 34  0  0  0  0  0  0  0  0999 V2000
   -2.3610   24.8790  -28.2760 C   0  0  0  0  0  0  0  0  0  0  0  0
   -2.9740   25.1880  -29.5240 O   0  0  0  0  0  0  0  0  0  0  0  0
   -4.1010   24.5280  -30.0430 C   0  0  0  0  0  0  0  0  0  0  0  0
   -5.3930   25.0780  -29.9500 C   0  0  0  0  0  0  0  0  0  0  0  0
   -6.4930   24.3950  -30.4760 C   0  0  0  0  0  0  0  0  0  0  0  0
   -6.3200   23.1590  -31.1050 C   0  0  0  0  0  0  0  0  0  0  0  0
   -7.7090   22.2910  -31.7510 S   0  0  0  0  0  0  0  0  0  0  0  0
   -8.3830   21.5290  -30.6440 O   0  0  0  0  0  0  0  0  0  0  0  0
   -8.6810   23.2750  -32.3410 O   0  0  0  0  0  0  0  0  0  0  0  0
   -7.1560   21.1920  -32.9770 N   0  0  0  0  0  0  0  0  0  0  0  0
   -6.9300   19.9170  -32.8300 C   0  0  0  0  0  0  0  0  0  0  0  0
   -7.1170   19.2470  -31.6040 C   0  0  0  0  0  0  0  0  0  0  0  0
   -6.8540   17.8770  -31.5220 C   0  0  0  0  0  0  0  0  0  0  0  0
   -6.4220   17.1940  -32.6160 N   0  0  0  0  0  0  0  0  0  0  0  0
   -6.2340   17.8160  -33.8100 C   0  0  0  0  0  0  0  0  0  0  0  0
   -6.4850   19.1840  -33.9360 C   0  0  0  0  0  0  0  0  0  0  0  0
   -5.0400   22.6000  -31.1970 C   0  0  0  0  0  0  0  0  0  0  0  0
   -3.9270   23.2800  -30.6740 C   0  0  0  0  0  0  0  0  0  0  0  0
   -2.5570   22.6700  -30.7740 C   0  0  0  0  0  0  0  0  0  0  0  0
   -3.0146   25.2085  -27.4549 H   0  0  0  0  0  0  0  0  0  0  0  0
   -2.2018   23.7929  -28.2046 H   0  0  0  0  0  0  0  0  0  0  0  0
   -1.3932   25.3970  -28.2046 H   0  0  0  0  0  0  0  0  0  0  0  0
   -5.5381   26.0521  -29.4600 H   0  0  0  0  0  0  0  0  0  0  0  0
   -7.4992   24.8321  -30.3946 H   0  0  0  0  0  0  0  0  0  0  0  0
   -7.4672   19.7982  -30.7188 H   0  0  0  0  0  0  0  0  0  0  0  0
   -6.9971   17.3484  -30.5680 H   0  0  0  0  0  0  0  0  0  0  0  0
   -6.2310   16.1700  -32.5370 H   0  0  0  0  0  0  0  0  0  0  0  0
   -5.8832   17.2403  -34.6792 H   0  0  0  0  0  0  0  0  0  0  0  0
   -6.3331   19.6848  -34.9035 H   0  0  0  0  0  0  0  0  0  0  0  0
   -4.9045   21.6220  -31.6819 H   0  0  0  0  0  0  0  0  0  0  0  0
   -2.1597   22.4931  -29.7636 H   0  0  0  0  0  0  0  0  0  0  0  0
   -2.6196   21.7147  -31.3158 H   0  0  0  0  0  0  0  0  0  0  0  0
   -1.8890   23.3557  -31.3158 H   0  0  0  0  0  0  0  0  0  0  0  0
  1  2  1  0
  2  3  1  0
  3  4  2  0
  4  5  1  0
  5  6  2  0
  6  7  1  0
  7  8  2  0
  7  9  2  0
  7 10  1  0
 10 11  2  3
 11 12  1  0
 12 13  2  0
 13 14  1  0
 14 15  1  0
 15 16  2  0
  6 17  1  0
 17 18  2  0
 18 19  1  0
 18  3  1  0
 16 11  1  0
  1 20  1  0
  1 21  1  0
  1 22  1  0
  4 23  1  0
  5 24  1  0
 12 25  1  0
 13 26  1  0
 14 27  1  0
 15 28  1  0
 16 29  1  0
 17 30  1  0
 19 31  1  0
 19 32  1  0
 19 33  1  0
M  END
>  <UniqueID>  (27) 
27

>  <SMILES>  (27) 
COc1ccc(S(=O)(=O)N=c2cc[nH]cc2)cc1C

>  <Energy>  (27) 
38.91012940798666

>  <Genealogy>  (27) 
COc1ccc(S(=O)(=O)N=c2cc[nH]cc2)cc1C (3D coordinates assigned)
COc1ccc(S(=O)(=O)N=c2cc[nH]cc2)cc1C (optimized conformer: 38.91012940798666 kcal/mol)

>  <smiles>  (27) 
COc1ccc(S(=O)(=O)N=c2cc[nH]cc2)cc1C

>  <score_type>  (27) 
oracle

>  <origin>  (27) 
adgpu

>  <m_score__min__energy>  (27) 
-7.7300000000000004

>  <m_primary>  (27) 
energy

$$$$
27:0
     RDKit          3D

 27 28  0  0  0  0  0  0  0  0999 V2000
   -3.9050   25.4050  -30.8070 N   0  0  0  0  0  0  0  0  0  0  0  0
   -3.8270   23.7950  -30.1820 S   0  0  0  0  0  0  0  0  0  0  0  0
   -3.9990   23.8310  -28.6900 O   0  0  0  0  0  0  0  0  0  0  0  0
   -2.4840   23.1990  -30.4970 O   0  0  0  0  0  0  0  0  0  0  0  0
   -5.0980   22.8200  -30.9100 C   0  0  0  0  0  0  0  0  0  0  0  0
   -4.8490   22.0940  -32.0830 C   0  0  0  0  0  0  0  0  0  0  0  0
   -5.8570   21.3080  -32.6510 C   0  0  0  0  0  0  0  0  0  0  0  0
   -7.1130   21.2160  -32.0380 C   0  0  0  0  0  0  0  0  0  0  0  0
   -8.1350   20.4220  -32.6630 N   0  0  0  0  0  0  0  0  0  0  0  0
   -8.0100   19.2050  -33.0400 N   0  0  0  0  0  0  0  0  0  0  0  0
   -6.7830   18.4570  -33.0490 C   0  0  0  0  0  0  0  0  0  0  0  0
   -5.9420   18.5130  -34.1660 C   0  0  0  0  0  0  0  0  0  0  0  0
   -6.3080   19.2610  -35.2800 O   0  0  0  0  0  0  0  0  0  0  0  0
   -4.7710   17.8220  -34.1670 N   0  0  0  0  0  0  0  0  0  0  0  0
   -4.3880   17.0880  -33.0910 C   0  0  0  0  0  0  0  0  0  0  0  0
   -2.9790   16.2670  -33.1240 S   0  0  0  0  0  0  0  0  0  0  0  0
   -5.1700   17.0500  -31.9820 N   0  0  0  0  0  0  0  0  0  0  0  0
   -6.3490   17.7240  -31.9310 C   0  0  0  0  0  0  0  0  0  0  0  0
   -7.0290   17.7000  -30.8720 O   0  0  0  0  0  0  0  0  0  0  0  0
   -7.3700   21.9670  -30.8780 C   0  0  0  0  0  0  0  0  0  0  0  0
   -6.3630   22.7530  -30.3100 C   0  0  0  0  0  0  0  0  0  0  0  0
   -3.8650   26.0520  -29.9880 H   0  0  0  0  0  0  0  0  0  0  0  0
   -3.8581   22.1426  -32.5581 H   0  0  0  0  0  0  0  0  0  0  0  0
   -5.6622   20.7591  -33.5842 H   0  0  0  0  0  0  0  0  0  0  0  0
   -7.1930   19.7530  -35.3090 H   0  0  0  0  0  0  0  0  0  0  0  0
   -8.3675   21.9362  -30.4153 H   0  0  0  0  0  0  0  0  0  0  0  0
   -6.5640   23.3206  -29.3894 H   0  0  0  0  0  0  0  0  0  0  0  0
  1  2  1  0
  2  3  2  0
  2  4  2  0
  2  5  1  0
  5  6  2  0
  6  7  1  0
  7  8  2  0
  8  9  1  0
  9 10  2  3
 10 11  1  0
 11 12  2  0
 12 13  1  0
 12 14  1  0
 14 15  1  0
 15 16  2  0
 15 17  1  0
 17 18  1  0
 18 19  2  0
  8 20  1  0
 20 21  2  0
 21  5  1  0
 18 11  1  0
  1 22  1  0
  6 23  1  0
  7 24  1  0
 13 25  1  0
 20 26  1  0
 21 27  1  0
M  CHG  3   1  -1  14  -1  17  -1
M  END
>  <UniqueID>  (28) 
28

>  <SMILES>  (28) 
[NH-]S(=O)(=O)c1ccc(N=Nc2c(O)[n-]c(=S)[n-]c2=O)cc1

>  <Energy>  (28) 
42.48422521509312

>  <Genealogy>  (28) 
[NH-]S(=O)(=O)c1ccc(N=Nc2c(O)[n-]c(=S)[n-]c2=O)cc1 (protonated)
[NH-]S(=O)(=O)c1ccc(N=Nc2c(O)[n-]c(=S)[n-]c2=O)cc1 (3D coordinates assigned)
[NH-]S(=O)(=O)c1ccc(N=Nc2c(O)[n-]c(=S)[n-]c2=O)cc1 (optimized conformer: 42.48422521509312 kcal/mol)

>  <smiles>  (28) 
NS(=O)(=O)c1ccc(N=Nc2c(O)[nH]c(=S)[nH]c2=O)cc1

>  <score_type>  (28) 
oracle

>  <origin>  (28) 
adgpu

>  <m_score__min__energy>  (28) 
-8.9900000000000002

>  <m_primary>  (28) 
energy

$$$$
28:0
     RDKit          3D

 33 35  0  0  0  0  0  0  0  0999 V2000
   -3.8600   20.2090  -33.1320 C   0  0  0  0  0  0  0  0  0  0  0  0
   -4.8900   19.1410  -33.3550 C   0  0  0  0  0  0  0  0  0  0  0  0
   -4.6830   18.1470  -34.3240 C   0  0  0  0  0  0  0  0  0  0  0  0
   -5.6590   17.1710  -34.5500 C   0  0  0  0  0  0  0  0  0  0  0  0
   -6.8490   17.1860  -33.8160 C   0  0  0  0  0  0  0  0  0  0  0  0
   -7.0680   18.1810  -32.8570 C   0  0  0  0  0  0  0  0  0  0  0  0
   -8.5950   18.2010  -31.9120 S   0  0  0  0  0  0  0  0  0  0  0  0
   -9.1470   19.8260  -32.5370 C   0  0  0  0  0  0  0  0  0  0  0  0
   -8.5610   20.9310  -31.7210 C   0  0  0  0  0  0  0  0  0  0  0  0
   -7.4110   21.5640  -32.0220 N   0  0  0  0  0  0  0  0  0  0  0  0
   -7.3020   22.4250  -30.9870 C   0  0  0  0  0  0  0  0  0  0  0  0
   -6.1810   23.3720  -30.8200 C   0  0  0  0  0  0  0  0  0  0  0  0
   -6.4260   24.7450  -30.6480 C   0  0  0  0  0  0  0  0  0  0  0  0
   -5.3500   25.6240  -30.4930 C   0  0  0  0  0  0  0  0  0  0  0  0
   -4.0760   25.1540  -30.5110 N   0  0  0  0  0  0  0  0  0  0  0  0
   -3.8070   23.8320  -30.6770 C   0  0  0  0  0  0  0  0  0  0  0  0
   -4.8530   22.9170  -30.8350 C   0  0  0  0  0  0  0  0  0  0  0  0
   -8.3270   22.3140  -30.1180 N   0  0  0  0  0  0  0  0  0  0  0  0
   -9.0830   21.3800  -30.6070 O   0  0  0  0  0  0  0  0  0  0  0  0
   -6.0960   19.1670  -32.6380 C   0  0  0  0  0  0  0  0  0  0  0  0
   -3.7153   20.3590  -32.0519 H   0  0  0  0  0  0  0  0  0  0  0  0
   -2.9083   19.9020  -33.5903 H   0  0  0  0  0  0  0  0  0  0  0  0
   -4.2013   21.1489  -33.5903 H   0  0  0  0  0  0  0  0  0  0  0  0
   -3.7505   18.1355  -34.9074 H   0  0  0  0  0  0  0  0  0  0  0  0
   -5.4902   16.3904  -35.3064 H   0  0  0  0  0  0  0  0  0  0  0  0
   -7.6135   16.4151  -33.9926 H   0  0  0  0  0  0  0  0  0  0  0  0
   -8.8251   19.9392  -33.5827 H   0  0  0  0  0  0  0  0  0  0  0  0
  -10.2436   19.8780  -32.4681 H   0  0  0  0  0  0  0  0  0  0  0  0
   -7.4579   25.1257  -30.6354 H   0  0  0  0  0  0  0  0  0  0  0  0
   -5.5358   26.6995  -30.3561 H   0  0  0  0  0  0  0  0  0  0  0  0
   -2.7645   23.4810  -30.6871 H   0  0  0  0  0  0  0  0  0  0  0  0
   -4.6363   21.8471  -30.9702 H   0  0  0  0  0  0  0  0  0  0  0  0
   -6.2792   19.9636  -31.9018 H   0  0  0  0  0  0  0  0  0  0  0  0
  1  2  1  0
  2  3  2  0
  3  4  1  0
  4  5  2  0
  5  6  1  0
  6  7  1  0
  7  8  1  0
  8  9  1  0
  9 10  2  0
 10 11  1  0
 11 12  1  0
 12 13  2  0
 13 14  1  0
 14 15  2  0
 15 16  1  0
 16 17  2  0
 11 18  2  0
 18 19  1  0
  6 20  2  0
 20  2  1  0
 19  9  1  0
 17 12  1  0
  1 21  1  0
  1 22  1  0
  1 23  1  0
  3 24  1  0
  4 25  1  0
  5 26  1  0
  8 27  1  0
  8 28  1  0
 13 29  1  0
 14 30  1  0
 16 31  1  0
 17 32  1  0
 20 33  1  0
M  END
>  <UniqueID>  (29) 
29

>  <SMILES>  (29) 
Cc1cccc(SCc2nc(-c3ccncc3)no2)c1

>  <Energy>  (29) 
63.112669941625846

>  <Genealogy>  (29) 
Cc1cccc(SCc2nc(-c3ccncc3)no2)c1 (3D coordinates assigned)
Cc1cccc(SCc2nc(-c3ccncc3)no2)c1 (optimized conformer: 63.112669941625846 kcal/mol)

>  <smiles>  (29) 
Cc1cccc(SCc2nc(-c3ccncc3)no2)c1

>  <score_type>  (29) 
oracle

>  <origin>  (29) 
adgpu

>  <m_score__min__energy>  (29) 
-8.4199999999999999

>  <m_primary>  (29) 
energy

$$$$
29:0
     RDKit          3D

 33 34  0  0  0  0  0  0  0  0999 V2000
   -3.2020   24.0550  -27.7580 C   0  0  0  0  0  0  0  0  0  0  0  0
   -2.3460   24.5490  -29.2410 S   0  0  0  0  0  0  0  0  0  0  0  0
   -1.4580   25.7310  -28.9660 O   0  0  0  0  0  0  0  0  0  0  0  0
   -1.4940   23.4040  -29.7110 O   0  0  0  0  0  0  0  0  0  0  0  0
   -3.4920   24.9390  -30.4850 N   0  0  0  0  0  0  0  0  0  0  0  0
   -4.7080   24.2300  -30.7570 C   0  0  0  0  0  0  0  0  0  0  0  0
   -5.9610   24.6790  -30.2980 C   0  0  0  0  0  0  0  0  0  0  0  0
   -7.1210   23.9580  -30.5980 C   0  0  0  0  0  0  0  0  0  0  0  0
   -7.0450   22.7810  -31.3540 C   0  0  0  0  0  0  0  0  0  0  0  0
   -8.5200   21.9050  -31.7490 S   0  0  0  0  0  0  0  0  0  0  0  0
   -9.5420   22.8810  -32.2620 O   0  0  0  0  0  0  0  0  0  0  0  0
   -9.0780   21.2100  -30.5380 O   0  0  0  0  0  0  0  0  0  0  0  0
   -8.1890   20.7300  -32.9800 N   0  0  0  0  0  0  0  0  0  0  0  0
   -7.3070   19.6070  -32.8360 C   0  0  0  0  0  0  0  0  0  0  0  0
   -6.0990   19.5070  -33.5550 C   0  0  0  0  0  0  0  0  0  0  0  0
   -5.2730   18.3900  -33.3920 C   0  0  0  0  0  0  0  0  0  0  0  0
   -5.6400   17.3700  -32.5110 C   0  0  0  0  0  0  0  0  0  0  0  0
   -4.8360   16.2880  -32.3540 F   0  0  0  0  0  0  0  0  0  0  0  0
   -6.8320   17.4660  -31.7880 C   0  0  0  0  0  0  0  0  0  0  0  0
   -7.6640   18.5790  -31.9510 C   0  0  0  0  0  0  0  0  0  0  0  0
   -8.8190   18.6590  -31.2430 F   0  0  0  0  0  0  0  0  0  0  0  0
   -5.7970   22.3260  -31.8010 C   0  0  0  0  0  0  0  0  0  0  0  0
   -4.6380   23.0500  -31.5060 C   0  0  0  0  0  0  0  0  0  0  0  0
   -2.6306   24.3847  -26.8778 H   0  0  0  0  0  0  0  0  0  0  0  0
   -4.2008   24.5156  -27.7404 H   0  0  0  0  0  0  0  0  0  0  0  0
   -3.3029   22.9598  -27.7404 H   0  0  0  0  0  0  0  0  0  0  0  0
   -6.0277   25.6005  -29.7011 H   0  0  0  0  0  0  0  0  0  0  0  0
   -8.0970   24.3164  -30.2390 H   0  0  0  0  0  0  0  0  0  0  0  0
   -5.8047   20.3101  -34.2467 H   0  0  0  0  0  0  0  0  0  0  0  0
   -4.3330   18.3147  -33.9584 H   0  0  0  0  0  0  0  0  0  0  0  0
   -7.1166   16.6652  -31.0896 H   0  0  0  0  0  0  0  0  0  0  0  0
   -5.7293   21.3966  -32.3856 H   0  0  0  0  0  0  0  0  0  0  0  0
   -3.6631   22.6892  -31.8656 H   0  0  0  0  0  0  0  0  0  0  0  0
  1  2  1  0
  2  3  2  0
  2  4  2  0
  2  5  1  0
  5  6  1  0
  6  7  2  0
  7  8  1  0
  8  9  2  0
  9 10  1  0
 10 11  2  0
 10 12  2  0
 10 13  1  0
 13 14  1  0
 14 15  2  0
 15 16  1  0
 16 17  2  0
 17 18  1  0
 17 19  1  0
 19 20  2  0
 20 21  1  0
  9 22  1  0
 22 23  2  0
 23  6  1  0
 20 14  1  0
  1 24  1  0
  1 25  1  0
  1 26  1  0
  7 27  1  0
  8 28  1  0
 15 29  1  0
 16 30  1  0
 19 31  1  0
 22 32  1  0
 23 33  1  0
M  CHG  2   5  -1  13  -1
M  END
>  <UniqueID>  (30) 
30

>  <SMILES>  (30) 
CS(=O)(=O)[N-]c1ccc(S(=O)(=O)[N-]c2ccc(F)cc2F)cc1

>  <Energy>  (30) 
35.91854687606126

>  <Genealogy>  (30) 
CS(=O)(=O)[N-]c1ccc(S(=O)(=O)[N-]c2ccc(F)cc2F)cc1 (protonated)
CS(=O)(=O)[N-]c1ccc(S(=O)(=O)[N-]c2ccc(F)cc2F)cc1 (3D coordinates assigned)
CS(=O)(=O)[N-]c1ccc(S(=O)(=O)[N-]c2ccc(F)cc2F)cc1 (optimized conformer: 35.91854687606126 kcal/mol)

>  <smiles>  (30) 
CS(=O)(=O)Nc1ccc(S(=O)(=O)Nc2ccc(F)cc2F)cc1

>  <score_type>  (30) 
oracle

>  <origin>  (30) 
adgpu

>  <m_score__min__energy>  (30) 
-10.119999999999999

>  <m_primary>  (30) 
energy

$$$$
30:0
     RDKit          3D

 50 53  0  0  0  0  0  0  0  0999 V2000
   -0.1150   21.7120  -30.6350 C   0  0  0  0  0  0  0  0  0  0  0  0
   -1.1890   22.6040  -30.1010 C   0  0  0  0  0  0  0  0  0  0  0  0
   -2.5030   22.4880  -30.5640 C   0  0  0  0  0  0  0  0  0  0  0  0
   -3.4840   23.3350  -30.0290 C   0  0  0  0  0  0  0  0  0  0  0  0
   -4.8580   23.2650  -30.4660 N   0  0  0  0  0  0  0  0  0  0  0  0
   -5.2070   22.4640  -31.6450 C   0  0  0  0  0  0  0  0  0  0  0  0
   -6.4770   23.0220  -32.3000 C   0  0  0  0  0  0  0  0  0  0  0  0
   -7.6240   23.1210  -31.3660 N   0  0  0  0  0  0  0  0  0  0  0  0
   -8.7900   21.8490  -31.6500 S   0  0  0  0  0  0  0  0  0  0  0  0
   -9.7910   22.3100  -32.6730 O   0  0  0  0  0  0  0  0  0  0  0  0
   -9.5300   21.5500  -30.3750 O   0  0  0  0  0  0  0  0  0  0  0  0
   -8.0060   20.3740  -32.2270 C   0  0  0  0  0  0  0  0  0  0  0  0
   -7.1390   20.4190  -33.3290 C   0  0  0  0  0  0  0  0  0  0  0  0
   -6.4970   19.2570  -33.7680 C   0  0  0  0  0  0  0  0  0  0  0  0
   -6.7240   18.0410  -33.1140 C   0  0  0  0  0  0  0  0  0  0  0  0
   -5.9150   16.5850  -33.6640 Cl  0  0  0  0  0  0  0  0  0  0  0  0
   -7.5970   17.9890  -32.0230 C   0  0  0  0  0  0  0  0  0  0  0  0
   -8.2390   19.1500  -31.5820 C   0  0  0  0  0  0  0  0  0  0  0  0
   -7.2600   23.1700  -29.9330 C   0  0  0  0  0  0  0  0  0  0  0  0
   -5.9360   23.9040  -29.6960 C   0  0  0  0  0  0  0  0  0  0  0  0
   -3.1290   24.2330  -29.0700 N   0  0  0  0  0  0  0  0  0  0  0  0
   -1.8490   24.3370  -28.6210 C   0  0  0  0  0  0  0  0  0  0  0  0
   -1.5010   25.3310  -27.5750 C   0  0  0  0  0  0  0  0  0  0  0  0
   -0.5640   26.3500  -27.8360 C   0  0  0  0  0  0  0  0  0  0  0  0
   -0.2410   27.2850  -26.8480 C   0  0  0  0  0  0  0  0  0  0  0  0
   -0.8460   27.2150  -25.5920 C   0  0  0  0  0  0  0  0  0  0  0  0
   -1.7760   26.2100  -25.3200 C   0  0  0  0  0  0  0  0  0  0  0  0
   -2.1050   25.2730  -26.3030 C   0  0  0  0  0  0  0  0  0  0  0  0
   -0.8920   23.5200  -29.1420 N   0  0  0  0  0  0  0  0  0  0  0  0
    0.4335   21.2565  -29.7973 H   0  0  0  0  0  0  0  0  0  0  0  0
   -0.5679   20.9206  -31.2503 H   0  0  0  0  0  0  0  0  0  0  0  0
    0.5798   22.3025  -31.2503 H   0  0  0  0  0  0  0  0  0  0  0  0
   -2.7624   21.7461  -31.3336 H   0  0  0  0  0  0  0  0  0  0  0  0
   -4.3785   22.4992  -32.3678 H   0  0  0  0  0  0  0  0  0  0  0  0
   -5.3871   21.4240  -31.3351 H   0  0  0  0  0  0  0  0  0  0  0  0
   -6.2563   24.0268  -32.6895 H   0  0  0  0  0  0  0  0  0  0  0  0
   -6.7663   22.3222  -33.0979 H   0  0  0  0  0  0  0  0  0  0  0  0
   -6.9636   21.3720  -33.8496 H   0  0  0  0  0  0  0  0  0  0  0  0
   -5.8128   19.2988  -34.6283 H   0  0  0  0  0  0  0  0  0  0  0  0
   -7.7790   17.0327  -31.5107 H   0  0  0  0  0  0  0  0  0  0  0  0
   -8.9290   19.1037  -30.7266 H   0  0  0  0  0  0  0  0  0  0  0  0
   -8.0572   23.6912  -29.3828 H   0  0  0  0  0  0  0  0  0  0  0  0
   -7.1399   22.1352  -29.5799 H   0  0  0  0  0  0  0  0  0  0  0  0
   -6.0389   24.9517  -30.0149 H   0  0  0  0  0  0  0  0  0  0  0  0
   -5.6875   23.8609  -28.6253 H   0  0  0  0  0  0  0  0  0  0  0  0
   -0.0833   26.4105  -28.8236 H   0  0  0  0  0  0  0  0  0  0  0  0
    0.4915   28.0775  -27.0609 H   0  0  0  0  0  0  0  0  0  0  0  0
   -0.5899   27.9518  -24.8164 H   0  0  0  0  0  0  0  0  0  0  0  0
   -2.2510   26.1556  -24.3293 H   0  0  0  0  0  0  0  0  0  0  0  0
   -2.8402   24.4850  -26.0826 H   0  0  0  0  0  0  0  0  0  0  0  0
  1  2  1  0
  2  3  2  0
  3  4  1  0
  4  5  1  0
  5  6  1  0
  6  7  1  0
  7  8  1  0
  8  9  1  0
  9 10  2  0
  9 11  2  0
  9 12  1  0
 12 13  2  0
 13 14  1  0
 14 15  2  0
 15 16  1  0
 15 17  1  0
 17 18  2  0
  8 19  1  0
 19 20  1  0
  4 21  2  0
 21 22  1  0
 22 23  1  0
 23 24  2  0
 24 25  1  0
 25 26  2  0
 26 27  1  0
 27 28  2  0
 22 29  2  0
 29  2  1  0
 20  5  1  0
 28 23  1  0
 18 12  1  0
  1 30  1  0
  1 31  1  0
  1 32  1  0
  3 33  1  0
  6 34  1  0
  6 35  1  0
  7 36  1  0
  7 37  1  0
 13 38  1  0
 14 39  1  0
 17 40  1  0
 18 41  1  0
 19 42  1  0
 19 43  1  0
 20 44  1  0
 20 45  1  0
 24 46  1  0
 25 47  1  0
 26 48  1  0
 27 49  1  0
 28 50  1  0
M  END
>  <UniqueID>  (31) 
31

>  <SMILES>  (31) 
Cc1cc(N2CCN(S(=O)(=O)c3ccc(Cl)cc3)CC2)nc(-c2ccccc2)n1

>  <Energy>  (31) 
60.38119080745724

>  <Genealogy>  (31) 
Cc1cc(N2CCN(S(=O)(=O)c3ccc(Cl)cc3)CC2)nc(-c2ccccc2)n1 (3D coordinates assigned)
Cc1cc(N2CCN(S(=O)(=O)c3ccc(Cl)cc3)CC2)nc(-c2ccccc2)n1 (nonaromatic ring conformer: 60.38119080745724 kcal/mol)

>  <smiles>  (31) 
Cc1cc(N2CCN(S(=O)(=O)c3ccc(Cl)cc3)CC2)nc(-c2ccccc2)n1

>  <score_type>  (31) 
oracle

>  <origin>  (31) 
adgpu

>  <m_score__min__energy>  (31) 
-9.8200000000000003

>  <m_primary>  (31) 
energy

$$$$
31:0
     RDKit          3D

 45 47  0  0  0  0  0  0  0  0999 V2000
   -1.4840   23.0430  -28.2450 C   0  0  0  0  0  0  0  0  0  0  0  0
   -2.5080   23.7310  -29.0890 C   0  0  0  0  0  0  0  0  0  0  0  0
   -2.4820   25.0490  -29.3550 N   0  0  0  0  0  0  0  0  0  0  0  0
   -3.4910   25.3010  -30.1360 O   0  0  0  0  0  0  0  0  0  0  0  0
   -4.1810   24.2160  -30.3970 C   0  0  0  0  0  0  0  0  0  0  0  0
   -5.2250   24.2500  -31.1760 N   0  0  0  0  0  0  0  0  0  0  0  0
   -6.2970   22.9760  -31.6660 S   0  0  0  0  0  0  0  0  0  0  0  0
   -7.2320   23.5210  -32.7070 O   0  0  0  0  0  0  0  0  0  0  0  0
   -7.1140   22.5240  -30.4880 O   0  0  0  0  0  0  0  0  0  0  0  0
   -5.4100   21.6390  -32.3900 C   0  0  0  0  0  0  0  0  0  0  0  0
   -5.9020   20.3320  -32.2990 C   0  0  0  0  0  0  0  0  0  0  0  0
   -5.1830   19.2710  -32.8600 C   0  0  0  0  0  0  0  0  0  0  0  0
   -3.9630   19.5050  -33.5100 C   0  0  0  0  0  0  0  0  0  0  0  0
   -3.2480   18.3980  -34.0840 N   0  0  0  0  0  0  0  0  0  0  0  0
   -2.0880   17.7980  -33.4860 C   0  0  0  0  0  0  0  0  0  0  0  0
   -1.6480   18.2090  -32.3770 O   0  0  0  0  0  0  0  0  0  0  0  0
   -1.4510   16.5990  -34.1270 C   0  0  0  0  0  0  0  0  0  0  0  0
   -2.2420   15.3190  -33.8330 C   0  0  0  0  0  0  0  0  0  0  0  0
   -3.7080   15.6000  -33.6850 C   0  0  0  0  0  0  0  0  0  0  0  0
   -4.4210   15.5690  -32.5020 C   0  0  0  0  0  0  0  0  0  0  0  0
   -5.7070   15.9340  -32.8370 C   0  0  0  0  0  0  0  0  0  0  0  0
   -5.6990   16.1650  -34.1980 C   0  0  0  0  0  0  0  0  0  0  0  0
   -4.4910   15.9590  -34.6750 O   0  0  0  0  0  0  0  0  0  0  0  0
   -3.4910   20.8240  -33.6310 C   0  0  0  0  0  0  0  0  0  0  0  0
   -4.2110   21.8840  -33.0710 C   0  0  0  0  0  0  0  0  0  0  0  0
   -3.5910   23.1410  -29.7240 C   0  0  0  0  0  0  0  0  0  0  0  0
   -3.8950   21.6710  -29.7360 C   0  0  0  0  0  0  0  0  0  0  0  0
   -1.7189   23.2008  -27.1820 H   0  0  0  0  0  0  0  0  0  0  0  0
   -1.4907   21.9654  -28.4659 H   0  0  0  0  0  0  0  0  0  0  0  0
   -0.4889   23.4564  -28.4659 H   0  0  0  0  0  0  0  0  0  0  0  0
   -6.8554   20.1386  -31.7856 H   0  0  0  0  0  0  0  0  0  0  0  0
   -5.5775   18.2465  -32.7906 H   0  0  0  0  0  0  0  0  0  0  0  0
   -3.6840   17.9080  -34.8960 H   0  0  0  0  0  0  0  0  0  0  0  0
   -1.4125   16.7535  -35.2154 H   0  0  0  0  0  0  0  0  0  0  0  0
   -0.4388   16.4825  -33.7124 H   0  0  0  0  0  0  0  0  0  0  0  0
   -2.0958   14.6103  -34.6615 H   0  0  0  0  0  0  0  0  0  0  0  0
   -1.8745   14.8962  -32.8863 H   0  0  0  0  0  0  0  0  0  0  0  0
   -4.0420   15.3079  -31.5029 H   0  0  0  0  0  0  0  0  0  0  0  0
   -6.5668   16.0233  -32.1568 H   0  0  0  0  0  0  0  0  0  0  0  0
   -6.5708   16.4744  -34.7931 H   0  0  0  0  0  0  0  0  0  0  0  0
   -2.5519   21.0228  -34.1682 H   0  0  0  0  0  0  0  0  0  0  0  0
   -3.8345   22.9132  -33.1657 H   0  0  0  0  0  0  0  0  0  0  0  0
   -3.9709   21.3038  -28.7019 H   0  0  0  0  0  0  0  0  0  0  0  0
   -4.8479   21.4979  -30.2575 H   0  0  0  0  0  0  0  0  0  0  0  0
   -3.0889   21.1341  -30.2575 H   0  0  0  0  0  0  0  0  0  0  0  0
  1  2  1  0
  2  3  1  0
  3  4  1  0
  4  5  1  0
  5  6  2  3
  6  7  1  0
  7  8  2  0
  7  9  2  0
  7 10  1  0
 10 11  2  0
 11 12  1  0
 12 13  2  0
 13 14  1  0
 14 15  1  0
 15 16  2  0
 15 17  1  0
 17 18  1  0
 18 19  1  0
 19 20  2  0
 20 21  1  0
 21 22  2  0
 22 23  1  0
 13 24  1  0
 24 25  2  0
  5 26  1  0
 26 27  1  0
 26  2  2  0
 25 10  1  0
 23 19  1  0
  1 28  1  0
  1 29  1  0
  1 30  1  0
 11 31  1  0
 12 32  1  0
 14 33  1  0
 17 34  1  0
 17 35  1  0
 18 36  1  0
 18 37  1  0
 20 38  1  0
 21 39  1  0
 22 40  1  0
 24 41  1  0
 25 42  1  0
 27 43  1  0
 27 44  1  0
 27 45  1  0
M  CHG  1   3  -1
M  END
>  <UniqueID>  (32) 
32

>  <SMILES>  (32) 
Cc1[n-]oc(=NS(=O)(=O)c2ccc(NC(=O)CCc3ccco3)cc2)c1C

>  <Energy>  (32) 
109.95400369304667

>  <Genealogy>  (32) 
Cc1[n-]oc(=NS(=O)(=O)c2ccc(NC(=O)CCc3ccco3)cc2)c1C (protonated)
Cc1[n-]oc(=NS(=O)(=O)c2ccc(NC(=O)CCc3ccco3)cc2)c1C (3D coordinates assigned)
Cc1[n-]oc(=NS(=O)(=O)c2ccc(NC(=O)CCc3ccco3)cc2)c1C (optimized conformer: 109.95400369304667 kcal/mol)

>  <smiles>  (32) 
Cc1[nH]oc(=NS(=O)(=O)c2ccc(NC(=O)CCc3ccco3)cc2)c1C

>  <score_type>  (32) 
oracle

>  <origin>  (32) 
adgpu

>  <m_score__min__energy>  (32) 
-10.01

>  <m_primary>  (32) 
energy

$$$$
32:0
     RDKit          3D

 42 44  0  0  0  0  0  0  0  0999 V2000
    0.2980   19.8720  -29.9980 C   0  0  0  0  0  0  0  0  0  0  0  0
   -0.0690   19.0850  -31.2270 C   0  0  0  0  0  0  0  0  0  0  0  0
    0.6180   19.7230  -32.3800 C   0  0  0  0  0  0  0  0  0  0  0  0
    1.8900   19.3740  -32.6630 N   0  0  0  0  0  0  0  0  0  0  0  0
    2.4920   19.9520  -33.7170 C   0  0  0  0  0  0  0  0  0  0  0  0
    3.7090   19.6160  -33.9790 N   0  0  0  0  0  0  0  0  0  0  0  0
    1.8970   20.8610  -34.5020 N   0  0  0  0  0  0  0  0  0  0  0  0
    0.6270   21.2450  -34.2630 C   0  0  0  0  0  0  0  0  0  0  0  0
    0.1020   22.1040  -35.0290 N   0  0  0  0  0  0  0  0  0  0  0  0
   -0.0080   20.6550  -33.1770 C   0  0  0  0  0  0  0  0  0  0  0  0
   -1.3760   21.0730  -32.9260 C   0  0  0  0  0  0  0  0  0  0  0  0
   -2.3530   20.5720  -33.7340 C   0  0  0  0  0  0  0  0  0  0  0  0
   -3.6560   20.9590  -33.4790 C   0  0  0  0  0  0  0  0  0  0  0  0
   -4.0340   21.8050  -32.4800 C   0  0  0  0  0  0  0  0  0  0  0  0
   -5.2440   22.2770  -32.0660 N   0  0  0  0  0  0  0  0  0  0  0  0
   -6.4530   22.7490  -31.6530 C   0  0  0  0  0  0  0  0  0  0  0  0
   -7.6110   21.7800  -31.8630 C   0  0  0  0  0  0  0  0  0  0  0  0
   -8.8800   22.1400  -31.7590 C   0  0  0  0  0  0  0  0  0  0  0  0
   -9.9010   21.2310  -31.9780 C   0  0  0  0  0  0  0  0  0  0  0  0
   -8.9740   19.6490  -32.3860 S   0  0  0  0  0  0  0  0  0  0  0  0
   -7.3110   20.4570  -32.1980 C   0  0  0  0  0  0  0  0  0  0  0  0
   -2.9440   22.2820  -31.6830 C   0  0  0  0  0  0  0  0  0  0  0  0
   -3.2620   23.3830  -30.3530 Cl  0  0  0  0  0  0  0  0  0  0  0  0
   -1.6570   21.9160  -31.9120 C   0  0  0  0  0  0  0  0  0  0  0  0
    0.0295   19.2961  -29.1001 H   0  0  0  0  0  0  0  0  0  0  0  0
    1.3804   20.0680  -29.9978 H   0  0  0  0  0  0  0  0  0  0  0  0
   -0.2476   20.8272  -29.9978 H   0  0  0  0  0  0  0  0  0  0  0  0
    0.2643   18.0422  -31.1200 H   0  0  0  0  0  0  0  0  0  0  0  0
   -1.1588   19.0804  -31.3762 H   0  0  0  0  0  0  0  0  0  0  0  0
    2.4200   18.6810  -32.1060 H   0  0  0  0  0  0  0  0  0  0  0  0
    4.1970   18.9070  -33.3760 H   0  0  0  0  0  0  0  0  0  0  0  0
    2.4000   21.3000  -35.3320 H   0  0  0  0  0  0  0  0  0  0  0  0
   -0.8620   22.4390  -34.9010 H   0  0  0  0  0  0  0  0  0  0  0  0
   -2.1136   19.8848  -34.5589 H   0  0  0  0  0  0  0  0  0  0  0  0
   -4.4448   20.5543  -34.1302 H   0  0  0  0  0  0  0  0  0  0  0  0
   -5.5350   22.7000  -33.3130 H   0  0  0  0  0  0  0  0  0  0  0  0
   -6.3851   22.9767  -30.5790 H   0  0  0  0  0  0  0  0  0  0  0  0
   -6.6703   23.6363  -32.2658 H   0  0  0  0  0  0  0  0  0  0  0  0
   -9.1278   23.1785  -31.4942 H   0  0  0  0  0  0  0  0  0  0  0  0
  -10.9875   21.3948  -31.9259 H   0  0  0  0  0  0  0  0  0  0  0  0
   -6.3186   19.9990  -32.3220 H   0  0  0  0  0  0  0  0  0  0  0  0
   -0.8490   22.3045  -31.2747 H   0  0  0  0  0  0  0  0  0  0  0  0
  1  2  1  0
  2  3  1  0
  3  4  1  0
  4  5  1  0
  5  6  2  3
  5  7  1  0
  7  8  1  0
  8  9  2  3
  8 10  1  0
 10 11  1  0
 11 12  2  0
 12 13  1  0
 13 14  2  0
 14 15  1  0
 15 16  1  0
 16 17  1  0
 17 18  1  0
 18 19  2  0
 19 20  1  0
 20 21  1  0
 14 22  1  0
 22 23  1  0
 22 24  2  0
 10  3  2  0
 24 11  1  0
 21 17  2  0
  1 25  1  0
  1 26  1  0
  1 27  1  0
  2 28  1  0
  2 29  1  0
  4 30  1  0
  6 31  1  0
  7 32  1  0
  9 33  1  0
 12 34  1  0
 13 35  1  0
 15 36  1  0
 16 37  1  0
 16 38  1  0
 18 39  1  0
 19 40  1  0
 21 41  1  0
 24 42  1  0
M  END
>  <smiles>  (33) 
CCc1[nH]c(=N)[nH]c(=N)c1-c1ccc(NCc2ccsc2)c(Cl)c1

>  <score_type>  (33) 
oracle

>  <origin>  (33) 
adgpu

>  <m_score__min__energy>  (33) 
-7.75

>  <m_primary>  (33) 
energy

$$$$
33:0
     RDKit          3D

 38 40  0  0  0  0  0  0  0  0999 V2000
   -4.7010   23.6740  -31.5840 O   0  0  0  0  0  0  0  0  0  0  0  0
   -5.4380   23.2110  -30.6700 C   0  0  0  0  0  0  0  0  0  0  0  0
   -5.0890   23.4230  -29.2910 N   0  0  0  0  0  0  0  0  0  0  0  0
   -3.7840   23.8300  -28.8470 C   0  0  0  0  0  0  0  0  0  0  0  0
   -2.6290   23.5390  -29.5970 C   0  0  0  0  0  0  0  0  0  0  0  0
   -1.3690   23.9260  -29.1300 C   0  0  0  0  0  0  0  0  0  0  0  0
   -1.2480   24.5930  -27.9090 C   0  0  0  0  0  0  0  0  0  0  0  0
   -2.3870   24.8680  -27.1460 C   0  0  0  0  0  0  0  0  0  0  0  0
   -2.2340   25.6950  -25.6060 Cl  0  0  0  0  0  0  0  0  0  0  0  0
   -3.6500   24.4810  -27.6100 C   0  0  0  0  0  0  0  0  0  0  0  0
   -6.6710   22.4670  -31.0240 C   0  0  0  0  0  0  0  0  0  0  0  0
   -7.8200   22.6320  -30.2300 C   0  0  0  0  0  0  0  0  0  0  0  0
   -8.9860   21.9130  -30.5040 C   0  0  0  0  0  0  0  0  0  0  0  0
   -9.0220   21.0230  -31.5750 C   0  0  0  0  0  0  0  0  0  0  0  0
   -7.8940   20.8480  -32.3770 C   0  0  0  0  0  0  0  0  0  0  0  0
   -6.7080   21.5560  -32.1090 C   0  0  0  0  0  0  0  0  0  0  0  0
   -5.5870   21.4220  -32.9990 N   0  0  0  0  0  0  0  0  0  0  0  0
   -5.1230   20.1640  -33.5250 C   0  0  0  0  0  0  0  0  0  0  0  0
   -3.7870   19.7820  -33.3230 C   0  0  0  0  0  0  0  0  0  0  0  0
   -3.3220   18.5550  -33.8070 C   0  0  0  0  0  0  0  0  0  0  0  0
   -4.1890   17.6970  -34.4860 C   0  0  0  0  0  0  0  0  0  0  0  0
   -5.5250   18.0590  -34.6760 C   0  0  0  0  0  0  0  0  0  0  0  0
   -5.9940   19.2840  -34.1940 C   0  0  0  0  0  0  0  0  0  0  0  0
   -5.8560   23.3760  -28.5830 H   0  0  0  0  0  0  0  0  0  0  0  0
   -2.7179   23.0049  -30.5545 H   0  0  0  0  0  0  0  0  0  0  0  0
   -0.4712   23.7046  -29.7257 H   0  0  0  0  0  0  0  0  0  0  0  0
   -0.2562   24.9022  -27.5474 H   0  0  0  0  0  0  0  0  0  0  0  0
   -4.5428   24.6882  -27.0018 H   0  0  0  0  0  0  0  0  0  0  0  0
   -7.8004   23.3348  -29.3840 H   0  0  0  0  0  0  0  0  0  0  0  0
   -9.8768   22.0498  -29.8733 H   0  0  0  0  0  0  0  0  0  0  0  0
   -9.9410   20.4575  -31.7886 H   0  0  0  0  0  0  0  0  0  0  0  0
   -7.9321   20.1502  -33.2265 H   0  0  0  0  0  0  0  0  0  0  0  0
   -5.1050   22.2960  -33.3120 H   0  0  0  0  0  0  0  0  0  0  0  0
   -3.1025   20.4513  -32.7812 H   0  0  0  0  0  0  0  0  0  0  0  0
   -2.2720   18.2657  -33.6525 H   0  0  0  0  0  0  0  0  0  0  0  0
   -3.8200   16.7352  -34.8717 H   0  0  0  0  0  0  0  0  0  0  0  0
   -6.2085   17.3790  -35.2056 H   0  0  0  0  0  0  0  0  0  0  0  0
   -7.0486   19.5616  -34.3381 H   0  0  0  0  0  0  0  0  0  0  0  0
  1  2  2  0
  2  3  1  0
  3  4  1  0
  4  5  2  0
  5  6  1  0
  6  7  2  0
  7  8  1  0
  8  9  1  0
  8 10  2  0
  2 11  1  0
 11 12  2  0
 12 13  1  0
 13 14  2  0
 14 15  1  0
 15 16  2  0
 16 17  1  0
 17 18  1  0
 18 19  2  0
 19 20  1  0
 20 21  2  0
 21 22  1  0
 22 23  2  0
 10  4  1  0
 16 11  1  0
 23 18  1  0
  3 24  1  0
  5 25  1  0
  6 26  1  0
  7 27  1  0
 10 28  1  0
 12 29  1  0
 13 30  1  0
 14 31  1  0
 15 32  1  0
 17 33  1  0
 19 34  1  0
 20 35  1  0
 21 36  1  0
 22 37  1  0
 23 38  1  0
M  END
>  <UniqueID>  (34) 
33

>  <SMILES>  (34) 
O=C(Nc1cccc(Cl)c1)c1ccccc1Nc1ccccc1

>  <Energy>  (34) 
54.20674984181303

>  <Genealogy>  (34) 
O=C(Nc1cccc(Cl)c1)c1ccccc1Nc1ccccc1 (3D coordinates assigned)
O=C(Nc1cccc(Cl)c1)c1ccccc1Nc1ccccc1 (optimized conformer: 54.20674984181303 kcal/mol)

>  <smiles>  (34) 
O=C(Nc1cccc(Cl)c1)c1ccccc1Nc1ccccc1

>  <score_type>  (34) 
oracle

>  <origin>  (34) 
adgpu

>  <m_score__min__energy>  (34) 
-8.5199999999999996

>  <m_primary>  (34) 
energy

$$$$
34:0
     RDKit          3D

 85 93  0  0  0  0  0  0  0  0999 V2000
    1.5160   11.4460  -36.9880 N   0  0  0  0  0  0  0  0  0  0  0  0
    0.4140   11.7990  -36.9270 C   0  0  0  0  0  0  0  0  0  0  0  0
   -0.9570   12.2320  -36.8510 C   0  0  0  0  0  0  0  0  0  0  0  0
   -1.8190   11.6460  -35.9190 C   0  0  0  0  0  0  0  0  0  0  0  0
   -3.1530   12.0520  -35.8460 C   0  0  0  0  0  0  0  0  0  0  0  0
   -3.6460   13.0510  -36.7070 C   0  0  0  0  0  0  0  0  0  0  0  0
   -5.0150   13.4900  -36.6270 N   0  0  0  0  0  0  0  0  0  0  0  0
   -6.0480   12.7900  -37.0860 N   0  0  0  0  0  0  0  0  0  0  0  0
   -7.1960   13.4220  -36.7350 C   0  0  0  0  0  0  0  0  0  0  0  0
   -8.5240   12.8150  -36.9520 C   0  0  0  0  0  0  0  0  0  0  0  0
   -9.5380   12.8410  -35.9830 C   0  0  0  0  0  0  0  0  0  0  0  0
  -10.7560   12.2080  -36.2410 C   0  0  0  0  0  0  0  0  0  0  0  0
  -10.9550   11.5440  -37.4520 C   0  0  0  0  0  0  0  0  0  0  0  0
   -9.9210   11.5190  -38.3870 C   0  0  0  0  0  0  0  0  0  0  0  0
   -8.7420   12.1420  -38.1170 N   0  0  0  0  0  0  0  0  0  0  0  0
   -6.8440   14.6010  -36.0840 C   0  0  0  0  0  0  0  0  0  0  0  0
   -5.4950   14.5930  -36.0170 C   0  0  0  0  0  0  0  0  0  0  0  0
   -4.9800   15.3430  -34.8280 C   0  0  0  0  0  0  0  0  0  0  0  0
   -6.2110   15.8850  -34.2360 N   0  0  0  0  0  0  0  0  0  0  0  0
   -6.2090   16.9800  -33.3110 C   0  0  0  0  0  0  0  0  0  0  0  0
   -5.2540   17.0190  -32.2860 C   0  0  0  0  0  0  0  0  0  0  0  0
   -5.1440   18.1450  -31.4690 C   0  0  0  0  0  0  0  0  0  0  0  0
   -5.9670   19.2700  -31.6800 C   0  0  0  0  0  0  0  0  0  0  0  0
   -5.7680   20.4860  -30.9230 N   0  0  0  0  0  0  0  0  0  0  0  0
   -6.7630   20.8620  -29.8850 C   0  0  0  0  0  0  0  0  0  0  0  0
   -6.5880   22.2940  -29.3510 C   0  0  0  0  0  0  0  0  0  0  0  0
   -5.1380   22.5270  -29.0920 C   0  0  0  0  0  0  0  0  0  0  0  0
   -4.1920   22.1080  -29.9740 C   0  0  0  0  0  0  0  0  0  0  0  0
   -2.9830   22.5550  -29.4580 C   0  0  0  0  0  0  0  0  0  0  0  0
   -1.6230   22.3210  -29.9840 C   0  0  0  0  0  0  0  0  0  0  0  0
   -1.3120   22.5340  -31.3370 C   0  0  0  0  0  0  0  0  0  0  0  0
   -0.0200   22.2950  -31.8120 C   0  0  0  0  0  0  0  0  0  0  0  0
    0.9760   21.8550  -30.9410 C   0  0  0  0  0  0  0  0  0  0  0  0
    0.6850   21.6620  -29.5890 C   0  0  0  0  0  0  0  0  0  0  0  0
   -0.6050   21.8970  -29.1100 C   0  0  0  0  0  0  0  0  0  0  0  0
   -3.2280   23.2000  -28.2950 N   0  0  0  0  0  0  0  0  0  0  0  0
   -4.5380   23.1820  -28.0780 N   0  0  0  0  0  0  0  0  0  0  0  0
   -5.1290   23.6870  -26.8720 C   0  0  0  0  0  0  0  0  0  0  0  0
   -5.3630   22.8210  -25.7960 C   0  0  0  0  0  0  0  0  0  0  0  0
   -6.0350   23.2730  -24.6580 C   0  0  0  0  0  0  0  0  0  0  0  0
   -6.4860   24.5960  -24.5850 C   0  0  0  0  0  0  0  0  0  0  0  0
   -7.3960   25.1580  -23.1860 S   0  0  0  0  0  0  0  0  0  0  0  0
   -8.8920   24.2950  -23.0870 N   0  0  0  0  0  0  0  0  0  0  0  0
   -6.6090   24.9270  -21.9260 O   0  0  0  0  0  0  0  0  0  0  0  0
   -7.6720   26.6290  -23.3270 O   0  0  0  0  0  0  0  0  0  0  0  0
   -6.2710   25.4610  -25.6660 C   0  0  0  0  0  0  0  0  0  0  0  0
   -5.6030   25.0070  -26.8060 C   0  0  0  0  0  0  0  0  0  0  0  0
   -4.5300   21.2680  -31.1630 C   0  0  0  0  0  0  0  0  0  0  0  0
   -6.9410   19.2100  -32.6940 C   0  0  0  0  0  0  0  0  0  0  0  0
   -7.0660   18.0730  -33.4970 C   0  0  0  0  0  0  0  0  0  0  0  0
   -7.3290   15.4380  -35.0080 C   0  0  0  0  0  0  0  0  0  0  0  0
   -8.5150   15.8150  -34.8230 O   0  0  0  0  0  0  0  0  0  0  0  0
   -2.7660   13.6490  -37.6260 C   0  0  0  0  0  0  0  0  0  0  0  0
   -1.4310   13.2380  -37.6990 C   0  0  0  0  0  0  0  0  0  0  0  0
   -1.4455   10.8636  -35.2420 H   0  0  0  0  0  0  0  0  0  0  0  0
   -3.8247   11.5872  -35.1093 H   0  0  0  0  0  0  0  0  0  0  0  0
   -9.3748   13.3570  -35.0254 H   0  0  0  0  0  0  0  0  0  0  0  0
  -11.5587   12.2329  -35.4893 H   0  0  0  0  0  0  0  0  0  0  0  0
  -11.9132   11.0478  -37.6658 H   0  0  0  0  0  0  0  0  0  0  0  0
  -10.0586   10.9949  -39.3443 H   0  0  0  0  0  0  0  0  0  0  0  0
   -4.4643   14.6705  -34.1267 H   0  0  0  0  0  0  0  0  0  0  0  0
   -4.2396   16.1152  -35.0838 H   0  0  0  0  0  0  0  0  0  0  0  0
   -4.5883   16.1583  -32.1248 H   0  0  0  0  0  0  0  0  0  0  0  0
   -4.4076   18.1549  -30.6520 H   0  0  0  0  0  0  0  0  0  0  0  0
   -7.7693   20.7743  -30.3205 H   0  0  0  0  0  0  0  0  0  0  0  0
   -6.6132   20.1810  -29.0343 H   0  0  0  0  0  0  0  0  0  0  0  0
   -6.9526   23.0156  -30.0969 H   0  0  0  0  0  0  0  0  0  0  0  0
   -7.1629   22.4234  -28.4222 H   0  0  0  0  0  0  0  0  0  0  0  0
   -2.0906   22.8913  -32.0270 H   0  0  0  0  0  0  0  0  0  0  0  0
    0.2120   22.4543  -32.8754 H   0  0  0  0  0  0  0  0  0  0  0  0
    1.9905   21.6600  -31.3188 H   0  0  0  0  0  0  0  0  0  0  0  0
    1.4735   21.3243  -28.9003 H   0  0  0  0  0  0  0  0  0  0  0  0
   -0.8270   21.7498  -28.0427 H   0  0  0  0  0  0  0  0  0  0  0  0
   -5.0154   21.7786  -25.8476 H   0  0  0  0  0  0  0  0  0  0  0  0
   -6.2104   22.5869  -23.8163 H   0  0  0  0  0  0  0  0  0  0  0  0
   -9.4840   24.6220  -23.8830 H   0  0  0  0  0  0  0  0  0  0  0  0
   -9.3730   24.6090  -22.2170 H   0  0  0  0  0  0  0  0  0  0  0  0
   -6.6290   26.5000  -25.6170 H   0  0  0  0  0  0  0  0  0  0  0  0
   -5.4476   25.6873  -27.6563 H   0  0  0  0  0  0  0  0  0  0  0  0
   -4.6800   21.9216  -32.0350 H   0  0  0  0  0  0  0  0  0  0  0  0
   -3.7016   20.5679  -31.3462 H   0  0  0  0  0  0  0  0  0  0  0  0
   -7.6111   20.0671  -32.8563 H   0  0  0  0  0  0  0  0  0  0  0  0
   -7.8399   18.0359  -34.2778 H   0  0  0  0  0  0  0  0  0  0  0  0
   -3.1297   14.4453  -38.2920 H   0  0  0  0  0  0  0  0  0  0  0  0
   -0.7518   13.7076  -38.4257 H   0  0  0  0  0  0  0  0  0  0  0  0
  1  2  3  0
  2  3  1  0
  3  4  2  0
  4  5  1  0
  5  6  2  0
  6  7  1  0
  7  8  1  0
  8  9  2  0
  9 10  1  0
 10 11  2  0
 11 12  1  0
 12 13  2  0
 13 14  1  0
 14 15  2  0
  9 16  1  0
 16 17  2  0
 17 18  1  0
 18 19  1  0
 19 20  1  0
 20 21  2  0
 21 22  1  0
 22 23  2  0
 23 24  1  0
 24 25  1  0
 25 26  1  0
 26 27  1  0
 27 28  2  0
 28 29  1  0
 29 30  1  0
 30 31  2  0
 31 32  1  0
 32 33  2  0
 33 34  1  0
 34 35  2  0
 29 36  2  0
 36 37  1  0
 37 38  1  0
 38 39  2  0
 39 40  1  0
 40 41  2  0
 41 42  1  0
 42 43  1  0
 42 44  2  0
 42 45  2  0
 41 46  1  0
 46 47  2  0
 28 48  1  0
 23 49  1  0
 49 50  2  0
 19 51  1  0
 51 52  2  0
  6 53  1  0
 53 54  2  0
 54  3  1  0
 17  7  1  0
 50 20  1  0
 15 10  1  0
 51 16  1  0
 48 24  1  0
 37 27  1  0
 47 38  1  0
 35 30  1  0
  4 55  1  0
  5 56  1  0
 11 57  1  0
 12 58  1  0
 13 59  1  0
 14 60  1  0
 18 61  1  0
 18 62  1  0
 21 63  1  0
 22 64  1  0
 25 65  1  0
 25 66  1  0
 26 67  1  0
 26 68  1  0
 31 69  1  0
 32 70  1  0
 33 71  1  0
 34 72  1  0
 35 73  1  0
 39 74  1  0
 40 75  1  0
 43 76  1  0
 43 77  1  0
 46 78  1  0
 47 79  1  0
 48 80  1  0
 48 81  1  0
 49 82  1  0
 50 83  1  0
 53 84  1  0
 54 85  1  0
M  END
>  <UniqueID>  (35) 
34

>  <SMILES>  (35) 
N#Cc1ccc(-n2nc(-c3ccccn3)c3c2CN(c2ccc(N4CCc5c(c(-c6ccccc6)nn5-c5ccc(S(N)(=O)=O)cc5)C4)cc2)C3=O)cc1

>  <Energy>  (35) 
233.53996687551097

>  <Genealogy>  (35) 
N#Cc1ccc(-n2nc(-c3ccccn3)c3c2CN(c2ccc(N4CCc5c(c(-c6ccccc6)nn5-c5ccc(S(N)(=O)=O)cc5)C4)cc2)C3=O)cc1 (3D coordinates assigned)
N#Cc1ccc(-n2nc(-c3ccccn3)c3c2CN(c2ccc(N4CCc5c(c(-c6ccccc6)nn5-c5ccc(S(N)(=O)=O)cc5)C4)cc2)C3=O)cc1 (nonaromatic ring conformer: 233.53996687551097 kcal/mol)

>  <smiles>  (35) 
N#Cc1ccc(-n2nc(-c3ccccn3)c3c2CN(c2ccc(N4CCc5c(c(-c6ccccc6)nn5-c5ccc(S(N)(=O)=O)cc5)C4)cc2)C3=O)cc1

>  <score_type>  (35) 
oracle

>  <origin>  (35) 
adgpu

>  <m_score__min__energy>  (35) 
-6.3899999999999997

>  <m_primary>  (35) 
energy

$$$$
35:0
     RDKit          3D

 28 30  0  0  0  0  0  0  0  0999 V2000
   -3.1000   25.6750  -29.8350 H   0  0  0  0  0  0  0  0  0  0  0  0
   -3.4010   24.8180  -30.3530 N   0  0  0  0  0  0  0  0  0  0  0  0
   -4.6490   24.4970  -30.4830 C   0  0  0  0  0  0  0  0  0  0  0  0
   -4.9810   23.3710  -31.1680 N   0  0  0  0  0  0  0  0  0  0  0  0
   -6.2770   22.9890  -31.3200 C   0  0  0  0  0  0  0  0  0  0  0  0
   -6.5780   21.8070  -32.0760 N   0  0  0  0  0  0  0  0  0  0  0  0
   -7.8160   21.4110  -32.3600 N   0  0  0  0  0  0  0  0  0  0  0  0
   -7.8090   20.2910  -33.0810 N   0  0  0  0  0  0  0  0  0  0  0  0
   -6.5130   19.9820  -33.2600 C   0  0  0  0  0  0  0  0  0  0  0  0
   -5.9650   18.9300  -33.9830 C   0  0  0  0  0  0  0  0  0  0  0  0
   -6.6046   18.1754  -34.4642 H   0  0  0  0  0  0  0  0  0  0  0  0
   -4.5620   18.8640  -34.0780 C   0  0  0  0  0  0  0  0  0  0  0  0
   -4.0911   18.0361  -34.6284 H   0  0  0  0  0  0  0  0  0  0  0  0
   -3.7460   19.8610  -33.4670 C   0  0  0  0  0  0  0  0  0  0  0  0
   -2.3460   19.8400  -33.5580 O   0  0  0  0  0  0  0  0  0  0  0  0
   -1.5430   20.9800  -33.8470 C   0  0  0  0  0  0  0  0  0  0  0  0
   -1.2150   21.4456  -32.9059 H   0  0  0  0  0  0  0  0  0  0  0  0
   -0.6626   20.6703  -34.4292 H   0  0  0  0  0  0  0  0  0  0  0  0
   -2.1311   21.7047  -34.4292 H   0  0  0  0  0  0  0  0  0  0  0  0
   -4.3490   20.9120  -32.7460 C   0  0  0  0  0  0  0  0  0  0  0  0
   -3.7419   21.7001  -32.2767 H   0  0  0  0  0  0  0  0  0  0  0  0
   -5.7420   20.9200  -32.6470 C   0  0  0  0  0  0  0  0  0  0  0  0
   -7.2940   23.7930  -30.7920 C   0  0  0  0  0  0  0  0  0  0  0  0
   -8.3514   23.5219  -30.9276 H   0  0  0  0  0  0  0  0  0  0  0  0
   -6.9390   24.9440  -30.0910 C   0  0  0  0  0  0  0  0  0  0  0  0
   -7.7204   25.5859  -29.6582 H   0  0  0  0  0  0  0  0  0  0  0  0
   -5.6300   25.2750  -29.9410 N   0  0  0  0  0  0  0  0  0  0  0  0
   -5.3860   26.1440  -29.4130 H   0  0  0  0  0  0  0  0  0  0  0  0
  1  2  1  0
  2  3  2  0
  3  4  1  0
  4  5  2  0
  5  6  1  0
  6  7  1  0
  7  8  2  0
  8  9  1  0
  9 10  2  0
 10 11  1  0
 10 12  1  0
 12 13  1  0
 12 14  2  0
 14 15  1  0
 15 16  1  0
 16 17  1  0
 16 18  1  0
 16 19  1  0
 14 20  1  0
 20 21  1  0
 20 22  2  0
  5 23  1  0
 23 24  1  0
 23 25  2  0
 25 26  1  0
 25 27  1  0
 27 28  1  0
 27  3  1  0
 22  6  1  0
 22  9  1  0
M  END
>  <UniqueID>  (36) 
35

>  <SMILES>  (36) 
[H]/N=c1/nc(-n2nnc3ccc(OC)cc32)cc[nH]1

>  <Energy>  (36) 
79.71068435200696

>  <Genealogy>  (36) 
[H]/N=c1/nc(-n2nnc3ccc(OC)cc32)cc[nH]1 (cis-trans isomerization)
[H]/N=c1/nc(-n2nnc3ccc(OC)cc32)cc[nH]1 (3D coordinates assigned)
[H]/N=c1/nc(-n2nnc3ccc(OC)cc32)cc[nH]1 (optimized conformer: 79.71068435200696 kcal/mol)

>  <smiles>  (36) 
COc1ccc2nnn(-c3cc[nH]c(=N)n3)c2c1

>  <score_type>  (36) 
oracle

>  <origin>  (36) 
adgpu

>  <m_score__min__energy>  (36) 
-7.25

>  <m_primary>  (36) 
energy

$$$$
36:0
     RDKit          3D

 38 40  0  0  0  0  0  0  0  0999 V2000
   -0.1689   23.6720  -23.6712 H   0  0  0  0  0  0  0  0  0  0  0  0
   -0.5070   23.9620  -24.6770 C   0  0  0  0  0  0  0  0  0  0  0  0
   -0.9680   25.2600  -24.9110 C   0  0  0  0  0  0  0  0  0  0  0  0
   -0.9920   25.9913  -24.0896 H   0  0  0  0  0  0  0  0  0  0  0  0
   -1.3990   25.6300  -26.1890 C   0  0  0  0  0  0  0  0  0  0  0  0
   -1.7662   26.6512  -26.3689 H   0  0  0  0  0  0  0  0  0  0  0  0
   -1.3650   24.7030  -27.2440 C   0  0  0  0  0  0  0  0  0  0  0  0
   -1.8500   25.1010  -28.6110 C   0  0  0  0  0  0  0  0  0  0  0  0
   -1.0844   25.7208  -29.1005 H   0  0  0  0  0  0  0  0  0  0  0  0
   -2.7864   25.6684  -28.5050 H   0  0  0  0  0  0  0  0  0  0  0  0
   -2.1050   23.9160  -29.4290 N   0  0  0  0  0  0  0  0  0  0  0  0
   -3.0990   23.8000  -30.2580 C   0  0  0  0  0  0  0  0  0  0  0  0
   -4.0350   24.7490  -30.4690 N   0  0  0  0  0  0  0  0  0  0  0  0
   -4.8530   24.2670  -31.3630 O   0  0  0  0  0  0  0  0  0  0  0  0
   -4.4900   23.0590  -31.7320 C   0  0  0  0  0  0  0  0  0  0  0  0
   -5.1760   22.2630  -32.7060 N   0  0  0  0  0  0  0  0  0  0  0  0
   -4.9990   22.4480  -33.7190 H   0  0  0  0  0  0  0  0  0  0  0  0
   -6.2600   21.3980  -32.3400 C   0  0  0  0  0  0  0  0  0  0  0  0
   -6.1260   19.9980  -32.4510 C   0  0  0  0  0  0  0  0  0  0  0  0
   -4.6620   19.2630  -33.0920 Cl  0  0  0  0  0  0  0  0  0  0  0  0
   -7.1920   19.1630  -32.1010 C   0  0  0  0  0  0  0  0  0  0  0  0
   -7.0815   18.0714  -32.1804 H   0  0  0  0  0  0  0  0  0  0  0  0
   -8.3940   19.7080  -31.6520 C   0  0  0  0  0  0  0  0  0  0  0  0
   -9.2264   19.0453  -31.3727 H   0  0  0  0  0  0  0  0  0  0  0  0
   -8.5440   21.0920  -31.5560 C   0  0  0  0  0  0  0  0  0  0  0  0
   -9.4999   21.5156  -31.2143 H   0  0  0  0  0  0  0  0  0  0  0  0
   -7.4820   21.9480  -31.8930 C   0  0  0  0  0  0  0  0  0  0  0  0
   -7.6630   23.4370  -31.7850 C   0  0  0  0  0  0  0  0  0  0  0  0
   -7.6981   23.7261  -30.7243 H   0  0  0  0  0  0  0  0  0  0  0  0
   -6.8200   23.9454  -32.2759 H   0  0  0  0  0  0  0  0  0  0  0  0
   -8.6032   23.7286  -32.2759 H   0  0  0  0  0  0  0  0  0  0  0  0
   -3.3510   22.7010  -31.0460 C   0  0  0  0  0  0  0  0  0  0  0  0
   -2.6030   21.4750  -31.1350 C   0  0  0  0  0  0  0  0  0  0  0  0
   -2.0010   20.4890  -31.2070 N   0  0  0  0  0  0  0  0  0  0  0  0
   -0.9040   23.3990  -26.9990 C   0  0  0  0  0  0  0  0  0  0  0  0
   -0.8802   22.6636  -27.8167 H   0  0  0  0  0  0  0  0  0  0  0  0
   -0.4750   23.0320  -25.7190 C   0  0  0  0  0  0  0  0  0  0  0  0
   -0.1122   22.0104  -25.5329 H   0  0  0  0  0  0  0  0  0  0  0  0
  1  2  1  0
  2  3  2  0
  3  4  1  0
  3  5  1  0
  5  6  1  0
  5  7  2  0
  7  8  1  0
  8  9  1  0
  8 10  1  0
  8 11  1  0
 11 12  2  0
 12 13  1  0
 13 14  1  0
 14 15  1  0
 15 16  1  0
 16 17  1  0
 16 18  1  0
 18 19  2  0
 19 20  1  0
 19 21  1  0
 21 22  1  0
 21 23  2  0
 23 24  1  0
 23 25  1  0
 25 26  1  0
 25 27  2  0
 27 28  1  0
 28 29  1  0
 28 30  1  0
 28 31  1  0
 15 32  2  0
 32 33  1  0
 33 34  3  0
  7 35  1  0
 35 36  1  0
 35 37  2  0
 37 38  1  0
 37  2  1  0
 32 12  1  0
 27 18  1  0
M  CHG  1  13  -1
M  END
>  <UniqueID>  (37) 
36

>  <SMILES>  (37) 
Cc1cccc(Cl)c1Nc1o[n-]/c(=N\Cc2ccccc2)c1C#N

>  <Energy>  (37) 
77.8846930923041

>  <Genealogy>  (37) 
Cc1cccc(Cl)c1Nc1o[n-]c(=NCc2ccccc2)c1C#N (protonated)
Cc1cccc(Cl)c1Nc1o[n-]/c(=N\Cc2ccccc2)c1C#N (cis-trans isomerization)
Cc1cccc(Cl)c1Nc1o[n-]/c(=N\Cc2ccccc2)c1C#N (3D coordinates assigned)
Cc1cccc(Cl)c1Nc1o[n-]/c(=N\Cc2ccccc2)c1C#N (optimized conformer: 77.8846930923041 kcal/mol)

>  <smiles>  (37) 
Cc1cccc(Cl)c1Nc1o[nH]c(=NCc2ccccc2)c1C#N

>  <score_type>  (37) 
oracle

>  <origin>  (37) 
adgpu

>  <m_score__min__energy>  (37) 
-10.369999999999999

>  <m_primary>  (37) 
energy

$$$$
37:0
     RDKit          3D

 45 48  0  0  0  0  0  0  0  0999 V2000
   -1.6550   26.0060  -25.4670 C   0  0  0  0  0  0  0  0  0  0  0  0
   -2.3190   25.3590  -26.6470 C   0  0  0  0  0  0  0  0  0  0  0  0
   -1.6110   25.1780  -27.8450 C   0  0  0  0  0  0  0  0  0  0  0  0
   -2.2160   24.5420  -28.9330 C   0  0  0  0  0  0  0  0  0  0  0  0
   -3.5350   24.0660  -28.8350 C   0  0  0  0  0  0  0  0  0  0  0  0
   -4.1800   23.3930  -29.9800 C   0  0  0  0  0  0  0  0  0  0  0  0
   -3.5410   23.0950  -31.1340 N   0  0  0  0  0  0  0  0  0  0  0  0
   -4.4900   22.5000  -31.8820 C   0  0  0  0  0  0  0  0  0  0  0  0
   -4.2190   21.9400  -33.2480 C   0  0  0  0  0  0  0  0  0  0  0  0
   -4.5060   20.5090  -33.2950 N   0  0  0  0  0  0  0  0  0  0  0  0
   -3.8090   19.5190  -32.7110 C   0  0  0  0  0  0  0  0  0  0  0  0
   -4.4080   18.3270  -32.8960 N   0  0  0  0  0  0  0  0  0  0  0  0
   -5.5050   18.6610  -33.6120 C   0  0  0  0  0  0  0  0  0  0  0  0
   -5.5820   19.9840  -33.8510 N   0  0  0  0  0  0  0  0  0  0  0  0
   -5.6680   22.4710  -31.1550 C   0  0  0  0  0  0  0  0  0  0  0  0
   -6.9440   21.9330  -31.5450 N   0  0  0  0  0  0  0  0  0  0  0  0
   -8.0350   22.8260  -31.9630 C   0  0  0  0  0  0  0  0  0  0  0  0
   -9.4050   22.2090  -31.6580 C   0  0  0  0  0  0  0  0  0  0  0  0
   -9.5540   20.8080  -32.2750 C   0  0  0  0  0  0  0  0  0  0  0  0
   -8.2550   19.9750  -32.2480 C   0  0  0  0  0  0  0  0  0  0  0  0
   -7.2240   20.5210  -31.2560 C   0  0  0  0  0  0  0  0  0  0  0  0
   -5.4400   23.0190  -29.9880 O   0  0  0  0  0  0  0  0  0  0  0  0
   -4.2350   24.2330  -27.6280 C   0  0  0  0  0  0  0  0  0  0  0  0
   -3.6290   24.8690  -26.5410 C   0  0  0  0  0  0  0  0  0  0  0  0
   -2.0768   25.5950  -24.5380 H   0  0  0  0  0  0  0  0  0  0  0  0
   -0.5739   25.8054  -25.4990 H   0  0  0  0  0  0  0  0  0  0  0  0
   -1.8275   27.0919  -25.4990 H   0  0  0  0  0  0  0  0  0  0  0  0
   -0.5750   25.5383  -27.9284 H   0  0  0  0  0  0  0  0  0  0  0  0
   -1.6566   24.4133  -29.8713 H   0  0  0  0  0  0  0  0  0  0  0  0
   -4.8542   22.4583  -33.9814 H   0  0  0  0  0  0  0  0  0  0  0  0
   -3.1552   22.0913  -33.4833 H   0  0  0  0  0  0  0  0  0  0  0  0
   -2.8713   19.6636  -32.1544 H   0  0  0  0  0  0  0  0  0  0  0  0
   -6.2520   17.9327  -33.9607 H   0  0  0  0  0  0  0  0  0  0  0  0
   -7.9436   23.7806  -31.4242 H   0  0  0  0  0  0  0  0  0  0  0  0
   -7.9585   22.9843  -33.0489 H   0  0  0  0  0  0  0  0  0  0  0  0
   -9.5252   22.1317  -30.5673 H   0  0  0  0  0  0  0  0  0  0  0  0
  -10.1765   22.8585  -32.0973 H   0  0  0  0  0  0  0  0  0  0  0  0
  -10.3276   20.2626  -31.7146 H   0  0  0  0  0  0  0  0  0  0  0  0
   -9.8220   20.9501  -33.3324 H   0  0  0  0  0  0  0  0  0  0  0  0
   -8.5049   18.9423  -31.9633 H   0  0  0  0  0  0  0  0  0  0  0  0
   -7.8083   20.0231  -33.2520 H   0  0  0  0  0  0  0  0  0  0  0  0
   -7.6195   20.4304  -30.2335 H   0  0  0  0  0  0  0  0  0  0  0  0
   -6.2929   19.9429  -31.3499 H   0  0  0  0  0  0  0  0  0  0  0  0
   -5.2662   23.8609  -27.5382 H   0  0  0  0  0  0  0  0  0  0  0  0
   -4.1822   24.9859  -25.5975 H   0  0  0  0  0  0  0  0  0  0  0  0
  1  2  1  0
  2  3  2  0
  3  4  1  0
  4  5  2  0
  5  6  1  0
  6  7  2  0
  7  8  1  0
  8  9  1  0
  9 10  1  0
 10 11  1  0
 11 12  2  0
 12 13  1  0
 13 14  2  0
  8 15  2  0
 15 16  1  0
 16 17  1  0
 17 18  1  0
 18 19  1  0
 19 20  1  0
 20 21  1  0
 15 22  1  0
  5 23  1  0
 23 24  2  0
 24  2  1  0
 22  6  1  0
 14 10  1  0
 21 16  1  0
  1 25  1  0
  1 26  1  0
  1 27  1  0
  3 28  1  0
  4 29  1  0
  9 30  1  0
  9 31  1  0
 11 32  1  0
 13 33  1  0
 17 34  1  0
 17 35  1  0
 18 36  1  0
 18 37  1  0
 19 38  1  0
 19 39  1  0
 20 40  1  0
 20 41  1  0
 21 42  1  0
 21 43  1  0
 23 44  1  0
 24 45  1  0
M  END
>  <UniqueID>  (38) 
37

>  <SMILES>  (38) 
Cc1ccc(-c2nc(Cn3cncn3)c(N3CCCCC3)o2)cc1

>  <Energy>  (38) 
111.82049027798794

>  <Genealogy>  (38) 
Cc1ccc(-c2nc(Cn3cncn3)c(N3CCCCC3)o2)cc1 (3D coordinates assigned)
Cc1ccc(-c2nc(Cn3cncn3)c(N3CCCCC3)o2)cc1 (nonaromatic ring conformer: 111.82049027798794 kcal/mol)

>  <smiles>  (38) 
Cc1ccc(-c2nc(Cn3cncn3)c(N3CCCCC3)o2)cc1

>  <score_type>  (38) 
oracle

>  <origin>  (38) 
adgpu

>  <m_score__min__energy>  (38) 
-7.3200000000000003

>  <m_primary>  (38) 
energy

$$$$
38:0
     RDKit          3D

 32 33  0  0  0  0  0  0  0  0999 V2000
   -6.4480   25.0360  -29.9820 C   0  0  0  0  0  0  0  0  0  0  0  0
   -5.6540   23.9580  -30.6800 C   0  0  0  0  0  0  0  0  0  0  0  0
   -6.3230   22.9680  -31.4360 C   0  0  0  0  0  0  0  0  0  0  0  0
   -8.0720   22.9840  -31.6430 Cl  0  0  0  0  0  0  0  0  0  0  0  0
   -5.5970   21.9400  -32.0450 C   0  0  0  0  0  0  0  0  0  0  0  0
   -4.2100   21.8840  -31.9170 C   0  0  0  0  0  0  0  0  0  0  0  0
   -3.5350   22.8690  -31.1970 C   0  0  0  0  0  0  0  0  0  0  0  0
   -4.2400   23.9210  -30.5990 C   0  0  0  0  0  0  0  0  0  0  0  0
   -3.4970   24.9270  -29.8970 N   0  0  0  0  0  0  0  0  0  0  0  0
   -2.2370   24.6450  -29.2690 C   0  0  0  0  0  0  0  0  0  0  0  0
   -1.6400   23.5620  -29.5040 O   0  0  0  0  0  0  0  0  0  0  0  0
   -1.6130   25.6060  -28.4090 N   0  0  0  0  0  0  0  0  0  0  0  0
   -1.2170   25.3810  -27.0500 C   0  0  0  0  0  0  0  0  0  0  0  0
   -0.6810   24.1370  -26.6970 C   0  0  0  0  0  0  0  0  0  0  0  0
   -0.3110   23.8770  -25.3740 C   0  0  0  0  0  0  0  0  0  0  0  0
   -0.4910   24.8540  -24.3910 C   0  0  0  0  0  0  0  0  0  0  0  0
   -1.0530   26.0940  -24.7250 C   0  0  0  0  0  0  0  0  0  0  0  0
   -1.2550   27.0870  -23.7160 N   0  0  0  0  0  0  0  0  0  0  0  0
   -1.4240   26.3520  -26.0520 C   0  0  0  0  0  0  0  0  0  0  0  0
   -6.3565   24.9118  -28.8929 H   0  0  0  0  0  0  0  0  0  0  0  0
   -6.0598   26.0234  -30.2723 H   0  0  0  0  0  0  0  0  0  0  0  0
   -7.5061   24.9582  -30.2723 H   0  0  0  0  0  0  0  0  0  0  0  0
   -6.1235   21.1706  -32.6288 H   0  0  0  0  0  0  0  0  0  0  0  0
   -3.6477   21.0622  -32.3843 H   0  0  0  0  0  0  0  0  0  0  0  0
   -2.4406   22.8194  -31.0980 H   0  0  0  0  0  0  0  0  0  0  0  0
   -3.9660   25.8430  -29.7240 H   0  0  0  0  0  0  0  0  0  0  0  0
   -0.5502   23.3599  -27.4645 H   0  0  0  0  0  0  0  0  0  0  0  0
    0.1224   22.9020  -25.1064 H   0  0  0  0  0  0  0  0  0  0  0  0
   -0.1909   24.6494  -23.3527 H   0  0  0  0  0  0  0  0  0  0  0  0
   -2.1750   27.1750  -23.2290 H   0  0  0  0  0  0  0  0  0  0  0  0
   -0.4870   27.7430  -23.4500 H   0  0  0  0  0  0  0  0  0  0  0  0
   -1.8793   27.3183  -26.3148 H   0  0  0  0  0  0  0  0  0  0  0  0
  1  2  1  0
  2  3  2  0
  3  4  1  0
  3  5  1  0
  5  6  2  0
  6  7  1  0
  7  8  2  0
  8  9  1  0
  9 10  1  0
 10 11  2  0
 10 12  1  0
 12 13  1  0
 13 14  2  0
 14 15  1  0
 15 16  2  0
 16 17  1  0
 17 18  1  0
 17 19  2  0
  8  2  1  0
 19 13  1  0
  1 20  1  0
  1 21  1  0
  1 22  1  0
  5 23  1  0
  6 24  1  0
  7 25  1  0
  9 26  1  0
 14 27  1  0
 15 28  1  0
 16 29  1  0
 18 30  1  0
 18 31  1  0
 19 32  1  0
M  CHG  1  12  -1
M  END
>  <UniqueID>  (39) 
38

>  <SMILES>  (39) 
Cc1c(Cl)cccc1NC(=O)[N-]c1cccc(N)c1

>  <Energy>  (39) 
43.45770695771729

>  <Genealogy>  (39) 
Cc1c(Cl)cccc1NC(=O)[N-]c1cccc(N)c1 (protonated)
Cc1c(Cl)cccc1NC(=O)[N-]c1cccc(N)c1 (3D coordinates assigned)
Cc1c(Cl)cccc1NC(=O)[N-]c1cccc(N)c1 (optimized conformer: 43.45770695771729 kcal/mol)

>  <smiles>  (39) 
Cc1c(Cl)cccc1NC(=O)Nc1cccc(N)c1

>  <score_type>  (39) 
oracle

>  <origin>  (39) 
adgpu

>  <m_score__min__energy>  (39) 
-8.7300000000000004

>  <m_primary>  (39) 
energy

$$$$
39:0
     RDKit          3D

 57 61  0  0  0  0  0  0  0  0999 V2000
   -1.7360   20.0820  -31.2660 C   0  0  0  0  0  0  0  0  0  0  0  0
   -1.5000   21.2750  -30.4040 C   0  0  0  0  0  0  0  0  0  0  0  0
   -1.9210   22.5630  -30.6750 C   0  0  0  0  0  0  0  0  0  0  0  0
   -1.5480   23.2880  -29.5590 C   0  0  0  0  0  0  0  0  0  0  0  0
   -1.8350   24.7240  -29.3380 C   0  0  0  0  0  0  0  0  0  0  0  0
   -0.8860   25.5420  -29.2040 O   0  0  0  0  0  0  0  0  0  0  0  0
   -3.1740   25.2330  -29.3540 N   0  0  0  0  0  0  0  0  0  0  0  0
   -4.3410   24.5160  -29.7810 C   0  0  0  0  0  0  0  0  0  0  0  0
   -5.0310   24.8650  -30.9560 C   0  0  0  0  0  0  0  0  0  0  0  0
   -6.1490   24.1300  -31.3600 C   0  0  0  0  0  0  0  0  0  0  0  0
   -6.5810   23.0300  -30.6070 C   0  0  0  0  0  0  0  0  0  0  0  0
   -7.9770   22.0860  -31.1370 S   0  0  0  0  0  0  0  0  0  0  0  0
   -8.9940   22.0380  -30.0310 O   0  0  0  0  0  0  0  0  0  0  0  0
   -8.6080   22.7650  -32.3220 O   0  0  0  0  0  0  0  0  0  0  0  0
   -7.5180   20.4600  -31.5800 N   0  0  0  0  0  0  0  0  0  0  0  0
   -8.7200   19.6390  -31.7920 C   0  0  0  0  0  0  0  0  0  0  0  0
   -8.3180   18.1710  -31.9420 C   0  0  0  0  0  0  0  0  0  0  0  0
   -7.1780   18.0000  -32.9140 C   0  0  0  0  0  0  0  0  0  0  0  0
   -6.8760   16.7200  -33.4040 C   0  0  0  0  0  0  0  0  0  0  0  0
   -5.7960   16.5330  -34.2700 C   0  0  0  0  0  0  0  0  0  0  0  0
   -5.0040   17.6200  -34.6450 C   0  0  0  0  0  0  0  0  0  0  0  0
   -5.2860   18.8970  -34.1530 C   0  0  0  0  0  0  0  0  0  0  0  0
   -6.3600   19.0940  -33.2710 C   0  0  0  0  0  0  0  0  0  0  0  0
   -6.6960   20.4900  -32.8050 C   0  0  0  0  0  0  0  0  0  0  0  0
   -5.8820   22.6690  -29.4460 C   0  0  0  0  0  0  0  0  0  0  0  0
   -4.7640   23.4050  -29.0430 C   0  0  0  0  0  0  0  0  0  0  0  0
   -0.9350   22.4490  -28.6890 N   0  0  0  0  0  0  0  0  0  0  0  0
   -0.4340   22.7540  -27.3830 C   0  0  0  0  0  0  0  0  0  0  0  0
    0.5430   23.7470  -27.2220 C   0  0  0  0  0  0  0  0  0  0  0  0
    1.0120   24.0720  -25.9440 C   0  0  0  0  0  0  0  0  0  0  0  0
    0.4980   23.4140  -24.8230 C   0  0  0  0  0  0  0  0  0  0  0  0
   -0.4930   22.4390  -24.9760 C   0  0  0  0  0  0  0  0  0  0  0  0
   -0.9660   22.1140  -26.2520 C   0  0  0  0  0  0  0  0  0  0  0  0
   -0.9240   21.2220  -29.1880 N   0  0  0  0  0  0  0  0  0  0  0  0
   -1.9104   19.2002  -30.6319 H   0  0  0  0  0  0  0  0  0  0  0  0
   -2.6169   20.2570  -31.9011 H   0  0  0  0  0  0  0  0  0  0  0  0
   -0.8548   19.9084  -31.9011 H   0  0  0  0  0  0  0  0  0  0  0  0
   -2.4364   22.9286  -31.5754 H   0  0  0  0  0  0  0  0  0  0  0  0
   -4.6895   25.7193  -31.5590 H   0  0  0  0  0  0  0  0  0  0  0  0
   -6.6920   24.4162  -32.2728 H   0  0  0  0  0  0  0  0  0  0  0  0
   -9.3945   19.7477  -30.9299 H   0  0  0  0  0  0  0  0  0  0  0  0
   -9.2340   19.9724  -32.7056 H   0  0  0  0  0  0  0  0  0  0  0  0
   -8.0096   17.7840  -30.9596 H   0  0  0  0  0  0  0  0  0  0  0  0
   -9.1851   17.6166  -32.3304 H   0  0  0  0  0  0  0  0  0  0  0  0
   -7.4928   15.8598  -33.1046 H   0  0  0  0  0  0  0  0  0  0  0  0
   -5.5693   15.5285  -34.6568 H   0  0  0  0  0  0  0  0  0  0  0  0
   -4.1559   17.4707  -35.3295 H   0  0  0  0  0  0  0  0  0  0  0  0
   -4.6639   19.7513  -34.4581 H   0  0  0  0  0  0  0  0  0  0  0  0
   -5.7624   21.0335  -32.5975 H   0  0  0  0  0  0  0  0  0  0  0  0
   -7.2697   20.9932  -33.5973 H   0  0  0  0  0  0  0  0  0  0  0  0
   -6.2141   21.8052  -28.8515 H   0  0  0  0  0  0  0  0  0  0  0  0
   -4.2125   23.1085  -28.1386 H   0  0  0  0  0  0  0  0  0  0  0  0
    0.9419   24.2719  -28.1025 H   0  0  0  0  0  0  0  0  0  0  0  0
    1.7849   24.8451  -25.8218 H   0  0  0  0  0  0  0  0  0  0  0  0
    0.8733   23.6633  -23.8195 H   0  0  0  0  0  0  0  0  0  0  0  0
   -0.9010   21.9270  -24.0920 H   0  0  0  0  0  0  0  0  0  0  0  0
   -1.7551   21.3567  -26.3693 H   0  0  0  0  0  0  0  0  0  0  0  0
  1  2  1  0
  2  3  1  0
  3  4  2  0
  4  5  1  0
  5  6  2  0
  5  7  1  0
  7  8  1  0
  8  9  2  0
  9 10  1  0
 10 11  2  0
 11 12  1  0
 12 13  2  0
 12 14  2  0
 12 15  1  0
 15 16  1  0
 16 17  1  0
 17 18  1  0
 18 19  2  0
 19 20  1  0
 20 21  2  0
 21 22  1  0
 22 23  2  0
 23 24  1  0
 11 25  1  0
 25 26  2  0
  4 27  1  0
 27 28  1  0
 28 29  2  0
 29 30  1  0
 30 31  2  0
 31 32  1  0
 32 33  2  0
 27 34  1  0
 34  2  2  0
 26  8  1  0
 33 28  1  0
 24 15  1  0
 23 18  1  0
  1 35  1  0
  1 36  1  0
  1 37  1  0
  3 38  1  0
  9 39  1  0
 10 40  1  0
 16 41  1  0
 16 42  1  0
 17 43  1  0
 17 44  1  0
 19 45  1  0
 20 46  1  0
 21 47  1  0
 22 48  1  0
 24 49  1  0
 24 50  1  0
 25 51  1  0
 26 52  1  0
 29 53  1  0
 30 54  1  0
 31 55  1  0
 32 56  1  0
 33 57  1  0
M  CHG  1   7  -1
M  END
>  <UniqueID>  (40) 
39

>  <SMILES>  (40) 
Cc1cc(C(=O)[N-]c2ccc(S(=O)(=O)N3CCc4ccccc4C3)cc2)n(-c2ccccc2)n1

>  <Energy>  (40) 
105.42938247433234

>  <Genealogy>  (40) 
Cc1cc(C(=O)[N-]c2ccc(S(=O)(=O)N3CCc4ccccc4C3)cc2)n(-c2ccccc2)n1 (protonated)
Cc1cc(C(=O)[N-]c2ccc(S(=O)(=O)N3CCc4ccccc4C3)cc2)n(-c2ccccc2)n1 (3D coordinates assigned)
Cc1cc(C(=O)[N-]c2ccc(S(=O)(=O)N3CCc4ccccc4C3)cc2)n(-c2ccccc2)n1 (nonaromatic ring conformer: 105.42938247433234 kcal/mol)

>  <smiles>  (40) 
Cc1cc(C(=O)Nc2ccc(S(=O)(=O)N3CCc4ccccc4C3)cc2)n(-c2ccccc2)n1

>  <score_type>  (40) 
oracle

>  <origin>  (40) 
adgpu

>  <m_score__min__energy>  (40) 
-13.59

>  <m_primary>  (40) 
energy

$$$$
40:0
     RDKit          3D

 44 46  0  0  0  0  0  0  0  0999 V2000
   -3.4170   16.6210  -35.4380 C   0  0  0  0  0  0  0  0  0  0  0  0
   -4.5310   17.4970  -35.5730 O   0  0  0  0  0  0  0  0  0  0  0  0
   -5.3510   17.8470  -34.4970 C   0  0  0  0  0  0  0  0  0  0  0  0
   -6.4180   17.0180  -34.1470 C   0  0  0  0  0  0  0  0  0  0  0  0
   -7.2420   17.3750  -33.0810 C   0  0  0  0  0  0  0  0  0  0  0  0
   -6.9920   18.5510  -32.3700 C   0  0  0  0  0  0  0  0  0  0  0  0
   -5.8980   19.3630  -32.7320 C   0  0  0  0  0  0  0  0  0  0  0  0
   -5.5790   20.6250  -32.0080 C   0  0  0  0  0  0  0  0  0  0  0  0
   -6.5840   21.3950  -31.3880 C   0  0  0  0  0  0  0  0  0  0  0  0
   -6.2610   22.5770  -30.7170 C   0  0  0  0  0  0  0  0  0  0  0  0
   -4.9290   23.0000  -30.6330 C   0  0  0  0  0  0  0  0  0  0  0  0
   -4.5050   24.4760  -29.7710 S   0  0  0  0  0  0  0  0  0  0  0  0
   -3.5630   25.2800  -30.6230 O   0  0  0  0  0  0  0  0  0  0  0  0
   -5.7260   25.3090  -29.4940 O   0  0  0  0  0  0  0  0  0  0  0  0
   -3.7200   24.0830  -28.2750 N   0  0  0  0  0  0  0  0  0  0  0  0
   -2.9160   22.9170  -28.0290 C   0  0  0  0  0  0  0  0  0  0  0  0
   -3.4830   21.6280  -27.9860 C   0  0  0  0  0  0  0  0  0  0  0  0
   -2.6840   20.5090  -27.7360 C   0  0  0  0  0  0  0  0  0  0  0  0
   -1.3140   20.6630  -27.5150 C   0  0  0  0  0  0  0  0  0  0  0  0
   -0.7380   21.9330  -27.5530 C   0  0  0  0  0  0  0  0  0  0  0  0
   -1.5310   23.0640  -27.8130 C   0  0  0  0  0  0  0  0  0  0  0  0
   -0.7890   24.6680  -27.8210 S   0  0  0  0  0  0  0  0  0  0  0  0
   -1.6140   25.6690  -28.9620 N   0  0  0  0  0  0  0  0  0  0  0  0
    0.6600   24.5480  -28.2030 O   0  0  0  0  0  0  0  0  0  0  0  0
   -0.8800   25.2960  -26.4560 O   0  0  0  0  0  0  0  0  0  0  0  0
   -3.9220   22.2340  -31.2300 C   0  0  0  0  0  0  0  0  0  0  0  0
   -4.2420   21.0570  -31.9110 C   0  0  0  0  0  0  0  0  0  0  0  0
   -5.1220   18.9880  -33.7870 N   0  0  0  0  0  0  0  0  0  0  0  0
   -3.2074   16.4562  -34.3708 H   0  0  0  0  0  0  0  0  0  0  0  0
   -3.6466   15.6590  -35.9194 H   0  0  0  0  0  0  0  0  0  0  0  0
   -2.5362   17.0710  -35.9194 H   0  0  0  0  0  0  0  0  0  0  0  0
   -6.6070   16.0907  -34.7077 H   0  0  0  0  0  0  0  0  0  0  0  0
   -8.0884   16.7312  -32.7999 H   0  0  0  0  0  0  0  0  0  0  0  0
   -7.6443   18.8415  -31.5333 H   0  0  0  0  0  0  0  0  0  0  0  0
   -7.6315   21.0623  -31.4329 H   0  0  0  0  0  0  0  0  0  0  0  0
   -7.0567   23.1780  -30.2526 H   0  0  0  0  0  0  0  0  0  0  0  0
   -4.5632   21.5013  -28.1505 H   0  0  0  0  0  0  0  0  0  0  0  0
   -3.1349   19.5059  -27.7133 H   0  0  0  0  0  0  0  0  0  0  0  0
   -0.6881   19.7818  -27.3107 H   0  0  0  0  0  0  0  0  0  0  0  0
    0.3418   22.0498  -27.3787 H   0  0  0  0  0  0  0  0  0  0  0  0
   -2.6260   25.6580  -28.7050 H   0  0  0  0  0  0  0  0  0  0  0  0
   -1.5340   25.2000  -29.8930 H   0  0  0  0  0  0  0  0  0  0  0  0
   -2.8736   22.5600  -31.1629 H   0  0  0  0  0  0  0  0  0  0  0  0
   -3.4421   20.4619  -32.3759 H   0  0  0  0  0  0  0  0  0  0  0  0
  1  2  1  0
  2  3  1  0
  3  4  2  0
  4  5  1  0
  5  6  2  0
  6  7  1  0
  7  8  1  0
  8  9  2  0
  9 10  1  0
 10 11  2  0
 11 12  1  0
 12 13  2  0
 12 14  2  0
 12 15  1  0
 15 16  1  0
 16 17  2  0
 17 18  1  0
 18 19  2  0
 19 20  1  0
 20 21  2  0
 21 22  1  0
 22 23  1  0
 22 24  2  0
 22 25  2  0
 11 26  1  0
 26 27  2  0
  7 28  2  0
 28  3  1  0
 27  8  1  0
 21 16  1  0
  1 29  1  0
  1 30  1  0
  1 31  1  0
  4 32  1  0
  5 33  1  0
  6 34  1  0
  9 35  1  0
 10 36  1  0
 17 37  1  0
 18 38  1  0
 19 39  1  0
 20 40  1  0
 23 41  1  0
 23 42  1  0
 26 43  1  0
 27 44  1  0
M  CHG  1  15  -1
M  END
>  <UniqueID>  (41) 
40

>  <SMILES>  (41) 
COc1cccc(-c2ccc(S(=O)(=O)[N-]c3ccccc3S(N)(=O)=O)cc2)n1

>  <Energy>  (41) 
51.74221309533614

>  <Genealogy>  (41) 
COc1cccc(-c2ccc(S(=O)(=O)[N-]c3ccccc3S(N)(=O)=O)cc2)n1 (protonated)
COc1cccc(-c2ccc(S(=O)(=O)[N-]c3ccccc3S(N)(=O)=O)cc2)n1 (3D coordinates assigned)
COc1cccc(-c2ccc(S(=O)(=O)[N-]c3ccccc3S(N)(=O)=O)cc2)n1 (optimized conformer: 51.74221309533614 kcal/mol)

>  <smiles>  (41) 
COc1cccc(-c2ccc(S(=O)(=O)Nc3ccccc3S(N)(=O)=O)cc2)n1

>  <score_type>  (41) 
oracle

>  <origin>  (41) 
adgpu

>  <m_score__min__energy>  (41) 
-10.039999999999999

>  <m_primary>  (41) 
energy

$$$$
41:0
     RDKit          3D

 36 38  0  0  0  0  0  0  0  0999 V2000
   -1.8490   25.8610  -26.0440 C   0  0  0  0  0  0  0  0  0  0  0  0
   -3.2440   24.8990  -26.7060 S   0  0  0  0  0  0  0  0  0  0  0  0
   -2.1880   23.7800  -27.6350 C   0  0  0  0  0  0  0  0  0  0  0  0
   -1.4800   22.7810  -26.9520 C   0  0  0  0  0  0  0  0  0  0  0  0
   -0.6520   21.9010  -27.6550 C   0  0  0  0  0  0  0  0  0  0  0  0
   -0.5160   22.0240  -29.0390 C   0  0  0  0  0  0  0  0  0  0  0  0
   -1.2140   23.0210  -29.7250 C   0  0  0  0  0  0  0  0  0  0  0  0
   -2.0730   23.8890  -29.0320 C   0  0  0  0  0  0  0  0  0  0  0  0
   -2.7790   24.9220  -29.7300 N   0  0  0  0  0  0  0  0  0  0  0  0
   -4.1550   24.8570  -30.1250 C   0  0  0  0  0  0  0  0  0  0  0  0
   -4.5780   25.6630  -30.9940 O   0  0  0  0  0  0  0  0  0  0  0  0
   -5.1210   23.9040  -29.4740 C   0  0  0  0  0  0  0  0  0  0  0  0
   -5.7670   23.0500  -30.4680 N   0  0  0  0  0  0  0  0  0  0  0  0
   -5.1170   22.3630  -31.5420 C   0  0  0  0  0  0  0  0  0  0  0  0
   -3.9390   22.5930  -31.9210 O   0  0  0  0  0  0  0  0  0  0  0  0
   -6.0120   21.3630  -32.1120 C   0  0  0  0  0  0  0  0  0  0  0  0
   -5.8290   20.4770  -33.1720 C   0  0  0  0  0  0  0  0  0  0  0  0
   -6.8850   19.6050  -33.4920 C   0  0  0  0  0  0  0  0  0  0  0  0
   -8.0870   19.6330  -32.7520 C   0  0  0  0  0  0  0  0  0  0  0  0
   -8.2450   20.5360  -31.6850 C   0  0  0  0  0  0  0  0  0  0  0  0
   -7.1860   21.3930  -31.3910 C   0  0  0  0  0  0  0  0  0  0  0  0
   -7.0440   22.4120  -30.3580 C   0  0  0  0  0  0  0  0  0  0  0  0
   -7.8990   22.6790  -29.4720 O   0  0  0  0  0  0  0  0  0  0  0  0
   -1.8785   25.8406  -24.9446 H   0  0  0  0  0  0  0  0  0  0  0  0
   -0.9026   25.4226  -26.3936 H   0  0  0  0  0  0  0  0  0  0  0  0
   -1.9224   26.9014  -26.3936 H   0  0  0  0  0  0  0  0  0  0  0  0
   -1.5763   22.6894  -25.8601 H   0  0  0  0  0  0  0  0  0  0  0  0
   -0.1072   21.1110  -27.1173 H   0  0  0  0  0  0  0  0  0  0  0  0
    0.1414   21.3352  -29.5899 H   0  0  0  0  0  0  0  0  0  0  0  0
   -1.0901   23.1265  -30.8129 H   0  0  0  0  0  0  0  0  0  0  0  0
   -4.5751   23.2723  -28.7578 H   0  0  0  0  0  0  0  0  0  0  0  0
   -5.8968   24.4898  -28.9592 H   0  0  0  0  0  0  0  0  0  0  0  0
   -4.8877   20.4602  -33.7408 H   0  0  0  0  0  0  0  0  0  0  0  0
   -6.7736   18.8957  -34.3253 H   0  0  0  0  0  0  0  0  0  0  0  0
   -8.9048   18.9446  -33.0113 H   0  0  0  0  0  0  0  0  0  0  0  0
   -9.1763   20.5648  -31.1003 H   0  0  0  0  0  0  0  0  0  0  0  0
  1  2  1  0
  2  3  1  0
  3  4  2  0
  4  5  1  0
  5  6  2  0
  6  7  1  0
  7  8  2  0
  8  9  1  0
  9 10  1  0
 10 11  2  0
 10 12  1  0
 12 13  1  0
 13 14  1  0
 14 15  2  0
 14 16  1  0
 16 17  2  0
 17 18  1  0
 18 19  2  0
 19 20  1  0
 20 21  2  0
 21 22  1  0
 22 23  2  0
  8  3  1  0
 22 13  1  0
 21 16  1  0
  1 24  1  0
  1 25  1  0
  1 26  1  0
  4 27  1  0
  5 28  1  0
  6 29  1  0
  7 30  1  0
 12 31  1  0
 12 32  1  0
 17 33  1  0
 18 34  1  0
 19 35  1  0
 20 36  1  0
M  CHG  1   9  -1
M  END
>  <UniqueID>  (42) 
41

>  <SMILES>  (42) 
CSc1ccccc1[N-]C(=O)CN1C(=O)c2ccccc2C1=O

>  <Energy>  (42) 
70.24610841599878

>  <Genealogy>  (42) 
CSc1ccccc1[N-]C(=O)CN1C(=O)c2ccccc2C1=O (protonated)
CSc1ccccc1[N-]C(=O)CN1C(=O)c2ccccc2C1=O (3D coordinates assigned)
CSc1ccccc1[N-]C(=O)CN1C(=O)c2ccccc2C1=O (nonaromatic ring conformer: 70.24610841599878 kcal/mol)

>  <smiles>  (42) 
CSc1ccccc1NC(=O)CN1C(=O)c2ccccc2C1=O

>  <score_type>  (42) 
oracle

>  <origin>  (42) 
adgpu

>  <m_score__min__energy>  (42) 
-9.8800000000000008

>  <m_primary>  (42) 
energy

$$$$
42:0
     RDKit          3D

 43 45  0  0  0  0  0  0  0  0999 V2000
   -0.3050   15.6340  -33.1080 C   0  0  0  0  0  0  0  0  0  0  0  0
   -1.6280   15.3800  -33.6690 N   0  0  0  0  0  0  0  0  0  0  0  0
   -2.6440   14.6110  -32.9920 C   0  0  0  0  0  0  0  0  0  0  0  0
   -2.2850   13.6600  -32.0130 C   0  0  0  0  0  0  0  0  0  0  0  0
   -3.2620   12.9650  -31.3000 C   0  0  0  0  0  0  0  0  0  0  0  0
   -4.6120   13.2010  -31.5490 C   0  0  0  0  0  0  0  0  0  0  0  0
   -4.9900   14.1270  -32.5210 C   0  0  0  0  0  0  0  0  0  0  0  0
   -4.0220   14.8340  -33.2540 C   0  0  0  0  0  0  0  0  0  0  0  0
   -4.4790   15.7650  -34.3110 C   0  0  0  0  0  0  0  0  0  0  0  0
   -3.8330   15.8420  -35.3890 O   0  0  0  0  0  0  0  0  0  0  0  0
   -5.6970   16.5110  -34.1840 N   0  0  0  0  0  0  0  0  0  0  0  0
   -5.8430   17.7930  -33.5560 C   0  0  0  0  0  0  0  0  0  0  0  0
   -6.0960   18.9130  -34.3550 C   0  0  0  0  0  0  0  0  0  0  0  0
   -6.2390   20.1770  -33.7760 C   0  0  0  0  0  0  0  0  0  0  0  0
   -6.1270   20.3400  -32.3870 C   0  0  0  0  0  0  0  0  0  0  0  0
   -6.2660   21.6470  -31.8050 N   0  0  0  0  0  0  0  0  0  0  0  0
   -5.2530   22.4930  -31.6930 N   0  0  0  0  0  0  0  0  0  0  0  0
   -5.7230   23.6190  -31.1210 C   0  0  0  0  0  0  0  0  0  0  0  0
   -4.8950   24.7950  -30.8300 C   0  0  0  0  0  0  0  0  0  0  0  0
   -3.5240   24.6310  -30.4780 N   0  0  0  0  0  0  0  0  0  0  0  0
   -5.3920   25.9510  -30.8890 O   0  0  0  0  0  0  0  0  0  0  0  0
   -7.0770   23.4930  -30.8680 C   0  0  0  0  0  0  0  0  0  0  0  0
   -7.3910   22.2310  -31.3290 C   0  0  0  0  0  0  0  0  0  0  0  0
   -8.7640   21.6330  -31.3260 C   0  0  0  0  0  0  0  0  0  0  0  0
   -5.8220   19.2230  -31.5910 C   0  0  0  0  0  0  0  0  0  0  0  0
   -5.6790   17.9590  -32.1700 C   0  0  0  0  0  0  0  0  0  0  0  0
   -0.3641   15.6226  -32.0097 H   0  0  0  0  0  0  0  0  0  0  0  0
    0.3925   14.8534  -33.4457 H   0  0  0  0  0  0  0  0  0  0  0  0
    0.0538   16.6174  -33.4457 H   0  0  0  0  0  0  0  0  0  0  0  0
   -1.8250   15.7900  -34.6080 H   0  0  0  0  0  0  0  0  0  0  0  0
   -1.2218   13.4644  -31.8097 H   0  0  0  0  0  0  0  0  0  0  0  0
   -2.9654   12.2284  -30.5388 H   0  0  0  0  0  0  0  0  0  0  0  0
   -5.3798   12.6572  -30.9792 H   0  0  0  0  0  0  0  0  0  0  0  0
   -6.0577   14.3058  -32.7159 H   0  0  0  0  0  0  0  0  0  0  0  0
   -6.1829   18.7982  -35.4455 H   0  0  0  0  0  0  0  0  0  0  0  0
   -6.4408   21.0502  -34.4138 H   0  0  0  0  0  0  0  0  0  0  0  0
   -2.7980   25.2980  -30.8220 H   0  0  0  0  0  0  0  0  0  0  0  0
   -7.7496   24.2302  -30.4052 H   0  0  0  0  0  0  0  0  0  0  0  0
   -9.0983   21.4874  -30.2882 H   0  0  0  0  0  0  0  0  0  0  0  0
   -9.4598   22.3096  -31.8438 H   0  0  0  0  0  0  0  0  0  0  0  0
   -8.7425   20.6627  -31.8438 H   0  0  0  0  0  0  0  0  0  0  0  0
   -5.6950   19.3442  -30.5051 H   0  0  0  0  0  0  0  0  0  0  0  0
   -5.4373   17.0911  -31.5388 H   0  0  0  0  0  0  0  0  0  0  0  0
  1  2  1  0
  2  3  1  0
  3  4  2  0
  4  5  1  0
  5  6  2  0
  6  7  1  0
  7  8  2  0
  8  9  1  0
  9 10  2  0
  9 11  1  0
 11 12  1  0
 12 13  2  0
 13 14  1  0
 14 15  2  0
 15 16  1  0
 16 17  1  0
 17 18  2  0
 18 19  1  0
 19 20  1  0
 19 21  2  0
 18 22  1  0
 22 23  2  0
 23 24  1  0
 15 25  1  0
 25 26  2  0
  8  3  1  0
 26 12  1  0
 23 16  1  0
  1 27  1  0
  1 28  1  0
  1 29  1  0
  2 30  1  0
  4 31  1  0
  5 32  1  0
  6 33  1  0
  7 34  1  0
 13 35  1  0
 14 36  1  0
 20 37  1  0
 22 38  1  0
 24 39  1  0
 24 40  1  0
 24 41  1  0
 25 42  1  0
 26 43  1  0
M  CHG  2  11  -1  20  -1
M  END
>  <UniqueID>  (43) 
42

>  <SMILES>  (43) 
CNc1ccccc1C(=O)[N-]c1ccc(-n2nc(C([NH-])=O)cc2C)cc1

>  <Energy>  (43) 
86.72390520889097

>  <Genealogy>  (43) 
CNc1ccccc1C(=O)[N-]c1ccc(-n2nc(C([NH-])=O)cc2C)cc1 (protonated)
CNc1ccccc1C(=O)[N-]c1ccc(-n2nc(C([NH-])=O)cc2C)cc1 (3D coordinates assigned)
CNc1ccccc1C(=O)[N-]c1ccc(-n2nc(C([NH-])=O)cc2C)cc1 (optimized conformer: 86.72390520889097 kcal/mol)

>  <smiles>  (43) 
CNc1ccccc1C(=O)Nc1ccc(-n2nc(C(N)=O)cc2C)cc1

>  <score_type>  (43) 
oracle

>  <origin>  (43) 
adgpu

>  <m_score__min__energy>  (43) 
-10.08

>  <m_primary>  (43) 
energy

$$$$
43:0
     RDKit          3D

 44 47  0  0  0  0  0  0  0  0999 V2000
    1.7820   26.2170  -26.6230 C   0  0  0  0  0  0  0  0  0  0  0  0
    0.7790   25.3330  -27.2410 N   0  0  0  0  0  0  0  0  0  0  0  0
   -0.3500   25.8710  -27.8150 C   0  0  0  0  0  0  0  0  0  0  0  0
   -0.5640   27.1140  -27.8130 O   0  0  0  0  0  0  0  0  0  0  0  0
   -1.2590   25.0120  -28.4040 C   0  0  0  0  0  0  0  0  0  0  0  0
   -2.4280   25.2990  -28.9970 N   0  0  0  0  0  0  0  0  0  0  0  0
   -2.8750   24.0700  -29.3750 C   0  0  0  0  0  0  0  0  0  0  0  0
   -4.1580   23.8630  -30.0830 C   0  0  0  0  0  0  0  0  0  0  0  0
   -5.3370   24.4650  -29.6140 C   0  0  0  0  0  0  0  0  0  0  0  0
   -6.5490   24.2700  -30.2830 C   0  0  0  0  0  0  0  0  0  0  0  0
   -6.6010   23.4690  -31.4390 C   0  0  0  0  0  0  0  0  0  0  0  0
   -7.7900   23.2450  -32.1530 O   0  0  0  0  0  0  0  0  0  0  0  0
   -8.7480   22.2280  -31.8630 C   0  0  0  0  0  0  0  0  0  0  0  0
   -8.1920   20.8630  -32.1740 C   0  0  0  0  0  0  0  0  0  0  0  0
   -7.1500   20.7120  -33.1040 C   0  0  0  0  0  0  0  0  0  0  0  0
   -6.6430   19.4410  -33.3940 C   0  0  0  0  0  0  0  0  0  0  0  0
   -7.1800   18.3110  -32.7670 C   0  0  0  0  0  0  0  0  0  0  0  0
   -6.5450   16.7180  -33.1330 Cl  0  0  0  0  0  0  0  0  0  0  0  0
   -8.2280   18.4540  -31.8510 C   0  0  0  0  0  0  0  0  0  0  0  0
   -8.7350   19.7240  -31.5580 C   0  0  0  0  0  0  0  0  0  0  0  0
   -5.4280   22.8650  -31.9020 C   0  0  0  0  0  0  0  0  0  0  0  0
   -4.2150   23.0580  -31.2340 C   0  0  0  0  0  0  0  0  0  0  0  0
   -2.0400   23.0470  -29.0450 N   0  0  0  0  0  0  0  0  0  0  0  0
   -1.0290   23.6840  -28.4330 C   0  0  0  0  0  0  0  0  0  0  0  0
    0.0980   23.1280  -27.9110 N   0  0  0  0  0  0  0  0  0  0  0  0
    0.3060   21.6750  -27.9400 C   0  0  0  0  0  0  0  0  0  0  0  0
    1.0070   23.9670  -27.3010 C   0  0  0  0  0  0  0  0  0  0  0  0
    2.0580   23.4820  -26.7940 O   0  0  0  0  0  0  0  0  0  0  0  0
    1.7052   26.1493  -25.5278 H   0  0  0  0  0  0  0  0  0  0  0  0
    2.7888   25.9071  -26.9398 H   0  0  0  0  0  0  0  0  0  0  0  0
    1.6011   27.2547  -26.9398 H   0  0  0  0  0  0  0  0  0  0  0  0
   -5.3066   25.0951  -28.7129 H   0  0  0  0  0  0  0  0  0  0  0  0
   -7.4661   24.7448  -29.9041 H   0  0  0  0  0  0  0  0  0  0  0  0
   -9.0118   22.2751  -30.7962 H   0  0  0  0  0  0  0  0  0  0  0  0
   -9.6388   22.3956  -32.4863 H   0  0  0  0  0  0  0  0  0  0  0  0
   -6.7312   21.5966  -33.6061 H   0  0  0  0  0  0  0  0  0  0  0  0
   -5.8208   19.3295  -34.1162 H   0  0  0  0  0  0  0  0  0  0  0  0
   -8.6537   17.5662  -31.3606 H   0  0  0  0  0  0  0  0  0  0  0  0
   -9.5629   19.8311  -30.8417 H   0  0  0  0  0  0  0  0  0  0  0  0
   -5.4599   22.2316  -32.8008 H   0  0  0  0  0  0  0  0  0  0  0  0
   -3.3003   22.5773  -31.6112 H   0  0  0  0  0  0  0  0  0  0  0  0
    0.3609   21.2918  -26.9104 H   0  0  0  0  0  0  0  0  0  0  0  0
   -0.5326   21.1950  -28.4657 H   0  0  0  0  0  0  0  0  0  0  0  0
    1.2456   21.4495  -28.4657 H   0  0  0  0  0  0  0  0  0  0  0  0
  1  2  1  0
  2  3  1  0
  3  4  2  0
  3  5  1  0
  5  6  1  0
  6  7  1  0
  7  8  1  0
  8  9  2  0
  9 10  1  0
 10 11  2  0
 11 12  1  0
 12 13  1  0
 13 14  1  0
 14 15  2  0
 15 16  1  0
 16 17  2  0
 17 18  1  0
 17 19  1  0
 19 20  2  0
 11 21  1  0
 21 22  2  0
  7 23  2  0
 23 24  1  0
 24 25  1  0
 25 26  1  0
 25 27  1  0
 27 28  2  0
 27  2  1  0
 24  5  2  0
 22  8  1  0
 20 14  1  0
  1 29  1  0
  1 30  1  0
  1 31  1  0
  9 32  1  0
 10 33  1  0
 13 34  1  0
 13 35  1  0
 15 36  1  0
 16 37  1  0
 19 38  1  0
 20 39  1  0
 21 40  1  0
 22 41  1  0
 26 42  1  0
 26 43  1  0
 26 44  1  0
M  CHG  1   6  -1
M  END
>  <UniqueID>  (44) 
43

>  <SMILES>  (44) 
Cn1c(=O)c2[n-]c(-c3ccc(OCc4ccc(Cl)cc4)cc3)nc2n(C)c1=O

>  <Energy>  (44) 
91.14340922559231

>  <Genealogy>  (44) 
Cn1c(=O)c2[n-]c(-c3ccc(OCc4ccc(Cl)cc4)cc3)nc2n(C)c1=O (protonated)
Cn1c(=O)c2[n-]c(-c3ccc(OCc4ccc(Cl)cc4)cc3)nc2n(C)c1=O (3D coordinates assigned)
Cn1c(=O)c2[n-]c(-c3ccc(OCc4ccc(Cl)cc4)cc3)nc2n(C)c1=O (optimized conformer: 91.14340922559231 kcal/mol)

>  <smiles>  (44) 
Cn1c(=O)c2[nH]c(-c3ccc(OCc4ccc(Cl)cc4)cc3)nc2n(C)c1=O

>  <score_type>  (44) 
oracle

>  <origin>  (44) 
adgpu

>  <m_score__min__energy>  (44) 
-9.9600000000000009

>  <m_primary>  (44) 
energy

$$$$
44:0
     RDKit          3D

 51 54  0  0  1  0  0  0  0  0999 V2000
   -9.2250   19.0150  -32.9300 N   0  0  0  0  0  0  0  0  0  0  0  0
   -8.6990   19.9190  -32.2190 C   0  0  0  0  0  0  0  0  0  0  0  0
   -9.4670   20.7090  -31.4540 N   0  0  0  0  0  0  0  0  0  0  0  0
   -8.8940   21.6700  -30.7130 C   0  0  0  0  0  0  0  0  0  0  0  0
   -7.5640   21.8690  -30.7140 N   0  0  0  0  0  0  0  0  0  0  0  0
   -6.7840   21.0840  -31.4770 C   0  0  0  0  0  0  0  0  0  0  0  0
   -7.3370   20.0830  -32.2530 C   0  0  0  0  0  0  0  0  0  0  0  0
   -6.3510   19.4300  -32.9370 C   0  0  0  0  0  0  0  0  0  0  0  0
   -6.3710   18.2900  -33.8730 C   0  0  0  0  0  0  0  0  0  0  0  0
   -5.4970   17.1750  -33.5420 C   0  0  0  0  0  0  0  0  0  0  0  0
   -5.7410   16.4870  -32.3610 C   0  0  0  0  0  0  0  0  0  0  0  0
   -4.9640   15.4270  -31.9410 C   0  0  0  0  0  0  0  0  0  0  0  0
   -3.8960   15.0200  -32.7130 C   0  0  0  0  0  0  0  0  0  0  0  0
   -3.0980   13.9540  -32.3130 O   0  0  0  0  0  0  0  0  0  0  0  0
   -3.6190   15.6800  -33.8990 C   0  0  0  0  0  0  0  0  0  0  0  0
   -4.4210   16.7350  -34.2830 C   0  0  0  0  0  0  0  0  0  0  0  0
   -5.1680   20.0750  -32.5460 C   0  0  0  0  0  0  0  0  0  0  0  0
   -5.4560   21.0570  -31.6760 N   0  0  0  0  0  0  0  0  0  0  0  0
   -4.4190   21.9030  -31.0960 C   0  0  2  0  0  0  0  0  0  0  0  0
   -4.4210   21.8450  -29.7170 O   0  0  0  0  0  0  0  0  0  0  0  0
   -3.6160   22.8410  -29.2190 C   0  0  2  0  0  0  0  0  0  0  0  0
   -3.4230   22.6400  -27.7160 C   0  0  0  0  0  0  0  0  0  0  0  0
   -3.5300   21.2640  -27.4850 O   0  0  0  0  0  0  0  0  0  0  0  0
   -4.1970   24.2250  -29.4100 C   0  0  1  0  0  0  0  0  0  0  0  0
   -3.1410   25.1170  -29.6390 O   0  0  0  0  0  0  0  0  0  0  0  0
   -5.1160   24.2800  -30.6120 C   0  0  1  0  0  0  0  0  0  0  0  0
   -4.9940   25.5510  -31.1740 O   0  0  0  0  0  0  0  0  0  0  0  0
   -4.6580   23.2850  -31.6570 C   0  0  2  0  0  0  0  0  0  0  0  0
   -5.5750   23.2970  -32.6990 O   0  0  0  0  0  0  0  0  0  0  0  0
  -10.2820   18.9250  -32.8830 H   0  0  0  0  0  0  0  0  0  0  0  0
   -9.5302   22.3131  -30.0871 H   0  0  0  0  0  0  0  0  0  0  0  0
   -7.1520   22.6250  -30.1280 H   0  0  0  0  0  0  0  0  0  0  0  0
   -7.4017   17.9081  -33.9155 H   0  0  0  0  0  0  0  0  0  0  0  0
   -5.9965   18.6856  -34.8286 H   0  0  0  0  0  0  0  0  0  0  0  0
   -6.5890   16.8000  -31.7341 H   0  0  0  0  0  0  0  0  0  0  0  0
   -5.1946   14.9104  -30.9976 H   0  0  0  0  0  0  0  0  0  0  0  0
   -2.3790   14.0630  -31.5960 H   0  0  0  0  0  0  0  0  0  0  0  0
   -2.7711   15.3672  -34.5261 H   0  0  0  0  0  0  0  0  0  0  0  0
   -4.1904   17.2505  -35.2270 H   0  0  0  0  0  0  0  0  0  0  0  0
   -4.1586   19.8160  -32.8982 H   0  0  0  0  0  0  0  0  0  0  0  0
   -3.4076   21.5628  -31.3633 H   0  0  0  0  0  0  0  0  0  0  0  0
   -2.6688   22.7755  -29.7744 H   0  0  0  0  0  0  0  0  0  0  0  0
   -2.4308   23.0015  -27.4080 H   0  0  0  0  0  0  0  0  0  0  0  0
   -4.1728   23.2010  -27.1389 H   0  0  0  0  0  0  0  0  0  0  0  0
   -3.5990   20.8020  -28.3440 H   0  0  0  0  0  0  0  0  0  0  0  0
   -4.7720   24.4869  -28.5095 H   0  0  0  0  0  0  0  0  0  0  0  0
   -3.4810   26.0420  -29.7250 H   0  0  0  0  0  0  0  0  0  0  0  0
   -6.1473   24.0550  -30.3025 H   0  0  0  0  0  0  0  0  0  0  0  0
   -4.0880   25.6600  -31.5710 H   0  0  0  0  0  0  0  0  0  0  0  0
   -3.6721   23.5900  -32.0379 H   0  0  0  0  0  0  0  0  0  0  0  0
   -5.1820   23.6310  -33.5470 H   0  0  0  0  0  0  0  0  0  0  0  0
  1  2  2  3
  2  3  1  0
  3  4  2  0
  4  5  1  0
  5  6  1  0
  6  7  2  0
  7  8  1  0
  8  9  1  0
  9 10  1  0
 10 11  2  0
 11 12  1  0
 12 13  2  0
 13 14  1  0
 13 15  1  0
 15 16  2  0
  8 17  2  0
 17 18  1  0
 18 19  1  0
 19 20  1  0
 20 21  1  0
 21 22  1  0
 22 23  1  0
 21 24  1  0
 24 25  1  0
 24 26  1  0
 26 27  1  0
 26 28  1  0
 28 29  1  0
  7  2  1  0
 16 10  1  0
 28 19  1  0
 18  6  1  0
  1 30  1  0
  4 31  1  0
  5 32  1  0
  9 33  1  0
  9 34  1  0
 11 35  1  0
 12 36  1  0
 14 37  1  0
 15 38  1  0
 16 39  1  0
 17 40  1  0
 19 41  1  6
 21 42  1  6
 22 43  1  0
 22 44  1  0
 23 45  1  0
 24 46  1  1
 25 47  1  0
 26 48  1  1
 27 49  1  0
 28 50  1  6
 29 51  1  0
M  END
>  <smiles>  (45) 
N=c1nc[nH]c2c1c(Cc1ccc(O)cc1)cn2C1OC(CO)C(O)C(O)C1O

>  <score_type>  (45) 
oracle

>  <origin>  (45) 
adgpu

>  <m_score__min__energy>  (45) 
-8.2300000000000004

>  <m_primary>  (45) 
energy

$$$$
45:0
     RDKit          3D

 60 63  0  0  0  0  0  0  0  0999 V2000
   -4.5250   24.3710  -28.3630 C   0  0  0  0  0  0  0  0  0  0  0  0
   -5.1870   24.8820  -29.9330 S   0  0  0  0  0  0  0  0  0  0  0  0
   -6.1080   26.0530  -29.7400 O   0  0  0  0  0  0  0  0  0  0  0  0
   -4.0620   25.2980  -30.8370 O   0  0  0  0  0  0  0  0  0  0  0  0
   -6.0720   23.5440  -30.6520 C   0  0  0  0  0  0  0  0  0  0  0  0
   -7.3020   23.7700  -31.2840 C   0  0  0  0  0  0  0  0  0  0  0  0
   -7.9820   22.7140  -31.8990 C   0  0  0  0  0  0  0  0  0  0  0  0
   -7.4390   21.4170  -31.8860 C   0  0  0  0  0  0  0  0  0  0  0  0
   -8.1220   20.2970  -32.6260 C   0  0  0  0  0  0  0  0  0  0  0  0
   -7.0990   19.4030  -33.2650 C   0  0  0  0  0  0  0  0  0  0  0  0
   -6.4880   19.8080  -34.2880 O   0  0  0  0  0  0  0  0  0  0  0  0
   -6.8170   18.1070  -32.6980 N   0  0  0  0  0  0  0  0  0  0  0  0
   -5.6070   17.3640  -32.9440 C   0  0  0  0  0  0  0  0  0  0  0  0
   -5.5400   16.0180  -32.5510 C   0  0  0  0  0  0  0  0  0  0  0  0
   -4.3550   15.2920  -32.7040 C   0  0  0  0  0  0  0  0  0  0  0  0
   -3.2260   15.9010  -33.2550 C   0  0  0  0  0  0  0  0  0  0  0  0
   -3.2890   17.2350  -33.6780 C   0  0  0  0  0  0  0  0  0  0  0  0
   -1.8140   18.0510  -34.2920 S   0  0  0  0  0  0  0  0  0  0  0  0
   -2.0890   19.4710  -33.2280 C   0  0  0  0  0  0  0  0  0  0  0  0
   -2.8710   20.5410  -33.6790 C   0  0  0  0  0  0  0  0  0  0  0  0
   -3.1450   21.6150  -32.8280 C   0  0  0  0  0  0  0  0  0  0  0  0
   -3.9130   22.6440  -33.2650 F   0  0  0  0  0  0  0  0  0  0  0  0
   -2.6440   21.6220  -31.5240 C   0  0  0  0  0  0  0  0  0  0  0  0
   -1.8600   20.5540  -31.0560 C   0  0  0  0  0  0  0  0  0  0  0  0
   -1.3510   20.5590  -29.6270 C   0  0  0  0  0  0  0  0  0  0  0  0
   -2.4980   20.6520  -28.6090 C   0  0  0  0  0  0  0  0  0  0  0  0
   -1.9520   20.6260  -27.1610 C   0  0  0  0  0  0  0  0  0  0  0  0
   -0.5720   20.3000  -27.0920 O   0  0  0  0  0  0  0  0  0  0  0  0
   -0.3170   19.1090  -27.8110 C   0  0  0  0  0  0  0  0  0  0  0  0
   -0.4640   19.3340  -29.3290 C   0  0  0  0  0  0  0  0  0  0  0  0
   -1.5760   19.4830  -31.9270 C   0  0  0  0  0  0  0  0  0  0  0  0
   -4.4840   17.9510  -33.5580 C   0  0  0  0  0  0  0  0  0  0  0  0
   -6.2070   21.1950  -31.2530 C   0  0  0  0  0  0  0  0  0  0  0  0
   -5.5290   22.2530  -30.6390 C   0  0  0  0  0  0  0  0  0  0  0  0
   -5.1131   24.8250  -27.5518 H   0  0  0  0  0  0  0  0  0  0  0  0
   -4.5751   23.2750  -28.2832 H   0  0  0  0  0  0  0  0  0  0  0  0
   -3.4775   24.6970  -28.2832 H   0  0  0  0  0  0  0  0  0  0  0  0
   -7.7342   24.7815  -31.2964 H   0  0  0  0  0  0  0  0  0  0  0  0
   -8.9461   22.8989  -32.3952 H   0  0  0  0  0  0  0  0  0  0  0  0
   -8.7278   19.7103  -31.9198 H   0  0  0  0  0  0  0  0  0  0  0  0
   -8.7676   20.7228  -33.4082 H   0  0  0  0  0  0  0  0  0  0  0  0
   -7.4090   17.7990  -31.8950 H   0  0  0  0  0  0  0  0  0  0  0  0
   -6.4267   15.5307  -32.1193 H   0  0  0  0  0  0  0  0  0  0  0  0
   -4.3121   14.2388  -32.3896 H   0  0  0  0  0  0  0  0  0  0  0  0
   -2.2887   15.3344  -33.3568 H   0  0  0  0  0  0  0  0  0  0  0  0
   -3.2701   20.5363  -34.7040 H   0  0  0  0  0  0  0  0  0  0  0  0
   -2.8649   22.4697  -30.8588 H   0  0  0  0  0  0  0  0  0  0  0  0
   -0.7310   21.4615  -29.5216 H   0  0  0  0  0  0  0  0  0  0  0  0
   -3.0478   21.5910  -28.7702 H   0  0  0  0  0  0  0  0  0  0  0  0
   -3.1648   19.7885  -28.7497 H   0  0  0  0  0  0  0  0  0  0  0  0
   -2.0998   21.6198  -26.7132 H   0  0  0  0  0  0  0  0  0  0  0  0
   -2.5015   19.8435  -26.6172 H   0  0  0  0  0  0  0  0  0  0  0  0
    0.7076   18.7718  -27.5955 H   0  0  0  0  0  0  0  0  0  0  0  0
   -1.0483   18.3491  -27.4983 H   0  0  0  0  0  0  0  0  0  0  0  0
    0.5323   19.4975  -29.7657 H   0  0  0  0  0  0  0  0  0  0  0  0
   -0.9388   18.4446  -29.7689 H   0  0  0  0  0  0  0  0  0  0  0  0
   -0.9461   18.6503  -31.5809 H   0  0  0  0  0  0  0  0  0  0  0  0
   -4.5472   18.9786  -33.9454 H   0  0  0  0  0  0  0  0  0  0  0  0
   -5.7724   20.1846  -31.2395 H   0  0  0  0  0  0  0  0  0  0  0  0
   -4.5642   22.0702  -30.1433 H   0  0  0  0  0  0  0  0  0  0  0  0
  1  2  1  0
  2  3  2  0
  2  4  2  0
  2  5  1  0
  5  6  2  0
  6  7  1  0
  7  8  2  0
  8  9  1  0
  9 10  1  0
 10 11  2  0
 10 12  1  0
 12 13  1  0
 13 14  2  0
 14 15  1  0
 15 16  2  0
 16 17  1  0
 17 18  1  0
 18 19  1  0
 19 20  2  0
 20 21  1  0
 21 22  1  0
 21 23  2  0
 23 24  1  0
 24 25  1  0
 25 26  1  0
 26 27  1  0
 27 28  1  0
 28 29  1  0
 29 30  1  0
 24 31  2  0
 17 32  2  0
  8 33  1  0
 33 34  2  0
 34  5  1  0
 32 13  1  0
 31 19  1  0
 30 25  1  0
  1 35  1  0
  1 36  1  0
  1 37  1  0
  6 38  1  0
  7 39  1  0
  9 40  1  0
  9 41  1  0
 12 42  1  0
 14 43  1  0
 15 44  1  0
 16 45  1  0
 20 46  1  0
 23 47  1  0
 25 48  1  0
 26 49  1  0
 26 50  1  0
 27 51  1  0
 27 52  1  0
 29 53  1  0
 29 54  1  0
 30 55  1  0
 30 56  1  0
 31 57  1  0
 32 58  1  0
 33 59  1  0
 34 60  1  0
M  END
>  <UniqueID>  (46) 
44

>  <SMILES>  (46) 
CS(=O)(=O)c1ccc(CC(=O)Nc2cccc(Sc3cc(F)cc(C4CCOCC4)c3)c2)cc1

>  <Energy>  (46) 
66.05281997628363

>  <Genealogy>  (46) 
CS(=O)(=O)c1ccc(CC(=O)Nc2cccc(Sc3cc(F)cc(C4CCOCC4)c3)c2)cc1 (3D coordinates assigned)
CS(=O)(=O)c1ccc(CC(=O)Nc2cccc(Sc3cc(F)cc(C4CCOCC4)c3)c2)cc1 (nonaromatic ring conformer: 66.05281997628363 kcal/mol)

>  <smiles>  (46) 
CS(=O)(=O)c1ccc(CC(=O)Nc2cccc(Sc3cc(F)cc(C4CCOCC4)c3)c2)cc1

>  <score_type>  (46) 
oracle

>  <origin>  (46) 
adgpu

>  <m_score__min__energy>  (46) 
-11.32

>  <m_primary>  (46) 
energy

$$$$
46:0
     RDKit          3D

 43 45  0  0  0  0  0  0  0  0999 V2000
    0.7680   17.1320  -27.5710 C   0  0  0  0  0  0  0  0  0  0  0  0
    0.5360   18.5730  -27.8870 C   0  0  0  0  0  0  0  0  0  0  0  0
    1.3770   19.4340  -27.5090 O   0  0  0  0  0  0  0  0  0  0  0  0
   -0.6060   18.9620  -28.6670 N   0  0  0  0  0  0  0  0  0  0  0  0
   -1.0690   20.3190  -28.7740 C   0  0  0  0  0  0  0  0  0  0  0  0
   -0.1890   21.3610  -29.1130 C   0  0  0  0  0  0  0  0  0  0  0  0
   -0.6500   22.6760  -29.1890 C   0  0  0  0  0  0  0  0  0  0  0  0
   -1.9920   22.9710  -28.9290 C   0  0  0  0  0  0  0  0  0  0  0  0
   -2.5480   24.6410  -29.0010 S   0  0  0  0  0  0  0  0  0  0  0  0
   -1.3740   25.5760  -28.9430 O   0  0  0  0  0  0  0  0  0  0  0  0
   -3.4360   24.9050  -27.8190 O   0  0  0  0  0  0  0  0  0  0  0  0
   -3.4400   24.9130  -30.4610 N   0  0  0  0  0  0  0  0  0  0  0  0
   -4.7890   24.4640  -30.6220 C   0  0  0  0  0  0  0  0  0  0  0  0
   -5.8160   25.2220  -30.0430 C   0  0  0  0  0  0  0  0  0  0  0  0
   -7.1370   24.7740  -30.0850 C   0  0  0  0  0  0  0  0  0  0  0  0
   -7.4440   23.5620  -30.7040 C   0  0  0  0  0  0  0  0  0  0  0  0
   -6.4320   22.8020  -31.2970 C   0  0  0  0  0  0  0  0  0  0  0  0
   -5.1010   23.2510  -31.2840 C   0  0  0  0  0  0  0  0  0  0  0  0
   -4.0820   22.4370  -31.9780 C   0  0  0  0  0  0  0  0  0  0  0  0
   -4.2870   21.5860  -33.0490 C   0  0  0  0  0  0  0  0  0  0  0  0
   -3.0550   21.0430  -33.3420 C   0  0  0  0  0  0  0  0  0  0  0  0
   -2.1800   21.5880  -32.4250 C   0  0  0  0  0  0  0  0  0  0  0  0
   -0.7160   21.3210  -32.3520 C   0  0  0  0  0  0  0  0  0  0  0  0
   -2.8180   22.4090  -31.6240 O   0  0  0  0  0  0  0  0  0  0  0  0
   -2.8690   21.9370  -28.5750 C   0  0  0  0  0  0  0  0  0  0  0  0
   -2.4050   20.6210  -28.4850 C   0  0  0  0  0  0  0  0  0  0  0  0
    0.7901   16.9949  -26.4798 H   0  0  0  0  0  0  0  0  0  0  0  0
   -0.0443   16.5271  -28.0002 H   0  0  0  0  0  0  0  0  0  0  0  0
    1.7291   16.8126  -28.0002 H   0  0  0  0  0  0  0  0  0  0  0  0
   -1.1010   18.2230  -29.2140 H   0  0  0  0  0  0  0  0  0  0  0  0
    0.8684   21.1390  -29.3195 H   0  0  0  0  0  0  0  0  0  0  0  0
    0.0462   23.4851  -29.4549 H   0  0  0  0  0  0  0  0  0  0  0  0
   -5.5789   26.1772  -29.5518 H   0  0  0  0  0  0  0  0  0  0  0  0
   -7.9366   25.3768  -29.6298 H   0  0  0  0  0  0  0  0  0  0  0  0
   -8.4839   23.2041  -30.7254 H   0  0  0  0  0  0  0  0  0  0  0  0
   -6.6798   21.8442  -31.7779 H   0  0  0  0  0  0  0  0  0  0  0  0
   -5.2389   21.3840  -33.5619 H   0  0  0  0  0  0  0  0  0  0  0  0
   -2.8184   20.3246  -34.1407 H   0  0  0  0  0  0  0  0  0  0  0  0
   -0.4057   21.2644  -31.2982 H   0  0  0  0  0  0  0  0  0  0  0  0
   -0.4919   20.3672  -32.8520 H   0  0  0  0  0  0  0  0  0  0  0  0
   -0.1696   22.1343  -32.8520 H   0  0  0  0  0  0  0  0  0  0  0  0
   -3.9257   22.1613  -28.3673 H   0  0  0  0  0  0  0  0  0  0  0  0
   -3.0943   19.8179  -28.1852 H   0  0  0  0  0  0  0  0  0  0  0  0
  1  2  1  0
  2  3  2  0
  2  4  1  0
  4  5  1  0
  5  6  2  0
  6  7  1  0
  7  8  2  0
  8  9  1  0
  9 10  2  0
  9 11  2  0
  9 12  1  0
 12 13  1  0
 13 14  2  0
 14 15  1  0
 15 16  2  0
 16 17  1  0
 17 18  2  0
 18 19  1  0
 19 20  2  0
 20 21  1  0
 21 22  2  0
 22 23  1  0
 22 24  1  0
  8 25  1  0
 25 26  2  0
 26  5  1  0
 18 13  1  0
 24 19  1  0
  1 27  1  0
  1 28  1  0
  1 29  1  0
  4 30  1  0
  6 31  1  0
  7 32  1  0
 14 33  1  0
 15 34  1  0
 16 35  1  0
 17 36  1  0
 20 37  1  0
 21 38  1  0
 23 39  1  0
 23 40  1  0
 23 41  1  0
 25 42  1  0
 26 43  1  0
M  CHG  1  12  -1
M  END
>  <UniqueID>  (47) 
45

>  <SMILES>  (47) 
CC(=O)Nc1ccc(S(=O)(=O)[N-]c2ccccc2-c2ccc(C)o2)cc1

>  <Energy>  (47) 
82.31039679914468

>  <Genealogy>  (47) 
CC(=O)Nc1ccc(S(=O)(=O)[N-]c2ccccc2-c2ccc(C)o2)cc1 (protonated)
CC(=O)Nc1ccc(S(=O)(=O)[N-]c2ccccc2-c2ccc(C)o2)cc1 (3D coordinates assigned)
CC(=O)Nc1ccc(S(=O)(=O)[N-]c2ccccc2-c2ccc(C)o2)cc1 (optimized conformer: 82.31039679914468 kcal/mol)

>  <smiles>  (47) 
CC(=O)Nc1ccc(S(=O)(=O)Nc2ccccc2-c2ccc(C)o2)cc1

>  <score_type>  (47) 
oracle

>  <origin>  (47) 
adgpu

>  <m_score__min__energy>  (47) 
-10

>  <m_primary>  (47) 
energy

$$$$
47:0
     RDKit          3D

 40 42  0  0  0  0  0  0  0  0999 V2000
   -0.7695   26.6423  -28.2811 H   0  0  0  0  0  0  0  0  0  0  0  0
   -1.5010   25.8240  -28.2090 C   0  0  0  0  0  0  0  0  0  0  0  0
   -2.0350   25.2920  -29.3410 N   0  0  0  0  0  0  0  0  0  0  0  0
   -2.9580   24.2950  -29.3120 C   0  0  0  0  0  0  0  0  0  0  0  0
   -3.3740   23.8050  -30.4480 N   0  0  0  0  0  0  0  0  0  0  0  0
   -4.3640   22.7840  -30.6350 C   0  0  0  0  0  0  0  0  0  0  0  0
   -4.0790   21.5750  -30.4160 O   0  0  0  0  0  0  0  0  0  0  0  0
   -5.7310   23.1650  -31.0440 C   0  0  0  0  0  0  0  0  0  0  0  0
   -6.5920   22.4630  -31.8710 C   0  0  0  0  0  0  0  0  0  0  0  0
   -6.3720   21.1130  -32.4130 C   0  0  0  0  0  0  0  0  0  0  0  0
   -7.3850   20.1620  -32.2010 C   0  0  0  0  0  0  0  0  0  0  0  0
   -8.2720   20.4352  -31.6106 H   0  0  0  0  0  0  0  0  0  0  0  0
   -7.2790   18.8770  -32.7300 C   0  0  0  0  0  0  0  0  0  0  0  0
   -8.0723   18.1383  -32.5432 H   0  0  0  0  0  0  0  0  0  0  0  0
   -6.1690   18.5280  -33.4950 C   0  0  0  0  0  0  0  0  0  0  0  0
   -6.0934   17.5188  -33.9260 H   0  0  0  0  0  0  0  0  0  0  0  0
   -5.1520   19.4590  -33.7150 C   0  0  0  0  0  0  0  0  0  0  0  0
   -4.2851   19.1787  -34.3314 H   0  0  0  0  0  0  0  0  0  0  0  0
   -5.2190   20.7460  -33.1620 C   0  0  0  0  0  0  0  0  0  0  0  0
   -4.1030   21.5770  -33.3780 O   0  0  0  0  0  0  0  0  0  0  0  0
   -2.7320   21.2010  -33.2880 C   0  0  0  0  0  0  0  0  0  0  0  0
   -2.4423   21.1215  -32.2298 H   0  0  0  0  0  0  0  0  0  0  0  0
   -2.5850   20.2294  -33.7823 H   0  0  0  0  0  0  0  0  0  0  0  0
   -2.1100   21.9617  -33.7823 H   0  0  0  0  0  0  0  0  0  0  0  0
   -7.7730   23.1080  -31.9380 N   0  0  0  0  0  0  0  0  0  0  0  0
   -7.6610   24.1840  -31.2140 O   0  0  0  0  0  0  0  0  0  0  0  0
   -6.4730   24.2660  -30.6580 C   0  0  0  0  0  0  0  0  0  0  0  0
   -6.0450   25.3730  -29.7530 C   0  0  0  0  0  0  0  0  0  0  0  0
   -6.1666   25.0584  -28.7060 H   0  0  0  0  0  0  0  0  0  0  0  0
   -4.9888   25.6143  -29.9430 H   0  0  0  0  0  0  0  0  0  0  0  0
   -6.6642   26.2621  -29.9430 H   0  0  0  0  0  0  0  0  0  0  0  0
   -3.3740   23.7870  -28.0640 C   0  0  0  0  0  0  0  0  0  0  0  0
   -4.1162   22.9765  -28.0170 H   0  0  0  0  0  0  0  0  0  0  0  0
   -2.8390   24.3180  -26.8870 C   0  0  0  0  0  0  0  0  0  0  0  0
   -3.1724   23.9375  -25.9102 H   0  0  0  0  0  0  0  0  0  0  0  0
   -1.8780   25.3350  -26.9520 C   0  0  0  0  0  0  0  0  0  0  0  0
   -1.2990   25.9270  -25.7030 C   0  0  0  0  0  0  0  0  0  0  0  0
   -1.7617   25.4539  -24.8243 H   0  0  0  0  0  0  0  0  0  0  0  0
   -0.2130   25.7528  -25.6839 H   0  0  0  0  0  0  0  0  0  0  0  0
   -1.4972   27.0088  -25.6839 H   0  0  0  0  0  0  0  0  0  0  0  0
  1  2  1  0
  2  3  1  0
  3  4  1  0
  4  5  2  0
  5  6  1  0
  6  7  2  0
  6  8  1  0
  8  9  1  0
  9 10  1  0
 10 11  2  0
 11 12  1  0
 11 13  1  0
 13 14  1  0
 13 15  2  0
 15 16  1  0
 15 17  1  0
 17 18  1  0
 17 19  2  0
 19 20  1  0
 20 21  1  0
 21 22  1  0
 21 23  1  0
 21 24  1  0
  9 25  2  0
 25 26  1  0
 26 27  1  0
 27 28  1  0
 28 29  1  0
 28 30  1  0
 28 31  1  0
  4 32  1  0
 32 33  1  0
 32 34  2  0
 34 35  1  0
 34 36  1  0
 36 37  1  0
 37 38  1  0
 37 39  1  0
 37 40  1  0
 36  2  2  0
 27  8  2  0
 19 10  1  0
M  CHG  1   3  -1
M  END
>  <UniqueID>  (48) 
46

>  <SMILES>  (48) 
COc1ccccc1-c1noc(C)c1C(=O)/N=c1\ccc(C)c[n-]1

>  <Energy>  (48) 
91.37732465607341

>  <Genealogy>  (48) 
COc1ccccc1-c1noc(C)c1C(=O)N=c1ccc(C)c[n-]1 (protonated)
COc1ccccc1-c1noc(C)c1C(=O)/N=c1\ccc(C)c[n-]1 (cis-trans isomerization)
COc1ccccc1-c1noc(C)c1C(=O)/N=c1\ccc(C)c[n-]1 (3D coordinates assigned)
COc1ccccc1-c1noc(C)c1C(=O)/N=c1\ccc(C)c[n-]1 (optimized conformer: 91.37732465607341 kcal/mol)

>  <smiles>  (48) 
COc1ccccc1-c1noc(C)c1C(=O)N=c1ccc(C)c[nH]1

>  <score_type>  (48) 
oracle

>  <origin>  (48) 
adgpu

>  <m_score__min__energy>  (48) 
-9.3900000000000006

>  <m_primary>  (48) 
energy

$$$$
48:0
     RDKit          3D

 29 31  0  0  0  0  0  0  0  0999 V2000
   -5.6360   13.2880  -34.9950 N   0  0  0  0  0  0  0  0  0  0  0  0
   -5.6610   14.3680  -34.5820 C   0  0  0  0  0  0  0  0  0  0  0  0
   -5.6920   15.7120  -34.0670 C   0  0  0  0  0  0  0  0  0  0  0  0
   -4.5420   16.5060  -34.1090 C   0  0  0  0  0  0  0  0  0  0  0  0
   -4.5670   17.8130  -33.6100 C   0  0  0  0  0  0  0  0  0  0  0  0
   -5.7500   18.3530  -33.0570 C   0  0  0  0  0  0  0  0  0  0  0  0
   -5.8240   19.7470  -32.5110 C   0  0  0  0  0  0  0  0  0  0  0  0
   -7.0080   20.5120  -32.5160 C   0  0  0  0  0  0  0  0  0  0  0  0
   -7.0020   21.8050  -31.9900 C   0  0  0  0  0  0  0  0  0  0  0  0
   -5.8260   22.3490  -31.4550 C   0  0  0  0  0  0  0  0  0  0  0  0
   -5.7840   23.7170  -30.8870 C   0  0  0  0  0  0  0  0  0  0  0  0
   -6.7450   24.3210  -30.0920 C   0  0  0  0  0  0  0  0  0  0  0  0
   -6.2640   25.5830  -29.8160 C   0  0  0  0  0  0  0  0  0  0  0  0
   -5.0450   25.6770  -30.4540 C   0  0  0  0  0  0  0  0  0  0  0  0
   -4.7880   24.5530  -31.0810 O   0  0  0  0  0  0  0  0  0  0  0  0
   -4.6690   21.5620  -31.4660 C   0  0  0  0  0  0  0  0  0  0  0  0
   -4.6980   20.3060  -31.9840 N   0  0  0  0  0  0  0  0  0  0  0  0
   -6.9000   17.5340  -33.0240 C   0  0  0  0  0  0  0  0  0  0  0  0
   -6.8700   16.2300  -33.5230 C   0  0  0  0  0  0  0  0  0  0  0  0
   -3.6128   16.1012  -34.5365 H   0  0  0  0  0  0  0  0  0  0  0  0
   -3.6553   18.4272  -33.6486 H   0  0  0  0  0  0  0  0  0  0  0  0
   -7.9346   20.0910  -32.9334 H   0  0  0  0  0  0  0  0  0  0  0  0
   -7.9264   22.4011  -31.9953 H   0  0  0  0  0  0  0  0  0  0  0  0
   -7.6952   23.8838  -29.7516 H   0  0  0  0  0  0  0  0  0  0  0  0
   -6.7538   26.3588  -29.2091 H   0  0  0  0  0  0  0  0  0  0  0  0
   -4.3883   26.5594  -30.4396 H   0  0  0  0  0  0  0  0  0  0  0  0
   -3.7312   21.9621  -31.0532 H   0  0  0  0  0  0  0  0  0  0  0  0
   -7.8341   17.9294  -32.5985 H   0  0  0  0  0  0  0  0  0  0  0  0
   -7.7770   15.6086  -33.4876 H   0  0  0  0  0  0  0  0  0  0  0  0
  1  2  3  0
  2  3  1  0
  3  4  2  0
  4  5  1  0
  5  6  2  0
  6  7  1  0
  7  8  2  0
  8  9  1  0
  9 10  2  0
 10 11  1  0
 11 12  2  0
 12 13  1  0
 13 14  2  0
 14 15  1  0
 10 16  1  0
 16 17  2  0
  6 18  1  0
 18 19  2  0
 19  3  1  0
 17  7  1  0
 15 11  1  0
  4 20  1  0
  5 21  1  0
  8 22  1  0
  9 23  1  0
 12 24  1  0
 13 25  1  0
 14 26  1  0
 16 27  1  0
 18 28  1  0
 19 29  1  0
M  END
>  <UniqueID>  (49) 
47

>  <SMILES>  (49) 
N#Cc1ccc(-c2ccc(-c3ccco3)cn2)cc1

>  <Energy>  (49) 
63.61011500230308

>  <Genealogy>  (49) 
N#Cc1ccc(-c2ccc(-c3ccco3)cn2)cc1 (3D coordinates assigned)
N#Cc1ccc(-c2ccc(-c3ccco3)cn2)cc1 (optimized conformer: 63.61011500230308 kcal/mol)

>  <smiles>  (49) 
N#Cc1ccc(-c2ccc(-c3ccco3)cn2)cc1

>  <score_type>  (49) 
oracle

>  <origin>  (49) 
adgpu

>  <m_score__min__energy>  (49) 
-6.8399999999999999

>  <m_primary>  (49) 
energy

$$$$
