0:0
     RDKit          3D

 35 36  0  0  0  0  0  0  0  0999 V2000
   -8.3580   22.0180  -30.2970 O   0  0  0  0  0  0  0  0  0  0  0  0
   -7.5840   22.6350  -31.0800 C   0  0  0  0  0  0  0  0  0  0  0  0
   -7.3640   24.1060  -30.8830 C   0  0  0  0  0  0  0  0  0  0  0  0
   -6.2220   24.3880  -29.9000 C   0  0  0  0  0  0  0  0  0  0  0  0
   -4.6100   24.0820  -30.6170 S   0  0  0  0  0  0  0  0  0  0  0  0
   -3.8650   25.3780  -30.7830 O   0  0  0  0  0  0  0  0  0  0  0  0
   -4.7560   23.4310  -31.9640 O   0  0  0  0  0  0  0  0  0  0  0  0
   -3.7030   23.0230  -29.5450 C   0  0  0  0  0  0  0  0  0  0  0  0
   -3.2430   23.4960  -28.3080 C   0  0  0  0  0  0  0  0  0  0  0  0
   -2.5340   22.6500  -27.4500 C   0  0  0  0  0  0  0  0  0  0  0  0
   -2.2870   21.3250  -27.8210 C   0  0  0  0  0  0  0  0  0  0  0  0
   -2.7510   20.8450  -29.0500 C   0  0  0  0  0  0  0  0  0  0  0  0
   -3.4590   21.6900  -29.9100 C   0  0  0  0  0  0  0  0  0  0  0  0
   -6.9700   21.9560  -32.1860 N   0  0  0  0  0  0  0  0  0  0  0  0
   -7.0660   20.5360  -32.4000 C   0  0  0  0  0  0  0  0  0  0  0  0
   -8.2780   19.8590  -32.1710 C   0  0  0  0  0  0  0  0  0  0  0  0
   -8.3610   18.4760  -32.3520 C   0  0  0  0  0  0  0  0  0  0  0  0
   -7.2360   17.7540  -32.7540 C   0  0  0  0  0  0  0  0  0  0  0  0
   -6.0240   18.4120  -32.9690 C   0  0  0  0  0  0  0  0  0  0  0  0
   -5.9290   19.7970  -32.7880 C   0  0  0  0  0  0  0  0  0  0  0  0
   -4.3850   20.5840  -33.0910 Cl  0  0  0  0  0  0  0  0  0  0  0  0
   -7.1181   24.5617  -31.8535 H   0  0  0  0  0  0  0  0  0  0  0  0
   -8.2866   24.5351  -30.4650 H   0  0  0  0  0  0  0  0  0  0  0  0
   -6.2758   25.4419  -29.5895 H   0  0  0  0  0  0  0  0  0  0  0  0
   -6.3419   23.7079  -29.0438 H   0  0  0  0  0  0  0  0  0  0  0  0
   -3.4407   24.5367  -28.0114 H   0  0  0  0  0  0  0  0  0  0  0  0
   -2.1704   23.0271  -26.4827 H   0  0  0  0  0  0  0  0  0  0  0  0
   -1.7278   20.6600  -27.1464 H   0  0  0  0  0  0  0  0  0  0  0  0
   -2.5587   19.8016  -29.3403 H   0  0  0  0  0  0  0  0  0  0  0  0
   -3.8255   21.3092  -30.8747 H   0  0  0  0  0  0  0  0  0  0  0  0
   -6.4970   22.5360  -32.9140 H   0  0  0  0  0  0  0  0  0  0  0  0
   -9.1658   20.4221  -31.8474 H   0  0  0  0  0  0  0  0  0  0  0  0
   -9.3142   17.9555  -32.1775 H   0  0  0  0  0  0  0  0  0  0  0  0
   -7.3047   16.6661  -32.9014 H   0  0  0  0  0  0  0  0  0  0  0  0
   -5.1387   17.8393  -33.2824 H   0  0  0  0  0  0  0  0  0  0  0  0
  1  2  2  0
  2  3  1  0
  3  4  1  0
  4  5  1  0
  5  6  2  0
  5  7  2  0
  5  8  1  0
  8  9  2  0
  9 10  1  0
 10 11  2  0
 11 12  1  0
 12 13  2  0
  2 14  1  0
 14 15  1  0
 15 16  2  0
 16 17  1  0
 17 18  2  0
 18 19  1  0
 19 20  2  0
 20 21  1  0
 13  8  1  0
 20 15  1  0
  3 22  1  0
  3 23  1  0
  4 24  1  0
  4 25  1  0
  9 26  1  0
 10 27  1  0
 11 28  1  0
 12 29  1  0
 13 30  1  0
 14 31  1  0
 16 32  1  0
 17 33  1  0
 18 34  1  0
 19 35  1  0
M  END
>  <UniqueID>  (1) 
1

>  <SMILES>  (1) 
O=C(CCS(=O)(=O)c1ccccc1)Nc1ccccc1Cl

>  <Energy>  (1) 
34.04620614715866

>  <Genealogy>  (1) 
O=C(CCS(=O)(=O)c1ccccc1)Nc1ccccc1Cl (3D coordinates assigned)
O=C(CCS(=O)(=O)c1ccccc1)Nc1ccccc1Cl (optimized conformer: 34.04620614715866 kcal/mol)

>  <smiles>  (1) 
O=C(CCS(=O)(=O)c1ccccc1)Nc1ccccc1Cl

>  <score_type>  (1) 
oracle

>  <origin>  (1) 
adgpu

>  <m_score__min__energy>  (1) 
-9

>  <m_primary>  (1) 
energy

$$$$
1:0
     RDKit          3D

 36 38  0  0  0  0  0  0  0  0999 V2000
   -1.8872   22.4144  -31.3755 H   0  0  0  0  0  0  0  0  0  0  0  0
   -2.5200   21.7320  -31.9620 C   0  0  0  0  0  0  0  0  0  0  0  0
   -1.9850   20.3890  -32.8250 S   0  0  0  0  0  0  0  0  0  0  0  0
   -3.5210   19.9890  -33.3610 C   0  0  0  0  0  0  0  0  0  0  0  0
   -3.7680   18.9650  -34.1230 N   0  0  0  0  0  0  0  0  0  0  0  0
   -5.0880   18.5460  -34.5950 C   0  0  0  0  0  0  0  0  0  0  0  0
   -4.9688   17.9611  -35.5190 H   0  0  0  0  0  0  0  0  0  0  0  0
   -5.6923   19.4466  -34.7788 H   0  0  0  0  0  0  0  0  0  0  0  0
   -5.8090   17.6850  -33.5480 C   0  0  0  0  0  0  0  0  0  0  0  0
   -5.0929   17.4046  -32.7615 H   0  0  0  0  0  0  0  0  0  0  0  0
   -6.2079   16.7919  -34.0513 H   0  0  0  0  0  0  0  0  0  0  0  0
   -6.9600   18.4270  -32.9200 C   0  0  0  0  0  0  0  0  0  0  0  0
   -7.2670   19.7370  -33.3270 C   0  0  0  0  0  0  0  0  0  0  0  0
   -6.6809   20.2138  -34.1264 H   0  0  0  0  0  0  0  0  0  0  0  0
   -8.3140   20.4360  -32.7200 C   0  0  0  0  0  0  0  0  0  0  0  0
   -8.5531   21.4591  -33.0456 H   0  0  0  0  0  0  0  0  0  0  0  0
   -9.0580   19.8360  -31.6990 C   0  0  0  0  0  0  0  0  0  0  0  0
   -9.8838   20.3860  -31.2241 H   0  0  0  0  0  0  0  0  0  0  0  0
   -8.7520   18.5370  -31.2820 C   0  0  0  0  0  0  0  0  0  0  0  0
   -9.3364   18.0665  -30.4776 H   0  0  0  0  0  0  0  0  0  0  0  0
   -7.7040   17.8350  -31.8860 C   0  0  0  0  0  0  0  0  0  0  0  0
   -7.4615   16.8159  -31.5503 H   0  0  0  0  0  0  0  0  0  0  0  0
   -4.4520   20.8580  -32.9020 N   0  0  0  0  0  0  0  0  0  0  0  0
   -5.4660   20.8150  -33.1440 H   0  0  0  0  0  0  0  0  0  0  0  0
   -3.9060   21.8320  -32.1180 C   0  0  0  0  0  0  0  0  0  0  0  0
   -4.7220   22.8970  -31.4860 C   0  0  0  0  0  0  0  0  0  0  0  0
   -4.1260   23.8350  -30.6210 C   0  0  0  0  0  0  0  0  0  0  0  0
   -3.0474   23.7776  -30.4127 H   0  0  0  0  0  0  0  0  0  0  0  0
   -4.8960   24.8390  -30.0250 C   0  0  0  0  0  0  0  0  0  0  0  0
   -4.4217   25.5664  -29.3498 H   0  0  0  0  0  0  0  0  0  0  0  0
   -6.2650   24.9200  -30.2850 C   0  0  0  0  0  0  0  0  0  0  0  0
   -6.8686   25.7099  -29.8142 H   0  0  0  0  0  0  0  0  0  0  0  0
   -6.8680   23.9980  -31.1430 C   0  0  0  0  0  0  0  0  0  0  0  0
   -7.9467   24.0630  -31.3482 H   0  0  0  0  0  0  0  0  0  0  0  0
   -6.1030   22.9920  -31.7420 C   0  0  0  0  0  0  0  0  0  0  0  0
   -6.5839   22.2698  -32.4181 H   0  0  0  0  0  0  0  0  0  0  0  0
  1  2  1  0
  2  3  1  0
  3  4  1  0
  4  5  2  0
  5  6  1  0
  6  7  1  0
  6  8  1  0
  6  9  1  0
  9 10  1  0
  9 11  1  0
  9 12  1  0
 12 13  2  0
 13 14  1  0
 13 15  1  0
 15 16  1  0
 15 17  2  0
 17 18  1  0
 17 19  1  0
 19 20  1  0
 19 21  2  0
 21 22  1  0
  4 23  1  0
 23 24  1  0
 23 25  1  0
 25 26  1  0
 26 27  2  0
 27 28  1  0
 27 29  1  0
 29 30  1  0
 29 31  2  0
 31 32  1  0
 31 33  1  0
 33 34  1  0
 33 35  2  0
 35 36  1  0
 25  2  2  0
 35 26  1  0
 21 12  1  0
M  END
>  <UniqueID>  (2) 
2

>  <SMILES>  (2) 
c1ccc(CC/N=c2\[nH]c(-c3ccccc3)cs2)cc1

>  <Energy>  (2) 
68.99599878778183

>  <Genealogy>  (2) 
c1ccc(CC/N=c2\[nH]c(-c3ccccc3)cs2)cc1 (cis-trans isomerization)
c1ccc(CC/N=c2\[nH]c(-c3ccccc3)cs2)cc1 (3D coordinates assigned)
c1ccc(CC/N=c2\[nH]c(-c3ccccc3)cs2)cc1 (optimized conformer: 68.99599878778183 kcal/mol)

>  <smiles>  (2) 
c1ccc(CCN=c2[nH]c(-c3ccccc3)cs2)cc1

>  <score_type>  (2) 
oracle

>  <origin>  (2) 
adgpu

>  <m_score__min__energy>  (2) 
-7.4100000000000001

>  <m_primary>  (2) 
energy

$$$$
2:0
     RDKit          3D

 37 39  0  0  0  0  0  0  0  0999 V2000
   -0.1780   19.6070  -32.7440 C   0  0  0  0  0  0  0  0  0  0  0  0
   -1.1990   20.1810  -34.0850 S   0  0  0  0  0  0  0  0  0  0  0  0
   -1.7110   21.5510  -33.7400 O   0  0  0  0  0  0  0  0  0  0  0  0
   -0.3980   20.2710  -35.3530 O   0  0  0  0  0  0  0  0  0  0  0  0
   -2.5510   19.1170  -34.3080 N   0  0  0  0  0  0  0  0  0  0  0  0
   -3.7410   19.1290  -33.4970 C   0  0  0  0  0  0  0  0  0  0  0  0
   -4.3910   17.9440  -33.1060 C   0  0  0  0  0  0  0  0  0  0  0  0
   -5.5490   17.9970  -32.3240 C   0  0  0  0  0  0  0  0  0  0  0  0
   -6.0710   19.2270  -31.9240 C   0  0  0  0  0  0  0  0  0  0  0  0
   -5.4340   20.4160  -32.3020 C   0  0  0  0  0  0  0  0  0  0  0  0
   -5.9940   21.7210  -31.8960 C   0  0  0  0  0  0  0  0  0  0  0  0
   -7.3840   21.8950  -31.9600 C   0  0  0  0  0  0  0  0  0  0  0  0
   -7.9640   23.1110  -31.6010 C   0  0  0  0  0  0  0  0  0  0  0  0
   -7.1640   24.1730  -31.1830 C   0  0  0  0  0  0  0  0  0  0  0  0
   -5.7700   24.0240  -31.1160 C   0  0  0  0  0  0  0  0  0  0  0  0
   -5.1700   22.7900  -31.4610 C   0  0  0  0  0  0  0  0  0  0  0  0
   -3.6520   22.6900  -31.4990 C   0  0  0  0  0  0  0  0  0  0  0  0
   -3.0050   23.5510  -30.4080 C   0  0  0  0  0  0  0  0  0  0  0  0
   -3.5200   24.9150  -30.4630 N   0  0  0  0  0  0  0  0  0  0  0  0
   -4.9090   25.1480  -30.6910 C   0  0  0  0  0  0  0  0  0  0  0  0
   -5.3760   26.3100  -30.5480 O   0  0  0  0  0  0  0  0  0  0  0  0
   -4.2800   20.3640  -33.0960 C   0  0  0  0  0  0  0  0  0  0  0  0
   -0.6486   19.8716  -31.7856 H   0  0  0  0  0  0  0  0  0  0  0  0
   -0.0674   18.5145  -32.8090 H   0  0  0  0  0  0  0  0  0  0  0  0
    0.8128   20.0803  -32.8090 H   0  0  0  0  0  0  0  0  0  0  0  0
   -2.5130   18.4790  -35.1340 H   0  0  0  0  0  0  0  0  0  0  0  0
   -3.9858   16.9699  -33.4174 H   0  0  0  0  0  0  0  0  0  0  0  0
   -6.0501   17.0651  -32.0232 H   0  0  0  0  0  0  0  0  0  0  0  0
   -6.9837   19.2634  -31.3111 H   0  0  0  0  0  0  0  0  0  0  0  0
   -8.0224   21.0648  -32.2964 H   0  0  0  0  0  0  0  0  0  0  0  0
   -9.0563   23.2326  -31.6478 H   0  0  0  0  0  0  0  0  0  0  0  0
   -7.6268   25.1313  -30.9046 H   0  0  0  0  0  0  0  0  0  0  0  0
   -3.3590   21.6407  -31.3470 H   0  0  0  0  0  0  0  0  0  0  0  0
   -3.3063   23.0552  -32.4773 H   0  0  0  0  0  0  0  0  0  0  0  0
   -3.2316   23.1177  -29.4226 H   0  0  0  0  0  0  0  0  0  0  0  0
   -1.9173   23.5739  -30.5704 H   0  0  0  0  0  0  0  0  0  0  0  0
   -3.7913   21.2987  -33.4084 H   0  0  0  0  0  0  0  0  0  0  0  0
  1  2  1  0
  2  3  2  0
  2  4  2  0
  2  5  1  0
  5  6  1  0
  6  7  2  0
  7  8  1  0
  8  9  2  0
  9 10  1  0
 10 11  1  0
 11 12  2  0
 12 13  1  0
 13 14  2  0
 14 15  1  0
 15 16  2  0
 16 17  1  0
 17 18  1  0
 18 19  1  0
 19 20  1  0
 20 21  2  0
 10 22  2  0
 22  6  1  0
 16 11  1  0
 20 15  1  0
  1 23  1  0
  1 24  1  0
  1 25  1  0
  5 26  1  0
  7 27  1  0
  8 28  1  0
  9 29  1  0
 12 30  1  0
 13 31  1  0
 14 32  1  0
 17 33  1  0
 17 34  1  0
 18 35  1  0
 18 36  1  0
 22 37  1  0
M  CHG  1  19  -1
M  END
>  <UniqueID>  (3) 
3

>  <SMILES>  (3) 
CS(=O)(=O)Nc1cccc(-c2cccc3c2CC[N-]C3=O)c1

>  <Energy>  (3) 
47.44925867719623

>  <Genealogy>  (3) 
CS(=O)(=O)Nc1cccc(-c2cccc3c2CC[N-]C3=O)c1 (protonated)
CS(=O)(=O)Nc1cccc(-c2cccc3c2CC[N-]C3=O)c1 (3D coordinates assigned)
CS(=O)(=O)Nc1cccc(-c2cccc3c2CC[N-]C3=O)c1 (nonaromatic ring conformer: 47.44925867719623 kcal/mol)

>  <smiles>  (3) 
CS(=O)(=O)Nc1cccc(-c2cccc3c2CCNC3=O)c1

>  <score_type>  (3) 
oracle

>  <origin>  (3) 
adgpu

>  <m_score__min__energy>  (3) 
-9.8399999999999999

>  <m_primary>  (3) 
energy

$$$$
3:0
     RDKit          3D

 35 36  0  0  0  0  0  0  0  0999 V2000
   -1.1860   26.3047  -28.7508 H   0  0  0  0  0  0  0  0  0  0  0  0
   -1.1220   25.7730  -27.7900 C   0  0  0  0  0  0  0  0  0  0  0  0
   -0.7570   26.4680  -26.6330 C   0  0  0  0  0  0  0  0  0  0  0  0
   -0.5472   27.5464  -26.6877 H   0  0  0  0  0  0  0  0  0  0  0  0
   -0.6560   25.8000  -25.4010 C   0  0  0  0  0  0  0  0  0  0  0  0
   -0.2640   26.5430  -24.1770 C   0  0  0  0  0  0  0  0  0  0  0  0
    0.7940   26.0460  -23.3480 N   0  0  0  0  0  0  0  0  0  0  0  0
    1.2330   25.1180  -23.5330 H   0  0  0  0  0  0  0  0  0  0  0  0
    1.1100   26.5820  -22.5090 H   0  0  0  0  0  0  0  0  0  0  0  0
   -0.8680   27.6480  -23.8500 N   0  0  0  0  0  0  0  0  0  0  0  0
   -0.5960   28.1690  -22.9870 H   0  0  0  0  0  0  0  0  0  0  0  0
   -1.6190   28.0610  -24.4460 H   0  0  0  0  0  0  0  0  0  0  0  0
   -0.9080   24.4180  -25.3540 C   0  0  0  0  0  0  0  0  0  0  0  0
   -0.8190   23.8788  -24.3994 H   0  0  0  0  0  0  0  0  0  0  0  0
   -1.2710   23.7240  -26.5120 C   0  0  0  0  0  0  0  0  0  0  0  0
   -1.4505   22.6398  -26.4641 H   0  0  0  0  0  0  0  0  0  0  0  0
   -1.4080   24.3960  -27.7310 C   0  0  0  0  0  0  0  0  0  0  0  0
   -1.7520   23.6370  -28.9030 N   0  0  0  0  0  0  0  0  0  0  0  0
   -2.8610   23.7060  -29.5810 C   0  0  0  0  0  0  0  0  0  0  0  0
   -3.8940   24.4900  -29.1650 N   0  0  0  0  0  0  0  0  0  0  0  0
   -5.0670   24.5530  -29.8490 C   0  0  0  0  0  0  0  0  0  0  0  0
   -6.1550   25.4500  -29.3430 C   0  0  0  0  0  0  0  0  0  0  0  0
   -6.1510   25.4467  -28.2430 H   0  0  0  0  0  0  0  0  0  0  0  0
   -5.9851   26.4739  -29.7072 H   0  0  0  0  0  0  0  0  0  0  0  0
   -7.1278   25.0880  -29.7072 H   0  0  0  0  0  0  0  0  0  0  0  0
   -5.2270   23.7790  -31.0090 C   0  0  0  0  0  0  0  0  0  0  0  0
   -6.7460   23.8020  -31.9750 S   0  0  0  0  0  0  0  0  0  0  0  0
   -7.5690   22.5490  -30.9430 C   0  0  0  0  0  0  0  0  0  0  0  0
   -7.4120   22.7881  -29.8808 H   0  0  0  0  0  0  0  0  0  0  0  0
   -8.6469   22.5439  -31.1622 H   0  0  0  0  0  0  0  0  0  0  0  0
   -7.1455   21.5577  -31.1622 H   0  0  0  0  0  0  0  0  0  0  0  0
   -4.1600   22.9780  -31.4220 C   0  0  0  0  0  0  0  0  0  0  0  0
   -4.2540   22.3672  -32.3320 H   0  0  0  0  0  0  0  0  0  0  0  0
   -3.0070   22.9500  -30.7050 N   0  0  0  0  0  0  0  0  0  0  0  0
   -2.2240   22.3370  -31.0280 H   0  0  0  0  0  0  0  0  0  0  0  0
  1  2  1  0
  2  3  2  0
  3  4  1  0
  3  5  1  0
  5  6  1  0
  6  7  1  0
  7  8  1  0
  7  9  1  0
  6 10  2  0
 10 11  1  0
 10 12  1  0
  5 13  2  0
 13 14  1  0
 13 15  1  0
 15 16  1  0
 15 17  2  0
 17 18  1  0
 18 19  2  0
 19 20  1  0
 20 21  2  0
 21 22  1  0
 22 23  1  0
 22 24  1  0
 22 25  1  0
 21 26  1  0
 26 27  1  0
 27 28  1  0
 28 29  1  0
 28 30  1  0
 28 31  1  0
 26 32  2  0
 32 33  1  0
 32 34  1  0
 34 35  1  0
 17  2  1  0
 34 19  1  0
M  CHG  1  10   1
M  END
>  <UniqueID>  (4) 
4

>  <SMILES>  (4) 
CSc1c[nH]/c(=N/c2ccc(C(N)=[NH2+])cc2)nc1C

>  <Energy>  (4) 
39.5513364434728

>  <Genealogy>  (4) 
CSc1c[nH]c(=Nc2ccc(C(N)=[NH2+])cc2)nc1C (protonated)
CSc1c[nH]/c(=N/c2ccc(C(N)=[NH2+])cc2)nc1C (cis-trans isomerization)
CSc1c[nH]/c(=N/c2ccc(C(N)=[NH2+])cc2)nc1C (3D coordinates assigned)
CSc1c[nH]/c(=N/c2ccc(C(N)=[NH2+])cc2)nc1C (optimized conformer: 39.5513364434728 kcal/mol)

>  <smiles>  (4) 
CSc1c[nH]c(=Nc2ccc(C(=N)N)cc2)nc1C

>  <score_type>  (4) 
oracle

>  <origin>  (4) 
adgpu

>  <m_score__min__energy>  (4) 
-7.5300000000000002

>  <m_primary>  (4) 
energy

$$$$
4:0
     RDKit          3D

 17 17  0  0  0  0  0  0  0  0999 V2000
   -8.5570   22.1950  -31.2910 C   0  0  0  0  0  0  0  0  0  0  0  0
   -7.1360   22.6980  -31.1800 C   0  0  0  0  0  0  0  0  0  0  0  0
   -6.1280   21.8140  -31.5700 C   0  0  0  0  0  0  0  0  0  0  0  0
   -4.7550   22.0050  -31.5760 C   0  0  0  0  0  0  0  0  0  0  0  0
   -4.0300   23.1260  -31.2030 C   0  0  0  0  0  0  0  0  0  0  0  0
   -4.4830   24.3650  -30.7590 C   0  0  0  0  0  0  0  0  0  0  0  0
   -3.4890   25.2990  -30.4710 O   0  0  0  0  0  0  0  0  0  0  0  0
   -5.8080   24.7770  -30.5760 C   0  0  0  0  0  0  0  0  0  0  0  0
   -5.9780   25.9640  -30.1850 O   0  0  0  0  0  0  0  0  0  0  0  0
   -6.9710   24.0270  -30.7720 C   0  0  0  0  0  0  0  0  0  0  0  0
   -8.9735   22.0476  -30.2836 H   0  0  0  0  0  0  0  0  0  0  0  0
   -9.1655   22.9324  -31.8351 H   0  0  0  0  0  0  0  0  0  0  0  0
   -8.5661   21.2390  -31.8351 H   0  0  0  0  0  0  0  0  0  0  0  0
   -6.4709   20.8296  -31.9212 H   0  0  0  0  0  0  0  0  0  0  0  0
   -4.1587   21.1490  -31.9248 H   0  0  0  0  0  0  0  0  0  0  0  0
   -2.9369   23.0211  -31.2673 H   0  0  0  0  0  0  0  0  0  0  0  0
   -7.9078   24.5683  -30.5737 H   0  0  0  0  0  0  0  0  0  0  0  0
  1  2  1  0
  2  3  1  0
  3  4  2  0
  4  5  1  0
  5  6  2  0
  6  7  1  0
  6  8  1  0
  8  9  2  0
  8 10  1  0
 10  2  2  0
  1 11  1  0
  1 12  1  0
  1 13  1  0
  3 14  1  0
  4 15  1  0
  5 16  1  0
 10 17  1  0
M  CHG  1   7  -1
M  END
>  <UniqueID>  (5) 
5

>  <SMILES>  (5) 
Cc1cccc([O-])c(=O)c1

>  <Energy>  (5) 
34.79587820459496

>  <Genealogy>  (5) 
Cc1cccc([O-])c(=O)c1 (protonated)
Cc1cccc([O-])c(=O)c1 (3D coordinates assigned)
Cc1cccc([O-])c(=O)c1 (optimized conformer: 34.79587820459496 kcal/mol)

>  <smiles>  (5) 
Cc1cccc(O)c(=O)c1

>  <score_type>  (5) 
oracle

>  <origin>  (5) 
adgpu

>  <m_score__min__energy>  (5) 
-8.0899999999999999

>  <m_primary>  (5) 
energy

$$$$
5:0
     RDKit          3D

 47 49  0  0  0  0  0  0  0  0999 V2000
   -0.3070   29.4730  -27.1040 C   0  0  0  0  0  0  0  0  0  0  0  0
    0.3520   28.0930  -27.2250 C   0  0  0  0  0  0  0  0  0  0  0  0
    1.7230   28.0610  -26.5360 C   0  0  0  0  0  0  0  0  0  0  0  0
   -0.5620   26.9830  -26.7240 C   0  0  0  0  0  0  0  0  0  0  0  0
   -0.5860   26.6980  -25.3470 C   0  0  0  0  0  0  0  0  0  0  0  0
   -1.3970   25.6830  -24.8430 C   0  0  0  0  0  0  0  0  0  0  0  0
   -2.2070   24.9410  -25.7000 C   0  0  0  0  0  0  0  0  0  0  0  0
   -2.2210   25.2090  -27.0770 C   0  0  0  0  0  0  0  0  0  0  0  0
   -3.1030   24.4090  -27.9610 C   0  0  0  0  0  0  0  0  0  0  0  0
   -3.8290   23.5080  -27.4570 O   0  0  0  0  0  0  0  0  0  0  0  0
   -3.1930   24.6980  -29.3650 N   0  0  0  0  0  0  0  0  0  0  0  0
   -3.6990   23.7740  -30.3430 C   0  0  0  0  0  0  0  0  0  0  0  0
   -2.9070   22.6850  -30.7360 C   0  0  0  0  0  0  0  0  0  0  0  0
   -3.3850   21.7590  -31.6680 C   0  0  0  0  0  0  0  0  0  0  0  0
   -4.6670   21.9050  -32.2170 C   0  0  0  0  0  0  0  0  0  0  0  0
   -5.1980   20.8860  -33.1890 C   0  0  0  0  0  0  0  0  0  0  0  0
   -6.3870   20.1750  -32.6000 C   0  0  0  0  0  0  0  0  0  0  0  0
   -7.6350   20.8090  -32.5400 C   0  0  0  0  0  0  0  0  0  0  0  0
   -8.7340   20.1180  -32.0230 C   0  0  0  0  0  0  0  0  0  0  0  0
   -8.5920   18.8370  -31.5910 N   0  0  0  0  0  0  0  0  0  0  0  0
   -7.3950   18.1940  -31.6470 C   0  0  0  0  0  0  0  0  0  0  0  0
   -6.2710   18.8490  -32.1570 C   0  0  0  0  0  0  0  0  0  0  0  0
   -5.4760   22.9740  -31.8010 C   0  0  0  0  0  0  0  0  0  0  0  0
   -4.9970   23.9010  -30.8710 C   0  0  0  0  0  0  0  0  0  0  0  0
   -1.3800   26.2200  -27.5940 C   0  0  0  0  0  0  0  0  0  0  0  0
   -1.3370   26.4460  -28.9670 O   0  0  0  0  0  0  0  0  0  0  0  0
   -0.4293   29.7290  -26.0412 H   0  0  0  0  0  0  0  0  0  0  0  0
    0.3283   30.2268  -27.5920 H   0  0  0  0  0  0  0  0  0  0  0  0
   -1.2926   29.4527  -27.5920 H   0  0  0  0  0  0  0  0  0  0  0  0
    0.5226   27.9059  -28.2955 H   0  0  0  0  0  0  0  0  0  0  0  0
    1.5851   28.0642  -25.4447 H   0  0  0  0  0  0  0  0  0  0  0  0
    2.2623   27.1500  -26.8347 H   0  0  0  0  0  0  0  0  0  0  0  0
    2.3042   28.9458  -26.8347 H   0  0  0  0  0  0  0  0  0  0  0  0
    0.0428   27.2831  -24.6598 H   0  0  0  0  0  0  0  0  0  0  0  0
   -1.3977   25.4668  -23.7645 H   0  0  0  0  0  0  0  0  0  0  0  0
   -2.8405   24.1387  -25.2938 H   0  0  0  0  0  0  0  0  0  0  0  0
   -2.9750   25.6720  -29.6750 H   0  0  0  0  0  0  0  0  0  0  0  0
   -1.9018   22.5586  -30.3075 H   0  0  0  0  0  0  0  0  0  0  0  0
   -2.7525   20.9120  -31.9720 H   0  0  0  0  0  0  0  0  0  0  0  0
   -5.5009   21.3927  -34.1172 H   0  0  0  0  0  0  0  0  0  0  0  0
   -4.4095   20.1495  -33.4030 H   0  0  0  0  0  0  0  0  0  0  0  0
   -7.7488   21.8431  -32.8973 H   0  0  0  0  0  0  0  0  0  0  0  0
   -9.7155   20.6114  -31.9655 H   0  0  0  0  0  0  0  0  0  0  0  0
   -7.3115   17.1568  -31.2903 H   0  0  0  0  0  0  0  0  0  0  0  0
   -5.3031   18.3291  -32.2107 H   0  0  0  0  0  0  0  0  0  0  0  0
   -6.4918   23.0827  -32.2088 H   0  0  0  0  0  0  0  0  0  0  0  0
   -5.6386   24.7348  -30.5500 H   0  0  0  0  0  0  0  0  0  0  0  0
  1  2  1  0
  2  3  1  0
  2  4  1  0
  4  5  2  0
  5  6  1  0
  6  7  2  0
  7  8  1  0
  8  9  1  0
  9 10  2  0
  9 11  1  0
 11 12  1  0
 12 13  2  0
 13 14  1  0
 14 15  2  0
 15 16  1  0
 16 17  1  0
 17 18  2  0
 18 19  1  0
 19 20  2  0
 20 21  1  0
 21 22  2  0
 15 23  1  0
 23 24  2  0
  8 25  2  0
 25 26  1  0
 25  4  1  0
 24 12  1  0
 22 17  1  0
  1 27  1  0
  1 28  1  0
  1 29  1  0
  2 30  1  0
  3 31  1  0
  3 32  1  0
  3 33  1  0
  5 34  1  0
  6 35  1  0
  7 36  1  0
 11 37  1  0
 13 38  1  0
 14 39  1  0
 16 40  1  0
 16 41  1  0
 18 42  1  0
 19 43  1  0
 21 44  1  0
 22 45  1  0
 23 46  1  0
 24 47  1  0
M  CHG  1  26  -1
M  END
>  <UniqueID>  (6) 
6

>  <SMILES>  (6) 
CC(C)c1cccc(C(=O)Nc2ccc(Cc3ccncc3)cc2)c1[O-]

>  <Energy>  (6) 
54.85284136221964

>  <Genealogy>  (6) 
CC(C)c1cccc(C(=O)Nc2ccc(Cc3ccncc3)cc2)c1[O-] (protonated)
CC(C)c1cccc(C(=O)Nc2ccc(Cc3ccncc3)cc2)c1[O-] (3D coordinates assigned)
CC(C)c1cccc(C(=O)Nc2ccc(Cc3ccncc3)cc2)c1[O-] (optimized conformer: 54.85284136221964 kcal/mol)

>  <smiles>  (6) 
CC(C)c1cccc(C(=O)Nc2ccc(Cc3ccncc3)cc2)c1O

>  <score_type>  (6) 
oracle

>  <origin>  (6) 
adgpu

>  <m_score__min__energy>  (6) 
-11

>  <m_primary>  (6) 
energy

$$$$
6:0
     RDKit          3D

 36 38  0  0  0  0  0  0  0  0999 V2000
   -6.8600   19.1650  -35.4260 H   0  0  0  0  0  0  0  0  0  0  0  0
   -6.2520   19.2080  -34.6170 O   0  0  0  0  0  0  0  0  0  0  0  0
   -6.5860   19.9620  -33.4940 C   0  0  0  0  0  0  0  0  0  0  0  0
   -5.5960   20.6350  -32.7660 C   0  0  0  0  0  0  0  0  0  0  0  0
   -4.5445   20.5741  -33.0832 H   0  0  0  0  0  0  0  0  0  0  0  0
   -5.9420   21.3840  -31.6370 C   0  0  0  0  0  0  0  0  0  0  0  0
   -5.1634   21.9258  -31.0800 H   0  0  0  0  0  0  0  0  0  0  0  0
   -7.2810   21.4480  -31.2100 C   0  0  0  0  0  0  0  0  0  0  0  0
   -7.6880   22.2570  -30.0410 C   0  0  0  0  0  0  0  0  0  0  0  0
   -8.5447   21.9089  -29.4453 H   0  0  0  0  0  0  0  0  0  0  0  0
   -7.0950   23.3550  -29.6740 N   0  0  0  0  0  0  0  0  0  0  0  0
   -5.9190   23.8520  -30.2610 N   0  0  0  0  0  0  0  0  0  0  0  0
   -5.8570   24.8730  -31.1300 C   0  0  0  0  0  0  0  0  0  0  0  0
   -6.7144   25.2600  -31.7002 H   0  0  0  0  0  0  0  0  0  0  0  0
   -4.6040   25.3600  -31.2100 N   0  0  0  0  0  0  0  0  0  0  0  0
   -3.8610   24.6780  -30.3470 N   0  0  0  0  0  0  0  0  0  0  0  0
   -4.6700   23.7740  -29.7640 C   0  0  0  0  0  0  0  0  0  0  0  0
   -4.1790   22.7690  -28.3630 S   0  0  0  0  0  0  0  0  0  0  0  0
   -4.2020   24.1550  -27.1810 C   0  0  0  0  0  0  0  0  0  0  0  0
   -4.9168   24.9174  -27.5242 H   0  0  0  0  0  0  0  0  0  0  0  0
   -4.5057   23.7861  -26.1902 H   0  0  0  0  0  0  0  0  0  0  0  0
   -2.8310   24.7600  -27.0900 C   0  0  0  0  0  0  0  0  0  0  0  0
   -2.4850   25.5730  -25.9980 C   0  0  0  0  0  0  0  0  0  0  0  0
   -3.2286   25.7866  -25.2160 H   0  0  0  0  0  0  0  0  0  0  0  0
   -1.1970   26.1120  -25.9020 C   0  0  0  0  0  0  0  0  0  0  0  0
   -0.9327   26.7548  -25.0493 H   0  0  0  0  0  0  0  0  0  0  0  0
   -0.2470   25.8350  -26.8870 C   0  0  0  0  0  0  0  0  0  0  0  0
    0.7634   26.2633  -26.8121 H   0  0  0  0  0  0  0  0  0  0  0  0
   -0.5790   25.0140  -27.9680 C   0  0  0  0  0  0  0  0  0  0  0  0
    0.1717   24.7938  -28.7413 H   0  0  0  0  0  0  0  0  0  0  0  0
   -1.8640   24.4720  -28.0680 C   0  0  0  0  0  0  0  0  0  0  0  0
   -2.1188   23.8180  -28.9150 H   0  0  0  0  0  0  0  0  0  0  0  0
   -8.2700   20.7990  -31.9650 C   0  0  0  0  0  0  0  0  0  0  0  0
   -9.3258   20.8782  -31.6665 H   0  0  0  0  0  0  0  0  0  0  0  0
   -7.9210   20.0520  -33.0950 C   0  0  0  0  0  0  0  0  0  0  0  0
   -8.7013   19.5335  -33.6715 H   0  0  0  0  0  0  0  0  0  0  0  0
  1  2  1  0
  2  3  1  0
  3  4  2  0
  4  5  1  0
  4  6  1  0
  6  7  1  0
  6  8  2  0
  8  9  1  0
  9 10  1  0
  9 11  2  0
 11 12  1  0
 12 13  1  0
 13 14  1  0
 13 15  2  0
 15 16  1  0
 16 17  2  0
 17 18  1  0
 18 19  1  0
 19 20  1  0
 19 21  1  0
 19 22  1  0
 22 23  2  0
 23 24  1  0
 23 25  1  0
 25 26  1  0
 25 27  2  0
 27 28  1  0
 27 29  1  0
 29 30  1  0
 29 31  2  0
 31 32  1  0
  8 33  1  0
 33 34  1  0
 33 35  2  0
 35 36  1  0
 35  3  1  0
 17 12  1  0
 31 22  1  0
M  END
>  <UniqueID>  (7) 
7

>  <SMILES>  (7) 
Oc1ccc(/C=N\n2cnnc2SCc2ccccc2)cc1

>  <Energy>  (7) 
80.50925641111002

>  <Genealogy>  (7) 
Oc1ccc(/C=N\n2cnnc2SCc2ccccc2)cc1 (cis-trans isomerization)
Oc1ccc(/C=N\n2cnnc2SCc2ccccc2)cc1 (3D coordinates assigned)
Oc1ccc(/C=N\n2cnnc2SCc2ccccc2)cc1 (optimized conformer: 80.50925641111002 kcal/mol)

>  <smiles>  (7) 
Oc1ccc(C=Nn2cnnc2SCc2ccccc2)cc1

>  <score_type>  (7) 
oracle

>  <origin>  (7) 
adgpu

>  <m_score__min__energy>  (7) 
-7.9800000000000004

>  <m_primary>  (7) 
energy

$$$$
7:0
     RDKit          3D

 53 56  0  0  1  0  0  0  0  0999 V2000
   -8.1900   18.6400  -32.3110 C   0  0  0  0  0  0  0  0  0  0  0  0
   -8.1040   20.1080  -32.1840 C   0  0  0  0  0  0  0  0  0  0  0  0
   -9.2660   20.8540  -32.0560 C   0  0  0  0  0  0  0  0  0  0  0  0
   -9.2690   22.2260  -31.9320 C   0  0  0  0  0  0  0  0  0  0  0  0
   -8.0410   22.8510  -31.9390 C   0  0  0  0  0  0  0  0  0  0  0  0
   -6.8740   22.1020  -32.0670 C   0  0  0  0  0  0  0  0  0  0  0  0
   -6.8660   20.7370  -32.1900 C   0  0  0  0  0  0  0  0  0  0  0  0
   -5.7170   19.9310  -32.3220 N   0  0  0  0  0  0  0  0  0  0  0  0
   -4.4690   20.3300  -32.8450 C   0  0  0  0  0  0  0  0  0  0  0  0
   -4.2340   21.4710  -33.2620 O   0  0  0  0  0  0  0  0  0  0  0  0
   -3.3960   19.3830  -32.9090 N   0  0  0  0  0  0  0  0  0  0  0  0
   -2.1610   19.8830  -33.4590 C   0  0  0  0  0  0  0  0  0  0  0  0
   -1.6040   19.3180  -34.5910 C   0  0  0  0  0  0  0  0  0  0  0  0
   -0.4200   19.8440  -35.0650 C   0  0  0  0  0  0  0  0  0  0  0  0
    0.2100   20.8990  -34.4510 C   0  0  0  0  0  0  0  0  0  0  0  0
    1.4300   21.4680  -34.9110 N   0  0  0  0  0  0  0  0  0  0  0  0
    1.3740   22.6310  -35.4670 C   0  0  0  0  0  0  0  0  0  0  0  0
    2.5540   23.1870  -35.9130 C   0  0  0  0  0  0  0  0  0  0  0  0
    2.6190   24.4250  -36.5230 C   0  0  0  0  0  0  0  0  0  0  0  0
    1.4400   25.0800  -36.6620 N   0  0  0  0  0  0  0  0  0  0  0  0
    0.2810   24.5360  -36.2240 C   0  0  0  0  0  0  0  0  0  0  0  0
   -0.7820   25.2550  -36.4120 N   0  0  0  0  0  0  0  0  0  0  0  0
   -0.6860   26.5300  -37.0430 C   0  0  0  0  0  0  0  0  0  0  0  0
   -0.4700   26.6860  -38.3960 C   0  0  0  0  0  0  0  0  0  0  0  0
   -0.3870   27.9490  -38.9440 C   0  0  0  0  0  0  0  0  0  0  0  0
   -0.5250   29.0600  -38.1180 C   0  0  0  0  0  0  0  0  0  0  0  0
   -0.4360   30.2790  -38.7070 F   0  0  0  0  0  0  0  0  0  0  0  0
   -0.7410   28.9360  -36.7690 C   0  0  0  0  0  0  0  0  0  0  0  0
   -0.8220   27.6610  -36.2300 C   0  0  0  0  0  0  0  0  0  0  0  0
    0.2310   23.3230  -35.6280 N   0  0  0  0  0  0  0  0  0  0  0  0
   -0.3680   21.4480  -33.3190 C   0  0  0  0  0  0  0  0  0  0  0  0
   -1.5620   20.9480  -32.8070 C   0  0  0  0  0  0  0  0  0  0  0  0
   -8.2166   18.1862  -31.3093 H   0  0  0  0  0  0  0  0  0  0  0  0
   -9.1054   18.3724  -32.8592 H   0  0  0  0  0  0  0  0  0  0  0  0
   -7.3121   18.2673  -32.8592 H   0  0  0  0  0  0  0  0  0  0  0  0
  -10.2306   20.3254  -32.0534 H   0  0  0  0  0  0  0  0  0  0  0  0
  -10.2054   22.7945  -31.8323 H   0  0  0  0  0  0  0  0  0  0  0  0
   -7.9823   23.9452  -31.8432 H   0  0  0  0  0  0  0  0  0  0  0  0
   -5.9104   22.6325  -32.0695 H   0  0  0  0  0  0  0  0  0  0  0  0
   -5.7710   18.9180  -32.0010 H   0  0  0  0  0  0  0  0  0  0  0  0
   -3.4970   18.3970  -32.5820 H   0  0  0  0  0  0  0  0  0  0  0  0
   -2.0911   18.4729  -35.0995 H   0  0  0  0  0  0  0  0  0  0  0  0
    0.0348   19.4039  -35.9647 H   0  0  0  0  0  0  0  0  0  0  0  0
    3.4862   22.6192  -35.7770 H   0  0  0  0  0  0  0  0  0  0  0  0
    3.5693   24.8531  -36.8745 H   0  0  0  0  0  0  0  0  0  0  0  0
    1.4920   26.0140  -37.1230 H   0  0  0  0  0  0  0  0  0  0  0  0
   -0.3636   25.8006  -39.0401 H   0  0  0  0  0  0  0  0  0  0  0  0
   -0.2135   28.0765  -40.0227 H   0  0  0  0  0  0  0  0  0  0  0  0
   -0.8473   29.8257  -36.1309 H   0  0  0  0  0  0  0  0  0  0  0  0
   -0.9952   27.5371  -35.1508 H   0  0  0  0  0  0  0  0  0  0  0  0
   -0.6580   22.9330  -35.3050 H   0  0  0  0  0  0  0  0  0  0  0  0
    0.1244   22.2932  -32.8159 H   0  0  0  0  0  0  0  0  0  0  0  0
   -2.0181   21.3875  -31.9076 H   0  0  0  0  0  0  0  0  0  0  0  0
  1  2  1  0
  2  3  2  0
  3  4  1  0
  4  5  2  0
  5  6  1  0
  6  7  2  0
  7  8  1  0
  8  9  1  0
  9 10  2  0
  9 11  1  0
 11 12  1  0
 12 13  2  0
 13 14  1  0
 14 15  2  0
 15 16  1  0
 16 17  2  0
 17 18  1  0
 18 19  2  0
 19 20  1  0
 20 21  1  0
 21 22  2  0
 22 23  1  0
 23 24  2  0
 24 25  1  0
 25 26  2  0
 26 27  1  0
 26 28  1  0
 28 29  2  0
 21 30  1  0
 15 31  1  0
 31 32  2  0
  7  2  1  0
 32 12  1  0
 30 17  1  0
 29 23  1  0
  1 33  1  0
  1 34  1  0
  1 35  1  0
  3 36  1  0
  4 37  1  0
  5 38  1  0
  6 39  1  0
  8 40  1  0
 11 41  1  0
 13 42  1  0
 14 43  1  0
 18 44  1  0
 19 45  1  0
 20 46  1  0
 24 47  1  0
 25 48  1  0
 28 49  1  0
 29 50  1  0
 30 51  1  0
 31 52  1  0
 32 53  1  0
M  END
>  <smiles>  (8) 
Cc1ccccc1NC(=O)Nc1ccc(N=c2cc[nH]c(=Nc3ccc(F)cc3)[nH]2)cc1

>  <score_type>  (8) 
oracle

>  <origin>  (8) 
adgpu

>  <m_score__min__energy>  (8) 
-9.5899999999999999

>  <m_primary>  (8) 
energy

$$$$
8:0
     RDKit          3D

 59 62  0  0  0  0  0  0  0  0999 V2000
   -4.1160   24.4870  -26.9960 C   0  0  0  0  0  0  0  0  0  0  0  0
   -2.6240   24.1450  -27.0570 C   0  0  0  0  0  0  0  0  0  0  0  0
   -1.8170   25.0930  -26.1640 C   0  0  0  0  0  0  0  0  0  0  0  0
   -2.1380   24.1980  -28.4870 C   0  0  0  0  0  0  0  0  0  0  0  0
   -1.0950   24.8500  -28.7640 O   0  0  0  0  0  0  0  0  0  0  0  0
   -2.9140   23.5950  -29.5880 C   0  0  0  0  0  0  0  0  0  0  0  0
   -3.7120   24.2880  -30.4760 C   0  0  0  0  0  0  0  0  0  0  0  0
   -3.8670   25.6670  -30.5430 O   0  0  0  0  0  0  0  0  0  0  0  0
   -4.3520   23.3590  -31.2650 C   0  0  0  0  0  0  0  0  0  0  0  0
   -5.2510   23.6480  -32.2870 O   0  0  0  0  0  0  0  0  0  0  0  0
   -3.9780   22.1110  -30.9120 N   0  0  0  0  0  0  0  0  0  0  0  0
   -4.4740   20.8880  -31.4890 C   0  0  0  0  0  0  0  0  0  0  0  0
   -5.8490   20.6010  -31.4910 C   0  0  0  0  0  0  0  0  0  0  0  0
   -6.3220   19.4110  -32.0510 C   0  0  0  0  0  0  0  0  0  0  0  0
   -5.4280   18.4880  -32.6190 C   0  0  0  0  0  0  0  0  0  0  0  0
   -5.9200   17.2260  -33.2040 C   0  0  0  0  0  0  0  0  0  0  0  0
   -7.1510   17.0540  -33.7250 N   0  0  0  0  0  0  0  0  0  0  0  0
   -7.2110   15.7960  -34.1360 N   0  0  0  0  0  0  0  0  0  0  0  0
   -6.0140   15.2490  -33.8480 C   0  0  0  0  0  0  0  0  0  0  0  0
   -5.6410   13.8290  -34.1570 C   0  0  0  0  0  0  0  0  0  0  0  0
   -4.9670   13.1850  -32.9430 C   0  0  0  0  0  0  0  0  0  0  0  0
   -6.8770   13.0330  -34.5840 C   0  0  0  0  0  0  0  0  0  0  0  0
   -5.2170   16.1210  -33.2790 O   0  0  0  0  0  0  0  0  0  0  0  0
   -4.0550   18.7770  -32.6190 C   0  0  0  0  0  0  0  0  0  0  0  0
   -3.5820   19.9650  -32.0550 C   0  0  0  0  0  0  0  0  0  0  0  0
   -3.0860   22.2460  -29.8980 C   0  0  0  0  0  0  0  0  0  0  0  0
   -2.4010   21.1150  -29.2380 C   0  0  0  0  0  0  0  0  0  0  0  0
   -3.0370   20.5050  -28.1460 C   0  0  0  0  0  0  0  0  0  0  0  0
   -2.4200   19.4610  -27.4600 C   0  0  0  0  0  0  0  0  0  0  0  0
   -1.1620   19.0120  -27.8580 C   0  0  0  0  0  0  0  0  0  0  0  0
   -0.5260   19.5910  -28.9590 C   0  0  0  0  0  0  0  0  0  0  0  0
   -1.1440   20.6260  -29.6870 C   0  0  0  0  0  0  0  0  0  0  0  0
   -0.4330   21.2090  -30.8970 C   0  0  0  0  0  0  0  0  0  0  0  0
   -1.2330   21.1430  -32.0230 F   0  0  0  0  0  0  0  0  0  0  0  0
   -0.1040   22.5270  -30.6550 F   0  0  0  0  0  0  0  0  0  0  0  0
    0.7300   20.5100  -31.1720 F   0  0  0  0  0  0  0  0  0  0  0  0
   -4.4329   24.5596  -25.9451 H   0  0  0  0  0  0  0  0  0  0  0  0
   -4.2926   25.4489  -27.4995 H   0  0  0  0  0  0  0  0  0  0  0  0
   -4.6939   23.6980  -27.4995 H   0  0  0  0  0  0  0  0  0  0  0  0
   -2.4775   23.1222  -26.6797 H   0  0  0  0  0  0  0  0  0  0  0  0
   -2.0157   24.8596  -25.1076 H   0  0  0  0  0  0  0  0  0  0  0  0
   -0.7441   24.9678  -26.3716 H   0  0  0  0  0  0  0  0  0  0  0  0
   -2.1119   26.1322  -26.3716 H   0  0  0  0  0  0  0  0  0  0  0  0
   -5.0640   23.3690  -33.2430 H   0  0  0  0  0  0  0  0  0  0  0  0
   -6.5577   21.3170  -31.0492 H   0  0  0  0  0  0  0  0  0  0  0  0
   -7.4007   19.1958  -32.0470 H   0  0  0  0  0  0  0  0  0  0  0  0
   -4.9263   13.8223  -34.9931 H   0  0  0  0  0  0  0  0  0  0  0  0
   -5.4003   13.5990  -32.0206 H   0  0  0  0  0  0  0  0  0  0  0  0
   -5.1286   12.0972  -32.9680 H   0  0  0  0  0  0  0  0  0  0  0  0
   -3.8877   13.3960  -32.9680 H   0  0  0  0  0  0  0  0  0  0  0  0
   -7.4162   12.6857  -33.6903 H   0  0  0  0  0  0  0  0  0  0  0  0
   -7.5377   13.6758  -35.1842 H   0  0  0  0  0  0  0  0  0  0  0  0
   -6.5651   12.1656  -35.1842 H   0  0  0  0  0  0  0  0  0  0  0  0
   -3.3464   18.0640  -33.0657 H   0  0  0  0  0  0  0  0  0  0  0  0
   -2.5028   20.1778  -32.0549 H   0  0  0  0  0  0  0  0  0  0  0  0
   -4.0309   20.8539  -27.8290 H   0  0  0  0  0  0  0  0  0  0  0  0
   -2.9260   18.9909  -26.6039 H   0  0  0  0  0  0  0  0  0  0  0  0
   -0.6687   18.1998  -27.3039 H   0  0  0  0  0  0  0  0  0  0  0  0
    0.4697   19.2340  -29.2609 H   0  0  0  0  0  0  0  0  0  0  0  0
  1  2  1  0
  2  3  1  0
  2  4  1  0
  4  5  2  0
  4  6  1  0
  6  7  1  0
  7  8  1  0
  7  9  2  0
  9 10  1  0
  9 11  1  0
 11 12  1  0
 12 13  2  0
 13 14  1  0
 14 15  2  0
 15 16  1  0
 16 17  2  0
 17 18  1  0
 18 19  2  0
 19 20  1  0
 20 21  1  0
 20 22  1  0
 19 23  1  0
 15 24  1  0
 24 25  2  0
 11 26  1  0
 26 27  1  0
 27 28  2  0
 28 29  1  0
 29 30  2  0
 30 31  1  0
 31 32  2  0
 32 33  1  0
 33 34  1  0
 33 35  1  0
 33 36  1  0
 26  6  2  0
 32 27  1  0
 25 12  1  0
 23 16  1  0
  1 37  1  0
  1 38  1  0
  1 39  1  0
  2 40  1  0
  3 41  1  0
  3 42  1  0
  3 43  1  0
 10 44  1  0
 13 45  1  0
 14 46  1  0
 20 47  1  0
 21 48  1  0
 21 49  1  0
 21 50  1  0
 22 51  1  0
 22 52  1  0
 22 53  1  0
 24 54  1  0
 25 55  1  0
 28 56  1  0
 29 57  1  0
 30 58  1  0
 31 59  1  0
M  CHG  1   8  -1
M  END
>  <UniqueID>  (9) 
8

>  <SMILES>  (9) 
CC(C)C(=O)c1c([O-])c(O)n(-c2ccc(-c3nnc(C(C)C)o3)cc2)c1-c1ccccc1C(F)(F)F

>  <Energy>  (9) 
132.76600421229483

>  <Genealogy>  (9) 
CC(C)C(=O)c1c([O-])c(O)n(-c2ccc(-c3nnc(C(C)C)o3)cc2)c1-c1ccccc1C(F)(F)F (protonated)
CC(C)C(=O)c1c([O-])c(O)n(-c2ccc(-c3nnc(C(C)C)o3)cc2)c1-c1ccccc1C(F)(F)F (3D coordinates assigned)
CC(C)C(=O)c1c([O-])c(O)n(-c2ccc(-c3nnc(C(C)C)o3)cc2)c1-c1ccccc1C(F)(F)F (optimized conformer: 132.76600421229483 kcal/mol)

>  <smiles>  (9) 
CC(C)C(=O)c1c(O)c(O)n(-c2ccc(-c3nnc(C(C)C)o3)cc2)c1-c1ccccc1C(F)(F)F

>  <score_type>  (9) 
oracle

>  <origin>  (9) 
adgpu

>  <m_score__min__energy>  (9) 
-11.82

>  <m_primary>  (9) 
energy

$$$$
9:0
     RDKit          3D

 52 55  0  0  0  0  0  0  0  0999 V2000
   -5.6760   16.3100  -32.4880 C   0  0  0  0  0  0  0  0  0  0  0  0
   -6.9780   16.7470  -32.8650 O   0  0  0  0  0  0  0  0  0  0  0  0
   -7.4790   18.0400  -32.6420 C   0  0  0  0  0  0  0  0  0  0  0  0
   -8.5700   18.2800  -31.7860 C   0  0  0  0  0  0  0  0  0  0  0  0
   -9.0380   19.5800  -31.5850 C   0  0  0  0  0  0  0  0  0  0  0  0
   -8.4220   20.6610  -32.2290 C   0  0  0  0  0  0  0  0  0  0  0  0
   -8.9280   22.0650  -32.0170 C   0  0  0  0  0  0  0  0  0  0  0  0
   -7.8550   23.0400  -32.2270 N   0  0  0  0  0  0  0  0  0  0  0  0
   -6.6300   23.0780  -31.4710 C   0  0  0  0  0  0  0  0  0  0  0  0
   -6.1140   21.9200  -30.8230 C   0  0  0  0  0  0  0  0  0  0  0  0
   -4.9100   21.9760  -30.0980 C   0  0  0  0  0  0  0  0  0  0  0  0
   -4.2550   23.2040  -30.0190 C   0  0  0  0  0  0  0  0  0  0  0  0
   -3.0680   23.6140  -29.4410 C   0  0  0  0  0  0  0  0  0  0  0  0
   -2.1240   22.8190  -28.6300 C   0  0  0  0  0  0  0  0  0  0  0  0
   -0.8440   23.3250  -28.3570 C   0  0  0  0  0  0  0  0  0  0  0  0
    0.0590   22.5840  -27.5890 C   0  0  0  0  0  0  0  0  0  0  0  0
   -0.3130   21.3400  -27.0740 C   0  0  0  0  0  0  0  0  0  0  0  0
   -1.5980   20.8370  -27.3140 C   0  0  0  0  0  0  0  0  0  0  0  0
   -2.0840   19.2740  -26.6640 S   0  0  0  0  0  0  0  0  0  0  0  0
   -0.8430   18.1110  -26.9790 N   0  0  0  0  0  0  0  0  0  0  0  0
   -2.3040   19.3760  -25.1800 O   0  0  0  0  0  0  0  0  0  0  0  0
   -3.3670   18.8370  -27.3150 O   0  0  0  0  0  0  0  0  0  0  0  0
   -2.5010   21.5780  -28.0880 C   0  0  0  0  0  0  0  0  0  0  0  0
   -2.8740   24.9190  -29.7520 N   0  0  0  0  0  0  0  0  0  0  0  0
   -3.8940   25.3500  -30.4880 N   0  0  0  0  0  0  0  0  0  0  0  0
   -4.7340   24.3150  -30.6520 C   0  0  0  0  0  0  0  0  0  0  0  0
   -5.9200   24.2950  -31.3810 C   0  0  0  0  0  0  0  0  0  0  0  0
   -7.3440   20.4250  -33.0940 C   0  0  0  0  0  0  0  0  0  0  0  0
   -6.8640   19.1160  -33.3000 C   0  0  0  0  0  0  0  0  0  0  0  0
   -5.7800   18.8460  -34.1510 O   0  0  0  0  0  0  0  0  0  0  0  0
   -4.4130   19.0500  -33.8080 C   0  0  0  0  0  0  0  0  0  0  0  0
   -5.6011   16.2848  -31.3908 H   0  0  0  0  0  0  0  0  0  0  0  0
   -5.4964   15.3023  -32.8910 H   0  0  0  0  0  0  0  0  0  0  0  0
   -4.9249   17.0053  -32.8910 H   0  0  0  0  0  0  0  0  0  0  0  0
   -9.0571   17.4382  -31.2721 H   0  0  0  0  0  0  0  0  0  0  0  0
   -9.8946   19.7563  -30.9177 H   0  0  0  0  0  0  0  0  0  0  0  0
   -9.7428   22.2662  -32.7280 H   0  0  0  0  0  0  0  0  0  0  0  0
   -9.2918   22.1571  -30.9830 H   0  0  0  0  0  0  0  0  0  0  0  0
   -7.9770   23.7200  -33.0120 H   0  0  0  0  0  0  0  0  0  0  0  0
   -6.6638   20.9696  -30.8902 H   0  0  0  0  0  0  0  0  0  0  0  0
   -4.4988   21.0803  -29.6095 H   0  0  0  0  0  0  0  0  0  0  0  0
   -0.5496   24.3096  -28.7492 H   0  0  0  0  0  0  0  0  0  0  0  0
    1.0651   22.9816  -27.3897 H   0  0  0  0  0  0  0  0  0  0  0  0
    0.4039   20.7548  -26.4794 H   0  0  0  0  0  0  0  0  0  0  0  0
    0.0710   18.5890  -26.8140 H   0  0  0  0  0  0  0  0  0  0  0  0
   -0.9310   17.3680  -26.2500 H   0  0  0  0  0  0  0  0  0  0  0  0
   -3.5120   21.1858  -28.2728 H   0  0  0  0  0  0  0  0  0  0  0  0
   -6.2943   25.2042  -31.8742 H   0  0  0  0  0  0  0  0  0  0  0  0
   -6.8690   21.2686  -33.6162 H   0  0  0  0  0  0  0  0  0  0  0  0
   -4.3081   19.0657  -32.7131 H   0  0  0  0  0  0  0  0  0  0  0  0
   -3.8049   18.2327  -34.2230 H   0  0  0  0  0  0  0  0  0  0  0  0
   -4.0701   20.0093  -34.2230 H   0  0  0  0  0  0  0  0  0  0  0  0
  1  2  1  0
  2  3  1  0
  3  4  2  0
  4  5  1  0
  5  6  2  0
  6  7  1  0
  7  8  1  0
  8  9  1  0
  9 10  1  0
 10 11  2  0
 11 12  1  0
 12 13  2  0
 13 14  1  0
 14 15  2  0
 15 16  1  0
 16 17  2  0
 17 18  1  0
 18 19  1  0
 19 20  1  0
 19 21  2  0
 19 22  2  0
 18 23  2  0
 13 24  1  0
 24 25  1  0
 25 26  2  0
 26 27  1  0
  6 28  1  0
 28 29  2  0
 29 30  1  0
 30 31  1  0
 29  3  1  0
 27  9  2  0
 26 12  1  0
 23 14  1  0
  1 32  1  0
  1 33  1  0
  1 34  1  0
  4 35  1  0
  5 36  1  0
  7 37  1  0
  7 38  1  0
  8 39  1  0
 10 40  1  0
 11 41  1  0
 15 42  1  0
 16 43  1  0
 17 44  1  0
 20 45  1  0
 20 46  1  0
 23 47  1  0
 27 48  1  0
 28 49  1  0
 31 50  1  0
 31 51  1  0
 31 52  1  0
M  CHG  1  24  -1
M  END
>  <UniqueID>  (10) 
9

>  <SMILES>  (10) 
COc1ccc(CNc2ccc3c(-c4cccc(S(N)(=O)=O)c4)[n-]nc3c2)cc1OC

>  <Energy>  (10) 
94.9914828348885

>  <Genealogy>  (10) 
COc1ccc(CNc2ccc3c(-c4cccc(S(N)(=O)=O)c4)[n-]nc3c2)cc1OC (protonated)
COc1ccc(CNc2ccc3c(-c4cccc(S(N)(=O)=O)c4)[n-]nc3c2)cc1OC (3D coordinates assigned)
COc1ccc(CNc2ccc3c(-c4cccc(S(N)(=O)=O)c4)[n-]nc3c2)cc1OC (optimized conformer: 94.9914828348885 kcal/mol)

>  <smiles>  (10) 
COc1ccc(CNc2ccc3c(-c4cccc(S(N)(=O)=O)c4)[nH]nc3c2)cc1OC

>  <score_type>  (10) 
oracle

>  <origin>  (10) 
adgpu

>  <m_score__min__energy>  (10) 
-11.73

>  <m_primary>  (10) 
energy

$$$$
10:0
     RDKit          3D

 35 37  0  0  0  0  0  0  0  0999 V2000
   -4.2880   18.7710  -34.3110 C   0  0  0  0  0  0  0  0  0  0  0  0
   -5.6030   18.5360  -33.6380 C   0  0  0  0  0  0  0  0  0  0  0  0
   -6.3760   17.3880  -33.7070 C   0  0  0  0  0  0  0  0  0  0  0  0
   -7.4990   17.5460  -32.9660 N   0  0  0  0  0  0  0  0  0  0  0  0
   -7.3750   18.7930  -32.4650 C   0  0  0  0  0  0  0  0  0  0  0  0
   -8.2860   19.4270  -31.6250 C   0  0  0  0  0  0  0  0  0  0  0  0
   -7.9870   20.7310  -31.2000 C   0  0  0  0  0  0  0  0  0  0  0  0
   -6.8000   21.3720  -31.6260 C   0  0  0  0  0  0  0  0  0  0  0  0
   -6.4700   22.7380  -31.1650 C   0  0  0  0  0  0  0  0  0  0  0  0
   -7.5160   23.6190  -30.8530 C   0  0  0  0  0  0  0  0  0  0  0  0
   -7.2430   24.9200  -30.4330 C   0  0  0  0  0  0  0  0  0  0  0  0
   -5.9250   25.3570  -30.3100 C   0  0  0  0  0  0  0  0  0  0  0  0
   -4.8580   24.4890  -30.6000 C   0  0  0  0  0  0  0  0  0  0  0  0
   -3.4900   24.9060  -30.4680 N   0  0  0  0  0  0  0  0  0  0  0  0
   -2.4380   24.5520  -29.1350 S   0  0  0  0  0  0  0  0  0  0  0  0
   -3.3950   24.1680  -27.6840 C   0  0  0  0  0  0  0  0  0  0  0  0
   -1.5990   23.3570  -29.4880 O   0  0  0  0  0  0  0  0  0  0  0  0
   -1.5300   25.7200  -28.8720 O   0  0  0  0  0  0  0  0  0  0  0  0
   -5.1320   23.1750  -31.0280 C   0  0  0  0  0  0  0  0  0  0  0  0
   -3.7840   22.0700  -31.3200 Cl  0  0  0  0  0  0  0  0  0  0  0  0
   -5.9130   20.6720  -32.4680 C   0  0  0  0  0  0  0  0  0  0  0  0
   -6.2480   19.4120  -32.8510 N   0  0  0  0  0  0  0  0  0  0  0  0
   -3.5063   18.9107  -33.5498 H   0  0  0  0  0  0  0  0  0  0  0  0
   -4.0373   17.9034  -34.9391 H   0  0  0  0  0  0  0  0  0  0  0  0
   -4.3533   19.6717  -34.9391 H   0  0  0  0  0  0  0  0  0  0  0  0
   -6.1167   16.4841  -34.2778 H   0  0  0  0  0  0  0  0  0  0  0  0
   -9.2097   18.9228  -31.3048 H   0  0  0  0  0  0  0  0  0  0  0  0
   -8.6816   21.2589  -30.5300 H   0  0  0  0  0  0  0  0  0  0  0  0
   -8.5591   23.2809  -30.9404 H   0  0  0  0  0  0  0  0  0  0  0  0
   -8.0712   25.6046  -30.1977 H   0  0  0  0  0  0  0  0  0  0  0  0
   -5.7187   26.3872  -29.9841 H   0  0  0  0  0  0  0  0  0  0  0  0
   -2.8076   24.4037  -26.7844 H   0  0  0  0  0  0  0  0  0  0  0  0
   -4.3189   24.7650  -27.6855 H   0  0  0  0  0  0  0  0  0  0  0  0
   -3.6499   23.0980  -27.6855 H   0  0  0  0  0  0  0  0  0  0  0  0
   -4.9737   21.1336  -32.8065 H   0  0  0  0  0  0  0  0  0  0  0  0
  1  2  1  0
  2  3  2  0
  3  4  1  0
  4  5  2  0
  5  6  1  0
  6  7  2  0
  7  8  1  0
  8  9  1  0
  9 10  2  0
 10 11  1  0
 11 12  2  0
 12 13  1  0
 13 14  1  0
 14 15  1  0
 15 16  1  0
 15 17  2  0
 15 18  2  0
 13 19  2  0
 19 20  1  0
  8 21  2  0
 21 22  1  0
 22  2  1  0
 22  5  1  0
 19  9  1  0
  1 23  1  0
  1 24  1  0
  1 25  1  0
  3 26  1  0
  6 27  1  0
  7 28  1  0
 10 29  1  0
 11 30  1  0
 12 31  1  0
 16 32  1  0
 16 33  1  0
 16 34  1  0
 21 35  1  0
M  CHG  1  14  -1
M  END
>  <UniqueID>  (11) 
10

>  <SMILES>  (11) 
Cc1cnc2ccc(-c3cccc([N-]S(C)(=O)=O)c3Cl)cn12

>  <Energy>  (11) 
78.50659993014348

>  <Genealogy>  (11) 
Cc1cnc2ccc(-c3cccc([N-]S(C)(=O)=O)c3Cl)cn12 (protonated)
Cc1cnc2ccc(-c3cccc([N-]S(C)(=O)=O)c3Cl)cn12 (3D coordinates assigned)
Cc1cnc2ccc(-c3cccc([N-]S(C)(=O)=O)c3Cl)cn12 (optimized conformer: 78.50659993014348 kcal/mol)

>  <smiles>  (11) 
Cc1cnc2ccc(-c3cccc(NS(C)(=O)=O)c3Cl)cn12

>  <score_type>  (11) 
oracle

>  <origin>  (11) 
adgpu

>  <m_score__min__energy>  (11) 
-10.619999999999999

>  <m_primary>  (11) 
energy

$$$$
11:0
     RDKit          3D

 24 26  0  0  0  0  0  0  0  0999 V2000
   -8.7330   20.3930  -32.4540 C   0  0  0  0  0  0  0  0  0  0  0  0
   -7.3730   20.1870  -32.7010 C   0  0  0  0  0  0  0  0  0  0  0  0
   -6.4250   21.0840  -32.1990 C   0  0  0  0  0  0  0  0  0  0  0  0
   -6.8320   22.1960  -31.4420 C   0  0  0  0  0  0  0  0  0  0  0  0
   -5.8290   23.1410  -30.9110 C   0  0  0  0  0  0  0  0  0  0  0  0
   -5.2780   23.0560  -29.6840 N   0  0  0  0  0  0  0  0  0  0  0  0
   -4.4510   24.1210  -29.6880 C   0  0  0  0  0  0  0  0  0  0  0  0
   -3.5940   24.4890  -28.5560 C   0  0  0  0  0  0  0  0  0  0  0  0
   -3.9760   24.5300  -27.2210 C   0  0  0  0  0  0  0  0  0  0  0  0
   -2.9390   24.9170  -26.3640 C   0  0  0  0  0  0  0  0  0  0  0  0
   -1.7420   25.1810  -27.0190 C   0  0  0  0  0  0  0  0  0  0  0  0
   -1.9750   24.9330  -28.6670 S   0  0  0  0  0  0  0  0  0  0  0  0
   -4.4980   24.8080  -30.8460 N   0  0  0  0  0  0  0  0  0  0  0  0
   -5.3610   24.1700  -31.5760 O   0  0  0  0  0  0  0  0  0  0  0  0
   -8.2030   22.3950  -31.1980 C   0  0  0  0  0  0  0  0  0  0  0  0
   -9.1470   21.4970  -31.7040 C   0  0  0  0  0  0  0  0  0  0  0  0
   -9.4773   19.6864  -32.8498 H   0  0  0  0  0  0  0  0  0  0  0  0
   -7.0477   19.3177  -33.2914 H   0  0  0  0  0  0  0  0  0  0  0  0
   -5.3558   20.9185  -32.3975 H   0  0  0  0  0  0  0  0  0  0  0  0
   -4.9899   24.2835  -26.8728 H   0  0  0  0  0  0  0  0  0  0  0  0
   -3.0602   25.0040  -25.2742 H   0  0  0  0  0  0  0  0  0  0  0  0
   -0.8029   25.4979  -26.5418 H   0  0  0  0  0  0  0  0  0  0  0  0
   -8.5337   23.2613  -30.6063 H   0  0  0  0  0  0  0  0  0  0  0  0
  -10.2177   21.6596  -31.5115 H   0  0  0  0  0  0  0  0  0  0  0  0
  1  2  2  0
  2  3  1  0
  3  4  2  0
  4  5  1  0
  5  6  2  0
  6  7  1  0
  7  8  1  0
  8  9  2  0
  9 10  1  0
 10 11  2  0
 11 12  1  0
  7 13  2  0
 13 14  1  0
  4 15  1  0
 15 16  2  0
 16  1  1  0
 14  5  1  0
 12  8  1  0
  1 17  1  0
  2 18  1  0
  3 19  1  0
  9 20  1  0
 10 21  1  0
 11 22  1  0
 15 23  1  0
 16 24  1  0
M  END
>  <UniqueID>  (12) 
11

>  <SMILES>  (12) 
c1ccc(-c2nc(-c3cccs3)no2)cc1

>  <Energy>  (12) 
84.96044300291499

>  <Genealogy>  (12) 
c1ccc(-c2nc(-c3cccs3)no2)cc1 (3D coordinates assigned)
c1ccc(-c2nc(-c3cccs3)no2)cc1 (optimized conformer: 84.96044300291499 kcal/mol)

>  <smiles>  (12) 
c1ccc(-c2nc(-c3cccs3)no2)cc1

>  <score_type>  (12) 
oracle

>  <origin>  (12) 
adgpu

>  <m_score__min__energy>  (12) 
-7.3200000000000003

>  <m_primary>  (12) 
energy

$$$$
12:0
     RDKit          3D

 38 40  0  0  0  0  0  0  0  0999 V2000
   -8.9820   22.3000  -31.5410 C   0  0  0  0  0  0  0  0  0  0  0  0
   -7.5690   22.7950  -31.4710 C   0  0  0  0  0  0  0  0  0  0  0  0
   -7.1870   24.0330  -30.9990 C   0  0  0  0  0  0  0  0  0  0  0  0
   -5.8040   24.0180  -31.0710 C   0  0  0  0  0  0  0  0  0  0  0  0
   -4.9150   25.1250  -30.6530 C   0  0  0  0  0  0  0  0  0  0  0  0
   -5.4200   26.2600  -30.4520 O   0  0  0  0  0  0  0  0  0  0  0  0
   -3.4990   24.9720  -30.4670 N   0  0  0  0  0  0  0  0  0  0  0  0
   -2.8080   24.4900  -29.2690 C   0  0  0  0  0  0  0  0  0  0  0  0
   -3.8310   24.1520  -28.1970 C   0  0  0  0  0  0  0  0  0  0  0  0
   -4.2310   22.7100  -28.4540 C   0  0  0  0  0  0  0  0  0  0  0  0
   -3.0300   22.0500  -29.1240 C   0  0  0  0  0  0  0  0  0  0  0  0
   -2.0870   23.1730  -29.5500 C   0  0  0  0  0  0  0  0  0  0  0  0
   -5.3910   22.8370  -31.5700 N   0  0  0  0  0  0  0  0  0  0  0  0
   -6.4620   22.1020  -31.8240 N   0  0  0  0  0  0  0  0  0  0  0  0
   -6.3790   20.7670  -32.3500 C   0  0  0  0  0  0  0  0  0  0  0  0
   -7.1730   19.7490  -31.7940 C   0  0  0  0  0  0  0  0  0  0  0  0
   -7.0870   18.4410  -32.2800 C   0  0  0  0  0  0  0  0  0  0  0  0
   -6.2000   18.1360  -33.3150 C   0  0  0  0  0  0  0  0  0  0  0  0
   -5.3910   19.1360  -33.8600 C   0  0  0  0  0  0  0  0  0  0  0  0
   -5.4740   20.4450  -33.3760 C   0  0  0  0  0  0  0  0  0  0  0  0
   -9.3734   22.1629  -30.5222 H   0  0  0  0  0  0  0  0  0  0  0  0
   -9.6018   23.0345  -32.0761 H   0  0  0  0  0  0  0  0  0  0  0  0
   -9.0079   21.3393  -32.0761 H   0  0  0  0  0  0  0  0  0  0  0  0
   -7.8347   24.8486  -30.6451 H   0  0  0  0  0  0  0  0  0  0  0  0
   -2.1059   25.2782  -28.9595 H   0  0  0  0  0  0  0  0  0  0  0  0
   -3.3864   24.2545  -27.1961 H   0  0  0  0  0  0  0  0  0  0  0  0
   -4.6982   24.8277  -28.2346 H   0  0  0  0  0  0  0  0  0  0  0  0
   -4.4647   22.2040  -27.5057 H   0  0  0  0  0  0  0  0  0  0  0  0
   -5.1281   22.6490  -29.0877 H   0  0  0  0  0  0  0  0  0  0  0  0
   -2.5230   21.3788  -28.4152 H   0  0  0  0  0  0  0  0  0  0  0  0
   -3.3435   21.4492  -29.9905 H   0  0  0  0  0  0  0  0  0  0  0  0
   -1.1530   23.1223  -28.9712 H   0  0  0  0  0  0  0  0  0  0  0  0
   -1.8280   23.0860  -30.6155 H   0  0  0  0  0  0  0  0  0  0  0  0
   -7.8657   19.9828  -30.9721 H   0  0  0  0  0  0  0  0  0  0  0  0
   -7.7185   17.6513  -31.8469 H   0  0  0  0  0  0  0  0  0  0  0  0
   -6.1385   17.1078  -33.7011 H   0  0  0  0  0  0  0  0  0  0  0  0
   -4.6881   18.8933  -34.6706 H   0  0  0  0  0  0  0  0  0  0  0  0
   -4.8275   21.2272  -33.8005 H   0  0  0  0  0  0  0  0  0  0  0  0
  1  2  1  0
  2  3  2  0
  3  4  1  0
  4  5  1  0
  5  6  2  0
  5  7  1  0
  7  8  1  0
  8  9  1  0
  9 10  1  0
 10 11  1  0
 11 12  1  0
  4 13  2  0
 13 14  1  0
 14 15  1  0
 15 16  2  0
 16 17  1  0
 17 18  2  0
 18 19  1  0
 19 20  2  0
 14  2  1  0
 20 15  1  0
 12  8  1  0
  1 21  1  0
  1 22  1  0
  1 23  1  0
  3 24  1  0
  8 25  1  0
  9 26  1  0
  9 27  1  0
 10 28  1  0
 10 29  1  0
 11 30  1  0
 11 31  1  0
 12 32  1  0
 12 33  1  0
 16 34  1  0
 17 35  1  0
 18 36  1  0
 19 37  1  0
 20 38  1  0
M  CHG  1   7  -1
M  END
>  <UniqueID>  (13) 
12

>  <SMILES>  (13) 
Cc1cc(C(=O)[N-]C2CCCC2)nn1-c1ccccc1

>  <Energy>  (13) 
72.61259449124594

>  <Genealogy>  (13) 
Cc1cc(C(=O)[N-]C2CCCC2)nn1-c1ccccc1 (protonated)
Cc1cc(C(=O)[N-]C2CCCC2)nn1-c1ccccc1 (3D coordinates assigned)
Cc1cc(C(=O)[N-]C2CCCC2)nn1-c1ccccc1 (nonaromatic ring conformer: 72.61259449124594 kcal/mol)

>  <smiles>  (13) 
Cc1cc(C(=O)NC2CCCC2)nn1-c1ccccc1

>  <score_type>  (13) 
oracle

>  <origin>  (13) 
adgpu

>  <m_score__min__energy>  (13) 
-9.8499999999999996

>  <m_primary>  (13) 
energy

$$$$
13:0
     RDKit          3D

 33 34  0  0  0  0  0  0  0  0999 V2000
   -9.3020   19.8660  -32.4110 C   0  0  0  0  0  0  0  0  0  0  0  0
   -8.0810   20.7250  -32.3420 C   0  0  0  0  0  0  0  0  0  0  0  0
   -7.0890   20.4470  -33.0680 O   0  0  0  0  0  0  0  0  0  0  0  0
   -8.0840   21.9050  -31.5250 N   0  0  0  0  0  0  0  0  0  0  0  0
   -6.9170   22.7010  -31.2540 C   0  0  0  0  0  0  0  0  0  0  0  0
   -5.6200   22.1750  -31.4010 C   0  0  0  0  0  0  0  0  0  0  0  0
   -4.5020   22.9640  -31.1180 C   0  0  0  0  0  0  0  0  0  0  0  0
   -4.6580   24.2860  -30.6880 C   0  0  0  0  0  0  0  0  0  0  0  0
   -3.4900   25.0750  -30.4250 N   0  0  0  0  0  0  0  0  0  0  0  0
   -2.5820   24.8910  -29.3290 C   0  0  0  0  0  0  0  0  0  0  0  0
   -1.6010   25.6690  -29.2120 O   0  0  0  0  0  0  0  0  0  0  0  0
   -2.7590   23.8460  -28.3640 N   0  0  0  0  0  0  0  0  0  0  0  0
   -2.2170   22.5210  -28.4520 C   0  0  0  0  0  0  0  0  0  0  0  0
   -1.2630   22.1770  -29.4260 C   0  0  0  0  0  0  0  0  0  0  0  0
   -0.7450   20.8800  -29.4760 C   0  0  0  0  0  0  0  0  0  0  0  0
   -1.1880   19.9130  -28.5700 C   0  0  0  0  0  0  0  0  0  0  0  0
   -2.1560   20.2400  -27.6150 C   0  0  0  0  0  0  0  0  0  0  0  0
   -2.7180   19.0250  -26.4830 Cl  0  0  0  0  0  0  0  0  0  0  0  0
   -2.6760   21.5390  -27.5630 C   0  0  0  0  0  0  0  0  0  0  0  0
   -5.9520   24.7970  -30.4900 C   0  0  0  0  0  0  0  0  0  0  0  0
   -7.0710   24.0080  -30.7720 C   0  0  0  0  0  0  0  0  0  0  0  0
   -9.6407   19.6277  -31.3919 H   0  0  0  0  0  0  0  0  0  0  0  0
  -10.0988   20.4036  -32.9459 H   0  0  0  0  0  0  0  0  0  0  0  0
   -9.0652   18.9344  -32.9459 H   0  0  0  0  0  0  0  0  0  0  0  0
   -9.0070   22.2540  -31.1790 H   0  0  0  0  0  0  0  0  0  0  0  0
   -5.4856   21.1373  -31.7404 H   0  0  0  0  0  0  0  0  0  0  0  0
   -3.4925   22.5428  -31.2341 H   0  0  0  0  0  0  0  0  0  0  0  0
   -0.9233   22.9313  -30.1510 H   0  0  0  0  0  0  0  0  0  0  0  0
    0.0127   20.6200  -30.2298 H   0  0  0  0  0  0  0  0  0  0  0  0
   -0.7752   18.8941  -28.6079 H   0  0  0  0  0  0  0  0  0  0  0  0
   -3.4483   21.7902  -26.8211 H   0  0  0  0  0  0  0  0  0  0  0  0
   -6.0848   25.8214  -30.1118 H   0  0  0  0  0  0  0  0  0  0  0  0
   -8.0802   24.4161  -30.6144 H   0  0  0  0  0  0  0  0  0  0  0  0
  1  2  1  0
  2  3  2  0
  2  4  1  0
  4  5  1  0
  5  6  2  0
  6  7  1  0
  7  8  2  0
  8  9  1  0
  9 10  1  0
 10 11  2  0
 10 12  1  0
 12 13  1  0
 13 14  2  0
 14 15  1  0
 15 16  2  0
 16 17  1  0
 17 18  1  0
 17 19  2  0
  8 20  1  0
 20 21  2  0
 21  5  1  0
 19 13  1  0
  1 22  1  0
  1 23  1  0
  1 24  1  0
  4 25  1  0
  6 26  1  0
  7 27  1  0
 14 28  1  0
 15 29  1  0
 16 30  1  0
 19 31  1  0
 20 32  1  0
 21 33  1  0
M  CHG  2   9  -1  12  -1
M  END
>  <UniqueID>  (14) 
13

>  <SMILES>  (14) 
CC(=O)Nc1ccc([N-]C(=O)[N-]c2cccc(Cl)c2)cc1

>  <Energy>  (14) 
41.867821872959105

>  <Genealogy>  (14) 
CC(=O)Nc1ccc([N-]C(=O)[N-]c2cccc(Cl)c2)cc1 (protonated)
CC(=O)Nc1ccc([N-]C(=O)[N-]c2cccc(Cl)c2)cc1 (3D coordinates assigned)
CC(=O)Nc1ccc([N-]C(=O)[N-]c2cccc(Cl)c2)cc1 (optimized conformer: 41.867821872959105 kcal/mol)

>  <smiles>  (14) 
CC(=O)Nc1ccc(NC(=O)Nc2cccc(Cl)c2)cc1

>  <score_type>  (14) 
oracle

>  <origin>  (14) 
adgpu

>  <m_score__min__energy>  (14) 
-10.42

>  <m_primary>  (14) 
energy

$$$$
14:0
     RDKit          3D

 38 39  0  0  0  0  0  0  0  0999 V2000
   -2.3990   25.0650  -26.9990 C   0  0  0  0  0  0  0  0  0  0  0  0
   -3.8600   24.7970  -26.6530 C   0  0  0  0  0  0  0  0  0  0  0  0
   -4.5530   24.1550  -27.7720 N   0  0  0  0  0  0  0  0  0  0  0  0
   -4.0050   23.0670  -28.5500 C   0  0  0  0  0  0  0  0  0  0  0  0
   -3.1410   22.1290  -27.9500 C   0  0  0  0  0  0  0  0  0  0  0  0
   -2.6030   21.0770  -28.6930 C   0  0  0  0  0  0  0  0  0  0  0  0
   -2.9140   20.9440  -30.0430 C   0  0  0  0  0  0  0  0  0  0  0  0
   -3.7680   21.8600  -30.6560 C   0  0  0  0  0  0  0  0  0  0  0  0
   -4.3310   22.9190  -29.9240 C   0  0  0  0  0  0  0  0  0  0  0  0
   -5.3870   24.0720  -30.7590 S   0  0  0  0  0  0  0  0  0  0  0  0
   -4.5650   25.2530  -31.1950 O   0  0  0  0  0  0  0  0  0  0  0  0
   -6.4760   24.5500  -29.8380 O   0  0  0  0  0  0  0  0  0  0  0  0
   -6.1100   23.3630  -32.1700 N   0  0  0  0  0  0  0  0  0  0  0  0
   -7.1180   22.3360  -32.1300 C   0  0  0  0  0  0  0  0  0  0  0  0
   -8.4600   22.7030  -31.9400 C   0  0  0  0  0  0  0  0  0  0  0  0
   -9.4620   21.7320  -31.8990 C   0  0  0  0  0  0  0  0  0  0  0  0
   -9.1400   20.3840  -32.0600 C   0  0  0  0  0  0  0  0  0  0  0  0
   -7.8100   19.9980  -32.2800 C   0  0  0  0  0  0  0  0  0  0  0  0
   -7.4590   18.5470  -32.4280 C   0  0  0  0  0  0  0  0  0  0  0  0
   -6.8020   20.9730  -32.3010 C   0  0  0  0  0  0  0  0  0  0  0  0
   -1.8163   25.1719  -26.0721 H   0  0  0  0  0  0  0  0  0  0  0  0
   -2.0014   24.2248  -27.5872 H   0  0  0  0  0  0  0  0  0  0  0  0
   -2.3255   25.9916  -27.5872 H   0  0  0  0  0  0  0  0  0  0  0  0
   -3.9067   24.1371  -25.7742 H   0  0  0  0  0  0  0  0  0  0  0  0
   -4.3523   25.7572  -26.4392 H   0  0  0  0  0  0  0  0  0  0  0  0
   -5.4890   24.5430  -28.0170 H   0  0  0  0  0  0  0  0  0  0  0  0
   -2.8878   22.2271  -26.8840 H   0  0  0  0  0  0  0  0  0  0  0  0
   -1.9317   20.3514  -28.2104 H   0  0  0  0  0  0  0  0  0  0  0  0
   -2.4858   20.1158  -30.6267 H   0  0  0  0  0  0  0  0  0  0  0  0
   -4.0037   21.7523  -31.7250 H   0  0  0  0  0  0  0  0  0  0  0  0
   -5.8460   23.7760  -33.0920 H   0  0  0  0  0  0  0  0  0  0  0  0
   -8.7239   23.7644  -31.8225 H   0  0  0  0  0  0  0  0  0  0  0  0
  -10.5086   22.0305  -31.7393 H   0  0  0  0  0  0  0  0  0  0  0  0
   -9.9318   19.6218  -32.0142 H   0  0  0  0  0  0  0  0  0  0  0  0
   -7.3492   18.0929  -31.4321 H   0  0  0  0  0  0  0  0  0  0  0  0
   -8.2582   18.0309  -32.9802 H   0  0  0  0  0  0  0  0  0  0  0  0
   -6.5123   18.4532  -32.9802 H   0  0  0  0  0  0  0  0  0  0  0  0
   -5.7551   20.6712  -32.4523 H   0  0  0  0  0  0  0  0  0  0  0  0
  1  2  1  0
  2  3  1  0
  3  4  1  0
  4  5  2  0
  5  6  1  0
  6  7  2  0
  7  8  1  0
  8  9  2  0
  9 10  1  0
 10 11  2  0
 10 12  2  0
 10 13  1  0
 13 14  1  0
 14 15  2  0
 15 16  1  0
 16 17  2  0
 17 18  1  0
 18 19  1  0
 18 20  2  0
  9  4  1  0
 20 14  1  0
  1 21  1  0
  1 22  1  0
  1 23  1  0
  2 24  1  0
  2 25  1  0
  3 26  1  0
  5 27  1  0
  6 28  1  0
  7 29  1  0
  8 30  1  0
 13 31  1  0
 15 32  1  0
 16 33  1  0
 17 34  1  0
 19 35  1  0
 19 36  1  0
 19 37  1  0
 20 38  1  0
M  END
>  <UniqueID>  (15) 
14

>  <SMILES>  (15) 
CCNc1ccccc1S(=O)(=O)Nc1cccc(C)c1

>  <Energy>  (15) 
40.5151625713717

>  <Genealogy>  (15) 
CCNc1ccccc1S(=O)(=O)Nc1cccc(C)c1 (3D coordinates assigned)
CCNc1ccccc1S(=O)(=O)Nc1cccc(C)c1 (optimized conformer: 40.5151625713717 kcal/mol)

>  <smiles>  (15) 
CCNc1ccccc1S(=O)(=O)Nc1cccc(C)c1

>  <score_type>  (15) 
oracle

>  <origin>  (15) 
adgpu

>  <m_score__min__energy>  (15) 
-8.6099999999999994

>  <m_primary>  (15) 
energy

$$$$
15:0
     RDKit          3D

 32 34  0  0  0  0  0  0  0  0999 V2000
    0.1818   27.0488  -26.0422 H   0  0  0  0  0  0  0  0  0  0  0  0
   -0.6130   26.4070  -26.4500 C   0  0  0  0  0  0  0  0  0  0  0  0
   -0.4870   25.8680  -27.7330 C   0  0  0  0  0  0  0  0  0  0  0  0
    0.4036   26.0931  -28.3381 H   0  0  0  0  0  0  0  0  0  0  0  0
   -1.4910   25.0430  -28.2490 C   0  0  0  0  0  0  0  0  0  0  0  0
   -1.3966   24.6371  -29.2670 H   0  0  0  0  0  0  0  0  0  0  0  0
   -2.6160   24.7310  -27.4760 C   0  0  0  0  0  0  0  0  0  0  0  0
   -3.6560   23.9250  -28.0490 N   0  0  0  0  0  0  0  0  0  0  0  0
   -4.2620   24.1380  -29.1800 C   0  0  0  0  0  0  0  0  0  0  0  0
   -5.4080   23.0910  -29.8280 S   0  0  0  0  0  0  0  0  0  0  0  0
   -5.6510   24.1300  -31.1350 C   0  0  0  0  0  0  0  0  0  0  0  0
   -6.5500   23.8480  -32.2950 C   0  0  0  0  0  0  0  0  0  0  0  0
   -5.9740   23.9235  -33.2291 H   0  0  0  0  0  0  0  0  0  0  0  0
   -7.3705   24.5806  -32.3026 H   0  0  0  0  0  0  0  0  0  0  0  0
   -7.1250   22.4640  -32.1750 C   0  0  0  0  0  0  0  0  0  0  0  0
   -8.4070   22.2740  -31.6340 C   0  0  0  0  0  0  0  0  0  0  0  0
   -8.9814   23.1384  -31.2694 H   0  0  0  0  0  0  0  0  0  0  0  0
   -8.9560   20.9910  -31.5570 C   0  0  0  0  0  0  0  0  0  0  0  0
   -9.9572   20.8472  -31.1247 H   0  0  0  0  0  0  0  0  0  0  0  0
   -8.2340   19.8890  -32.0290 C   0  0  0  0  0  0  0  0  0  0  0  0
   -8.9260   18.2800  -31.9340 Cl  0  0  0  0  0  0  0  0  0  0  0  0
   -6.9620   20.0730  -32.5820 C   0  0  0  0  0  0  0  0  0  0  0  0
   -6.3945   19.2079  -32.9555 H   0  0  0  0  0  0  0  0  0  0  0  0
   -6.4120   21.3560  -32.6600 C   0  0  0  0  0  0  0  0  0  0  0  0
   -5.4155   21.4981  -33.1036 H   0  0  0  0  0  0  0  0  0  0  0  0
   -4.8650   25.2280  -31.0480 N   0  0  0  0  0  0  0  0  0  0  0  0
   -4.1020   25.2370  -29.9580 N   0  0  0  0  0  0  0  0  0  0  0  0
   -3.4810   26.0450  -29.7370 H   0  0  0  0  0  0  0  0  0  0  0  0
   -2.7560   25.3040  -26.1980 C   0  0  0  0  0  0  0  0  0  0  0  0
   -3.6579   25.1020  -25.6015 H   0  0  0  0  0  0  0  0  0  0  0  0
   -1.7500   26.1300  -25.6850 C   0  0  0  0  0  0  0  0  0  0  0  0
   -1.8537   26.5619  -24.6787 H   0  0  0  0  0  0  0  0  0  0  0  0
  1  2  1  0
  2  3  2  0
  3  4  1  0
  3  5  1  0
  5  6  1  0
  5  7  2  0
  7  8  1  0
  8  9  2  0
  9 10  1  0
 10 11  1  0
 11 12  1  0
 12 13  1  0
 12 14  1  0
 12 15  1  0
 15 16  2  0
 16 17  1  0
 16 18  1  0
 18 19  1  0
 18 20  2  0
 20 21  1  0
 20 22  1  0
 22 23  1  0
 22 24  2  0
 24 25  1  0
 11 26  2  0
 26 27  1  0
 27 28  1  0
  7 29  1  0
 29 30  1  0
 29 31  2  0
 31 32  1  0
 31  2  1  0
 27  9  1  0
 24 15  1  0
M  END
>  <UniqueID>  (16) 
15

>  <SMILES>  (16) 
Clc1ccc(Cc2n[nH]/c(=N\c3ccccc3)s2)cc1

>  <Energy>  (16) 
73.69117237777877

>  <Genealogy>  (16) 
Clc1ccc(Cc2n[nH]/c(=N\c3ccccc3)s2)cc1 (cis-trans isomerization)
Clc1ccc(Cc2n[nH]/c(=N\c3ccccc3)s2)cc1 (3D coordinates assigned)
Clc1ccc(Cc2n[nH]/c(=N\c3ccccc3)s2)cc1 (optimized conformer: 73.69117237777877 kcal/mol)

>  <smiles>  (16) 
Clc1ccc(Cc2n[nH]c(=Nc3ccccc3)s2)cc1

>  <score_type>  (16) 
oracle

>  <origin>  (16) 
adgpu

>  <m_score__min__energy>  (16) 
-9.1699999999999999

>  <m_primary>  (16) 
energy

$$$$
16:0
     RDKit          3D

 29 30  0  0  0  0  0  0  0  0999 V2000
   -6.2560   21.4420  -32.4610 C   0  0  0  0  0  0  0  0  0  0  0  0
   -6.1470   22.7040  -31.6560 C   0  0  0  0  0  0  0  0  0  0  0  0
   -7.3010   23.3340  -31.1690 C   0  0  0  0  0  0  0  0  0  0  0  0
   -7.1980   24.5160  -30.4320 C   0  0  0  0  0  0  0  0  0  0  0  0
   -5.9470   25.0900  -30.1980 C   0  0  0  0  0  0  0  0  0  0  0  0
   -4.7880   24.5000  -30.7170 C   0  0  0  0  0  0  0  0  0  0  0  0
   -3.5200   25.1140  -30.4470 N   0  0  0  0  0  0  0  0  0  0  0  0
   -2.6030   24.7420  -29.4130 C   0  0  0  0  0  0  0  0  0  0  0  0
   -2.6960   23.5960  -28.9020 O   0  0  0  0  0  0  0  0  0  0  0  0
   -1.5990   25.6620  -28.9650 N   0  0  0  0  0  0  0  0  0  0  0  0
   -1.3240   26.0450  -27.6100 C   0  0  0  0  0  0  0  0  0  0  0  0
   -1.9130   25.3900  -26.5120 C   0  0  0  0  0  0  0  0  0  0  0  0
   -1.6340   25.8130  -25.2080 C   0  0  0  0  0  0  0  0  0  0  0  0
   -0.7780   26.8960  -24.9900 C   0  0  0  0  0  0  0  0  0  0  0  0
   -0.5100   27.3050  -23.7260 F   0  0  0  0  0  0  0  0  0  0  0  0
   -0.2090   27.5660  -26.0760 C   0  0  0  0  0  0  0  0  0  0  0  0
   -0.4880   27.1450  -27.3810 C   0  0  0  0  0  0  0  0  0  0  0  0
   -4.8910   23.2930  -31.4340 C   0  0  0  0  0  0  0  0  0  0  0  0
   -6.3305   20.5795  -31.7824 H   0  0  0  0  0  0  0  0  0  0  0  0
   -7.1535   21.4881  -33.0953 H   0  0  0  0  0  0  0  0  0  0  0  0
   -5.3639   21.3335  -33.0953 H   0  0  0  0  0  0  0  0  0  0  0  0
   -8.2903   22.8962  -31.3679 H   0  0  0  0  0  0  0  0  0  0  0  0
   -8.1047   24.9958  -30.0350 H   0  0  0  0  0  0  0  0  0  0  0  0
   -5.8714   26.0116  -29.6022 H   0  0  0  0  0  0  0  0  0  0  0  0
   -2.5946   24.5431  -26.6798 H   0  0  0  0  0  0  0  0  0  0  0  0
   -2.0892   25.2922  -24.3527 H   0  0  0  0  0  0  0  0  0  0  0  0
    0.4579   28.4239  -25.9053 H   0  0  0  0  0  0  0  0  0  0  0  0
   -0.0472   27.6823  -28.2337 H   0  0  0  0  0  0  0  0  0  0  0  0
   -3.9832   22.8084  -31.8226 H   0  0  0  0  0  0  0  0  0  0  0  0
  1  2  1  0
  2  3  2  0
  3  4  1  0
  4  5  2  0
  5  6  1  0
  6  7  1  0
  7  8  1  0
  8  9  2  0
  8 10  1  0
 10 11  1  0
 11 12  2  0
 12 13  1  0
 13 14  2  0
 14 15  1  0
 14 16  1  0
 16 17  2  0
  6 18  2  0
 18  2  1  0
 17 11  1  0
  1 19  1  0
  1 20  1  0
  1 21  1  0
  3 22  1  0
  4 23  1  0
  5 24  1  0
 12 25  1  0
 13 26  1  0
 16 27  1  0
 17 28  1  0
 18 29  1  0
M  CHG  2   7  -1  10  -1
M  END
>  <UniqueID>  (17) 
16

>  <SMILES>  (17) 
Cc1cccc([N-]C(=O)[N-]c2ccc(F)cc2)c1

>  <Energy>  (17) 
35.70171323759227

>  <Genealogy>  (17) 
Cc1cccc([N-]C(=O)[N-]c2ccc(F)cc2)c1 (protonated)
Cc1cccc([N-]C(=O)[N-]c2ccc(F)cc2)c1 (3D coordinates assigned)
Cc1cccc([N-]C(=O)[N-]c2ccc(F)cc2)c1 (optimized conformer: 35.70171323759227 kcal/mol)

>  <smiles>  (17) 
Cc1cccc(NC(=O)Nc2ccc(F)cc2)c1

>  <score_type>  (17) 
oracle

>  <origin>  (17) 
adgpu

>  <m_score__min__energy>  (17) 
-9.5500000000000007

>  <m_primary>  (17) 
energy

$$$$
17:0
     RDKit          3D

 51 54  0  0  0  0  0  0  0  0999 V2000
   -3.5670   23.6610  -28.1610 O   0  0  0  0  0  0  0  0  0  0  0  0
   -3.0550   24.5830  -28.8510 C   0  0  0  0  0  0  0  0  0  0  0  0
   -1.9260   25.3160  -28.3620 N   0  0  0  0  0  0  0  0  0  0  0  0
   -1.3950   25.2770  -27.0280 C   0  0  0  0  0  0  0  0  0  0  0  0
   -1.4960   26.3840  -26.1650 C   0  0  0  0  0  0  0  0  0  0  0  0
   -1.0210   26.3030  -24.8530 C   0  0  0  0  0  0  0  0  0  0  0  0
   -0.4580   25.1160  -24.3840 C   0  0  0  0  0  0  0  0  0  0  0  0
   -0.3720   24.0030  -25.2240 C   0  0  0  0  0  0  0  0  0  0  0  0
   -0.8400   24.0760  -26.5440 C   0  0  0  0  0  0  0  0  0  0  0  0
   -0.7360   22.9210  -27.3910 N   0  0  0  0  0  0  0  0  0  0  0  0
   -1.6910   21.8160  -27.2230 C   0  0  0  0  0  0  0  0  0  0  0  0
   -1.4960   20.7510  -28.3060 C   0  0  0  0  0  0  0  0  0  0  0  0
   -1.3610   21.4010  -29.6180 N   0  0  0  0  0  0  0  0  0  0  0  0
   -2.2130   21.0230  -30.7150 C   0  0  0  0  0  0  0  0  0  0  0  0
   -1.7880   21.2050  -32.0430 C   0  0  0  0  0  0  0  0  0  0  0  0
   -2.6110   20.8260  -33.1080 C   0  0  0  0  0  0  0  0  0  0  0  0
   -3.8630   20.2580  -32.8570 C   0  0  0  0  0  0  0  0  0  0  0  0
   -4.2930   20.0680  -31.5410 C   0  0  0  0  0  0  0  0  0  0  0  0
   -3.4720   20.4450  -30.4740 C   0  0  0  0  0  0  0  0  0  0  0  0
   -0.4020   22.5030  -29.7920 C   0  0  0  0  0  0  0  0  0  0  0  0
    0.2640   22.8900  -28.4650 C   0  0  0  0  0  0  0  0  0  0  0  0
   -3.6030   24.9220  -30.1330 N   0  0  0  0  0  0  0  0  0  0  0  0
   -4.8440   24.4070  -30.6450 C   0  0  0  0  0  0  0  0  0  0  0  0
   -6.0560   24.8930  -30.1270 C   0  0  0  0  0  0  0  0  0  0  0  0
   -7.2750   24.3910  -30.5920 C   0  0  0  0  0  0  0  0  0  0  0  0
   -7.2940   23.3890  -31.5650 C   0  0  0  0  0  0  0  0  0  0  0  0
   -6.0950   22.8810  -32.0690 C   0  0  0  0  0  0  0  0  0  0  0  0
   -6.1140   21.8930  -32.9970 F   0  0  0  0  0  0  0  0  0  0  0  0
   -4.8720   23.3820  -31.6080 C   0  0  0  0  0  0  0  0  0  0  0  0
   -1.9514   27.3184  -26.5250 H   0  0  0  0  0  0  0  0  0  0  0  0
   -1.0913   27.1771  -24.1889 H   0  0  0  0  0  0  0  0  0  0  0  0
   -0.0815   25.0563  -23.3522 H   0  0  0  0  0  0  0  0  0  0  0  0
    0.0645   23.0657  -24.8486 H   0  0  0  0  0  0  0  0  0  0  0  0
   -1.5388   21.3564  -26.2353 H   0  0  0  0  0  0  0  0  0  0  0  0
   -2.7110   22.2190  -27.3082 H   0  0  0  0  0  0  0  0  0  0  0  0
   -0.5868   20.1709  -28.0895 H   0  0  0  0  0  0  0  0  0  0  0  0
   -2.3669   20.0792  -28.3189 H   0  0  0  0  0  0  0  0  0  0  0  0
   -0.8018   21.6483  -32.2453 H   0  0  0  0  0  0  0  0  0  0  0  0
   -2.2728   20.9750  -34.1441 H   0  0  0  0  0  0  0  0  0  0  0  0
   -4.5100   19.9605  -33.6954 H   0  0  0  0  0  0  0  0  0  0  0  0
   -5.2788   19.6212  -31.3443 H   0  0  0  0  0  0  0  0  0  0  0  0
   -3.8129   20.2885  -29.4399 H   0  0  0  0  0  0  0  0  0  0  0  0
    0.3762   22.1895  -30.5034 H   0  0  0  0  0  0  0  0  0  0  0  0
   -0.9505   23.3789  -30.1688 H   0  0  0  0  0  0  0  0  0  0  0  0
    1.0406   22.1511  -28.2182 H   0  0  0  0  0  0  0  0  0  0  0  0
    0.7163   23.8876  -28.5658 H   0  0  0  0  0  0  0  0  0  0  0  0
   -3.0120   25.5090  -30.7660 H   0  0  0  0  0  0  0  0  0  0  0  0
   -6.0458   25.6728  -29.3513 H   0  0  0  0  0  0  0  0  0  0  0  0
   -8.2204   24.7855  -30.1912 H   0  0  0  0  0  0  0  0  0  0  0  0
   -8.2542   22.9998  -31.9345 H   0  0  0  0  0  0  0  0  0  0  0  0
   -3.9293   22.9727  -32.0002 H   0  0  0  0  0  0  0  0  0  0  0  0
  1  2  2  0
  2  3  1  0
  3  4  1  0
  4  5  2  0
  5  6  1  0
  6  7  2  0
  7  8  1  0
  8  9  2  0
  9 10  1  0
 10 11  1  0
 11 12  1  0
 12 13  1  0
 13 14  1  0
 14 15  2  0
 15 16  1  0
 16 17  2  0
 17 18  1  0
 18 19  2  0
 13 20  1  0
 20 21  1  0
  2 22  1  0
 22 23  1  0
 23 24  2  0
 24 25  1  0
 25 26  2  0
 26 27  1  0
 27 28  1  0
 27 29  2  0
  9  4  1  0
 21 10  1  0
 29 23  1  0
 19 14  1  0
  5 30  1  0
  6 31  1  0
  7 32  1  0
  8 33  1  0
 11 34  1  0
 11 35  1  0
 12 36  1  0
 12 37  1  0
 15 38  1  0
 16 39  1  0
 17 40  1  0
 18 41  1  0
 19 42  1  0
 20 43  1  0
 20 44  1  0
 21 45  1  0
 21 46  1  0
 22 47  1  0
 24 48  1  0
 25 49  1  0
 26 50  1  0
 29 51  1  0
M  CHG  1   3  -1
M  END
>  <UniqueID>  (18) 
17

>  <SMILES>  (18) 
O=C([N-]c1ccccc1N1CCN(c2ccccc2)CC1)Nc1cccc(F)c1

>  <Energy>  (18) 
71.54121276029845

>  <Genealogy>  (18) 
O=C([N-]c1ccccc1N1CCN(c2ccccc2)CC1)Nc1cccc(F)c1 (protonated)
O=C([N-]c1ccccc1N1CCN(c2ccccc2)CC1)Nc1cccc(F)c1 (3D coordinates assigned)
O=C([N-]c1ccccc1N1CCN(c2ccccc2)CC1)Nc1cccc(F)c1 (nonaromatic ring conformer: 71.54121276029845 kcal/mol)

>  <smiles>  (18) 
O=C(Nc1cccc(F)c1)Nc1ccccc1N1CCN(c2ccccc2)CC1

>  <score_type>  (18) 
oracle

>  <origin>  (18) 
adgpu

>  <m_score__min__energy>  (18) 
-9.5600000000000005

>  <m_primary>  (18) 
energy

$$$$
18:0
     RDKit          3D

 46 49  0  0  0  0  0  0  0  0999 V2000
   -5.2010   25.3310  -30.3820 C   0  0  0  0  0  0  0  0  0  0  0  0
   -3.7840   25.2350  -30.4830 O   0  0  0  0  0  0  0  0  0  0  0  0
   -2.9840   24.3890  -29.6970 C   0  0  0  0  0  0  0  0  0  0  0  0
   -2.1370   24.8930  -28.6890 C   0  0  0  0  0  0  0  0  0  0  0  0
   -1.3680   24.0240  -27.9130 C   0  0  0  0  0  0  0  0  0  0  0  0
   -1.4270   22.6480  -28.1330 C   0  0  0  0  0  0  0  0  0  0  0  0
   -2.2600   22.1350  -29.1290 C   0  0  0  0  0  0  0  0  0  0  0  0
   -3.0440   22.9980  -29.9120 C   0  0  0  0  0  0  0  0  0  0  0  0
   -3.9310   22.4410  -30.9500 C   0  0  0  0  0  0  0  0  0  0  0  0
   -5.2560   22.2650  -30.7790 N   0  0  0  0  0  0  0  0  0  0  0  0
   -5.7310   21.6720  -31.8660 N   0  0  0  0  0  0  0  0  0  0  0  0
   -7.1140   21.2970  -32.0250 C   0  0  0  0  0  0  0  0  0  0  0  0
   -8.1560   22.1930  -31.7130 C   0  0  0  0  0  0  0  0  0  0  0  0
   -9.4920   21.8090  -31.8730 C   0  0  0  0  0  0  0  0  0  0  0  0
   -9.8040   20.5300  -32.3400 C   0  0  0  0  0  0  0  0  0  0  0  0
   -8.7810   19.6310  -32.6450 C   0  0  0  0  0  0  0  0  0  0  0  0
   -7.4440   20.0080  -32.4870 C   0  0  0  0  0  0  0  0  0  0  0  0
   -4.7200   21.4430  -32.7320 C   0  0  0  0  0  0  0  0  0  0  0  0
   -3.5520   21.9320  -32.1820 C   0  0  0  0  0  0  0  0  0  0  0  0
   -2.1640   21.6980  -32.7030 C   0  0  0  0  0  0  0  0  0  0  0  0
   -1.8890   20.2210  -32.7980 C   0  0  0  0  0  0  0  0  0  0  0  0
   -2.4400   19.4570  -33.8420 C   0  0  0  0  0  0  0  0  0  0  0  0
   -2.1350   18.0980  -33.9590 C   0  0  0  0  0  0  0  0  0  0  0  0
   -2.6660   17.3690  -34.9710 F   0  0  0  0  0  0  0  0  0  0  0  0
   -1.2780   17.4910  -33.0350 C   0  0  0  0  0  0  0  0  0  0  0  0
   -0.7250   18.2430  -31.9950 C   0  0  0  0  0  0  0  0  0  0  0  0
    0.1090   17.6540  -31.1030 F   0  0  0  0  0  0  0  0  0  0  0  0
   -1.0260   19.6030  -31.8770 C   0  0  0  0  0  0  0  0  0  0  0  0
   -5.4925   25.3507  -29.3215 H   0  0  0  0  0  0  0  0  0  0  0  0
   -5.5419   26.2543  -30.8732 H   0  0  0  0  0  0  0  0  0  0  0  0
   -5.6633   24.4621  -30.8732 H   0  0  0  0  0  0  0  0  0  0  0  0
   -2.0818   25.9774  -28.5129 H   0  0  0  0  0  0  0  0  0  0  0  0
   -0.7134   24.4257  -27.1255 H   0  0  0  0  0  0  0  0  0  0  0  0
   -0.8170   21.9668  -27.5216 H   0  0  0  0  0  0  0  0  0  0  0  0
   -2.3025   21.0494  -29.3014 H   0  0  0  0  0  0  0  0  0  0  0  0
   -7.9176   23.2005  -31.3414 H   0  0  0  0  0  0  0  0  0  0  0  0
  -10.2988   22.5163  -31.6304 H   0  0  0  0  0  0  0  0  0  0  0  0
  -10.8551   20.2317  -32.4672 H   0  0  0  0  0  0  0  0  0  0  0  0
   -9.0273   18.6232  -33.0107 H   0  0  0  0  0  0  0  0  0  0  0  0
   -6.6434   19.2923  -32.7254 H   0  0  0  0  0  0  0  0  0  0  0  0
   -4.8119   20.9498  -33.7109 H   0  0  0  0  0  0  0  0  0  0  0  0
   -2.0689   22.1507  -33.7010 H   0  0  0  0  0  0  0  0  0  0  0  0
   -1.4390   22.1555  -32.0138 H   0  0  0  0  0  0  0  0  0  0  0  0
   -3.1144   19.9312  -34.5702 H   0  0  0  0  0  0  0  0  0  0  0  0
   -1.0392   16.4212  -33.1271 H   0  0  0  0  0  0  0  0  0  0  0  0
   -0.5853   20.1922  -31.0594 H   0  0  0  0  0  0  0  0  0  0  0  0
  1  2  1  0
  2  3  1  0
  3  4  2  0
  4  5  1  0
  5  6  2  0
  6  7  1  0
  7  8  2  0
  8  9  1  0
  9 10  2  0
 10 11  1  0
 11 12  1  0
 12 13  2  0
 13 14  1  0
 14 15  2  0
 15 16  1  0
 16 17  2  0
 11 18  1  0
 18 19  2  0
 19 20  1  0
 20 21  1  0
 21 22  2  0
 22 23  1  0
 23 24  1  0
 23 25  2  0
 25 26  1  0
 26 27  1  0
 26 28  2  0
  8  3  1  0
 19  9  1  0
 28 21  1  0
 17 12  1  0
  1 29  1  0
  1 30  1  0
  1 31  1  0
  4 32  1  0
  5 33  1  0
  6 34  1  0
  7 35  1  0
 13 36  1  0
 14 37  1  0
 15 38  1  0
 16 39  1  0
 17 40  1  0
 18 41  1  0
 20 42  1  0
 20 43  1  0
 22 44  1  0
 25 45  1  0
 28 46  1  0
M  END
>  <UniqueID>  (19) 
18

>  <SMILES>  (19) 
COc1ccccc1-c1nn(-c2ccccc2)cc1Cc1cc(F)cc(F)c1

>  <Energy>  (19) 
84.96042672042252

>  <Genealogy>  (19) 
COc1ccccc1-c1nn(-c2ccccc2)cc1Cc1cc(F)cc(F)c1 (3D coordinates assigned)
COc1ccccc1-c1nn(-c2ccccc2)cc1Cc1cc(F)cc(F)c1 (optimized conformer: 84.96042672042252 kcal/mol)

>  <smiles>  (19) 
COc1ccccc1-c1nn(-c2ccccc2)cc1Cc1cc(F)cc(F)c1

>  <score_type>  (19) 
oracle

>  <origin>  (19) 
adgpu

>  <m_score__min__energy>  (19) 
-8.5800000000000001

>  <m_primary>  (19) 
energy

$$$$
19:0
     RDKit          3D

 28 29  0  0  0  0  0  0  0  0999 V2000
   -5.3740   26.4670  -30.4650 O   0  0  0  0  0  0  0  0  0  0  0  0
   -4.9420   25.2900  -30.5730 C   0  0  0  0  0  0  0  0  0  0  0  0
   -3.5290   25.0650  -30.4680 N   0  0  0  0  0  0  0  0  0  0  0  0
   -2.8970   23.8540  -30.0280 C   0  0  0  0  0  0  0  0  0  0  0  0
   -3.1220   22.6810  -30.7600 C   0  0  0  0  0  0  0  0  0  0  0  0
   -2.5460   21.4740  -30.3580 C   0  0  0  0  0  0  0  0  0  0  0  0
   -1.7250   21.4310  -29.2300 C   0  0  0  0  0  0  0  0  0  0  0  0
   -1.4650   22.6000  -28.5120 C   0  0  0  0  0  0  0  0  0  0  0  0
   -2.0360   23.8160  -28.9070 C   0  0  0  0  0  0  0  0  0  0  0  0
   -1.5720   25.2720  -28.0320 Cl  0  0  0  0  0  0  0  0  0  0  0  0
   -5.9040   24.1920  -30.8210 C   0  0  0  0  0  0  0  0  0  0  0  0
   -6.1360   23.7430  -32.0660 C   0  0  0  0  0  0  0  0  0  0  0  0
   -7.1340   22.6500  -32.3420 C   0  0  0  0  0  0  0  0  0  0  0  0
   -7.3290   21.7410  -31.1250 C   0  0  0  0  0  0  0  0  0  0  0  0
   -7.6300   22.5850  -29.8870 C   0  0  0  0  0  0  0  0  0  0  0  0
   -6.5940   23.6000  -29.7050 N   0  0  0  0  0  0  0  0  0  0  0  0
   -3.7569   22.7109  -31.6578 H   0  0  0  0  0  0  0  0  0  0  0  0
   -2.7397   20.5554  -30.9314 H   0  0  0  0  0  0  0  0  0  0  0  0
   -1.2831   20.4769  -28.9069 H   0  0  0  0  0  0  0  0  0  0  0  0
   -0.8076   22.5655  -27.6307 H   0  0  0  0  0  0  0  0  0  0  0  0
   -5.5817   24.1861  -32.9065 H   0  0  0  0  0  0  0  0  0  0  0  0
   -8.0997   23.1068  -32.6042 H   0  0  0  0  0  0  0  0  0  0  0  0
   -6.7505   22.0364  -33.1705 H   0  0  0  0  0  0  0  0  0  0  0  0
   -8.1692   21.0562  -31.3124 H   0  0  0  0  0  0  0  0  0  0  0  0
   -6.4087   21.1632  -30.9539 H   0  0  0  0  0  0  0  0  0  0  0  0
   -8.6049   23.0790  -30.0120 H   0  0  0  0  0  0  0  0  0  0  0  0
   -7.6515   21.9310  -29.0028 H   0  0  0  0  0  0  0  0  0  0  0  0
   -6.3740   23.9160  -28.7340 H   0  0  0  0  0  0  0  0  0  0  0  0
  1  2  2  0
  2  3  1  0
  3  4  1  0
  4  5  2  0
  5  6  1  0
  6  7  2  0
  7  8  1  0
  8  9  2  0
  9 10  1  0
  2 11  1  0
 11 12  2  0
 12 13  1  0
 13 14  1  0
 14 15  1  0
 15 16  1  0
  9  4  1  0
 16 11  1  0
  5 17  1  0
  6 18  1  0
  7 19  1  0
  8 20  1  0
 12 21  1  0
 13 22  1  0
 13 23  1  0
 14 24  1  0
 14 25  1  0
 15 26  1  0
 15 27  1  0
 16 28  1  0
M  CHG  1   3  -1
M  END
>  <UniqueID>  (20) 
19

>  <SMILES>  (20) 
O=C([N-]c1ccccc1Cl)C1=CCCCN1

>  <Energy>  (20) 
34.33990350411062

>  <Genealogy>  (20) 
O=C([N-]c1ccccc1Cl)C1=CCCCN1 (protonated)
O=C([N-]c1ccccc1Cl)C1=CCCCN1 (3D coordinates assigned)
O=C([N-]c1ccccc1Cl)C1=CCCCN1 (nonaromatic ring conformer: 34.33990350411062 kcal/mol)

>  <smiles>  (20) 
O=C(Nc1ccccc1Cl)C1=CCCCN1

>  <score_type>  (20) 
oracle

>  <origin>  (20) 
adgpu

>  <m_score__min__energy>  (20) 
-8.2599999999999998

>  <m_primary>  (20) 
energy

$$$$
20:0
     RDKit          3D

 39 41  0  0  0  0  0  0  0  0999 V2000
   -6.2900   16.8310  -33.5620 C   0  0  0  0  0  0  0  0  0  0  0  0
   -6.5040   17.5130  -32.3300 O   0  0  0  0  0  0  0  0  0  0  0  0
   -7.0100   18.8180  -32.2250 C   0  0  0  0  0  0  0  0  0  0  0  0
   -8.3730   19.1170  -32.4150 C   0  0  0  0  0  0  0  0  0  0  0  0
   -8.8310   20.4330  -32.3030 C   0  0  0  0  0  0  0  0  0  0  0  0
   -7.9330   21.4700  -32.0000 C   0  0  0  0  0  0  0  0  0  0  0  0
   -8.3410   22.8090  -31.8820 C   0  0  0  0  0  0  0  0  0  0  0  0
   -9.5480   23.1370  -32.0420 O   0  0  0  0  0  0  0  0  0  0  0  0
   -7.3930   23.7900  -31.5870 C   0  0  0  0  0  0  0  0  0  0  0  0
   -6.0500   23.4180  -31.4150 C   0  0  0  0  0  0  0  0  0  0  0  0
   -5.0130   24.4280  -31.1090 C   0  0  0  0  0  0  0  0  0  0  0  0
   -5.2930   25.6540  -31.1800 O   0  0  0  0  0  0  0  0  0  0  0  0
   -3.7040   24.0470  -30.6610 N   0  0  0  0  0  0  0  0  0  0  0  0
   -3.4040   22.9960  -29.7300 C   0  0  0  0  0  0  0  0  0  0  0  0
   -3.6560   23.1510  -28.3560 C   0  0  0  0  0  0  0  0  0  0  0  0
   -3.3500   22.1230  -27.4610 C   0  0  0  0  0  0  0  0  0  0  0  0
   -2.8040   20.9220  -27.9280 C   0  0  0  0  0  0  0  0  0  0  0  0
   -2.4120   19.6350  -26.7930 S   0  0  0  0  0  0  0  0  0  0  0  0
   -3.8700   18.9350  -26.1810 N   0  0  0  0  0  0  0  0  0  0  0  0
   -1.6190   20.1890  -25.6430 O   0  0  0  0  0  0  0  0  0  0  0  0
   -1.6030   18.5800  -27.4950 O   0  0  0  0  0  0  0  0  0  0  0  0
   -2.5920   20.7470  -29.3010 C   0  0  0  0  0  0  0  0  0  0  0  0
   -2.8960   21.7740  -30.2020 C   0  0  0  0  0  0  0  0  0  0  0  0
   -2.6040   21.5250  -31.9170 Cl  0  0  0  0  0  0  0  0  0  0  0  0
   -5.7010   22.1380  -31.5210 O   0  0  0  0  0  0  0  0  0  0  0  0
   -6.5670   21.1710  -31.8070 C   0  0  0  0  0  0  0  0  0  0  0  0
   -6.1170   19.8520  -31.9200 C   0  0  0  0  0  0  0  0  0  0  0  0
   -5.9663   15.7995  -33.3587 H   0  0  0  0  0  0  0  0  0  0  0  0
   -7.2261   16.8145  -34.1394 H   0  0  0  0  0  0  0  0  0  0  0  0
   -5.5122   17.3523  -34.1394 H   0  0  0  0  0  0  0  0  0  0  0  0
   -9.0816   18.3100  -32.6530 H   0  0  0  0  0  0  0  0  0  0  0  0
   -9.8975   20.6572  -32.4525 H   0  0  0  0  0  0  0  0  0  0  0  0
   -7.6948   24.8434  -31.4903 H   0  0  0  0  0  0  0  0  0  0  0  0
   -4.0968   24.0873  -27.9832 H   0  0  0  0  0  0  0  0  0  0  0  0
   -3.5388   22.2579  -26.3858 H   0  0  0  0  0  0  0  0  0  0  0  0
   -3.7400   18.8050  -25.1530 H   0  0  0  0  0  0  0  0  0  0  0  0
   -4.6250   19.6480  -26.3020 H   0  0  0  0  0  0  0  0  0  0  0  0
   -2.1838   19.7961  -29.6740 H   0  0  0  0  0  0  0  0  0  0  0  0
   -5.0515   19.6248  -31.7678 H   0  0  0  0  0  0  0  0  0  0  0  0
  1  2  1  0
  2  3  1  0
  3  4  2  0
  4  5  1  0
  5  6  2  0
  6  7  1  0
  7  8  2  0
  7  9  1  0
  9 10  2  0
 10 11  1  0
 11 12  2  0
 11 13  1  0
 13 14  1  0
 14 15  2  0
 15 16  1  0
 16 17  2  0
 17 18  1  0
 18 19  1  0
 18 20  2  0
 18 21  2  0
 17 22  1  0
 22 23  2  0
 23 24  1  0
 10 25  1  0
 25 26  1  0
 26 27  2  0
 27  3  1  0
 26  6  1  0
 23 14  1  0
  1 28  1  0
  1 29  1  0
  1 30  1  0
  4 31  1  0
  5 32  1  0
  9 33  1  0
 15 34  1  0
 16 35  1  0
 19 36  1  0
 19 37  1  0
 22 38  1  0
 27 39  1  0
M  CHG  1  13  -1
M  END
>  <UniqueID>  (21) 
20

>  <SMILES>  (21) 
COc1ccc2c(=O)cc(C(=O)[N-]c3ccc(S(N)(=O)=O)cc3Cl)oc2c1

>  <Energy>  (21) 
49.592431543940556

>  <Genealogy>  (21) 
COc1ccc2c(=O)cc(C(=O)[N-]c3ccc(S(N)(=O)=O)cc3Cl)oc2c1 (protonated)
COc1ccc2c(=O)cc(C(=O)[N-]c3ccc(S(N)(=O)=O)cc3Cl)oc2c1 (3D coordinates assigned)
COc1ccc2c(=O)cc(C(=O)[N-]c3ccc(S(N)(=O)=O)cc3Cl)oc2c1 (optimized conformer: 49.592431543940556 kcal/mol)

>  <smiles>  (21) 
COc1ccc2c(=O)cc(C(=O)Nc3ccc(S(N)(=O)=O)cc3Cl)oc2c1

>  <score_type>  (21) 
oracle

>  <origin>  (21) 
adgpu

>  <m_score__min__energy>  (21) 
-10.369999999999999

>  <m_primary>  (21) 
energy

$$$$
21:0
     RDKit          3D

 42 45  0  0  0  0  0  0  0  0999 V2000
   -2.7490   16.6280  -34.2180 C   0  0  0  0  0  0  0  0  0  0  0  0
   -3.4930   17.8900  -34.3070 N   0  0  0  0  0  0  0  0  0  0  0  0
   -4.8350   17.8770  -34.9100 C   0  0  0  0  0  0  0  0  0  0  0  0
   -5.8800   18.2060  -33.8780 C   0  0  0  0  0  0  0  0  0  0  0  0
   -6.2750   17.2270  -32.9290 C   0  0  0  0  0  0  0  0  0  0  0  0
   -7.2620   17.5170  -31.9700 C   0  0  0  0  0  0  0  0  0  0  0  0
   -7.8330   18.7860  -31.9900 C   0  0  0  0  0  0  0  0  0  0  0  0
   -7.4670   19.7240  -32.8980 C   0  0  0  0  0  0  0  0  0  0  0  0
   -6.4920   19.4790  -33.8610 C   0  0  0  0  0  0  0  0  0  0  0  0
   -8.1960   20.8780  -32.6860 O   0  0  0  0  0  0  0  0  0  0  0  0
   -9.0750   20.6490  -31.5770 C   0  0  0  0  0  0  0  0  0  0  0  0
   -8.8110   19.3020  -31.1620 O   0  0  0  0  0  0  0  0  0  0  0  0
   -2.9070   19.1360  -33.8520 C   0  0  0  0  0  0  0  0  0  0  0  0
   -3.6460   20.0740  -33.1060 C   0  0  0  0  0  0  0  0  0  0  0  0
   -3.0280   21.2700  -32.7050 C   0  0  0  0  0  0  0  0  0  0  0  0
   -3.7600   22.3040  -31.9310 C   0  0  0  0  0  0  0  0  0  0  0  0
   -3.1520   22.9790  -30.8540 C   0  0  0  0  0  0  0  0  0  0  0  0
   -3.8590   23.9470  -30.1350 C   0  0  0  0  0  0  0  0  0  0  0  0
   -5.1790   24.2590  -30.4830 C   0  0  0  0  0  0  0  0  0  0  0  0
   -5.9060   25.2540  -29.7390 C   0  0  0  0  0  0  0  0  0  0  0  0
   -6.4910   26.0530  -29.1410 N   0  0  0  0  0  0  0  0  0  0  0  0
   -5.7870   23.6040  -31.5580 C   0  0  0  0  0  0  0  0  0  0  0  0
   -5.0820   22.6370  -32.2820 C   0  0  0  0  0  0  0  0  0  0  0  0
   -1.7360   21.4990  -33.0660 N   0  0  0  0  0  0  0  0  0  0  0  0
   -1.0300   20.5900  -33.7850 C   0  0  0  0  0  0  0  0  0  0  0  0
   -1.6150   19.4270  -34.1670 N   0  0  0  0  0  0  0  0  0  0  0  0
   -2.5951   16.3669  -33.1606 H   0  0  0  0  0  0  0  0  0  0  0  0
   -3.3209   15.8295  -34.7134 H   0  0  0  0  0  0  0  0  0  0  0  0
   -1.7735   16.7418  -34.7134 H   0  0  0  0  0  0  0  0  0  0  0  0
   -4.8763   18.6229  -35.7174 H   0  0  0  0  0  0  0  0  0  0  0  0
   -5.0350   16.8724  -35.3110 H   0  0  0  0  0  0  0  0  0  0  0  0
   -5.8049   16.2326  -32.9438 H   0  0  0  0  0  0  0  0  0  0  0  0
   -7.5723   16.7658  -31.2288 H   0  0  0  0  0  0  0  0  0  0  0  0
   -6.2065   20.2541  -34.5875 H   0  0  0  0  0  0  0  0  0  0  0  0
   -8.8584   21.3539  -30.7608 H   0  0  0  0  0  0  0  0  0  0  0  0
  -10.1302   20.7963  -31.8506 H   0  0  0  0  0  0  0  0  0  0  0  0
   -4.6943   19.8727  -32.8405 H   0  0  0  0  0  0  0  0  0  0  0  0
   -2.1140   22.7426  -30.5771 H   0  0  0  0  0  0  0  0  0  0  0  0
   -3.3769   24.4654  -29.2931 H   0  0  0  0  0  0  0  0  0  0  0  0
   -6.8227   23.8498  -31.8352 H   0  0  0  0  0  0  0  0  0  0  0  0
   -5.5643   22.1327  -33.1323 H   0  0  0  0  0  0  0  0  0  0  0  0
    0.0155   20.7959  -34.0578 H   0  0  0  0  0  0  0  0  0  0  0  0
  1  2  1  0
  2  3  1  0
  3  4  1  0
  4  5  2  0
  5  6  1  0
  6  7  2  0
  7  8  1  0
  8  9  2  0
  8 10  1  0
 10 11  1  0
 11 12  1  0
  2 13  1  0
 13 14  2  0
 14 15  1  0
 15 16  1  0
 16 17  2  0
 17 18  1  0
 18 19  2  0
 19 20  1  0
 20 21  3  0
 19 22  1  0
 22 23  2  0
 15 24  2  0
 24 25  1  0
 25 26  2  0
  9  4  1  0
 26 13  1  0
 12  7  1  0
 23 16  1  0
  1 27  1  0
  1 28  1  0
  1 29  1  0
  3 30  1  0
  3 31  1  0
  5 32  1  0
  6 33  1  0
  9 34  1  0
 11 35  1  0
 11 36  1  0
 14 37  1  0
 17 38  1  0
 18 39  1  0
 22 40  1  0
 23 41  1  0
 25 42  1  0
M  END
>  <UniqueID>  (22) 
21

>  <SMILES>  (22) 
CN(Cc1ccc2c(c1)OCO2)c1cc(-c2ccc(C#N)cc2)ncn1

>  <Energy>  (22) 
77.57533308640816

>  <Genealogy>  (22) 
CN(Cc1ccc2c(c1)OCO2)c1cc(-c2ccc(C#N)cc2)ncn1 (3D coordinates assigned)
CN(Cc1ccc2c(c1)OCO2)c1cc(-c2ccc(C#N)cc2)ncn1 (nonaromatic ring conformer: 77.57533308640816 kcal/mol)

>  <smiles>  (22) 
CN(Cc1ccc2c(c1)OCO2)c1cc(-c2ccc(C#N)cc2)ncn1

>  <score_type>  (22) 
oracle

>  <origin>  (22) 
adgpu

>  <m_score__min__energy>  (22) 
-8.1799999999999997

>  <m_primary>  (22) 
energy

$$$$
22:0
     RDKit          3D

 47 49  0  0  0  0  0  0  0  0999 V2000
    4.3120   25.2870  -23.2500 C   0  0  0  0  0  0  0  0  0  0  0  0
    2.8910   25.6160  -23.3950 N   0  0  0  0  0  0  0  0  0  0  0  0
    2.7030   26.8900  -24.1050 C   0  0  0  0  0  0  0  0  0  0  0  0
    1.3010   27.4570  -23.8220 C   0  0  0  0  0  0  0  0  0  0  0  0
    0.4030   26.4680  -23.1940 N   0  0  0  0  0  0  0  0  0  0  0  0
   -0.8640   26.2540  -23.9190 C   0  0  0  0  0  0  0  0  0  0  0  0
   -0.7250   25.2440  -25.0330 C   0  0  0  0  0  0  0  0  0  0  0  0
    0.3270   24.3150  -25.0220 C   0  0  0  0  0  0  0  0  0  0  0  0
    0.4650   23.3960  -26.0640 C   0  0  0  0  0  0  0  0  0  0  0  0
   -0.4420   23.3960  -27.1260 C   0  0  0  0  0  0  0  0  0  0  0  0
   -1.5000   24.3210  -27.1570 C   0  0  0  0  0  0  0  0  0  0  0  0
   -2.4590   24.3240  -28.2840 C   0  0  0  0  0  0  0  0  0  0  0  0
   -3.4470   23.4190  -28.4320 N   0  0  0  0  0  0  0  0  0  0  0  0
   -4.0320   23.8260  -29.5760 C   0  0  0  0  0  0  0  0  0  0  0  0
   -5.1970   23.1530  -30.1900 C   0  0  0  0  0  0  0  0  0  0  0  0
   -5.0130   22.1740  -31.1810 C   0  0  0  0  0  0  0  0  0  0  0  0
   -6.1150   21.5370  -31.7610 C   0  0  0  0  0  0  0  0  0  0  0  0
   -7.4210   21.8810  -31.3760 C   0  0  0  0  0  0  0  0  0  0  0  0
   -8.6070   21.1590  -31.9660 C   0  0  0  0  0  0  0  0  0  0  0  0
   -8.2390   20.4590  -33.1020 F   0  0  0  0  0  0  0  0  0  0  0  0
   -9.1090   20.2710  -31.0320 F   0  0  0  0  0  0  0  0  0  0  0  0
   -9.6010   22.0570  -32.3150 F   0  0  0  0  0  0  0  0  0  0  0  0
   -7.6030   22.8420  -30.3680 C   0  0  0  0  0  0  0  0  0  0  0  0
   -6.5030   23.4780  -29.7870 C   0  0  0  0  0  0  0  0  0  0  0  0
   -3.4350   24.9160  -30.0950 N   0  0  0  0  0  0  0  0  0  0  0  0
   -2.4430   25.2300  -29.2800 N   0  0  0  0  0  0  0  0  0  0  0  0
   -1.6340   25.2440  -26.1040 C   0  0  0  0  0  0  0  0  0  0  0  0
    4.5675   25.2278  -22.1817 H   0  0  0  0  0  0  0  0  0  0  0  0
    4.5149   24.3181  -23.7297 H   0  0  0  0  0  0  0  0  0  0  0  0
    4.9200   26.0681  -23.7297 H   0  0  0  0  0  0  0  0  0  0  0  0
    2.5030   25.7220  -22.4280 H   0  0  0  0  0  0  0  0  0  0  0  0
    3.4613   27.6105  -23.7646 H   0  0  0  0  0  0  0  0  0  0  0  0
    2.8071   26.7159  -25.1861 H   0  0  0  0  0  0  0  0  0  0  0  0
    1.4001   28.3205  -23.1478 H   0  0  0  0  0  0  0  0  0  0  0  0
    0.8572   27.7433  -24.7869 H   0  0  0  0  0  0  0  0  0  0  0  0
    0.9020   25.5510  -23.1140 H   0  0  0  0  0  0  0  0  0  0  0  0
    0.1870   26.7870  -22.2210 H   0  0  0  0  0  0  0  0  0  0  0  0
   -1.6218   25.8937  -23.2077 H   0  0  0  0  0  0  0  0  0  0  0  0
   -1.1590   27.2130  -24.3699 H   0  0  0  0  0  0  0  0  0  0  0  0
    1.0456   24.3109  -24.1892 H   0  0  0  0  0  0  0  0  0  0  0  0
    1.2908   22.6695  -26.0484 H   0  0  0  0  0  0  0  0  0  0  0  0
   -0.3278   22.6681  -27.9428 H   0  0  0  0  0  0  0  0  0  0  0  0
   -3.9956   21.9068  -31.5028 H   0  0  0  0  0  0  0  0  0  0  0  0
   -5.9575   20.7608  -32.5244 H   0  0  0  0  0  0  0  0  0  0  0  0
   -8.6196   23.0959  -30.0333 H   0  0  0  0  0  0  0  0  0  0  0  0
   -6.6607   24.2388  -29.0083 H   0  0  0  0  0  0  0  0  0  0  0  0
   -2.4581   25.9724  -26.1194 H   0  0  0  0  0  0  0  0  0  0  0  0
  1  2  1  0
  2  3  1  0
  3  4  1  0
  4  5  1  0
  5  6  1  0
  6  7  1  0
  7  8  2  0
  8  9  1  0
  9 10  2  0
 10 11  1  0
 11 12  1  0
 12 13  2  0
 13 14  1  0
 14 15  1  0
 15 16  2  0
 16 17  1  0
 17 18  2  0
 18 19  1  0
 19 20  1  0
 19 21  1  0
 19 22  1  0
 18 23  1  0
 23 24  2  0
 14 25  2  0
 25 26  1  0
 11 27  2  0
 27  7  1  0
 26 12  1  0
 24 15  1  0
  1 28  1  0
  1 29  1  0
  1 30  1  0
  2 31  1  0
  3 32  1  0
  3 33  1  0
  4 34  1  0
  4 35  1  0
  5 36  1  0
  5 37  1  0
  6 38  1  0
  6 39  1  0
  8 40  1  0
  9 41  1  0
 10 42  1  0
 16 43  1  0
 17 44  1  0
 23 45  1  0
 24 46  1  0
 27 47  1  0
M  CHG  2   5   1  26  -1
M  END
>  <UniqueID>  (23) 
22

>  <SMILES>  (23) 
CNCC[NH2+]Cc1cccc(-c2nc(-c3ccc(C(F)(F)F)cc3)n[n-]2)c1

>  <Energy>  (23) 
81.13104452213891

>  <Genealogy>  (23) 
CNCC[NH2+]Cc1cccc(-c2nc(-c3ccc(C(F)(F)F)cc3)n[n-]2)c1 (protonated)
CNCC[NH2+]Cc1cccc(-c2nc(-c3ccc(C(F)(F)F)cc3)n[n-]2)c1 (3D coordinates assigned)
CNCC[NH2+]Cc1cccc(-c2nc(-c3ccc(C(F)(F)F)cc3)n[n-]2)c1 (optimized conformer: 81.13104452213891 kcal/mol)

>  <smiles>  (23) 
CNCCNCc1cccc(-c2nc(-c3ccc(C(F)(F)F)cc3)n[nH]2)c1

>  <score_type>  (23) 
oracle

>  <origin>  (23) 
adgpu

>  <m_score__min__energy>  (23) 
-9.1899999999999995

>  <m_primary>  (23) 
energy

$$$$
23:0
     RDKit          3D

 45 47  0  0  0  0  0  0  0  0999 V2000
   -3.5540   16.0520  -34.9250 C   0  0  0  0  0  0  0  0  0  0  0  0
   -4.4960   16.0680  -33.8580 O   0  0  0  0  0  0  0  0  0  0  0  0
   -5.2240   17.2010  -33.4620 C   0  0  0  0  0  0  0  0  0  0  0  0
   -5.3240   18.3530  -34.2660 C   0  0  0  0  0  0  0  0  0  0  0  0
   -6.0670   19.4530  -33.8290 C   0  0  0  0  0  0  0  0  0  0  0  0
   -6.7250   19.4200  -32.5900 C   0  0  0  0  0  0  0  0  0  0  0  0
   -7.5540   20.5640  -32.1570 C   0  0  0  0  0  0  0  0  0  0  0  0
   -7.1130   21.7130  -31.5130 C   0  0  0  0  0  0  0  0  0  0  0  0
   -5.7260   22.1400  -31.2170 C   0  0  0  0  0  0  0  0  0  0  0  0
   -5.4160   23.5000  -31.1150 C   0  0  0  0  0  0  0  0  0  0  0  0
   -4.1160   23.9170  -30.8240 C   0  0  0  0  0  0  0  0  0  0  0  0
   -3.8620   25.2860  -30.7260 O   0  0  0  0  0  0  0  0  0  0  0  0
   -3.0890   22.9720  -30.6300 C   0  0  0  0  0  0  0  0  0  0  0  0
   -1.8040   23.4680  -30.3360 O   0  0  0  0  0  0  0  0  0  0  0  0
   -0.9630   23.0690  -29.2580 C   0  0  0  0  0  0  0  0  0  0  0  0
   -3.3900   21.5900  -30.7350 C   0  0  0  0  0  0  0  0  0  0  0  0
   -2.3870   20.6310  -30.5200 O   0  0  0  0  0  0  0  0  0  0  0  0
   -1.5900   20.0370  -31.5420 C   0  0  0  0  0  0  0  0  0  0  0  0
   -4.7050   21.1950  -31.0490 C   0  0  0  0  0  0  0  0  0  0  0  0
   -8.2690   22.4220  -31.2310 C   0  0  0  0  0  0  0  0  0  0  0  0
   -9.3390   21.7390  -31.6830 N   0  0  0  0  0  0  0  0  0  0  0  0
   -8.9040   20.6180  -32.2340 N   0  0  0  0  0  0  0  0  0  0  0  0
   -9.7960   19.6080  -32.7950 C   0  0  0  0  0  0  0  0  0  0  0  0
   -6.6210   18.2740  -31.7890 C   0  0  0  0  0  0  0  0  0  0  0  0
   -5.8730   17.1750  -32.2230 C   0  0  0  0  0  0  0  0  0  0  0  0
   -2.5340   16.0347  -34.5134 H   0  0  0  0  0  0  0  0  0  0  0  0
   -3.7152   15.1565  -35.5431 H   0  0  0  0  0  0  0  0  0  0  0  0
   -3.6847   16.9525  -35.5431 H   0  0  0  0  0  0  0  0  0  0  0  0
   -4.8157   18.3870  -35.2409 H   0  0  0  0  0  0  0  0  0  0  0  0
   -6.1365   20.3509  -34.4606 H   0  0  0  0  0  0  0  0  0  0  0  0
   -6.2062   24.2502  -31.2659 H   0  0  0  0  0  0  0  0  0  0  0  0
   -2.9330   25.6750  -30.8280 H   0  0  0  0  0  0  0  0  0  0  0  0
   -1.4557   23.3027  -28.3027 H   0  0  0  0  0  0  0  0  0  0  0  0
   -0.7769   21.9866  -29.3194 H   0  0  0  0  0  0  0  0  0  0  0  0
   -0.0069   23.6095  -29.3194 H   0  0  0  0  0  0  0  0  0  0  0  0
   -0.7889   19.4400  -31.0818 H   0  0  0  0  0  0  0  0  0  0  0  0
   -2.2198   19.3862  -32.1664 H   0  0  0  0  0  0  0  0  0  0  0  0
   -1.1464   20.8265  -32.1664 H   0  0  0  0  0  0  0  0  0  0  0  0
   -4.9347   20.1255  -31.1644 H   0  0  0  0  0  0  0  0  0  0  0  0
   -8.3076   23.3937  -30.7169 H   0  0  0  0  0  0  0  0  0  0  0  0
  -10.2839   19.0555  -31.9785 H   0  0  0  0  0  0  0  0  0  0  0  0
  -10.5613   20.0982  -33.4146 H   0  0  0  0  0  0  0  0  0  0  0  0
   -9.2150   18.9091  -33.4146 H   0  0  0  0  0  0  0  0  0  0  0  0
   -7.1302   18.2392  -30.8146 H   0  0  0  0  0  0  0  0  0  0  0  0
   -5.7943   16.2826  -31.5847 H   0  0  0  0  0  0  0  0  0  0  0  0
  1  2  1  0
  2  3  1  0
  3  4  2  0
  4  5  1  0
  5  6  2  0
  6  7  1  0
  7  8  2  0
  8  9  1  0
  9 10  2  0
 10 11  1  0
 11 12  1  0
 11 13  2  0
 13 14  1  0
 14 15  1  0
 13 16  1  0
 16 17  1  0
 17 18  1  0
 16 19  2  0
  8 20  1  0
 20 21  2  0
 21 22  1  0
 22 23  1  0
  6 24  1  0
 24 25  2  0
 25  3  1  0
 22  7  1  0
 19  9  1  0
  1 26  1  0
  1 27  1  0
  1 28  1  0
  4 29  1  0
  5 30  1  0
 10 31  1  0
 12 32  1  0
 15 33  1  0
 15 34  1  0
 15 35  1  0
 18 36  1  0
 18 37  1  0
 18 38  1  0
 19 39  1  0
 20 40  1  0
 23 41  1  0
 23 42  1  0
 23 43  1  0
 24 44  1  0
 25 45  1  0
M  END
>  <UniqueID>  (24) 
23

>  <SMILES>  (24) 
COc1ccc(-c2c(-c3cc(O)c(OC)c(OC)c3)cnn2C)cc1

>  <Energy>  (24) 
86.31067644180717

>  <Genealogy>  (24) 
COc1ccc(-c2c(-c3cc(O)c(OC)c(OC)c3)cnn2C)cc1 (3D coordinates assigned)
COc1ccc(-c2c(-c3cc(O)c(OC)c(OC)c3)cnn2C)cc1 (optimized conformer: 86.31067644180717 kcal/mol)

>  <smiles>  (24) 
COc1ccc(-c2c(-c3cc(O)c(OC)c(OC)c3)cnn2C)cc1

>  <score_type>  (24) 
oracle

>  <origin>  (24) 
adgpu

>  <m_score__min__energy>  (24) 
-8.1300000000000008

>  <m_primary>  (24) 
energy

$$$$
24:0
     RDKit          3D

 43 45  0  0  0  0  0  0  0  0999 V2000
   -5.8130   19.6710  -33.2110 C   0  0  0  0  0  0  0  0  0  0  0  0
   -7.0220   20.2550  -32.5310 C   0  0  0  0  0  0  0  0  0  0  0  0
   -8.3060   19.9070  -32.9840 C   0  0  0  0  0  0  0  0  0  0  0  0
   -9.4420   20.4390  -32.3700 C   0  0  0  0  0  0  0  0  0  0  0  0
   -9.3080   21.3330  -31.3080 C   0  0  0  0  0  0  0  0  0  0  0  0
   -8.0400   21.6960  -30.8540 C   0  0  0  0  0  0  0  0  0  0  0  0
   -6.8860   21.1570  -31.4510 C   0  0  0  0  0  0  0  0  0  0  0  0
   -5.5810   21.5680  -31.0040 N   0  0  0  0  0  0  0  0  0  0  0  0
   -5.3100   22.8600  -30.4360 C   0  0  0  0  0  0  0  0  0  0  0  0
   -6.2510   23.6670  -30.2080 O   0  0  0  0  0  0  0  0  0  0  0  0
   -3.9260   23.2420  -30.0760 C   0  0  0  0  0  0  0  0  0  0  0  0
   -3.6520   24.0930  -28.9790 C   0  0  0  0  0  0  0  0  0  0  0  0
   -4.7500   24.6840  -28.2570 N   0  0  0  0  0  0  0  0  0  0  0  0
   -2.3430   24.3820  -28.6440 N   0  0  0  0  0  0  0  0  0  0  0  0
   -2.0290   25.2950  -27.5210 C   0  0  0  0  0  0  0  0  0  0  0  0
   -1.4250   24.5430  -26.3600 C   0  0  0  0  0  0  0  0  0  0  0  0
   -1.0640   25.2230  -25.1830 C   0  0  0  0  0  0  0  0  0  0  0  0
   -0.4860   24.5280  -24.1150 C   0  0  0  0  0  0  0  0  0  0  0  0
   -0.2530   23.1540  -24.2180 C   0  0  0  0  0  0  0  0  0  0  0  0
   -0.5920   22.4740  -25.3900 C   0  0  0  0  0  0  0  0  0  0  0  0
   -1.1690   23.1650  -26.4600 C   0  0  0  0  0  0  0  0  0  0  0  0
   -1.3180   23.8530  -29.3930 C   0  0  0  0  0  0  0  0  0  0  0  0
   -0.1140   24.1150  -29.1250 O   0  0  0  0  0  0  0  0  0  0  0  0
   -1.5820   23.0400  -30.4430 N   0  0  0  0  0  0  0  0  0  0  0  0
   -2.8450   22.7190  -30.7980 C   0  0  0  0  0  0  0  0  0  0  0  0
   -3.0310   21.9350  -31.7670 O   0  0  0  0  0  0  0  0  0  0  0  0
   -5.0965   19.3249  -32.4515 H   0  0  0  0  0  0  0  0  0  0  0  0
   -6.1201   18.8219  -33.8393 H   0  0  0  0  0  0  0  0  0  0  0  0
   -5.3388   20.4394  -33.8393 H   0  0  0  0  0  0  0  0  0  0  0  0
   -8.4171   19.2106  -33.8282 H   0  0  0  0  0  0  0  0  0  0  0  0
  -10.4432   20.1527  -32.7243 H   0  0  0  0  0  0  0  0  0  0  0  0
  -10.2040   21.7527  -30.8274 H   0  0  0  0  0  0  0  0  0  0  0  0
   -7.9417   22.4094  -30.0225 H   0  0  0  0  0  0  0  0  0  0  0  0
   -4.7980   20.8800  -31.0680 H   0  0  0  0  0  0  0  0  0  0  0  0
   -5.6820   24.2190  -28.2050 H   0  0  0  0  0  0  0  0  0  0  0  0
   -4.6760   25.6000  -27.7670 H   0  0  0  0  0  0  0  0  0  0  0  0
   -1.3142   26.0564  -27.8664 H   0  0  0  0  0  0  0  0  0  0  0  0
   -2.9637   25.7663  -27.1829 H   0  0  0  0  0  0  0  0  0  0  0  0
   -1.2369   26.3063  -25.1017 H   0  0  0  0  0  0  0  0  0  0  0  0
   -0.2147   25.0637  -23.1934 H   0  0  0  0  0  0  0  0  0  0  0  0
    0.1974   22.6079  -23.3760 H   0  0  0  0  0  0  0  0  0  0  0  0
   -0.4048   21.3931  -25.4714 H   0  0  0  0  0  0  0  0  0  0  0  0
   -1.4239   22.6269  -27.3850 H   0  0  0  0  0  0  0  0  0  0  0  0
  1  2  1  0
  2  3  2  0
  3  4  1  0
  4  5  2  0
  5  6  1  0
  6  7  2  0
  7  8  1  0
  8  9  1  0
  9 10  2  0
  9 11  1  0
 11 12  2  0
 12 13  1  0
 12 14  1  0
 14 15  1  0
 15 16  1  0
 16 17  2  0
 17 18  1  0
 18 19  2  0
 19 20  1  0
 20 21  2  0
 14 22  1  0
 22 23  2  0
 22 24  1  0
 24 25  1  0
 25 26  2  0
  7  2  1  0
 25 11  1  0
 21 16  1  0
  1 27  1  0
  1 28  1  0
  1 29  1  0
  3 30  1  0
  4 31  1  0
  5 32  1  0
  6 33  1  0
  8 34  1  0
 13 35  1  0
 13 36  1  0
 15 37  1  0
 15 38  1  0
 17 39  1  0
 18 40  1  0
 19 41  1  0
 20 42  1  0
 21 43  1  0
M  CHG  1  24  -1
M  END
>  <UniqueID>  (25) 
24

>  <SMILES>  (25) 
Cc1ccccc1NC(=O)c1c(N)n(Cc2ccccc2)c(=O)[n-]c1=O

>  <Energy>  (25) 
63.64775280467951

>  <Genealogy>  (25) 
Cc1ccccc1NC(=O)c1c(N)n(Cc2ccccc2)c(=O)[n-]c1=O (protonated)
Cc1ccccc1NC(=O)c1c(N)n(Cc2ccccc2)c(=O)[n-]c1=O (3D coordinates assigned)
Cc1ccccc1NC(=O)c1c(N)n(Cc2ccccc2)c(=O)[n-]c1=O (optimized conformer: 63.64775280467951 kcal/mol)

>  <smiles>  (25) 
Cc1ccccc1NC(=O)c1c(N)n(Cc2ccccc2)c(=O)[nH]c1=O

>  <score_type>  (25) 
oracle

>  <origin>  (25) 
adgpu

>  <m_score__min__energy>  (25) 
-8.7599999999999998

>  <m_primary>  (25) 
energy

$$$$
25:0
     RDKit          3D

 53 56  0  0  0  0  0  0  0  0999 V2000
   -0.8770   27.1760  -24.8070 C   0  0  0  0  0  0  0  0  0  0  0  0
   -1.0390   26.1480  -25.8550 N   0  0  0  0  0  0  0  0  0  0  0  0
   -2.3100   25.3930  -25.6660 C   0  0  0  0  0  0  0  0  0  0  0  0
   -2.9750   24.9390  -26.9830 C   0  0  0  0  0  0  0  0  0  0  0  0
   -1.9690   24.6820  -28.0210 N   0  0  0  0  0  0  0  0  0  0  0  0
   -2.1250   23.5710  -28.9190 C   0  0  0  0  0  0  0  0  0  0  0  0
   -1.5120   22.3470  -28.6140 C   0  0  0  0  0  0  0  0  0  0  0  0
   -1.6950   21.2390  -29.4450 C   0  0  0  0  0  0  0  0  0  0  0  0
   -2.4940   21.3350  -30.5930 C   0  0  0  0  0  0  0  0  0  0  0  0
   -2.6670   20.1820  -31.4350 N   0  0  0  0  0  0  0  0  0  0  0  0
   -3.8310   19.9640  -32.2550 C   0  0  0  0  0  0  0  0  0  0  0  0
   -4.8850   20.6230  -32.0320 O   0  0  0  0  0  0  0  0  0  0  0  0
   -3.8280   18.9370  -33.3280 C   0  0  0  0  0  0  0  0  0  0  0  0
   -5.0280   18.5940  -33.9800 C   0  0  0  0  0  0  0  0  0  0  0  0
   -5.0340   17.6280  -34.9910 C   0  0  0  0  0  0  0  0  0  0  0  0
   -3.8470   16.9950  -35.3630 C   0  0  0  0  0  0  0  0  0  0  0  0
   -3.8550   16.0590  -36.3450 F   0  0  0  0  0  0  0  0  0  0  0  0
   -2.6470   17.3350  -34.7350 C   0  0  0  0  0  0  0  0  0  0  0  0
   -2.6330   18.3020  -33.7250 C   0  0  0  0  0  0  0  0  0  0  0  0
   -3.0700   22.5740  -30.9260 C   0  0  0  0  0  0  0  0  0  0  0  0
   -2.9130   23.6870  -30.0810 C   0  0  0  0  0  0  0  0  0  0  0  0
   -3.4830   24.9580  -30.4280 N   0  0  0  0  0  0  0  0  0  0  0  0
   -4.8820   25.2410  -30.5690 C   0  0  0  0  0  0  0  0  0  0  0  0
   -5.2770   26.4320  -30.4480 O   0  0  0  0  0  0  0  0  0  0  0  0
   -5.8780   24.1760  -30.7880 C   0  0  0  0  0  0  0  0  0  0  0  0
   -6.3250   23.7000  -32.0100 C   0  0  0  0  0  0  0  0  0  0  0  0
   -7.2280   22.7010  -31.7120 C   0  0  0  0  0  0  0  0  0  0  0  0
   -7.2710   22.6240  -30.3350 C   0  0  0  0  0  0  0  0  0  0  0  0
   -6.4540   23.5120  -29.8140 O   0  0  0  0  0  0  0  0  0  0  0  0
   -0.8840   25.6460  -28.2450 C   0  0  0  0  0  0  0  0  0  0  0  0
   -0.9280   26.7560  -27.1940 C   0  0  0  0  0  0  0  0  0  0  0  0
   -0.9513   26.7043  -23.8161 H   0  0  0  0  0  0  0  0  0  0  0  0
    0.1077   27.6549  -24.9122 H   0  0  0  0  0  0  0  0  0  0  0  0
   -1.6667   27.9345  -24.9122 H   0  0  0  0  0  0  0  0  0  0  0  0
   -2.0944   24.4994  -25.0619 H   0  0  0  0  0  0  0  0  0  0  0  0
   -3.0159   26.0783  -25.1739 H   0  0  0  0  0  0  0  0  0  0  0  0
   -3.5448   24.0164  -26.7985 H   0  0  0  0  0  0  0  0  0  0  0  0
   -3.6415   25.7411  -27.3329 H   0  0  0  0  0  0  0  0  0  0  0  0
   -0.8836   22.2589  -27.7155 H   0  0  0  0  0  0  0  0  0  0  0  0
   -1.2086   20.2841  -29.1967 H   0  0  0  0  0  0  0  0  0  0  0  0
   -1.9820   19.3990  -31.3320 H   0  0  0  0  0  0  0  0  0  0  0  0
   -5.9670   19.0893  -33.6921 H   0  0  0  0  0  0  0  0  0  0  0  0
   -5.9764   17.3664  -35.4943 H   0  0  0  0  0  0  0  0  0  0  0  0
   -1.7110   16.8413  -35.0354 H   0  0  0  0  0  0  0  0  0  0  0  0
   -1.6840   18.5691  -33.2371 H   0  0  0  0  0  0  0  0  0  0  0  0
   -3.6487   22.6734  -31.8561 H   0  0  0  0  0  0  0  0  0  0  0  0
   -6.0228   24.0465  -33.0093 H   0  0  0  0  0  0  0  0  0  0  0  0
   -7.7982   22.0897  -32.4270 H   0  0  0  0  0  0  0  0  0  0  0  0
   -7.8953   21.9245  -29.7597 H   0  0  0  0  0  0  0  0  0  0  0  0
    0.0824   25.1246  -28.1806 H   0  0  0  0  0  0  0  0  0  0  0  0
   -1.0071   26.0948  -29.2417 H   0  0  0  0  0  0  0  0  0  0  0  0
   -0.0070   27.3546  -27.2516 H   0  0  0  0  0  0  0  0  0  0  0  0
   -1.7951   27.4072  -27.3786 H   0  0  0  0  0  0  0  0  0  0  0  0
  1  2  1  0
  2  3  1  0
  3  4  1  0
  4  5  1  0
  5  6  1  0
  6  7  2  0
  7  8  1  0
  8  9  2  0
  9 10  1  0
 10 11  1  0
 11 12  2  0
 11 13  1  0
 13 14  2  0
 14 15  1  0
 15 16  2  0
 16 17  1  0
 16 18  1  0
 18 19  2  0
  9 20  1  0
 20 21  2  0
 21 22  1  0
 22 23  1  0
 23 24  2  0
 23 25  1  0
 25 26  2  0
 26 27  1  0
 27 28  2  0
 28 29  1  0
  5 30  1  0
 30 31  1  0
 31  2  1  0
 21  6  1  0
 29 25  1  0
 19 13  1  0
  1 32  1  0
  1 33  1  0
  1 34  1  0
  3 35  1  0
  3 36  1  0
  4 37  1  0
  4 38  1  0
  7 39  1  0
  8 40  1  0
 10 41  1  0
 14 42  1  0
 15 43  1  0
 18 44  1  0
 19 45  1  0
 20 46  1  0
 26 47  1  0
 27 48  1  0
 28 49  1  0
 30 50  1  0
 30 51  1  0
 31 52  1  0
 31 53  1  0
M  CHG  1  22  -1
M  END
>  <UniqueID>  (26) 
25

>  <SMILES>  (26) 
CN1CCN(c2ccc(NC(=O)c3ccc(F)cc3)cc2[N-]C(=O)c2ccco2)CC1

>  <Energy>  (26) 
101.84179431426034

>  <Genealogy>  (26) 
CN1CCN(c2ccc(NC(=O)c3ccc(F)cc3)cc2[N-]C(=O)c2ccco2)CC1 (protonated)
CN1CCN(c2ccc(NC(=O)c3ccc(F)cc3)cc2[N-]C(=O)c2ccco2)CC1 (3D coordinates assigned)
CN1CCN(c2ccc(NC(=O)c3ccc(F)cc3)cc2[N-]C(=O)c2ccco2)CC1 (nonaromatic ring conformer: 101.84179431426034 kcal/mol)

>  <smiles>  (26) 
CN1CCN(c2ccc(NC(=O)c3ccc(F)cc3)cc2NC(=O)c2ccco2)CC1

>  <score_type>  (26) 
oracle

>  <origin>  (26) 
adgpu

>  <m_score__min__energy>  (26) 
-9.75

>  <m_primary>  (26) 
energy

$$$$
26:0
     RDKit          3D

 45 47  0  0  0  0  0  0  0  0999 V2000
   -9.1920   21.5250  -30.9550 C   0  0  0  0  0  0  0  0  0  0  0  0
   -8.2010   22.0030  -31.8570 O   0  0  0  0  0  0  0  0  0  0  0  0
   -7.0740   22.7520  -31.4800 C   0  0  0  0  0  0  0  0  0  0  0  0
   -7.1890   24.0280  -30.8960 C   0  0  0  0  0  0  0  0  0  0  0  0
   -6.0480   24.7600  -30.5610 C   0  0  0  0  0  0  0  0  0  0  0  0
   -4.7710   24.2310  -30.8000 C   0  0  0  0  0  0  0  0  0  0  0  0
   -3.5730   24.9470  -30.4730 N   0  0  0  0  0  0  0  0  0  0  0  0
   -2.4760   24.5350  -29.1950 S   0  0  0  0  0  0  0  0  0  0  0  0
   -3.1180   24.8430  -27.8730 O   0  0  0  0  0  0  0  0  0  0  0  0
   -1.2280   25.3570  -29.3400 O   0  0  0  0  0  0  0  0  0  0  0  0
   -2.0510   22.8370  -29.2880 C   0  0  0  0  0  0  0  0  0  0  0  0
   -2.4200   21.8570  -28.3780 C   0  0  0  0  0  0  0  0  0  0  0  0
   -1.9420   20.5880  -28.7230 C   0  0  0  0  0  0  0  0  0  0  0  0
   -1.2010   20.5700  -29.8980 C   0  0  0  0  0  0  0  0  0  0  0  0
   -1.1410   22.1350  -30.5110 S   0  0  0  0  0  0  0  0  0  0  0  0
   -4.6540   22.9620  -31.3770 C   0  0  0  0  0  0  0  0  0  0  0  0
   -5.7950   22.2160  -31.7120 C   0  0  0  0  0  0  0  0  0  0  0  0
   -5.6470   20.9120  -32.2980 N   0  0  0  0  0  0  0  0  0  0  0  0
   -4.4490   20.1250  -31.9840 C   0  0  0  0  0  0  0  0  0  0  0  0
   -4.4730   18.7760  -32.7170 C   0  0  0  0  0  0  0  0  0  0  0  0
   -5.8240   18.1740  -32.7150 N   0  0  0  0  0  0  0  0  0  0  0  0
   -6.2550   17.8080  -31.3520 C   0  0  0  0  0  0  0  0  0  0  0  0
   -6.8370   19.0290  -33.3970 C   0  0  0  0  0  0  0  0  0  0  0  0
   -6.4790   20.5300  -33.4400 C   0  0  0  0  0  0  0  0  0  0  0  0
   -8.8552   21.6875  -29.9205 H   0  0  0  0  0  0  0  0  0  0  0  0
  -10.1337   22.0679  -31.1235 H   0  0  0  0  0  0  0  0  0  0  0  0
   -9.3533   20.4500  -31.1235 H   0  0  0  0  0  0  0  0  0  0  0  0
   -8.1855   24.4516  -30.7021 H   0  0  0  0  0  0  0  0  0  0  0  0
   -6.1511   25.7567  -30.1073 H   0  0  0  0  0  0  0  0  0  0  0  0
   -3.0241   22.0564  -27.4806 H   0  0  0  0  0  0  0  0  0  0  0  0
   -2.1350   19.6884  -28.1200 H   0  0  0  0  0  0  0  0  0  0  0  0
   -0.7332   19.6832  -30.3504 H   0  0  0  0  0  0  0  0  0  0  0  0
   -3.6553   22.5434  -31.5706 H   0  0  0  0  0  0  0  0  0  0  0  0
   -3.5565   20.6880  -32.2946 H   0  0  0  0  0  0  0  0  0  0  0  0
   -4.4260   19.9363  -30.9005 H   0  0  0  0  0  0  0  0  0  0  0  0
   -4.1536   18.9307  -33.7582 H   0  0  0  0  0  0  0  0  0  0  0  0
   -3.7920   18.0896  -32.1925 H   0  0  0  0  0  0  0  0  0  0  0  0
   -5.7550   17.2780  -33.2530 H   0  0  0  0  0  0  0  0  0  0  0  0
   -5.6319   18.3371  -30.6159 H   0  0  0  0  0  0  0  0  0  0  0  0
   -7.3085   18.0916  -31.2120 H   0  0  0  0  0  0  0  0  0  0  0  0
   -6.1458   16.7224  -31.2120 H   0  0  0  0  0  0  0  0  0  0  0  0
   -6.9483   18.6720  -34.4315 H   0  0  0  0  0  0  0  0  0  0  0  0
   -7.7647   18.9440  -32.8121 H   0  0  0  0  0  0  0  0  0  0  0  0
   -5.9299   20.7408  -34.3696 H   0  0  0  0  0  0  0  0  0  0  0  0
   -7.4124   21.1105  -33.3987 H   0  0  0  0  0  0  0  0  0  0  0  0
  1  2  1  0
  2  3  1  0
  3  4  2  0
  4  5  1  0
  5  6  2  0
  6  7  1  0
  7  8  1  0
  8  9  2  0
  8 10  2  0
  8 11  1  0
 11 12  2  0
 12 13  1  0
 13 14  2  0
 14 15  1  0
  6 16  1  0
 16 17  2  0
 17 18  1  0
 18 19  1  0
 19 20  1  0
 20 21  1  0
 21 22  1  0
 21 23  1  0
 23 24  1  0
 17  3  1  0
 24 18  1  0
 15 11  1  0
  1 25  1  0
  1 26  1  0
  1 27  1  0
  4 28  1  0
  5 29  1  0
 12 30  1  0
 13 31  1  0
 14 32  1  0
 16 33  1  0
 19 34  1  0
 19 35  1  0
 20 36  1  0
 20 37  1  0
 21 38  1  0
 22 39  1  0
 22 40  1  0
 22 41  1  0
 23 42  1  0
 23 43  1  0
 24 44  1  0
 24 45  1  0
M  CHG  2   7  -1  21   1
M  END
>  <UniqueID>  (27) 
26

>  <SMILES>  (27) 
COc1ccc([N-]S(=O)(=O)c2cccs2)cc1N1CC[NH+](C)CC1

>  <Energy>  (27) 
86.46424069309506

>  <Genealogy>  (27) 
COc1ccc([N-]S(=O)(=O)c2cccs2)cc1N1CC[NH+](C)CC1 (protonated)
COc1ccc([N-]S(=O)(=O)c2cccs2)cc1N1CC[NH+](C)CC1 (3D coordinates assigned)
COc1ccc([N-]S(=O)(=O)c2cccs2)cc1N1CC[NH+](C)CC1 (nonaromatic ring conformer: 86.46424069309506 kcal/mol)

>  <smiles>  (27) 
COc1ccc(NS(=O)(=O)c2cccs2)cc1N1CCN(C)CC1

>  <score_type>  (27) 
oracle

>  <origin>  (27) 
adgpu

>  <m_score__min__energy>  (27) 
-8.8300000000000001

>  <m_primary>  (27) 
energy

$$$$
27:0
     RDKit          3D

 46 48  0  0  0  0  0  0  0  0999 V2000
   -5.5050   11.4980  -32.8840 C   0  0  0  0  0  0  0  0  0  0  0  0
   -4.8850   12.2560  -34.0300 C   0  0  0  0  0  0  0  0  0  0  0  0
   -4.9470   11.7000  -35.3160 C   0  0  0  0  0  0  0  0  0  0  0  0
   -4.3820   12.3570  -36.4040 C   0  0  0  0  0  0  0  0  0  0  0  0
   -3.7210   13.5800  -36.2330 C   0  0  0  0  0  0  0  0  0  0  0  0
   -3.0940   14.2500  -37.4260 C   0  0  0  0  0  0  0  0  0  0  0  0
   -3.6660   14.1710  -34.9520 C   0  0  0  0  0  0  0  0  0  0  0  0
   -2.9790   15.4200  -34.7750 N   0  0  0  0  0  0  0  0  0  0  0  0
   -1.6900   15.6650  -35.0810 C   0  0  0  0  0  0  0  0  0  0  0  0
   -1.4200   16.9860  -34.7970 C   0  0  0  0  0  0  0  0  0  0  0  0
   -2.6180   17.4890  -34.3190 C   0  0  0  0  0  0  0  0  0  0  0  0
   -2.8620   18.8710  -33.8770 C   0  0  0  0  0  0  0  0  0  0  0  0
   -2.0440   19.7760  -34.1970 O   0  0  0  0  0  0  0  0  0  0  0  0
   -4.0420   19.1910  -33.1230 N   0  0  0  0  0  0  0  0  0  0  0  0
   -4.2510   20.4430  -32.4470 C   0  0  0  0  0  0  0  0  0  0  0  0
   -5.3990   21.1980  -32.7340 C   0  0  0  0  0  0  0  0  0  0  0  0
   -5.6350   22.4070  -32.0760 C   0  0  0  0  0  0  0  0  0  0  0  0
   -4.7360   22.8700  -31.1060 C   0  0  0  0  0  0  0  0  0  0  0  0
   -5.0260   24.4000  -30.2840 S   0  0  0  0  0  0  0  0  0  0  0  0
   -3.8650   25.5660  -30.8100 N   0  0  0  0  0  0  0  0  0  0  0  0
   -4.9090   24.2100  -28.7970 O   0  0  0  0  0  0  0  0  0  0  0  0
   -6.4090   24.8960  -30.5990 O   0  0  0  0  0  0  0  0  0  0  0  0
   -3.5970   22.1140  -30.8030 C   0  0  0  0  0  0  0  0  0  0  0  0
   -3.3580   20.9040  -31.4610 C   0  0  0  0  0  0  0  0  0  0  0  0
   -3.5540   16.5200  -34.3160 N   0  0  0  0  0  0  0  0  0  0  0  0
   -4.2830   13.5270  -33.8470 C   0  0  0  0  0  0  0  0  0  0  0  0
   -4.2650   14.1780  -32.4810 C   0  0  0  0  0  0  0  0  0  0  0  0
   -5.1566   11.9239  -31.9315 H   0  0  0  0  0  0  0  0  0  0  0  0
   -6.6006   11.5771  -32.9421 H   0  0  0  0  0  0  0  0  0  0  0  0
   -5.2102   10.4398  -32.9421 H   0  0  0  0  0  0  0  0  0  0  0  0
   -5.4485   10.7326  -35.4661 H   0  0  0  0  0  0  0  0  0  0  0  0
   -4.4549   11.9123  -37.4074 H   0  0  0  0  0  0  0  0  0  0  0  0
   -2.3796   15.0134  -37.0843 H   0  0  0  0  0  0  0  0  0  0  0  0
   -2.5663   13.4994  -38.0328 H   0  0  0  0  0  0  0  0  0  0  0  0
   -3.8779   14.7268  -38.0328 H   0  0  0  0  0  0  0  0  0  0  0  0
   -0.9750   14.9349  -35.4882 H   0  0  0  0  0  0  0  0  0  0  0  0
   -0.4669   17.5207  -34.9220 H   0  0  0  0  0  0  0  0  0  0  0  0
   -4.8330   18.5090  -33.1380 H   0  0  0  0  0  0  0  0  0  0  0  0
   -6.1182   20.8346  -33.4828 H   0  0  0  0  0  0  0  0  0  0  0  0
   -6.5300   22.9981  -32.3201 H   0  0  0  0  0  0  0  0  0  0  0  0
   -4.4000   26.3820  -31.1830 H   0  0  0  0  0  0  0  0  0  0  0  0
   -2.8871   22.4739  -30.0437 H   0  0  0  0  0  0  0  0  0  0  0  0
   -2.4681   20.3093  -31.2072 H   0  0  0  0  0  0  0  0  0  0  0  0
   -4.2865   13.3999  -31.7037 H   0  0  0  0  0  0  0  0  0  0  0  0
   -3.3499   14.7788  -32.3732 H   0  0  0  0  0  0  0  0  0  0  0  0
   -5.1455   14.8285  -32.3732 H   0  0  0  0  0  0  0  0  0  0  0  0
  1  2  1  0
  2  3  2  0
  3  4  1  0
  4  5  2  0
  5  6  1  0
  5  7  1  0
  7  8  1  0
  8  9  1  0
  9 10  2  0
 10 11  1  0
 11 12  1  0
 12 13  2  0
 12 14  1  0
 14 15  1  0
 15 16  2  0
 16 17  1  0
 17 18  2  0
 18 19  1  0
 19 20  1  0
 19 21  2  0
 19 22  2  0
 18 23  1  0
 23 24  2  0
 11 25  2  0
  7 26  2  0
 26 27  1  0
 26  2  1  0
 25  8  1  0
 24 15  1  0
  1 28  1  0
  1 29  1  0
  1 30  1  0
  3 31  1  0
  4 32  1  0
  6 33  1  0
  6 34  1  0
  6 35  1  0
  9 36  1  0
 10 37  1  0
 14 38  1  0
 16 39  1  0
 17 40  1  0
 20 41  1  0
 23 42  1  0
 24 43  1  0
 27 44  1  0
 27 45  1  0
 27 46  1  0
M  CHG  1  20  -1
M  END
>  <UniqueID>  (28) 
27

>  <SMILES>  (28) 
Cc1ccc(C)c(-n2ccc(C(=O)Nc3ccc(S([NH-])(=O)=O)cc3)n2)c1C

>  <Energy>  (28) 
88.47230136267471

>  <Genealogy>  (28) 
Cc1ccc(C)c(-n2ccc(C(=O)Nc3ccc(S([NH-])(=O)=O)cc3)n2)c1C (protonated)
Cc1ccc(C)c(-n2ccc(C(=O)Nc3ccc(S([NH-])(=O)=O)cc3)n2)c1C (3D coordinates assigned)
Cc1ccc(C)c(-n2ccc(C(=O)Nc3ccc(S([NH-])(=O)=O)cc3)n2)c1C (optimized conformer: 88.47230136267471 kcal/mol)

>  <smiles>  (28) 
Cc1ccc(C)c(-n2ccc(C(=O)Nc3ccc(S(N)(=O)=O)cc3)n2)c1C

>  <score_type>  (28) 
oracle

>  <origin>  (28) 
adgpu

>  <m_score__min__energy>  (28) 
-9.7400000000000002

>  <m_primary>  (28) 
energy

$$$$
28:0
     RDKit          3D

 38 40  0  0  0  0  0  0  0  0999 V2000
   -3.2430   25.2770  -31.5920 H   0  0  0  0  0  0  0  0  0  0  0  0
   -3.6310   25.2270  -30.6590 O   0  0  0  0  0  0  0  0  0  0  0  0
   -3.5540   24.0820  -29.8630 C   0  0  0  0  0  0  0  0  0  0  0  0
   -3.7160   24.2230  -28.4800 C   0  0  0  0  0  0  0  0  0  0  0  0
   -3.8863   25.2206  -28.0491 H   0  0  0  0  0  0  0  0  0  0  0  0
   -3.6630   23.1060  -27.6430 C   0  0  0  0  0  0  0  0  0  0  0  0
   -3.8003   23.2247  -26.5581 H   0  0  0  0  0  0  0  0  0  0  0  0
   -3.4360   21.8400  -28.1830 C   0  0  0  0  0  0  0  0  0  0  0  0
   -3.3908   20.9617  -27.5223 H   0  0  0  0  0  0  0  0  0  0  0  0
   -3.2660   21.6850  -29.5600 C   0  0  0  0  0  0  0  0  0  0  0  0
   -3.0761   20.6854  -29.9779 H   0  0  0  0  0  0  0  0  0  0  0  0
   -3.3360   22.7990  -30.4170 C   0  0  0  0  0  0  0  0  0  0  0  0
   -3.1130   22.6270  -31.8710 C   0  0  0  0  0  0  0  0  0  0  0  0
   -2.1180   22.8684  -32.2731 H   0  0  0  0  0  0  0  0  0  0  0  0
   -4.0240   22.2070  -32.7030 N   0  0  0  0  0  0  0  0  0  0  0  0
   -5.4210   21.9980  -32.4280 C   0  0  0  0  0  0  0  0  0  0  0  0
   -6.0370   20.7780  -32.7610 C   0  0  0  0  0  0  0  0  0  0  0  0
   -5.2780   19.6220  -33.2900 C   0  0  0  0  0  0  0  0  0  0  0  0
   -5.7650   18.8640  -34.3710 C   0  0  0  0  0  0  0  0  0  0  0  0
   -6.7341   19.1182  -34.8250 H   0  0  0  0  0  0  0  0  0  0  0  0
   -5.0230   17.7890  -34.8710 C   0  0  0  0  0  0  0  0  0  0  0  0
   -5.4137   17.1954  -35.7107 H   0  0  0  0  0  0  0  0  0  0  0  0
   -3.7870   17.4680  -34.3060 C   0  0  0  0  0  0  0  0  0  0  0  0
   -3.2076   16.6188  -34.6973 H   0  0  0  0  0  0  0  0  0  0  0  0
   -3.2860   18.2250  -33.2440 C   0  0  0  0  0  0  0  0  0  0  0  0
   -2.3101   17.9740  -32.8028 H   0  0  0  0  0  0  0  0  0  0  0  0
   -4.0240   19.3020  -32.7410 C   0  0  0  0  0  0  0  0  0  0  0  0
   -3.6209   19.9016  -31.9115 H   0  0  0  0  0  0  0  0  0  0  0  0
   -7.3830   20.6510  -32.5930 N   0  0  0  0  0  0  0  0  0  0  0  0
   -8.1450   21.6400  -32.1180 N   0  0  0  0  0  0  0  0  0  0  0  0
   -9.5810   21.4080  -31.9660 C   0  0  0  0  0  0  0  0  0  0  0  0
   -9.8346   21.3670  -30.8964 H   0  0  0  0  0  0  0  0  0  0  0  0
  -10.1375   22.2279  -32.4436 H   0  0  0  0  0  0  0  0  0  0  0  0
   -9.8510   20.4546  -32.4436 H   0  0  0  0  0  0  0  0  0  0  0  0
   -7.5920   22.8480  -31.7940 C   0  0  0  0  0  0  0  0  0  0  0  0
   -8.3090   23.7900  -31.3590 O   0  0  0  0  0  0  0  0  0  0  0  0
   -6.2230   23.0450  -31.9580 C   0  0  0  0  0  0  0  0  0  0  0  0
   -5.7733   24.0200  -31.7190 H   0  0  0  0  0  0  0  0  0  0  0  0
  1  2  1  0
  2  3  1  0
  3  4  2  0
  4  5  1  0
  4  6  1  0
  6  7  1  0
  6  8  2  0
  8  9  1  0
  8 10  1  0
 10 11  1  0
 10 12  2  0
 12 13  1  0
 13 14  1  0
 13 15  2  0
 15 16  1  0
 16 17  1  0
 17 18  1  0
 18 19  2  0
 19 20  1  0
 19 21  1  0
 21 22  1  0
 21 23  2  0
 23 24  1  0
 23 25  1  0
 25 26  1  0
 25 27  2  0
 27 28  1  0
 17 29  2  0
 29 30  1  0
 30 31  1  0
 31 32  1  0
 31 33  1  0
 31 34  1  0
 30 35  1  0
 35 36  2  0
 35 37  1  0
 37 38  1  0
 12  3  1  0
 37 16  2  0
 27 18  1  0
M  END
>  <UniqueID>  (29) 
28

>  <SMILES>  (29) 
Cn1nc(-c2ccccc2)c(/N=C\c2ccccc2O)cc1=O

>  <Energy>  (29) 
59.41582958051593

>  <Genealogy>  (29) 
Cn1nc(-c2ccccc2)c(/N=C\c2ccccc2O)cc1=O (cis-trans isomerization)
Cn1nc(-c2ccccc2)c(/N=C\c2ccccc2O)cc1=O (3D coordinates assigned)
Cn1nc(-c2ccccc2)c(/N=C\c2ccccc2O)cc1=O (optimized conformer: 59.41582958051593 kcal/mol)

>  <smiles>  (29) 
Cn1nc(-c2ccccc2)c(N=Cc2ccccc2O)cc1=O

>  <score_type>  (29) 
oracle

>  <origin>  (29) 
adgpu

>  <m_score__min__energy>  (29) 
-9.3599999999999994

>  <m_primary>  (29) 
energy

$$$$
29:0
     RDKit          3D

 28 29  0  0  0  0  0  0  0  0999 V2000
   -5.0990   19.3780  -33.8490 C   0  0  0  0  0  0  0  0  0  0  0  0
   -6.3950   19.3650  -33.0940 C   0  0  0  0  0  0  0  0  0  0  0  0
   -6.9770   18.1470  -32.7090 C   0  0  0  0  0  0  0  0  0  0  0  0
   -8.1680   18.1380  -31.9750 C   0  0  0  0  0  0  0  0  0  0  0  0
   -8.7770   19.3410  -31.6120 C   0  0  0  0  0  0  0  0  0  0  0  0
   -8.1950   20.5610  -31.9790 C   0  0  0  0  0  0  0  0  0  0  0  0
   -8.9740   22.1040  -31.5090 S   0  0  0  0  0  0  0  0  0  0  0  0
   -7.4020   22.9200  -31.2350 C   0  0  0  0  0  0  0  0  0  0  0  0
   -6.8780   23.7940  -32.1840 C   0  0  0  0  0  0  0  0  0  0  0  0
   -5.6830   24.3940  -31.9620 N   0  0  0  0  0  0  0  0  0  0  0  0
   -4.9800   24.1650  -30.8210 C   0  0  0  0  0  0  0  0  0  0  0  0
   -3.8700   24.7410  -30.6590 O   0  0  0  0  0  0  0  0  0  0  0  0
   -5.4750   23.3180  -29.8640 N   0  0  0  0  0  0  0  0  0  0  0  0
   -4.7120   23.0590  -28.6380 C   0  0  0  0  0  0  0  0  0  0  0  0
   -6.6750   22.6950  -30.0650 C   0  0  0  0  0  0  0  0  0  0  0  0
   -7.0000   20.5720  -32.7100 C   0  0  0  0  0  0  0  0  0  0  0  0
   -4.2602   19.3864  -33.1374 H   0  0  0  0  0  0  0  0  0  0  0  0
   -5.0342   18.4805  -34.4816 H   0  0  0  0  0  0  0  0  0  0  0  0
   -5.0522   20.2767  -34.4816 H   0  0  0  0  0  0  0  0  0  0  0  0
   -6.4955   17.1973  -32.9851 H   0  0  0  0  0  0  0  0  0  0  0  0
   -8.6257   17.1812  -31.6832 H   0  0  0  0  0  0  0  0  0  0  0  0
   -9.7148   19.3305  -31.0372 H   0  0  0  0  0  0  0  0  0  0  0  0
   -7.4327   23.9971  -33.1119 H   0  0  0  0  0  0  0  0  0  0  0  0
   -5.3420   23.2728  -27.7620 H   0  0  0  0  0  0  0  0  0  0  0  0
   -4.3997   22.0045  -28.6164 H   0  0  0  0  0  0  0  0  0  0  0  0
   -3.8223   23.7055  -28.6164 H   0  0  0  0  0  0  0  0  0  0  0  0
   -7.0705   22.0115  -29.2992 H   0  0  0  0  0  0  0  0  0  0  0  0
   -6.5341   21.5300  -32.9841 H   0  0  0  0  0  0  0  0  0  0  0  0
  1  2  1  0
  2  3  2  0
  3  4  1  0
  4  5  2  0
  5  6  1  0
  6  7  1  0
  7  8  1  0
  8  9  1  0
  9 10  2  0
 10 11  1  0
 11 12  2  0
 11 13  1  0
 13 14  1  0
 13 15  1  0
  6 16  2  0
 16  2  1  0
 15  8  2  0
  1 17  1  0
  1 18  1  0
  1 19  1  0
  3 20  1  0
  4 21  1  0
  5 22  1  0
  9 23  1  0
 14 24  1  0
 14 25  1  0
 14 26  1  0
 15 27  1  0
 16 28  1  0
M  END
>  <UniqueID>  (30) 
29

>  <SMILES>  (30) 
Cc1cccc(Sc2cnc(=O)n(C)c2)c1

>  <Energy>  (30) 
24.99085596751531

>  <Genealogy>  (30) 
Cc1cccc(Sc2cnc(=O)n(C)c2)c1 (3D coordinates assigned)
Cc1cccc(Sc2cnc(=O)n(C)c2)c1 (optimized conformer: 24.99085596751531 kcal/mol)

>  <smiles>  (30) 
Cc1cccc(Sc2cnc(=O)n(C)c2)c1

>  <score_type>  (30) 
oracle

>  <origin>  (30) 
adgpu

>  <m_score__min__energy>  (30) 
-7.5999999999999996

>  <m_primary>  (30) 
energy

$$$$
30:0
     RDKit          3D

 62 65  0  0  0  0  0  0  0  0999 V2000
   -0.7670   21.2290  -33.4310 C   0  0  0  0  0  0  0  0  0  0  0  0
    0.4550   20.4970  -32.8950 C   0  0  0  0  0  0  0  0  0  0  0  0
    0.3060   20.2830  -31.4610 N   0  0  0  0  0  0  0  0  0  0  0  0
   -0.3400   21.1910  -30.5600 C   0  0  0  0  0  0  0  0  0  0  0  0
   -0.2840   22.4250  -30.8060 O   0  0  0  0  0  0  0  0  0  0  0  0
   -1.0640   20.7210  -29.3580 C   0  0  0  0  0  0  0  0  0  0  0  0
   -0.4950   19.7520  -28.5870 N   0  0  0  0  0  0  0  0  0  0  0  0
   -1.1210   19.2240  -27.5040 C   0  0  0  0  0  0  0  0  0  0  0  0
   -2.3970   19.6590  -27.1540 C   0  0  0  0  0  0  0  0  0  0  0  0
   -3.0130   20.6510  -27.9160 C   0  0  0  0  0  0  0  0  0  0  0  0
   -2.3530   21.2030  -29.0230 C   0  0  0  0  0  0  0  0  0  0  0  0
   -3.0080   22.2950  -29.7780 C   0  0  0  0  0  0  0  0  0  0  0  0
   -2.8570   23.6600  -29.5280 C   0  0  0  0  0  0  0  0  0  0  0  0
   -2.0650   24.2790  -28.4420 C   0  0  0  0  0  0  0  0  0  0  0  0
   -1.3820   25.3090  -28.6900 O   0  0  0  0  0  0  0  0  0  0  0  0
   -2.0990   23.7550  -27.0310 C   0  0  0  0  0  0  0  0  0  0  0  0
   -0.6860   23.4620  -26.4810 C   0  0  0  0  0  0  0  0  0  0  0  0
    0.3260   23.2310  -27.6110 C   0  0  0  0  0  0  0  0  0  0  0  0
   -0.7220   22.2430  -25.5510 C   0  0  0  0  0  0  0  0  0  0  0  0
   -3.6630   24.3000  -30.4550 C   0  0  0  0  0  0  0  0  0  0  0  0
   -3.8650   25.6680  -30.5870 O   0  0  0  0  0  0  0  0  0  0  0  0
   -4.2640   23.3260  -31.2140 C   0  0  0  0  0  0  0  0  0  0  0  0
   -5.1410   23.5620  -32.2680 O   0  0  0  0  0  0  0  0  0  0  0  0
   -3.8730   22.1010  -30.8070 N   0  0  0  0  0  0  0  0  0  0  0  0
   -4.2730   20.8480  -31.3900 C   0  0  0  0  0  0  0  0  0  0  0  0
   -5.5960   20.4020  -31.2640 C   0  0  0  0  0  0  0  0  0  0  0  0
   -5.9870   19.1800  -31.8180 C   0  0  0  0  0  0  0  0  0  0  0  0
   -5.0600   18.3810  -32.5130 C   0  0  0  0  0  0  0  0  0  0  0  0
   -5.4720   17.0800  -33.0980 C   0  0  0  0  0  0  0  0  0  0  0  0
   -6.7520   16.9230  -33.6640 C   0  0  0  0  0  0  0  0  0  0  0  0
   -7.1370   15.6960  -34.2140 C   0  0  0  0  0  0  0  0  0  0  0  0
   -6.2520   14.6160  -34.2070 C   0  0  0  0  0  0  0  0  0  0  0  0
   -4.9800   14.7590  -33.6480 C   0  0  0  0  0  0  0  0  0  0  0  0
   -4.5900   15.9830  -33.0960 C   0  0  0  0  0  0  0  0  0  0  0  0
   -3.7350   18.8380  -32.6440 C   0  0  0  0  0  0  0  0  0  0  0  0
   -3.3480   20.0600  -32.0900 C   0  0  0  0  0  0  0  0  0  0  0  0
   -1.3747   21.5930  -32.5895 H   0  0  0  0  0  0  0  0  0  0  0  0
   -0.4432   22.0820  -34.0455 H   0  0  0  0  0  0  0  0  0  0  0  0
   -1.3663   20.5410  -34.0455 H   0  0  0  0  0  0  0  0  0  0  0  0
    0.5517   19.5257  -33.4021 H   0  0  0  0  0  0  0  0  0  0  0  0
    1.3547   21.1013  -33.0829 H   0  0  0  0  0  0  0  0  0  0  0  0
   -0.6197   18.4516  -26.9022 H   0  0  0  0  0  0  0  0  0  0  0  0
   -2.9134   19.2244  -26.2854 H   0  0  0  0  0  0  0  0  0  0  0  0
   -4.0204   21.0018  -27.6477 H   0  0  0  0  0  0  0  0  0  0  0  0
   -2.5811   24.5049  -26.3866 H   0  0  0  0  0  0  0  0  0  0  0  0
   -2.6610   22.8094  -27.0364 H   0  0  0  0  0  0  0  0  0  0  0  0
   -0.3599   24.3455  -25.9126 H   0  0  0  0  0  0  0  0  0  0  0  0
    1.3124   23.0058  -27.1794 H   0  0  0  0  0  0  0  0  0  0  0  0
   -0.0043   22.3852  -28.2318 H   0  0  0  0  0  0  0  0  0  0  0  0
    0.3954   24.1364  -28.2318 H   0  0  0  0  0  0  0  0  0  0  0  0
   -0.7120   22.5802  -24.5040 H   0  0  0  0  0  0  0  0  0  0  0  0
   -1.6376   21.6638  -25.7410 H   0  0  0  0  0  0  0  0  0  0  0  0
    0.1579   21.6107  -25.7410 H   0  0  0  0  0  0  0  0  0  0  0  0
   -6.3313   21.0180  -30.7255 H   0  0  0  0  0  0  0  0  0  0  0  0
   -7.0275   18.8400  -31.7100 H   0  0  0  0  0  0  0  0  0  0  0  0
   -7.4532   17.7705  -33.6736 H   0  0  0  0  0  0  0  0  0  0  0  0
   -8.1391   15.5816  -34.6530 H   0  0  0  0  0  0  0  0  0  0  0  0
   -6.5566   13.6525  -34.6417 H   0  0  0  0  0  0  0  0  0  0  0  0
   -4.2839   13.9073  -33.6420 H   0  0  0  0  0  0  0  0  0  0  0  0
   -3.5870   16.0894  -32.6571 H   0  0  0  0  0  0  0  0  0  0  0  0
   -2.9985   18.2276  -33.1871 H   0  0  0  0  0  0  0  0  0  0  0  0
   -2.3103   20.4069  -32.2035 H   0  0  0  0  0  0  0  0  0  0  0  0
  1  2  1  0
  2  3  1  0
  3  4  1  0
  4  5  2  0
  4  6  1  0
  6  7  2  0
  7  8  1  0
  8  9  2  0
  9 10  1  0
 10 11  2  0
 11 12  1  0
 12 13  2  0
 13 14  1  0
 14 15  2  0
 14 16  1  0
 16 17  1  0
 17 18  1  0
 17 19  1  0
 13 20  1  0
 20 21  1  0
 20 22  2  0
 22 23  1  0
 22 24  1  0
 24 25  1  0
 25 26  2  0
 26 27  1  0
 27 28  2  0
 28 29  1  0
 29 30  2  0
 30 31  1  0
 31 32  2  0
 32 33  1  0
 33 34  2  0
 28 35  1  0
 35 36  2  0
 11  6  1  0
 24 12  1  0
 36 25  1  0
 34 29  1  0
  1 37  1  0
  1 38  1  0
  1 39  1  0
  2 40  1  0
  2 41  1  0
  8 42  1  0
  9 43  1  0
 10 44  1  0
 16 45  1  0
 16 46  1  0
 17 47  1  0
 18 48  1  0
 18 49  1  0
 18 50  1  0
 19 51  1  0
 19 52  1  0
 19 53  1  0
 26 54  1  0
 27 55  1  0
 30 56  1  0
 31 57  1  0
 32 58  1  0
 33 59  1  0
 34 60  1  0
 35 61  1  0
 36 62  1  0
M  CHG  3   3  -1  21  -1  23  -1
M  END
>  <UniqueID>  (31) 
30

>  <SMILES>  (31) 
CC[N-]C(=O)c1ncccc1-c1c(C(=O)CC(C)C)c([O-])c([O-])n1-c1ccc(-c2ccccc2)cc1

>  <Energy>  (31) 
107.82508005455871

>  <Genealogy>  (31) 
CC[N-]C(=O)c1ncccc1-c1c(C(=O)CC(C)C)c([O-])c([O-])n1-c1ccc(-c2ccccc2)cc1 (protonated)
CC[N-]C(=O)c1ncccc1-c1c(C(=O)CC(C)C)c([O-])c([O-])n1-c1ccc(-c2ccccc2)cc1 (3D coordinates assigned)
CC[N-]C(=O)c1ncccc1-c1c(C(=O)CC(C)C)c([O-])c([O-])n1-c1ccc(-c2ccccc2)cc1 (optimized conformer: 107.82508005455871 kcal/mol)

>  <smiles>  (31) 
CCNC(=O)c1ncccc1-c1c(C(=O)CC(C)C)c(O)c(O)n1-c1ccc(-c2ccccc2)cc1

>  <score_type>  (31) 
oracle

>  <origin>  (31) 
adgpu

>  <m_score__min__energy>  (31) 
-15.67

>  <m_primary>  (31) 
energy

$$$$
31:0
     RDKit          3D

 35 36  0  0  0  0  0  0  0  0999 V2000
   -8.0540   18.5800  -32.2270 C   0  0  0  0  0  0  0  0  0  0  0  0
   -6.6850   19.3680  -33.1300 S   0  0  0  0  0  0  0  0  0  0  0  0
   -6.9180   20.9590  -32.3350 C   0  0  0  0  0  0  0  0  0  0  0  0
   -8.1990   21.3670  -31.9460 C   0  0  0  0  0  0  0  0  0  0  0  0
   -8.3810   22.6080  -31.3330 C   0  0  0  0  0  0  0  0  0  0  0  0
   -7.2840   23.4430  -31.0970 C   0  0  0  0  0  0  0  0  0  0  0  0
   -5.9880   23.0300  -31.4600 C   0  0  0  0  0  0  0  0  0  0  0  0
   -4.8480   23.8820  -31.2520 N   0  0  0  0  0  0  0  0  0  0  0  0
   -3.8510   23.6670  -30.2430 C   0  0  0  0  0  0  0  0  0  0  0  0
   -3.3740   22.1330  -29.8750 S   0  0  0  0  0  0  0  0  0  0  0  0
   -3.0900   24.7880  -29.7700 N   0  0  0  0  0  0  0  0  0  0  0  0
   -2.2360   24.7360  -28.6180 C   0  0  0  0  0  0  0  0  0  0  0  0
   -0.8490   24.8400  -28.8010 C   0  0  0  0  0  0  0  0  0  0  0  0
    0.0160   24.7760  -27.7080 C   0  0  0  0  0  0  0  0  0  0  0  0
   -0.4960   24.6170  -26.4200 C   0  0  0  0  0  0  0  0  0  0  0  0
   -1.8770   24.5400  -26.2190 C   0  0  0  0  0  0  0  0  0  0  0  0
   -2.7610   24.6230  -27.3080 C   0  0  0  0  0  0  0  0  0  0  0  0
   -4.2430   24.5770  -27.0510 C   0  0  0  0  0  0  0  0  0  0  0  0
   -5.8170   21.7910  -32.0960 C   0  0  0  0  0  0  0  0  0  0  0  0
   -7.8838   18.6780  -31.1447 H   0  0  0  0  0  0  0  0  0  0  0  0
   -9.0010   19.0712  -32.4952 H   0  0  0  0  0  0  0  0  0  0  0  0
   -8.1049   17.5144  -32.4952 H   0  0  0  0  0  0  0  0  0  0  0  0
   -9.0629   20.7095  -32.1234 H   0  0  0  0  0  0  0  0  0  0  0  0
   -9.3897   22.9300  -31.0348 H   0  0  0  0  0  0  0  0  0  0  0  0
   -7.4344   24.4257  -30.6262 H   0  0  0  0  0  0  0  0  0  0  0  0
   -4.7430   24.7180  -31.8700 H   0  0  0  0  0  0  0  0  0  0  0  0
   -3.0920   25.6650  -30.3390 H   0  0  0  0  0  0  0  0  0  0  0  0
   -0.4404   24.9730  -29.8136 H   0  0  0  0  0  0  0  0  0  0  0  0
    1.1026   24.8510  -27.8620 H   0  0  0  0  0  0  0  0  0  0  0  0
    0.1883   24.5521  -25.5612 H   0  0  0  0  0  0  0  0  0  0  0  0
   -2.2746   24.4135  -25.2012 H   0  0  0  0  0  0  0  0  0  0  0  0
   -4.4271   24.5713  -25.9665 H   0  0  0  0  0  0  0  0  0  0  0  0
   -4.7205   25.4608  -27.4993 H   0  0  0  0  0  0  0  0  0  0  0  0
   -4.6648   23.6653  -27.4993 H   0  0  0  0  0  0  0  0  0  0  0  0
   -4.8121   21.4712  -32.4088 H   0  0  0  0  0  0  0  0  0  0  0  0
  1  2  1  0
  2  3  1  0
  3  4  2  0
  4  5  1  0
  5  6  2  0
  6  7  1  0
  7  8  1  0
  8  9  1  0
  9 10  2  0
  9 11  1  0
 11 12  1  0
 12 13  2  0
 13 14  1  0
 14 15  2  0
 15 16  1  0
 16 17  2  0
 17 18  1  0
  7 19  2  0
 19  3  1  0
 17 12  1  0
  1 20  1  0
  1 21  1  0
  1 22  1  0
  4 23  1  0
  5 24  1  0
  6 25  1  0
  8 26  1  0
 11 27  1  0
 13 28  1  0
 14 29  1  0
 15 30  1  0
 16 31  1  0
 18 32  1  0
 18 33  1  0
 18 34  1  0
 19 35  1  0
M  END
>  <UniqueID>  (32) 
31

>  <SMILES>  (32) 
CSc1cccc(NC(=S)Nc2ccccc2C)c1

>  <Energy>  (32) 
42.410626060082976

>  <Genealogy>  (32) 
CSc1cccc(NC(=S)Nc2ccccc2C)c1 (3D coordinates assigned)
CSc1cccc(NC(=S)Nc2ccccc2C)c1 (optimized conformer: 42.410626060082976 kcal/mol)

>  <smiles>  (32) 
CSc1cccc(NC(=S)Nc2ccccc2C)c1

>  <score_type>  (32) 
oracle

>  <origin>  (32) 
adgpu

>  <m_score__min__energy>  (32) 
-7.6600000000000001

>  <m_primary>  (32) 
energy

$$$$
32:0
     RDKit          3D

 39 41  0  0  0  0  0  0  0  0999 V2000
   -5.3720   25.6680  -30.2100 C   0  0  0  0  0  0  0  0  0  0  0  0
   -5.0610   24.4800  -30.9310 O   0  0  0  0  0  0  0  0  0  0  0  0
   -5.9920   23.4820  -31.2530 C   0  0  0  0  0  0  0  0  0  0  0  0
   -5.9130   22.7300  -32.4390 C   0  0  0  0  0  0  0  0  0  0  0  0
   -6.8670   21.7440  -32.7140 C   0  0  0  0  0  0  0  0  0  0  0  0
   -7.9120   21.4970  -31.8120 C   0  0  0  0  0  0  0  0  0  0  0  0
   -8.9200   20.4090  -32.0970 C   0  0  0  0  0  0  0  0  0  0  0  0
   -8.4120   19.4370  -33.0810 N   0  0  0  0  0  0  0  0  0  0  0  0
   -7.4940   18.4640  -32.4690 C   0  0  0  0  0  0  0  0  0  0  0  0
   -6.2380   18.3480  -33.2820 C   0  0  0  0  0  0  0  0  0  0  0  0
   -6.0990   17.7140  -34.5130 C   0  0  0  0  0  0  0  0  0  0  0  0
   -4.8420   17.8760  -34.9870 N   0  0  0  0  0  0  0  0  0  0  0  0
   -4.1920   18.6170  -34.0720 C   0  0  0  0  0  0  0  0  0  0  0  0
   -2.8730   19.0640  -34.1270 C   0  0  0  0  0  0  0  0  0  0  0  0
   -2.4000   19.8530  -33.0620 C   0  0  0  0  0  0  0  0  0  0  0  0
   -3.2490   20.1770  -31.9800 C   0  0  0  0  0  0  0  0  0  0  0  0
   -4.5780   19.7150  -31.9520 C   0  0  0  0  0  0  0  0  0  0  0  0
   -5.0140   18.9300  -33.0200 C   0  0  0  0  0  0  0  0  0  0  0  0
   -7.9880   22.2460  -30.6270 C   0  0  0  0  0  0  0  0  0  0  0  0
   -7.0360   23.2310  -30.3540 C   0  0  0  0  0  0  0  0  0  0  0  0
   -5.3191   25.4659  -29.1300 H   0  0  0  0  0  0  0  0  0  0  0  0
   -4.6497   26.4553  -30.4715 H   0  0  0  0  0  0  0  0  0  0  0  0
   -6.3874   26.0004  -30.4715 H   0  0  0  0  0  0  0  0  0  0  0  0
   -5.0978   22.9178  -33.1533 H   0  0  0  0  0  0  0  0  0  0  0  0
   -6.7969   21.1593  -33.6431 H   0  0  0  0  0  0  0  0  0  0  0  0
   -9.1483   19.8806  -31.1596 H   0  0  0  0  0  0  0  0  0  0  0  0
   -9.8221   20.8795  -32.5152 H   0  0  0  0  0  0  0  0  0  0  0  0
   -9.2310   18.9200  -33.4800 H   0  0  0  0  0  0  0  0  0  0  0  0
   -7.9330   19.9420  -33.8640 H   0  0  0  0  0  0  0  0  0  0  0  0
   -7.2383   18.7966  -31.4521 H   0  0  0  0  0  0  0  0  0  0  0  0
   -7.9875   17.4816  -32.4320 H   0  0  0  0  0  0  0  0  0  0  0  0
   -6.8977   17.1598  -35.0277 H   0  0  0  0  0  0  0  0  0  0  0  0
   -4.4620   17.5130  -35.8890 H   0  0  0  0  0  0  0  0  0  0  0  0
   -2.2222   18.8081  -34.9761 H   0  0  0  0  0  0  0  0  0  0  0  0
   -1.3630   20.2197  -33.0719 H   0  0  0  0  0  0  0  0  0  0  0  0
   -2.8683   20.7949  -31.1534 H   0  0  0  0  0  0  0  0  0  0  0  0
   -5.2497   19.9641  -31.1172 H   0  0  0  0  0  0  0  0  0  0  0  0
   -8.8008   22.0563  -29.9104 H   0  0  0  0  0  0  0  0  0  0  0  0
   -7.1070   23.8148  -29.4244 H   0  0  0  0  0  0  0  0  0  0  0  0
  1  2  1  0
  2  3  1  0
  3  4  2  0
  4  5  1  0
  5  6  2  0
  6  7  1  0
  7  8  1  0
  8  9  1  0
  9 10  1  0
 10 11  2  0
 11 12  1  0
 12 13  1  0
 13 14  2  0
 14 15  1  0
 15 16  2  0
 16 17  1  0
 17 18  2  0
  6 19  1  0
 19 20  2  0
 20  3  1  0
 18 10  1  0
 18 13  1  0
  1 21  1  0
  1 22  1  0
  1 23  1  0
  4 24  1  0
  5 25  1  0
  7 26  1  0
  7 27  1  0
  8 28  1  0
  8 29  1  0
  9 30  1  0
  9 31  1  0
 11 32  1  0
 12 33  1  0
 14 34  1  0
 15 35  1  0
 16 36  1  0
 17 37  1  0
 19 38  1  0
 20 39  1  0
M  CHG  1   8   1
M  END
>  <UniqueID>  (33) 
32

>  <SMILES>  (33) 
COc1ccc(C[NH2+]Cc2c[nH]c3ccccc23)cc1

>  <Energy>  (33) 
71.49406915924853

>  <Genealogy>  (33) 
COc1ccc(C[NH2+]Cc2c[nH]c3ccccc23)cc1 (protonated)
COc1ccc(C[NH2+]Cc2c[nH]c3ccccc23)cc1 (3D coordinates assigned)
COc1ccc(C[NH2+]Cc2c[nH]c3ccccc23)cc1 (optimized conformer: 71.49406915924853 kcal/mol)

>  <smiles>  (33) 
COc1ccc(CNCc2c[nH]c3ccccc23)cc1

>  <score_type>  (33) 
oracle

>  <origin>  (33) 
adgpu

>  <m_score__min__energy>  (33) 
-7.2199999999999998

>  <m_primary>  (33) 
energy

$$$$
33:0
     RDKit          3D

 60 62  0  0  0  0  0  0  0  0999 V2000
   -4.1820   23.8600  -27.2920 C   0  0  0  0  0  0  0  0  0  0  0  0
   -3.0930   24.9110  -27.0910 C   0  0  0  0  0  0  0  0  0  0  0  0
   -1.9880   24.7020  -28.0380 N   0  0  0  0  0  0  0  0  0  0  0  0
   -0.8290   25.6040  -28.0320 C   0  0  0  0  0  0  0  0  0  0  0  0
   -1.0090   26.7300  -27.0140 C   0  0  0  0  0  0  0  0  0  0  0  0
   -2.0360   23.6170  -28.9860 C   0  0  0  0  0  0  0  0  0  0  0  0
   -1.3450   22.4260  -28.7130 C   0  0  0  0  0  0  0  0  0  0  0  0
   -1.3770   21.3650  -29.6220 C   0  0  0  0  0  0  0  0  0  0  0  0
   -2.1000   21.4830  -30.8080 C   0  0  0  0  0  0  0  0  0  0  0  0
   -2.8030   22.6580  -31.0860 C   0  0  0  0  0  0  0  0  0  0  0  0
   -2.7910   23.7270  -30.1730 C   0  0  0  0  0  0  0  0  0  0  0  0
   -3.5150   24.9340  -30.4490 N   0  0  0  0  0  0  0  0  0  0  0  0
   -4.9420   25.0510  -30.5040 C   0  0  0  0  0  0  0  0  0  0  0  0
   -5.4860   26.1700  -30.2990 O   0  0  0  0  0  0  0  0  0  0  0  0
   -5.7690   23.8720  -30.8470 C   0  0  0  0  0  0  0  0  0  0  0  0
   -5.5870   23.1990  -32.0660 C   0  0  0  0  0  0  0  0  0  0  0  0
   -6.3910   22.1050  -32.3990 C   0  0  0  0  0  0  0  0  0  0  0  0
   -7.3840   21.6610  -31.5160 C   0  0  0  0  0  0  0  0  0  0  0  0
   -8.4040   20.2820  -31.9450 S   0  0  0  0  0  0  0  0  0  0  0  0
   -9.1170   19.8010  -30.7100 O   0  0  0  0  0  0  0  0  0  0  0  0
   -9.4460   20.7510  -32.9230 O   0  0  0  0  0  0  0  0  0  0  0  0
   -7.5140   18.9610  -32.6830 N   0  0  0  0  0  0  0  0  0  0  0  0
   -6.4620   19.3620  -33.6340 C   0  0  0  0  0  0  0  0  0  0  0  0
   -6.1120   18.2980  -34.6930 C   0  0  0  0  0  0  0  0  0  0  0  0
   -5.7830   16.9330  -34.0670 C   0  0  0  0  0  0  0  0  0  0  0  0
   -4.9670   17.0210  -32.7620 C   0  0  0  0  0  0  0  0  0  0  0  0
   -5.7130   17.6120  -31.5560 C   0  0  0  0  0  0  0  0  0  0  0  0
   -7.2170   17.8180  -31.7990 C   0  0  0  0  0  0  0  0  0  0  0  0
   -7.5790   22.3380  -30.3060 C   0  0  0  0  0  0  0  0  0  0  0  0
   -6.7740   23.4280  -29.9710 C   0  0  0  0  0  0  0  0  0  0  0  0
   -4.5418   23.5128  -26.3122 H   0  0  0  0  0  0  0  0  0  0  0  0
   -5.0181   24.3013  -27.8543 H   0  0  0  0  0  0  0  0  0  0  0  0
   -3.7707   23.0087  -27.8543 H   0  0  0  0  0  0  0  0  0  0  0  0
   -3.5222   25.9110  -27.2518 H   0  0  0  0  0  0  0  0  0  0  0  0
   -2.7021   24.8238  -26.0665 H   0  0  0  0  0  0  0  0  0  0  0  0
    0.0722   25.0283  -27.7744 H   0  0  0  0  0  0  0  0  0  0  0  0
   -0.7312   26.0515  -29.0321 H   0  0  0  0  0  0  0  0  0  0  0  0
   -0.9432   26.3181  -25.9962 H   0  0  0  0  0  0  0  0  0  0  0  0
   -0.2198   27.4829  -27.1566 H   0  0  0  0  0  0  0  0  0  0  0  0
   -1.9936   27.1993  -27.1566 H   0  0  0  0  0  0  0  0  0  0  0  0
   -0.7747   22.3272  -27.7776 H   0  0  0  0  0  0  0  0  0  0  0  0
   -0.8311   20.4358  -29.4014 H   0  0  0  0  0  0  0  0  0  0  0  0
   -2.1171   20.6498  -31.5260 H   0  0  0  0  0  0  0  0  0  0  0  0
   -3.3692   22.7472  -32.0248 H   0  0  0  0  0  0  0  0  0  0  0  0
   -4.8061   23.5351  -32.7639 H   0  0  0  0  0  0  0  0  0  0  0  0
   -6.2432   21.5899  -33.3596 H   0  0  0  0  0  0  0  0  0  0  0  0
   -6.8006   20.2682  -34.1576 H   0  0  0  0  0  0  0  0  0  0  0  0
   -5.5500   19.5210  -33.0398 H   0  0  0  0  0  0  0  0  0  0  0  0
   -6.9704   18.1782  -35.3703 H   0  0  0  0  0  0  0  0  0  0  0  0
   -5.2177   18.6436  -35.2323 H   0  0  0  0  0  0  0  0  0  0  0  0
   -6.7289   16.4156  -33.8491 H   0  0  0  0  0  0  0  0  0  0  0  0
   -5.1612   16.3911  -34.7948 H   0  0  0  0  0  0  0  0  0  0  0  0
   -4.6429   16.0042  -32.4954 H   0  0  0  0  0  0  0  0  0  0  0  0
   -4.1354   17.7100  -32.9709 H   0  0  0  0  0  0  0  0  0  0  0  0
   -5.5896   16.9289  -30.7027 H   0  0  0  0  0  0  0  0  0  0  0  0
   -5.2796   18.6049  -31.3654 H   0  0  0  0  0  0  0  0  0  0  0  0
   -7.6245   16.9057  -32.2590 H   0  0  0  0  0  0  0  0  0  0  0  0
   -7.6783   18.0320  -30.8236 H   0  0  0  0  0  0  0  0  0  0  0  0
   -8.3703   22.0093  -29.6162 H   0  0  0  0  0  0  0  0  0  0  0  0
   -6.9278   23.9444  -29.0120 H   0  0  0  0  0  0  0  0  0  0  0  0
  1  2  1  0
  2  3  1  0
  3  4  1  0
  4  5  1  0
  3  6  1  0
  6  7  2  0
  7  8  1  0
  8  9  2  0
  9 10  1  0
 10 11  2  0
 11 12  1  0
 12 13  1  0
 13 14  2  0
 13 15  1  0
 15 16  2  0
 16 17  1  0
 17 18  2  0
 18 19  1  0
 19 20  2  0
 19 21  2  0
 19 22  1  0
 22 23  1  0
 23 24  1  0
 24 25  1  0
 25 26  1  0
 26 27  1  0
 27 28  1  0
 18 29  1  0
 29 30  2  0
 11  6  1  0
 30 15  1  0
 28 22  1  0
  1 31  1  0
  1 32  1  0
  1 33  1  0
  2 34  1  0
  2 35  1  0
  4 36  1  0
  4 37  1  0
  5 38  1  0
  5 39  1  0
  5 40  1  0
  7 41  1  0
  8 42  1  0
  9 43  1  0
 10 44  1  0
 16 45  1  0
 17 46  1  0
 23 47  1  0
 23 48  1  0
 24 49  1  0
 24 50  1  0
 25 51  1  0
 25 52  1  0
 26 53  1  0
 26 54  1  0
 27 55  1  0
 27 56  1  0
 28 57  1  0
 28 58  1  0
 29 59  1  0
 30 60  1  0
M  CHG  1  12  -1
M  END
>  <UniqueID>  (34) 
33

>  <SMILES>  (34) 
CCN(CC)c1ccccc1[N-]C(=O)c1ccc(S(=O)(=O)N2CCCCCC2)cc1

>  <Energy>  (34) 
74.90367702240154

>  <Genealogy>  (34) 
CCN(CC)c1ccccc1[N-]C(=O)c1ccc(S(=O)(=O)N2CCCCCC2)cc1 (protonated)
CCN(CC)c1ccccc1[N-]C(=O)c1ccc(S(=O)(=O)N2CCCCCC2)cc1 (3D coordinates assigned)
CCN(CC)c1ccccc1[N-]C(=O)c1ccc(S(=O)(=O)N2CCCCCC2)cc1 (nonaromatic ring conformer: 74.90367702240154 kcal/mol)

>  <smiles>  (34) 
CCN(CC)c1ccccc1NC(=O)c1ccc(S(=O)(=O)N2CCCCCC2)cc1

>  <score_type>  (34) 
oracle

>  <origin>  (34) 
adgpu

>  <m_score__min__energy>  (34) 
-9.8399999999999999

>  <m_primary>  (34) 
energy

$$$$
34:0
     RDKit          3D

 49 52  0  0  0  0  0  0  0  0999 V2000
   -0.3996   24.9933  -27.8509 H   0  0  0  0  0  0  0  0  0  0  0  0
   -1.0390   24.3780  -28.5010 C   0  0  0  0  0  0  0  0  0  0  0  0
   -0.5180   23.2390  -29.1180 C   0  0  0  0  0  0  0  0  0  0  0  0
    0.5324   22.9572  -28.9531 H   0  0  0  0  0  0  0  0  0  0  0  0
   -1.3290   22.4560  -29.9450 C   0  0  0  0  0  0  0  0  0  0  0  0
   -0.9120   21.5598  -30.4276 H   0  0  0  0  0  0  0  0  0  0  0  0
   -2.6740   22.8050  -30.1650 C   0  0  0  0  0  0  0  0  0  0  0  0
   -3.5220   21.9650  -31.0450 C   0  0  0  0  0  0  0  0  0  0  0  0
   -4.8000   21.6330  -30.7550 N   0  0  0  0  0  0  0  0  0  0  0  0
   -5.2660   20.8830  -31.7410 N   0  0  0  0  0  0  0  0  0  0  0  0
   -6.6520   20.5210  -31.8240 C   0  0  0  0  0  0  0  0  0  0  0  0
   -7.0240   19.1890  -31.5930 C   0  0  0  0  0  0  0  0  0  0  0  0
   -6.2586   18.4454  -31.3262 H   0  0  0  0  0  0  0  0  0  0  0  0
   -8.3610   18.8020  -31.7000 C   0  0  0  0  0  0  0  0  0  0  0  0
   -8.6449   17.7531  -31.5289 H   0  0  0  0  0  0  0  0  0  0  0  0
   -9.3380   19.7450  -32.0240 C   0  0  0  0  0  0  0  0  0  0  0  0
  -10.3884   19.4346  -32.1253 H   0  0  0  0  0  0  0  0  0  0  0  0
   -8.9840   21.0830  -32.2200 C   0  0  0  0  0  0  0  0  0  0  0  0
   -9.7586   21.8219  -32.4729 H   0  0  0  0  0  0  0  0  0  0  0  0
   -7.6450   21.4900  -32.0960 C   0  0  0  0  0  0  0  0  0  0  0  0
   -7.2920   22.9420  -32.2740 C   0  0  0  0  0  0  0  0  0  0  0  0
   -7.1770   23.4150  -31.2876 H   0  0  0  0  0  0  0  0  0  0  0  0
   -6.3478   23.0240  -32.8323 H   0  0  0  0  0  0  0  0  0  0  0  0
   -8.0932   23.4484  -32.8323 H   0  0  0  0  0  0  0  0  0  0  0  0
   -4.2900   20.7290  -32.6680 C   0  0  0  0  0  0  0  0  0  0  0  0
   -4.3640   20.0540  -33.7820 N   0  0  0  0  0  0  0  0  0  0  0  0
   -5.4180   19.1760  -34.1950 C   0  0  0  0  0  0  0  0  0  0  0  0
   -6.5010   19.6710  -34.6120 O   0  0  0  0  0  0  0  0  0  0  0  0
   -5.2770   17.7000  -34.0830 C   0  0  0  0  0  0  0  0  0  0  0  0
   -6.4390   16.9160  -33.9320 C   0  0  0  0  0  0  0  0  0  0  0  0
   -7.4219   17.4068  -33.8766 H   0  0  0  0  0  0  0  0  0  0  0  0
   -6.3580   15.5260  -33.8520 C   0  0  0  0  0  0  0  0  0  0  0  0
   -7.2742   14.9290  -33.7333 H   0  0  0  0  0  0  0  0  0  0  0  0
   -5.1200   14.8920  -33.9220 C   0  0  0  0  0  0  0  0  0  0  0  0
   -5.0600   13.7955  -33.8589 H   0  0  0  0  0  0  0  0  0  0  0  0
   -3.9560   15.6460  -34.0720 C   0  0  0  0  0  0  0  0  0  0  0  0
   -2.9815   15.1387  -34.1269 H   0  0  0  0  0  0  0  0  0  0  0  0
   -4.0170   17.0530  -34.1540 C   0  0  0  0  0  0  0  0  0  0  0  0
   -2.8490   17.8210  -34.3000 O   0  0  0  0  0  0  0  0  0  0  0  0
   -1.9080   18.0780  -33.2620 C   0  0  0  0  0  0  0  0  0  0  0  0
   -2.3948   17.9450  -32.2846 H   0  0  0  0  0  0  0  0  0  0  0  0
   -1.0646   17.3773  -33.3499 H   0  0  0  0  0  0  0  0  0  0  0  0
   -1.5379   19.1101  -33.3499 H   0  0  0  0  0  0  0  0  0  0  0  0
   -3.1670   21.4190  -32.2720 C   0  0  0  0  0  0  0  0  0  0  0  0
   -2.2093   21.5158  -32.8043 H   0  0  0  0  0  0  0  0  0  0  0  0
   -3.1880   23.9570  -29.5360 C   0  0  0  0  0  0  0  0  0  0  0  0
   -4.2374   24.2453  -29.6962 H   0  0  0  0  0  0  0  0  0  0  0  0
   -2.3720   24.7350  -28.7100 C   0  0  0  0  0  0  0  0  0  0  0  0
   -2.7819   25.6320  -28.2228 H   0  0  0  0  0  0  0  0  0  0  0  0
  1  2  1  0
  2  3  2  0
  3  4  1  0
  3  5  1  0
  5  6  1  0
  5  7  2  0
  7  8  1  0
  8  9  1  0
  9 10  1  0
 10 11  1  0
 11 12  2  0
 12 13  1  0
 12 14  1  0
 14 15  1  0
 14 16  2  0
 16 17  1  0
 16 18  1  0
 18 19  1  0
 18 20  2  0
 20 21  1  0
 21 22  1  0
 21 23  1  0
 21 24  1  0
 10 25  1  0
 25 26  2  0
 26 27  1  0
 27 28  2  0
 27 29  1  0
 29 30  2  0
 30 31  1  0
 30 32  1  0
 32 33  1  0
 32 34  2  0
 34 35  1  0
 34 36  1  0
 36 37  1  0
 36 38  2  0
 38 39  1  0
 39 40  1  0
 40 41  1  0
 40 42  1  0
 40 43  1  0
 25 44  1  0
 44 45  1  0
  7 46  1  0
 46 47  1  0
 46 48  2  0
 48 49  1  0
 48  2  1  0
 44  8  2  0
 20 11  1  0
 38 29  1  0
M  CHG  1   9  -1
M  END
>  <UniqueID>  (35) 
34

>  <SMILES>  (35) 
COc1ccccc1C(=O)/N=c1/cc(-c2ccccc2)[n-]n1-c1ccccc1C

>  <Energy>  (35) 
103.54222576970048

>  <Genealogy>  (35) 
COc1ccccc1C(=O)N=c1cc(-c2ccccc2)[n-]n1-c1ccccc1C (protonated)
COc1ccccc1C(=O)/N=c1/cc(-c2ccccc2)[n-]n1-c1ccccc1C (cis-trans isomerization)
COc1ccccc1C(=O)/N=c1/cc(-c2ccccc2)[n-]n1-c1ccccc1C (3D coordinates assigned)
COc1ccccc1C(=O)/N=c1/cc(-c2ccccc2)[n-]n1-c1ccccc1C (optimized conformer: 103.54222576970048 kcal/mol)

>  <smiles>  (35) 
COc1ccccc1C(=O)N=c1cc(-c2ccccc2)[nH]n1-c1ccccc1C

>  <score_type>  (35) 
oracle

>  <origin>  (35) 
adgpu

>  <m_score__min__energy>  (35) 
-8.25

>  <m_primary>  (35) 
energy

$$$$
35:0
     RDKit          3D

 33 33  0  0  0  0  0  0  0  0999 V2000
   -2.9230   21.8570  -28.6590 C   0  0  0  0  0  0  0  0  0  0  0  0
   -4.2520   22.3970  -28.1220 C   0  0  0  0  0  0  0  0  0  0  0  0
   -4.3090   23.8770  -28.1430 N   0  0  0  0  0  0  0  0  0  0  0  0
   -3.0410   24.5630  -27.7810 C   0  0  0  0  0  0  0  0  0  0  0  0
   -2.9550   25.0780  -26.3350 C   0  0  0  0  0  0  0  0  0  0  0  0
   -4.9590   24.4490  -29.6670 S   0  0  0  0  0  0  0  0  0  0  0  0
   -5.9950   25.5040  -29.3910 O   0  0  0  0  0  0  0  0  0  0  0  0
   -3.8620   25.0960  -30.4680 O   0  0  0  0  0  0  0  0  0  0  0  0
   -5.7230   23.1690  -30.6220 C   0  0  0  0  0  0  0  0  0  0  0  0
   -7.0770   22.8700  -30.4110 C   0  0  0  0  0  0  0  0  0  0  0  0
   -7.7150   21.8630  -31.1530 C   0  0  0  0  0  0  0  0  0  0  0  0
   -9.1650   21.5520  -30.9040 C   0  0  0  0  0  0  0  0  0  0  0  0
   -6.9820   21.1550  -32.1250 C   0  0  0  0  0  0  0  0  0  0  0  0
   -7.7220   19.8800  -33.0880 Cl  0  0  0  0  0  0  0  0  0  0  0  0
   -5.6340   21.4590  -32.3420 C   0  0  0  0  0  0  0  0  0  0  0  0
   -5.0050   22.4620  -31.5990 C   0  0  0  0  0  0  0  0  0  0  0  0
   -3.6920   22.7160  -31.8230 F   0  0  0  0  0  0  0  0  0  0  0  0
   -2.2680   21.5909  -27.8163 H   0  0  0  0  0  0  0  0  0  0  0  0
   -3.1114   20.9641  -29.2732 H   0  0  0  0  0  0  0  0  0  0  0  0
   -2.4352   22.6282  -29.2732 H   0  0  0  0  0  0  0  0  0  0  0  0
   -5.0702   22.0030  -28.7427 H   0  0  0  0  0  0  0  0  0  0  0  0
   -4.3481   22.0721  -27.0755 H   0  0  0  0  0  0  0  0  0  0  0  0
   -5.0190   24.1700  -27.4300 H   0  0  0  0  0  0  0  0  0  0  0  0
   -2.2154   23.8531  -27.9373 H   0  0  0  0  0  0  0  0  0  0  0  0
   -2.9872   25.4551  -28.4223 H   0  0  0  0  0  0  0  0  0  0  0  0
   -3.0952   24.2387  -25.6379 H   0  0  0  0  0  0  0  0  0  0  0  0
   -1.9683   25.5340  -26.1662 H   0  0  0  0  0  0  0  0  0  0  0  0
   -3.7400   25.8298  -26.1662 H   0  0  0  0  0  0  0  0  0  0  0  0
   -7.6460   23.4312  -29.6551 H   0  0  0  0  0  0  0  0  0  0  0  0
   -9.3506   21.5122  -29.8205 H   0  0  0  0  0  0  0  0  0  0  0  0
   -9.7909   22.3363  -31.3547 H   0  0  0  0  0  0  0  0  0  0  0  0
   -9.4142   20.5800  -31.3547 H   0  0  0  0  0  0  0  0  0  0  0  0
   -5.0649   20.9047  -33.1028 H   0  0  0  0  0  0  0  0  0  0  0  0
  1  2  1  0
  2  3  1  0
  3  4  1  0
  4  5  1  0
  3  6  1  0
  6  7  2  0
  6  8  2  0
  6  9  1  0
  9 10  2  0
 10 11  1  0
 11 12  1  0
 11 13  2  0
 13 14  1  0
 13 15  1  0
 15 16  2  0
 16 17  1  0
 16  9  1  0
  1 18  1  0
  1 19  1  0
  1 20  1  0
  2 21  1  0
  2 22  1  0
  3 23  1  0
  4 24  1  0
  4 25  1  0
  5 26  1  0
  5 27  1  0
  5 28  1  0
 10 29  1  0
 12 30  1  0
 12 31  1  0
 12 32  1  0
 15 33  1  0
M  CHG  1   3   1
M  END
>  <UniqueID>  (36) 
35

>  <SMILES>  (36) 
CC[NH+](CC)S(=O)(=O)c1cc(C)c(Cl)cc1F

>  <Energy>  (36) 
33.110549597598684

>  <Genealogy>  (36) 
CC[NH+](CC)S(=O)(=O)c1cc(C)c(Cl)cc1F (protonated)
CC[NH+](CC)S(=O)(=O)c1cc(C)c(Cl)cc1F (3D coordinates assigned)
CC[NH+](CC)S(=O)(=O)c1cc(C)c(Cl)cc1F (optimized conformer: 33.110549597598684 kcal/mol)

>  <smiles>  (36) 
CCN(CC)S(=O)(=O)c1cc(C)c(Cl)cc1F

>  <score_type>  (36) 
oracle

>  <origin>  (36) 
adgpu

>  <m_score__min__energy>  (36) 
-6.3600000000000003

>  <m_primary>  (36) 
energy

$$$$
36:0
     RDKit          3D

 39 41  0  0  0  0  0  0  0  0999 V2000
   -9.0900   23.4110  -32.2920 C   0  0  0  0  0  0  0  0  0  0  0  0
   -7.6620   23.4100  -31.8590 C   0  0  0  0  0  0  0  0  0  0  0  0
   -7.1220   24.1880  -30.8520 C   0  0  0  0  0  0  0  0  0  0  0  0
   -5.8000   23.7950  -30.7960 C   0  0  0  0  0  0  0  0  0  0  0  0
   -4.7650   24.4050  -29.9430 C   0  0  0  0  0  0  0  0  0  0  0  0
   -3.7920   25.0010  -30.4780 O   0  0  0  0  0  0  0  0  0  0  0  0
   -4.8480   24.3020  -28.5140 N   0  0  0  0  0  0  0  0  0  0  0  0
   -3.6890   24.5430  -27.6580 C   0  0  0  0  0  0  0  0  0  0  0  0
   -2.5990   23.5530  -27.9780 C   0  0  0  0  0  0  0  0  0  0  0  0
   -1.4630   23.9670  -28.6920 C   0  0  0  0  0  0  0  0  0  0  0  0
   -0.4170   23.0710  -28.9300 C   0  0  0  0  0  0  0  0  0  0  0  0
   -0.4930   21.7600  -28.4510 C   0  0  0  0  0  0  0  0  0  0  0  0
   -1.6190   21.3410  -27.7370 C   0  0  0  0  0  0  0  0  0  0  0  0
   -1.6880   20.0730  -27.2640 F   0  0  0  0  0  0  0  0  0  0  0  0
   -2.6690   22.2340  -27.4990 C   0  0  0  0  0  0  0  0  0  0  0  0
   -5.5960   22.8150  -31.7080 N   0  0  0  0  0  0  0  0  0  0  0  0
   -4.3990   22.0490  -31.9230 C   0  0  0  0  0  0  0  0  0  0  0  0
   -3.7760   21.3690  -30.8580 C   0  0  0  0  0  0  0  0  0  0  0  0
   -2.6210   20.6150  -31.0820 C   0  0  0  0  0  0  0  0  0  0  0  0
   -2.0880   20.5170  -32.3700 C   0  0  0  0  0  0  0  0  0  0  0  0
   -2.7140   21.1680  -33.4370 C   0  0  0  0  0  0  0  0  0  0  0  0
   -3.8690   21.9260  -33.2170 C   0  0  0  0  0  0  0  0  0  0  0  0
   -6.7260   22.5760  -32.3550 N   0  0  0  0  0  0  0  0  0  0  0  0
   -9.7418   23.4115  -31.4059 H   0  0  0  0  0  0  0  0  0  0  0  0
   -9.2898   24.3093  -32.8946 H   0  0  0  0  0  0  0  0  0  0  0  0
   -9.2911   22.5130  -32.8946 H   0  0  0  0  0  0  0  0  0  0  0  0
   -7.6291   24.9459  -30.2369 H   0  0  0  0  0  0  0  0  0  0  0  0
   -5.7170   23.9230  -28.0760 H   0  0  0  0  0  0  0  0  0  0  0  0
   -3.3159   25.5637  -27.8284 H   0  0  0  0  0  0  0  0  0  0  0  0
   -3.9862   24.4260  -26.6054 H   0  0  0  0  0  0  0  0  0  0  0  0
   -1.3961   24.9996  -29.0652 H   0  0  0  0  0  0  0  0  0  0  0  0
    0.4680   23.3982  -29.4955 H   0  0  0  0  0  0  0  0  0  0  0  0
    0.3335   21.0581  -28.6360 H   0  0  0  0  0  0  0  0  0  0  0  0
   -3.5530   21.9023  -26.9346 H   0  0  0  0  0  0  0  0  0  0  0  0
   -4.2008   21.4319  -29.8453 H   0  0  0  0  0  0  0  0  0  0  0  0
   -2.1310   20.0982  -30.2437 H   0  0  0  0  0  0  0  0  0  0  0  0
   -1.1758   19.9276  -32.5443 H   0  0  0  0  0  0  0  0  0  0  0  0
   -2.2975   21.0841  -34.4517 H   0  0  0  0  0  0  0  0  0  0  0  0
   -4.3639   22.4277  -34.0616 H   0  0  0  0  0  0  0  0  0  0  0  0
  1  2  1  0
  2  3  1  0
  3  4  2  0
  4  5  1  0
  5  6  2  0
  5  7  1  0
  7  8  1  0
  8  9  1  0
  9 10  2  0
 10 11  1  0
 11 12  2  0
 12 13  1  0
 13 14  1  0
 13 15  2  0
  4 16  1  0
 16 17  1  0
 17 18  2  0
 18 19  1  0
 19 20  2  0
 20 21  1  0
 21 22  2  0
 16 23  1  0
 23  2  2  0
 15  9  1  0
 22 17  1  0
  1 24  1  0
  1 25  1  0
  1 26  1  0
  3 27  1  0
  7 28  1  0
  8 29  1  0
  8 30  1  0
 10 31  1  0
 11 32  1  0
 12 33  1  0
 15 34  1  0
 18 35  1  0
 19 36  1  0
 20 37  1  0
 21 38  1  0
 22 39  1  0
M  END
>  <UniqueID>  (37) 
36

>  <SMILES>  (37) 
Cc1cc(C(=O)NCc2cccc(F)c2)n(-c2ccccc2)n1

>  <Energy>  (37) 
73.5542730981253

>  <Genealogy>  (37) 
Cc1cc(C(=O)NCc2cccc(F)c2)n(-c2ccccc2)n1 (3D coordinates assigned)
Cc1cc(C(=O)NCc2cccc(F)c2)n(-c2ccccc2)n1 (optimized conformer: 73.5542730981253 kcal/mol)

>  <smiles>  (37) 
Cc1cc(C(=O)NCc2cccc(F)c2)n(-c2ccccc2)n1

>  <score_type>  (37) 
oracle

>  <origin>  (37) 
adgpu

>  <m_score__min__energy>  (37) 
-7.4199999999999999

>  <m_primary>  (37) 
energy

$$$$
37:0
     RDKit          3D

 40 42  0  0  0  0  0  0  0  0999 V2000
   -3.6640   24.1610  -27.5160 C   0  0  0  0  0  0  0  0  0  0  0  0
   -2.9550   23.9690  -28.7360 O   0  0  0  0  0  0  0  0  0  0  0  0
   -3.4020   23.1660  -29.7960 C   0  0  0  0  0  0  0  0  0  0  0  0
   -3.1300   21.7840  -29.8530 C   0  0  0  0  0  0  0  0  0  0  0  0
   -3.5930   21.0180  -30.9230 C   0  0  0  0  0  0  0  0  0  0  0  0
   -4.3390   21.6130  -31.9420 C   0  0  0  0  0  0  0  0  0  0  0  0
   -4.9480   20.6190  -33.3050 S   0  0  0  0  0  0  0  0  0  0  0  0
   -6.6050   20.4900  -32.6080 C   0  0  0  0  0  0  0  0  0  0  0  0
   -7.2930   21.6700  -32.3050 C   0  0  0  0  0  0  0  0  0  0  0  0
   -8.5250   21.6200  -31.7330 N   0  0  0  0  0  0  0  0  0  0  0  0
   -9.1260   20.4390  -31.4380 C   0  0  0  0  0  0  0  0  0  0  0  0
   -8.4840   19.2340  -31.7250 C   0  0  0  0  0  0  0  0  0  0  0  0
   -7.2150   19.2460  -32.3260 C   0  0  0  0  0  0  0  0  0  0  0  0
   -6.5500   17.9580  -32.6240 C   0  0  0  0  0  0  0  0  0  0  0  0
   -5.9930   17.1950  -31.5830 C   0  0  0  0  0  0  0  0  0  0  0  0
   -5.3610   15.9790  -31.8620 C   0  0  0  0  0  0  0  0  0  0  0  0
   -5.2900   15.5110  -33.1770 C   0  0  0  0  0  0  0  0  0  0  0  0
   -5.8560   16.2550  -34.2150 C   0  0  0  0  0  0  0  0  0  0  0  0
   -6.4880   17.4720  -33.9410 C   0  0  0  0  0  0  0  0  0  0  0  0
   -4.6030   22.9860  -31.9030 C   0  0  0  0  0  0  0  0  0  0  0  0
   -4.1420   23.7690  -30.8270 C   0  0  0  0  0  0  0  0  0  0  0  0
   -4.3980   25.1470  -30.7460 O   0  0  0  0  0  0  0  0  0  0  0  0
   -5.6610   25.7150  -30.4160 C   0  0  0  0  0  0  0  0  0  0  0  0
   -2.9890   23.9782  -26.6669 H   0  0  0  0  0  0  0  0  0  0  0  0
   -4.0406   25.1935  -27.4693 H   0  0  0  0  0  0  0  0  0  0  0  0
   -4.5101   23.4596  -27.4693 H   0  0  0  0  0  0  0  0  0  0  0  0
   -2.5496   21.3071  -29.0495 H   0  0  0  0  0  0  0  0  0  0  0  0
   -3.3696   19.9417  -30.9639 H   0  0  0  0  0  0  0  0  0  0  0  0
   -6.8342   22.6439  -32.5310 H   0  0  0  0  0  0  0  0  0  0  0  0
  -10.1221   20.4321  -30.9713 H   0  0  0  0  0  0  0  0  0  0  0  0
   -8.9702   18.2779  -31.4813 H   0  0  0  0  0  0  0  0  0  0  0  0
   -6.0544   17.5555  -30.5456 H   0  0  0  0  0  0  0  0  0  0  0  0
   -4.9190   15.3899  -31.0450 H   0  0  0  0  0  0  0  0  0  0  0  0
   -4.7883   14.5566  -33.3947 H   0  0  0  0  0  0  0  0  0  0  0  0
   -5.8045   15.8832  -35.2490 H   0  0  0  0  0  0  0  0  0  0  0  0
   -6.9387   18.0515  -34.7602 H   0  0  0  0  0  0  0  0  0  0  0  0
   -5.1737   23.4567  -32.7171 H   0  0  0  0  0  0  0  0  0  0  0  0
   -5.7670   25.7627  -29.3222 H   0  0  0  0  0  0  0  0  0  0  0  0
   -5.7275   26.7297  -30.8354 H   0  0  0  0  0  0  0  0  0  0  0  0
   -6.4643   25.0915  -30.8354 H   0  0  0  0  0  0  0  0  0  0  0  0
  1  2  1  0
  2  3  1  0
  3  4  2  0
  4  5  1  0
  5  6  2  0
  6  7  1  0
  7  8  1  0
  8  9  2  0
  9 10  1  0
 10 11  2  0
 11 12  1  0
 12 13  2  0
 13 14  1  0
 14 15  2  0
 15 16  1  0
 16 17  2  0
 17 18  1  0
 18 19  2  0
  6 20  1  0
 20 21  2  0
 21 22  1  0
 22 23  1  0
 21  3  1  0
 13  8  1  0
 19 14  1  0
  1 24  1  0
  1 25  1  0
  1 26  1  0
  4 27  1  0
  5 28  1  0
  9 29  1  0
 11 30  1  0
 12 31  1  0
 15 32  1  0
 16 33  1  0
 17 34  1  0
 18 35  1  0
 19 36  1  0
 20 37  1  0
 23 38  1  0
 23 39  1  0
 23 40  1  0
M  END
>  <UniqueID>  (38) 
37

>  <SMILES>  (38) 
COc1ccc(Sc2cnccc2-c2ccccc2)cc1OC

>  <Energy>  (38) 
43.94152317163422

>  <Genealogy>  (38) 
COc1ccc(Sc2cnccc2-c2ccccc2)cc1OC (3D coordinates assigned)
COc1ccc(Sc2cnccc2-c2ccccc2)cc1OC (optimized conformer: 43.94152317163422 kcal/mol)

>  <smiles>  (38) 
COc1ccc(Sc2cnccc2-c2ccccc2)cc1OC

>  <score_type>  (38) 
oracle

>  <origin>  (38) 
adgpu

>  <m_score__min__energy>  (38) 
-8.2699999999999996

>  <m_primary>  (38) 
energy

$$$$
38:0
     RDKit          3D

 38 40  0  0  0  0  0  0  0  0999 V2000
   -2.8150   24.8460  -26.9640 C   0  0  0  0  0  0  0  0  0  0  0  0
   -1.9360   25.0750  -28.1880 C   0  0  0  0  0  0  0  0  0  0  0  0
   -2.7340   25.2970  -29.3520 O   0  0  0  0  0  0  0  0  0  0  0  0
   -3.6620   24.3910  -29.8910 C   0  0  0  0  0  0  0  0  0  0  0  0
   -3.5550   22.9970  -29.7210 C   0  0  0  0  0  0  0  0  0  0  0  0
   -4.5100   22.1430  -30.2830 C   0  0  0  0  0  0  0  0  0  0  0  0
   -5.5800   22.6610  -31.0280 C   0  0  0  0  0  0  0  0  0  0  0  0
   -6.5700   21.7720  -31.5790 N   0  0  0  0  0  0  0  0  0  0  0  0
   -6.1470   20.6440  -32.1590 N   0  0  0  0  0  0  0  0  0  0  0  0
   -6.9980   19.7350  -32.7100 C   0  0  0  0  0  0  0  0  0  0  0  0
   -6.4460   18.5020  -33.3290 C   0  0  0  0  0  0  0  0  0  0  0  0
   -6.8950   17.2210  -32.9460 C   0  0  0  0  0  0  0  0  0  0  0  0
   -6.3670   16.0750  -33.5480 C   0  0  0  0  0  0  0  0  0  0  0  0
   -5.3930   16.1900  -34.5410 C   0  0  0  0  0  0  0  0  0  0  0  0
   -4.9460   17.4520  -34.9380 C   0  0  0  0  0  0  0  0  0  0  0  0
   -5.4710   18.6020  -34.3400 C   0  0  0  0  0  0  0  0  0  0  0  0
   -8.3750   19.9870  -32.6550 C   0  0  0  0  0  0  0  0  0  0  0  0
   -8.8280   21.1630  -32.0680 C   0  0  0  0  0  0  0  0  0  0  0  0
   -7.9090   22.0650  -31.5360 C   0  0  0  0  0  0  0  0  0  0  0  0
   -8.3220   23.1490  -31.0400 O   0  0  0  0  0  0  0  0  0  0  0  0
   -5.6960   24.0530  -31.1780 C   0  0  0  0  0  0  0  0  0  0  0  0
   -4.7410   24.9070  -30.6170 C   0  0  0  0  0  0  0  0  0  0  0  0
   -2.2205   25.0009  -26.0515 H   0  0  0  0  0  0  0  0  0  0  0  0
   -3.6558   25.5551  -26.9786 H   0  0  0  0  0  0  0  0  0  0  0  0
   -3.2030   23.8168  -26.9786 H   0  0  0  0  0  0  0  0  0  0  0  0
   -1.2987   25.9546  -28.0147 H   0  0  0  0  0  0  0  0  0  0  0  0
   -1.3177   24.1798  -28.3502 H   0  0  0  0  0  0  0  0  0  0  0  0
   -2.7173   22.5781  -29.1441 H   0  0  0  0  0  0  0  0  0  0  0  0
   -4.4212   21.0560  -30.1395 H   0  0  0  0  0  0  0  0  0  0  0  0
   -7.6663   17.1229  -32.1679 H   0  0  0  0  0  0  0  0  0  0  0  0
   -6.7201   15.0803  -33.2383 H   0  0  0  0  0  0  0  0  0  0  0  0
   -4.9774   15.2864  -35.0110 H   0  0  0  0  0  0  0  0  0  0  0  0
   -4.1799   17.5417  -35.7222 H   0  0  0  0  0  0  0  0  0  0  0  0
   -5.1193   19.5932  -34.6622 H   0  0  0  0  0  0  0  0  0  0  0  0
   -9.0900   19.2623  -33.0717 H   0  0  0  0  0  0  0  0  0  0  0  0
   -9.9055   21.3800  -32.0238 H   0  0  0  0  0  0  0  0  0  0  0  0
   -6.5429   24.4737  -31.7400 H   0  0  0  0  0  0  0  0  0  0  0  0
   -4.8391   25.9948  -30.7478 H   0  0  0  0  0  0  0  0  0  0  0  0
  1  2  1  0
  2  3  1  0
  3  4  1  0
  4  5  2  0
  5  6  1  0
  6  7  2  0
  7  8  1  0
  8  9  1  0
  9 10  2  0
 10 11  1  0
 11 12  2  0
 12 13  1  0
 13 14  2  0
 14 15  1  0
 15 16  2  0
 10 17  1  0
 17 18  2  0
 18 19  1  0
 19 20  2  0
  7 21  1  0
 21 22  2  0
 22  4  1  0
 19  8  1  0
 16 11  1  0
  1 23  1  0
  1 24  1  0
  1 25  1  0
  2 26  1  0
  2 27  1  0
  5 28  1  0
  6 29  1  0
 12 30  1  0
 13 31  1  0
 14 32  1  0
 15 33  1  0
 16 34  1  0
 17 35  1  0
 18 36  1  0
 21 37  1  0
 22 38  1  0
M  END
>  <UniqueID>  (39) 
38

>  <SMILES>  (39) 
CCOc1ccc(-n2nc(-c3ccccc3)ccc2=O)cc1

>  <Energy>  (39) 
50.26765218768567

>  <Genealogy>  (39) 
CCOc1ccc(-n2nc(-c3ccccc3)ccc2=O)cc1 (3D coordinates assigned)
CCOc1ccc(-n2nc(-c3ccccc3)ccc2=O)cc1 (optimized conformer: 50.26765218768567 kcal/mol)

>  <smiles>  (39) 
CCOc1ccc(-n2nc(-c3ccccc3)ccc2=O)cc1

>  <score_type>  (39) 
oracle

>  <origin>  (39) 
adgpu

>  <m_score__min__energy>  (39) 
-8.4900000000000002

>  <m_primary>  (39) 
energy

$$$$
39:0
     RDKit          3D

 37 40  0  0  0  0  0  0  0  0999 V2000
   -5.2870   15.6550  -34.2610 Cl  0  0  0  0  0  0  0  0  0  0  0  0
   -5.9750   17.2090  -33.8220 C   0  0  0  0  0  0  0  0  0  0  0  0
   -5.5520   18.3690  -34.4780 C   0  0  0  0  0  0  0  0  0  0  0  0
   -6.1000   19.6070  -34.1310 C   0  0  0  0  0  0  0  0  0  0  0  0
   -7.0780   19.6930  -33.1300 C   0  0  0  0  0  0  0  0  0  0  0  0
   -7.7730   21.3000  -32.7190 S   0  0  0  0  0  0  0  0  0  0  0  0
   -6.1870   21.9480  -32.1680 C   0  0  0  0  0  0  0  0  0  0  0  0
   -5.0600   21.3070  -32.5720 N   0  0  0  0  0  0  0  0  0  0  0  0
   -3.8220   21.7120  -32.1830 C   0  0  0  0  0  0  0  0  0  0  0  0
   -2.6160   20.9770  -32.6390 C   0  0  0  0  0  0  0  0  0  0  0  0
   -1.3340   21.3580  -32.1970 C   0  0  0  0  0  0  0  0  0  0  0  0
   -0.2000   20.6650  -32.6320 C   0  0  0  0  0  0  0  0  0  0  0  0
   -0.3290   19.5880  -33.5110 C   0  0  0  0  0  0  0  0  0  0  0  0
   -1.5940   19.2010  -33.9570 C   0  0  0  0  0  0  0  0  0  0  0  0
   -2.7330   19.8890  -33.5260 C   0  0  0  0  0  0  0  0  0  0  0  0
   -3.7000   22.7920  -31.3660 N   0  0  0  0  0  0  0  0  0  0  0  0
   -4.7880   23.4790  -30.9340 C   0  0  0  0  0  0  0  0  0  0  0  0
   -4.6240   24.5890  -30.0960 C   0  0  0  0  0  0  0  0  0  0  0  0
   -5.7400   25.3040  -29.6550 C   0  0  0  0  0  0  0  0  0  0  0  0
   -7.0240   24.9170  -30.0520 C   0  0  0  0  0  0  0  0  0  0  0  0
   -7.1980   23.8100  -30.8880 C   0  0  0  0  0  0  0  0  0  0  0  0
   -6.0810   23.0760  -31.3320 C   0  0  0  0  0  0  0  0  0  0  0  0
   -7.4940   18.5240  -32.4630 C   0  0  0  0  0  0  0  0  0  0  0  0
   -8.7000   18.5760  -31.1830 Cl  0  0  0  0  0  0  0  0  0  0  0  0
   -6.9420   17.2880  -32.8150 C   0  0  0  0  0  0  0  0  0  0  0  0
   -4.7881   18.3073  -35.2670 H   0  0  0  0  0  0  0  0  0  0  0  0
   -5.7623   20.5185  -34.6458 H   0  0  0  0  0  0  0  0  0  0  0  0
   -1.2242   22.2061  -31.5052 H   0  0  0  0  0  0  0  0  0  0  0  0
    0.7969   20.9694  -32.2805 H   0  0  0  0  0  0  0  0  0  0  0  0
    0.5650   19.0451  -33.8517 H   0  0  0  0  0  0  0  0  0  0  0  0
   -1.6953   18.3524  -34.6495 H   0  0  0  0  0  0  0  0  0  0  0  0
   -3.7264   19.5785  -33.8820 H   0  0  0  0  0  0  0  0  0  0  0  0
   -3.6153   24.8981  -29.7847 H   0  0  0  0  0  0  0  0  0  0  0  0
   -5.6087   26.1734  -28.9940 H   0  0  0  0  0  0  0  0  0  0  0  0
   -7.8997   25.4854  -29.7054 H   0  0  0  0  0  0  0  0  0  0  0  0
   -8.2098   23.5116  -31.1998 H   0  0  0  0  0  0  0  0  0  0  0  0
   -7.2699   16.3744  -32.2976 H   0  0  0  0  0  0  0  0  0  0  0  0
  1  2  1  0
  2  3  2  0
  3  4  1  0
  4  5  2  0
  5  6  1  0
  6  7  1  0
  7  8  2  0
  8  9  1  0
  9 10  1  0
 10 11  2  0
 11 12  1  0
 12 13  2  0
 13 14  1  0
 14 15  2  0
  9 16  2  0
 16 17  1  0
 17 18  2  0
 18 19  1  0
 19 20  2  0
 20 21  1  0
 21 22  2  0
  5 23  1  0
 23 24  1  0
 23 25  2  0
 25  2  1  0
 22  7  1  0
 15 10  1  0
 22 17  1  0
  3 26  1  0
  4 27  1  0
 11 28  1  0
 12 29  1  0
 13 30  1  0
 14 31  1  0
 15 32  1  0
 18 33  1  0
 19 34  1  0
 20 35  1  0
 21 36  1  0
 25 37  1  0
M  END
>  <UniqueID>  (40) 
39

>  <SMILES>  (40) 
Clc1ccc(Sc2nc(-c3ccccc3)nc3ccccc23)c(Cl)c1

>  <Energy>  (40) 
43.98012139700334

>  <Genealogy>  (40) 
Clc1ccc(Sc2nc(-c3ccccc3)nc3ccccc23)c(Cl)c1 (3D coordinates assigned)
Clc1ccc(Sc2nc(-c3ccccc3)nc3ccccc23)c(Cl)c1 (optimized conformer: 43.98012139700334 kcal/mol)

>  <smiles>  (40) 
Clc1ccc(Sc2nc(-c3ccccc3)nc3ccccc23)c(Cl)c1

>  <score_type>  (40) 
oracle

>  <origin>  (40) 
adgpu

>  <m_score__min__energy>  (40) 
-9.2799999999999994

>  <m_primary>  (40) 
energy

$$$$
40:0
     RDKit          3D

 28 29  0  0  0  0  0  0  0  0999 V2000
   -6.4340   17.0720  -33.5430 C   0  0  0  0  0  0  0  0  0  0  0  0
   -7.0200   18.3280  -32.9700 C   0  0  0  0  0  0  0  0  0  0  0  0
   -8.1350   18.2640  -32.1190 C   0  0  0  0  0  0  0  0  0  0  0  0
   -8.7060   19.4350  -31.6170 C   0  0  0  0  0  0  0  0  0  0  0  0
   -8.1790   20.6880  -31.9670 C   0  0  0  0  0  0  0  0  0  0  0  0
   -8.8160   21.9530  -31.4600 C   0  0  0  0  0  0  0  0  0  0  0  0
   -8.1220   23.4190  -32.3010 S   0  0  0  0  0  0  0  0  0  0  0  0
   -6.7180   23.5740  -31.1970 C   0  0  0  0  0  0  0  0  0  0  0  0
   -5.7810   24.5290  -31.4330 N   0  0  0  0  0  0  0  0  0  0  0  0
   -4.7160   24.6840  -30.6050 C   0  0  0  0  0  0  0  0  0  0  0  0
   -3.8620   25.5790  -30.8400 O   0  0  0  0  0  0  0  0  0  0  0  0
   -4.5730   23.8520  -29.4950 C   0  0  0  0  0  0  0  0  0  0  0  0
   -5.5410   22.8720  -29.2710 C   0  0  0  0  0  0  0  0  0  0  0  0
   -6.5930   22.7480  -30.1220 N   0  0  0  0  0  0  0  0  0  0  0  0
   -7.0780   20.7530  -32.8340 C   0  0  0  0  0  0  0  0  0  0  0  0
   -6.5050   19.5810  -33.3360 C   0  0  0  0  0  0  0  0  0  0  0  0
   -6.1232   16.4059  -32.7247 H   0  0  0  0  0  0  0  0  0  0  0  0
   -7.1884   16.5647  -34.1623 H   0  0  0  0  0  0  0  0  0  0  0  0
   -5.5606   17.3242  -34.1623 H   0  0  0  0  0  0  0  0  0  0  0  0
   -8.5605   17.2869  -31.8466 H   0  0  0  0  0  0  0  0  0  0  0  0
   -9.5737   19.3753  -30.9435 H   0  0  0  0  0  0  0  0  0  0  0  0
   -9.8991   21.9102  -31.6471 H   0  0  0  0  0  0  0  0  0  0  0  0
   -8.6139   22.0392  -30.3822 H   0  0  0  0  0  0  0  0  0  0  0  0
   -3.7178   23.9654  -28.8125 H   0  0  0  0  0  0  0  0  0  0  0  0
   -5.4523   22.1995  -28.4050 H   0  0  0  0  0  0  0  0  0  0  0  0
   -7.3140   22.0130  -29.9430 H   0  0  0  0  0  0  0  0  0  0  0  0
   -6.6636   21.7310  -33.1201 H   0  0  0  0  0  0  0  0  0  0  0  0
   -5.6465   19.6412  -34.0211 H   0  0  0  0  0  0  0  0  0  0  0  0
  1  2  1  0
  2  3  2  0
  3  4  1  0
  4  5  2  0
  5  6  1  0
  6  7  1  0
  7  8  1  0
  8  9  2  0
  9 10  1  0
 10 11  2  0
 10 12  1  0
 12 13  2  0
 13 14  1  0
  5 15  1  0
 15 16  2  0
 16  2  1  0
 14  8  1  0
  1 17  1  0
  1 18  1  0
  1 19  1  0
  3 20  1  0
  4 21  1  0
  6 22  1  0
  6 23  1  0
 12 24  1  0
 13 25  1  0
 14 26  1  0
 15 27  1  0
 16 28  1  0
M  END
>  <UniqueID>  (41) 
40

>  <SMILES>  (41) 
Cc1ccc(CSc2nc(=O)cc[nH]2)cc1

>  <Energy>  (41) 
23.04843631908114

>  <Genealogy>  (41) 
Cc1ccc(CSc2nc(=O)cc[nH]2)cc1 (3D coordinates assigned)
Cc1ccc(CSc2nc(=O)cc[nH]2)cc1 (optimized conformer: 23.04843631908114 kcal/mol)

>  <smiles>  (41) 
Cc1ccc(CSc2nc(=O)cc[nH]2)cc1

>  <score_type>  (41) 
oracle

>  <origin>  (41) 
adgpu

>  <m_score__min__energy>  (41) 
-7.3099999999999996

>  <m_primary>  (41) 
energy

$$$$
41:0
     RDKit          3D

 34 35  0  0  0  0  0  0  0  0999 V2000
   -7.2416   22.5082  -32.1874 H   0  0  0  0  0  0  0  0  0  0  0  0
   -6.3020   22.8140  -31.7040 C   0  0  0  0  0  0  0  0  0  0  0  0
   -6.0900   24.1590  -31.3860 C   0  0  0  0  0  0  0  0  0  0  0  0
   -6.8629   24.9059  -31.6200 H   0  0  0  0  0  0  0  0  0  0  0  0
   -4.8960   24.5590  -30.7700 C   0  0  0  0  0  0  0  0  0  0  0  0
   -4.6790   25.9340  -30.4450 N   0  0  0  0  0  0  0  0  0  0  0  0
   -3.8720   26.4580  -30.8500 H   0  0  0  0  0  0  0  0  0  0  0  0
   -5.3230   26.4380  -29.7960 H   0  0  0  0  0  0  0  0  0  0  0  0
   -3.9160   23.6010  -30.4760 C   0  0  0  0  0  0  0  0  0  0  0  0
   -2.9763   23.9088  -29.9940 H   0  0  0  0  0  0  0  0  0  0  0  0
   -4.1280   22.2550  -30.7930 C   0  0  0  0  0  0  0  0  0  0  0  0
   -3.3554   21.5081  -30.5582 H   0  0  0  0  0  0  0  0  0  0  0  0
   -5.3260   21.8540  -31.4110 C   0  0  0  0  0  0  0  0  0  0  0  0
   -5.5760   20.4850  -31.7500 N   0  0  0  0  0  0  0  0  0  0  0  0
   -5.2560   19.9980  -32.8820 N   0  0  0  0  0  0  0  0  0  0  0  0
   -5.5040   18.6290  -33.2220 C   0  0  0  0  0  0  0  0  0  0  0  0
   -6.7680   18.0440  -33.0500 C   0  0  0  0  0  0  0  0  0  0  0  0
   -7.5968   18.6424  -32.6438 H   0  0  0  0  0  0  0  0  0  0  0  0
   -6.9800   16.7050  -33.3920 C   0  0  0  0  0  0  0  0  0  0  0  0
   -7.9759   16.2593  -33.2525 H   0  0  0  0  0  0  0  0  0  0  0  0
   -5.9310   15.9190  -33.9140 C   0  0  0  0  0  0  0  0  0  0  0  0
   -6.1480   14.5270  -34.2690 N   0  0  0  0  0  0  0  0  0  0  0  0
   -5.0770   13.5370  -34.0960 C   0  0  0  0  0  0  0  0  0  0  0  0
   -4.8993   13.3728  -33.0229 H   0  0  0  0  0  0  0  0  0  0  0  0
   -5.3744   12.5888  -34.5677 H   0  0  0  0  0  0  0  0  0  0  0  0
   -4.1551   13.9079  -34.5677 H   0  0  0  0  0  0  0  0  0  0  0  0
   -7.4410   14.0860  -34.8060 C   0  0  0  0  0  0  0  0  0  0  0  0
   -8.1231   13.8534  -33.9749 H   0  0  0  0  0  0  0  0  0  0  0  0
   -7.8744   14.8871  -35.4227 H   0  0  0  0  0  0  0  0  0  0  0  0
   -7.2945   13.1870  -35.4227 H   0  0  0  0  0  0  0  0  0  0  0  0
   -4.6660   16.5200  -34.0810 C   0  0  0  0  0  0  0  0  0  0  0  0
   -3.8323   15.9277  -34.4861 H   0  0  0  0  0  0  0  0  0  0  0  0
   -4.4590   17.8590  -33.7380 C   0  0  0  0  0  0  0  0  0  0  0  0
   -3.4652   18.3101  -33.8755 H   0  0  0  0  0  0  0  0  0  0  0  0
  1  2  1  0
  2  3  2  0
  3  4  1  0
  3  5  1  0
  5  6  1  0
  6  7  1  0
  6  8  1  0
  5  9  2  0
  9 10  1  0
  9 11  1  0
 11 12  1  0
 11 13  2  0
 13 14  1  0
 14 15  2  0
 15 16  1  0
 16 17  2  0
 17 18  1  0
 17 19  1  0
 19 20  1  0
 19 21  2  0
 21 22  1  0
 22 23  1  0
 23 24  1  0
 23 25  1  0
 23 26  1  0
 22 27  1  0
 27 28  1  0
 27 29  1  0
 27 30  1  0
 21 31  1  0
 31 32  1  0
 31 33  2  0
 33 34  1  0
 13  2  1  0
 33 16  1  0
M  END
>  <UniqueID>  (42) 
41

>  <SMILES>  (42) 
CN(C)c1ccc(/N=N/c2ccc(N)cc2)cc1

>  <Energy>  (42) 
34.87877687027394

>  <Genealogy>  (42) 
CN(C)c1ccc(/N=N/c2ccc(N)cc2)cc1 (cis-trans isomerization)
CN(C)c1ccc(/N=N/c2ccc(N)cc2)cc1 (3D coordinates assigned)
CN(C)c1ccc(/N=N/c2ccc(N)cc2)cc1 (optimized conformer: 34.87877687027394 kcal/mol)

>  <smiles>  (42) 
CN(C)c1ccc(N=Nc2ccc(N)cc2)cc1

>  <score_type>  (42) 
oracle

>  <origin>  (42) 
adgpu

>  <m_score__min__energy>  (42) 
-6.0700000000000003

>  <m_primary>  (42) 
energy

$$$$
42:0
     RDKit          3D

 41 43  0  0  0  0  0  0  0  0999 V2000
   -6.6330   25.3470  -29.7930 C   0  0  0  0  0  0  0  0  0  0  0  0
   -5.3420   25.7810  -30.4770 C   0  0  0  0  0  0  0  0  0  0  0  0
   -4.3030   24.7090  -30.3690 C   0  0  0  0  0  0  0  0  0  0  0  0
   -3.1630   24.9330  -29.6640 N   0  0  0  0  0  0  0  0  0  0  0  0
   -2.2280   23.9600  -29.5200 C   0  0  0  0  0  0  0  0  0  0  0  0
   -2.4270   22.7040  -30.0950 C   0  0  0  0  0  0  0  0  0  0  0  0
   -1.1420   21.3180  -29.7650 Br  0  0  0  0  0  0  0  0  0  0  0  0
   -3.6070   22.4900  -30.8300 C   0  0  0  0  0  0  0  0  0  0  0  0
   -3.9060   21.1970  -31.4640 C   0  0  0  0  0  0  0  0  0  0  0  0
   -4.2220   20.0840  -30.7710 N   0  0  0  0  0  0  0  0  0  0  0  0
   -4.4840   19.1310  -31.6570 N   0  0  0  0  0  0  0  0  0  0  0  0
   -4.3360   19.6800  -32.8790 C   0  0  0  0  0  0  0  0  0  0  0  0
   -4.6420   18.8010  -34.4100 S   0  0  0  0  0  0  0  0  0  0  0  0
   -6.0800   17.9040  -33.7420 C   0  0  0  0  0  0  0  0  0  0  0  0
   -6.9630   18.8600  -32.9950 C   0  0  0  0  0  0  0  0  0  0  0  0
   -7.7670   18.4060  -31.9390 C   0  0  0  0  0  0  0  0  0  0  0  0
   -8.6130   19.2920  -31.2650 C   0  0  0  0  0  0  0  0  0  0  0  0
   -8.6840   20.6380  -31.6550 C   0  0  0  0  0  0  0  0  0  0  0  0
   -9.5630   21.5960  -30.9070 C   0  0  0  0  0  0  0  0  0  0  0  0
   -7.8780   21.0940  -32.7080 C   0  0  0  0  0  0  0  0  0  0  0  0
   -7.0320   20.2080  -33.3830 C   0  0  0  0  0  0  0  0  0  0  0  0
   -3.9770   20.9700  -32.7890 N   0  0  0  0  0  0  0  0  0  0  0  0
   -3.8910   21.9060  -33.8330 N   0  0  0  0  0  0  0  0  0  0  0  0
   -4.5210   23.4910  -30.9310 N   0  0  0  0  0  0  0  0  0  0  0  0
   -6.5024   25.3909  -28.7017 H   0  0  0  0  0  0  0  0  0  0  0  0
   -7.4504   26.0198  -30.0918 H   0  0  0  0  0  0  0  0  0  0  0  0
   -6.8780   24.3171  -30.0918 H   0  0  0  0  0  0  0  0  0  0  0  0
   -5.5454   25.9817  -31.5392 H   0  0  0  0  0  0  0  0  0  0  0  0
   -4.9670   26.6896  -29.9833 H   0  0  0  0  0  0  0  0  0  0  0  0
   -1.3103   24.1619  -28.9482 H   0  0  0  0  0  0  0  0  0  0  0  0
   -6.6466   17.4516  -34.5692 H   0  0  0  0  0  0  0  0  0  0  0  0
   -5.7344   17.1140  -33.0590 H   0  0  0  0  0  0  0  0  0  0  0  0
   -7.7318   17.3481  -31.6398 H   0  0  0  0  0  0  0  0  0  0  0  0
   -9.2257   18.9322  -30.4252 H   0  0  0  0  0  0  0  0  0  0  0  0
   -9.4282   21.4491  -29.8252 H   0  0  0  0  0  0  0  0  0  0  0  0
   -9.2909   22.6279  -31.1736 H   0  0  0  0  0  0  0  0  0  0  0  0
  -10.6145   21.4135  -31.1736 H   0  0  0  0  0  0  0  0  0  0  0  0
   -7.9112   22.1528  -33.0044 H   0  0  0  0  0  0  0  0  0  0  0  0
   -6.4180   20.5686  -34.2214 H   0  0  0  0  0  0  0  0  0  0  0  0
   -3.1120   21.8620  -34.5280 H   0  0  0  0  0  0  0  0  0  0  0  0
   -4.5840   22.6820  -33.9110 H   0  0  0  0  0  0  0  0  0  0  0  0
  1  2  1  0
  2  3  1  0
  3  4  2  0
  4  5  1  0
  5  6  2  0
  6  7  1  0
  6  8  1  0
  8  9  1  0
  9 10  2  0
 10 11  1  0
 11 12  2  0
 12 13  1  0
 13 14  1  0
 14 15  1  0
 15 16  2  0
 16 17  1  0
 17 18  2  0
 18 19  1  0
 18 20  1  0
 20 21  2  0
 12 22  1  0
 22 23  1  0
  8 24  2  0
 24  3  1  0
 22  9  1  0
 21 15  1  0
  1 25  1  0
  1 26  1  0
  1 27  1  0
  2 28  1  0
  2 29  1  0
  5 30  1  0
 14 31  1  0
 14 32  1  0
 16 33  1  0
 17 34  1  0
 19 35  1  0
 19 36  1  0
 19 37  1  0
 20 38  1  0
 21 39  1  0
 23 40  1  0
 23 41  1  0
M  END
>  <UniqueID>  (43) 
42

>  <SMILES>  (43) 
CCc1ncc(Br)c(-c2nnc(SCc3ccc(C)cc3)n2N)n1

>  <Energy>  (43) 
77.4258336838779

>  <Genealogy>  (43) 
CCc1ncc(Br)c(-c2nnc(SCc3ccc(C)cc3)n2N)n1 (3D coordinates assigned)
CCc1ncc(Br)c(-c2nnc(SCc3ccc(C)cc3)n2N)n1 (optimized conformer: 77.4258336838779 kcal/mol)

>  <smiles>  (43) 
CCc1ncc(Br)c(-c2nnc(SCc3ccc(C)cc3)n2N)n1

>  <score_type>  (43) 
oracle

>  <origin>  (43) 
adgpu

>  <m_score__min__energy>  (43) 
-9.4499999999999993

>  <m_primary>  (43) 
energy

$$$$
43:0
     RDKit          3D

 55 57  0  0  0  0  0  0  0  0999 V2000
   -6.6100   17.5750  -33.1120 C   0  0  0  0  0  0  0  0  0  0  0  0
   -6.3140   19.0570  -33.3050 C   0  0  0  0  0  0  0  0  0  0  0  0
   -7.4860   19.9010  -32.8620 C   0  0  0  0  0  0  0  0  0  0  0  0
   -8.7490   19.3020  -32.7090 C   0  0  0  0  0  0  0  0  0  0  0  0
   -9.8370   20.0490  -32.2480 C   0  0  0  0  0  0  0  0  0  0  0  0
   -9.6740   21.3970  -31.9210 C   0  0  0  0  0  0  0  0  0  0  0  0
   -8.4230   22.0020  -32.0530 C   0  0  0  0  0  0  0  0  0  0  0  0
   -7.3270   21.2670  -32.5280 C   0  0  0  0  0  0  0  0  0  0  0  0
   -6.0470   21.9020  -32.6190 N   0  0  0  0  0  0  0  0  0  0  0  0
   -5.3650   22.4580  -31.4840 C   0  0  0  0  0  0  0  0  0  0  0  0
   -6.1640   22.6700  -30.0590 S   0  0  0  0  0  0  0  0  0  0  0  0
   -4.0580   23.0260  -31.6750 N   0  0  0  0  0  0  0  0  0  0  0  0
   -3.0890   23.2250  -30.6320 C   0  0  0  0  0  0  0  0  0  0  0  0
   -1.8110   22.6410  -30.6950 C   0  0  0  0  0  0  0  0  0  0  0  0
   -0.8810   22.8650  -29.6770 C   0  0  0  0  0  0  0  0  0  0  0  0
   -1.2060   23.6880  -28.5940 C   0  0  0  0  0  0  0  0  0  0  0  0
   -0.0390   23.9180  -27.2940 S   0  0  0  0  0  0  0  0  0  0  0  0
    0.9960   24.9070  -27.7450 O   0  0  0  0  0  0  0  0  0  0  0  0
   -0.7070   24.4450  -26.0570 O   0  0  0  0  0  0  0  0  0  0  0  0
    0.7290   22.4070  -26.9300 N   0  0  0  0  0  0  0  0  0  0  0  0
    0.1170   21.1280  -27.1690 C   0  0  0  0  0  0  0  0  0  0  0  0
   -1.1610   20.8150  -26.6700 C   0  0  0  0  0  0  0  0  0  0  0  0
   -1.7480   19.5700  -26.9420 C   0  0  0  0  0  0  0  0  0  0  0  0
   -3.1030   19.2410  -26.3840 C   0  0  0  0  0  0  0  0  0  0  0  0
   -1.0330   18.6120  -27.6760 C   0  0  0  0  0  0  0  0  0  0  0  0
    0.2530   18.9010  -28.1540 C   0  0  0  0  0  0  0  0  0  0  0  0
    0.9980   17.8900  -28.9760 C   0  0  0  0  0  0  0  0  0  0  0  0
    0.8150   20.1640  -27.9100 C   0  0  0  0  0  0  0  0  0  0  0  0
   -2.4640   24.3030  -28.5450 C   0  0  0  0  0  0  0  0  0  0  0  0
   -3.3970   24.0770  -29.5610 C   0  0  0  0  0  0  0  0  0  0  0  0
   -6.6555   17.3472  -32.0368 H   0  0  0  0  0  0  0  0  0  0  0  0
   -7.5749   17.3298  -33.5799 H   0  0  0  0  0  0  0  0  0  0  0  0
   -5.8134   16.9780  -33.5799 H   0  0  0  0  0  0  0  0  0  0  0  0
   -5.4292   19.3283  -32.7104 H   0  0  0  0  0  0  0  0  0  0  0  0
   -6.1297   19.2432  -34.3733 H   0  0  0  0  0  0  0  0  0  0  0  0
   -8.8818   18.2379  -32.9538 H   0  0  0  0  0  0  0  0  0  0  0  0
  -10.8236   19.5741  -32.1426 H   0  0  0  0  0  0  0  0  0  0  0  0
  -10.5321   21.9824  -31.5591 H   0  0  0  0  0  0  0  0  0  0  0  0
   -8.2961   23.0608  -31.7831 H   0  0  0  0  0  0  0  0  0  0  0  0
   -5.5330   21.8280  -33.5260 H   0  0  0  0  0  0  0  0  0  0  0  0
   -3.8040   23.3320  -32.6420 H   0  0  0  0  0  0  0  0  0  0  0  0
   -1.5423   22.0042  -31.5508 H   0  0  0  0  0  0  0  0  0  0  0  0
    0.1109   22.3922  -29.7274 H   0  0  0  0  0  0  0  0  0  0  0  0
    1.7330   22.4440  -26.6410 H   0  0  0  0  0  0  0  0  0  0  0  0
   -1.7045   21.5528  -26.0614 H   0  0  0  0  0  0  0  0  0  0  0  0
   -3.0594   19.2516  -25.2849 H   0  0  0  0  0  0  0  0  0  0  0  0
   -3.8329   19.9880  -26.7292 H   0  0  0  0  0  0  0  0  0  0  0  0
   -3.4091   18.2424  -26.7292 H   0  0  0  0  0  0  0  0  0  0  0  0
   -1.4836   17.6290  -27.8776 H   0  0  0  0  0  0  0  0  0  0  0  0
    1.5169   17.1858  -28.3091 H   0  0  0  0  0  0  0  0  0  0  0  0
    0.2885   17.3388  -29.6107 H   0  0  0  0  0  0  0  0  0  0  0  0
    1.7346   18.4044  -29.6107 H   0  0  0  0  0  0  0  0  0  0  0  0
    1.8143   20.4000  -28.3046 H   0  0  0  0  0  0  0  0  0  0  0  0
   -2.7181   24.9656  -27.7045 H   0  0  0  0  0  0  0  0  0  0  0  0
   -4.3792   24.5705  -29.5205 H   0  0  0  0  0  0  0  0  0  0  0  0
  1  2  1  0
  2  3  1  0
  3  4  2  0
  4  5  1  0
  5  6  2  0
  6  7  1  0
  7  8  2  0
  8  9  1  0
  9 10  1  0
 10 11  2  0
 10 12  1  0
 12 13  1  0
 13 14  2  0
 14 15  1  0
 15 16  2  0
 16 17  1  0
 17 18  2  0
 17 19  2  0
 17 20  1  0
 20 21  1  0
 21 22  2  0
 22 23  1  0
 23 24  1  0
 23 25  2  0
 25 26  1  0
 26 27  1  0
 26 28  2  0
 16 29  1  0
 29 30  2  0
  8  3  1  0
 30 13  1  0
 28 21  1  0
  1 31  1  0
  1 32  1  0
  1 33  1  0
  2 34  1  0
  2 35  1  0
  4 36  1  0
  5 37  1  0
  6 38  1  0
  7 39  1  0
  9 40  1  0
 12 41  1  0
 14 42  1  0
 15 43  1  0
 20 44  1  0
 22 45  1  0
 24 46  1  0
 24 47  1  0
 24 48  1  0
 25 49  1  0
 27 50  1  0
 27 51  1  0
 27 52  1  0
 28 53  1  0
 29 54  1  0
 30 55  1  0
M  END
>  <UniqueID>  (44) 
43

>  <SMILES>  (44) 
CCc1ccccc1NC(=S)Nc1ccc(S(=O)(=O)Nc2cc(C)cc(C)c2)cc1

>  <Energy>  (44) 
67.30760770899094

>  <Genealogy>  (44) 
CCc1ccccc1NC(=S)Nc1ccc(S(=O)(=O)Nc2cc(C)cc(C)c2)cc1 (3D coordinates assigned)
CCc1ccccc1NC(=S)Nc1ccc(S(=O)(=O)Nc2cc(C)cc(C)c2)cc1 (optimized conformer: 67.30760770899094 kcal/mol)

>  <smiles>  (44) 
CCc1ccccc1NC(=S)Nc1ccc(S(=O)(=O)Nc2cc(C)cc(C)c2)cc1

>  <score_type>  (44) 
oracle

>  <origin>  (44) 
adgpu

>  <m_score__min__energy>  (44) 
-10.960000000000001

>  <m_primary>  (44) 
energy

$$$$
44:0
     RDKit          3D

 22 23  0  0  0  0  0  0  0  0999 V2000
   -7.2260   20.0310  -33.7980 N   0  0  0  0  0  0  0  0  0  0  0  0
   -7.3400   20.9020  -32.6690 C   0  0  0  0  0  0  0  0  0  0  0  0
   -8.5690   21.0440  -32.0120 C   0  0  0  0  0  0  0  0  0  0  0  0
   -8.6830   21.9040  -30.9180 C   0  0  0  0  0  0  0  0  0  0  0  0
   -7.5730   22.6220  -30.4690 C   0  0  0  0  0  0  0  0  0  0  0  0
   -6.3270   22.4840  -31.1070 C   0  0  0  0  0  0  0  0  0  0  0  0
   -5.1580   23.2610  -30.6190 C   0  0  0  0  0  0  0  0  0  0  0  0
   -4.9790   24.6200  -30.9360 C   0  0  0  0  0  0  0  0  0  0  0  0
   -3.8860   25.2810  -30.4680 N   0  0  0  0  0  0  0  0  0  0  0  0
   -2.9590   24.6560  -29.6980 C   0  0  0  0  0  0  0  0  0  0  0  0
   -1.9590   25.2910  -29.2750 O   0  0  0  0  0  0  0  0  0  0  0  0
   -3.1240   23.3050  -29.3870 C   0  0  0  0  0  0  0  0  0  0  0  0
   -4.2130   22.6420  -29.8550 N   0  0  0  0  0  0  0  0  0  0  0  0
   -6.2240   21.6230  -32.2180 C   0  0  0  0  0  0  0  0  0  0  0  0
   -6.4320   19.3580  -33.8750 H   0  0  0  0  0  0  0  0  0  0  0  0
   -7.9340   20.0560  -34.5660 H   0  0  0  0  0  0  0  0  0  0  0  0
   -9.4457   20.4771  -32.3585 H   0  0  0  0  0  0  0  0  0  0  0  0
   -9.6511   22.0163  -30.4079 H   0  0  0  0  0  0  0  0  0  0  0  0
   -7.6736   23.3010  -29.6095 H   0  0  0  0  0  0  0  0  0  0  0  0
   -5.7185   25.1449  -31.5586 H   0  0  0  0  0  0  0  0  0  0  0  0
   -2.3791   22.7825  -28.7688 H   0  0  0  0  0  0  0  0  0  0  0  0
   -5.2598   21.5152  -32.7363 H   0  0  0  0  0  0  0  0  0  0  0  0
  1  2  1  0
  2  3  2  0
  3  4  1  0
  4  5  2  0
  5  6  1  0
  6  7  1  0
  7  8  2  0
  8  9  1  0
  9 10  1  0
 10 11  2  0
 10 12  1  0
 12 13  2  0
  6 14  2  0
 14  2  1  0
 13  7  1  0
  1 15  1  0
  1 16  1  0
  3 17  1  0
  4 18  1  0
  5 19  1  0
  8 20  1  0
 12 21  1  0
 14 22  1  0
M  CHG  1   9  -1
M  END
>  <UniqueID>  (45) 
44

>  <SMILES>  (45) 
Nc1cccc(-c2c[n-]c(=O)cn2)c1

>  <Energy>  (45) 
27.9158997732064

>  <Genealogy>  (45) 
Nc1cccc(-c2c[n-]c(=O)cn2)c1 (protonated)
Nc1cccc(-c2c[n-]c(=O)cn2)c1 (3D coordinates assigned)
Nc1cccc(-c2c[n-]c(=O)cn2)c1 (optimized conformer: 27.9158997732064 kcal/mol)

>  <smiles>  (45) 
Nc1cccc(-c2c[nH]c(=O)cn2)c1

>  <score_type>  (45) 
oracle

>  <origin>  (45) 
adgpu

>  <m_score__min__energy>  (45) 
-7.9199999999999999

>  <m_primary>  (45) 
energy

$$$$
45:0
     RDKit          3D

 46 48  0  0  0  0  0  0  0  0999 V2000
   -8.3620   18.2990  -31.6950 C   0  0  0  0  0  0  0  0  0  0  0  0
   -8.6420   19.5520  -32.4710 C   0  0  0  0  0  0  0  0  0  0  0  0
   -9.8360   19.8540  -32.7260 O   0  0  0  0  0  0  0  0  0  0  0  0
   -7.5950   20.4000  -32.9580 N   0  0  0  0  0  0  0  0  0  0  0  0
   -7.0550   21.5470  -32.2890 C   0  0  0  0  0  0  0  0  0  0  0  0
   -7.8570   22.3720  -31.4820 C   0  0  0  0  0  0  0  0  0  0  0  0
   -7.3050   23.4900  -30.8500 C   0  0  0  0  0  0  0  0  0  0  0  0
   -5.9460   23.7920  -31.0160 C   0  0  0  0  0  0  0  0  0  0  0  0
   -5.2010   25.1360  -30.1560 S   0  0  0  0  0  0  0  0  0  0  0  0
   -5.5760   26.4200  -30.8420 O   0  0  0  0  0  0  0  0  0  0  0  0
   -5.6620   25.1910  -28.7260 O   0  0  0  0  0  0  0  0  0  0  0  0
   -3.4780   24.9430  -30.2020 N   0  0  0  0  0  0  0  0  0  0  0  0
   -2.7520   24.0830  -29.3150 C   0  0  0  0  0  0  0  0  0  0  0  0
   -1.7510   24.4700  -28.4410 C   0  0  0  0  0  0  0  0  0  0  0  0
   -1.2370   25.8680  -28.2510 C   0  0  0  0  0  0  0  0  0  0  0  0
   -1.2380   23.3600  -27.8510 N   0  0  0  0  0  0  0  0  0  0  0  0
   -0.1160   23.3210  -26.9090 C   0  0  0  0  0  0  0  0  0  0  0  0
   -1.9030   22.2940  -28.2950 N   0  0  0  0  0  0  0  0  0  0  0  0
   -1.6710   20.9280  -27.9050 C   0  0  0  0  0  0  0  0  0  0  0  0
   -2.6170   20.2460  -27.1290 C   0  0  0  0  0  0  0  0  0  0  0  0
   -2.3810   18.9270  -26.7310 C   0  0  0  0  0  0  0  0  0  0  0  0
   -1.1950   18.2860  -27.0980 C   0  0  0  0  0  0  0  0  0  0  0  0
   -0.2440   18.9630  -27.8650 C   0  0  0  0  0  0  0  0  0  0  0  0
   -0.4780   20.2810  -28.2670 C   0  0  0  0  0  0  0  0  0  0  0  0
   -2.8200   22.7090  -29.1930 C   0  0  0  0  0  0  0  0  0  0  0  0
   -3.6210   21.9440  -29.7920 O   0  0  0  0  0  0  0  0  0  0  0  0
   -5.1560   22.9890  -31.8480 C   0  0  0  0  0  0  0  0  0  0  0  0
   -5.7110   21.8810  -32.4910 C   0  0  0  0  0  0  0  0  0  0  0  0
   -8.4106   18.5163  -30.6178 H   0  0  0  0  0  0  0  0  0  0  0  0
   -9.1116   17.5351  -31.9491 H   0  0  0  0  0  0  0  0  0  0  0  0
   -7.3585   17.9269  -31.9491 H   0  0  0  0  0  0  0  0  0  0  0  0
   -8.9231   22.1371  -31.3472 H   0  0  0  0  0  0  0  0  0  0  0  0
   -7.9378   24.1338  -30.2215 H   0  0  0  0  0  0  0  0  0  0  0  0
   -1.1568   26.0862  -27.1758 H   0  0  0  0  0  0  0  0  0  0  0  0
   -0.2459   25.9610  -28.7190 H   0  0  0  0  0  0  0  0  0  0  0  0
   -1.9318   26.5809  -28.7190 H   0  0  0  0  0  0  0  0  0  0  0  0
   -0.5015   23.3344  -25.8788 H   0  0  0  0  0  0  0  0  0  0  0  0
    0.4666   22.4021  -27.0706 H   0  0  0  0  0  0  0  0  0  0  0  0
    0.5290   24.1973  -27.0706 H   0  0  0  0  0  0  0  0  0  0  0  0
   -3.5485   20.7500  -26.8319 H   0  0  0  0  0  0  0  0  0  0  0  0
   -3.1301   18.3929  -26.1280 H   0  0  0  0  0  0  0  0  0  0  0  0
   -1.0102   17.2484  -26.7830 H   0  0  0  0  0  0  0  0  0  0  0  0
    0.6900   18.4583  -28.1529 H   0  0  0  0  0  0  0  0  0  0  0  0
    0.2740   20.8129  -28.8684 H   0  0  0  0  0  0  0  0  0  0  0  0
   -4.0934   23.2323  -31.9956 H   0  0  0  0  0  0  0  0  0  0  0  0
   -5.0890   21.2676  -33.1595 H   0  0  0  0  0  0  0  0  0  0  0  0
  1  2  1  0
  2  3  2  0
  2  4  1  0
  4  5  1  0
  5  6  2  0
  6  7  1  0
  7  8  2  0
  8  9  1  0
  9 10  2  0
  9 11  2  0
  9 12  1  0
 12 13  1  0
 13 14  2  0
 14 15  1  0
 14 16  1  0
 16 17  1  0
 16 18  1  0
 18 19  1  0
 19 20  2  0
 20 21  1  0
 21 22  2  0
 22 23  1  0
 23 24  2  0
 18 25  1  0
 25 26  2  0
  8 27  1  0
 27 28  2  0
 28  5  1  0
 25 13  1  0
 24 19  1  0
  1 29  1  0
  1 30  1  0
  1 31  1  0
  6 32  1  0
  7 33  1  0
 15 34  1  0
 15 35  1  0
 15 36  1  0
 17 37  1  0
 17 38  1  0
 17 39  1  0
 20 40  1  0
 21 41  1  0
 22 42  1  0
 23 43  1  0
 24 44  1  0
 27 45  1  0
 28 46  1  0
M  CHG  2   4  -1  12  -1
M  END
>  <UniqueID>  (46) 
45

>  <SMILES>  (46) 
CC(=O)[N-]c1ccc(S(=O)(=O)[N-]c2c(C)n(C)n(-c3ccccc3)c2=O)cc1

>  <Energy>  (46) 
94.99922471697256

>  <Genealogy>  (46) 
CC(=O)[N-]c1ccc(S(=O)(=O)[N-]c2c(C)n(C)n(-c3ccccc3)c2=O)cc1 (protonated)
CC(=O)[N-]c1ccc(S(=O)(=O)[N-]c2c(C)n(C)n(-c3ccccc3)c2=O)cc1 (3D coordinates assigned)
CC(=O)[N-]c1ccc(S(=O)(=O)[N-]c2c(C)n(C)n(-c3ccccc3)c2=O)cc1 (optimized conformer: 94.99922471697256 kcal/mol)

>  <smiles>  (46) 
CC(=O)Nc1ccc(S(=O)(=O)Nc2c(C)n(C)n(-c3ccccc3)c2=O)cc1

>  <score_type>  (46) 
oracle

>  <origin>  (46) 
adgpu

>  <m_score__min__energy>  (46) 
-10.300000000000001

>  <m_primary>  (46) 
energy

$$$$
