0:0
     RDKit          3D

 25 26  0  0  0  0  0  0  0  0999 V2000
   -8.4510   19.8920  -31.5420 C   0  0  0  0  0  0  0  0  0  0  0  0
   -8.0340   20.7700  -32.7190 C   0  0  0  0  0  0  0  0  0  0  0  0
   -7.0330   21.7760  -32.2950 N   0  0  0  0  0  0  0  0  0  0  0  0
   -7.4860   22.9690  -31.7820 C   0  0  0  0  0  0  0  0  0  0  0  0
   -8.7220   23.1840  -31.6400 O   0  0  0  0  0  0  0  0  0  0  0  0
   -6.5990   23.9700  -31.4040 C   0  0  0  0  0  0  0  0  0  0  0  0
   -5.2300   23.7840  -31.5200 C   0  0  0  0  0  0  0  0  0  0  0  0
   -4.4080   24.8500  -31.1370 O   0  0  0  0  0  0  0  0  0  0  0  0
   -4.7370   22.5510  -32.0030 C   0  0  0  0  0  0  0  0  0  0  0  0
   -3.3520   22.2960  -32.1130 C   0  0  0  0  0  0  0  0  0  0  0  0
   -2.8870   21.0650  -32.5680 C   0  0  0  0  0  0  0  0  0  0  0  0
   -3.7850   20.0630  -32.9140 C   0  0  0  0  0  0  0  0  0  0  0  0
   -5.1570   20.2870  -32.8190 C   0  0  0  0  0  0  0  0  0  0  0  0
   -5.6690   21.5330  -32.3780 C   0  0  0  0  0  0  0  0  0  0  0  0
   -8.2081   20.4034  -30.5989 H   0  0  0  0  0  0  0  0  0  0  0  0
   -9.5340   19.7052  -31.5895 H   0  0  0  0  0  0  0  0  0  0  0  0
   -7.9114   18.9346  -31.5895 H   0  0  0  0  0  0  0  0  0  0  0  0
   -7.5979   20.1362  -33.5052 H   0  0  0  0  0  0  0  0  0  0  0  0
   -8.9224   21.2949  -33.0999 H   0  0  0  0  0  0  0  0  0  0  0  0
   -6.9874   24.9201  -31.0085 H   0  0  0  0  0  0  0  0  0  0  0  0
   -4.2360   25.6760  -31.6910 H   0  0  0  0  0  0  0  0  0  0  0  0
   -2.6318   23.0798  -31.8357 H   0  0  0  0  0  0  0  0  0  0  0  0
   -1.8052   20.8852  -32.6538 H   0  0  0  0  0  0  0  0  0  0  0  0
   -3.4116   19.0894  -33.2642 H   0  0  0  0  0  0  0  0  0  0  0  0
   -5.8556   19.4821  -33.0912 H   0  0  0  0  0  0  0  0  0  0  0  0
  1  2  1  0
  2  3  1  0
  3  4  1  0
  4  5  2  0
  4  6  1  0
  6  7  2  0
  7  8  1  0
  7  9  1  0
  9 10  2  0
 10 11  1  0
 11 12  2  0
 12 13  1  0
 13 14  2  0
 14  3  1  0
 14  9  1  0
  1 15  1  0
  1 16  1  0
  1 17  1  0
  2 18  1  0
  2 19  1  0
  6 20  1  0
  8 21  1  0
 10 22  1  0
 11 23  1  0
 12 24  1  0
 13 25  1  0
M  END
>  <UniqueID>  (1) 
1

>  <SMILES>  (1) 
CCn1c(=O)cc(O)c2ccccc21

>  <Energy>  (1) 
37.12125512205229

>  <Genealogy>  (1) 
CCn1c(=O)cc(O)c2ccccc21 (3D coordinates assigned)
CCn1c(=O)cc(O)c2ccccc21 (optimized conformer: 37.12125512205229 kcal/mol)

>  <smiles>  (1) 
CCn1c(=O)cc(O)c2ccccc21

>  <score_type>  (1) 
oracle

>  <origin>  (1) 
adgpu

>  <m_score__min__energy>  (1) 
-6.1900000000000004

>  <m_primary>  (1) 
energy

$$$$
1:0
     RDKit          3D

 34 36  0  0  0  0  0  0  0  0999 V2000
   -4.1860   20.8070  -33.0220 C   0  0  0  0  0  0  0  0  0  0  0  0
   -5.1280   20.7360  -31.9560 O   0  0  0  0  0  0  0  0  0  0  0  0
   -6.2980   21.5080  -31.8670 C   0  0  0  0  0  0  0  0  0  0  0  0
   -7.5400   21.0070  -32.3090 C   0  0  0  0  0  0  0  0  0  0  0  0
   -8.6960   21.7800  -32.2060 C   0  0  0  0  0  0  0  0  0  0  0  0
   -8.6340   23.0610  -31.6600 C   0  0  0  0  0  0  0  0  0  0  0  0
   -7.4140   23.5740  -31.2190 C   0  0  0  0  0  0  0  0  0  0  0  0
   -6.2340   22.8130  -31.3170 C   0  0  0  0  0  0  0  0  0  0  0  0
   -4.9560   23.3990  -30.8400 C   0  0  0  0  0  0  0  0  0  0  0  0
   -4.6180   24.6940  -31.0110 N   0  0  0  0  0  0  0  0  0  0  0  0
   -3.4450   24.8120  -30.4690 O   0  0  0  0  0  0  0  0  0  0  0  0
   -3.0610   23.6570  -29.9830 C   0  0  0  0  0  0  0  0  0  0  0  0
   -1.7700   23.4360  -29.2940 C   0  0  0  0  0  0  0  0  0  0  0  0
   -1.2970   22.1250  -29.1200 C   0  0  0  0  0  0  0  0  0  0  0  0
   -0.0810   21.8930  -28.4750 C   0  0  0  0  0  0  0  0  0  0  0  0
    0.6590   22.9740  -28.0050 C   0  0  0  0  0  0  0  0  0  0  0  0
    0.1950   24.2390  -28.1740 N   0  0  0  0  0  0  0  0  0  0  0  0
   -0.9870   24.5030  -28.7980 C   0  0  0  0  0  0  0  0  0  0  0  0
   -1.4210   25.8260  -28.9400 O   0  0  0  0  0  0  0  0  0  0  0  0
   -0.8890   26.9000  -28.1750 C   0  0  0  0  0  0  0  0  0  0  0  0
   -3.9940   22.7070  -30.1920 N   0  0  0  0  0  0  0  0  0  0  0  0
   -3.1695   20.8836  -32.6086 H   0  0  0  0  0  0  0  0  0  0  0  0
   -4.2630   19.9005  -33.6403 H   0  0  0  0  0  0  0  0  0  0  0  0
   -4.3980   21.6917  -33.6403 H   0  0  0  0  0  0  0  0  0  0  0  0
   -7.5974   19.9963  -32.7393 H   0  0  0  0  0  0  0  0  0  0  0  0
   -9.6583   21.3783  -32.5562 H   0  0  0  0  0  0  0  0  0  0  0  0
   -9.5477   23.6678  -31.5768 H   0  0  0  0  0  0  0  0  0  0  0  0
   -7.3737   24.5858  -30.7893 H   0  0  0  0  0  0  0  0  0  0  0  0
   -1.8882   21.2762  -29.4942 H   0  0  0  0  0  0  0  0  0  0  0  0
    0.2887   20.8659  -28.3395 H   0  0  0  0  0  0  0  0  0  0  0  0
    1.6196   22.8037  -27.4967 H   0  0  0  0  0  0  0  0  0  0  0  0
   -0.9995   26.6770  -27.1035 H   0  0  0  0  0  0  0  0  0  0  0  0
    0.1768   27.0283  -28.4148 H   0  0  0  0  0  0  0  0  0  0  0  0
   -1.4328   27.8256  -28.4148 H   0  0  0  0  0  0  0  0  0  0  0  0
  1  2  1  0
  2  3  1  0
  3  4  2  0
  4  5  1  0
  5  6  2  0
  6  7  1  0
  7  8  2  0
  8  9  1  0
  9 10  2  0
 10 11  1  0
 11 12  1  0
 12 13  1  0
 13 14  2  0
 14 15  1  0
 15 16  2  0
 16 17  1  0
 17 18  2  0
 18 19  1  0
 19 20  1  0
 12 21  2  0
  8  3  1  0
 21  9  1  0
 18 13  1  0
  1 22  1  0
  1 23  1  0
  1 24  1  0
  4 25  1  0
  5 26  1  0
  6 27  1  0
  7 28  1  0
 14 29  1  0
 15 30  1  0
 16 31  1  0
 20 32  1  0
 20 33  1  0
 20 34  1  0
M  END
>  <UniqueID>  (2) 
2

>  <SMILES>  (2) 
COc1ccccc1-c1noc(-c2cccnc2OC)n1

>  <Energy>  (2) 
70.61957203789858

>  <Genealogy>  (2) 
COc1ccccc1-c1noc(-c2cccnc2OC)n1 (3D coordinates assigned)
COc1ccccc1-c1noc(-c2cccnc2OC)n1 (optimized conformer: 70.61957203789858 kcal/mol)

>  <smiles>  (2) 
COc1ccccc1-c1noc(-c2cccnc2OC)n1

>  <score_type>  (2) 
oracle

>  <origin>  (2) 
adgpu

>  <m_score__min__energy>  (2) 
-7.7800000000000002

>  <m_primary>  (2) 
energy

$$$$
2:0
     RDKit          3D

 39 41  0  0  0  0  0  0  0  0999 V2000
   -3.9890   22.1320  -33.4150 N   0  0  0  0  0  0  0  0  0  0  0  0
   -4.7990   20.6980  -32.8800 S   0  0  0  0  0  0  0  0  0  0  0  0
   -3.9780   20.0860  -31.7790 O   0  0  0  0  0  0  0  0  0  0  0  0
   -4.8930   19.7140  -34.0100 O   0  0  0  0  0  0  0  0  0  0  0  0
   -6.4260   21.0750  -32.2740 C   0  0  0  0  0  0  0  0  0  0  0  0
   -7.5150   20.3280  -32.7550 C   0  0  0  0  0  0  0  0  0  0  0  0
   -8.8050   20.5600  -32.2740 C   0  0  0  0  0  0  0  0  0  0  0  0
   -9.0260   21.5350  -31.3040 C   0  0  0  0  0  0  0  0  0  0  0  0
   -7.9590   22.2920  -30.8190 C   0  0  0  0  0  0  0  0  0  0  0  0
   -6.6560   22.0810  -31.3010 C   0  0  0  0  0  0  0  0  0  0  0  0
   -5.5690   22.9220  -30.7690 C   0  0  0  0  0  0  0  0  0  0  0  0
   -5.6020   24.3140  -30.9360 C   0  0  0  0  0  0  0  0  0  0  0  0
   -4.5550   25.1050  -30.4560 C   0  0  0  0  0  0  0  0  0  0  0  0
   -3.4630   24.5110  -29.8010 C   0  0  0  0  0  0  0  0  0  0  0  0
   -2.3620   25.2930  -29.3170 N   0  0  0  0  0  0  0  0  0  0  0  0
   -1.2270   24.7880  -28.5980 C   0  0  0  0  0  0  0  0  0  0  0  0
   -0.3020   24.2310  -29.2470 O   0  0  0  0  0  0  0  0  0  0  0  0
   -1.0930   24.9460  -27.1310 C   0  0  0  0  0  0  0  0  0  0  0  0
   -0.4580   23.9560  -26.3660 C   0  0  0  0  0  0  0  0  0  0  0  0
   -0.3350   24.1080  -24.9830 C   0  0  0  0  0  0  0  0  0  0  0  0
   -0.8400   25.2580  -24.3750 C   0  0  0  0  0  0  0  0  0  0  0  0
   -1.4380   26.2190  -25.1270 N   0  0  0  0  0  0  0  0  0  0  0  0
   -1.5710   26.0940  -26.4740 C   0  0  0  0  0  0  0  0  0  0  0  0
   -3.4620   23.1280  -29.5810 C   0  0  0  0  0  0  0  0  0  0  0  0
   -4.5070   22.3360  -30.0640 C   0  0  0  0  0  0  0  0  0  0  0  0
   -3.3740   21.8700  -34.2170 H   0  0  0  0  0  0  0  0  0  0  0  0
   -4.7160   22.7870  -33.7800 H   0  0  0  0  0  0  0  0  0  0  0  0
   -7.3494   19.5530  -33.5179 H   0  0  0  0  0  0  0  0  0  0  0  0
   -9.6492   19.9712  -32.6621 H   0  0  0  0  0  0  0  0  0  0  0  0
  -10.0422   21.7082  -30.9202 H   0  0  0  0  0  0  0  0  0  0  0  0
   -8.1393   23.0605  -30.0529 H   0  0  0  0  0  0  0  0  0  0  0  0
   -6.4550   24.7847  -31.4466 H   0  0  0  0  0  0  0  0  0  0  0  0
   -4.5857   26.1962  -30.5913 H   0  0  0  0  0  0  0  0  0  0  0  0
   -0.0558   23.0575  -26.8568 H   0  0  0  0  0  0  0  0  0  0  0  0
    0.1547   23.3295  -24.3796 H   0  0  0  0  0  0  0  0  0  0  0  0
   -0.7539   25.3868  -23.2860 H   0  0  0  0  0  0  0  0  0  0  0  0
   -2.0548   26.8945  -27.0529 H   0  0  0  0  0  0  0  0  0  0  0  0
   -2.6345   22.6628  -29.0252 H   0  0  0  0  0  0  0  0  0  0  0  0
   -4.4969   21.2497  -29.8909 H   0  0  0  0  0  0  0  0  0  0  0  0
  1  2  1  0
  2  3  2  0
  2  4  2  0
  2  5  1  0
  5  6  2  0
  6  7  1  0
  7  8  2  0
  8  9  1  0
  9 10  2  0
 10 11  1  0
 11 12  2  0
 12 13  1  0
 13 14  2  0
 14 15  1  0
 15 16  1  0
 16 17  2  0
 16 18  1  0
 18 19  2  0
 19 20  1  0
 20 21  2  0
 21 22  1  0
 22 23  2  0
 14 24  1  0
 24 25  2  0
 10  5  1  0
 25 11  1  0
 23 18  1  0
  1 26  1  0
  1 27  1  0
  6 28  1  0
  7 29  1  0
  8 30  1  0
  9 31  1  0
 12 32  1  0
 13 33  1  0
 19 34  1  0
 20 35  1  0
 21 36  1  0
 23 37  1  0
 24 38  1  0
 25 39  1  0
M  CHG  1  15  -1
M  END
>  <UniqueID>  (3) 
3

>  <SMILES>  (3) 
NS(=O)(=O)c1ccccc1-c1ccc([N-]C(=O)c2cccnc2)cc1

>  <Energy>  (3) 
56.38059569118911

>  <Genealogy>  (3) 
NS(=O)(=O)c1ccccc1-c1ccc([N-]C(=O)c2cccnc2)cc1 (protonated)
NS(=O)(=O)c1ccccc1-c1ccc([N-]C(=O)c2cccnc2)cc1 (3D coordinates assigned)
NS(=O)(=O)c1ccccc1-c1ccc([N-]C(=O)c2cccnc2)cc1 (optimized conformer: 56.38059569118911 kcal/mol)

>  <smiles>  (3) 
NS(=O)(=O)c1ccccc1-c1ccc(NC(=O)c2cccnc2)cc1

>  <score_type>  (3) 
oracle

>  <origin>  (3) 
adgpu

>  <m_score__min__energy>  (3) 
-11.130000000000001

>  <m_primary>  (3) 
energy

$$$$
3:0
     RDKit          3D

 36 37  0  0  0  0  0  0  0  0999 V2000
   -2.2270   24.9230  -28.0550 C   0  0  0  0  0  0  0  0  0  0  0  0
   -2.7330   25.2260  -29.3510 O   0  0  0  0  0  0  0  0  0  0  0  0
   -3.7920   24.5430  -29.9710 C   0  0  0  0  0  0  0  0  0  0  0  0
   -5.0730   25.1090  -30.1010 C   0  0  0  0  0  0  0  0  0  0  0  0
   -6.1010   24.3970  -30.7240 C   0  0  0  0  0  0  0  0  0  0  0  0
   -5.8760   23.1020  -31.2120 C   0  0  0  0  0  0  0  0  0  0  0  0
   -6.9460   22.4000  -31.8650 N   0  0  0  0  0  0  0  0  0  0  0  0
   -8.1420   21.9580  -31.2020 C   0  0  0  0  0  0  0  0  0  0  0  0
   -8.3860   22.3050  -30.0150 O   0  0  0  0  0  0  0  0  0  0  0  0
   -9.1300   21.1020  -31.9360 C   0  0  0  0  0  0  0  0  0  0  0  0
   -8.4950   20.4090  -33.0110 O   0  0  0  0  0  0  0  0  0  0  0  0
   -7.6130   19.3250  -32.8700 C   0  0  0  0  0  0  0  0  0  0  0  0
   -8.0050   18.0840  -32.3340 C   0  0  0  0  0  0  0  0  0  0  0  0
   -7.1310   17.0880  -32.2250 O   0  0  0  0  0  0  0  0  0  0  0  0
   -5.8620   17.2000  -32.6050 C   0  0  0  0  0  0  0  0  0  0  0  0
   -4.9390   16.0350  -32.4520 C   0  0  0  0  0  0  0  0  0  0  0  0
   -5.3940   18.4050  -33.1440 C   0  0  0  0  0  0  0  0  0  0  0  0
   -6.2820   19.4730  -33.2750 C   0  0  0  0  0  0  0  0  0  0  0  0
   -5.8820   20.5660  -33.7580 O   0  0  0  0  0  0  0  0  0  0  0  0
   -4.5910   22.5440  -31.1030 C   0  0  0  0  0  0  0  0  0  0  0  0
   -3.5590   23.2570  -30.4810 C   0  0  0  0  0  0  0  0  0  0  0  0
   -1.9650   22.5260  -30.3590 Cl  0  0  0  0  0  0  0  0  0  0  0  0
   -2.9065   25.3299  -27.2917 H   0  0  0  0  0  0  0  0  0  0  0  0
   -2.1532   23.8319  -27.9360 H   0  0  0  0  0  0  0  0  0  0  0  0
   -1.2304   25.3731  -27.9360 H   0  0  0  0  0  0  0  0  0  0  0  0
   -5.2667   26.1186  -29.7097 H   0  0  0  0  0  0  0  0  0  0  0  0
   -7.0947   24.8560  -30.8325 H   0  0  0  0  0  0  0  0  0  0  0  0
   -6.8970   22.2900  -32.9040 H   0  0  0  0  0  0  0  0  0  0  0  0
   -9.5615   20.3691  -31.2384 H   0  0  0  0  0  0  0  0  0  0  0  0
   -9.9202   21.7469  -32.3480 H   0  0  0  0  0  0  0  0  0  0  0  0
   -9.0435   17.9369  -32.0024 H   0  0  0  0  0  0  0  0  0  0  0  0
   -4.7784   15.8324  -31.3828 H   0  0  0  0  0  0  0  0  0  0  0  0
   -5.3835   15.1497  -32.9303 H   0  0  0  0  0  0  0  0  0  0  0  0
   -3.9755   16.2652  -32.9303 H   0  0  0  0  0  0  0  0  0  0  0  0
   -4.3449   18.5075  -33.4585 H   0  0  0  0  0  0  0  0  0  0  0  0
   -4.3946   21.5407  -31.5089 H   0  0  0  0  0  0  0  0  0  0  0  0
  1  2  1  0
  2  3  1  0
  3  4  2  0
  4  5  1  0
  5  6  2  0
  6  7  1  0
  7  8  1  0
  8  9  2  0
  8 10  1  0
 10 11  1  0
 11 12  1  0
 12 13  2  0
 13 14  1  0
 14 15  1  0
 15 16  1  0
 15 17  2  0
 17 18  1  0
 18 19  2  0
  6 20  1  0
 20 21  2  0
 21 22  1  0
 21  3  1  0
 18 12  1  0
  1 23  1  0
  1 24  1  0
  1 25  1  0
  4 26  1  0
  5 27  1  0
  7 28  1  0
 10 29  1  0
 10 30  1  0
 13 31  1  0
 16 32  1  0
 16 33  1  0
 16 34  1  0
 17 35  1  0
 20 36  1  0
M  END
>  <UniqueID>  (4) 
4

>  <SMILES>  (4) 
COc1ccc(NC(=O)COc2coc(C)cc2=O)cc1Cl

>  <Energy>  (4) 
39.10747035173004

>  <Genealogy>  (4) 
COc1ccc(NC(=O)COc2coc(C)cc2=O)cc1Cl (3D coordinates assigned)
COc1ccc(NC(=O)COc2coc(C)cc2=O)cc1Cl (optimized conformer: 39.10747035173004 kcal/mol)

>  <smiles>  (4) 
COc1ccc(NC(=O)COc2coc(C)cc2=O)cc1Cl

>  <score_type>  (4) 
oracle

>  <origin>  (4) 
adgpu

>  <m_score__min__energy>  (4) 
-7.0899999999999999

>  <m_primary>  (4) 
energy

$$$$
4:0
     RDKit          3D

 35 37  0  0  0  0  0  0  0  0999 V2000
   -1.4490   25.8870  -28.9660 N   0  0  0  0  0  0  0  0  0  0  0  0
   -2.0750   24.6860  -28.5180 C   0  0  0  0  0  0  0  0  0  0  0  0
   -2.0530   24.4160  -27.2870 O   0  0  0  0  0  0  0  0  0  0  0  0
   -2.7470   23.7680  -29.4780 C   0  0  0  0  0  0  0  0  0  0  0  0
   -2.3110   22.4330  -29.6190 C   0  0  0  0  0  0  0  0  0  0  0  0
   -1.2810   21.9480  -28.8780 F   0  0  0  0  0  0  0  0  0  0  0  0
   -2.9420   21.5720  -30.5190 C   0  0  0  0  0  0  0  0  0  0  0  0
   -4.0110   22.0180  -31.2920 C   0  0  0  0  0  0  0  0  0  0  0  0
   -4.4620   23.3450  -31.1770 C   0  0  0  0  0  0  0  0  0  0  0  0
   -5.5300   23.8450  -31.9400 O   0  0  0  0  0  0  0  0  0  0  0  0
   -6.9050   23.8100  -31.5590 C   0  0  0  0  0  0  0  0  0  0  0  0
   -7.4920   22.4580  -31.8190 C   0  0  0  0  0  0  0  0  0  0  0  0
   -6.7980   21.4320  -32.3550 N   0  0  0  0  0  0  0  0  0  0  0  0
   -7.5660   20.3210  -32.5290 C   0  0  0  0  0  0  0  0  0  0  0  0
   -6.9980   19.0710  -33.1000 C   0  0  0  0  0  0  0  0  0  0  0  0
   -7.4120   17.8200  -32.5970 C   0  0  0  0  0  0  0  0  0  0  0  0
   -6.8910   16.6340  -33.1230 C   0  0  0  0  0  0  0  0  0  0  0  0
   -5.9540   16.6780  -34.1560 C   0  0  0  0  0  0  0  0  0  0  0  0
   -5.5370   17.9070  -34.6690 C   0  0  0  0  0  0  0  0  0  0  0  0
   -6.0540   19.0980  -34.1480 C   0  0  0  0  0  0  0  0  0  0  0  0
   -8.9010   20.4780  -32.1420 C   0  0  0  0  0  0  0  0  0  0  0  0
   -9.0990   22.0470  -31.5680 S   0  0  0  0  0  0  0  0  0  0  0  0
   -3.8320   24.2100  -30.2700 C   0  0  0  0  0  0  0  0  0  0  0  0
   -4.2800   25.4900  -30.1900 F   0  0  0  0  0  0  0  0  0  0  0  0
   -1.2250   26.0310  -29.9760 H   0  0  0  0  0  0  0  0  0  0  0  0
   -2.5922   20.5338  -30.6182 H   0  0  0  0  0  0  0  0  0  0  0  0
   -4.5041   21.3302  -31.9947 H   0  0  0  0  0  0  0  0  0  0  0  0
   -6.9884   24.0396  -30.4865 H   0  0  0  0  0  0  0  0  0  0  0  0
   -7.4555   24.5546  -32.1528 H   0  0  0  0  0  0  0  0  0  0  0  0
   -8.1513   17.7771  -31.7837 H   0  0  0  0  0  0  0  0  0  0  0  0
   -7.2204   15.6642  -32.7217 H   0  0  0  0  0  0  0  0  0  0  0  0
   -5.5438   15.7434  -34.5662 H   0  0  0  0  0  0  0  0  0  0  0  0
   -4.8000   17.9394  -35.4850 H   0  0  0  0  0  0  0  0  0  0  0  0
   -5.7219   20.0629  -34.5587 H   0  0  0  0  0  0  0  0  0  0  0  0
   -9.6853   19.7091  -32.2025 H   0  0  0  0  0  0  0  0  0  0  0  0
  1  2  1  0
  2  3  2  0
  2  4  1  0
  4  5  2  0
  5  6  1  0
  5  7  1  0
  7  8  2  0
  8  9  1  0
  9 10  1  0
 10 11  1  0
 11 12  1  0
 12 13  2  0
 13 14  1  0
 14 15  1  0
 15 16  2  0
 16 17  1  0
 17 18  2  0
 18 19  1  0
 19 20  2  0
 14 21  2  0
 21 22  1  0
  9 23  2  0
 23 24  1  0
 23  4  1  0
 22 12  1  0
 20 15  1  0
  1 25  1  0
  7 26  1  0
  8 27  1  0
 11 28  1  0
 11 29  1  0
 16 30  1  0
 17 31  1  0
 18 32  1  0
 19 33  1  0
 20 34  1  0
 21 35  1  0
M  CHG  1   1  -1
M  END
>  <UniqueID>  (5) 
5

>  <SMILES>  (5) 
[NH-]C(=O)c1c(F)ccc(OCc2nc(-c3ccccc3)cs2)c1F

>  <Energy>  (5) 
71.56637621941722

>  <Genealogy>  (5) 
[NH-]C(=O)c1c(F)ccc(OCc2nc(-c3ccccc3)cs2)c1F (protonated)
[NH-]C(=O)c1c(F)ccc(OCc2nc(-c3ccccc3)cs2)c1F (3D coordinates assigned)
[NH-]C(=O)c1c(F)ccc(OCc2nc(-c3ccccc3)cs2)c1F (optimized conformer: 71.56637621941722 kcal/mol)

>  <smiles>  (5) 
NC(=O)c1c(F)ccc(OCc2nc(-c3ccccc3)cs2)c1F

>  <score_type>  (5) 
oracle

>  <origin>  (5) 
adgpu

>  <m_score__min__energy>  (5) 
-10.800000000000001

>  <m_primary>  (5) 
energy

$$$$
5:0
     RDKit          3D

 35 37  0  0  0  0  0  0  0  0999 V2000
   -9.1240   18.9490  -32.0180 C   0  0  0  0  0  0  0  0  0  0  0  0
   -7.7980   18.6850  -31.5670 O   0  0  0  0  0  0  0  0  0  0  0  0
   -6.6530   19.3250  -32.0600 C   0  0  0  0  0  0  0  0  0  0  0  0
   -5.8440   18.6350  -32.9680 C   0  0  0  0  0  0  0  0  0  0  0  0
   -4.6830   19.2230  -33.4770 C   0  0  0  0  0  0  0  0  0  0  0  0
   -4.3100   20.5210  -33.0830 C   0  0  0  0  0  0  0  0  0  0  0  0
   -3.1340   21.1310  -33.5470 O   0  0  0  0  0  0  0  0  0  0  0  0
   -1.9970   20.4260  -34.0310 C   0  0  0  0  0  0  0  0  0  0  0  0
   -5.1290   21.2270  -32.1830 C   0  0  0  0  0  0  0  0  0  0  0  0
   -4.7710   22.5550  -31.7610 N   0  0  0  0  0  0  0  0  0  0  0  0
   -3.7460   22.9390  -30.9640 C   0  0  0  0  0  0  0  0  0  0  0  0
   -2.6470   22.0700  -30.4850 C   0  0  0  0  0  0  0  0  0  0  0  0
   -2.7860   21.3720  -29.2760 C   0  0  0  0  0  0  0  0  0  0  0  0
   -1.7460   20.5560  -28.8270 C   0  0  0  0  0  0  0  0  0  0  0  0
   -0.6010   20.4500  -29.5490 N   0  0  0  0  0  0  0  0  0  0  0  0
   -0.4290   21.1270  -30.7140 C   0  0  0  0  0  0  0  0  0  0  0  0
   -1.4450   21.9550  -31.2010 C   0  0  0  0  0  0  0  0  0  0  0  0
   -3.8470   24.2430  -30.6350 N   0  0  0  0  0  0  0  0  0  0  0  0
   -4.9420   24.7110  -31.2160 N   0  0  0  0  0  0  0  0  0  0  0  0
   -5.4930   23.6870  -31.8900 C   0  0  0  0  0  0  0  0  0  0  0  0
   -6.9380   23.7990  -32.6570 S   0  0  0  0  0  0  0  0  0  0  0  0
   -6.2910   20.6280  -31.6740 C   0  0  0  0  0  0  0  0  0  0  0  0
   -9.7870   19.0810  -31.1502 H   0  0  0  0  0  0  0  0  0  0  0  0
   -9.1288   19.8657  -32.6259 H   0  0  0  0  0  0  0  0  0  0  0  0
   -9.4796   18.1040  -32.6259 H   0  0  0  0  0  0  0  0  0  0  0  0
   -6.1242   17.6195  -33.2847 H   0  0  0  0  0  0  0  0  0  0  0  0
   -4.0567   18.6673  -34.1904 H   0  0  0  0  0  0  0  0  0  0  0  0
   -1.4041   20.0584  -33.1805 H   0  0  0  0  0  0  0  0  0  0  0  0
   -2.3272   19.5739  -34.6434 H   0  0  0  0  0  0  0  0  0  0  0  0
   -1.3806   21.1006  -34.6434 H   0  0  0  0  0  0  0  0  0  0  0  0
   -3.7090   21.4671  -28.6853 H   0  0  0  0  0  0  0  0  0  0  0  0
   -1.8545   19.9974  -27.8856 H   0  0  0  0  0  0  0  0  0  0  0  0
    0.5113   21.0236  -31.2753 H   0  0  0  0  0  0  0  0  0  0  0  0
   -1.3034   22.5124  -32.1387 H   0  0  0  0  0  0  0  0  0  0  0  0
   -6.9248   21.1826  -30.9664 H   0  0  0  0  0  0  0  0  0  0  0  0
  1  2  1  0
  2  3  1  0
  3  4  2  0
  4  5  1  0
  5  6  2  0
  6  7  1  0
  7  8  1  0
  6  9  1  0
  9 10  1  0
 10 11  1  0
 11 12  1  0
 12 13  2  0
 13 14  1  0
 14 15  2  0
 15 16  1  0
 16 17  2  0
 11 18  2  0
 18 19  1  0
 19 20  1  0
 20 21  2  0
  9 22  2  0
 22  3  1  0
 20 10  1  0
 17 12  1  0
  1 23  1  0
  1 24  1  0
  1 25  1  0
  4 26  1  0
  5 27  1  0
  8 28  1  0
  8 29  1  0
  8 30  1  0
 13 31  1  0
 14 32  1  0
 16 33  1  0
 17 34  1  0
 22 35  1  0
M  CHG  1  19  -1
M  END
>  <UniqueID>  (6) 
6

>  <SMILES>  (6) 
COc1ccc(OC)c(-n2c(-c3ccncc3)n[n-]c2=S)c1

>  <Energy>  (6) 
82.5578143278605

>  <Genealogy>  (6) 
COc1ccc(OC)c(-n2c(-c3ccncc3)n[n-]c2=S)c1 (protonated)
COc1ccc(OC)c(-n2c(-c3ccncc3)n[n-]c2=S)c1 (3D coordinates assigned)
COc1ccc(OC)c(-n2c(-c3ccncc3)n[n-]c2=S)c1 (optimized conformer: 82.5578143278605 kcal/mol)

>  <smiles>  (6) 
COc1ccc(OC)c(-n2c(-c3ccncc3)n[nH]c2=S)c1

>  <score_type>  (6) 
oracle

>  <origin>  (6) 
adgpu

>  <m_score__min__energy>  (6) 
-8.0399999999999991

>  <m_primary>  (6) 
energy

$$$$
6:0
     RDKit          3D

 34 35  0  0  0  0  0  0  0  0999 V2000
   -3.9400   20.0680  -32.0220 C   0  0  0  0  0  0  0  0  0  0  0  0
   -5.1100   20.8360  -32.4640 N   0  0  0  0  0  0  0  0  0  0  0  0
   -6.0110   20.2580  -33.4740 C   0  0  0  0  0  0  0  0  0  0  0  0
   -7.2030   19.6340  -32.8180 C   0  0  0  0  0  0  0  0  0  0  0  0
   -8.5170   20.0620  -32.9490 C   0  0  0  0  0  0  0  0  0  0  0  0
   -9.4290   19.2560  -32.2580 C   0  0  0  0  0  0  0  0  0  0  0  0
   -8.8370   18.1900  -31.5920 C   0  0  0  0  0  0  0  0  0  0  0  0
   -7.1790   18.2510  -31.8620 S   0  0  0  0  0  0  0  0  0  0  0  0
   -5.3980   22.1190  -31.8570 C   0  0  0  0  0  0  0  0  0  0  0  0
   -6.7270   22.5550  -31.7080 C   0  0  0  0  0  0  0  0  0  0  0  0
   -7.0050   23.8000  -31.1400 C   0  0  0  0  0  0  0  0  0  0  0  0
   -5.9630   24.6270  -30.7130 C   0  0  0  0  0  0  0  0  0  0  0  0
   -4.6300   24.2080  -30.8500 C   0  0  0  0  0  0  0  0  0  0  0  0
   -3.5290   25.0230  -30.4260 N   0  0  0  0  0  0  0  0  0  0  0  0
   -2.3610   24.5780  -29.2250 S   0  0  0  0  0  0  0  0  0  0  0  0
   -3.2130   24.1600  -27.7210 C   0  0  0  0  0  0  0  0  0  0  0  0
   -1.4340   25.7300  -28.9600 O   0  0  0  0  0  0  0  0  0  0  0  0
   -1.5760   23.3840  -29.6920 O   0  0  0  0  0  0  0  0  0  0  0  0
   -4.3570   22.9570  -31.4170 C   0  0  0  0  0  0  0  0  0  0  0  0
   -3.9088   20.0475  -30.9226 H   0  0  0  0  0  0  0  0  0  0  0  0
   -4.0100   19.0396  -32.4060 H   0  0  0  0  0  0  0  0  0  0  0  0
   -3.0243   20.5413  -32.4060 H   0  0  0  0  0  0  0  0  0  0  0  0
   -6.3478   21.0528  -34.1558 H   0  0  0  0  0  0  0  0  0  0  0  0
   -5.4670   19.4831  -34.0340 H   0  0  0  0  0  0  0  0  0  0  0  0
   -8.8114   20.9445  -33.5360 H   0  0  0  0  0  0  0  0  0  0  0  0
  -10.5120   19.4483  -32.2436 H   0  0  0  0  0  0  0  0  0  0  0  0
   -9.3637   17.4346  -30.9904 H   0  0  0  0  0  0  0  0  0  0  0  0
   -7.5536   21.9103  -32.0414 H   0  0  0  0  0  0  0  0  0  0  0  0
   -8.0481   24.1308  -31.0283 H   0  0  0  0  0  0  0  0  0  0  0  0
   -6.1874   25.6080  -30.2688 H   0  0  0  0  0  0  0  0  0  0  0  0
   -2.6012   24.4601  -26.8575 H   0  0  0  0  0  0  0  0  0  0  0  0
   -4.1780   24.6870  -27.6876 H   0  0  0  0  0  0  0  0  0  0  0  0
   -3.3868   23.0743  -27.6876 H   0  0  0  0  0  0  0  0  0  0  0  0
   -3.3135   22.6247  -31.5199 H   0  0  0  0  0  0  0  0  0  0  0  0
  1  2  1  0
  2  3  1  0
  3  4  1  0
  4  5  2  0
  5  6  1  0
  6  7  2  0
  7  8  1  0
  2  9  1  0
  9 10  2  0
 10 11  1  0
 11 12  2  0
 12 13  1  0
 13 14  1  0
 14 15  1  0
 15 16  1  0
 15 17  2  0
 15 18  2  0
 13 19  2  0
  8  4  1  0
 19  9  1  0
  1 20  1  0
  1 21  1  0
  1 22  1  0
  3 23  1  0
  3 24  1  0
  5 25  1  0
  6 26  1  0
  7 27  1  0
 10 28  1  0
 11 29  1  0
 12 30  1  0
 16 31  1  0
 16 32  1  0
 16 33  1  0
 19 34  1  0
M  CHG  1  14  -1
M  END
>  <UniqueID>  (7) 
7

>  <SMILES>  (7) 
CN(Cc1cccs1)c1cccc([N-]S(C)(=O)=O)c1

>  <Energy>  (7) 
59.41650261555575

>  <Genealogy>  (7) 
CN(Cc1cccs1)c1cccc([N-]S(C)(=O)=O)c1 (protonated)
CN(Cc1cccs1)c1cccc([N-]S(C)(=O)=O)c1 (3D coordinates assigned)
CN(Cc1cccs1)c1cccc([N-]S(C)(=O)=O)c1 (optimized conformer: 59.41650261555575 kcal/mol)

>  <smiles>  (7) 
CN(Cc1cccs1)c1cccc(NS(C)(=O)=O)c1

>  <score_type>  (7) 
oracle

>  <origin>  (7) 
adgpu

>  <m_score__min__energy>  (7) 
-9.3599999999999994

>  <m_primary>  (7) 
energy

$$$$
7:0
     RDKit          3D

 37 38  0  0  0  0  0  0  0  0999 V2000
   -5.5422   16.1269  -34.3428 H   0  0  0  0  0  0  0  0  0  0  0  0
   -5.7720   17.0550  -33.7990 C   0  0  0  0  0  0  0  0  0  0  0  0
   -4.8210   18.0760  -33.7300 C   0  0  0  0  0  0  0  0  0  0  0  0
   -3.8407   17.9447  -34.2113 H   0  0  0  0  0  0  0  0  0  0  0  0
   -5.1110   19.2690  -33.0490 C   0  0  0  0  0  0  0  0  0  0  0  0
   -4.0890   20.3750  -32.9740 C   0  0  0  0  0  0  0  0  0  0  0  0
   -3.5676   20.3184  -32.0071 H   0  0  0  0  0  0  0  0  0  0  0  0
   -3.3766   20.2515  -33.8030 H   0  0  0  0  0  0  0  0  0  0  0  0
   -4.7270   21.6860  -33.0980 N   0  0  0  0  0  0  0  0  0  0  0  0
   -5.1220   22.4690  -32.1300 C   0  0  0  0  0  0  0  0  0  0  0  0
   -4.9930   22.1100  -30.7710 C   0  0  0  0  0  0  0  0  0  0  0  0
   -4.5520   21.1413  -30.4934 H   0  0  0  0  0  0  0  0  0  0  0  0
   -5.4290   22.9930  -29.7820 C   0  0  0  0  0  0  0  0  0  0  0  0
   -5.3308   22.7225  -28.7203 H   0  0  0  0  0  0  0  0  0  0  0  0
   -5.9890   24.2180  -30.1410 C   0  0  0  0  0  0  0  0  0  0  0  0
   -6.3333   24.9199  -29.3672 H   0  0  0  0  0  0  0  0  0  0  0  0
   -6.1080   24.5440  -31.4910 C   0  0  0  0  0  0  0  0  0  0  0  0
   -6.5497   25.5076  -31.7849 H   0  0  0  0  0  0  0  0  0  0  0  0
   -5.6800   23.6750  -32.4470 N   0  0  0  0  0  0  0  0  0  0  0  0
   -5.7820   23.9490  -33.4510 H   0  0  0  0  0  0  0  0  0  0  0  0
   -6.3560   19.4140  -32.4130 C   0  0  0  0  0  0  0  0  0  0  0  0
   -6.5856   20.3411  -31.8673 H   0  0  0  0  0  0  0  0  0  0  0  0
   -7.3090   18.3840  -32.4690 C   0  0  0  0  0  0  0  0  0  0  0  0
   -8.6600   18.5670  -31.8350 C   0  0  0  0  0  0  0  0  0  0  0  0
   -8.5382   18.9923  -30.8279 H   0  0  0  0  0  0  0  0  0  0  0  0
   -9.1666   17.5933  -31.7622 H   0  0  0  0  0  0  0  0  0  0  0  0
   -9.4650   19.4780  -32.6570 N   0  0  0  0  0  0  0  0  0  0  0  0
   -9.2540   19.3060  -33.6680 H   0  0  0  0  0  0  0  0  0  0  0  0
   -9.2080   20.8920  -32.3390 C   0  0  0  0  0  0  0  0  0  0  0  0
  -10.0922   21.4829  -32.6202 H   0  0  0  0  0  0  0  0  0  0  0  0
   -8.3163   21.2040  -32.9025 H   0  0  0  0  0  0  0  0  0  0  0  0
   -8.9200   21.1170  -30.8520 C   0  0  0  0  0  0  0  0  0  0  0  0
   -9.6447   20.5509  -30.2484 H   0  0  0  0  0  0  0  0  0  0  0  0
   -7.9013   20.7731  -30.6197 H   0  0  0  0  0  0  0  0  0  0  0  0
   -9.0072   22.1887  -30.6197 H   0  0  0  0  0  0  0  0  0  0  0  0
   -7.0140   17.2100  -33.1790 C   0  0  0  0  0  0  0  0  0  0  0  0
   -7.7641   16.4084  -33.2476 H   0  0  0  0  0  0  0  0  0  0  0  0
  1  2  1  0
  2  3  2  0
  3  4  1  0
  3  5  1  0
  5  6  1  0
  6  7  1  0
  6  8  1  0
  6  9  1  0
  9 10  2  0
 10 11  1  0
 11 12  1  0
 11 13  2  0
 13 14  1  0
 13 15  1  0
 15 16  1  0
 15 17  2  0
 17 18  1  0
 17 19  1  0
 19 20  1  0
  5 21  2  0
 21 22  1  0
 21 23  1  0
 23 24  1  0
 24 25  1  0
 24 26  1  0
 24 27  1  0
 27 28  1  0
 27 29  1  0
 29 30  1  0
 29 31  1  0
 29 32  1  0
 32 33  1  0
 32 34  1  0
 32 35  1  0
 23 36  2  0
 36 37  1  0
 36  2  1  0
 19 10  1  0
M  END
>  <UniqueID>  (8) 
8

>  <SMILES>  (8) 
CCNCc1cccc(C/N=c2\cccc[nH]2)c1

>  <Energy>  (8) 
36.108396965662834

>  <Genealogy>  (8) 
CCNCc1cccc(C/N=c2\cccc[nH]2)c1 (cis-trans isomerization)
CCNCc1cccc(C/N=c2\cccc[nH]2)c1 (3D coordinates assigned)
CCNCc1cccc(C/N=c2\cccc[nH]2)c1 (optimized conformer: 36.108396965662834 kcal/mol)

>  <smiles>  (8) 
CCNCc1cccc(CN=c2cccc[nH]2)c1

>  <score_type>  (8) 
oracle

>  <origin>  (8) 
adgpu

>  <m_score__min__energy>  (8) 
-8.3100000000000005

>  <m_primary>  (8) 
energy

$$$$
8:0
     RDKit          3D

 29 30  0  0  0  0  0  0  0  0999 V2000
   -3.7220   21.7450  -33.0800 C   0  0  0  0  0  0  0  0  0  0  0  0
   -4.0460   21.3220  -31.3400 S   0  0  0  0  0  0  0  0  0  0  0  0
   -4.4590   23.0110  -30.8890 C   0  0  0  0  0  0  0  0  0  0  0  0
   -3.5630   24.0150  -30.9000 N   0  0  0  0  0  0  0  0  0  0  0  0
   -4.1920   25.0980  -30.4700 N   0  0  0  0  0  0  0  0  0  0  0  0
   -5.4620   24.7360  -30.2040 C   0  0  0  0  0  0  0  0  0  0  0  0
   -6.4870   25.6750  -29.6500 C   0  0  0  0  0  0  0  0  0  0  0  0
   -5.6710   23.4320  -30.4750 N   0  0  0  0  0  0  0  0  0  0  0  0
   -6.8800   22.6370  -30.2340 C   0  0  0  0  0  0  0  0  0  0  0  0
   -7.4530   22.1980  -31.4660 O   0  0  0  0  0  0  0  0  0  0  0  0
   -7.6140   20.8590  -31.8510 C   0  0  0  0  0  0  0  0  0  0  0  0
   -8.6320   20.0350  -31.3300 C   0  0  0  0  0  0  0  0  0  0  0  0
   -8.7500   18.7090  -31.7560 C   0  0  0  0  0  0  0  0  0  0  0  0
   -7.8580   18.1920  -32.6980 C   0  0  0  0  0  0  0  0  0  0  0  0
   -6.8430   19.0020  -33.2180 C   0  0  0  0  0  0  0  0  0  0  0  0
   -5.7230   18.3530  -34.4020 Cl  0  0  0  0  0  0  0  0  0  0  0  0
   -6.7230   20.3300  -32.7930 C   0  0  0  0  0  0  0  0  0  0  0  0
   -3.0537   22.6175  -33.1269 H   0  0  0  0  0  0  0  0  0  0  0  0
   -3.2452   20.8905  -33.5824 H   0  0  0  0  0  0  0  0  0  0  0  0
   -4.6712   21.9828  -33.5824 H   0  0  0  0  0  0  0  0  0  0  0  0
   -6.4550   25.6457  -28.5509 H   0  0  0  0  0  0  0  0  0  0  0  0
   -6.2730   26.6970  -29.9960 H   0  0  0  0  0  0  0  0  0  0  0  0
   -7.4864   25.3725  -29.9960 H   0  0  0  0  0  0  0  0  0  0  0  0
   -6.6187   21.7591  -29.6249 H   0  0  0  0  0  0  0  0  0  0  0  0
   -7.6147   23.2639  -29.7074 H   0  0  0  0  0  0  0  0  0  0  0  0
   -9.3356   20.4367  -30.5860 H   0  0  0  0  0  0  0  0  0  0  0  0
   -9.5477   18.0709  -31.3481 H   0  0  0  0  0  0  0  0  0  0  0  0
   -7.9536   17.1480  -33.0310 H   0  0  0  0  0  0  0  0  0  0  0  0
   -5.9222   20.9635  -33.2022 H   0  0  0  0  0  0  0  0  0  0  0  0
  1  2  1  0
  2  3  1  0
  3  4  2  0
  4  5  1  0
  5  6  2  0
  6  7  1  0
  6  8  1  0
  8  9  1  0
  9 10  1  0
 10 11  1  0
 11 12  2  0
 12 13  1  0
 13 14  2  0
 14 15  1  0
 15 16  1  0
 15 17  2  0
  8  3  1  0
 17 11  1  0
  1 18  1  0
  1 19  1  0
  1 20  1  0
  7 21  1  0
  7 22  1  0
  7 23  1  0
  9 24  1  0
  9 25  1  0
 12 26  1  0
 13 27  1  0
 14 28  1  0
 17 29  1  0
M  END
>  <UniqueID>  (9) 
9

>  <SMILES>  (9) 
CSc1nnc(C)n1COc1cccc(Cl)c1

>  <Energy>  (9) 
57.942191842151246

>  <Genealogy>  (9) 
CSc1nnc(C)n1COc1cccc(Cl)c1 (3D coordinates assigned)
CSc1nnc(C)n1COc1cccc(Cl)c1 (optimized conformer: 57.942191842151246 kcal/mol)

>  <smiles>  (9) 
CSc1nnc(C)n1COc1cccc(Cl)c1

>  <score_type>  (9) 
oracle

>  <origin>  (9) 
adgpu

>  <m_score__min__energy>  (9) 
-7.3099999999999996

>  <m_primary>  (9) 
energy

$$$$
9:0
     RDKit          3D

 35 37  0  0  0  0  0  0  0  0999 V2000
   -3.5090   11.9550  -32.0720 C   0  0  0  0  0  0  0  0  0  0  0  0
   -4.2580   13.2390  -31.9240 C   0  0  0  0  0  0  0  0  0  0  0  0
   -4.9260   13.4480  -30.8760 O   0  0  0  0  0  0  0  0  0  0  0  0
   -4.1360   14.2560  -32.9300 N   0  0  0  0  0  0  0  0  0  0  0  0
   -4.9470   15.4430  -32.9810 C   0  0  0  0  0  0  0  0  0  0  0  0
   -5.3640   16.0420  -31.7840 C   0  0  0  0  0  0  0  0  0  0  0  0
   -6.1350   17.2070  -31.8050 C   0  0  0  0  0  0  0  0  0  0  0  0
   -6.4980   17.7950  -33.0300 C   0  0  0  0  0  0  0  0  0  0  0  0
   -7.2580   18.9730  -33.0910 O   0  0  0  0  0  0  0  0  0  0  0  0
   -6.8590   20.2240  -32.6000 C   0  0  0  0  0  0  0  0  0  0  0  0
   -5.5370   20.6360  -32.7990 C   0  0  0  0  0  0  0  0  0  0  0  0
   -5.1050   21.8820  -32.3360 C   0  0  0  0  0  0  0  0  0  0  0  0
   -5.9970   22.7450  -31.6770 C   0  0  0  0  0  0  0  0  0  0  0  0
   -5.5420   24.0640  -31.1870 C   0  0  0  0  0  0  0  0  0  0  0  0
   -6.3670   25.0060  -30.6830 N   0  0  0  0  0  0  0  0  0  0  0  0
   -5.5030   25.9950  -30.3850 C   0  0  0  0  0  0  0  0  0  0  0  0
   -4.2740   25.6600  -30.6890 O   0  0  0  0  0  0  0  0  0  0  0  0
   -4.2540   24.4630  -31.1920 N   0  0  0  0  0  0  0  0  0  0  0  0
   -7.3300   22.3390  -31.4950 C   0  0  0  0  0  0  0  0  0  0  0  0
   -7.7590   21.0920  -31.9570 C   0  0  0  0  0  0  0  0  0  0  0  0
   -6.0470   17.2220  -34.2230 C   0  0  0  0  0  0  0  0  0  0  0  0
   -5.2770   16.0550  -34.2030 C   0  0  0  0  0  0  0  0  0  0  0  0
   -3.2734   11.5511  -31.0763 H   0  0  0  0  0  0  0  0  0  0  0  0
   -4.1268   11.2317  -32.6243 H   0  0  0  0  0  0  0  0  0  0  0  0
   -2.5752   12.1368  -32.6243 H   0  0  0  0  0  0  0  0  0  0  0  0
   -3.3550   14.1640  -33.6200 H   0  0  0  0  0  0  0  0  0  0  0  0
   -5.0820   15.5914  -30.8210 H   0  0  0  0  0  0  0  0  0  0  0  0
   -6.4594   17.6662  -30.8596 H   0  0  0  0  0  0  0  0  0  0  0  0
   -4.8322   19.9743  -33.3238 H   0  0  0  0  0  0  0  0  0  0  0  0
   -4.0598   22.1891  -32.4885 H   0  0  0  0  0  0  0  0  0  0  0  0
   -5.7923   26.9599  -29.9432 H   0  0  0  0  0  0  0  0  0  0  0  0
   -8.0401   23.0070  -30.9857 H   0  0  0  0  0  0  0  0  0  0  0  0
   -8.8067   20.7877  -31.8169 H   0  0  0  0  0  0  0  0  0  0  0  0
   -6.2998   17.6928  -35.1845 H   0  0  0  0  0  0  0  0  0  0  0  0
   -4.9277   15.6136  -35.1480 H   0  0  0  0  0  0  0  0  0  0  0  0
  1  2  1  0
  2  3  2  0
  2  4  1  0
  4  5  1  0
  5  6  2  0
  6  7  1  0
  7  8  2  0
  8  9  1  0
  9 10  1  0
 10 11  2  0
 11 12  1  0
 12 13  2  0
 13 14  1  0
 14 15  1  0
 15 16  2  0
 16 17  1  0
 17 18  1  0
 13 19  1  0
 19 20  2  0
  8 21  1  0
 21 22  2  0
 22  5  1  0
 20 10  1  0
 18 14  2  0
  1 23  1  0
  1 24  1  0
  1 25  1  0
  4 26  1  0
  6 27  1  0
  7 28  1  0
 11 29  1  0
 12 30  1  0
 16 31  1  0
 19 32  1  0
 20 33  1  0
 21 34  1  0
 22 35  1  0
M  END
>  <UniqueID>  (10) 
10

>  <SMILES>  (10) 
CC(=O)Nc1ccc(Oc2ccc(-c3ncon3)cc2)cc1

>  <Energy>  (10) 
78.9077019864324

>  <Genealogy>  (10) 
CC(=O)Nc1ccc(Oc2ccc(-c3ncon3)cc2)cc1 (3D coordinates assigned)
CC(=O)Nc1ccc(Oc2ccc(-c3ncon3)cc2)cc1 (optimized conformer: 78.9077019864324 kcal/mol)

>  <smiles>  (10) 
CC(=O)Nc1ccc(Oc2ccc(-c3ncon3)cc2)cc1

>  <score_type>  (10) 
oracle

>  <origin>  (10) 
adgpu

>  <m_score__min__energy>  (10) 
-8.0099999999999998

>  <m_primary>  (10) 
energy

$$$$
10:0
     RDKit          3D

 26 27  0  0  0  0  0  0  0  0999 V2000
   -5.8680   17.7410  -34.0020 Cl  0  0  0  0  0  0  0  0  0  0  0  0
   -6.8820   18.8550  -33.1050 C   0  0  0  0  0  0  0  0  0  0  0  0
   -7.9330   18.3660  -32.3220 C   0  0  0  0  0  0  0  0  0  0  0  0
   -8.7390   19.2510  -31.6050 C   0  0  0  0  0  0  0  0  0  0  0  0
   -8.5010   20.6270  -31.6700 C   0  0  0  0  0  0  0  0  0  0  0  0
   -7.4540   21.1340  -32.4570 C   0  0  0  0  0  0  0  0  0  0  0  0
   -7.2370   22.5580  -32.5060 N   0  0  0  0  0  0  0  0  0  0  0  0
   -7.4290   23.4650  -31.3730 C   0  0  0  0  0  0  0  0  0  0  0  0
   -6.1050   23.8310  -30.7540 C   0  0  0  0  0  0  0  0  0  0  0  0
   -5.5610   23.0510  -29.7230 C   0  0  0  0  0  0  0  0  0  0  0  0
   -4.3310   23.3940  -29.1620 C   0  0  0  0  0  0  0  0  0  0  0  0
   -3.6470   24.5120  -29.6430 C   0  0  0  0  0  0  0  0  0  0  0  0
   -4.1790   25.2520  -30.6510 N   0  0  0  0  0  0  0  0  0  0  0  0
   -5.3760   24.9400  -31.2130 C   0  0  0  0  0  0  0  0  0  0  0  0
   -6.6400   20.2320  -33.1710 C   0  0  0  0  0  0  0  0  0  0  0  0
   -8.1240   17.2839  -32.2715 H   0  0  0  0  0  0  0  0  0  0  0  0
   -9.5634   18.8652  -30.9873 H   0  0  0  0  0  0  0  0  0  0  0  0
   -9.1390   21.3184  -31.1000 H   0  0  0  0  0  0  0  0  0  0  0  0
   -6.8820   22.9770  -33.3950 H   0  0  0  0  0  0  0  0  0  0  0  0
   -7.9290   24.3799  -31.7235 H   0  0  0  0  0  0  0  0  0  0  0  0
   -8.0460   22.9593  -30.6156 H   0  0  0  0  0  0  0  0  0  0  0  0
   -6.1050   22.1679  -29.3565 H   0  0  0  0  0  0  0  0  0  0  0  0
   -3.9039   22.7894  -28.3483 H   0  0  0  0  0  0  0  0  0  0  0  0
   -2.6776   24.7938  -29.2061 H   0  0  0  0  0  0  0  0  0  0  0  0
   -5.7755   25.5583  -32.0304 H   0  0  0  0  0  0  0  0  0  0  0  0
   -5.8095   20.6124  -33.7838 H   0  0  0  0  0  0  0  0  0  0  0  0
  1  2  1  0
  2  3  2  0
  3  4  1  0
  4  5  2  0
  5  6  1  0
  6  7  1  0
  7  8  1  0
  8  9  1  0
  9 10  2  0
 10 11  1  0
 11 12  2  0
 12 13  1  0
 13 14  2  0
  6 15  2  0
 15  2  1  0
 14  9  1  0
  3 16  1  0
  4 17  1  0
  5 18  1  0
  7 19  1  0
  8 20  1  0
  8 21  1  0
 10 22  1  0
 11 23  1  0
 12 24  1  0
 14 25  1  0
 15 26  1  0
M  END
>  <UniqueID>  (11) 
11

>  <SMILES>  (11) 
Clc1cccc(NCc2cccnc2)c1

>  <Energy>  (11) 
26.531729457335302

>  <Genealogy>  (11) 
Clc1cccc(NCc2cccnc2)c1 (3D coordinates assigned)
Clc1cccc(NCc2cccnc2)c1 (optimized conformer: 26.531729457335302 kcal/mol)

>  <smiles>  (11) 
Clc1cccc(NCc2cccnc2)c1

>  <score_type>  (11) 
oracle

>  <origin>  (11) 
adgpu

>  <m_score__min__energy>  (11) 
-7.1100000000000003

>  <m_primary>  (11) 
energy

$$$$
11:0
     RDKit          3D

 38 40  0  0  1  0  0  0  0  0999 V2000
   -0.7410   20.7890  -32.8690 C   0  0  0  0  0  0  0  0  0  0  0  0
   -2.1620   20.4990  -33.1610 C   0  0  0  0  0  0  0  0  0  0  0  0
   -2.5320   19.2350  -33.5580 C   0  0  0  0  0  0  0  0  0  0  0  0
   -3.8730   18.9610  -33.8330 C   0  0  0  0  0  0  0  0  0  0  0  0
   -4.8610   19.9050  -33.7270 C   0  0  0  0  0  0  0  0  0  0  0  0
   -6.2290   19.6970  -33.9880 N   0  0  0  0  0  0  0  0  0  0  0  0
   -7.3100   19.9680  -33.1280 C   0  0  0  0  0  0  0  0  0  0  0  0
   -7.2370   21.0630  -32.2440 C   0  0  0  0  0  0  0  0  0  0  0  0
   -8.2920   21.3370  -31.3970 C   0  0  0  0  0  0  0  0  0  0  0  0
   -8.2030   22.3500  -30.5920 N   0  0  0  0  0  0  0  0  0  0  0  0
   -7.0230   23.1140  -30.6330 C   0  0  0  0  0  0  0  0  0  0  0  0
   -6.8660   24.1600  -31.5360 C   0  0  0  0  0  0  0  0  0  0  0  0
   -5.6720   24.8660  -31.5140 C   0  0  0  0  0  0  0  0  0  0  0  0
   -4.6610   24.5360  -30.6140 C   0  0  0  0  0  0  0  0  0  0  0  0
   -3.4890   25.2960  -30.6560 O   0  0  0  0  0  0  0  0  0  0  0  0
   -4.8310   23.4950  -29.7220 C   0  0  0  0  0  0  0  0  0  0  0  0
   -6.0180   22.7780  -29.7300 C   0  0  0  0  0  0  0  0  0  0  0  0
   -9.4060   20.5960  -31.3760 N   0  0  0  0  0  0  0  0  0  0  0  0
   -9.4700   19.5520  -32.2220 C   0  0  0  0  0  0  0  0  0  0  0  0
   -8.4520   19.2710  -33.0530 N   0  0  0  0  0  0  0  0  0  0  0  0
   -4.4430   21.1770  -33.3200 C   0  0  0  0  0  0  0  0  0  0  0  0
   -3.1300   21.4710  -33.0440 C   0  0  0  0  0  0  0  0  0  0  0  0
   -0.5894   20.8199  -31.7799 H   0  0  0  0  0  0  0  0  0  0  0  0
   -0.1089   20.0013  -33.3050 H   0  0  0  0  0  0  0  0  0  0  0  0
   -0.4681   21.7613  -33.3050 H   0  0  0  0  0  0  0  0  0  0  0  0
   -1.7746   18.4436  -33.6583 H   0  0  0  0  0  0  0  0  0  0  0  0
   -4.1485   17.9438  -34.1483 H   0  0  0  0  0  0  0  0  0  0  0  0
   -6.4730   19.2930  -34.9310 H   0  0  0  0  0  0  0  0  0  0  0  0
   -6.3397   21.6991  -32.2289 H   0  0  0  0  0  0  0  0  0  0  0  0
   -7.6647   24.4198  -32.2464 H   0  0  0  0  0  0  0  0  0  0  0  0
   -5.5213   25.6983  -32.2173 H   0  0  0  0  0  0  0  0  0  0  0  0
   -3.1740   25.5460  -31.5880 H   0  0  0  0  0  0  0  0  0  0  0  0
   -4.0318   23.2370  -29.0116 H   0  0  0  0  0  0  0  0  0  0  0  0
   -6.1650   21.9464  -29.0251 H   0  0  0  0  0  0  0  0  0  0  0  0
  -10.1880   20.8100  -30.7380 H   0  0  0  0  0  0  0  0  0  0  0  0
  -10.3693   18.9187  -32.2337 H   0  0  0  0  0  0  0  0  0  0  0  0
   -5.1955   21.9727  -33.2171 H   0  0  0  0  0  0  0  0  0  0  0  0
   -2.8508   22.4870  -32.7282 H   0  0  0  0  0  0  0  0  0  0  0  0
  1  2  1  0
  2  3  2  0
  3  4  1  0
  4  5  2  0
  5  6  1  0
  6  7  1  0
  7  8  2  0
  8  9  1  0
  9 10  2  0
 10 11  1  0
 11 12  2  0
 12 13  1  0
 13 14  2  0
 14 15  1  0
 14 16  1  0
 16 17  2  0
  9 18  1  0
 18 19  1  0
 19 20  2  0
  5 21  1  0
 21 22  2  0
 22  2  1  0
 20  7  1  0
 17 11  1  0
  1 23  1  0
  1 24  1  0
  1 25  1  0
  3 26  1  0
  4 27  1  0
  6 28  1  0
  8 29  1  0
 12 30  1  0
 13 31  1  0
 15 32  1  0
 16 33  1  0
 17 34  1  0
 18 35  1  0
 19 36  1  0
 21 37  1  0
 22 38  1  0
M  END
>  <smiles>  (12) 
Cc1ccc(Nc2cc(=Nc3ccc(O)cc3)[nH]cn2)cc1

>  <score_type>  (12) 
oracle

>  <origin>  (12) 
adgpu

>  <m_score__min__energy>  (12) 
-8.6799999999999997

>  <m_primary>  (12) 
energy

$$$$
12:0
     RDKit          3D

 42 45  0  0  0  0  0  0  0  0999 V2000
   -3.0332   23.4070  -29.6624 H   0  0  0  0  0  0  0  0  0  0  0  0
   -3.9580   23.5750  -29.0910 C   0  0  0  0  0  0  0  0  0  0  0  0
   -3.8470   23.8480  -27.7800 C   0  0  0  0  0  0  0  0  0  0  0  0
   -4.7689   24.0170  -27.2043 H   0  0  0  0  0  0  0  0  0  0  0  0
   -2.5480   23.9340  -27.0660 C   0  0  0  0  0  0  0  0  0  0  0  0
   -1.5920   22.9000  -27.1060 C   0  0  0  0  0  0  0  0  0  0  0  0
   -1.7964   21.9879  -27.6860 H   0  0  0  0  0  0  0  0  0  0  0  0
   -0.3860   23.0270  -26.4130 C   0  0  0  0  0  0  0  0  0  0  0  0
    0.3603   22.2203  -26.4598 H   0  0  0  0  0  0  0  0  0  0  0  0
   -0.1240   24.1740  -25.6610 C   0  0  0  0  0  0  0  0  0  0  0  0
    0.8345   24.2742  -25.1307 H   0  0  0  0  0  0  0  0  0  0  0  0
   -1.0780   25.1990  -25.5790 C   0  0  0  0  0  0  0  0  0  0  0  0
   -0.7880   26.4420  -24.7760 C   0  0  0  0  0  0  0  0  0  0  0  0
    0.1480   26.2988  -24.2161 H   0  0  0  0  0  0  0  0  0  0  0  0
   -1.6260   26.6175  -24.0854 H   0  0  0  0  0  0  0  0  0  0  0  0
   -0.6500   27.6090  -25.6500 N   0  0  0  0  0  0  0  0  0  0  0  0
   -0.7450   28.8510  -25.2100 N   0  0  0  0  0  0  0  0  0  0  0  0
   -0.6360   29.6420  -26.2960 C   0  0  0  0  0  0  0  0  0  0  0  0
   -0.6689   30.7408  -26.2569 H   0  0  0  0  0  0  0  0  0  0  0  0
   -0.4820   28.9370  -27.4370 N   0  0  0  0  0  0  0  0  0  0  0  0
   -0.4950   27.6660  -26.9910 C   0  0  0  0  0  0  0  0  0  0  0  0
   -0.3690   26.5370  -27.8690 N   0  0  0  0  0  0  0  0  0  0  0  0
   -1.2360   26.3400  -28.7450 O   0  0  0  0  0  0  0  0  0  0  0  0
    0.7260   25.7070  -27.8230 O   0  0  0  0  0  0  0  0  0  0  0  0
   -2.2820   25.0770  -26.2930 C   0  0  0  0  0  0  0  0  0  0  0  0
   -3.0256   25.8863  -26.2463 H   0  0  0  0  0  0  0  0  0  0  0  0
   -5.2460   23.4860  -29.8150 C   0  0  0  0  0  0  0  0  0  0  0  0
   -5.6810   22.2490  -30.1870 N   0  0  0  0  0  0  0  0  0  0  0  0
   -6.8460   22.0600  -30.8640 C   0  0  0  0  0  0  0  0  0  0  0  0
   -7.2500   20.7670  -31.2160 C   0  0  0  0  0  0  0  0  0  0  0  0
   -6.6256   19.9025  -30.9462 H   0  0  0  0  0  0  0  0  0  0  0  0
   -8.4500   20.5750  -31.9120 C   0  0  0  0  0  0  0  0  0  0  0  0
   -8.9570   18.9550  -32.3520 Cl  0  0  0  0  0  0  0  0  0  0  0  0
   -9.2440   21.6740  -32.2580 C   0  0  0  0  0  0  0  0  0  0  0  0
  -10.1857   21.5190  -32.8050 H   0  0  0  0  0  0  0  0  0  0  0  0
   -8.8450   22.9690  -31.9110 C   0  0  0  0  0  0  0  0  0  0  0  0
   -9.4716   23.8303  -32.1857 H   0  0  0  0  0  0  0  0  0  0  0  0
   -7.6460   23.1680  -31.2130 C   0  0  0  0  0  0  0  0  0  0  0  0
   -7.2150   24.4510  -30.8550 C   0  0  0  0  0  0  0  0  0  0  0  0
   -7.8219   25.3291  -31.1206 H   0  0  0  0  0  0  0  0  0  0  0  0
   -6.0150   24.6160  -30.1610 C   0  0  0  0  0  0  0  0  0  0  0  0
   -5.6707   25.6237  -29.8852 H   0  0  0  0  0  0  0  0  0  0  0  0
  1  2  1  0
  2  3  2  0
  3  4  1  0
  3  5  1  0
  5  6  2  0
  6  7  1  0
  6  8  1  0
  8  9  1  0
  8 10  2  0
 10 11  1  0
 10 12  1  0
 12 13  1  0
 13 14  1  0
 13 15  1  0
 13 16  1  0
 16 17  1  0
 17 18  2  0
 18 19  1  0
 18 20  1  0
 20 21  2  0
 21 22  1  0
 22 23  2  0
 22 24  1  0
 12 25  2  0
 25 26  1  0
  2 27  1  0
 27 28  2  0
 28 29  1  0
 29 30  2  0
 30 31  1  0
 30 32  1  0
 32 33  1  0
 32 34  2  0
 34 35  1  0
 34 36  1  0
 36 37  1  0
 36 38  2  0
 38 39  1  0
 39 40  1  0
 39 41  2  0
 41 42  1  0
 25  5  1  0
 41 27  1  0
 21 16  1  0
 38 29  1  0
M  CHG  2  22   1  24  -1
M  END
>  <UniqueID>  (13) 
12

>  <SMILES>  (13) 
O=[N+]([O-])c1ncnn1Cc1cccc(/C=C/c2ccc3ccc(Cl)cc3n2)c1

>  <Energy>  (13) 
88.57552563963824

>  <Genealogy>  (13) 
O=[N+]([O-])c1ncnn1Cc1cccc(/C=C/c2ccc3ccc(Cl)cc3n2)c1 (cis-trans isomerization)
O=[N+]([O-])c1ncnn1Cc1cccc(/C=C/c2ccc3ccc(Cl)cc3n2)c1 (3D coordinates assigned)
O=[N+]([O-])c1ncnn1Cc1cccc(/C=C/c2ccc3ccc(Cl)cc3n2)c1 (optimized conformer: 88.57552563963824 kcal/mol)

>  <smiles>  (13) 
O=[N+]([O-])c1ncnn1Cc1cccc(C=Cc2ccc3ccc(Cl)cc3n2)c1

>  <score_type>  (13) 
oracle

>  <origin>  (13) 
adgpu

>  <m_score__min__energy>  (13) 
-10.6

>  <m_primary>  (13) 
energy

$$$$
13:0
     RDKit          3D

 26 27  0  0  0  0  0  0  0  0999 V2000
   -5.3920   25.8770  -30.4650 C   0  0  0  0  0  0  0  0  0  0  0  0
   -5.8900   24.5200  -30.8350 C   0  0  0  0  0  0  0  0  0  0  0  0
   -6.8280   23.9060  -30.0640 N   0  0  0  0  0  0  0  0  0  0  0  0
   -7.2710   22.6580  -30.3640 C   0  0  0  0  0  0  0  0  0  0  0  0
   -6.7600   21.9790  -31.4770 C   0  0  0  0  0  0  0  0  0  0  0  0
   -7.2120   20.6110  -31.8170 C   0  0  0  0  0  0  0  0  0  0  0  0
   -6.2490   19.5940  -31.9320 C   0  0  0  0  0  0  0  0  0  0  0  0
   -6.6300   18.2830  -32.2230 C   0  0  0  0  0  0  0  0  0  0  0  0
   -7.9780   17.9710  -32.4030 C   0  0  0  0  0  0  0  0  0  0  0  0
   -8.9470   18.9710  -32.3050 C   0  0  0  0  0  0  0  0  0  0  0  0
   -8.5790   20.3000  -32.0330 C   0  0  0  0  0  0  0  0  0  0  0  0
   -9.6570   21.3510  -31.9630 C   0  0  0  0  0  0  0  0  0  0  0  0
   -5.7750   22.6190  -32.2390 C   0  0  0  0  0  0  0  0  0  0  0  0
   -5.3610   23.8700  -31.9050 N   0  0  0  0  0  0  0  0  0  0  0  0
   -5.3582   25.9690  -29.3694 H   0  0  0  0  0  0  0  0  0  0  0  0
   -4.3822   26.0218  -30.8764 H   0  0  0  0  0  0  0  0  0  0  0  0
   -6.0685   26.6406  -30.8764 H   0  0  0  0  0  0  0  0  0  0  0  0
   -8.0330   22.1793  -29.7313 H   0  0  0  0  0  0  0  0  0  0  0  0
   -5.1846   19.8334  -31.7913 H   0  0  0  0  0  0  0  0  0  0  0  0
   -5.8671   17.4954  -32.3105 H   0  0  0  0  0  0  0  0  0  0  0  0
   -8.2775   16.9356  -32.6224 H   0  0  0  0  0  0  0  0  0  0  0  0
  -10.0084   18.7166  -32.4419 H   0  0  0  0  0  0  0  0  0  0  0  0
   -9.8848   21.5731  -30.9100 H   0  0  0  0  0  0  0  0  0  0  0  0
   -9.3095   22.2666  -32.4640 H   0  0  0  0  0  0  0  0  0  0  0  0
  -10.5635   20.9804  -32.4640 H   0  0  0  0  0  0  0  0  0  0  0  0
   -5.3356   22.1089  -33.1089 H   0  0  0  0  0  0  0  0  0  0  0  0
  1  2  1  0
  2  3  2  0
  3  4  1  0
  4  5  2  0
  5  6  1  0
  6  7  2  0
  7  8  1  0
  8  9  2  0
  9 10  1  0
 10 11  2  0
 11 12  1  0
  5 13  1  0
 13 14  2  0
 14  2  1  0
 11  6  1  0
  1 15  1  0
  1 16  1  0
  1 17  1  0
  4 18  1  0
  7 19  1  0
  8 20  1  0
  9 21  1  0
 10 22  1  0
 12 23  1  0
 12 24  1  0
 12 25  1  0
 13 26  1  0
M  END
>  <UniqueID>  (14) 
13

>  <SMILES>  (14) 
Cc1ncc(-c2ccccc2C)cn1

>  <Energy>  (14) 
33.37829246142198

>  <Genealogy>  (14) 
Cc1ncc(-c2ccccc2C)cn1 (3D coordinates assigned)
Cc1ncc(-c2ccccc2C)cn1 (optimized conformer: 33.37829246142198 kcal/mol)

>  <smiles>  (14) 
Cc1ncc(-c2ccccc2C)cn1

>  <score_type>  (14) 
oracle

>  <origin>  (14) 
adgpu

>  <m_score__min__energy>  (14) 
-6.5

>  <m_primary>  (14) 
energy

$$$$
14:0
     RDKit          3D

 41 43  0  0  0  0  0  0  0  0999 V2000
   -1.5960   25.3010  -27.6070 C   0  0  0  0  0  0  0  0  0  0  0  0
   -1.9350   25.2430  -28.9880 O   0  0  0  0  0  0  0  0  0  0  0  0
   -2.3870   24.0900  -29.6490 C   0  0  0  0  0  0  0  0  0  0  0  0
   -1.7390   22.8480  -29.5110 C   0  0  0  0  0  0  0  0  0  0  0  0
   -2.2170   21.7220  -30.1830 C   0  0  0  0  0  0  0  0  0  0  0  0
   -3.3500   21.8140  -31.0050 C   0  0  0  0  0  0  0  0  0  0  0  0
   -3.8590   20.6250  -31.7160 C   0  0  0  0  0  0  0  0  0  0  0  0
   -5.0360   20.0200  -31.4410 N   0  0  0  0  0  0  0  0  0  0  0  0
   -5.1200   19.0130  -32.2940 N   0  0  0  0  0  0  0  0  0  0  0  0
   -6.2540   18.0920  -32.3710 C   0  0  0  0  0  0  0  0  0  0  0  0
   -7.4600   18.8090  -32.7780 N   0  0  0  0  0  0  0  0  0  0  0  0
   -7.8140   20.1280  -32.3150 C   0  0  0  0  0  0  0  0  0  0  0  0
   -7.1360   21.2800  -32.7610 C   0  0  0  0  0  0  0  0  0  0  0  0
   -7.5090   22.5430  -32.2950 C   0  0  0  0  0  0  0  0  0  0  0  0
   -8.5540   22.6730  -31.3770 C   0  0  0  0  0  0  0  0  0  0  0  0
   -9.2260   21.5370  -30.9210 C   0  0  0  0  0  0  0  0  0  0  0  0
   -8.8560   20.2700  -31.3850 C   0  0  0  0  0  0  0  0  0  0  0  0
   -4.0070   19.0300  -33.0530 C   0  0  0  0  0  0  0  0  0  0  0  0
   -3.6610   17.9720  -34.2530 S   0  0  0  0  0  0  0  0  0  0  0  0
   -3.2260   20.0220  -32.7020 O   0  0  0  0  0  0  0  0  0  0  0  0
   -3.9980   23.0510  -31.1440 C   0  0  0  0  0  0  0  0  0  0  0  0
   -3.5210   24.1920  -30.4690 C   0  0  0  0  0  0  0  0  0  0  0  0
   -4.1470   25.4430  -30.5880 O   0  0  0  0  0  0  0  0  0  0  0  0
   -5.5380   25.6740  -30.3900 C   0  0  0  0  0  0  0  0  0  0  0  0
   -2.5006   25.1462  -27.0006 H   0  0  0  0  0  0  0  0  0  0  0  0
   -0.8612   24.5155  -27.3765 H   0  0  0  0  0  0  0  0  0  0  0  0
   -1.1642   26.2861  -27.3765 H   0  0  0  0  0  0  0  0  0  0  0  0
   -0.8497   22.7643  -28.8690 H   0  0  0  0  0  0  0  0  0  0  0  0
   -1.7023   20.7568  -30.0674 H   0  0  0  0  0  0  0  0  0  0  0  0
   -6.0334   17.3049  -33.1071 H   0  0  0  0  0  0  0  0  0  0  0  0
   -6.4202   17.6439  -31.3802 H   0  0  0  0  0  0  0  0  0  0  0  0
   -8.0650   18.3570  -33.5010 H   0  0  0  0  0  0  0  0  0  0  0  0
   -6.3088   21.1843  -33.4798 H   0  0  0  0  0  0  0  0  0  0  0  0
   -6.9783   23.4379  -32.6520 H   0  0  0  0  0  0  0  0  0  0  0  0
   -8.8471   23.6691  -31.0138 H   0  0  0  0  0  0  0  0  0  0  0  0
  -10.0472   21.6384  -30.1962 H   0  0  0  0  0  0  0  0  0  0  0  0
   -9.3856   19.3783  -31.0183 H   0  0  0  0  0  0  0  0  0  0  0  0
   -4.8873   23.1306  -31.7865 H   0  0  0  0  0  0  0  0  0  0  0  0
   -5.7539   25.7099  -29.3120 H   0  0  0  0  0  0  0  0  0  0  0  0
   -5.8202   26.6313  -30.8525 H   0  0  0  0  0  0  0  0  0  0  0  0
   -6.1145   24.8593  -30.8525 H   0  0  0  0  0  0  0  0  0  0  0  0
  1  2  1  0
  2  3  1  0
  3  4  2  0
  4  5  1  0
  5  6  2  0
  6  7  1  0
  7  8  2  0
  8  9  1  0
  9 10  1  0
 10 11  1  0
 11 12  1  0
 12 13  2  0
 13 14  1  0
 14 15  2  0
 15 16  1  0
 16 17  2  0
  9 18  1  0
 18 19  2  0
 18 20  1  0
  6 21  1  0
 21 22  2  0
 22 23  1  0
 23 24  1  0
 22  3  1  0
 20  7  1  0
 17 12  1  0
  1 25  1  0
  1 26  1  0
  1 27  1  0
  4 28  1  0
  5 29  1  0
 10 30  1  0
 10 31  1  0
 11 32  1  0
 13 33  1  0
 14 34  1  0
 15 35  1  0
 16 36  1  0
 17 37  1  0
 21 38  1  0
 24 39  1  0
 24 40  1  0
 24 41  1  0
M  END
>  <UniqueID>  (15) 
14

>  <SMILES>  (15) 
COc1ccc(-c2nn(CNc3ccccc3)c(=S)o2)cc1OC

>  <Energy>  (15) 
78.0118354459142

>  <Genealogy>  (15) 
COc1ccc(-c2nn(CNc3ccccc3)c(=S)o2)cc1OC (3D coordinates assigned)
COc1ccc(-c2nn(CNc3ccccc3)c(=S)o2)cc1OC (optimized conformer: 78.0118354459142 kcal/mol)

>  <smiles>  (15) 
COc1ccc(-c2nn(CNc3ccccc3)c(=S)o2)cc1OC

>  <score_type>  (15) 
oracle

>  <origin>  (15) 
adgpu

>  <m_score__min__energy>  (15) 
-8.3599999999999994

>  <m_primary>  (15) 
energy

$$$$
15:0
     RDKit          3D

 39 40  0  0  0  0  0  0  0  0999 V2000
    0.1480   20.7610  -31.7410 C   0  0  0  0  0  0  0  0  0  0  0  0
   -0.0360   20.8900  -33.2520 C   0  0  0  0  0  0  0  0  0  0  0  0
   -1.4300   21.4150  -33.6180 C   0  0  0  0  0  0  0  0  0  0  0  0
   -2.2640   21.5790  -32.4290 N   0  0  0  0  0  0  0  0  0  0  0  0
   -3.1470   20.5520  -31.9580 C   0  0  0  0  0  0  0  0  0  0  0  0
   -3.1960   19.4360  -32.5430 O   0  0  0  0  0  0  0  0  0  0  0  0
   -4.0210   20.7940  -30.7610 C   0  0  0  0  0  0  0  0  0  0  0  0
   -4.8010   22.0420  -30.9230 N   0  0  0  0  0  0  0  0  0  0  0  0
   -6.0690   22.0120  -31.4660 C   0  0  0  0  0  0  0  0  0  0  0  0
   -6.7150   20.7540  -31.8830 C   0  0  0  0  0  0  0  0  0  0  0  0
   -7.9250   20.3480  -31.3000 C   0  0  0  0  0  0  0  0  0  0  0  0
   -8.5320   19.1550  -31.7030 C   0  0  0  0  0  0  0  0  0  0  0  0
   -7.9390   18.3660  -32.6950 C   0  0  0  0  0  0  0  0  0  0  0  0
   -6.7390   18.7740  -33.2890 C   0  0  0  0  0  0  0  0  0  0  0  0
   -5.9950   17.7860  -34.5320 Cl  0  0  0  0  0  0  0  0  0  0  0  0
   -6.1320   19.9700  -32.8890 C   0  0  0  0  0  0  0  0  0  0  0  0
   -6.7560   23.1660  -31.6640 N   0  0  0  0  0  0  0  0  0  0  0  0
   -6.2360   24.3690  -31.3290 C   0  0  0  0  0  0  0  0  0  0  0  0
   -4.9630   24.4450  -30.7730 C   0  0  0  0  0  0  0  0  0  0  0  0
   -4.4080   25.7170  -30.4220 N   0  0  0  0  0  0  0  0  0  0  0  0
   -4.2460   23.2540  -30.5800 C   0  0  0  0  0  0  0  0  0  0  0  0
   -3.0820   23.3120  -30.0940 O   0  0  0  0  0  0  0  0  0  0  0  0
   -0.6478   21.3189  -31.2258 H   0  0  0  0  0  0  0  0  0  0  0  0
    0.0966   19.7002  -31.4546 H   0  0  0  0  0  0  0  0  0  0  0  0
    1.1277   21.1710  -31.4546 H   0  0  0  0  0  0  0  0  0  0  0  0
    0.7200   21.5865  -33.6437 H   0  0  0  0  0  0  0  0  0  0  0  0
    0.0775   19.8895  -33.6949 H   0  0  0  0  0  0  0  0  0  0  0  0
   -1.3261   22.3883  -34.1200 H   0  0  0  0  0  0  0  0  0  0  0  0
   -1.9130   20.6841  -34.2831 H   0  0  0  0  0  0  0  0  0  0  0  0
   -2.2590   22.5060  -31.9470 H   0  0  0  0  0  0  0  0  0  0  0  0
   -4.7143   19.9481  -30.6438 H   0  0  0  0  0  0  0  0  0  0  0  0
   -3.3814   20.8910  -29.8713 H   0  0  0  0  0  0  0  0  0  0  0  0
   -8.3967   20.9695  -30.5246 H   0  0  0  0  0  0  0  0  0  0  0  0
   -9.4772   18.8359  -31.2396 H   0  0  0  0  0  0  0  0  0  0  0  0
   -8.4158   17.4254  -33.0079 H   0  0  0  0  0  0  0  0  0  0  0  0
   -5.1953   20.2958  -33.3649 H   0  0  0  0  0  0  0  0  0  0  0  0
   -6.8193   25.2865  -31.4961 H   0  0  0  0  0  0  0  0  0  0  0  0
   -3.5120   26.0550  -30.8390 H   0  0  0  0  0  0  0  0  0  0  0  0
   -4.8910   26.3370  -29.7330 H   0  0  0  0  0  0  0  0  0  0  0  0
  1  2  1  0
  2  3  1  0
  3  4  1  0
  4  5  1  0
  5  6  2  0
  5  7  1  0
  7  8  1  0
  8  9  1  0
  9 10  1  0
 10 11  2  0
 11 12  1  0
 12 13  2  0
 13 14  1  0
 14 15  1  0
 14 16  2  0
  9 17  2  0
 17 18  1  0
 18 19  2  0
 19 20  1  0
 19 21  1  0
 21 22  2  0
 21  8  1  0
 16 10  1  0
  1 23  1  0
  1 24  1  0
  1 25  1  0
  2 26  1  0
  2 27  1  0
  3 28  1  0
  3 29  1  0
  4 30  1  0
  7 31  1  0
  7 32  1  0
 11 33  1  0
 12 34  1  0
 13 35  1  0
 16 36  1  0
 18 37  1  0
 20 38  1  0
 20 39  1  0
M  END
>  <UniqueID>  (16) 
15

>  <SMILES>  (16) 
CCCNC(=O)Cn1c(-c2cccc(Cl)c2)ncc(N)c1=O

>  <Energy>  (16) 
42.22188131557075

>  <Genealogy>  (16) 
CCCNC(=O)Cn1c(-c2cccc(Cl)c2)ncc(N)c1=O (3D coordinates assigned)
CCCNC(=O)Cn1c(-c2cccc(Cl)c2)ncc(N)c1=O (optimized conformer: 42.22188131557075 kcal/mol)

>  <smiles>  (16) 
CCCNC(=O)Cn1c(-c2cccc(Cl)c2)ncc(N)c1=O

>  <score_type>  (16) 
oracle

>  <origin>  (16) 
adgpu

>  <m_score__min__energy>  (16) 
-7.2699999999999996

>  <m_primary>  (16) 
energy

$$$$
16:0
     RDKit          3D

 38 40  0  0  0  0  0  0  0  0999 V2000
   -9.0600   19.4010  -31.0750 O   0  0  0  0  0  0  0  0  0  0  0  0
   -8.2010   19.4750  -31.9940 C   0  0  0  0  0  0  0  0  0  0  0  0
   -7.6570   18.2010  -32.5830 C   0  0  0  0  0  0  0  0  0  0  0  0
   -6.1320   18.1630  -32.6420 C   0  0  0  0  0  0  0  0  0  0  0  0
   -5.5360   19.2810  -33.9500 S   0  0  0  0  0  0  0  0  0  0  0  0
   -5.4080   20.6980  -32.8580 C   0  0  0  0  0  0  0  0  0  0  0  0
   -4.1390   21.2120  -32.5670 C   0  0  0  0  0  0  0  0  0  0  0  0
   -4.0080   22.3670  -31.7920 C   0  0  0  0  0  0  0  0  0  0  0  0
   -5.1460   23.0200  -31.3070 C   0  0  0  0  0  0  0  0  0  0  0  0
   -4.9870   24.4850  -30.3410 S   0  0  0  0  0  0  0  0  0  0  0  0
   -6.2700   25.2680  -30.3790 O   0  0  0  0  0  0  0  0  0  0  0  0
   -3.8790   25.3270  -30.9070 O   0  0  0  0  0  0  0  0  0  0  0  0
   -4.6080   24.0780  -28.6940 N   0  0  0  0  0  0  0  0  0  0  0  0
   -3.1740   24.2310  -28.4630 C   0  0  0  0  0  0  0  0  0  0  0  0
   -2.4780   22.9550  -28.8360 C   0  0  0  0  0  0  0  0  0  0  0  0
   -2.9430   21.7250  -28.3390 C   0  0  0  0  0  0  0  0  0  0  0  0
   -2.3170   20.5320  -28.7140 C   0  0  0  0  0  0  0  0  0  0  0  0
   -1.2310   20.5570  -29.5950 C   0  0  0  0  0  0  0  0  0  0  0  0
   -0.6260   19.3990  -29.9580 F   0  0  0  0  0  0  0  0  0  0  0  0
   -0.7730   21.7760  -30.1070 C   0  0  0  0  0  0  0  0  0  0  0  0
   -1.3970   22.9710  -29.7350 C   0  0  0  0  0  0  0  0  0  0  0  0
   -6.4160   22.4910  -31.5750 C   0  0  0  0  0  0  0  0  0  0  0  0
   -6.5570   21.3200  -32.3360 C   0  0  0  0  0  0  0  0  0  0  0  0
   -7.8650   20.7640  -32.5280 N   0  0  0  0  0  0  0  0  0  0  0  0
   -8.0033   17.3570  -31.9684 H   0  0  0  0  0  0  0  0  0  0  0  0
   -8.0236   18.1394  -33.6183 H   0  0  0  0  0  0  0  0  0  0  0  0
   -5.7212   18.4831  -31.6731 H   0  0  0  0  0  0  0  0  0  0  0  0
   -5.8030   17.1371  -32.8640 H   0  0  0  0  0  0  0  0  0  0  0  0
   -3.2413   20.7045  -32.9500 H   0  0  0  0  0  0  0  0  0  0  0  0
   -3.0080   22.7637  -31.5627 H   0  0  0  0  0  0  0  0  0  0  0  0
   -2.7874   25.0555  -29.0800 H   0  0  0  0  0  0  0  0  0  0  0  0
   -2.9914   24.4564  -27.4019 H   0  0  0  0  0  0  0  0  0  0  0  0
   -3.8023   21.7008  -27.6527 H   0  0  0  0  0  0  0  0  0  0  0  0
   -2.6792   19.5728  -28.3156 H   0  0  0  0  0  0  0  0  0  0  0  0
    0.0788   21.7944  -30.8028 H   0  0  0  0  0  0  0  0  0  0  0  0
   -1.0409   23.9267  -30.1471 H   0  0  0  0  0  0  0  0  0  0  0  0
   -7.3108   22.9984  -31.1852 H   0  0  0  0  0  0  0  0  0  0  0  0
   -8.6550   21.4480  -32.5800 H   0  0  0  0  0  0  0  0  0  0  0  0
  1  2  2  0
  2  3  1  0
  3  4  1  0
  4  5  1  0
  5  6  1  0
  6  7  2  0
  7  8  1  0
  8  9  2  0
  9 10  1  0
 10 11  2  0
 10 12  2  0
 10 13  1  0
 13 14  1  0
 14 15  1  0
 15 16  2  0
 16 17  1  0
 17 18  2  0
 18 19  1  0
 18 20  1  0
 20 21  2  0
  9 22  1  0
 22 23  2  0
 23 24  1  0
 24  2  1  0
 23  6  1  0
 21 15  1  0
  3 25  1  0
  3 26  1  0
  4 27  1  0
  4 28  1  0
  7 29  1  0
  8 30  1  0
 14 31  1  0
 14 32  1  0
 16 33  1  0
 17 34  1  0
 20 35  1  0
 21 36  1  0
 22 37  1  0
 24 38  1  0
M  CHG  1  13  -1
M  END
>  <UniqueID>  (17) 
16

>  <SMILES>  (17) 
O=C1CCSc2ccc(S(=O)(=O)[N-]Cc3ccc(F)cc3)cc2N1

>  <Energy>  (17) 
47.657003330395824

>  <Genealogy>  (17) 
O=C1CCSc2ccc(S(=O)(=O)[N-]Cc3ccc(F)cc3)cc2N1 (protonated)
O=C1CCSc2ccc(S(=O)(=O)[N-]Cc3ccc(F)cc3)cc2N1 (3D coordinates assigned)
O=C1CCSc2ccc(S(=O)(=O)[N-]Cc3ccc(F)cc3)cc2N1 (nonaromatic ring conformer: 47.657003330395824 kcal/mol)

>  <smiles>  (17) 
O=C1CCSc2ccc(S(=O)(=O)NCc3ccc(F)cc3)cc2N1

>  <score_type>  (17) 
oracle

>  <origin>  (17) 
adgpu

>  <m_score__min__energy>  (17) 
-8.5399999999999991

>  <m_primary>  (17) 
energy

$$$$
17:0
     RDKit          3D

 23 25  0  0  0  0  0  0  0  0999 V2000
   -3.5340   17.3060  -34.3880 C   0  0  0  0  0  0  0  0  0  0  0  0
   -4.5330   18.2950  -33.8530 C   0  0  0  0  0  0  0  0  0  0  0  0
   -4.1080   19.5770  -33.4670 C   0  0  0  0  0  0  0  0  0  0  0  0
   -5.0220   20.5090  -32.9670 C   0  0  0  0  0  0  0  0  0  0  0  0
   -4.5920   21.7240  -32.6080 O   0  0  0  0  0  0  0  0  0  0  0  0
   -5.4030   22.6630  -32.1230 C   0  0  0  0  0  0  0  0  0  0  0  0
   -4.9430   23.7890  -31.8010 O   0  0  0  0  0  0  0  0  0  0  0  0
   -6.7570   22.3770  -31.9820 C   0  0  0  0  0  0  0  0  0  0  0  0
   -7.9900   23.3620  -31.4060 S   0  0  0  0  0  0  0  0  0  0  0  0
   -9.2060   22.2070  -31.6040 C   0  0  0  0  0  0  0  0  0  0  0  0
   -8.6510   21.0390  -32.1230 C   0  0  0  0  0  0  0  0  0  0  0  0
   -7.2640   21.1400  -32.3370 C   0  0  0  0  0  0  0  0  0  0  0  0
   -6.3930   20.1610  -32.8460 C   0  0  0  0  0  0  0  0  0  0  0  0
   -6.8160   18.8770  -33.2320 C   0  0  0  0  0  0  0  0  0  0  0  0
   -5.8950   17.9490  -33.7310 C   0  0  0  0  0  0  0  0  0  0  0  0
   -6.4800   16.3560  -34.2000 Cl  0  0  0  0  0  0  0  0  0  0  0  0
   -3.0283   16.8054  -33.5492 H   0  0  0  0  0  0  0  0  0  0  0  0
   -4.0534   16.5564  -35.0031 H   0  0  0  0  0  0  0  0  0  0  0  0
   -2.7897   17.8329  -35.0031 H   0  0  0  0  0  0  0  0  0  0  0  0
   -3.0464   19.8500  -33.5590 H   0  0  0  0  0  0  0  0  0  0  0  0
  -10.2689   22.3536  -31.3614 H   0  0  0  0  0  0  0  0  0  0  0  0
   -9.2356   20.1334  -32.3423 H   0  0  0  0  0  0  0  0  0  0  0  0
   -7.8768   18.6003  -33.1413 H   0  0  0  0  0  0  0  0  0  0  0  0
  1  2  1  0
  2  3  2  0
  3  4  1  0
  4  5  1  0
  5  6  1  0
  6  7  2  0
  6  8  1  0
  8  9  1  0
  9 10  1  0
 10 11  2  0
 11 12  1  0
 12 13  1  0
 13 14  1  0
 14 15  2  0
 15 16  1  0
 15  2  1  0
 13  4  2  0
 12  8  2  0
  1 17  1  0
  1 18  1  0
  1 19  1  0
  3 20  1  0
 10 21  1  0
 11 22  1  0
 14 23  1  0
M  END
>  <UniqueID>  (18) 
17

>  <SMILES>  (18) 
Cc1cc2oc(=O)c3sccc3c2cc1Cl

>  <Energy>  (18) 
63.34833438393417

>  <Genealogy>  (18) 
Cc1cc2oc(=O)c3sccc3c2cc1Cl (3D coordinates assigned)
Cc1cc2oc(=O)c3sccc3c2cc1Cl (optimized conformer: 63.34833438393417 kcal/mol)

>  <smiles>  (18) 
Cc1cc2oc(=O)c3sccc3c2cc1Cl

>  <score_type>  (18) 
oracle

>  <origin>  (18) 
adgpu

>  <m_score__min__energy>  (18) 
-7.0499999999999998

>  <m_primary>  (18) 
energy

$$$$
18:0
     RDKit          3D

 39 41  0  0  0  0  0  0  0  0999 V2000
    0.3200   27.5250  -26.5540 C   0  0  0  0  0  0  0  0  0  0  0  0
    0.1610   26.4490  -27.4740 O   0  0  0  0  0  0  0  0  0  0  0  0
   -0.9670   25.6170  -27.5310 C   0  0  0  0  0  0  0  0  0  0  0  0
   -1.9980   25.6780  -26.5740 C   0  0  0  0  0  0  0  0  0  0  0  0
   -3.1050   24.8320  -26.6800 C   0  0  0  0  0  0  0  0  0  0  0  0
   -3.1940   23.9190  -27.7330 C   0  0  0  0  0  0  0  0  0  0  0  0
   -2.1710   23.8390  -28.6910 C   0  0  0  0  0  0  0  0  0  0  0  0
   -2.2710   22.8740  -29.8150 C   0  0  0  0  0  0  0  0  0  0  0  0
   -1.4280   21.7560  -29.8450 C   0  0  0  0  0  0  0  0  0  0  0  0
   -1.5270   20.8330  -30.8800 C   0  0  0  0  0  0  0  0  0  0  0  0
   -2.4650   21.0300  -31.8890 C   0  0  0  0  0  0  0  0  0  0  0  0
   -3.2830   22.1280  -31.8820 N   0  0  0  0  0  0  0  0  0  0  0  0
   -4.2800   22.2770  -32.9540 C   0  0  0  0  0  0  0  0  0  0  0  0
   -5.4690   21.3930  -32.6870 C   0  0  0  0  0  0  0  0  0  0  0  0
   -5.4270   20.0270  -33.0070 C   0  0  0  0  0  0  0  0  0  0  0  0
   -6.5460   19.2180  -32.7920 C   0  0  0  0  0  0  0  0  0  0  0  0
   -7.7200   19.7640  -32.2600 C   0  0  0  0  0  0  0  0  0  0  0  0
   -9.1080   18.7150  -32.0060 Cl  0  0  0  0  0  0  0  0  0  0  0  0
   -7.7720   21.1320  -31.9450 C   0  0  0  0  0  0  0  0  0  0  0  0
   -9.2300   21.8600  -31.2810 Cl  0  0  0  0  0  0  0  0  0  0  0  0
   -6.6490   21.9410  -32.1610 C   0  0  0  0  0  0  0  0  0  0  0  0
   -3.2000   23.0500  -30.8650 C   0  0  0  0  0  0  0  0  0  0  0  0
   -3.9450   24.0700  -30.8730 O   0  0  0  0  0  0  0  0  0  0  0  0
   -1.0630   24.6990  -28.5840 C   0  0  0  0  0  0  0  0  0  0  0  0
    0.2630   27.1394  -25.5254 H   0  0  0  0  0  0  0  0  0  0  0  0
    1.2984   28.0019  -26.7131 H   0  0  0  0  0  0  0  0  0  0  0  0
   -0.4786   28.2645  -26.7131 H   0  0  0  0  0  0  0  0  0  0  0  0
   -1.9318   26.3933  -25.7410 H   0  0  0  0  0  0  0  0  0  0  0  0
   -3.9092   24.8853  -25.9314 H   0  0  0  0  0  0  0  0  0  0  0  0
   -4.0704   23.2590  -27.8122 H   0  0  0  0  0  0  0  0  0  0  0  0
   -0.6853   21.6077  -29.0472 H   0  0  0  0  0  0  0  0  0  0  0  0
   -0.8680   19.9525  -30.9012 H   0  0  0  0  0  0  0  0  0  0  0  0
   -2.5503   20.2944  -32.7024 H   0  0  0  0  0  0  0  0  0  0  0  0
   -4.6100   23.3253  -32.9997 H   0  0  0  0  0  0  0  0  0  0  0  0
   -3.8235   21.9840  -33.9110 H   0  0  0  0  0  0  0  0  0  0  0  0
   -4.5093   19.5914  -33.4289 H   0  0  0  0  0  0  0  0  0  0  0  0
   -6.5041   18.1476  -33.0419 H   0  0  0  0  0  0  0  0  0  0  0  0
   -6.6924   23.0127  -31.9168 H   0  0  0  0  0  0  0  0  0  0  0  0
   -0.2623   24.6498  -29.3366 H   0  0  0  0  0  0  0  0  0  0  0  0
  1  2  1  0
  2  3  1  0
  3  4  2  0
  4  5  1  0
  5  6  2  0
  6  7  1  0
  7  8  1  0
  8  9  2  0
  9 10  1  0
 10 11  2  0
 11 12  1  0
 12 13  1  0
 13 14  1  0
 14 15  2  0
 15 16  1  0
 16 17  2  0
 17 18  1  0
 17 19  1  0
 19 20  1  0
 19 21  2  0
 12 22  1  0
 22 23  2  0
  7 24  2  0
 24  3  1  0
 22  8  1  0
 21 14  1  0
  1 25  1  0
  1 26  1  0
  1 27  1  0
  4 28  1  0
  5 29  1  0
  6 30  1  0
  9 31  1  0
 10 32  1  0
 11 33  1  0
 13 34  1  0
 13 35  1  0
 15 36  1  0
 16 37  1  0
 21 38  1  0
 24 39  1  0
M  END
>  <UniqueID>  (19) 
18

>  <SMILES>  (19) 
COc1cccc(-c2cccn(Cc3ccc(Cl)c(Cl)c3)c2=O)c1

>  <Energy>  (19) 
50.156489067867305

>  <Genealogy>  (19) 
COc1cccc(-c2cccn(Cc3ccc(Cl)c(Cl)c3)c2=O)c1 (3D coordinates assigned)
COc1cccc(-c2cccn(Cc3ccc(Cl)c(Cl)c3)c2=O)c1 (optimized conformer: 50.156489067867305 kcal/mol)

>  <smiles>  (19) 
COc1cccc(-c2cccn(Cc3ccc(Cl)c(Cl)c3)c2=O)c1

>  <score_type>  (19) 
oracle

>  <origin>  (19) 
adgpu

>  <m_score__min__energy>  (19) 
-8.8599999999999994

>  <m_primary>  (19) 
energy

$$$$
19:0
     RDKit          3D

 27 28  0  0  0  0  0  0  0  0999 V2000
   -1.6950   25.1630  -28.4160 H   0  0  0  0  0  0  0  0  0  0  0  0
   -2.1650   25.2920  -29.3400 N   0  0  0  0  0  0  0  0  0  0  0  0
   -3.2190   24.6150  -29.6620 C   0  0  0  0  0  0  0  0  0  0  0  0
   -3.8570   24.7530  -30.8380 N   0  0  0  0  0  0  0  0  0  0  0  0
   -4.8750   23.9070  -30.8140 N   0  0  0  0  0  0  0  0  0  0  0  0
   -5.8570   23.7910  -31.8860 C   0  0  0  0  0  0  0  0  0  0  0  0
   -6.8274   24.1711  -31.5342 H   0  0  0  0  0  0  0  0  0  0  0  0
   -5.5187   24.3791  -32.7519 H   0  0  0  0  0  0  0  0  0  0  0  0
   -6.0040   22.3470  -32.2940 C   0  0  0  0  0  0  0  0  0  0  0  0
   -7.2570   21.7220  -32.1740 C   0  0  0  0  0  0  0  0  0  0  0  0
   -8.1230   22.2975  -31.8150 H   0  0  0  0  0  0  0  0  0  0  0  0
   -7.4090   20.3740  -32.5080 C   0  0  0  0  0  0  0  0  0  0  0  0
   -9.1190   19.5390  -32.3470 Br  0  0  0  0  0  0  0  0  0  0  0  0
   -6.3110   19.6370  -32.9530 C   0  0  0  0  0  0  0  0  0  0  0  0
   -6.4338   18.5771  -33.2203 H   0  0  0  0  0  0  0  0  0  0  0  0
   -5.0570   20.2410  -33.0600 C   0  0  0  0  0  0  0  0  0  0  0  0
   -4.1950   19.6525  -33.4073 H   0  0  0  0  0  0  0  0  0  0  0  0
   -4.8880   21.6000  -32.7260 C   0  0  0  0  0  0  0  0  0  0  0  0
   -3.6360   22.2320  -32.8090 O   0  0  0  0  0  0  0  0  0  0  0  0
   -2.5110   21.9060  -32.0010 C   0  0  0  0  0  0  0  0  0  0  0  0
   -2.7867   21.9859  -30.9391 H   0  0  0  0  0  0  0  0  0  0  0  0
   -2.1883   20.8774  -32.2196 H   0  0  0  0  0  0  0  0  0  0  0  0
   -1.6883   22.6027  -32.2196 H   0  0  0  0  0  0  0  0  0  0  0  0
   -4.9040   23.2450  -29.6380 C   0  0  0  0  0  0  0  0  0  0  0  0
   -5.6489   22.4910  -29.3435 H   0  0  0  0  0  0  0  0  0  0  0  0
   -3.8420   23.6730  -28.8670 C   0  0  0  0  0  0  0  0  0  0  0  0
   -3.5586   23.3418  -27.8571 H   0  0  0  0  0  0  0  0  0  0  0  0
  1  2  1  0
  2  3  2  0
  3  4  1  0
  4  5  1  0
  5  6  1  0
  6  7  1  0
  6  8  1  0
  6  9  1  0
  9 10  2  0
 10 11  1  0
 10 12  1  0
 12 13  1  0
 12 14  2  0
 14 15  1  0
 14 16  1  0
 16 17  1  0
 16 18  2  0
 18 19  1  0
 19 20  1  0
 20 21  1  0
 20 22  1  0
 20 23  1  0
  5 24  1  0
 24 25  1  0
 24 26  2  0
 26 27  1  0
 26  3  1  0
 18  9  1  0
M  CHG  1   4  -1
M  END
>  <UniqueID>  (20) 
19

>  <SMILES>  (20) 
[H]/N=c1\ccn(Cc2cc(Br)ccc2OC)[n-]1

>  <Energy>  (20) 
55.657050545622624

>  <Genealogy>  (20) 
COc1ccc(Br)cc1Cn1ccc(=N)[n-]1 (protonated)
[H]/N=c1\ccn(Cc2cc(Br)ccc2OC)[n-]1 (cis-trans isomerization)
[H]/N=c1\ccn(Cc2cc(Br)ccc2OC)[n-]1 (3D coordinates assigned)
[H]/N=c1\ccn(Cc2cc(Br)ccc2OC)[n-]1 (optimized conformer: 55.657050545622624 kcal/mol)

>  <smiles>  (20) 
COc1ccc(Br)cc1Cn1ccc(=N)[nH]1

>  <score_type>  (20) 
oracle

>  <origin>  (20) 
adgpu

>  <m_score__min__energy>  (20) 
-8.4900000000000002

>  <m_primary>  (20) 
energy

$$$$
20:0
     RDKit          3D

 26 27  0  0  0  0  0  0  0  0999 V2000
   -0.4010   21.9640  -27.5760 C   0  0  0  0  0  0  0  0  0  0  0  0
   -0.1960   22.7240  -28.8830 C   0  0  0  0  0  0  0  0  0  0  0  0
   -1.4800   23.4020  -29.3230 C   0  0  0  0  0  0  0  0  0  0  0  0
   -1.7820   24.7360  -28.9480 C   0  0  0  0  0  0  0  0  0  0  0  0
   -0.8360   25.5740  -28.1390 C   0  0  0  0  0  0  0  0  0  0  0  0
   -2.9540   25.2990  -29.3460 N   0  0  0  0  0  0  0  0  0  0  0  0
   -3.8740   24.6300  -30.0860 C   0  0  0  0  0  0  0  0  0  0  0  0
   -5.0620   25.2680  -30.4610 C   0  0  0  0  0  0  0  0  0  0  0  0
   -6.0170   24.5830  -31.2180 C   0  0  0  0  0  0  0  0  0  0  0  0
   -5.7880   23.2590  -31.6020 C   0  0  0  0  0  0  0  0  0  0  0  0
   -4.6040   22.6140  -31.2320 C   0  0  0  0  0  0  0  0  0  0  0  0
   -3.6340   23.2940  -30.4710 C   0  0  0  0  0  0  0  0  0  0  0  0
   -2.4300   22.6810  -30.0800 C   0  0  0  0  0  0  0  0  0  0  0  0
   -2.1970   21.4820  -30.4040 O   0  0  0  0  0  0  0  0  0  0  0  0
   -0.2189   22.6391  -26.7268 H   0  0  0  0  0  0  0  0  0  0  0  0
   -1.4331   21.5864  -27.5294 H   0  0  0  0  0  0  0  0  0  0  0  0
    0.3012   21.1186  -27.5294 H   0  0  0  0  0  0  0  0  0  0  0  0
    0.5825   23.4873  -28.7373 H   0  0  0  0  0  0  0  0  0  0  0  0
    0.1078   22.0085  -29.6613 H   0  0  0  0  0  0  0  0  0  0  0  0
   -1.0234   25.4080  -27.0679 H   0  0  0  0  0  0  0  0  0  0  0  0
    0.2000   25.2918  -28.3780 H   0  0  0  0  0  0  0  0  0  0  0  0
   -0.9911   26.6364  -28.3780 H   0  0  0  0  0  0  0  0  0  0  0  0
   -5.2445   26.3100  -30.1596 H   0  0  0  0  0  0  0  0  0  0  0  0
   -6.9497   25.0867  -31.5117 H   0  0  0  0  0  0  0  0  0  0  0  0
   -6.5416   22.7226  -32.1972 H   0  0  0  0  0  0  0  0  0  0  0  0
   -4.4297   21.5715  -31.5365 H   0  0  0  0  0  0  0  0  0  0  0  0
  1  2  1  0
  2  3  1  0
  3  4  2  0
  4  5  1  0
  4  6  1  0
  6  7  1  0
  7  8  2  0
  8  9  1  0
  9 10  2  0
 10 11  1  0
 11 12  2  0
 12 13  1  0
 13 14  2  0
 13  3  1  0
 12  7  1  0
  1 15  1  0
  1 16  1  0
  1 17  1  0
  2 18  1  0
  2 19  1  0
  5 20  1  0
  5 21  1  0
  5 22  1  0
  8 23  1  0
  9 24  1  0
 10 25  1  0
 11 26  1  0
M  CHG  1   6  -1
M  END
>  <UniqueID>  (21) 
20

>  <SMILES>  (21) 
CCc1c(C)[n-]c2ccccc2c1=O

>  <Energy>  (21) 
29.32547872602485

>  <Genealogy>  (21) 
CCc1c(C)[n-]c2ccccc2c1=O (protonated)
CCc1c(C)[n-]c2ccccc2c1=O (3D coordinates assigned)
CCc1c(C)[n-]c2ccccc2c1=O (optimized conformer: 29.32547872602485 kcal/mol)

>  <smiles>  (21) 
CCc1c(C)[nH]c2ccccc2c1=O

>  <score_type>  (21) 
oracle

>  <origin>  (21) 
adgpu

>  <m_score__min__energy>  (21) 
-6.8300000000000001

>  <m_primary>  (21) 
energy

$$$$
21:0
     RDKit          3D

 45 48  0  0  0  0  0  0  0  0999 V2000
    1.1388   28.2481  -22.3518 H   0  0  0  0  0  0  0  0  0  0  0  0
    0.8780   27.4340  -23.0440 C   0  0  0  0  0  0  0  0  0  0  0  0
   -0.4620   27.0870  -23.2420 C   0  0  0  0  0  0  0  0  0  0  0  0
   -1.2554   27.6324  -22.7100 H   0  0  0  0  0  0  0  0  0  0  0  0
   -0.7940   26.0470  -24.1160 C   0  0  0  0  0  0  0  0  0  0  0  0
   -1.8498   25.7837  -24.2773 H   0  0  0  0  0  0  0  0  0  0  0  0
    0.2110   25.3390  -24.7870 C   0  0  0  0  0  0  0  0  0  0  0  0
   -0.1630   24.3120  -25.6680 O   0  0  0  0  0  0  0  0  0  0  0  0
   -1.0390   24.4490  -26.7540 C   0  0  0  0  0  0  0  0  0  0  0  0
   -0.5060   24.7150  -28.0190 C   0  0  0  0  0  0  0  0  0  0  0  0
    0.5836   24.7974  -28.1457 H   0  0  0  0  0  0  0  0  0  0  0  0
   -1.3470   24.8770  -29.1240 C   0  0  0  0  0  0  0  0  0  0  0  0
   -0.9150   25.0607  -30.1188 H   0  0  0  0  0  0  0  0  0  0  0  0
   -2.7440   24.8060  -28.9690 C   0  0  0  0  0  0  0  0  0  0  0  0
   -3.6440   24.9290  -30.0830 N   0  0  0  0  0  0  0  0  0  0  0  0
   -4.5200   24.0520  -30.4820 C   0  0  0  0  0  0  0  0  0  0  0  0
   -4.6140   22.8250  -29.9010 N   0  0  0  0  0  0  0  0  0  0  0  0
   -5.4930   21.9150  -30.3240 N   0  0  0  0  0  0  0  0  0  0  0  0
   -6.3370   22.1580  -31.3650 C   0  0  0  0  0  0  0  0  0  0  0  0
   -7.3000   21.1070  -31.7860 C   0  0  0  0  0  0  0  0  0  0  0  0
   -8.6710   21.3870  -31.9370 C   0  0  0  0  0  0  0  0  0  0  0  0
   -9.0473   22.3995  -31.7290 H   0  0  0  0  0  0  0  0  0  0  0  0
   -9.5580   20.3890  -32.3490 C   0  0  0  0  0  0  0  0  0  0  0  0
  -10.6276   20.6191  -32.4633 H   0  0  0  0  0  0  0  0  0  0  0  0
   -9.0910   19.1010  -32.6160 C   0  0  0  0  0  0  0  0  0  0  0  0
   -9.7929   18.3206  -32.9452 H   0  0  0  0  0  0  0  0  0  0  0  0
   -7.7310   18.7990  -32.4660 C   0  0  0  0  0  0  0  0  0  0  0  0
   -7.2220   17.4260  -32.7950 C   0  0  0  0  0  0  0  0  0  0  0  0
   -7.0186   16.8774  -31.8635 H   0  0  0  0  0  0  0  0  0  0  0  0
   -7.9793   16.8849  -33.3813 H   0  0  0  0  0  0  0  0  0  0  0  0
   -6.2950   17.5093  -33.3813 H   0  0  0  0  0  0  0  0  0  0  0  0
   -6.8380   19.8070  -32.0700 C   0  0  0  0  0  0  0  0  0  0  0  0
   -5.7656   19.5792  -31.9805 H   0  0  0  0  0  0  0  0  0  0  0  0
   -6.2770   23.4080  -31.9980 C   0  0  0  0  0  0  0  0  0  0  0  0
   -6.9511   23.6382  -32.8362 H   0  0  0  0  0  0  0  0  0  0  0  0
   -5.3560   24.3560  -31.5560 C   0  0  0  0  0  0  0  0  0  0  0  0
   -5.2890   25.3363  -32.0504 H   0  0  0  0  0  0  0  0  0  0  0  0
   -3.2770   24.5290  -27.7030 C   0  0  0  0  0  0  0  0  0  0  0  0
   -4.3659   24.4368  -27.5772 H   0  0  0  0  0  0  0  0  0  0  0  0
   -2.4350   24.3690  -26.5990 C   0  0  0  0  0  0  0  0  0  0  0  0
   -2.8657   24.1797  -25.6047 H   0  0  0  0  0  0  0  0  0  0  0  0
    1.5560   25.7060  -24.5990 C   0  0  0  0  0  0  0  0  0  0  0  0
    2.3510   25.1728  -25.1409 H   0  0  0  0  0  0  0  0  0  0  0  0
    1.8850   26.7470  -23.7250 C   0  0  0  0  0  0  0  0  0  0  0  0
    2.9385   27.0250  -23.5738 H   0  0  0  0  0  0  0  0  0  0  0  0
  1  2  1  0
  2  3  2  0
  3  4  1  0
  3  5  1  0
  5  6  1  0
  5  7  2  0
  7  8  1  0
  8  9  1  0
  9 10  2  0
 10 11  1  0
 10 12  1  0
 12 13  1  0
 12 14  2  0
 14 15  1  0
 15 16  2  0
 16 17  1  0
 17 18  1  0
 18 19  2  0
 19 20  1  0
 20 21  2  0
 21 22  1  0
 21 23  1  0
 23 24  1  0
 23 25  2  0
 25 26  1  0
 25 27  1  0
 27 28  1  0
 28 29  1  0
 28 30  1  0
 28 31  1  0
 27 32  2  0
 32 33  1  0
 19 34  1  0
 34 35  1  0
 34 36  2  0
 36 37  1  0
 14 38  1  0
 38 39  1  0
 38 40  2  0
 40 41  1  0
  7 42  1  0
 42 43  1  0
 42 44  2  0
 44 45  1  0
 44  2  1  0
 40  9  1  0
 36 16  1  0
 32 20  1  0
M  CHG  1  17  -1
M  END
>  <UniqueID>  (22) 
21

>  <SMILES>  (22) 
Cc1cccc(-c2cc/c(=N/c3ccc(Oc4ccccc4)cc3)[n-]n2)c1

>  <Energy>  (22) 
67.35075480834259

>  <Genealogy>  (22) 
Cc1cccc(-c2ccc(=Nc3ccc(Oc4ccccc4)cc3)[n-]n2)c1 (protonated)
Cc1cccc(-c2cc/c(=N/c3ccc(Oc4ccccc4)cc3)[n-]n2)c1 (cis-trans isomerization)
Cc1cccc(-c2cc/c(=N/c3ccc(Oc4ccccc4)cc3)[n-]n2)c1 (3D coordinates assigned)
Cc1cccc(-c2cc/c(=N/c3ccc(Oc4ccccc4)cc3)[n-]n2)c1 (optimized conformer: 67.35075480834259 kcal/mol)

>  <smiles>  (22) 
Cc1cccc(-c2ccc(=Nc3ccc(Oc4ccccc4)cc3)[nH]n2)c1

>  <score_type>  (22) 
oracle

>  <origin>  (22) 
adgpu

>  <m_score__min__energy>  (22) 
-9.3300000000000001

>  <m_primary>  (22) 
energy

$$$$
22:0
     RDKit          3D

 31 33  0  0  0  0  0  0  0  0999 V2000
   -5.0660   27.0030  -30.3630 H   0  0  0  0  0  0  0  0  0  0  0  0
   -5.3910   26.1400  -30.8530 N   0  0  0  0  0  0  0  0  0  0  0  0
   -4.7660   25.0150  -30.7250 C   0  0  0  0  0  0  0  0  0  0  0  0
   -3.6610   24.9300  -29.9410 N   0  0  0  0  0  0  0  0  0  0  0  0
   -2.9850   23.7590  -29.7940 C   0  0  0  0  0  0  0  0  0  0  0  0
   -1.8000   23.7120  -28.9060 C   0  0  0  0  0  0  0  0  0  0  0  0
   -1.5150   22.5270  -28.2040 C   0  0  0  0  0  0  0  0  0  0  0  0
   -2.1753   21.6545  -28.3168 H   0  0  0  0  0  0  0  0  0  0  0  0
   -0.4000   22.4480  -27.3640 C   0  0  0  0  0  0  0  0  0  0  0  0
   -0.1820   21.5137  -26.8259 H   0  0  0  0  0  0  0  0  0  0  0  0
    0.4370   23.5550  -27.2080 C   0  0  0  0  0  0  0  0  0  0  0  0
    1.3179   23.4902  -26.5524 H   0  0  0  0  0  0  0  0  0  0  0  0
    0.1560   24.7440  -27.8840 C   0  0  0  0  0  0  0  0  0  0  0  0
    0.8154   25.6151  -27.7562 H   0  0  0  0  0  0  0  0  0  0  0  0
   -0.9600   24.8330  -28.7230 C   0  0  0  0  0  0  0  0  0  0  0  0
   -1.2390   26.0470  -29.3440 O   0  0  0  0  0  0  0  0  0  0  0  0
   -3.4560   22.6110  -30.4470 C   0  0  0  0  0  0  0  0  0  0  0  0
   -2.9434   21.6461  -30.3194 H   0  0  0  0  0  0  0  0  0  0  0  0
   -4.5930   22.7120  -31.2670 C   0  0  0  0  0  0  0  0  0  0  0  0
   -5.1380   21.5360  -31.9910 C   0  0  0  0  0  0  0  0  0  0  0  0
   -4.2950   20.6440  -32.6840 C   0  0  0  0  0  0  0  0  0  0  0  0
   -3.2079   20.8119  -32.6884 H   0  0  0  0  0  0  0  0  0  0  0  0
   -4.8310   19.5470  -33.3660 C   0  0  0  0  0  0  0  0  0  0  0  0
   -3.7690   18.4460  -34.2250 Cl  0  0  0  0  0  0  0  0  0  0  0  0
   -6.2110   19.3310  -33.3720 C   0  0  0  0  0  0  0  0  0  0  0  0
   -6.6294   18.4654  -33.9065 H   0  0  0  0  0  0  0  0  0  0  0  0
   -7.0600   20.2130  -32.7000 C   0  0  0  0  0  0  0  0  0  0  0  0
   -8.7930   19.9440  -32.7130 Cl  0  0  0  0  0  0  0  0  0  0  0  0
   -6.5280   21.3130  -32.0170 C   0  0  0  0  0  0  0  0  0  0  0  0
   -7.2017   22.0092  -31.4961 H   0  0  0  0  0  0  0  0  0  0  0  0
   -5.2200   23.9140  -31.3780 N   0  0  0  0  0  0  0  0  0  0  0  0
  1  2  1  0
  2  3  2  0
  3  4  1  0
  4  5  2  0
  5  6  1  0
  6  7  2  0
  7  8  1  0
  7  9  1  0
  9 10  1  0
  9 11  2  0
 11 12  1  0
 11 13  1  0
 13 14  1  0
 13 15  2  0
 15 16  1  0
  5 17  1  0
 17 18  1  0
 17 19  2  0
 19 20  1  0
 20 21  2  0
 21 22  1  0
 21 23  1  0
 23 24  1  0
 23 25  2  0
 25 26  1  0
 25 27  1  0
 27 28  1  0
 27 29  2  0
 29 30  1  0
 19 31  1  0
 31  3  1  0
 15  6  1  0
 29 20  1  0
M  CHG  2  16  -1  31  -1
M  END
>  <UniqueID>  (23) 
22

>  <SMILES>  (23) 
[H]/N=c1\nc(-c2ccccc2[O-])cc(-c2cc(Cl)cc(Cl)c2)[n-]1

>  <Energy>  (23) 
44.07443110081262

>  <Genealogy>  (23) 
N=c1nc(-c2ccccc2[O-])cc(-c2cc(Cl)cc(Cl)c2)[n-]1 (protonated)
[H]/N=c1\nc(-c2ccccc2[O-])cc(-c2cc(Cl)cc(Cl)c2)[n-]1 (cis-trans isomerization)
[H]/N=c1\nc(-c2ccccc2[O-])cc(-c2cc(Cl)cc(Cl)c2)[n-]1 (3D coordinates assigned)
[H]/N=c1\nc(-c2ccccc2[O-])cc(-c2cc(Cl)cc(Cl)c2)[n-]1 (optimized conformer: 44.07443110081262 kcal/mol)

>  <smiles>  (23) 
N=c1nc(-c2ccccc2O)cc(-c2cc(Cl)cc(Cl)c2)[nH]1

>  <score_type>  (23) 
oracle

>  <origin>  (23) 
adgpu

>  <m_score__min__energy>  (23) 
-13.119999999999999

>  <m_primary>  (23) 
energy

$$$$
23:0
     RDKit          3D

 48 51  0  0  0  0  0  0  0  0999 V2000
   -6.9780   23.6050  -31.2540 C   0  0  0  0  0  0  0  0  0  0  0  0
   -7.6870   22.3380  -31.6540 C   0  0  0  0  0  0  0  0  0  0  0  0
   -9.0950   22.3300  -31.6680 C   0  0  0  0  0  0  0  0  0  0  0  0
   -9.8040   21.1770  -32.0050 C   0  0  0  0  0  0  0  0  0  0  0  0
   -9.1200   20.0140  -32.3350 C   0  0  0  0  0  0  0  0  0  0  0  0
   -7.7250   19.9980  -32.3310 C   0  0  0  0  0  0  0  0  0  0  0  0
   -6.9850   21.1510  -32.0020 C   0  0  0  0  0  0  0  0  0  0  0  0
   -5.5030   21.0470  -32.0130 C   0  0  0  0  0  0  0  0  0  0  0  0
   -4.7770   20.4930  -33.0080 N   0  0  0  0  0  0  0  0  0  0  0  0
   -3.5010   20.6340  -32.5980 C   0  0  0  0  0  0  0  0  0  0  0  0
   -2.3380   20.2240  -33.4100 C   0  0  0  0  0  0  0  0  0  0  0  0
   -2.1540   18.8860  -33.7980 C   0  0  0  0  0  0  0  0  0  0  0  0
   -1.0440   18.5190  -34.5630 C   0  0  0  0  0  0  0  0  0  0  0  0
   -0.1140   19.4850  -34.9550 C   0  0  0  0  0  0  0  0  0  0  0  0
   -0.2960   20.8200  -34.5880 C   0  0  0  0  0  0  0  0  0  0  0  0
   -1.4070   21.1910  -33.8240 C   0  0  0  0  0  0  0  0  0  0  0  0
   -3.5010   21.2850  -31.3800 C   0  0  0  0  0  0  0  0  0  0  0  0
   -2.0910   21.8380  -30.4190 S   0  0  0  0  0  0  0  0  0  0  0  0
   -3.0780   22.9050  -29.3080 C   0  0  0  0  0  0  0  0  0  0  0  0
   -3.1180   24.3320  -29.7860 C   0  0  0  0  0  0  0  0  0  0  0  0
   -3.9060   24.6490  -30.7170 O   0  0  0  0  0  0  0  0  0  0  0  0
   -2.1540   25.2980  -29.3460 N   0  0  0  0  0  0  0  0  0  0  0  0
   -1.2860   25.1660  -28.2140 C   0  0  0  0  0  0  0  0  0  0  0  0
   -0.1900   24.2890  -28.2370 C   0  0  0  0  0  0  0  0  0  0  0  0
    0.6250   24.1460  -27.1110 C   0  0  0  0  0  0  0  0  0  0  0  0
    0.3360   24.8600  -25.9450 C   0  0  0  0  0  0  0  0  0  0  0  0
   -0.7730   25.7140  -25.9040 C   0  0  0  0  0  0  0  0  0  0  0  0
   -1.1440   26.5980  -24.4360 Cl  0  0  0  0  0  0  0  0  0  0  0  0
   -1.5870   25.8580  -27.0340 C   0  0  0  0  0  0  0  0  0  0  0  0
   -4.7440   21.5090  -31.0410 O   0  0  0  0  0  0  0  0  0  0  0  0
   -6.9399   23.6731  -30.1568 H   0  0  0  0  0  0  0  0  0  0  0  0
   -5.9543   23.5951  -31.6565 H   0  0  0  0  0  0  0  0  0  0  0  0
   -7.5219   24.4723  -31.6565 H   0  0  0  0  0  0  0  0  0  0  0  0
   -9.6443   23.2472  -31.4092 H   0  0  0  0  0  0  0  0  0  0  0  0
  -10.9039   21.1888  -32.0094 H   0  0  0  0  0  0  0  0  0  0  0  0
   -9.6790   19.1044  -32.5998 H   0  0  0  0  0  0  0  0  0  0  0  0
   -7.1940   19.0698  -32.5890 H   0  0  0  0  0  0  0  0  0  0  0  0
   -2.8878   18.1235  -33.4978 H   0  0  0  0  0  0  0  0  0  0  0  0
   -0.9022   17.4685  -34.8569 H   0  0  0  0  0  0  0  0  0  0  0  0
    0.7621   19.1938  -35.5531 H   0  0  0  0  0  0  0  0  0  0  0  0
    0.4351   21.5803  -34.9001 H   0  0  0  0  0  0  0  0  0  0  0  0
   -1.5526   22.2453  -33.5459 H   0  0  0  0  0  0  0  0  0  0  0  0
   -4.1061   22.5164  -29.2633 H   0  0  0  0  0  0  0  0  0  0  0  0
   -2.6045   22.8922  -28.3152 H   0  0  0  0  0  0  0  0  0  0  0  0
    0.0285   23.7109  -29.1470 H   0  0  0  0  0  0  0  0  0  0  0  0
    1.4936   23.4718  -27.1424 H   0  0  0  0  0  0  0  0  0  0  0  0
    0.9796   24.7512  -25.0596 H   0  0  0  0  0  0  0  0  0  0  0  0
   -2.4666   26.5174  -26.9949 H   0  0  0  0  0  0  0  0  0  0  0  0
  1  2  1  0
  2  3  2  0
  3  4  1  0
  4  5  2  0
  5  6  1  0
  6  7  2  0
  7  8  1  0
  8  9  2  0
  9 10  1  0
 10 11  1  0
 11 12  2  0
 12 13  1  0
 13 14  2  0
 14 15  1  0
 15 16  2  0
 10 17  2  0
 17 18  1  0
 18 19  1  0
 19 20  1  0
 20 21  2  0
 20 22  1  0
 22 23  1  0
 23 24  2  0
 24 25  1  0
 25 26  2  0
 26 27  1  0
 27 28  1  0
 27 29  2  0
 17 30  1  0
  7  2  1  0
 30  8  1  0
 16 11  1  0
 29 23  1  0
  1 31  1  0
  1 32  1  0
  1 33  1  0
  3 34  1  0
  4 35  1  0
  5 36  1  0
  6 37  1  0
 12 38  1  0
 13 39  1  0
 14 40  1  0
 15 41  1  0
 16 42  1  0
 19 43  1  0
 19 44  1  0
 24 45  1  0
 25 46  1  0
 26 47  1  0
 29 48  1  0
M  CHG  1  22  -1
M  END
>  <UniqueID>  (24) 
23

>  <SMILES>  (24) 
Cc1ccccc1-c1nc(-c2ccccc2)c(SCC(=O)[N-]c2cccc(Cl)c2)o1

>  <Energy>  (24) 
88.68240356017353

>  <Genealogy>  (24) 
Cc1ccccc1-c1nc(-c2ccccc2)c(SCC(=O)[N-]c2cccc(Cl)c2)o1 (protonated)
Cc1ccccc1-c1nc(-c2ccccc2)c(SCC(=O)[N-]c2cccc(Cl)c2)o1 (3D coordinates assigned)
Cc1ccccc1-c1nc(-c2ccccc2)c(SCC(=O)[N-]c2cccc(Cl)c2)o1 (optimized conformer: 88.68240356017353 kcal/mol)

>  <smiles>  (24) 
Cc1ccccc1-c1nc(-c2ccccc2)c(SCC(=O)Nc2cccc(Cl)c2)o1

>  <score_type>  (24) 
oracle

>  <origin>  (24) 
adgpu

>  <m_score__min__energy>  (24) 
-11.83

>  <m_primary>  (24) 
energy

$$$$
24:0
     RDKit          3D

 32 34  0  0  0  0  0  0  0  0999 V2000
   -0.1346   28.3726  -24.8663 H   0  0  0  0  0  0  0  0  0  0  0  0
   -0.5600   27.5960  -25.5190 C   0  0  0  0  0  0  0  0  0  0  0  0
   -0.1590   27.5090  -26.8540 C   0  0  0  0  0  0  0  0  0  0  0  0
    0.5777   28.2216  -27.2533 H   0  0  0  0  0  0  0  0  0  0  0  0
   -0.6920   26.5180  -27.6840 C   0  0  0  0  0  0  0  0  0  0  0  0
   -0.3810   26.4596  -28.7375 H   0  0  0  0  0  0  0  0  0  0  0  0
   -1.6250   25.5950  -27.1760 C   0  0  0  0  0  0  0  0  0  0  0  0
   -2.2170   24.5540  -28.0430 C   0  0  0  0  0  0  0  0  0  0  0  0
   -2.9740   24.9070  -29.1310 N   0  0  0  0  0  0  0  0  0  0  0  0
   -3.4210   23.8240  -29.8030 C   0  0  0  0  0  0  0  0  0  0  0  0
   -4.1950   23.9100  -30.8450 N   0  0  0  0  0  0  0  0  0  0  0  0
   -4.6870   22.8160  -31.6350 C   0  0  0  0  0  0  0  0  0  0  0  0
   -3.7670   22.0020  -32.3080 C   0  0  0  0  0  0  0  0  0  0  0  0
   -2.6919   22.2268  -32.2479 H   0  0  0  0  0  0  0  0  0  0  0  0
   -4.2070   20.9050  -33.0560 C   0  0  0  0  0  0  0  0  0  0  0  0
   -3.4798   20.2816  -33.5968 H   0  0  0  0  0  0  0  0  0  0  0  0
   -5.5700   20.6000  -33.1170 C   0  0  0  0  0  0  0  0  0  0  0  0
   -6.1220   19.2230  -34.0520 Cl  0  0  0  0  0  0  0  0  0  0  0  0
   -6.4930   21.3880  -32.4200 C   0  0  0  0  0  0  0  0  0  0  0  0
   -7.5649   21.1442  -32.4606 H   0  0  0  0  0  0  0  0  0  0  0  0
   -6.0540   22.4850  -31.6720 C   0  0  0  0  0  0  0  0  0  0  0  0
   -6.7800   23.0913  -31.1105 H   0  0  0  0  0  0  0  0  0  0  0  0
   -2.9110   22.4340  -29.0280 S   0  0  0  0  0  0  0  0  0  0  0  0
   -2.0840   23.2110  -27.8150 N   0  0  0  0  0  0  0  0  0  0  0  0
   -1.3980   22.5360  -26.7190 C   0  0  0  0  0  0  0  0  0  0  0  0
   -1.7810   22.9129  -25.7592 H   0  0  0  0  0  0  0  0  0  0  0  0
   -1.5777   21.4528  -26.7856 H   0  0  0  0  0  0  0  0  0  0  0  0
   -0.3179   22.7332  -26.7856 H   0  0  0  0  0  0  0  0  0  0  0  0
   -2.0380   25.7050  -25.8380 C   0  0  0  0  0  0  0  0  0  0  0  0
   -2.7878   25.0069  -25.4375 H   0  0  0  0  0  0  0  0  0  0  0  0
   -1.5010   26.6970  -25.0130 C   0  0  0  0  0  0  0  0  0  0  0  0
   -1.8203   26.7697  -23.9629 H   0  0  0  0  0  0  0  0  0  0  0  0
  1  2  1  0
  2  3  2  0
  3  4  1  0
  3  5  1  0
  5  6  1  0
  5  7  2  0
  7  8  1  0
  8  9  2  0
  9 10  1  0
 10 11  2  0
 11 12  1  0
 12 13  2  0
 13 14  1  0
 13 15  1  0
 15 16  1  0
 15 17  2  0
 17 18  1  0
 17 19  1  0
 19 20  1  0
 19 21  2  0
 21 22  1  0
 10 23  1  0
 23 24  1  0
 24 25  1  0
 25 26  1  0
 25 27  1  0
 25 28  1  0
  7 29  1  0
 29 30  1  0
 29 31  2  0
 31 32  1  0
 31  2  1  0
 24  8  1  0
 21 12  1  0
M  END
>  <UniqueID>  (25) 
24

>  <SMILES>  (25) 
Cn1s/c(=N\c2ccc(Cl)cc2)nc1-c1ccccc1

>  <Energy>  (25) 
85.22912156987736

>  <Genealogy>  (25) 
Cn1s/c(=N\c2ccc(Cl)cc2)nc1-c1ccccc1 (cis-trans isomerization)
Cn1s/c(=N\c2ccc(Cl)cc2)nc1-c1ccccc1 (3D coordinates assigned)
Cn1s/c(=N\c2ccc(Cl)cc2)nc1-c1ccccc1 (optimized conformer: 85.22912156987736 kcal/mol)

>  <smiles>  (25) 
Cn1sc(=Nc2ccc(Cl)cc2)nc1-c1ccccc1

>  <score_type>  (25) 
oracle

>  <origin>  (25) 
adgpu

>  <m_score__min__energy>  (25) 
-7.2800000000000002

>  <m_primary>  (25) 
energy

$$$$
25:0
     RDKit          3D

 17 17  0  0  0  0  0  0  0  0999 V2000
   -9.1020   18.5450  -31.9670 C   0  0  0  0  0  0  0  0  0  0  0  0
   -8.7600   19.6770  -32.8220 N   0  0  0  0  0  0  0  0  0  0  0  0
   -8.0350   20.8360  -32.3580 C   0  0  0  0  0  0  0  0  0  0  0  0
   -8.6950   21.8720  -31.6650 C   0  0  0  0  0  0  0  0  0  0  0  0
   -7.9900   22.9920  -31.2170 C   0  0  0  0  0  0  0  0  0  0  0  0
   -6.6180   23.0980  -31.4520 C   0  0  0  0  0  0  0  0  0  0  0  0
   -5.6580   24.6310  -30.8360 Br  0  0  0  0  0  0  0  0  0  0  0  0
   -5.9480   22.0810  -32.1350 C   0  0  0  0  0  0  0  0  0  0  0  0
   -6.6440   20.9540  -32.5890 C   0  0  0  0  0  0  0  0  0  0  0  0
   -5.7330   19.7130  -33.4430 Cl  0  0  0  0  0  0  0  0  0  0  0  0
   -9.0122   18.8422  -30.9117 H   0  0  0  0  0  0  0  0  0  0  0  0
  -10.1356   18.2295  -32.1724 H   0  0  0  0  0  0  0  0  0  0  0  0
   -8.4160   17.7100  -32.1724 H   0  0  0  0  0  0  0  0  0  0  0  0
   -9.0700   19.6210  -33.8170 H   0  0  0  0  0  0  0  0  0  0  0  0
   -9.7759   21.7975  -31.4753 H   0  0  0  0  0  0  0  0  0  0  0  0
   -8.5175   23.7925  -30.6776 H   0  0  0  0  0  0  0  0  0  0  0  0
   -4.8666   22.1657  -32.3176 H   0  0  0  0  0  0  0  0  0  0  0  0
  1  2  1  0
  2  3  1  0
  3  4  2  0
  4  5  1  0
  5  6  2  0
  6  7  1  0
  6  8  1  0
  8  9  2  0
  9 10  1  0
  9  3  1  0
  1 11  1  0
  1 12  1  0
  1 13  1  0
  2 14  1  0
  4 15  1  0
  5 16  1  0
  8 17  1  0
M  END
>  <UniqueID>  (26) 
25

>  <SMILES>  (26) 
CNc1ccc(Br)cc1Cl

>  <Energy>  (26) 
15.51504742658135

>  <Genealogy>  (26) 
CNc1ccc(Br)cc1Cl (3D coordinates assigned)
CNc1ccc(Br)cc1Cl (optimized conformer: 15.51504742658135 kcal/mol)

>  <smiles>  (26) 
CNc1ccc(Br)cc1Cl

>  <score_type>  (26) 
oracle

>  <origin>  (26) 
adgpu

>  <m_score__min__energy>  (26) 
-5.6699999999999999

>  <m_primary>  (26) 
energy

$$$$
26:0
     RDKit          3D

 29 30  0  0  0  0  0  0  0  0999 V2000
   -2.8860   23.7530  -28.3280 C   0  0  0  0  0  0  0  0  0  0  0  0
   -2.5920   24.9190  -29.2100 C   0  0  0  0  0  0  0  0  0  0  0  0
   -1.5880   25.6420  -28.9710 O   0  0  0  0  0  0  0  0  0  0  0  0
   -3.5150   25.2640  -30.2500 N   0  0  0  0  0  0  0  0  0  0  0  0
   -4.6040   24.4600  -30.7270 C   0  0  0  0  0  0  0  0  0  0  0  0
   -5.9380   24.9030  -30.6730 C   0  0  0  0  0  0  0  0  0  0  0  0
   -6.9680   24.0970  -31.1690 C   0  0  0  0  0  0  0  0  0  0  0  0
   -6.6850   22.8450  -31.7260 C   0  0  0  0  0  0  0  0  0  0  0  0
   -7.7450   22.0740  -32.2240 O   0  0  0  0  0  0  0  0  0  0  0  0
   -7.7610   20.6740  -32.3110 C   0  0  0  0  0  0  0  0  0  0  0  0
   -8.7100   19.9640  -31.5620 C   0  0  0  0  0  0  0  0  0  0  0  0
   -8.7470   18.5670  -31.6110 C   0  0  0  0  0  0  0  0  0  0  0  0
   -7.8290   17.8690  -32.3990 C   0  0  0  0  0  0  0  0  0  0  0  0
   -6.8660   18.5670  -33.1340 C   0  0  0  0  0  0  0  0  0  0  0  0
   -6.8270   19.9640  -33.0880 C   0  0  0  0  0  0  0  0  0  0  0  0
   -5.3480   22.4210  -31.8180 C   0  0  0  0  0  0  0  0  0  0  0  0
   -4.3170   23.2260  -31.3230 C   0  0  0  0  0  0  0  0  0  0  0  0
   -2.8083   24.0611  -27.2749 H   0  0  0  0  0  0  0  0  0  0  0  0
   -3.9042   23.3885  -28.5293 H   0  0  0  0  0  0  0  0  0  0  0  0
   -2.1624   22.9493  -28.5293 H   0  0  0  0  0  0  0  0  0  0  0  0
   -6.1719   25.8865  -30.2393 H   0  0  0  0  0  0  0  0  0  0  0  0
   -8.0086   24.4502  -31.1208 H   0  0  0  0  0  0  0  0  0  0  0  0
   -9.4291   20.5087  -30.9326 H   0  0  0  0  0  0  0  0  0  0  0  0
   -9.5003   18.0169  -31.0280 H   0  0  0  0  0  0  0  0  0  0  0  0
   -7.8637   16.7704  -32.4413 H   0  0  0  0  0  0  0  0  0  0  0  0
   -6.1385   18.0168  -33.7489 H   0  0  0  0  0  0  0  0  0  0  0  0
   -6.0634   20.5100  -33.6613 H   0  0  0  0  0  0  0  0  0  0  0  0
   -5.1116   21.4518  -32.2814 H   0  0  0  0  0  0  0  0  0  0  0  0
   -3.2735   22.8873  -31.4025 H   0  0  0  0  0  0  0  0  0  0  0  0
  1  2  1  0
  2  3  2  0
  2  4  1  0
  4  5  1  0
  5  6  2  0
  6  7  1  0
  7  8  2  0
  8  9  1  0
  9 10  1  0
 10 11  2  0
 11 12  1  0
 12 13  2  0
 13 14  1  0
 14 15  2  0
  8 16  1  0
 16 17  2  0
 17  5  1  0
 15 10  1  0
  1 18  1  0
  1 19  1  0
  1 20  1  0
  6 21  1  0
  7 22  1  0
 11 23  1  0
 12 24  1  0
 13 25  1  0
 14 26  1  0
 15 27  1  0
 16 28  1  0
 17 29  1  0
M  CHG  1   4  -1
M  END
>  <UniqueID>  (27) 
26

>  <SMILES>  (27) 
CC(=O)[N-]c1ccc(Oc2ccccc2)cc1

>  <Energy>  (27) 
37.61688749578025

>  <Genealogy>  (27) 
CC(=O)[N-]c1ccc(Oc2ccccc2)cc1 (protonated)
CC(=O)[N-]c1ccc(Oc2ccccc2)cc1 (3D coordinates assigned)
CC(=O)[N-]c1ccc(Oc2ccccc2)cc1 (optimized conformer: 37.61688749578025 kcal/mol)

>  <smiles>  (27) 
CC(=O)Nc1ccc(Oc2ccccc2)cc1

>  <score_type>  (27) 
oracle

>  <origin>  (27) 
adgpu

>  <m_score__min__energy>  (27) 
-9.0399999999999991

>  <m_primary>  (27) 
energy

$$$$
27:0
     RDKit          3D

 26 27  0  0  0  0  0  0  0  0999 V2000
   -5.7190   25.1900  -28.9290 O   0  0  0  0  0  0  0  0  0  0  0  0
   -5.3040   24.8590  -30.3350 S   0  0  0  0  0  0  0  0  0  0  0  0
   -5.5900   26.0410  -31.2180 O   0  0  0  0  0  0  0  0  0  0  0  0
   -3.5980   24.5300  -30.3580 N   0  0  0  0  0  0  0  0  0  0  0  0
   -2.9770   23.5890  -29.7010 C   0  0  0  0  0  0  0  0  0  0  0  0
   -3.6560   22.6810  -28.8620 C   0  0  0  0  0  0  0  0  0  0  0  0
   -2.9330   21.7010  -28.1810 C   0  0  0  0  0  0  0  0  0  0  0  0
   -1.5500   21.6230  -28.3350 C   0  0  0  0  0  0  0  0  0  0  0  0
   -0.6310   20.3950  -27.4830 Cl  0  0  0  0  0  0  0  0  0  0  0  0
   -0.9050   22.5320  -29.1740 C   0  0  0  0  0  0  0  0  0  0  0  0
   -1.6220   23.4850  -29.8320 N   0  0  0  0  0  0  0  0  0  0  0  0
   -6.2060   23.4460  -30.8750 C   0  0  0  0  0  0  0  0  0  0  0  0
   -5.7810   22.7340  -32.0050 C   0  0  0  0  0  0  0  0  0  0  0  0
   -6.4990   21.6160  -32.4420 C   0  0  0  0  0  0  0  0  0  0  0  0
   -7.6420   21.2030  -31.7490 C   0  0  0  0  0  0  0  0  0  0  0  0
   -8.6230   19.6770  -32.3470 Br  0  0  0  0  0  0  0  0  0  0  0  0
   -8.0650   21.9080  -30.6170 C   0  0  0  0  0  0  0  0  0  0  0  0
   -7.3490   23.0260  -30.1790 C   0  0  0  0  0  0  0  0  0  0  0  0
   -4.7479   22.7450  -28.7454 H   0  0  0  0  0  0  0  0  0  0  0  0
   -3.4543   20.9903  -27.5229 H   0  0  0  0  0  0  0  0  0  0  0  0
    0.1859   22.4789  -29.3045 H   0  0  0  0  0  0  0  0  0  0  0  0
   -1.1090   24.1520  -30.4520 H   0  0  0  0  0  0  0  0  0  0  0  0
   -4.8807   23.0552  -32.5494 H   0  0  0  0  0  0  0  0  0  0  0  0
   -6.1648   21.0612  -33.3311 H   0  0  0  0  0  0  0  0  0  0  0  0
   -8.9624   21.5821  -30.0707 H   0  0  0  0  0  0  0  0  0  0  0  0
   -7.6825   23.5770  -29.2873 H   0  0  0  0  0  0  0  0  0  0  0  0
  1  2  2  0
  2  3  2  0
  2  4  1  0
  4  5  2  3
  5  6  1  0
  6  7  2  0
  7  8  1  0
  8  9  1  0
  8 10  2  0
 10 11  1  0
  2 12  1  0
 12 13  2  0
 13 14  1  0
 14 15  2  0
 15 16  1  0
 15 17  1  0
 17 18  2  0
 11  5  1  0
 18 12  1  0
  6 19  1  0
  7 20  1  0
 10 21  1  0
 11 22  1  0
 13 23  1  0
 14 24  1  0
 17 25  1  0
 18 26  1  0
M  END
>  <UniqueID>  (28) 
27

>  <SMILES>  (28) 
O=S(=O)(N=c1ccc(Cl)c[nH]1)c1ccc(Br)cc1

>  <Energy>  (28) 
32.165034816405864

>  <Genealogy>  (28) 
O=S(=O)(N=c1ccc(Cl)c[nH]1)c1ccc(Br)cc1 (3D coordinates assigned)
O=S(=O)(N=c1ccc(Cl)c[nH]1)c1ccc(Br)cc1 (optimized conformer: 32.165034816405864 kcal/mol)

>  <smiles>  (28) 
O=S(=O)(N=c1ccc(Cl)c[nH]1)c1ccc(Br)cc1

>  <score_type>  (28) 
oracle

>  <origin>  (28) 
adgpu

>  <m_score__min__energy>  (28) 
-7.9900000000000002

>  <m_primary>  (28) 
energy

$$$$
28:0
     RDKit          3D

 42 44  0  0  0  0  0  0  0  0999 V2000
    1.1910   27.0760  -24.2240 C   0  0  0  0  0  0  0  0  0  0  0  0
   -0.5620   27.3240  -24.3920 S   0  0  0  0  0  0  0  0  0  0  0  0
   -1.2620   26.8060  -23.1680 O   0  0  0  0  0  0  0  0  0  0  0  0
   -0.8510   28.7920  -24.5290 O   0  0  0  0  0  0  0  0  0  0  0  0
   -1.1380   26.4670  -25.8180 C   0  0  0  0  0  0  0  0  0  0  0  0
   -0.4730   26.6050  -27.0410 C   0  0  0  0  0  0  0  0  0  0  0  0
   -0.9210   25.9150  -28.1710 C   0  0  0  0  0  0  0  0  0  0  0  0
   -2.0450   25.0720  -28.0930 C   0  0  0  0  0  0  0  0  0  0  0  0
   -2.5250   24.3290  -29.2840 C   0  0  0  0  0  0  0  0  0  0  0  0
   -3.2980   24.9000  -30.1000 O   0  0  0  0  0  0  0  0  0  0  0  0
   -2.0830   22.9860  -29.5420 N   0  0  0  0  0  0  0  0  0  0  0  0
   -2.7780   22.0670  -30.4030 C   0  0  0  0  0  0  0  0  0  0  0  0
   -4.1810   22.0540  -30.4800 C   0  0  0  0  0  0  0  0  0  0  0  0
   -4.8370   21.1370  -31.3070 C   0  0  0  0  0  0  0  0  0  0  0  0
   -4.1030   20.2060  -32.0640 C   0  0  0  0  0  0  0  0  0  0  0  0
   -4.7990   19.2310  -32.9430 C   0  0  0  0  0  0  0  0  0  0  0  0
   -6.1060   18.8040  -32.6410 C   0  0  0  0  0  0  0  0  0  0  0  0
   -6.7610   17.8860  -33.4700 C   0  0  0  0  0  0  0  0  0  0  0  0
   -6.1190   17.3860  -34.6050 C   0  0  0  0  0  0  0  0  0  0  0  0
   -4.8220   17.8020  -34.9150 C   0  0  0  0  0  0  0  0  0  0  0  0
   -4.1640   18.7200  -34.0900 C   0  0  0  0  0  0  0  0  0  0  0  0
   -2.7000   20.2090  -31.9680 C   0  0  0  0  0  0  0  0  0  0  0  0
   -2.0470   21.1260  -31.1410 C   0  0  0  0  0  0  0  0  0  0  0  0
   -2.6970   24.9230  -26.8550 C   0  0  0  0  0  0  0  0  0  0  0  0
   -2.2470   25.6160  -25.7280 C   0  0  0  0  0  0  0  0  0  0  0  0
    1.4554   27.0386  -23.1569 H   0  0  0  0  0  0  0  0  0  0  0  0
    1.4751   26.1287  -24.7056 H   0  0  0  0  0  0  0  0  0  0  0  0
    1.7267   27.9073  -24.7056 H   0  0  0  0  0  0  0  0  0  0  0  0
    0.4075   27.2603  -27.1138 H   0  0  0  0  0  0  0  0  0  0  0  0
   -0.3912   26.0318  -29.1279 H   0  0  0  0  0  0  0  0  0  0  0  0
   -1.1470   22.6980  -29.1770 H   0  0  0  0  0  0  0  0  0  0  0  0
   -4.7673   22.7702  -29.8856 H   0  0  0  0  0  0  0  0  0  0  0  0
   -5.9354   21.1437  -31.3660 H   0  0  0  0  0  0  0  0  0  0  0  0
   -6.6157   19.1943  -31.7478 H   0  0  0  0  0  0  0  0  0  0  0  0
   -7.7825   17.5580  -33.2273 H   0  0  0  0  0  0  0  0  0  0  0  0
   -6.6349   16.6642  -35.2552 H   0  0  0  0  0  0  0  0  0  0  0  0
   -4.3175   17.4071  -35.8091 H   0  0  0  0  0  0  0  0  0  0  0  0
   -3.1431   19.0447  -34.3396 H   0  0  0  0  0  0  0  0  0  0  0  0
   -2.1120   19.4833  -32.5489 H   0  0  0  0  0  0  0  0  0  0  0  0
   -0.9495   21.1095  -31.0683 H   0  0  0  0  0  0  0  0  0  0  0  0
   -3.5678   24.2558  -26.7737 H   0  0  0  0  0  0  0  0  0  0  0  0
   -2.7659   25.4927  -24.7660 H   0  0  0  0  0  0  0  0  0  0  0  0
  1  2  1  0
  2  3  2  0
  2  4  2  0
  2  5  1  0
  5  6  2  0
  6  7  1  0
  7  8  2  0
  8  9  1  0
  9 10  2  0
  9 11  1  0
 11 12  1  0
 12 13  2  0
 13 14  1  0
 14 15  2  0
 15 16  1  0
 16 17  2  0
 17 18  1  0
 18 19  2  0
 19 20  1  0
 20 21  2  0
 15 22  1  0
 22 23  2  0
  8 24  1  0
 24 25  2  0
 25  5  1  0
 23 12  1  0
 21 16  1  0
  1 26  1  0
  1 27  1  0
  1 28  1  0
  6 29  1  0
  7 30  1  0
 11 31  1  0
 13 32  1  0
 14 33  1  0
 17 34  1  0
 18 35  1  0
 19 36  1  0
 20 37  1  0
 21 38  1  0
 22 39  1  0
 23 40  1  0
 24 41  1  0
 25 42  1  0
M  END
>  <UniqueID>  (29) 
28

>  <SMILES>  (29) 
CS(=O)(=O)c1ccc(C(=O)Nc2ccc(-c3ccccc3)cc2)cc1

>  <Energy>  (29) 
52.8921701269902

>  <Genealogy>  (29) 
CS(=O)(=O)c1ccc(C(=O)Nc2ccc(-c3ccccc3)cc2)cc1 (3D coordinates assigned)
CS(=O)(=O)c1ccc(C(=O)Nc2ccc(-c3ccccc3)cc2)cc1 (optimized conformer: 52.8921701269902 kcal/mol)

>  <smiles>  (29) 
CS(=O)(=O)c1ccc(C(=O)Nc2ccc(-c3ccccc3)cc2)cc1

>  <score_type>  (29) 
oracle

>  <origin>  (29) 
adgpu

>  <m_score__min__energy>  (29) 
-8.8800000000000008

>  <m_primary>  (29) 
energy

$$$$
29:0
     RDKit          3D

 24 24  0  0  0  0  0  0  0  0999 V2000
   -7.6070   18.1550  -32.3300 C   0  0  0  0  0  0  0  0  0  0  0  0
   -6.7370   19.2750  -32.8910 C   0  0  0  0  0  0  0  0  0  0  0  0
   -7.2610   20.6210  -32.4650 C   0  0  0  0  0  0  0  0  0  0  0  0
   -8.6150   20.7820  -32.1400 C   0  0  0  0  0  0  0  0  0  0  0  0
   -9.0900   22.0230  -31.7130 C   0  0  0  0  0  0  0  0  0  0  0  0
   -8.2200   23.1110  -31.6010 C   0  0  0  0  0  0  0  0  0  0  0  0
   -6.8560   22.9620  -31.9160 C   0  0  0  0  0  0  0  0  0  0  0  0
   -5.9310   24.0130  -31.8170 O   0  0  0  0  0  0  0  0  0  0  0  0
   -5.0410   24.4200  -30.4120 S   0  0  0  0  0  0  0  0  0  0  0  0
   -6.0370   25.3140  -29.3160 N   0  0  0  0  0  0  0  0  0  0  0  0
   -3.8730   25.2750  -30.8150 O   0  0  0  0  0  0  0  0  0  0  0  0
   -4.5250   23.1750  -29.7450 O   0  0  0  0  0  0  0  0  0  0  0  0
   -6.3860   21.7120  -32.3380 C   0  0  0  0  0  0  0  0  0  0  0  0
   -7.5821   18.1870  -31.2307 H   0  0  0  0  0  0  0  0  0  0  0  0
   -8.6425   18.2861  -32.6773 H   0  0  0  0  0  0  0  0  0  0  0  0
   -7.2239   17.1841  -32.6773 H   0  0  0  0  0  0  0  0  0  0  0  0
   -5.7087   19.1539  -32.5195 H   0  0  0  0  0  0  0  0  0  0  0  0
   -6.7552   19.2202  -33.9895 H   0  0  0  0  0  0  0  0  0  0  0  0
   -9.3044   19.9287  -32.2216 H   0  0  0  0  0  0  0  0  0  0  0  0
  -10.1543   22.1453  -31.4634 H   0  0  0  0  0  0  0  0  0  0  0  0
   -8.6021   24.0865  -31.2658 H   0  0  0  0  0  0  0  0  0  0  0  0
   -6.3820   24.6500  -28.5880 H   0  0  0  0  0  0  0  0  0  0  0  0
   -5.4160   25.9970  -28.8270 H   0  0  0  0  0  0  0  0  0  0  0  0
   -5.3191   21.5833  -32.5727 H   0  0  0  0  0  0  0  0  0  0  0  0
  1  2  1  0
  2  3  1  0
  3  4  2  0
  4  5  1  0
  5  6  2  0
  6  7  1  0
  7  8  1  0
  8  9  1  0
  9 10  1  0
  9 11  2  0
  9 12  2  0
  7 13  2  0
 13  3  1  0
  1 14  1  0
  1 15  1  0
  1 16  1  0
  2 17  1  0
  2 18  1  0
  4 19  1  0
  5 20  1  0
  6 21  1  0
 10 22  1  0
 10 23  1  0
 13 24  1  0
M  END
>  <UniqueID>  (30) 
29

>  <SMILES>  (30) 
CCc1cccc(OS(N)(=O)=O)c1

>  <Energy>  (30) 
16.097274523294555

>  <Genealogy>  (30) 
CCc1cccc(OS(N)(=O)=O)c1 (3D coordinates assigned)
CCc1cccc(OS(N)(=O)=O)c1 (optimized conformer: 16.097274523294555 kcal/mol)

>  <smiles>  (30) 
CCc1cccc(OS(N)(=O)=O)c1

>  <score_type>  (30) 
oracle

>  <origin>  (30) 
adgpu

>  <m_score__min__energy>  (30) 
-7.0300000000000002

>  <m_primary>  (30) 
energy

$$$$
30:0
     RDKit          3D

 25 26  0  0  0  0  0  0  0  0999 V2000
   -4.0260   25.3090  -30.5600 O   0  0  0  0  0  0  0  0  0  0  0  0
   -3.7050   24.0920  -30.5280 C   0  0  0  0  0  0  0  0  0  0  0  0
   -4.2230   23.2170  -31.5410 N   0  0  0  0  0  0  0  0  0  0  0  0
   -5.5930   22.8180  -31.6960 C   0  0  0  0  0  0  0  0  0  0  0  0
   -6.6570   23.7010  -31.4370 C   0  0  0  0  0  0  0  0  0  0  0  0
   -7.9800   23.2730  -31.5880 C   0  0  0  0  0  0  0  0  0  0  0  0
   -8.2510   21.9600  -31.9810 C   0  0  0  0  0  0  0  0  0  0  0  0
   -7.1980   21.0690  -32.2170 C   0  0  0  0  0  0  0  0  0  0  0  0
   -7.5380   19.4170  -32.6990 Cl  0  0  0  0  0  0  0  0  0  0  0  0
   -5.8730   21.4960  -32.0670 C   0  0  0  0  0  0  0  0  0  0  0  0
   -2.8370   23.6010  -29.4320 C   0  0  0  0  0  0  0  0  0  0  0  0
   -2.9950   22.2860  -28.9650 C   0  0  0  0  0  0  0  0  0  0  0  0
   -2.2000   21.8050  -27.9190 C   0  0  0  0  0  0  0  0  0  0  0  0
   -2.4190   20.1660  -27.3330 Cl  0  0  0  0  0  0  0  0  0  0  0  0
   -1.2330   22.6300  -27.3390 C   0  0  0  0  0  0  0  0  0  0  0  0
   -1.0530   23.9320  -27.8100 C   0  0  0  0  0  0  0  0  0  0  0  0
   -1.8410   24.4200  -28.8590 C   0  0  0  0  0  0  0  0  0  0  0  0
   -1.6090   25.7050  -29.3350 O   0  0  0  0  0  0  0  0  0  0  0  0
   -6.4478   24.7317  -31.1146 H   0  0  0  0  0  0  0  0  0  0  0  0
   -8.8083   23.9712  -31.3970 H   0  0  0  0  0  0  0  0  0  0  0  0
   -9.2919   21.6266  -32.1049 H   0  0  0  0  0  0  0  0  0  0  0  0
   -5.0476   20.7901  -32.2413 H   0  0  0  0  0  0  0  0  0  0  0  0
   -3.7488   21.6298  -29.4246 H   0  0  0  0  0  0  0  0  0  0  0  0
   -0.6136   22.2538  -26.5114 H   0  0  0  0  0  0  0  0  0  0  0  0
   -0.2879   24.5777  -27.3543 H   0  0  0  0  0  0  0  0  0  0  0  0
  1  2  2  0
  2  3  1  0
  3  4  1  0
  4  5  2  0
  5  6  1  0
  6  7  2  0
  7  8  1  0
  8  9  1  0
  8 10  2  0
  2 11  1  0
 11 12  2  0
 12 13  1  0
 13 14  1  0
 13 15  2  0
 15 16  1  0
 16 17  2  0
 17 18  1  0
 10  4  1  0
 17 11  1  0
  5 19  1  0
  6 20  1  0
  7 21  1  0
 10 22  1  0
 12 23  1  0
 15 24  1  0
 16 25  1  0
M  CHG  2   3  -1  18  -1
M  END
>  <UniqueID>  (31) 
30

>  <SMILES>  (31) 
O=C([N-]c1cccc(Cl)c1)c1cc(Cl)ccc1[O-]

>  <Energy>  (31) 
34.262370555999176

>  <Genealogy>  (31) 
O=C([N-]c1cccc(Cl)c1)c1cc(Cl)ccc1[O-] (protonated)
O=C([N-]c1cccc(Cl)c1)c1cc(Cl)ccc1[O-] (3D coordinates assigned)
O=C([N-]c1cccc(Cl)c1)c1cc(Cl)ccc1[O-] (optimized conformer: 34.262370555999176 kcal/mol)

>  <smiles>  (31) 
O=C(Nc1cccc(Cl)c1)c1cc(Cl)ccc1O

>  <score_type>  (31) 
oracle

>  <origin>  (31) 
adgpu

>  <m_score__min__energy>  (31) 
-11.69

>  <m_primary>  (31) 
energy

$$$$
31:0
     RDKit          3D

 38 40  0  0  0  0  0  0  0  0999 V2000
   -9.3500   20.2870  -32.3670 C   0  0  0  0  0  0  0  0  0  0  0  0
   -8.0330   20.3720  -32.9010 O   0  0  0  0  0  0  0  0  0  0  0  0
   -6.9040   20.7930  -32.1800 C   0  0  0  0  0  0  0  0  0  0  0  0
   -6.9610   21.8800  -31.2850 C   0  0  0  0  0  0  0  0  0  0  0  0
   -5.8130   22.3100  -30.6040 C   0  0  0  0  0  0  0  0  0  0  0  0
   -5.8800   23.5010  -29.6850 C   0  0  0  0  0  0  0  0  0  0  0  0
   -4.5090   23.8230  -29.1430 C   0  0  0  0  0  0  0  0  0  0  0  0
   -4.0780   23.2560  -27.9370 C   0  0  0  0  0  0  0  0  0  0  0  0
   -2.8600   23.5740  -27.4320 N   0  0  0  0  0  0  0  0  0  0  0  0
   -2.0400   24.4450  -28.0730 C   0  0  0  0  0  0  0  0  0  0  0  0
   -0.5800   24.8000  -27.4270 S   0  0  0  0  0  0  0  0  0  0  0  0
   -2.4360   25.0210  -29.2410 N   0  0  0  0  0  0  0  0  0  0  0  0
   -3.6510   24.7320  -29.7850 C   0  0  0  0  0  0  0  0  0  0  0  0
   -3.9950   25.2850  -30.8650 O   0  0  0  0  0  0  0  0  0  0  0  0
   -4.5950   21.6580  -30.8310 C   0  0  0  0  0  0  0  0  0  0  0  0
   -4.5280   20.5750  -31.7070 C   0  0  0  0  0  0  0  0  0  0  0  0
   -5.6760   20.1230  -32.3770 C   0  0  0  0  0  0  0  0  0  0  0  0
   -5.5800   18.9940  -33.2670 N   0  0  0  0  0  0  0  0  0  0  0  0
   -6.5510   18.1120  -33.5860 C   0  0  0  0  0  0  0  0  0  0  0  0
   -6.1230   17.1500  -34.4310 N   0  0  0  0  0  0  0  0  0  0  0  0
   -4.8230   17.4440  -34.6270 C   0  0  0  0  0  0  0  0  0  0  0  0
   -3.9260   16.6900  -35.5500 C   0  0  0  0  0  0  0  0  0  0  0  0
   -4.4830   18.5770  -33.9210 C   0  0  0  0  0  0  0  0  0  0  0  0
   -9.3010   20.2902  -31.2681 H   0  0  0  0  0  0  0  0  0  0  0  0
   -9.9411   21.1489  -32.7102 H   0  0  0  0  0  0  0  0  0  0  0  0
   -9.8254   19.3563  -32.7102 H   0  0  0  0  0  0  0  0  0  0  0  0
   -7.9174   22.3974  -31.1186 H   0  0  0  0  0  0  0  0  0  0  0  0
   -6.2625   24.3685  -30.2428 H   0  0  0  0  0  0  0  0  0  0  0  0
   -6.5506   23.2671  -28.8450 H   0  0  0  0  0  0  0  0  0  0  0  0
   -4.7286   22.5514  -27.3983 H   0  0  0  0  0  0  0  0  0  0  0  0
   -1.8040   25.6960  -29.7290 H   0  0  0  0  0  0  0  0  0  0  0  0
   -3.6861   22.0018  -30.3156 H   0  0  0  0  0  0  0  0  0  0  0  0
   -3.5655   20.0695  -31.8748 H   0  0  0  0  0  0  0  0  0  0  0  0
   -7.5792   18.1708  -33.1994 H   0  0  0  0  0  0  0  0  0  0  0  0
   -3.2143   16.0917  -34.9622 H   0  0  0  0  0  0  0  0  0  0  0  0
   -4.5290   16.0236  -36.1842 H   0  0  0  0  0  0  0  0  0  0  0  0
   -3.3732   17.3986  -36.1842 H   0  0  0  0  0  0  0  0  0  0  0  0
   -3.4922   19.0542  -33.8970 H   0  0  0  0  0  0  0  0  0  0  0  0
  1  2  1  0
  2  3  1  0
  3  4  2  0
  4  5  1  0
  5  6  1  0
  6  7  1  0
  7  8  2  0
  8  9  1  0
  9 10  1  0
 10 11  2  0
 10 12  1  0
 12 13  1  0
 13 14  2  0
  5 15  2  0
 15 16  1  0
 16 17  2  0
 17 18  1  0
 18 19  1  0
 19 20  2  0
 20 21  1  0
 21 22  1  0
 21 23  2  0
 17  3  1  0
 23 18  1  0
 13  7  1  0
  1 24  1  0
  1 25  1  0
  1 26  1  0
  4 27  1  0
  6 28  1  0
  6 29  1  0
  8 30  1  0
 12 31  1  0
 15 32  1  0
 16 33  1  0
 19 34  1  0
 22 35  1  0
 22 36  1  0
 22 37  1  0
 23 38  1  0
M  CHG  1   9  -1
M  END
>  <UniqueID>  (32) 
31

>  <SMILES>  (32) 
COc1cc(Cc2c[n-]c(=S)[nH]c2=O)ccc1-n1cnc(C)c1

>  <Energy>  (32) 
73.14320466138707

>  <Genealogy>  (32) 
COc1cc(Cc2c[n-]c(=S)[nH]c2=O)ccc1-n1cnc(C)c1 (protonated)
COc1cc(Cc2c[n-]c(=S)[nH]c2=O)ccc1-n1cnc(C)c1 (3D coordinates assigned)
COc1cc(Cc2c[n-]c(=S)[nH]c2=O)ccc1-n1cnc(C)c1 (optimized conformer: 73.14320466138707 kcal/mol)

>  <smiles>  (32) 
COc1cc(Cc2c[nH]c(=S)[nH]c2=O)ccc1-n1cnc(C)c1

>  <score_type>  (32) 
oracle

>  <origin>  (32) 
adgpu

>  <m_score__min__energy>  (32) 
-9.3499999999999996

>  <m_primary>  (32) 
energy

$$$$
32:0
     RDKit          3D

 53 56  0  0  0  0  0  0  0  0999 V2000
    0.2362   20.6300  -30.3182 H   0  0  0  0  0  0  0  0  0  0  0  0
   -0.6590   20.8580  -29.7210 C   0  0  0  0  0  0  0  0  0  0  0  0
   -0.7840   20.3560  -28.4660 N   0  0  0  0  0  0  0  0  0  0  0  0
   -1.8780   20.6340  -27.7090 C   0  0  0  0  0  0  0  0  0  0  0  0
   -2.0020   20.0540  -26.3400 C   0  0  0  0  0  0  0  0  0  0  0  0
   -1.8335   20.8421  -25.5913 H   0  0  0  0  0  0  0  0  0  0  0  0
   -3.0102   19.6339  -26.2097 H   0  0  0  0  0  0  0  0  0  0  0  0
   -1.2537   19.2584  -26.2097 H   0  0  0  0  0  0  0  0  0  0  0  0
   -2.8710   21.4160  -28.2120 N   0  0  0  0  0  0  0  0  0  0  0  0
   -2.7990   21.9240  -29.4720 C   0  0  0  0  0  0  0  0  0  0  0  0
   -3.9000   22.7630  -29.9900 C   0  0  0  0  0  0  0  0  0  0  0  0
   -5.0490   22.1000  -30.4510 C   0  0  0  0  0  0  0  0  0  0  0  0
   -5.1528   21.0177  -30.2843 H   0  0  0  0  0  0  0  0  0  0  0  0
   -6.0640   22.7940  -31.1190 C   0  0  0  0  0  0  0  0  0  0  0  0
   -7.3010   22.0730  -31.6000 C   0  0  0  0  0  0  0  0  0  0  0  0
   -7.6944   21.4661  -30.7712 H   0  0  0  0  0  0  0  0  0  0  0  0
   -8.0149   22.8418  -31.9305 H   0  0  0  0  0  0  0  0  0  0  0  0
   -7.0550   21.1830  -32.7560 N   0  0  0  0  0  0  0  0  0  0  0  0
   -5.6360   20.9420  -33.0930 C   0  0  0  0  0  0  0  0  0  0  0  0
   -5.5496   20.8459  -34.1854 H   0  0  0  0  0  0  0  0  0  0  0  0
   -5.0624   21.7948  -32.7009 H   0  0  0  0  0  0  0  0  0  0  0  0
   -5.0520   19.6650  -32.4420 C   0  0  0  0  0  0  0  0  0  0  0  0
   -4.3310   19.2191  -33.1429 H   0  0  0  0  0  0  0  0  0  0  0  0
   -4.5879   19.9767  -31.4947 H   0  0  0  0  0  0  0  0  0  0  0  0
   -6.0590   18.6460  -32.1050 N   0  0  0  0  0  0  0  0  0  0  0  0
   -6.3980   18.8060  -31.1290 H   0  0  0  0  0  0  0  0  0  0  0  0
   -7.2000   18.6890  -33.0200 C   0  0  0  0  0  0  0  0  0  0  0  0
   -6.8386   18.5925  -34.0544 H   0  0  0  0  0  0  0  0  0  0  0  0
   -7.8819   17.8604  -32.7783 H   0  0  0  0  0  0  0  0  0  0  0  0
   -7.9570   20.0150  -32.8710 C   0  0  0  0  0  0  0  0  0  0  0  0
   -8.5998   20.1533  -33.7529 H   0  0  0  0  0  0  0  0  0  0  0  0
   -8.5435   19.9579  -31.9421 H   0  0  0  0  0  0  0  0  0  0  0  0
   -5.8800   24.1550  -31.3770 C   0  0  0  0  0  0  0  0  0  0  0  0
   -6.6294   24.7086  -31.9618 H   0  0  0  0  0  0  0  0  0  0  0  0
   -4.7790   24.7960  -30.9080 N   0  0  0  0  0  0  0  0  0  0  0  0
   -3.8050   24.1730  -30.1900 C   0  0  0  0  0  0  0  0  0  0  0  0
   -2.8480   24.9270  -29.7170 N   0  0  0  0  0  0  0  0  0  0  0  0
   -1.8330   24.6120  -28.7540 C   0  0  0  0  0  0  0  0  0  0  0  0
   -0.4920   24.4590  -29.1390 C   0  0  0  0  0  0  0  0  0  0  0  0
   -0.2036   24.5905  -30.1923 H   0  0  0  0  0  0  0  0  0  0  0  0
    0.4510   24.1480  -28.2090 N   0  0  0  0  0  0  0  0  0  0  0  0
    0.1310   23.9490  -26.8990 C   0  0  0  0  0  0  0  0  0  0  0  0
    1.1180   23.6490  -25.9580 O   0  0  0  0  0  0  0  0  0  0  0  0
    0.8580   23.5940  -24.5610 C   0  0  0  0  0  0  0  0  0  0  0  0
    1.7877   23.7907  -24.0070 H   0  0  0  0  0  0  0  0  0  0  0  0
    0.1067   24.3531  -24.2977 H   0  0  0  0  0  0  0  0  0  0  0  0
    0.4785   22.5957  -24.2977 H   0  0  0  0  0  0  0  0  0  0  0  0
   -1.2020   24.0430  -26.4900 C   0  0  0  0  0  0  0  0  0  0  0  0
   -1.4723   23.8685  -25.4381 H   0  0  0  0  0  0  0  0  0  0  0  0
   -2.1880   24.3600  -27.4260 C   0  0  0  0  0  0  0  0  0  0  0  0
   -3.2430   24.4114  -27.1187 H   0  0  0  0  0  0  0  0  0  0  0  0
   -1.6660   21.6630  -30.2530 C   0  0  0  0  0  0  0  0  0  0  0  0
   -1.5724   22.0842  -31.2649 H   0  0  0  0  0  0  0  0  0  0  0  0
  1  2  1  0
  2  3  2  0
  3  4  1  0
  4  5  1  0
  5  6  1  0
  5  7  1  0
  5  8  1  0
  4  9  2  0
  9 10  1  0
 10 11  1  0
 11 12  2  0
 12 13  1  0
 12 14  1  0
 14 15  1  0
 15 16  1  0
 15 17  1  0
 15 18  1  0
 18 19  1  0
 19 20  1  0
 19 21  1  0
 19 22  1  0
 22 23  1  0
 22 24  1  0
 22 25  1  0
 25 26  1  0
 25 27  1  0
 27 28  1  0
 27 29  1  0
 27 30  1  0
 30 31  1  0
 30 32  1  0
 14 33  2  0
 33 34  1  0
 33 35  1  0
 35 36  1  0
 36 37  2  0
 37 38  1  0
 38 39  2  0
 39 40  1  0
 39 41  1  0
 41 42  2  0
 42 43  1  0
 43 44  1  0
 44 45  1  0
 44 46  1  0
 44 47  1  0
 42 48  1  0
 48 49  1  0
 48 50  2  0
 50 51  1  0
 10 52  2  0
 52 53  1  0
 52  2  1  0
 36 11  1  0
 50 38  1  0
 30 18  1  0
M  CHG  1  35  -1
M  END
>  <UniqueID>  (33) 
32

>  <SMILES>  (33) 
COc1ccc(/N=c2/[n-]cc(CN3CCNCC3)cc2-c2ccnc(C)n2)cn1

>  <Energy>  (33) 
87.76740817283476

>  <Genealogy>  (33) 
COc1ccc(N=c2[n-]cc(CN3CCNCC3)cc2-c2ccnc(C)n2)cn1 (protonated)
COc1ccc(/N=c2/[n-]cc(CN3CCNCC3)cc2-c2ccnc(C)n2)cn1 (cis-trans isomerization)
COc1ccc(/N=c2/[n-]cc(CN3CCNCC3)cc2-c2ccnc(C)n2)cn1 (3D coordinates assigned)
COc1ccc(/N=c2/[n-]cc(CN3CCNCC3)cc2-c2ccnc(C)n2)cn1 (nonaromatic ring conformer: 87.76740817283476 kcal/mol)

>  <smiles>  (33) 
COc1ccc(N=c2[nH]cc(CN3CCNCC3)cc2-c2ccnc(C)n2)cn1

>  <score_type>  (33) 
oracle

>  <origin>  (33) 
adgpu

>  <m_score__min__energy>  (33) 
-10.720000000000001

>  <m_primary>  (33) 
energy

$$$$
33:0
     RDKit          3D

 37 40  0  0  0  0  0  0  0  0999 V2000
   -6.4410   16.2820  -33.6280 C   0  0  0  0  0  0  0  0  0  0  0  0
   -6.1430   17.3460  -34.1090 C   0  0  0  0  0  0  0  0  0  0  0  0
   -5.7810   18.6400  -34.6950 C   0  0  0  0  0  0  0  0  0  0  0  0
   -5.9130   19.6910  -33.6940 N   0  0  0  0  0  0  0  0  0  0  0  0
   -4.9150   20.2050  -32.9500 C   0  0  0  0  0  0  0  0  0  0  0  0
   -5.4380   21.2260  -32.1770 C   0  0  0  0  0  0  0  0  0  0  0  0
   -4.7220   22.1040  -31.2190 C   0  0  0  0  0  0  0  0  0  0  0  0
   -3.3350   21.9620  -31.0450 C   0  0  0  0  0  0  0  0  0  0  0  0
   -2.6430   22.7740  -30.1430 C   0  0  0  0  0  0  0  0  0  0  0  0
   -3.3190   23.7510  -29.3930 C   0  0  0  0  0  0  0  0  0  0  0  0
   -2.5660   24.6040  -28.4400 C   0  0  0  0  0  0  0  0  0  0  0  0
   -2.5930   24.3990  -27.0930 N   0  0  0  0  0  0  0  0  0  0  0  0
   -1.7990   25.3750  -26.6200 C   0  0  0  0  0  0  0  0  0  0  0  0
   -1.4720   25.6400  -25.2920 C   0  0  0  0  0  0  0  0  0  0  0  0
   -0.6170   26.7290  -25.0340 C   0  0  0  0  0  0  0  0  0  0  0  0
   -0.1210   27.5170  -26.0990 C   0  0  0  0  0  0  0  0  0  0  0  0
   -0.4750   27.2210  -27.4290 C   0  0  0  0  0  0  0  0  0  0  0  0
   -1.3200   26.1340  -27.6430 C   0  0  0  0  0  0  0  0  0  0  0  0
   -1.7930   25.6630  -28.8030 N   0  0  0  0  0  0  0  0  0  0  0  0
   -4.7050   23.9020  -29.5760 C   0  0  0  0  0  0  0  0  0  0  0  0
   -5.4000   23.0900  -30.4770 C   0  0  0  0  0  0  0  0  0  0  0  0
   -6.7290   23.3040  -30.6490 F   0  0  0  0  0  0  0  0  0  0  0  0
   -6.7790   21.2810  -32.5240 C   0  0  0  0  0  0  0  0  0  0  0  0
   -7.0420   20.3390  -33.4510 N   0  0  0  0  0  0  0  0  0  0  0  0
   -6.7130   15.3108  -33.1889 H   0  0  0  0  0  0  0  0  0  0  0  0
   -4.7402   18.6019  -35.0491 H   0  0  0  0  0  0  0  0  0  0  0  0
   -6.4526   18.8565  -35.5388 H   0  0  0  0  0  0  0  0  0  0  0  0
   -3.8669   19.8712  -32.9560 H   0  0  0  0  0  0  0  0  0  0  0  0
   -2.7884   21.2037  -31.6249 H   0  0  0  0  0  0  0  0  0  0  0  0
   -1.5574   22.6471  -30.0187 H   0  0  0  0  0  0  0  0  0  0  0  0
   -1.8677   25.0205  -24.4737 H   0  0  0  0  0  0  0  0  0  0  0  0
   -0.3333   26.9682  -23.9985 H   0  0  0  0  0  0  0  0  0  0  0  0
    0.5453   28.3661  -25.8866 H   0  0  0  0  0  0  0  0  0  0  0  0
   -0.0987   27.8251  -28.2677 H   0  0  0  0  0  0  0  0  0  0  0  0
   -1.6080   26.0500  -29.7550 H   0  0  0  0  0  0  0  0  0  0  0  0
   -5.2487   24.6680  -29.0035 H   0  0  0  0  0  0  0  0  0  0  0  0
   -7.5146   21.9847  -32.1071 H   0  0  0  0  0  0  0  0  0  0  0  0
  1  2  3  0
  2  3  1  0
  3  4  1  0
  4  5  1  0
  5  6  2  0
  6  7  1  0
  7  8  2  0
  8  9  1  0
  9 10  2  0
 10 11  1  0
 11 12  2  0
 12 13  1  0
 13 14  2  0
 14 15  1  0
 15 16  2  0
 16 17  1  0
 17 18  2  0
 18 19  1  0
 10 20  1  0
 20 21  2  0
 21 22  1  0
  6 23  1  0
 23 24  2  0
 24  4  1  0
 21  7  1  0
 19 11  1  0
 18 13  1  0
  1 25  1  0
  3 26  1  0
  3 27  1  0
  5 28  1  0
  8 29  1  0
  9 30  1  0
 14 31  1  0
 15 32  1  0
 16 33  1  0
 17 34  1  0
 19 35  1  0
 20 36  1  0
 23 37  1  0
M  END
>  <UniqueID>  (34) 
33

>  <SMILES>  (34) 
C#CCn1cc(-c2ccc(-c3nc4ccccc4[nH]3)cc2F)cn1

>  <Energy>  (34) 
109.98928439768216

>  <Genealogy>  (34) 
C#CCn1cc(-c2ccc(-c3nc4ccccc4[nH]3)cc2F)cn1 (3D coordinates assigned)
C#CCn1cc(-c2ccc(-c3nc4ccccc4[nH]3)cc2F)cn1 (optimized conformer: 109.98928439768216 kcal/mol)

>  <smiles>  (34) 
C#CCn1cc(-c2ccc(-c3nc4ccccc4[nH]3)cc2F)cn1

>  <score_type>  (34) 
oracle

>  <origin>  (34) 
adgpu

>  <m_score__min__energy>  (34) 
-8.0299999999999994

>  <m_primary>  (34) 
energy

$$$$
34:0
     RDKit          3D

 31 32  0  0  0  0  0  0  0  0999 V2000
   -7.4542   16.2496  -32.8960 H   0  0  0  0  0  0  0  0  0  0  0  0
   -7.2440   17.3290  -32.8700 C   0  0  0  0  0  0  0  0  0  0  0  0
   -5.9740   17.7950  -33.3480 N   0  0  0  0  0  0  0  0  0  0  0  0
   -4.7840   17.0290  -32.9880 C   0  0  0  0  0  0  0  0  0  0  0  0
   -4.7002   16.9750  -31.8925 H   0  0  0  0  0  0  0  0  0  0  0  0
   -4.8638   16.0123  -33.4001 H   0  0  0  0  0  0  0  0  0  0  0  0
   -3.8916   17.5227  -33.4001 H   0  0  0  0  0  0  0  0  0  0  0  0
   -5.9290   18.6020  -34.5680 C   0  0  0  0  0  0  0  0  0  0  0  0
   -5.8696   19.6674  -34.3009 H   0  0  0  0  0  0  0  0  0  0  0  0
   -5.0450   18.3226  -35.1601 H   0  0  0  0  0  0  0  0  0  0  0  0
   -6.8385   18.4226  -35.1601 H   0  0  0  0  0  0  0  0  0  0  0  0
   -8.1590   18.1340  -32.4060 N   0  0  0  0  0  0  0  0  0  0  0  0
   -9.0940   17.7260  -32.1790 H   0  0  0  0  0  0  0  0  0  0  0  0
   -7.9780   19.5370  -32.1460 C   0  0  0  0  0  0  0  0  0  0  0  0
   -6.5630   20.2860  -31.6220 S   0  0  0  0  0  0  0  0  0  0  0  0
   -7.2330   21.8230  -31.4150 C   0  0  0  0  0  0  0  0  0  0  0  0
   -6.4940   23.0270  -30.9550 C   0  0  0  0  0  0  0  0  0  0  0  0
   -5.0860   23.0590  -30.9980 C   0  0  0  0  0  0  0  0  0  0  0  0
   -4.5325   22.1861  -31.3745 H   0  0  0  0  0  0  0  0  0  0  0  0
   -4.3860   24.1890  -30.5670 C   0  0  0  0  0  0  0  0  0  0  0  0
   -3.2866   24.1997  -30.6022 H   0  0  0  0  0  0  0  0  0  0  0  0
   -5.0780   25.3040  -30.0920 C   0  0  0  0  0  0  0  0  0  0  0  0
   -4.5248   26.1928  -29.7543 H   0  0  0  0  0  0  0  0  0  0  0  0
   -6.4730   25.2900  -30.0460 C   0  0  0  0  0  0  0  0  0  0  0  0
   -7.0184   26.1684  -29.6706 H   0  0  0  0  0  0  0  0  0  0  0  0
   -7.1790   24.1620  -30.4760 C   0  0  0  0  0  0  0  0  0  0  0  0
   -8.2784   24.1605  -30.4401 H   0  0  0  0  0  0  0  0  0  0  0  0
   -8.5910   21.7440  -31.7330 C   0  0  0  0  0  0  0  0  0  0  0  0
   -9.2713   22.6068  -31.6796 H   0  0  0  0  0  0  0  0  0  0  0  0
   -9.0070   20.4660  -32.1260 C   0  0  0  0  0  0  0  0  0  0  0  0
  -10.0463   20.2234  -32.3923 H   0  0  0  0  0  0  0  0  0  0  0  0
  1  2  1  0
  2  3  1  0
  3  4  1  0
  4  5  1  0
  4  6  1  0
  4  7  1  0
  3  8  1  0
  8  9  1  0
  8 10  1  0
  8 11  1  0
  2 12  2  0
 12 13  1  0
 12 14  1  0
 14 15  1  0
 15 16  1  0
 16 17  1  0
 17 18  2  0
 18 19  1  0
 18 20  1  0
 20 21  1  0
 20 22  2  0
 22 23  1  0
 22 24  1  0
 24 25  1  0
 24 26  2  0
 26 27  1  0
 16 28  2  0
 28 29  1  0
 28 30  1  0
 30 31  1  0
 30 14  2  0
 26 17  1  0
M  CHG  1  12   1
M  END
>  <UniqueID>  (35) 
34

>  <SMILES>  (35) 
CN(C)/C=[NH+]\c1ccc(-c2ccccc2)s1

>  <Energy>  (35) 
66.06057613730081

>  <Genealogy>  (35) 
CN(C)C=[NH+]c1ccc(-c2ccccc2)s1 (protonated)
CN(C)/C=[NH+]\c1ccc(-c2ccccc2)s1 (cis-trans isomerization)
CN(C)/C=[NH+]\c1ccc(-c2ccccc2)s1 (3D coordinates assigned)
CN(C)/C=[NH+]\c1ccc(-c2ccccc2)s1 (optimized conformer: 66.06057613730081 kcal/mol)

>  <smiles>  (35) 
CN(C)C=Nc1ccc(-c2ccccc2)s1

>  <score_type>  (35) 
oracle

>  <origin>  (35) 
adgpu

>  <m_score__min__energy>  (35) 
-5.9500000000000002

>  <m_primary>  (35) 
energy

$$$$
35:0
     RDKit          3D

 39 40  0  0  0  0  0  0  0  0999 V2000
   -5.7120   26.0360  -30.3990 C   0  0  0  0  0  0  0  0  0  0  0  0
   -4.4950   25.3220  -30.7550 N   0  0  0  0  0  0  0  0  0  0  0  0
   -4.0090   24.1310  -30.1030 C   0  0  0  0  0  0  0  0  0  0  0  0
   -3.5660   24.2370  -28.7740 C   0  0  0  0  0  0  0  0  0  0  0  0
   -3.1000   23.1180  -28.0850 C   0  0  0  0  0  0  0  0  0  0  0  0
   -3.0790   21.8840  -28.7290 C   0  0  0  0  0  0  0  0  0  0  0  0
   -2.4450   20.3320  -27.8200 Br  0  0  0  0  0  0  0  0  0  0  0  0
   -3.5130   21.7820  -30.0100 N   0  0  0  0  0  0  0  0  0  0  0  0
   -3.9810   22.8520  -30.7160 C   0  0  0  0  0  0  0  0  0  0  0  0
   -4.4070   22.6610  -32.0400 O   0  0  0  0  0  0  0  0  0  0  0  0
   -5.0200   21.4810  -32.4900 C   0  0  0  0  0  0  0  0  0  0  0  0
   -4.2160   20.4750  -33.0540 C   0  0  0  0  0  0  0  0  0  0  0  0
   -4.7710   19.2780  -33.4960 C   0  0  0  0  0  0  0  0  0  0  0  0
   -6.1360   19.0620  -33.3690 C   0  0  0  0  0  0  0  0  0  0  0  0
   -6.9550   20.0400  -32.8030 C   0  0  0  0  0  0  0  0  0  0  0  0
   -6.4280   21.2800  -32.3560 C   0  0  0  0  0  0  0  0  0  0  0  0
   -7.3470   22.3530  -31.7110 C   0  0  0  0  0  0  0  0  0  0  0  0
   -7.0760   22.4030  -30.1950 C   0  0  0  0  0  0  0  0  0  0  0  0
   -8.8570   22.0470  -31.8990 C   0  0  0  0  0  0  0  0  0  0  0  0
   -7.0980   23.7460  -32.3410 C   0  0  0  0  0  0  0  0  0  0  0  0
   -5.7998   26.0875  -29.3037 H   0  0  0  0  0  0  0  0  0  0  0  0
   -5.6736   27.0548  -30.8121 H   0  0  0  0  0  0  0  0  0  0  0  0
   -6.5826   25.5054  -30.8121 H   0  0  0  0  0  0  0  0  0  0  0  0
   -3.9820   25.6680  -31.5980 H   0  0  0  0  0  0  0  0  0  0  0  0
   -3.5870   25.2149  -28.2708 H   0  0  0  0  0  0  0  0  0  0  0  0
   -2.7531   23.2092  -27.0451 H   0  0  0  0  0  0  0  0  0  0  0  0
   -3.1319   20.6366  -33.1473 H   0  0  0  0  0  0  0  0  0  0  0  0
   -4.1297   18.5052  -33.9448 H   0  0  0  0  0  0  0  0  0  0  0  0
   -6.5747   18.1149  -33.7163 H   0  0  0  0  0  0  0  0  0  0  0  0
   -8.0329   19.8457  -32.7010 H   0  0  0  0  0  0  0  0  0  0  0  0
   -8.0149   22.2298  -29.6488 H   0  0  0  0  0  0  0  0  0  0  0  0
   -6.3468   21.6242  -29.9270 H   0  0  0  0  0  0  0  0  0  0  0  0
   -6.6728   23.3907  -29.9270 H   0  0  0  0  0  0  0  0  0  0  0  0
   -9.3368   21.9498  -30.9140 H   0  0  0  0  0  0  0  0  0  0  0  0
   -9.3305   22.8674  -32.4581 H   0  0  0  0  0  0  0  0  0  0  0  0
   -8.9738   21.1069  -32.4581 H   0  0  0  0  0  0  0  0  0  0  0  0
   -6.9648   24.4910  -31.5427 H   0  0  0  0  0  0  0  0  0  0  0  0
   -6.1920   23.7101  -32.9638 H   0  0  0  0  0  0  0  0  0  0  0  0
   -7.9603   24.0262  -32.9638 H   0  0  0  0  0  0  0  0  0  0  0  0
  1  2  1  0
  2  3  1  0
  3  4  2  0
  4  5  1  0
  5  6  2  0
  6  7  1  0
  6  8  1  0
  8  9  2  0
  9 10  1  0
 10 11  1  0
 11 12  2  0
 12 13  1  0
 13 14  2  0
 14 15  1  0
 15 16  2  0
 16 17  1  0
 17 18  1  0
 17 19  1  0
 17 20  1  0
  9  3  1  0
 16 11  1  0
  1 21  1  0
  1 22  1  0
  1 23  1  0
  2 24  1  0
  4 25  1  0
  5 26  1  0
 12 27  1  0
 13 28  1  0
 14 29  1  0
 15 30  1  0
 18 31  1  0
 18 32  1  0
 18 33  1  0
 19 34  1  0
 19 35  1  0
 19 36  1  0
 20 37  1  0
 20 38  1  0
 20 39  1  0
M  END
>  <UniqueID>  (36) 
35

>  <SMILES>  (36) 
CNc1ccc(Br)nc1Oc1ccccc1C(C)(C)C

>  <Energy>  (36) 
50.038191290531095

>  <Genealogy>  (36) 
CNc1ccc(Br)nc1Oc1ccccc1C(C)(C)C (3D coordinates assigned)
CNc1ccc(Br)nc1Oc1ccccc1C(C)(C)C (optimized conformer: 50.038191290531095 kcal/mol)

>  <smiles>  (36) 
CNc1ccc(Br)nc1Oc1ccccc1C(C)(C)C

>  <score_type>  (36) 
oracle

>  <origin>  (36) 
adgpu

>  <m_score__min__energy>  (36) 
-7.8799999999999999

>  <m_primary>  (36) 
energy

$$$$
36:0
     RDKit          3D

 29 31  0  0  0  0  0  0  0  0999 V2000
   -5.7930   15.0620  -33.9150 C   0  0  0  0  0  0  0  0  0  0  0  0
   -6.4460   16.2330  -34.3910 O   0  0  0  0  0  0  0  0  0  0  0  0
   -6.4400   17.4690  -33.7260 C   0  0  0  0  0  0  0  0  0  0  0  0
   -5.3310   18.3610  -33.7920 C   0  0  0  0  0  0  0  0  0  0  0  0
   -5.3590   19.5930  -33.1120 C   0  0  0  0  0  0  0  0  0  0  0  0
   -6.5100   19.9130  -32.3940 C   0  0  0  0  0  0  0  0  0  0  0  0
   -6.8670   20.9890  -31.5940 C   0  0  0  0  0  0  0  0  0  0  0  0
   -6.0940   22.2170  -31.3190 C   0  0  0  0  0  0  0  0  0  0  0  0
   -6.7270   23.4690  -31.2200 C   0  0  0  0  0  0  0  0  0  0  0  0
   -5.9800   24.6180  -30.9440 C   0  0  0  0  0  0  0  0  0  0  0  0
   -4.5980   24.5280  -30.7540 C   0  0  0  0  0  0  0  0  0  0  0  0
   -3.8570   25.6710  -30.4820 O   0  0  0  0  0  0  0  0  0  0  0  0
   -3.9630   23.2850  -30.8320 C   0  0  0  0  0  0  0  0  0  0  0  0
   -4.7080   22.1330  -31.1050 C   0  0  0  0  0  0  0  0  0  0  0  0
   -8.0880   20.7400  -31.0590 N   0  0  0  0  0  0  0  0  0  0  0  0
   -8.5080   19.5610  -31.5050 N   0  0  0  0  0  0  0  0  0  0  0  0
   -7.5660   19.0500  -32.3110 C   0  0  0  0  0  0  0  0  0  0  0  0
   -7.5720   17.8210  -32.9660 C   0  0  0  0  0  0  0  0  0  0  0  0
   -5.7937   15.0633  -32.8150 H   0  0  0  0  0  0  0  0  0  0  0  0
   -6.3246   14.1713  -34.2810 H   0  0  0  0  0  0  0  0  0  0  0  0
   -4.7558   15.0461  -34.2810 H   0  0  0  0  0  0  0  0  0  0  0  0
   -4.4438   18.0840  -34.3804 H   0  0  0  0  0  0  0  0  0  0  0  0
   -4.5010   20.2805  -33.1461 H   0  0  0  0  0  0  0  0  0  0  0  0
   -7.8154   23.5445  -31.3604 H   0  0  0  0  0  0  0  0  0  0  0  0
   -6.4808   25.5950  -30.8762 H   0  0  0  0  0  0  0  0  0  0  0  0
   -2.8762   23.2128  -30.6785 H   0  0  0  0  0  0  0  0  0  0  0  0
   -4.2057   21.1555  -31.1524 H   0  0  0  0  0  0  0  0  0  0  0  0
   -9.4180   19.1200  -31.2460 H   0  0  0  0  0  0  0  0  0  0  0  0
   -8.4363   17.1446  -32.8918 H   0  0  0  0  0  0  0  0  0  0  0  0
  1  2  1  0
  2  3  1  0
  3  4  2  0
  4  5  1  0
  5  6  2  0
  6  7  1  0
  7  8  1  0
  8  9  2  0
  9 10  1  0
 10 11  2  0
 11 12  1  0
 11 13  1  0
 13 14  2  0
  7 15  2  0
 15 16  1  0
 16 17  1  0
 17 18  2  0
 18  3  1  0
 17  6  1  0
 14  8  1  0
  1 19  1  0
  1 20  1  0
  1 21  1  0
  4 22  1  0
  5 23  1  0
  9 24  1  0
 10 25  1  0
 13 26  1  0
 14 27  1  0
 16 28  1  0
 18 29  1  0
M  CHG  1  12  -1
M  END
>  <UniqueID>  (37) 
36

>  <SMILES>  (37) 
COc1ccc2c(-c3ccc([O-])cc3)n[nH]c2c1

>  <Energy>  (37) 
73.87823906222327

>  <Genealogy>  (37) 
COc1ccc2c(-c3ccc([O-])cc3)n[nH]c2c1 (protonated)
COc1ccc2c(-c3ccc([O-])cc3)n[nH]c2c1 (3D coordinates assigned)
COc1ccc2c(-c3ccc([O-])cc3)n[nH]c2c1 (optimized conformer: 73.87823906222327 kcal/mol)

>  <smiles>  (37) 
COc1ccc2c(-c3ccc(O)cc3)n[nH]c2c1

>  <score_type>  (37) 
oracle

>  <origin>  (37) 
adgpu

>  <m_score__min__energy>  (37) 
-10.119999999999999

>  <m_primary>  (37) 
energy

$$$$
37:0
     RDKit          3D

 53 56  0  0  0  0  0  0  0  0999 V2000
   -8.3372   21.3033  -31.9843 H   0  0  0  0  0  0  0  0  0  0  0  0
   -7.5860   20.5770  -32.3280 C   0  0  0  0  0  0  0  0  0  0  0  0
   -7.9140   19.2220  -32.4090 C   0  0  0  0  0  0  0  0  0  0  0  0
   -8.9207   18.8832  -32.1230 H   0  0  0  0  0  0  0  0  0  0  0  0
   -6.9590   18.2880  -32.8560 C   0  0  0  0  0  0  0  0  0  0  0  0
   -7.2420   16.9180  -32.9640 O   0  0  0  0  0  0  0  0  0  0  0  0
   -6.5740   16.0270  -33.8510 C   0  0  0  0  0  0  0  0  0  0  0  0
   -6.0144   15.2805  -33.2682 H   0  0  0  0  0  0  0  0  0  0  0  0
   -7.3144   15.5173  -34.4851 H   0  0  0  0  0  0  0  0  0  0  0  0
   -5.8771   16.5948  -34.4851 H   0  0  0  0  0  0  0  0  0  0  0  0
   -5.6790   18.7330  -33.2090 C   0  0  0  0  0  0  0  0  0  0  0  0
   -4.9318   18.0093  -33.5667 H   0  0  0  0  0  0  0  0  0  0  0  0
   -5.3370   20.0930  -33.1120 C   0  0  0  0  0  0  0  0  0  0  0  0
   -3.9500   20.5670  -33.4980 C   0  0  0  0  0  0  0  0  0  0  0  0
   -3.4192   19.7307  -33.9764 H   0  0  0  0  0  0  0  0  0  0  0  0
   -4.0832   21.4254  -34.1729 H   0  0  0  0  0  0  0  0  0  0  0  0
   -3.1370   21.0420  -32.3560 N   0  0  0  0  0  0  0  0  0  0  0  0
   -1.7170   20.6550  -32.4380 C   0  0  0  0  0  0  0  0  0  0  0  0
   -1.6031   19.6029  -32.1378 H   0  0  0  0  0  0  0  0  0  0  0  0
   -1.3569   20.7757  -33.4704 H   0  0  0  0  0  0  0  0  0  0  0  0
   -0.9030   21.5500  -31.4960 C   0  0  0  0  0  0  0  0  0  0  0  0
    0.0296   21.0337  -31.2246 H   0  0  0  0  0  0  0  0  0  0  0  0
   -0.6814   22.4955  -32.0126 H   0  0  0  0  0  0  0  0  0  0  0  0
   -1.6630   21.8490  -30.2710 N   0  0  0  0  0  0  0  0  0  0  0  0
   -1.4830   23.1010  -29.5780 C   0  0  0  0  0  0  0  0  0  0  0  0
   -0.3290   23.3170  -28.8870 N   0  0  0  0  0  0  0  0  0  0  0  0
   -0.1070   24.4680  -28.2050 C   0  0  0  0  0  0  0  0  0  0  0  0
    1.0860   24.6620  -27.4980 C   0  0  0  0  0  0  0  0  0  0  0  0
    1.8581   23.8786  -27.4923 H   0  0  0  0  0  0  0  0  0  0  0  0
    1.2920   25.8560  -26.7990 C   0  0  0  0  0  0  0  0  0  0  0  0
    2.2290   26.0114  -26.2441 H   0  0  0  0  0  0  0  0  0  0  0  0
    0.3100   26.8540  -26.8030 C   0  0  0  0  0  0  0  0  0  0  0  0
    0.4763   27.7900  -26.2495 H   0  0  0  0  0  0  0  0  0  0  0  0
   -0.8830   26.6630  -27.5100 C   0  0  0  0  0  0  0  0  0  0  0  0
   -1.6530   27.4485  -27.5152 H   0  0  0  0  0  0  0  0  0  0  0  0
   -1.0930   25.4700  -28.2100 C   0  0  0  0  0  0  0  0  0  0  0  0
   -2.2400   25.2670  -28.9060 N   0  0  0  0  0  0  0  0  0  0  0  0
   -2.4700   24.1150  -29.5960 C   0  0  0  0  0  0  0  0  0  0  0  0
   -3.5610   23.9510  -30.2890 N   0  0  0  0  0  0  0  0  0  0  0  0
   -4.6810   24.8400  -30.4500 C   0  0  0  0  0  0  0  0  0  0  0  0
   -4.4540   26.0340  -30.7810 O   0  0  0  0  0  0  0  0  0  0  0  0
   -6.1060   24.4150  -30.2480 C   0  0  0  0  0  0  0  0  0  0  0  0
   -6.3204   24.3511  -29.1710 H   0  0  0  0  0  0  0  0  0  0  0  0
   -6.7778   25.1519  -30.7125 H   0  0  0  0  0  0  0  0  0  0  0  0
   -6.2644   23.4305  -30.7125 H   0  0  0  0  0  0  0  0  0  0  0  0
   -2.7450   20.9390  -29.8760 C   0  0  0  0  0  0  0  0  0  0  0  0
   -2.3133   19.9686  -29.5897 H   0  0  0  0  0  0  0  0  0  0  0  0
   -3.2865   21.3830  -29.0277 H   0  0  0  0  0  0  0  0  0  0  0  0
   -3.7360   20.7280  -31.0380 C   0  0  0  0  0  0  0  0  0  0  0  0
   -4.0605   19.6769  -31.0390 H   0  0  0  0  0  0  0  0  0  0  0  0
   -4.5837   21.4118  -30.8838 H   0  0  0  0  0  0  0  0  0  0  0  0
   -6.3070   21.0130  -32.6820 C   0  0  0  0  0  0  0  0  0  0  0  0
   -6.0582   22.0829  -32.6236 H   0  0  0  0  0  0  0  0  0  0  0  0
  1  2  1  0
  2  3  2  0
  3  4  1  0
  3  5  1  0
  5  6  1  0
  6  7  1  0
  7  8  1  0
  7  9  1  0
  7 10  1  0
  5 11  2  0
 11 12  1  0
 11 13  1  0
 13 14  1  0
 14 15  1  0
 14 16  1  0
 14 17  1  0
 17 18  1  0
 18 19  1  0
 18 20  1  0
 18 21  1  0
 21 22  1  0
 21 23  1  0
 21 24  1  0
 24 25  1  0
 25 26  2  0
 26 27  1  0
 27 28  2  0
 28 29  1  0
 28 30  1  0
 30 31  1  0
 30 32  2  0
 32 33  1  0
 32 34  1  0
 34 35  1  0
 34 36  2  0
 36 37  1  0
 37 38  1  0
 38 39  2  0
 39 40  1  0
 40 41  2  0
 40 42  1  0
 42 43  1  0
 42 44  1  0
 42 45  1  0
 24 46  1  0
 46 47  1  0
 46 48  1  0
 46 49  1  0
 49 50  1  0
 49 51  1  0
 13 52  2  0
 52 53  1  0
 52  2  1  0
 49 17  1  0
 38 25  1  0
 36 27  1  0
M  CHG  1  37  -1
M  END
>  <UniqueID>  (38) 
37

>  <SMILES>  (38) 
COc1cccc(CN2CCN(c3nc4ccccc4[n-]/c3=N\C(C)=O)CC2)c1

>  <Energy>  (38) 
75.36433947783817

>  <Genealogy>  (38) 
COc1cccc(CN2CCN(c3nc4ccccc4[n-]c3=NC(C)=O)CC2)c1 (protonated)
COc1cccc(CN2CCN(c3nc4ccccc4[n-]/c3=N\C(C)=O)CC2)c1 (cis-trans isomerization)
COc1cccc(CN2CCN(c3nc4ccccc4[n-]/c3=N\C(C)=O)CC2)c1 (3D coordinates assigned)
COc1cccc(CN2CCN(c3nc4ccccc4[n-]/c3=N\C(C)=O)CC2)c1 (nonaromatic ring conformer: 75.36433947783817 kcal/mol)

>  <smiles>  (38) 
COc1cccc(CN2CCN(c3nc4ccccc4[nH]c3=NC(C)=O)CC2)c1

>  <score_type>  (38) 
oracle

>  <origin>  (38) 
adgpu

>  <m_score__min__energy>  (38) 
-10.57

>  <m_primary>  (38) 
energy

$$$$
38:0
     RDKit          3D

 28 30  0  0  0  0  0  0  0  0999 V2000
   -6.6620   17.1820  -33.1250 C   0  0  0  0  0  0  0  0  0  0  0  0
   -5.7570   18.0070  -33.7980 C   0  0  0  0  0  0  0  0  0  0  0  0
   -5.8390   19.3960  -33.6680 C   0  0  0  0  0  0  0  0  0  0  0  0
   -6.8350   19.9690  -32.8600 C   0  0  0  0  0  0  0  0  0  0  0  0
   -6.9270   21.3620  -32.7200 C   0  0  0  0  0  0  0  0  0  0  0  0
   -7.9290   21.9300  -31.9170 C   0  0  0  0  0  0  0  0  0  0  0  0
   -7.9970   23.4210  -31.7340 C   0  0  0  0  0  0  0  0  0  0  0  0
   -6.7700   23.9010  -31.1080 N   0  0  0  0  0  0  0  0  0  0  0  0
   -6.6610   24.5500  -29.9380 C   0  0  0  0  0  0  0  0  0  0  0  0
   -5.3380   24.8920  -29.7680 C   0  0  0  0  0  0  0  0  0  0  0  0
   -4.6220   24.4740  -30.8330 N   0  0  0  0  0  0  0  0  0  0  0  0
   -5.5290   23.8780  -31.6320 C   0  0  0  0  0  0  0  0  0  0  0  0
   -8.8240   21.0950  -31.2320 C   0  0  0  0  0  0  0  0  0  0  0  0
   -8.7400   19.7060  -31.3650 C   0  0  0  0  0  0  0  0  0  0  0  0
   -7.7510   19.1340  -32.1770 C   0  0  0  0  0  0  0  0  0  0  0  0
   -7.6570   17.7400  -32.3170 C   0  0  0  0  0  0  0  0  0  0  0  0
   -6.5912   16.0894  -33.2314 H   0  0  0  0  0  0  0  0  0  0  0  0
   -4.9769   17.5613  -34.4327 H   0  0  0  0  0  0  0  0  0  0  0  0
   -5.1232   20.0410  -34.1987 H   0  0  0  0  0  0  0  0  0  0  0  0
   -6.2102   22.0127  -33.2422 H   0  0  0  0  0  0  0  0  0  0  0  0
   -8.1189   23.9036  -32.7149 H   0  0  0  0  0  0  0  0  0  0  0  0
   -8.8531   23.6680  -31.0890 H   0  0  0  0  0  0  0  0  0  0  0  0
   -7.4821   24.7695  -29.2396 H   0  0  0  0  0  0  0  0  0  0  0  0
   -4.9275   25.4244  -28.8974 H   0  0  0  0  0  0  0  0  0  0  0  0
   -5.2836   23.4236  -32.6032 H   0  0  0  0  0  0  0  0  0  0  0  0
   -9.5972   21.5362  -30.5858 H   0  0  0  0  0  0  0  0  0  0  0  0
   -9.4522   19.0599  -30.8308 H   0  0  0  0  0  0  0  0  0  0  0  0
   -8.3674   17.0860  -31.7901 H   0  0  0  0  0  0  0  0  0  0  0  0
  1  2  2  0
  2  3  1  0
  3  4  2  0
  4  5  1  0
  5  6  2  0
  6  7  1  0
  7  8  1  0
  8  9  1  0
  9 10  2  0
 10 11  1  0
 11 12  2  0
  6 13  1  0
 13 14  2  0
 14 15  1  0
 15 16  2  0
 16  1  1  0
 15  4  1  0
 12  8  1  0
  1 17  1  0
  2 18  1  0
  3 19  1  0
  5 20  1  0
  7 21  1  0
  7 22  1  0
  9 23  1  0
 10 24  1  0
 12 25  1  0
 13 26  1  0
 14 27  1  0
 16 28  1  0
M  END
>  <UniqueID>  (39) 
38

>  <SMILES>  (39) 
c1ccc2cc(Cn3ccnc3)ccc2c1

>  <Energy>  (39) 
60.74052857345067

>  <Genealogy>  (39) 
c1ccc2cc(Cn3ccnc3)ccc2c1 (3D coordinates assigned)
c1ccc2cc(Cn3ccnc3)ccc2c1 (optimized conformer: 60.74052857345067 kcal/mol)

>  <smiles>  (39) 
c1ccc2cc(Cn3ccnc3)ccc2c1

>  <score_type>  (39) 
oracle

>  <origin>  (39) 
adgpu

>  <m_score__min__energy>  (39) 
-7.5599999999999996

>  <m_primary>  (39) 
energy

$$$$
39:0
     RDKit          3D

 39 41  0  0  0  0  0  0  0  0999 V2000
   -1.1700   20.1390  -28.6900 C   0  0  0  0  0  0  0  0  0  0  0  0
   -1.9560   21.3990  -28.5560 C   0  0  0  0  0  0  0  0  0  0  0  0
   -3.1140   21.5490  -27.8200 C   0  0  0  0  0  0  0  0  0  0  0  0
   -3.5030   22.8600  -27.9990 C   0  0  0  0  0  0  0  0  0  0  0  0
   -2.5520   23.4250  -28.8320 C   0  0  0  0  0  0  0  0  0  0  0  0
   -2.5320   24.8110  -29.3340 C   0  0  0  0  0  0  0  0  0  0  0  0
   -1.6010   25.5760  -28.9730 O   0  0  0  0  0  0  0  0  0  0  0  0
   -3.5060   25.2980  -30.2660 N   0  0  0  0  0  0  0  0  0  0  0  0
   -4.7590   24.6740  -30.5810 C   0  0  0  0  0  0  0  0  0  0  0  0
   -5.9280   25.1600  -29.9840 C   0  0  0  0  0  0  0  0  0  0  0  0
   -7.1580   24.5600  -30.2530 C   0  0  0  0  0  0  0  0  0  0  0  0
   -7.2330   23.4630  -31.1160 C   0  0  0  0  0  0  0  0  0  0  0  0
   -6.0690   22.9580  -31.7220 C   0  0  0  0  0  0  0  0  0  0  0  0
   -6.1120   21.8110  -32.5860 N   0  0  0  0  0  0  0  0  0  0  0  0
   -6.9580   20.6710  -32.3560 C   0  0  0  0  0  0  0  0  0  0  0  0
   -7.9780   20.7870  -31.6210 O   0  0  0  0  0  0  0  0  0  0  0  0
   -6.6780   19.3710  -33.0120 C   0  0  0  0  0  0  0  0  0  0  0  0
   -5.9280   19.3070  -34.2030 C   0  0  0  0  0  0  0  0  0  0  0  0
   -5.6650   18.0750  -34.8080 C   0  0  0  0  0  0  0  0  0  0  0  0
   -6.1400   16.8950  -34.2340 C   0  0  0  0  0  0  0  0  0  0  0  0
   -6.8760   16.9430  -33.0490 C   0  0  0  0  0  0  0  0  0  0  0  0
   -7.1420   18.1720  -32.4370 C   0  0  0  0  0  0  0  0  0  0  0  0
   -4.8310   23.5520  -31.4270 C   0  0  0  0  0  0  0  0  0  0  0  0
   -1.6490   22.5270  -29.1530 O   0  0  0  0  0  0  0  0  0  0  0  0
   -0.9274   19.7501  -27.6901 H   0  0  0  0  0  0  0  0  0  0  0  0
   -1.7634   19.3933  -29.2394 H   0  0  0  0  0  0  0  0  0  0  0  0
   -0.2393   20.3441  -29.2394 H   0  0  0  0  0  0  0  0  0  0  0  0
   -3.6212   20.7822  -27.2161 H   0  0  0  0  0  0  0  0  0  0  0  0
   -4.3863   23.3547  -27.5689 H   0  0  0  0  0  0  0  0  0  0  0  0
   -5.8764   26.0194  -29.2993 H   0  0  0  0  0  0  0  0  0  0  0  0
   -8.0727   24.9517  -29.7841 H   0  0  0  0  0  0  0  0  0  0  0  0
   -8.2061   22.9931  -31.3218 H   0  0  0  0  0  0  0  0  0  0  0  0
   -5.5930   21.8600  -33.4920 H   0  0  0  0  0  0  0  0  0  0  0  0
   -5.5471   20.2325  -34.6595 H   0  0  0  0  0  0  0  0  0  0  0  0
   -5.0816   18.0353  -35.7397 H   0  0  0  0  0  0  0  0  0  0  0  0
   -5.9345   15.9274  -34.7152 H   0  0  0  0  0  0  0  0  0  0  0  0
   -7.2476   16.0122  -32.5956 H   0  0  0  0  0  0  0  0  0  0  0  0
   -7.7176   18.2024  -31.5001 H   0  0  0  0  0  0  0  0  0  0  0  0
   -3.9097   23.1365  -31.8611 H   0  0  0  0  0  0  0  0  0  0  0  0
  1  2  1  0
  2  3  2  0
  3  4  1  0
  4  5  2  0
  5  6  1  0
  6  7  2  0
  6  8  1  0
  8  9  1  0
  9 10  2  0
 10 11  1  0
 11 12  2  0
 12 13  1  0
 13 14  1  0
 14 15  1  0
 15 16  2  0
 15 17  1  0
 17 18  2  0
 18 19  1  0
 19 20  2  0
 20 21  1  0
 21 22  2  0
 13 23  2  0
  5 24  1  0
 24  2  1  0
 23  9  1  0
 22 17  1  0
  1 25  1  0
  1 26  1  0
  1 27  1  0
  3 28  1  0
  4 29  1  0
 10 30  1  0
 11 31  1  0
 12 32  1  0
 14 33  1  0
 18 34  1  0
 19 35  1  0
 20 36  1  0
 21 37  1  0
 22 38  1  0
 23 39  1  0
M  CHG  1   8  -1
M  END
>  <UniqueID>  (40) 
39

>  <SMILES>  (40) 
Cc1ccc(C(=O)[N-]c2cccc(NC(=O)c3ccccc3)c2)o1

>  <Energy>  (40) 
76.45328669416104

>  <Genealogy>  (40) 
Cc1ccc(C(=O)[N-]c2cccc(NC(=O)c3ccccc3)c2)o1 (protonated)
Cc1ccc(C(=O)[N-]c2cccc(NC(=O)c3ccccc3)c2)o1 (3D coordinates assigned)
Cc1ccc(C(=O)[N-]c2cccc(NC(=O)c3ccccc3)c2)o1 (optimized conformer: 76.45328669416104 kcal/mol)

>  <smiles>  (40) 
Cc1ccc(C(=O)Nc2cccc(NC(=O)c3ccccc3)c2)o1

>  <score_type>  (40) 
oracle

>  <origin>  (40) 
adgpu

>  <m_score__min__energy>  (40) 
-10.529999999999999

>  <m_primary>  (40) 
energy

$$$$
40:0
     RDKit          3D

 34 36  0  0  0  0  0  0  0  0999 V2000
   -2.0580   24.8430  -28.2450 C   0  0  0  0  0  0  0  0  0  0  0  0
   -2.8390   25.2940  -29.3470 O   0  0  0  0  0  0  0  0  0  0  0  0
   -4.0000   24.6530  -29.8080 C   0  0  0  0  0  0  0  0  0  0  0  0
   -4.8550   25.2350  -30.7640 C   0  0  0  0  0  0  0  0  0  0  0  0
   -5.9990   24.5550  -31.1910 C   0  0  0  0  0  0  0  0  0  0  0  0
   -6.3020   23.2880  -30.6750 C   0  0  0  0  0  0  0  0  0  0  0  0
   -7.7410   22.4360  -31.2300 S   0  0  0  0  0  0  0  0  0  0  0  0
   -8.3810   23.2480  -32.3210 O   0  0  0  0  0  0  0  0  0  0  0  0
   -8.7300   22.2780  -30.1090 O   0  0  0  0  0  0  0  0  0  0  0  0
   -7.2940   20.8260  -31.8270 C   0  0  0  0  0  0  0  0  0  0  0  0
   -8.2060   19.7710  -31.6470 C   0  0  0  0  0  0  0  0  0  0  0  0
   -7.9170   18.4880  -32.1110 C   0  0  0  0  0  0  0  0  0  0  0  0
   -6.7150   18.2330  -32.7660 C   0  0  0  0  0  0  0  0  0  0  0  0
   -5.7870   19.2630  -32.9620 C   0  0  0  0  0  0  0  0  0  0  0  0
   -4.5780   19.0100  -33.6240 C   0  0  0  0  0  0  0  0  0  0  0  0
   -3.6800   20.0090  -33.8150 N   0  0  0  0  0  0  0  0  0  0  0  0
   -3.9150   21.2730  -33.3790 C   0  0  0  0  0  0  0  0  0  0  0  0
   -5.1030   21.5790  -32.7120 C   0  0  0  0  0  0  0  0  0  0  0  0
   -6.0650   20.5740  -32.4930 C   0  0  0  0  0  0  0  0  0  0  0  0
   -5.4560   22.7110  -29.7200 C   0  0  0  0  0  0  0  0  0  0  0  0
   -4.3130   23.3900  -29.2910 C   0  0  0  0  0  0  0  0  0  0  0  0
   -2.5519   25.1282  -27.3044 H   0  0  0  0  0  0  0  0  0  0  0  0
   -1.9585   23.7484  -28.2897 H   0  0  0  0  0  0  0  0  0  0  0  0
   -1.0602   25.3040  -28.2897 H   0  0  0  0  0  0  0  0  0  0  0  0
   -4.6217   26.2279  -31.1759 H   0  0  0  0  0  0  0  0  0  0  0  0
   -6.6644   25.0165  -31.9354 H   0  0  0  0  0  0  0  0  0  0  0  0
   -9.1601   19.9602  -31.1333 H   0  0  0  0  0  0  0  0  0  0  0  0
   -8.6414   17.6743  -31.9590 H   0  0  0  0  0  0  0  0  0  0  0  0
   -6.4938   17.2191  -33.1306 H   0  0  0  0  0  0  0  0  0  0  0  0
   -4.3560   17.9969  -33.9904 H   0  0  0  0  0  0  0  0  0  0  0  0
   -3.1660   22.0598  -33.5520 H   0  0  0  0  0  0  0  0  0  0  0  0
   -5.2873   22.6040  -32.3580 H   0  0  0  0  0  0  0  0  0  0  0  0
   -5.6922   21.7196  -29.3061 H   0  0  0  0  0  0  0  0  0  0  0  0
   -3.6536   22.9287  -28.5410 H   0  0  0  0  0  0  0  0  0  0  0  0
  1  2  1  0
  2  3  1  0
  3  4  2  0
  4  5  1  0
  5  6  2  0
  6  7  1  0
  7  8  2  0
  7  9  2  0
  7 10  1  0
 10 11  2  0
 11 12  1  0
 12 13  2  0
 13 14  1  0
 14 15  2  0
 15 16  1  0
 16 17  2  0
 17 18  1  0
 18 19  2  0
  6 20  1  0
 20 21  2  0
 21  3  1  0
 19 10  1  0
 19 14  1  0
  1 22  1  0
  1 23  1  0
  1 24  1  0
  4 25  1  0
  5 26  1  0
 11 27  1  0
 12 28  1  0
 13 29  1  0
 15 30  1  0
 17 31  1  0
 18 32  1  0
 20 33  1  0
 21 34  1  0
M  END
>  <UniqueID>  (41) 
40

>  <SMILES>  (41) 
COc1ccc(S(=O)(=O)c2cccc3cnccc23)cc1

>  <Energy>  (41) 
44.404886822474865

>  <Genealogy>  (41) 
COc1ccc(S(=O)(=O)c2cccc3cnccc23)cc1 (3D coordinates assigned)
COc1ccc(S(=O)(=O)c2cccc3cnccc23)cc1 (optimized conformer: 44.404886822474865 kcal/mol)

>  <smiles>  (41) 
COc1ccc(S(=O)(=O)c2cccc3cnccc23)cc1

>  <score_type>  (41) 
oracle

>  <origin>  (41) 
adgpu

>  <m_score__min__energy>  (41) 
-8.75

>  <m_primary>  (41) 
energy

$$$$
41:0
     RDKit          3D

 30 32  0  0  0  0  0  0  0  0999 V2000
   -9.4720   19.2950  -32.7160 C   0  0  0  0  0  0  0  0  0  0  0  0
   -8.4510   20.2770  -32.2230 C   0  0  0  0  0  0  0  0  0  0  0  0
   -7.1230   20.2010  -32.6700 C   0  0  0  0  0  0  0  0  0  0  0  0
   -6.1780   21.1370  -32.2390 C   0  0  0  0  0  0  0  0  0  0  0  0
   -6.5520   22.1720  -31.3640 C   0  0  0  0  0  0  0  0  0  0  0  0
   -5.5610   23.1630  -30.9060 C   0  0  0  0  0  0  0  0  0  0  0  0
   -5.2370   24.2860  -31.5760 N   0  0  0  0  0  0  0  0  0  0  0  0
   -4.3200   24.9050  -30.8480 N   0  0  0  0  0  0  0  0  0  0  0  0
   -4.1180   24.1370  -29.7590 C   0  0  0  0  0  0  0  0  0  0  0  0
   -3.1680   24.4560  -28.6750 C   0  0  0  0  0  0  0  0  0  0  0  0
   -1.8100   24.6670  -28.9670 C   0  0  0  0  0  0  0  0  0  0  0  0
   -0.9070   24.9690  -27.9430 C   0  0  0  0  0  0  0  0  0  0  0  0
   -1.3510   25.0600  -26.6210 C   0  0  0  0  0  0  0  0  0  0  0  0
   -2.7000   24.8510  -26.3210 C   0  0  0  0  0  0  0  0  0  0  0  0
   -3.6070   24.5500  -27.3420 C   0  0  0  0  0  0  0  0  0  0  0  0
   -4.8770   23.0670  -29.7900 O   0  0  0  0  0  0  0  0  0  0  0  0
   -7.8850   22.2560  -30.9320 C   0  0  0  0  0  0  0  0  0  0  0  0
   -8.8290   21.3190  -31.3640 C   0  0  0  0  0  0  0  0  0  0  0  0
   -9.9673   18.8187  -31.8570 H   0  0  0  0  0  0  0  0  0  0  0  0
  -10.2214   19.8204  -33.3263 H   0  0  0  0  0  0  0  0  0  0  0  0
   -8.9761   18.5258  -33.3263 H   0  0  0  0  0  0  0  0  0  0  0  0
   -6.8239   19.4009  -33.3631 H   0  0  0  0  0  0  0  0  0  0  0  0
   -5.1368   21.0633  -32.5862 H   0  0  0  0  0  0  0  0  0  0  0  0
   -1.4556   24.5943  -30.0058 H   0  0  0  0  0  0  0  0  0  0  0  0
    0.1546   25.1352  -28.1784 H   0  0  0  0  0  0  0  0  0  0  0  0
   -0.6388   25.2961  -25.8166 H   0  0  0  0  0  0  0  0  0  0  0  0
   -3.0488   24.9234  -25.2803 H   0  0  0  0  0  0  0  0  0  0  0  0
   -4.6678   24.3861  -27.1017 H   0  0  0  0  0  0  0  0  0  0  0  0
   -8.1888   23.0636  -30.2497 H   0  0  0  0  0  0  0  0  0  0  0  0
   -9.8734   21.3998  -31.0283 H   0  0  0  0  0  0  0  0  0  0  0  0
  1  2  1  0
  2  3  2  0
  3  4  1  0
  4  5  2  0
  5  6  1  0
  6  7  2  0
  7  8  1  0
  8  9  2  0
  9 10  1  0
 10 11  2  0
 11 12  1  0
 12 13  2  0
 13 14  1  0
 14 15  2  0
  9 16  1  0
  5 17  1  0
 17 18  2  0
 18  2  1  0
 16  6  1  0
 15 10  1  0
  1 19  1  0
  1 20  1  0
  1 21  1  0
  3 22  1  0
  4 23  1  0
 11 24  1  0
 12 25  1  0
 13 26  1  0
 14 27  1  0
 15 28  1  0
 17 29  1  0
 18 30  1  0
M  END
>  <UniqueID>  (42) 
41

>  <SMILES>  (42) 
Cc1ccc(-c2nnc(-c3ccccc3)o2)cc1

>  <Energy>  (42) 
66.67223519945038

>  <Genealogy>  (42) 
Cc1ccc(-c2nnc(-c3ccccc3)o2)cc1 (3D coordinates assigned)
Cc1ccc(-c2nnc(-c3ccccc3)o2)cc1 (optimized conformer: 66.67223519945038 kcal/mol)

>  <smiles>  (42) 
Cc1ccc(-c2nnc(-c3ccccc3)o2)cc1

>  <score_type>  (42) 
oracle

>  <origin>  (42) 
adgpu

>  <m_score__min__energy>  (42) 
-7.7300000000000004

>  <m_primary>  (42) 
energy

$$$$
42:0
     RDKit          3D

 48 51  0  0  0  0  0  0  0  0999 V2000
   -7.6800   21.0720  -32.3090 C   0  0  0  0  0  0  0  0  0  0  0  0
   -6.6360   22.0440  -32.0030 N   0  0  0  0  0  0  0  0  0  0  0  0
   -6.8540   23.1750  -31.3590 N   0  0  0  0  0  0  0  0  0  0  0  0
   -5.6610   23.8040  -31.3290 C   0  0  0  0  0  0  0  0  0  0  0  0
   -5.4620   25.0850  -30.7280 N   0  0  0  0  0  0  0  0  0  0  0  0
   -6.4140   25.6770  -30.1780 O   0  0  0  0  0  0  0  0  0  0  0  0
   -4.2210   25.6760  -30.7600 O   0  0  0  0  0  0  0  0  0  0  0  0
   -4.6730   23.1110  -31.9390 N   0  0  0  0  0  0  0  0  0  0  0  0
   -5.3280   22.0020  -32.3340 C   0  0  0  0  0  0  0  0  0  0  0  0
   -4.7030   20.9690  -33.0430 O   0  0  0  0  0  0  0  0  0  0  0  0
   -3.3610   20.5950  -32.8890 C   0  0  0  0  0  0  0  0  0  0  0  0
   -2.8290   19.6300  -33.7480 C   0  0  0  0  0  0  0  0  0  0  0  0
   -1.4930   19.2370  -33.6330 C   0  0  0  0  0  0  0  0  0  0  0  0
   -0.6610   19.8140  -32.6540 C   0  0  0  0  0  0  0  0  0  0  0  0
    0.6860   19.4450  -32.4980 O   0  0  0  0  0  0  0  0  0  0  0  0
    1.7400   19.7680  -33.4050 C   0  0  0  0  0  0  0  0  0  0  0  0
    1.2320   20.6180  -34.5260 C   0  0  0  0  0  0  0  0  0  0  0  0
    1.3520   21.9630  -34.5590 N   0  0  0  0  0  0  0  0  0  0  0  0
    0.7630   22.4990  -35.6640 C   0  0  0  0  0  0  0  0  0  0  0  0
    0.7730   23.9510  -35.9240 C   0  0  0  0  0  0  0  0  0  0  0  0
    1.8530   24.5930  -35.8040 O   0  0  0  0  0  0  0  0  0  0  0  0
   -0.4240   24.6210  -36.3490 N   0  0  0  0  0  0  0  0  0  0  0  0
   -0.5600   26.0510  -36.4180 C   0  0  0  0  0  0  0  0  0  0  0  0
   -1.1770   26.6320  -37.5370 C   0  0  0  0  0  0  0  0  0  0  0  0
   -1.3300   28.0200  -37.6200 C   0  0  0  0  0  0  0  0  0  0  0  0
   -0.8800   28.8360  -36.5800 C   0  0  0  0  0  0  0  0  0  0  0  0
   -0.2860   28.2660  -35.4510 C   0  0  0  0  0  0  0  0  0  0  0  0
   -0.1310   26.8780  -35.3650 C   0  0  0  0  0  0  0  0  0  0  0  0
    0.1590   21.5740  -36.5150 C   0  0  0  0  0  0  0  0  0  0  0  0
    0.3710   20.0440  -35.8490 S   0  0  0  0  0  0  0  0  0  0  0  0
   -1.1920   20.7970  -31.8050 C   0  0  0  0  0  0  0  0  0  0  0  0
   -0.1860   21.5500  -30.5750 Cl  0  0  0  0  0  0  0  0  0  0  0  0
   -2.5290   21.1920  -31.9270 C   0  0  0  0  0  0  0  0  0  0  0  0
   -8.1016   20.6795  -31.3719 H   0  0  0  0  0  0  0  0  0  0  0  0
   -8.4748   21.5592  -32.8929 H   0  0  0  0  0  0  0  0  0  0  0  0
   -7.2508   20.2445  -32.8929 H   0  0  0  0  0  0  0  0  0  0  0  0
   -3.4668   19.1761  -34.5208 H   0  0  0  0  0  0  0  0  0  0  0  0
   -1.0883   18.4718  -34.3117 H   0  0  0  0  0  0  0  0  0  0  0  0
    2.5262   20.3155  -32.8645 H   0  0  0  0  0  0  0  0  0  0  0  0
    2.1437   18.8346  -33.8243 H   0  0  0  0  0  0  0  0  0  0  0  0
   -1.2050   24.0400  -36.7290 H   0  0  0  0  0  0  0  0  0  0  0  0
   -1.5424   25.9920  -38.3536 H   0  0  0  0  0  0  0  0  0  0  0  0
   -1.8050   28.4688  -38.5048 H   0  0  0  0  0  0  0  0  0  0  0  0
   -0.9932   29.9279  -36.6496 H   0  0  0  0  0  0  0  0  0  0  0  0
    0.0603   28.9093  -34.6287 H   0  0  0  0  0  0  0  0  0  0  0  0
    0.3282   26.4323  -34.4703 H   0  0  0  0  0  0  0  0  0  0  0  0
   -0.3635   21.8041  -37.4552 H   0  0  0  0  0  0  0  0  0  0  0  0
   -2.9307   21.9742  -31.2661 H   0  0  0  0  0  0  0  0  0  0  0  0
  1  2  1  0
  2  3  1  0
  3  4  2  0
  4  5  1  0
  5  6  2  0
  5  7  1  0
  4  8  1  0
  8  9  2  0
  9 10  1  0
 10 11  1  0
 11 12  2  0
 12 13  1  0
 13 14  2  0
 14 15  1  0
 15 16  1  0
 16 17  1  0
 17 18  2  0
 18 19  1  0
 19 20  1  0
 20 21  2  0
 20 22  1  0
 22 23  1  0
 23 24  2  0
 24 25  1  0
 25 26  2  0
 26 27  1  0
 27 28  2  0
 19 29  2  0
 29 30  1  0
 14 31  1  0
 31 32  1  0
 31 33  2  0
  9  2  1  0
 33 11  1  0
 30 17  1  0
 28 23  1  0
  1 34  1  0
  1 35  1  0
  1 36  1  0
 12 37  1  0
 13 38  1  0
 16 39  1  0
 16 40  1  0
 22 41  1  0
 24 42  1  0
 25 43  1  0
 26 44  1  0
 27 45  1  0
 28 46  1  0
 29 47  1  0
 33 48  1  0
M  CHG  2   5   1   7  -1
M  END
>  <UniqueID>  (43) 
42

>  <SMILES>  (43) 
Cn1nc([N+](=O)[O-])nc1Oc1ccc(OCc2nc(C(=O)Nc3ccccc3)cs2)c(Cl)c1

>  <Energy>  (43) 
122.85449569223655

>  <Genealogy>  (43) 
Cn1nc([N+](=O)[O-])nc1Oc1ccc(OCc2nc(C(=O)Nc3ccccc3)cs2)c(Cl)c1 (3D coordinates assigned)
Cn1nc([N+](=O)[O-])nc1Oc1ccc(OCc2nc(C(=O)Nc3ccccc3)cs2)c(Cl)c1 (optimized conformer: 122.85449569223655 kcal/mol)

>  <smiles>  (43) 
Cn1nc([N+](=O)[O-])nc1Oc1ccc(OCc2nc(C(=O)Nc3ccccc3)cs2)c(Cl)c1

>  <score_type>  (43) 
oracle

>  <origin>  (43) 
adgpu

>  <m_score__min__energy>  (43) 
-11.449999999999999

>  <m_primary>  (43) 
energy

$$$$
43:0
     RDKit          3D

 40 42  0  0  0  0  0  0  0  0999 V2000
   -9.1110   20.9270  -30.8280 C   0  0  0  0  0  0  0  0  0  0  0  0
   -8.3160   19.9440  -31.6270 C   0  0  0  0  0  0  0  0  0  0  0  0
   -8.6940   18.5990  -31.6730 C   0  0  0  0  0  0  0  0  0  0  0  0
   -7.9270   17.6990  -32.4130 C   0  0  0  0  0  0  0  0  0  0  0  0
   -6.7920   18.1400  -33.1000 C   0  0  0  0  0  0  0  0  0  0  0  0
   -5.8480   16.9590  -34.0030 Cl  0  0  0  0  0  0  0  0  0  0  0  0
   -6.4400   19.5050  -33.0350 C   0  0  0  0  0  0  0  0  0  0  0  0
   -5.2200   20.0620  -33.7220 C   0  0  0  0  0  0  0  0  0  0  0  0
   -4.0690   20.0920  -32.7940 N   0  0  0  0  0  0  0  0  0  0  0  0
   -3.1650   18.9550  -33.0560 C   0  0  0  0  0  0  0  0  0  0  0  0
   -3.3380   21.3700  -32.9220 C   0  0  0  0  0  0  0  0  0  0  0  0
   -3.9780   22.4310  -32.0750 C   0  0  0  0  0  0  0  0  0  0  0  0
   -3.2040   23.1740  -31.2170 N   0  0  0  0  0  0  0  0  0  0  0  0
   -3.7500   24.1370  -30.4190 C   0  0  0  0  0  0  0  0  0  0  0  0
   -3.0280   24.8110  -29.6370 O   0  0  0  0  0  0  0  0  0  0  0  0
   -5.1190   24.3450  -30.4990 C   0  0  0  0  0  0  0  0  0  0  0  0
   -6.0040   25.1950  -29.8690 C   0  0  0  0  0  0  0  0  0  0  0  0
   -7.2490   24.9450  -30.3530 N   0  0  0  0  0  0  0  0  0  0  0  0
   -7.1570   23.9720  -31.2550 N   0  0  0  0  0  0  0  0  0  0  0  0
   -8.2870   23.4220  -31.9930 C   0  0  0  0  0  0  0  0  0  0  0  0
   -5.8680   23.6030  -31.3500 C   0  0  0  0  0  0  0  0  0  0  0  0
   -5.3300   22.6450  -32.1460 N   0  0  0  0  0  0  0  0  0  0  0  0
   -7.2070   20.3560  -32.2980 N   0  0  0  0  0  0  0  0  0  0  0  0
   -8.9575   20.7372  -29.7554 H   0  0  0  0  0  0  0  0  0  0  0  0
   -8.7818   21.9482  -31.0704 H   0  0  0  0  0  0  0  0  0  0  0  0
  -10.1785   20.8186  -31.0704 H   0  0  0  0  0  0  0  0  0  0  0  0
   -9.5870   18.2539  -31.1313 H   0  0  0  0  0  0  0  0  0  0  0  0
   -8.2162   16.6386  -32.4562 H   0  0  0  0  0  0  0  0  0  0  0  0
   -4.9711   19.4290  -34.5865 H   0  0  0  0  0  0  0  0  0  0  0  0
   -5.4364   21.0887  -34.0523 H   0  0  0  0  0  0  0  0  0  0  0  0
   -2.8259   18.5285  -32.1005 H   0  0  0  0  0  0  0  0  0  0  0  0
   -3.7007   18.1856  -33.6314 H   0  0  0  0  0  0  0  0  0  0  0  0
   -2.2947   19.3035  -33.6314 H   0  0  0  0  0  0  0  0  0  0  0  0
   -2.2974   21.2257  -32.5958 H   0  0  0  0  0  0  0  0  0  0  0  0
   -3.3657   21.6909  -33.9738 H   0  0  0  0  0  0  0  0  0  0  0  0
   -5.7466   25.9452  -29.1068 H   0  0  0  0  0  0  0  0  0  0  0  0
   -9.0435   23.0538  -31.2844 H   0  0  0  0  0  0  0  0  0  0  0  0
   -8.7283   24.2061  -32.6258 H   0  0  0  0  0  0  0  0  0  0  0  0
   -7.9421   22.5910  -32.6258 H   0  0  0  0  0  0  0  0  0  0  0  0
   -5.9310   22.0840  -32.7910 H   0  0  0  0  0  0  0  0  0  0  0  0
  1  2  1  0
  2  3  2  0
  3  4  1  0
  4  5  2  0
  5  6  1  0
  5  7  1  0
  7  8  1  0
  8  9  1  0
  9 10  1  0
  9 11  1  0
 11 12  1  0
 12 13  2  0
 13 14  1  0
 14 15  2  0
 14 16  1  0
 16 17  1  0
 17 18  2  0
 18 19  1  0
 19 20  1  0
 19 21  1  0
 21 22  1  0
  7 23  2  0
 23  2  1  0
 22 12  1  0
 21 16  2  0
  1 24  1  0
  1 25  1  0
  1 26  1  0
  3 27  1  0
  4 28  1  0
  8 29  1  0
  8 30  1  0
 10 31  1  0
 10 32  1  0
 10 33  1  0
 11 34  1  0
 11 35  1  0
 17 36  1  0
 20 37  1  0
 20 38  1  0
 20 39  1  0
 22 40  1  0
M  END
>  <UniqueID>  (44) 
43

>  <SMILES>  (44) 
Cc1ccc(Cl)c(CN(C)Cc2nc(=O)c3cnn(C)c3[nH]2)n1

>  <Energy>  (44) 
83.94978292562688

>  <Genealogy>  (44) 
Cc1ccc(Cl)c(CN(C)Cc2nc(=O)c3cnn(C)c3[nH]2)n1 (3D coordinates assigned)
Cc1ccc(Cl)c(CN(C)Cc2nc(=O)c3cnn(C)c3[nH]2)n1 (optimized conformer: 83.94978292562688 kcal/mol)

>  <smiles>  (44) 
Cc1ccc(Cl)c(CN(C)Cc2nc(=O)c3cnn(C)c3[nH]2)n1

>  <score_type>  (44) 
oracle

>  <origin>  (44) 
adgpu

>  <m_score__min__energy>  (44) 
-7.9699999999999998

>  <m_primary>  (44) 
energy

$$$$
44:0
     RDKit          3D

 40 42  0  0  0  0  0  0  0  0999 V2000
   -5.3380   26.4000  -30.4800 O   0  0  0  0  0  0  0  0  0  0  0  0
   -5.0640   25.1990  -30.6770 N   0  0  0  0  0  0  0  0  0  0  0  0
   -3.7420   24.8240  -30.7510 O   0  0  0  0  0  0  0  0  0  0  0  0
   -6.1100   24.2220  -30.8250 C   0  0  0  0  0  0  0  0  0  0  0  0
   -6.5500   23.4750  -29.7180 C   0  0  0  0  0  0  0  0  0  0  0  0
   -7.5640   22.5260  -29.8600 C   0  0  0  0  0  0  0  0  0  0  0  0
   -8.1600   22.2950  -31.1090 C   0  0  0  0  0  0  0  0  0  0  0  0
   -9.2010   21.3050  -31.2190 N   0  0  0  0  0  0  0  0  0  0  0  0
   -9.3700   20.4060  -32.3620 C   0  0  0  0  0  0  0  0  0  0  0  0
   -8.1440   19.5510  -32.5550 C   0  0  0  0  0  0  0  0  0  0  0  0
   -8.1500   18.2000  -32.1780 C   0  0  0  0  0  0  0  0  0  0  0  0
   -7.0120   17.4120  -32.3640 C   0  0  0  0  0  0  0  0  0  0  0  0
   -5.8540   17.9700  -32.9130 C   0  0  0  0  0  0  0  0  0  0  0  0
   -5.8230   19.3300  -33.2640 C   0  0  0  0  0  0  0  0  0  0  0  0
   -4.6850   19.9250  -33.8280 O   0  0  0  0  0  0  0  0  0  0  0  0
   -3.6740   20.5860  -33.1140 C   0  0  0  0  0  0  0  0  0  0  0  0
   -4.0170   21.2770  -31.9450 C   0  0  0  0  0  0  0  0  0  0  0  0
   -3.0340   21.9340  -31.1980 C   0  0  0  0  0  0  0  0  0  0  0  0
   -1.7000   21.8940  -31.6090 C   0  0  0  0  0  0  0  0  0  0  0  0
   -1.3440   21.1910  -32.7630 C   0  0  0  0  0  0  0  0  0  0  0  0
   -2.3250   20.5330  -33.5120 C   0  0  0  0  0  0  0  0  0  0  0  0
   -6.9740   20.1100  -33.0940 C   0  0  0  0  0  0  0  0  0  0  0  0
   -7.7270   23.0470  -32.2180 C   0  0  0  0  0  0  0  0  0  0  0  0
   -6.7110   23.9970  -32.0760 C   0  0  0  0  0  0  0  0  0  0  0  0
   -6.0914   23.6397  -28.7318 H   0  0  0  0  0  0  0  0  0  0  0  0
   -7.8994   21.9530  -28.9830 H   0  0  0  0  0  0  0  0  0  0  0  0
   -9.8580   21.1810  -30.4150 H   0  0  0  0  0  0  0  0  0  0  0  0
  -10.2391   19.7556  -32.1841 H   0  0  0  0  0  0  0  0  0  0  0  0
   -9.5243   21.0113  -33.2674 H   0  0  0  0  0  0  0  0  0  0  0  0
   -9.0548   17.7593  -31.7340 H   0  0  0  0  0  0  0  0  0  0  0  0
   -7.0271   16.3500  -32.0778 H   0  0  0  0  0  0  0  0  0  0  0  0
   -4.9644   17.3425  -33.0707 H   0  0  0  0  0  0  0  0  0  0  0  0
   -5.0653   21.3031  -31.6126 H   0  0  0  0  0  0  0  0  0  0  0  0
   -3.3119   22.4827  -30.2860 H   0  0  0  0  0  0  0  0  0  0  0  0
   -0.9288   22.4163  -31.0238 H   0  0  0  0  0  0  0  0  0  0  0  0
   -0.2920   21.1551  -33.0824 H   0  0  0  0  0  0  0  0  0  0  0  0
   -2.0413   19.9724  -34.4149 H   0  0  0  0  0  0  0  0  0  0  0  0
   -6.9612   21.1706  -33.3855 H   0  0  0  0  0  0  0  0  0  0  0  0
   -8.1910   22.8860  -33.2023 H   0  0  0  0  0  0  0  0  0  0  0  0
   -6.3786   24.5740  -32.9516 H   0  0  0  0  0  0  0  0  0  0  0  0
  1  2  2  0
  2  3  1  0
  2  4  1  0
  4  5  2  0
  5  6  1  0
  6  7  2  0
  7  8  1  0
  8  9  1  0
  9 10  1  0
 10 11  2  0
 11 12  1  0
 12 13  2  0
 13 14  1  0
 14 15  1  0
 15 16  1  0
 16 17  2  0
 17 18  1  0
 18 19  2  0
 19 20  1  0
 20 21  2  0
 14 22  2  0
  7 23  1  0
 23 24  2  0
 24  4  1  0
 22 10  1  0
 21 16  1  0
  5 25  1  0
  6 26  1  0
  8 27  1  0
  9 28  1  0
  9 29  1  0
 11 30  1  0
 12 31  1  0
 13 32  1  0
 17 33  1  0
 18 34  1  0
 19 35  1  0
 20 36  1  0
 21 37  1  0
 22 38  1  0
 23 39  1  0
 24 40  1  0
M  CHG  2   2   1   3  -1
M  END
>  <UniqueID>  (45) 
44

>  <SMILES>  (45) 
O=[N+]([O-])c1ccc(NCc2cccc(Oc3ccccc3)c2)cc1

>  <Energy>  (45) 
49.62774529862998

>  <Genealogy>  (45) 
O=[N+]([O-])c1ccc(NCc2cccc(Oc3ccccc3)c2)cc1 (3D coordinates assigned)
O=[N+]([O-])c1ccc(NCc2cccc(Oc3ccccc3)c2)cc1 (optimized conformer: 49.62774529862998 kcal/mol)

>  <smiles>  (45) 
O=[N+]([O-])c1ccc(NCc2cccc(Oc3ccccc3)c2)cc1

>  <score_type>  (45) 
oracle

>  <origin>  (45) 
adgpu

>  <m_score__min__energy>  (45) 
-8.9700000000000006

>  <m_primary>  (45) 
energy

$$$$
45:0
     RDKit          3D

 49 53  0  0  0  0  0  0  0  0999 V2000
   -4.1590   14.0830  -33.1950 C   0  0  0  0  0  0  0  0  0  0  0  0
   -5.2010   15.0900  -33.3300 N   0  0  0  0  0  0  0  0  0  0  0  0
   -5.3530   16.1740  -32.5490 C   0  0  0  0  0  0  0  0  0  0  0  0
   -6.4130   16.9160  -33.0420 C   0  0  0  0  0  0  0  0  0  0  0  0
   -6.9550   18.1930  -32.5090 C   0  0  0  0  0  0  0  0  0  0  0  0
   -8.3360   18.3630  -32.3170 C   0  0  0  0  0  0  0  0  0  0  0  0
   -8.8240   19.5340  -31.8320 N   0  0  0  0  0  0  0  0  0  0  0  0
   -8.0140   20.5750  -31.5110 C   0  0  0  0  0  0  0  0  0  0  0  0
   -8.5600   21.7230  -31.0390 N   0  0  0  0  0  0  0  0  0  0  0  0
   -7.8010   22.7950  -30.7050 C   0  0  0  0  0  0  0  0  0  0  0  0
   -6.4060   22.7520  -30.8330 C   0  0  0  0  0  0  0  0  0  0  0  0
   -5.4640   24.1810  -30.3630 S   0  0  0  0  0  0  0  0  0  0  0  0
   -6.3100   25.1210  -29.5510 O   0  0  0  0  0  0  0  0  0  0  0  0
   -5.0170   24.8980  -31.6070 O   0  0  0  0  0  0  0  0  0  0  0  0
   -4.0780   23.7160  -29.3820 C   0  0  0  0  0  0  0  0  0  0  0  0
   -4.2430   22.9050  -28.2480 C   0  0  0  0  0  0  0  0  0  0  0  0
   -3.1400   22.5760  -27.4550 C   0  0  0  0  0  0  0  0  0  0  0  0
   -1.8690   23.0510  -27.7910 C   0  0  0  0  0  0  0  0  0  0  0  0
   -1.6990   23.8520  -28.9240 C   0  0  0  0  0  0  0  0  0  0  0  0
   -2.8000   24.1830  -29.7190 C   0  0  0  0  0  0  0  0  0  0  0  0
   -5.7980   21.5700  -31.3260 C   0  0  0  0  0  0  0  0  0  0  0  0
   -4.3260   21.4800  -31.4580 C   0  0  0  0  0  0  0  0  0  0  0  0
   -3.5680   20.8490  -30.4580 C   0  0  0  0  0  0  0  0  0  0  0  0
   -2.1780   20.7680  -30.5770 C   0  0  0  0  0  0  0  0  0  0  0  0
   -1.5390   21.3090  -31.6970 C   0  0  0  0  0  0  0  0  0  0  0  0
   -0.1900   21.2350  -31.8090 F   0  0  0  0  0  0  0  0  0  0  0  0
   -2.2910   21.9230  -32.7040 C   0  0  0  0  0  0  0  0  0  0  0  0
   -3.6820   22.0050  -32.5880 C   0  0  0  0  0  0  0  0  0  0  0  0
   -6.6180   20.4660  -31.6710 C   0  0  0  0  0  0  0  0  0  0  0  0
   -6.1000   19.2600  -32.1830 C   0  0  0  0  0  0  0  0  0  0  0  0
   -6.8500   16.2070  -34.1520 C   0  0  0  0  0  0  0  0  0  0  0  0
   -6.0900   15.1060  -34.3090 N   0  0  0  0  0  0  0  0  0  0  0  0
   -3.9657   13.8961  -32.1284 H   0  0  0  0  0  0  0  0  0  0  0  0
   -4.4860   13.1500  -33.6773 H   0  0  0  0  0  0  0  0  0  0  0  0
   -3.2377   14.4417  -33.6773 H   0  0  0  0  0  0  0  0  0  0  0  0
   -4.7412   16.4274  -31.6706 H   0  0  0  0  0  0  0  0  0  0  0  0
   -9.0267   17.5424  -32.5610 H   0  0  0  0  0  0  0  0  0  0  0  0
   -8.2850   23.7086  -30.3294 H   0  0  0  0  0  0  0  0  0  0  0  0
   -5.2418   22.5279  -27.9831 H   0  0  0  0  0  0  0  0  0  0  0  0
   -3.2723   21.9426  -26.5655 H   0  0  0  0  0  0  0  0  0  0  0  0
   -1.0025   22.7945  -27.1638 H   0  0  0  0  0  0  0  0  0  0  0  0
   -0.6979   24.2221  -29.1901 H   0  0  0  0  0  0  0  0  0  0  0  0
   -2.6632   24.8115  -30.6113 H   0  0  0  0  0  0  0  0  0  0  0  0
   -4.0696   20.4176  -29.5792 H   0  0  0  0  0  0  0  0  0  0  0  0
   -1.5863   20.2785  -29.7894 H   0  0  0  0  0  0  0  0  0  0  0  0
   -1.7876   22.3417  -33.5879 H   0  0  0  0  0  0  0  0  0  0  0  0
   -4.2722   22.4820  -33.3843 H   0  0  0  0  0  0  0  0  0  0  0  0
   -5.0151   19.1523  -32.3292 H   0  0  0  0  0  0  0  0  0  0  0  0
   -7.6874   16.4989  -34.8029 H   0  0  0  0  0  0  0  0  0  0  0  0
  1  2  1  0
  2  3  1  0
  3  4  2  0
  4  5  1  0
  5  6  2  0
  6  7  1  0
  7  8  2  0
  8  9  1  0
  9 10  2  0
 10 11  1  0
 11 12  1  0
 12 13  2  0
 12 14  2  0
 12 15  1  0
 15 16  2  0
 16 17  1  0
 17 18  2  0
 18 19  1  0
 19 20  2  0
 11 21  2  0
 21 22  1  0
 22 23  2  0
 23 24  1  0
 24 25  2  0
 25 26  1  0
 25 27  1  0
 27 28  2  0
 21 29  1  0
 29 30  2  0
  4 31  1  0
 31 32  2  0
 32  2  1  0
 30  5  1  0
 29  8  1  0
 20 15  1  0
 28 22  1  0
  1 33  1  0
  1 34  1  0
  1 35  1  0
  3 36  1  0
  6 37  1  0
 10 38  1  0
 16 39  1  0
 17 40  1  0
 18 41  1  0
 19 42  1  0
 20 43  1  0
 23 44  1  0
 24 45  1  0
 27 46  1  0
 28 47  1  0
 30 48  1  0
 31 49  1  0
M  END
>  <UniqueID>  (46) 
45

>  <SMILES>  (46) 
Cn1cc(-c2cnc3ncc(S(=O)(=O)c4ccccc4)c(-c4ccc(F)cc4)c3c2)cn1

>  <Energy>  (46) 
100.03658305882357

>  <Genealogy>  (46) 
Cn1cc(-c2cnc3ncc(S(=O)(=O)c4ccccc4)c(-c4ccc(F)cc4)c3c2)cn1 (3D coordinates assigned)
Cn1cc(-c2cnc3ncc(S(=O)(=O)c4ccccc4)c(-c4ccc(F)cc4)c3c2)cn1 (optimized conformer: 100.03658305882357 kcal/mol)

>  <smiles>  (46) 
Cn1cc(-c2cnc3ncc(S(=O)(=O)c4ccccc4)c(-c4ccc(F)cc4)c3c2)cn1

>  <score_type>  (46) 
oracle

>  <origin>  (46) 
adgpu

>  <m_score__min__energy>  (46) 
-9.8399999999999999

>  <m_primary>  (46) 
energy

$$$$
46:0
     RDKit          3D

 19 19  0  0  0  0  0  0  0  0999 V2000
   -6.8750   24.9110  -29.9990 N   0  0  0  0  0  0  0  0  0  0  0  0
   -6.7800   23.9290  -30.6020 C   0  0  0  0  0  0  0  0  0  0  0  0
   -6.6610   22.7040  -31.3520 C   0  0  0  0  0  0  0  0  0  0  0  0
   -7.8100   21.9440  -31.6130 C   0  0  0  0  0  0  0  0  0  0  0  0
   -7.7170   20.7540  -32.3400 C   0  0  0  0  0  0  0  0  0  0  0  0
   -9.1580   19.8080  -32.6640 Cl  0  0  0  0  0  0  0  0  0  0  0  0
   -6.4750   20.3190  -32.8090 C   0  0  0  0  0  0  0  0  0  0  0  0
   -5.3250   21.0710  -32.5530 C   0  0  0  0  0  0  0  0  0  0  0  0
   -5.4060   22.2740  -31.8220 C   0  0  0  0  0  0  0  0  0  0  0  0
   -4.2730   23.0600  -31.5430 O   0  0  0  0  0  0  0  0  0  0  0  0
   -3.7930   23.3860  -30.2390 C   0  0  0  0  0  0  0  0  0  0  0  0
   -3.4850   24.8470  -30.1400 C   0  0  0  0  0  0  0  0  0  0  0  0
   -4.1390   25.6800  -30.8210 O   0  0  0  0  0  0  0  0  0  0  0  0
   -2.4500   25.2850  -29.3250 O   0  0  0  0  0  0  0  0  0  0  0  0
   -8.7884   22.2857  -31.2442 H   0  0  0  0  0  0  0  0  0  0  0  0
   -6.4020   19.3824  -33.3812 H   0  0  0  0  0  0  0  0  0  0  0  0
   -4.3502   20.7220  -32.9243 H   0  0  0  0  0  0  0  0  0  0  0  0
   -4.5618   23.1277  -29.4959 H   0  0  0  0  0  0  0  0  0  0  0  0
   -2.8717   22.8161  -30.0480 H   0  0  0  0  0  0  0  0  0  0  0  0
  1  2  3  0
  2  3  1  0
  3  4  2  0
  4  5  1  0
  5  6  1  0
  5  7  2  0
  7  8  1  0
  8  9  2  0
  9 10  1  0
 10 11  1  0
 11 12  1  0
 12 13  2  0
 12 14  1  0
  9  3  1  0
  4 15  1  0
  7 16  1  0
  8 17  1  0
 11 18  1  0
 11 19  1  0
M  CHG  1  14  -1
M  END
>  <UniqueID>  (47) 
46

>  <SMILES>  (47) 
N#Cc1cc(Cl)ccc1OCC(=O)[O-]

>  <Energy>  (47) 
16.657851659181127

>  <Genealogy>  (47) 
N#Cc1cc(Cl)ccc1OCC(=O)[O-] (protonated)
N#Cc1cc(Cl)ccc1OCC(=O)[O-] (3D coordinates assigned)
N#Cc1cc(Cl)ccc1OCC(=O)[O-] (optimized conformer: 16.657851659181127 kcal/mol)

>  <smiles>  (47) 
N#Cc1cc(Cl)ccc1OCC(=O)O

>  <score_type>  (47) 
oracle

>  <origin>  (47) 
adgpu

>  <m_score__min__energy>  (47) 
-8.7599999999999998

>  <m_primary>  (47) 
energy

$$$$
47:0
     RDKit          3D

 59 61  0  0  0  0  0  0  0  0999 V2000
   -0.7750   22.0950  -25.9090 C   0  0  0  0  0  0  0  0  0  0  0  0
   -1.5390   23.1930  -26.4010 O   0  0  0  0  0  0  0  0  0  0  0  0
   -1.2680   24.5460  -26.1340 C   0  0  0  0  0  0  0  0  0  0  0  0
   -1.0420   24.9980  -24.8190 C   0  0  0  0  0  0  0  0  0  0  0  0
   -0.7790   26.3470  -24.5520 C   0  0  0  0  0  0  0  0  0  0  0  0
   -0.5760   26.7690  -23.1980 N   0  0  0  0  0  0  0  0  0  0  0  0
   -0.7220   27.2620  -25.6180 C   0  0  0  0  0  0  0  0  0  0  0  0
   -0.4040   28.9720  -25.3550 Cl  0  0  0  0  0  0  0  0  0  0  0  0
   -0.9320   26.8220  -26.9260 C   0  0  0  0  0  0  0  0  0  0  0  0
   -1.2230   25.4720  -27.2040 C   0  0  0  0  0  0  0  0  0  0  0  0
   -1.5470   25.0710  -28.6020 C   0  0  0  0  0  0  0  0  0  0  0  0
   -0.6680   24.5500  -29.3410 O   0  0  0  0  0  0  0  0  0  0  0  0
   -2.8820   25.2200  -29.1030 N   0  0  0  0  0  0  0  0  0  0  0  0
   -3.4670   24.3020  -30.0790 C   0  0  0  0  0  0  0  0  0  0  0  0
   -4.8130   24.8370  -30.6340 C   0  0  0  0  0  0  0  0  0  0  0  0
   -5.6200   23.8300  -31.3760 N   0  0  2  0  0  0  0  0  0  0  0  0
   -6.9870   23.6610  -30.7890 C   0  0  0  0  0  0  0  0  0  0  0  0
   -8.0390   23.0110  -31.7150 C   0  0  0  0  0  0  0  0  0  0  0  0
   -8.0360   21.4630  -31.7120 C   0  0  0  0  0  0  0  0  0  0  0  0
   -6.6860   20.8970  -31.8650 N   0  0  0  0  0  0  0  0  0  0  0  0
   -6.5020   19.6890  -32.6380 C   0  0  0  0  0  0  0  0  0  0  0  0
   -7.4410   18.6450  -32.5430 C   0  0  0  0  0  0  0  0  0  0  0  0
   -7.2700   17.4660  -33.2680 C   0  0  0  0  0  0  0  0  0  0  0  0
   -6.1600   17.3100  -34.0950 C   0  0  0  0  0  0  0  0  0  0  0  0
   -5.2180   18.3340  -34.2040 C   0  0  0  0  0  0  0  0  0  0  0  0
   -5.3770   19.5320  -33.4790 C   0  0  0  0  0  0  0  0  0  0  0  0
   -4.4360   20.5690  -33.5630 O   0  0  0  0  0  0  0  0  0  0  0  0
   -3.0290   20.4030  -33.4310 C   0  0  0  0  0  0  0  0  0  0  0  0
   -5.5980   21.3430  -30.9810 C   0  0  0  0  0  0  0  0  0  0  0  0
   -4.8440   22.5730  -31.5160 C   0  0  0  0  0  0  0  0  0  0  0  0
   -0.7829   22.1064  -24.8091 H   0  0  0  0  0  0  0  0  0  0  0  0
   -1.2135   21.1526  -26.2691 H   0  0  0  0  0  0  0  0  0  0  0  0
    0.2610   22.1786  -26.2691 H   0  0  0  0  0  0  0  0  0  0  0  0
   -1.0727   24.2785  -23.9875 H   0  0  0  0  0  0  0  0  0  0  0  0
   -0.4990   27.7830  -22.9630 H   0  0  0  0  0  0  0  0  0  0  0  0
   -0.4990   26.0870  -22.4120 H   0  0  0  0  0  0  0  0  0  0  0  0
   -0.8691   27.5426  -27.7548 H   0  0  0  0  0  0  0  0  0  0  0  0
   -2.7628   24.1734  -30.9142 H   0  0  0  0  0  0  0  0  0  0  0  0
   -3.6603   23.3433  -29.5755 H   0  0  0  0  0  0  0  0  0  0  0  0
   -5.4130   25.2014  -29.7871 H   0  0  0  0  0  0  0  0  0  0  0  0
   -4.5610   25.6282  -31.3554 H   0  0  0  0  0  0  0  0  0  0  0  0
   -5.7370   24.1830  -32.3530 H   0  0  0  0  0  0  0  0  0  0  0  0
   -6.8936   23.0330  -29.8907 H   0  0  0  0  0  0  0  0  0  0  0  0
   -7.3538   24.6781  -30.5867 H   0  0  0  0  0  0  0  0  0  0  0  0
   -9.0346   23.3522  -31.3949 H   0  0  0  0  0  0  0  0  0  0  0  0
   -7.7839   23.3199  -32.7395 H   0  0  0  0  0  0  0  0  0  0  0  0
   -8.4587   21.1122  -30.7590 H   0  0  0  0  0  0  0  0  0  0  0  0
   -8.6359   21.1281  -32.5711 H   0  0  0  0  0  0  0  0  0  0  0  0
   -8.3188   18.7601  -31.8902 H   0  0  0  0  0  0  0  0  0  0  0  0
   -8.0124   16.6584  -33.1867 H   0  0  0  0  0  0  0  0  0  0  0  0
   -6.0256   16.3778  -34.6633 H   0  0  0  0  0  0  0  0  0  0  0  0
   -4.3450   18.2050  -34.8607 H   0  0  0  0  0  0  0  0  0  0  0  0
   -2.7620   20.3715  -32.3644 H   0  0  0  0  0  0  0  0  0  0  0  0
   -2.7239   19.4626  -33.9133 H   0  0  0  0  0  0  0  0  0  0  0  0
   -2.5134   21.2465  -33.9133 H   0  0  0  0  0  0  0  0  0  0  0  0
   -6.0267   21.5958  -30.0000 H   0  0  0  0  0  0  0  0  0  0  0  0
   -4.8723   20.5189  -30.9165 H   0  0  0  0  0  0  0  0  0  0  0  0
   -3.9019   22.6777  -30.9578 H   0  0  0  0  0  0  0  0  0  0  0  0
   -4.6670   22.4114  -32.5896 H   0  0  0  0  0  0  0  0  0  0  0  0
  1  2  1  0
  2  3  1  0
  3  4  2  0
  4  5  1  0
  5  6  1  0
  5  7  2  0
  7  8  1  0
  7  9  1  0
  9 10  2  0
 10 11  1  0
 11 12  2  0
 11 13  1  0
 13 14  1  0
 14 15  1  0
 15 16  1  0
 16 17  1  0
 17 18  1  0
 18 19  1  0
 19 20  1  0
 20 21  1  0
 21 22  2  0
 22 23  1  0
 23 24  2  0
 24 25  1  0
 25 26  2  0
 26 27  1  0
 27 28  1  0
 20 29  1  0
 29 30  1  0
 10  3  1  0
 30 16  1  0
 26 21  1  0
  1 31  1  0
  1 32  1  0
  1 33  1  0
  4 34  1  0
  6 35  1  0
  6 36  1  0
  9 37  1  0
 14 38  1  0
 14 39  1  0
 15 40  1  0
 15 41  1  0
 16 42  1  6
 17 43  1  0
 17 44  1  0
 18 45  1  0
 18 46  1  0
 19 47  1  0
 19 48  1  0
 22 49  1  0
 23 50  1  0
 24 51  1  0
 25 52  1  0
 28 53  1  0
 28 54  1  0
 28 55  1  0
 29 56  1  0
 29 57  1  0
 30 58  1  0
 30 59  1  0
M  CHG  2  13  -1  16   1
M  END
>  <UniqueID>  (48) 
47

>  <SMILES>  (48) 
COc1cc(N)c(Cl)cc1C(=O)[N-]CC[N@@H+]1CCCN(c2ccccc2OC)CC1

>  <Energy>  (48) 
81.0122907816147

>  <Genealogy>  (48) 
COc1cc(N)c(Cl)cc1C(=O)[N-]CC[NH+]1CCCN(c2ccccc2OC)CC1 (protonated)
COc1cc(N)c(Cl)cc1C(=O)[N-]CC[N@@H+]1CCCN(c2ccccc2OC)CC1 (chirality)
COc1cc(N)c(Cl)cc1C(=O)[N-]CC[N@@H+]1CCCN(c2ccccc2OC)CC1 (3D coordinates assigned)
COc1cc(N)c(Cl)cc1C(=O)[N-]CC[N@@H+]1CCCN(c2ccccc2OC)CC1 (nonaromatic ring conformer: 81.0122907816147 kcal/mol)

>  <smiles>  (48) 
COc1cc(N)c(Cl)cc1C(=O)NCCN1CCCN(c2ccccc2OC)CC1

>  <score_type>  (48) 
oracle

>  <origin>  (48) 
adgpu

>  <m_score__min__energy>  (48) 
-7.0800000000000001

>  <m_primary>  (48) 
energy

$$$$
48:0
     RDKit          3D

 39 41  0  0  0  0  0  0  0  0999 V2000
   -8.9920   19.2690  -32.4870 C   0  0  0  0  0  0  0  0  0  0  0  0
   -8.3810   20.4180  -33.0620 O   0  0  0  0  0  0  0  0  0  0  0  0
   -7.5660   21.3180  -32.3580 C   0  0  0  0  0  0  0  0  0  0  0  0
   -8.0060   22.6010  -31.9850 C   0  0  0  0  0  0  0  0  0  0  0  0
   -7.1560   23.4630  -31.2840 C   0  0  0  0  0  0  0  0  0  0  0  0
   -5.8500   23.0630  -30.9490 C   0  0  0  0  0  0  0  0  0  0  0  0
   -4.9440   23.9680  -30.2000 C   0  0  0  0  0  0  0  0  0  0  0  0
   -4.2670   24.8270  -30.8300 O   0  0  0  0  0  0  0  0  0  0  0  0
   -4.8650   23.9110  -28.7660 N   0  0  0  0  0  0  0  0  0  0  0  0
   -3.7620   24.4320  -28.0050 C   0  0  0  0  0  0  0  0  0  0  0  0
   -2.4970   24.5320  -28.6030 C   0  0  0  0  0  0  0  0  0  0  0  0
   -1.4140   25.0540  -27.8900 C   0  0  0  0  0  0  0  0  0  0  0  0
   -1.5780   25.5020  -26.5680 C   0  0  0  0  0  0  0  0  0  0  0  0
   -0.4260   26.0580  -25.8110 C   0  0  0  0  0  0  0  0  0  0  0  0
    0.8310   26.2000  -26.4230 C   0  0  0  0  0  0  0  0  0  0  0  0
    1.9000   26.7250  -25.6930 C   0  0  0  0  0  0  0  0  0  0  0  0
    1.7260   27.0970  -24.3980 N   0  0  0  0  0  0  0  0  0  0  0  0
    0.5230   26.9740  -23.7780 C   0  0  0  0  0  0  0  0  0  0  0  0
   -0.5730   26.4530  -24.4700 C   0  0  0  0  0  0  0  0  0  0  0  0
   -2.8510   25.4230  -25.9780 C   0  0  0  0  0  0  0  0  0  0  0  0
   -3.9340   24.8980  -26.6900 C   0  0  0  0  0  0  0  0  0  0  0  0
   -5.4200   21.7760  -31.3160 C   0  0  0  0  0  0  0  0  0  0  0  0
   -6.2710   20.9160  -32.0170 C   0  0  0  0  0  0  0  0  0  0  0  0
   -8.9527   19.3430  -31.3902 H   0  0  0  0  0  0  0  0  0  0  0  0
  -10.0409   19.2095  -32.8131 H   0  0  0  0  0  0  0  0  0  0  0  0
   -8.4549   18.3661  -32.8131 H   0  0  0  0  0  0  0  0  0  0  0  0
   -9.0234   22.9280  -32.2458 H   0  0  0  0  0  0  0  0  0  0  0  0
   -7.5121   24.4621  -30.9924 H   0  0  0  0  0  0  0  0  0  0  0  0
   -5.7050   23.5770  -28.2410 H   0  0  0  0  0  0  0  0  0  0  0  0
   -2.3562   24.1970  -29.6412 H   0  0  0  0  0  0  0  0  0  0  0  0
   -0.4250   25.1147  -28.3676 H   0  0  0  0  0  0  0  0  0  0  0  0
    0.9724   25.8993  -27.4716 H   0  0  0  0  0  0  0  0  0  0  0  0
    2.8857   26.8376  -26.1681 H   0  0  0  0  0  0  0  0  0  0  0  0
    0.4120   27.2854  -22.7289 H   0  0  0  0  0  0  0  0  0  0  0  0
   -1.5465   26.3523  -23.9678 H   0  0  0  0  0  0  0  0  0  0  0  0
   -2.9968   25.7773  -24.9469 H   0  0  0  0  0  0  0  0  0  0  0  0
   -4.9265   24.8494  -26.2182 H   0  0  0  0  0  0  0  0  0  0  0  0
   -4.4061   21.4428  -31.0496 H   0  0  0  0  0  0  0  0  0  0  0  0
   -5.9184   19.9140  -32.3028 H   0  0  0  0  0  0  0  0  0  0  0  0
  1  2  1  0
  2  3  1  0
  3  4  2  0
  4  5  1  0
  5  6  2  0
  6  7  1  0
  7  8  2  0
  7  9  1  0
  9 10  1  0
 10 11  2  0
 11 12  1  0
 12 13  2  0
 13 14  1  0
 14 15  2  0
 15 16  1  0
 16 17  2  0
 17 18  1  0
 18 19  2  0
 13 20  1  0
 20 21  2  0
  6 22  1  0
 22 23  2  0
 23  3  1  0
 21 10  1  0
 19 14  1  0
  1 24  1  0
  1 25  1  0
  1 26  1  0
  4 27  1  0
  5 28  1  0
  9 29  1  0
 11 30  1  0
 12 31  1  0
 15 32  1  0
 16 33  1  0
 18 34  1  0
 19 35  1  0
 20 36  1  0
 21 37  1  0
 22 38  1  0
 23 39  1  0
M  END
>  <UniqueID>  (49) 
48

>  <SMILES>  (49) 
COc1ccc(C(=O)Nc2ccc(-c3ccncc3)cc2)cc1

>  <Energy>  (49) 
52.91109188555499

>  <Genealogy>  (49) 
COc1ccc(C(=O)Nc2ccc(-c3ccncc3)cc2)cc1 (3D coordinates assigned)
COc1ccc(C(=O)Nc2ccc(-c3ccncc3)cc2)cc1 (optimized conformer: 52.91109188555499 kcal/mol)

>  <smiles>  (49) 
COc1ccc(C(=O)Nc2ccc(-c3ccncc3)cc2)cc1

>  <score_type>  (49) 
oracle

>  <origin>  (49) 
adgpu

>  <m_score__min__energy>  (49) 
-7.7999999999999998

>  <m_primary>  (49) 
energy

$$$$
