0:0
     RDKit          3D

 46 49  0  0  0  0  0  0  0  0999 V2000
   -7.4970   17.0870  -32.8110 C   0  0  0  0  0  0  0  0  0  0  0  0
   -7.6430   18.5180  -33.1110 N   0  0  0  0  0  0  0  0  0  0  0  0
   -8.7590   19.1260  -32.3440 C   0  0  0  0  0  0  0  0  0  0  0  0
   -8.1870   20.3210  -31.6910 C   0  0  0  0  0  0  0  0  0  0  0  0
   -8.8380   21.2570  -30.8880 C   0  0  0  0  0  0  0  0  0  0  0  0
   -8.0870   22.3100  -30.3420 C   0  0  0  0  0  0  0  0  0  0  0  0
   -6.7040   22.4200  -30.6100 C   0  0  0  0  0  0  0  0  0  0  0  0
   -5.9540   23.4860  -30.0010 N   0  0  0  0  0  0  0  0  0  0  0  0
   -5.0220   24.3240  -30.7010 C   0  0  0  0  0  0  0  0  0  0  0  0
   -5.1700   24.5530  -31.9290 O   0  0  0  0  0  0  0  0  0  0  0  0
   -3.9600   24.9760  -29.9940 N   0  0  0  0  0  0  0  0  0  0  0  0
   -3.1650   24.3510  -28.9780 C   0  0  0  0  0  0  0  0  0  0  0  0
   -3.5910   23.1340  -28.4450 C   0  0  0  0  0  0  0  0  0  0  0  0
   -2.8050   22.4630  -27.5110 C   0  0  0  0  0  0  0  0  0  0  0  0
   -1.5900   23.0060  -27.0820 C   0  0  0  0  0  0  0  0  0  0  0  0
   -0.6130   22.0370  -25.9830 Cl  0  0  0  0  0  0  0  0  0  0  0  0
   -1.1710   24.2690  -27.5610 C   0  0  0  0  0  0  0  0  0  0  0  0
    0.3760   24.9850  -27.0410 S   0  0  0  0  0  0  0  0  0  0  0  0
    1.4170   24.7630  -28.1010 O   0  0  0  0  0  0  0  0  0  0  0  0
    0.8600   24.3060  -25.7910 O   0  0  0  0  0  0  0  0  0  0  0  0
    0.2610   26.7460  -26.7110 C   0  0  0  0  0  0  0  0  0  0  0  0
   -1.0110   27.2440  -26.0420 C   0  0  0  0  0  0  0  0  0  0  0  0
    0.2670   27.0990  -25.2320 C   0  0  0  0  0  0  0  0  0  0  0  0
   -1.9770   24.9440  -28.5030 C   0  0  0  0  0  0  0  0  0  0  0  0
   -1.6120   26.2040  -28.9640 O   0  0  0  0  0  0  0  0  0  0  0  0
   -6.0760   21.4390  -31.4110 C   0  0  0  0  0  0  0  0  0  0  0  0
   -6.8520   20.4080  -31.9410 C   0  0  0  0  0  0  0  0  0  0  0  0
   -6.4100   19.2740  -32.7790 C   0  0  0  0  0  0  0  0  0  0  0  0
   -7.4821   16.9406  -31.7209 H   0  0  0  0  0  0  0  0  0  0  0  0
   -8.3433   16.5334  -33.2438 H   0  0  0  0  0  0  0  0  0  0  0  0
   -6.5563   16.7157  -33.2438 H   0  0  0  0  0  0  0  0  0  0  0  0
   -9.5781   19.4127  -33.0199 H   0  0  0  0  0  0  0  0  0  0  0  0
   -9.1792   18.4227  -31.6099 H   0  0  0  0  0  0  0  0  0  0  0  0
   -9.9161   21.1721  -30.6869 H   0  0  0  0  0  0  0  0  0  0  0  0
   -8.5793   23.0556  -29.7003 H   0  0  0  0  0  0  0  0  0  0  0  0
   -6.1040   23.6710  -28.9840 H   0  0  0  0  0  0  0  0  0  0  0  0
   -4.5514   22.7026  -28.7636 H   0  0  0  0  0  0  0  0  0  0  0  0
   -3.1432   21.4973  -27.1073 H   0  0  0  0  0  0  0  0  0  0  0  0
    0.8210   27.0531  -27.6066 H   0  0  0  0  0  0  0  0  0  0  0  0
   -1.4015   28.2447  -26.2789 H   0  0  0  0  0  0  0  0  0  0  0  0
   -2.0393   26.8653  -25.9469 H   0  0  0  0  0  0  0  0  0  0  0  0
    0.8012   27.9948  -24.8826 H   0  0  0  0  0  0  0  0  0  0  0  0
    0.5463   26.5718  -24.3078 H   0  0  0  0  0  0  0  0  0  0  0  0
   -4.9957   21.4877  -31.6126 H   0  0  0  0  0  0  0  0  0  0  0  0
   -5.9257   19.6403  -33.6962 H   0  0  0  0  0  0  0  0  0  0  0  0
   -5.6750   18.6442  -32.2564 H   0  0  0  0  0  0  0  0  0  0  0  0
  1  2  1  0
  2  3  1  0
  3  4  1  0
  4  5  2  0
  5  6  1  0
  6  7  2  0
  7  8  1  0
  8  9  1  0
  9 10  2  0
  9 11  1  0
 11 12  1  0
 12 13  2  0
 13 14  1  0
 14 15  2  0
 15 16  1  0
 15 17  1  0
 17 18  1  0
 18 19  2  0
 18 20  2  0
 18 21  1  0
 21 22  1  0
 22 23  1  0
 17 24  2  0
 24 25  1  0
  7 26  1  0
 26 27  2  0
 27 28  1  0
 28  2  1  0
 27  4  1  0
 24 12  1  0
 23 21  1  0
  1 29  1  0
  1 30  1  0
  1 31  1  0
  3 32  1  0
  3 33  1  0
  5 34  1  0
  6 35  1  0
  8 36  1  0
 13 37  1  0
 14 38  1  0
 21 39  1  0
 22 40  1  0
 22 41  1  0
 23 42  1  0
 23 43  1  0
 26 44  1  0
 28 45  1  0
 28 46  1  0
M  CHG  2  11  -1  25  -1
M  END
>  <UniqueID>  (1) 
1

>  <SMILES>  (1) 
CN1Cc2ccc(NC(=O)[N-]c3ccc(Cl)c(S(=O)(=O)C4CC4)c3[O-])cc2C1

>  <Energy>  (1) 
334.6427404142784

>  <Genealogy>  (1) 
CN1Cc2ccc(NC(=O)[N-]c3ccc(Cl)c(S(=O)(=O)C4CC4)c3[O-])cc2C1 (protonated)
CN1Cc2ccc(NC(=O)[N-]c3ccc(Cl)c(S(=O)(=O)C4CC4)c3[O-])cc2C1 (3D coordinates assigned)
CN1Cc2ccc(NC(=O)[N-]c3ccc(Cl)c(S(=O)(=O)C4CC4)c3[O-])cc2C1 (nonaromatic ring conformer: 334.6427404142784 kcal/mol)

>  <smiles>  (1) 
CN1Cc2ccc(NC(=O)Nc3ccc(Cl)c(S(=O)(=O)C4CC4)c3O)cc2C1

>  <score_type>  (1) 
oracle

>  <origin>  (1) 
adgpu

>  <m_score__min__energy>  (1) 
-13.74

>  <m_primary>  (1) 
energy

$$$$
1:0
     RDKit          3D

 54 57  0  0  0  0  0  0  0  0999 V2000
   -0.0580   22.6670  -23.9110 C   0  0  0  0  0  0  0  0  0  0  0  0
    0.1410   22.6380  -25.3200 O   0  0  0  0  0  0  0  0  0  0  0  0
   -0.8280   23.0100  -26.2650 C   0  0  0  0  0  0  0  0  0  0  0  0
   -1.4710   22.0730  -27.0960 C   0  0  0  0  0  0  0  0  0  0  0  0
   -2.4300   22.4940  -28.0220 C   0  0  0  0  0  0  0  0  0  0  0  0
   -2.7620   23.8540  -28.1370 C   0  0  0  0  0  0  0  0  0  0  0  0
   -3.7740   24.2990  -29.1190 C   0  0  0  0  0  0  0  0  0  0  0  0
   -3.4740   24.9190  -30.2790 N   0  0  0  0  0  0  0  0  0  0  0  0
   -4.6190   25.1360  -30.8500 O   0  0  0  0  0  0  0  0  0  0  0  0
   -5.5820   24.6810  -30.0890 C   0  0  0  0  0  0  0  0  0  0  0  0
   -7.0340   24.7370  -30.4410 C   0  0  0  0  0  0  0  0  0  0  0  0
   -7.5400   23.4020  -30.7550 N   0  0  0  0  0  0  0  0  0  0  0  0
   -6.9650   22.6170  -31.8130 C   0  0  0  0  0  0  0  0  0  0  0  0
   -6.0930   23.1330  -32.5650 O   0  0  0  0  0  0  0  0  0  0  0  0
   -7.3930   21.2170  -32.0500 C   0  0  0  0  0  0  0  0  0  0  0  0
   -8.5810   20.7390  -31.4680 C   0  0  0  0  0  0  0  0  0  0  0  0
   -8.9890   19.4190  -31.6770 C   0  0  0  0  0  0  0  0  0  0  0  0
   -8.2260   18.5650  -32.4740 C   0  0  0  0  0  0  0  0  0  0  0  0
   -7.0510   19.0310  -33.0780 C   0  0  0  0  0  0  0  0  0  0  0  0
   -6.0670   17.9620  -34.0740 S   0  0  0  0  0  0  0  0  0  0  0  0
   -6.0690   18.4800  -35.4860 O   0  0  0  0  0  0  0  0  0  0  0  0
   -6.6470   16.5730  -34.0690 O   0  0  0  0  0  0  0  0  0  0  0  0
   -4.4330   17.9340  -33.4610 N   0  0  0  0  0  0  0  0  0  0  0  0
   -3.6760   16.8390  -34.0950 C   0  0  0  0  0  0  0  0  0  0  0  0
   -2.1690   16.9700  -33.8010 C   0  0  0  0  0  0  0  0  0  0  0  0
   -1.9330   17.9030  -32.7660 O   0  0  0  0  0  0  0  0  0  0  0  0
   -2.3280   19.1970  -33.1900 C   0  0  0  0  0  0  0  0  0  0  0  0
   -3.7770   19.2230  -33.7210 C   0  0  0  0  0  0  0  0  0  0  0  0
   -6.6390   20.3530  -32.8650 C   0  0  0  0  0  0  0  0  0  0  0  0
   -5.1040   24.1270  -28.9580 N   0  0  0  0  0  0  0  0  0  0  0  0
   -2.1170   24.7860  -27.3060 C   0  0  0  0  0  0  0  0  0  0  0  0
   -1.1590   24.3640  -26.3800 C   0  0  0  0  0  0  0  0  0  0  0  0
    0.9067   22.5264  -23.4015 H   0  0  0  0  0  0  0  0  0  0  0  0
   -0.4877   23.6373  -23.6213 H   0  0  0  0  0  0  0  0  0  0  0  0
   -0.7468   21.8597  -23.6213 H   0  0  0  0  0  0  0  0  0  0  0  0
   -1.2178   21.0055  -27.0164 H   0  0  0  0  0  0  0  0  0  0  0  0
   -2.9286   21.7543  -28.6657 H   0  0  0  0  0  0  0  0  0  0  0  0
   -7.5969   25.1456  -29.5888 H   0  0  0  0  0  0  0  0  0  0  0  0
   -7.1598   25.3804  -31.3243 H   0  0  0  0  0  0  0  0  0  0  0  0
   -8.3750   23.0370  -30.2430 H   0  0  0  0  0  0  0  0  0  0  0  0
   -9.1924   21.4082  -30.8448 H   0  0  0  0  0  0  0  0  0  0  0  0
   -9.9154   19.0517  -31.2113 H   0  0  0  0  0  0  0  0  0  0  0  0
   -8.5475   17.5244  -32.6283 H   0  0  0  0  0  0  0  0  0  0  0  0
   -4.0372   15.8770  -33.7024 H   0  0  0  0  0  0  0  0  0  0  0  0
   -3.8275   16.8912  -35.1833 H   0  0  0  0  0  0  0  0  0  0  0  0
   -1.7754   15.9888  -33.4972 H   0  0  0  0  0  0  0  0  0  0  0  0
   -1.6641   17.3231  -34.7123 H   0  0  0  0  0  0  0  0  0  0  0  0
   -2.2515   19.8873  -32.3370 H   0  0  0  0  0  0  0  0  0  0  0  0
   -1.6629   19.4990  -34.0125 H   0  0  0  0  0  0  0  0  0  0  0  0
   -4.3356   20.0242  -33.2150 H   0  0  0  0  0  0  0  0  0  0  0  0
   -3.7599   19.4061  -34.8055 H   0  0  0  0  0  0  0  0  0  0  0  0
   -5.7167   20.7191  -33.3398 H   0  0  0  0  0  0  0  0  0  0  0  0
   -2.3677   25.8541  -27.3849 H   0  0  0  0  0  0  0  0  0  0  0  0
   -0.6608   25.1035  -25.7358 H   0  0  0  0  0  0  0  0  0  0  0  0
  1  2  1  0
  2  3  1  0
  3  4  2  0
  4  5  1  0
  5  6  2  0
  6  7  1  0
  7  8  2  0
  8  9  1  0
  9 10  1  0
 10 11  1  0
 11 12  1  0
 12 13  1  0
 13 14  2  0
 13 15  1  0
 15 16  2  0
 16 17  1  0
 17 18  2  0
 18 19  1  0
 19 20  1  0
 20 21  2  0
 20 22  2  0
 20 23  1  0
 23 24  1  0
 24 25  1  0
 25 26  1  0
 26 27  1  0
 27 28  1  0
 19 29  2  0
 10 30  2  0
  6 31  1  0
 31 32  2  0
 32  3  1  0
 30  7  1  0
 29 15  1  0
 28 23  1  0
  1 33  1  0
  1 34  1  0
  1 35  1  0
  4 36  1  0
  5 37  1  0
 11 38  1  0
 11 39  1  0
 12 40  1  0
 16 41  1  0
 17 42  1  0
 18 43  1  0
 24 44  1  0
 24 45  1  0
 25 46  1  0
 25 47  1  0
 27 48  1  0
 27 49  1  0
 28 50  1  0
 28 51  1  0
 29 52  1  0
 31 53  1  0
 32 54  1  0
M  END
>  <UniqueID>  (2) 
2

>  <SMILES>  (2) 
COc1ccc(-c2noc(CNC(=O)c3cccc(S(=O)(=O)N4CCOCC4)c3)n2)cc1

>  <Energy>  (2) 
96.8248320470747

>  <Genealogy>  (2) 
COc1ccc(-c2noc(CNC(=O)c3cccc(S(=O)(=O)N4CCOCC4)c3)n2)cc1 (3D coordinates assigned)
COc1ccc(-c2noc(CNC(=O)c3cccc(S(=O)(=O)N4CCOCC4)c3)n2)cc1 (nonaromatic ring conformer: 96.8248320470747 kcal/mol)

>  <smiles>  (2) 
COc1ccc(-c2noc(CNC(=O)c3cccc(S(=O)(=O)N4CCOCC4)c3)n2)cc1

>  <score_type>  (2) 
oracle

>  <origin>  (2) 
adgpu

>  <m_score__min__energy>  (2) 
-10.26

>  <m_primary>  (2) 
energy

$$$$
2:0
     RDKit          3D

 49 52  0  0  0  0  0  0  0  0999 V2000
    1.2990   24.4480  -25.4150 C   0  0  0  0  0  0  0  0  0  0  0  0
    0.3650   24.3460  -26.5920 C   0  0  0  0  0  0  0  0  0  0  0  0
    0.0370   23.0680  -27.0680 C   0  0  0  0  0  0  0  0  0  0  0  0
   -0.7950   22.9110  -28.1730 C   0  0  0  0  0  0  0  0  0  0  0  0
   -1.3010   24.0260  -28.8410 C   0  0  0  0  0  0  0  0  0  0  0  0
   -2.1370   23.8120  -29.9860 N   0  0  0  0  0  0  0  0  0  0  0  0
   -2.2530   22.5810  -30.7110 C   0  0  0  0  0  0  0  0  0  0  0  0
   -1.4330   22.3000  -31.6240 O   0  0  0  0  0  0  0  0  0  0  0  0
   -3.3070   21.6570  -30.4160 N   0  0  0  0  0  0  0  0  0  0  0  0
   -4.6890   21.8090  -30.7690 C   0  0  0  0  0  0  0  0  0  0  0  0
   -5.4030   22.9740  -30.4490 C   0  0  0  0  0  0  0  0  0  0  0  0
   -6.7550   23.0800  -30.7670 C   0  0  0  0  0  0  0  0  0  0  0  0
   -7.4200   22.0270  -31.4030 C   0  0  0  0  0  0  0  0  0  0  0  0
   -9.1400   22.2270  -31.7270 Cl  0  0  0  0  0  0  0  0  0  0  0  0
   -6.7210   20.8430  -31.7310 C   0  0  0  0  0  0  0  0  0  0  0  0
   -7.5580   19.4910  -32.5220 S   0  0  0  0  0  0  0  0  0  0  0  0
   -8.2510   18.6500  -31.4860 O   0  0  0  0  0  0  0  0  0  0  0  0
   -8.6020   19.9970  -33.4780 O   0  0  0  0  0  0  0  0  0  0  0  0
   -6.3400   18.4930  -33.3760 C   0  0  0  0  0  0  0  0  0  0  0  0
   -6.8550   17.1440  -33.8480 C   0  0  0  0  0  0  0  0  0  0  0  0
   -5.9150   17.2250  -32.6550 C   0  0  0  0  0  0  0  0  0  0  0  0
   -5.3570   20.7370  -31.3800 C   0  0  0  0  0  0  0  0  0  0  0  0
   -4.6500   19.5660  -31.6340 O   0  0  0  0  0  0  0  0  0  0  0  0
   -1.0350   25.3150  -28.3430 C   0  0  0  0  0  0  0  0  0  0  0  0
   -1.6100   26.4200  -28.9660 O   0  0  0  0  0  0  0  0  0  0  0  0
   -0.2130   25.4900  -27.2070 C   0  0  0  0  0  0  0  0  0  0  0  0
    0.1070   27.1360  -26.6040 S   0  0  0  0  0  0  0  0  0  0  0  0
    1.5490   27.2700  -26.2020 O   0  0  0  0  0  0  0  0  0  0  0  0
   -0.1570   28.1550  -27.6790 O   0  0  0  0  0  0  0  0  0  0  0  0
   -0.9170   27.4240  -25.1610 C   0  0  0  0  0  0  0  0  0  0  0  0
   -0.7870   26.4140  -24.0310 C   0  0  0  0  0  0  0  0  0  0  0  0
   -1.9930   26.3700  -24.9550 C   0  0  0  0  0  0  0  0  0  0  0  0
    0.7207   24.3848  -24.4814 H   0  0  0  0  0  0  0  0  0  0  0  0
    2.0268   23.6240  -25.4519 H   0  0  0  0  0  0  0  0  0  0  0  0
    1.8318   25.4097  -25.4519 H   0  0  0  0  0  0  0  0  0  0  0  0
    0.4421   22.1792  -26.5621 H   0  0  0  0  0  0  0  0  0  0  0  0
   -1.0552   21.9007  -28.5217 H   0  0  0  0  0  0  0  0  0  0  0  0
   -4.8925   23.8076  -29.9445 H   0  0  0  0  0  0  0  0  0  0  0  0
   -7.3040   23.9995  -30.5158 H   0  0  0  0  0  0  0  0  0  0  0  0
   -5.8056   19.3356  -33.8391 H   0  0  0  0  0  0  0  0  0  0  0  0
   -7.9113   16.8756  -33.6988 H   0  0  0  0  0  0  0  0  0  0  0  0
   -6.8525   16.6018  -34.8051 H   0  0  0  0  0  0  0  0  0  0  0  0
   -6.2913   17.0152  -31.6429 H   0  0  0  0  0  0  0  0  0  0  0  0
   -4.9508   16.7657  -32.3915 H   0  0  0  0  0  0  0  0  0  0  0  0
   -0.8800   28.5221  -25.2141 H   0  0  0  0  0  0  0  0  0  0  0  0
   -0.0238   25.6237  -24.0848 H   0  0  0  0  0  0  0  0  0  0  0  0
   -0.6430   26.4789  -22.9424 H   0  0  0  0  0  0  0  0  0  0  0  0
   -2.1026   25.5476  -25.6773 H   0  0  0  0  0  0  0  0  0  0  0  0
   -3.0834   26.3897  -24.8117 H   0  0  0  0  0  0  0  0  0  0  0  0
  1  2  1  0
  2  3  2  0
  3  4  1  0
  4  5  2  0
  5  6  1  0
  6  7  1  0
  7  8  2  0
  7  9  1  0
  9 10  1  0
 10 11  2  0
 11 12  1  0
 12 13  2  0
 13 14  1  0
 13 15  1  0
 15 16  1  0
 16 17  2  0
 16 18  2  0
 16 19  1  0
 19 20  1  0
 20 21  1  0
 15 22  2  0
 22 23  1  0
  5 24  1  0
 24 25  1  0
 24 26  2  0
 26 27  1  0
 27 28  2  0
 27 29  2  0
 27 30  1  0
 30 31  1  0
 31 32  1  0
 26  2  1  0
 32 30  1  0
 22 10  1  0
 21 19  1  0
  1 33  1  0
  1 34  1  0
  1 35  1  0
  3 36  1  0
  4 37  1  0
 11 38  1  0
 12 39  1  0
 19 40  1  0
 20 41  1  0
 20 42  1  0
 21 43  1  0
 21 44  1  0
 30 45  1  0
 31 46  1  0
 31 47  1  0
 32 48  1  0
 32 49  1  0
M  CHG  4   6  -1   9  -1  23  -1  25  -1
M  END
>  <UniqueID>  (3) 
3

>  <SMILES>  (3) 
Cc1ccc([N-]C(=O)[N-]c2ccc(Cl)c(S(=O)(=O)C3CC3)c2[O-])c([O-])c1S(=O)(=O)C1CC1

>  <Energy>  (3) 
593.4788480083861

>  <Genealogy>  (3) 
Cc1ccc([N-]C(=O)[N-]c2ccc(Cl)c(S(=O)(=O)C3CC3)c2[O-])c([O-])c1S(=O)(=O)C1CC1 (protonated)
Cc1ccc([N-]C(=O)[N-]c2ccc(Cl)c(S(=O)(=O)C3CC3)c2[O-])c([O-])c1S(=O)(=O)C1CC1 (3D coordinates assigned)
Cc1ccc([N-]C(=O)[N-]c2ccc(Cl)c(S(=O)(=O)C3CC3)c2[O-])c([O-])c1S(=O)(=O)C1CC1 (nonaromatic ring conformer: 593.4788480083861 kcal/mol)

>  <smiles>  (3) 
Cc1ccc(NC(=O)Nc2ccc(Cl)c(S(=O)(=O)C3CC3)c2O)c(O)c1S(=O)(=O)C1CC1

>  <score_type>  (3) 
oracle

>  <origin>  (3) 
adgpu

>  <m_score__min__energy>  (3) 
-16.66

>  <m_primary>  (3) 
energy

$$$$
3:0
     RDKit          3D

 58 61  0  0  0  0  0  0  0  0999 V2000
   -8.8450   19.5130  -31.6470 C   0  0  0  0  0  0  0  0  0  0  0  0
   -7.4250   19.8180  -32.0850 C   0  0  0  0  0  0  0  0  0  0  0  0
   -6.6940   18.8960  -32.8820 C   0  0  0  0  0  0  0  0  0  0  0  0
   -7.2530   17.5030  -33.1200 C   0  0  0  0  0  0  0  0  0  0  0  0
   -5.4950   19.2750  -33.4510 N   0  0  0  0  0  0  0  0  0  0  0  0
   -4.8110   18.3910  -34.4170 C   0  0  0  0  0  0  0  0  0  0  0  0
   -4.8950   20.4570  -33.0950 C   0  0  0  0  0  0  0  0  0  0  0  0
   -3.7550   20.7490  -33.5550 O   0  0  0  0  0  0  0  0  0  0  0  0
   -5.5240   21.3480  -32.2100 C   0  0  0  0  0  0  0  0  0  0  0  0
   -4.9020   22.5600  -31.8400 C   0  0  0  0  0  0  0  0  0  0  0  0
   -5.5220   23.4440  -30.9470 C   0  0  0  0  0  0  0  0  0  0  0  0
   -4.8730   24.7200  -30.5620 C   0  0  0  0  0  0  0  0  0  0  0  0
   -5.0620   25.7470  -31.2660 O   0  0  0  0  0  0  0  0  0  0  0  0
   -4.0660   24.8390  -29.3820 N   0  0  0  0  0  0  0  0  0  0  0  0
   -2.8060   24.1960  -29.1350 C   0  0  0  0  0  0  0  0  0  0  0  0
   -2.7840   22.8010  -29.0060 C   0  0  0  0  0  0  0  0  0  0  0  0
   -1.5840   22.1230  -28.7510 C   0  0  0  0  0  0  0  0  0  0  0  0
   -1.5690   20.3640  -28.5970 S   0  0  0  0  0  0  0  0  0  0  0  0
   -2.9210   19.8960  -28.1380 O   0  0  0  0  0  0  0  0  0  0  0  0
   -0.5620   19.9680  -27.5530 O   0  0  0  0  0  0  0  0  0  0  0  0
   -1.1710   19.5860  -30.1110 N   0  0  0  0  0  0  0  0  0  0  0  0
    0.2910   19.6190  -30.3370 C   0  0  0  0  0  0  0  0  0  0  0  0
    0.6360   19.3450  -31.8030 C   0  0  0  0  0  0  0  0  0  0  0  0
    0.0450   20.4290  -32.7210 C   0  0  0  0  0  0  0  0  0  0  0  0
   -1.2060   21.0980  -32.1230 C   0  0  0  0  0  0  0  0  0  0  0  0
   -1.9850   20.1210  -31.2310 C   0  0  0  0  0  0  0  0  0  0  0  0
   -0.3980   22.8540  -28.6090 C   0  0  0  0  0  0  0  0  0  0  0  0
   -0.4140   24.2460  -28.7050 C   0  0  0  0  0  0  0  0  0  0  0  0
   -1.6130   24.9240  -28.9460 C   0  0  0  0  0  0  0  0  0  0  0  0
   -1.6080   26.3140  -28.9600 O   0  0  0  0  0  0  0  0  0  0  0  0
   -6.7590   23.0960  -30.3940 C   0  0  0  0  0  0  0  0  0  0  0  0
   -7.3910   21.9090  -30.7590 C   0  0  0  0  0  0  0  0  0  0  0  0
   -6.7960   21.0240  -31.6880 C   0  0  0  0  0  0  0  0  0  0  0  0
   -8.8955   19.5022  -30.5482 H   0  0  0  0  0  0  0  0  0  0  0  0
   -9.5232   20.2860  -32.0376 H   0  0  0  0  0  0  0  0  0  0  0  0
   -9.1460   18.5297  -32.0376 H   0  0  0  0  0  0  0  0  0  0  0  0
   -7.4484   17.0162  -32.1531 H   0  0  0  0  0  0  0  0  0  0  0  0
   -8.1912   17.5768  -33.6896 H   0  0  0  0  0  0  0  0  0  0  0  0
   -6.5241   16.9078  -33.6896 H   0  0  0  0  0  0  0  0  0  0  0  0
   -4.2262   17.6353  -33.8721 H   0  0  0  0  0  0  0  0  0  0  0  0
   -5.5591   17.8901  -35.0491 H   0  0  0  0  0  0  0  0  0  0  0  0
   -4.1384   18.9894  -35.0491 H   0  0  0  0  0  0  0  0  0  0  0  0
   -3.9169   22.8140  -32.2585 H   0  0  0  0  0  0  0  0  0  0  0  0
   -3.7195   22.2311  -29.1060 H   0  0  0  0  0  0  0  0  0  0  0  0
    0.6738   20.6120  -30.0588 H   0  0  0  0  0  0  0  0  0  0  0  0
    0.7544   18.8351  -29.7200 H   0  0  0  0  0  0  0  0  0  0  0  0
    1.7298   19.3329  -31.9188 H   0  0  0  0  0  0  0  0  0  0  0  0
    0.2072   18.3729  -32.0879 H   0  0  0  0  0  0  0  0  0  0  0  0
    0.8097   21.2013  -32.8908 H   0  0  0  0  0  0  0  0  0  0  0  0
   -0.2563   19.9408  -33.6596 H   0  0  0  0  0  0  0  0  0  0  0  0
   -0.8962   21.9648  -31.5207 H   0  0  0  0  0  0  0  0  0  0  0  0
   -1.8607   21.4137  -32.9487 H   0  0  0  0  0  0  0  0  0  0  0  0
   -2.8559   20.6465  -30.8121 H   0  0  0  0  0  0  0  0  0  0  0  0
   -2.2838   19.2682  -31.8583 H   0  0  0  0  0  0  0  0  0  0  0  0
    0.5500   22.3287  -28.4210 H   0  0  0  0  0  0  0  0  0  0  0  0
    0.5216   24.8130  -28.5905 H   0  0  0  0  0  0  0  0  0  0  0  0
   -7.2373   23.7657  -29.6641 H   0  0  0  0  0  0  0  0  0  0  0  0
   -8.3667   21.6566  -30.3183 H   0  0  0  0  0  0  0  0  0  0  0  0
  1  2  1  0
  2  3  2  0
  3  4  1  0
  3  5  1  0
  5  6  1  0
  5  7  1  0
  7  8  2  0
  7  9  1  0
  9 10  2  0
 10 11  1  0
 11 12  1  0
 12 13  2  0
 12 14  1  0
 14 15  1  0
 15 16  2  0
 16 17  1  0
 17 18  1  0
 18 19  2  0
 18 20  2  0
 18 21  1  0
 21 22  1  0
 22 23  1  0
 23 24  1  0
 24 25  1  0
 25 26  1  0
 17 27  2  0
 27 28  1  0
 28 29  2  0
 29 30  1  0
 11 31  2  0
 31 32  1  0
 32 33  2  0
 33  2  1  0
 33  9  1  0
 29 15  1  0
 26 21  1  0
  1 34  1  0
  1 35  1  0
  1 36  1  0
  4 37  1  0
  4 38  1  0
  4 39  1  0
  6 40  1  0
  6 41  1  0
  6 42  1  0
 10 43  1  0
 16 44  1  0
 22 45  1  0
 22 46  1  0
 23 47  1  0
 23 48  1  0
 24 49  1  0
 24 50  1  0
 25 51  1  0
 25 52  1  0
 26 53  1  0
 26 54  1  0
 27 55  1  0
 28 56  1  0
 31 57  1  0
 32 58  1  0
M  CHG  2  14  -1  30  -1
M  END
>  <UniqueID>  (4) 
4

>  <SMILES>  (4) 
Cc1c(C)n(C)c(=O)c2cc(C(=O)[N-]c3cc(S(=O)(=O)N4CCCCC4)ccc3[O-])ccc12

>  <Energy>  (4) 
89.28088294126104

>  <Genealogy>  (4) 
Cc1c(C)n(C)c(=O)c2cc(C(=O)[N-]c3cc(S(=O)(=O)N4CCCCC4)ccc3[O-])ccc12 (protonated)
Cc1c(C)n(C)c(=O)c2cc(C(=O)[N-]c3cc(S(=O)(=O)N4CCCCC4)ccc3[O-])ccc12 (3D coordinates assigned)
Cc1c(C)n(C)c(=O)c2cc(C(=O)[N-]c3cc(S(=O)(=O)N4CCCCC4)ccc3[O-])ccc12 (nonaromatic ring conformer: 89.28088294126104 kcal/mol)

>  <smiles>  (4) 
Cc1c(C)n(C)c(=O)c2cc(C(=O)Nc3cc(S(=O)(=O)N4CCCCC4)ccc3O)ccc12

>  <score_type>  (4) 
oracle

>  <origin>  (4) 
adgpu

>  <m_score__min__energy>  (4) 
-15.5

>  <m_primary>  (4) 
energy

$$$$
4:0
     RDKit          3D

 43 45  0  0  0  0  0  0  0  0999 V2000
   -0.9430   21.5440  -26.3310 C   0  0  0  0  0  0  0  0  0  0  0  0
   -1.0300   22.8220  -27.1120 C   0  0  0  0  0  0  0  0  0  0  0  0
   -0.1840   23.8970  -26.8020 C   0  0  0  0  0  0  0  0  0  0  0  0
   -0.2510   25.0800  -27.5420 C   0  0  0  0  0  0  0  0  0  0  0  0
   -1.1440   25.1940  -28.6120 C   0  0  0  0  0  0  0  0  0  0  0  0
   -1.2360   26.4050  -29.2880 O   0  0  0  0  0  0  0  0  0  0  0  0
   -1.9570   24.0990  -28.9680 C   0  0  0  0  0  0  0  0  0  0  0  0
   -2.8860   24.1650  -30.0590 N   0  0  0  0  0  0  0  0  0  0  0  0
   -3.3820   23.0440  -30.8020 C   0  0  0  0  0  0  0  0  0  0  0  0
   -2.6070   22.0820  -31.0620 O   0  0  0  0  0  0  0  0  0  0  0  0
   -4.8080   22.9770  -31.2220 C   0  0  0  0  0  0  0  0  0  0  0  0
   -5.4050   21.7190  -31.4440 C   0  0  0  0  0  0  0  0  0  0  0  0
   -6.7420   21.6170  -31.8480 C   0  0  0  0  0  0  0  0  0  0  0  0
   -7.4550   20.0290  -32.1210 S   0  0  0  0  0  0  0  0  0  0  0  0
   -8.1550   20.0060  -33.4530 O   0  0  0  0  0  0  0  0  0  0  0  0
   -8.4570   19.7650  -31.0320 O   0  0  0  0  0  0  0  0  0  0  0  0
   -6.2040   18.8040  -32.0850 N   0  0  0  0  0  0  0  0  0  0  0  0
   -5.3800   18.8740  -33.2970 C   0  0  0  0  0  0  0  0  0  0  0  0
   -5.9440   17.8910  -34.3130 C   0  0  0  0  0  0  0  0  0  0  0  0
   -6.8770   16.9870  -33.5330 C   0  0  0  0  0  0  0  0  0  0  0  0
   -6.7980   17.4630  -32.0900 C   0  0  0  0  0  0  0  0  0  0  0  0
   -7.5020   22.7760  -32.0250 C   0  0  0  0  0  0  0  0  0  0  0  0
   -6.9280   24.0290  -31.8110 C   0  0  0  0  0  0  0  0  0  0  0  0
   -5.5920   24.1400  -31.4150 C   0  0  0  0  0  0  0  0  0  0  0  0
   -5.0620   25.4110  -31.2210 O   0  0  0  0  0  0  0  0  0  0  0  0
   -1.9090   22.9280  -28.2010 C   0  0  0  0  0  0  0  0  0  0  0  0
   -0.9584   21.7703  -25.2546 H   0  0  0  0  0  0  0  0  0  0  0  0
   -1.7995   20.9013  -26.5829 H   0  0  0  0  0  0  0  0  0  0  0  0
   -0.0073   21.0233  -26.5829 H   0  0  0  0  0  0  0  0  0  0  0  0
    0.5344   23.8083  -25.9737 H   0  0  0  0  0  0  0  0  0  0  0  0
    0.4020   25.9261  -27.2817 H   0  0  0  0  0  0  0  0  0  0  0  0
   -4.8118   20.8043  -31.2977 H   0  0  0  0  0  0  0  0  0  0  0  0
   -5.4097   19.8935  -33.7091 H   0  0  0  0  0  0  0  0  0  0  0  0
   -4.3359   18.6201  -33.0618 H   0  0  0  0  0  0  0  0  0  0  0  0
   -6.4967   18.4264  -35.0991 H   0  0  0  0  0  0  0  0  0  0  0  0
   -5.1471   17.3197  -34.8115 H   0  0  0  0  0  0  0  0  0  0  0  0
   -7.9057   17.0787  -33.9116 H   0  0  0  0  0  0  0  0  0  0  0  0
   -6.5919   15.9289  -33.6283 H   0  0  0  0  0  0  0  0  0  0  0  0
   -7.8072   17.5005  -31.6539 H   0  0  0  0  0  0  0  0  0  0  0  0
   -6.1843   16.7719  -31.4935 H   0  0  0  0  0  0  0  0  0  0  0  0
   -8.5551   22.7001  -32.3337 H   0  0  0  0  0  0  0  0  0  0  0  0
   -7.5315   24.9373  -31.9550 H   0  0  0  0  0  0  0  0  0  0  0  0
   -2.5665   22.0834  -28.4546 H   0  0  0  0  0  0  0  0  0  0  0  0
  1  2  1  0
  2  3  2  0
  3  4  1  0
  4  5  2  0
  5  6  1  0
  5  7  1  0
  7  8  1  0
  8  9  1  0
  9 10  2  0
  9 11  1  0
 11 12  2  0
 12 13  1  0
 13 14  1  0
 14 15  2  0
 14 16  2  0
 14 17  1  0
 17 18  1  0
 18 19  1  0
 19 20  1  0
 20 21  1  0
 13 22  2  0
 22 23  1  0
 23 24  2  0
 24 25  1  0
  7 26  2  0
 26  2  1  0
 24 11  1  0
 21 17  1  0
  1 27  1  0
  1 28  1  0
  1 29  1  0
  3 30  1  0
  4 31  1  0
 12 32  1  0
 18 33  1  0
 18 34  1  0
 19 35  1  0
 19 36  1  0
 20 37  1  0
 20 38  1  0
 21 39  1  0
 21 40  1  0
 22 41  1  0
 23 42  1  0
 26 43  1  0
M  CHG  3   6  -1   8  -1  25  -1
M  END
>  <UniqueID>  (5) 
5

>  <SMILES>  (5) 
Cc1ccc([O-])c([N-]C(=O)c2cc(S(=O)(=O)N3CCCC3)ccc2[O-])c1

>  <Energy>  (5) 
53.07299342120185

>  <Genealogy>  (5) 
Cc1ccc([O-])c([N-]C(=O)c2cc(S(=O)(=O)N3CCCC3)ccc2[O-])c1 (protonated)
Cc1ccc([O-])c([N-]C(=O)c2cc(S(=O)(=O)N3CCCC3)ccc2[O-])c1 (3D coordinates assigned)
Cc1ccc([O-])c([N-]C(=O)c2cc(S(=O)(=O)N3CCCC3)ccc2[O-])c1 (nonaromatic ring conformer: 53.07299342120185 kcal/mol)

>  <smiles>  (5) 
Cc1ccc(O)c(NC(=O)c2cc(S(=O)(=O)N3CCCC3)ccc2O)c1

>  <score_type>  (5) 
oracle

>  <origin>  (5) 
adgpu

>  <m_score__min__energy>  (5) 
-15.619999999999999

>  <m_primary>  (5) 
energy

$$$$
5:0
     RDKit          3D

 51 53  0  0  0  0  0  0  0  0999 V2000
   -4.8900   26.7790  -29.9440 H   0  0  0  0  0  0  0  0  0  0  0  0
   -5.2310   25.9400  -30.4660 N   0  0  0  0  0  0  0  0  0  0  0  0
   -4.5520   24.8370  -30.4970 C   0  0  0  0  0  0  0  0  0  0  0  0
   -3.3670   24.7620  -29.8370 N   0  0  0  0  0  0  0  0  0  0  0  0
   -2.5960   23.6450  -29.8400 C   0  0  0  0  0  0  0  0  0  0  0  0
   -1.0110   23.7040  -28.9860 S   0  0  0  0  0  0  0  0  0  0  0  0
   -1.5320   22.6490  -27.5820 C   0  0  0  0  0  0  0  0  0  0  0  0
   -1.2498   23.1421  -26.6401 H   0  0  0  0  0  0  0  0  0  0  0  0
   -2.6217   22.5104  -27.6394 H   0  0  0  0  0  0  0  0  0  0  0  0
   -0.8790   21.2940  -27.6400 C   0  0  0  0  0  0  0  0  0  0  0  0
   -1.6090   20.1400  -27.3140 C   0  0  0  0  0  0  0  0  0  0  0  0
   -2.6374   20.2321  -26.9346 H   0  0  0  0  0  0  0  0  0  0  0  0
   -1.0360   18.8750  -27.4690 C   0  0  0  0  0  0  0  0  0  0  0  0
   -1.6152   17.9755  -27.2131 H   0  0  0  0  0  0  0  0  0  0  0  0
    0.2730   18.7490  -27.9490 C   0  0  0  0  0  0  0  0  0  0  0  0
    0.9640   17.1470  -28.1810 S   0  0  0  0  0  0  0  0  0  0  0  0
    2.4530   17.2620  -28.3420 O   0  0  0  0  0  0  0  0  0  0  0  0
    0.3820   16.5020  -29.4080 O   0  0  0  0  0  0  0  0  0  0  0  0
    0.6030   16.1630  -26.8060 N   0  0  0  0  0  0  0  0  0  0  0  0
   -0.4350   16.1600  -26.6960 H   0  0  0  0  0  0  0  0  0  0  0  0
    0.9940   16.6520  -25.9690 H   0  0  0  0  0  0  0  0  0  0  0  0
    1.0140   19.9000  -28.2550 C   0  0  0  0  0  0  0  0  0  0  0  0
    2.0493   19.8066  -28.6147 H   0  0  0  0  0  0  0  0  0  0  0  0
    0.4400   21.1650  -28.1040 C   0  0  0  0  0  0  0  0  0  0  0  0
    1.0242   22.0641  -28.3498 H   0  0  0  0  0  0  0  0  0  0  0  0
   -3.0280   22.4970  -30.5280 C   0  0  0  0  0  0  0  0  0  0  0  0
   -2.2050   21.3080  -30.5400 C   0  0  0  0  0  0  0  0  0  0  0  0
   -1.5470   20.3560  -30.5470 N   0  0  0  0  0  0  0  0  0  0  0  0
   -4.2560   22.5350  -31.2260 C   0  0  0  0  0  0  0  0  0  0  0  0
   -4.7300   21.3460  -31.9770 C   0  0  0  0  0  0  0  0  0  0  0  0
   -3.9840   20.8490  -33.0530 C   0  0  0  0  0  0  0  0  0  0  0  0
   -3.0476   21.3465  -33.3458 H   0  0  0  0  0  0  0  0  0  0  0  0
   -4.4220   19.7270  -33.7550 C   0  0  0  0  0  0  0  0  0  0  0  0
   -3.8299   19.3456  -34.5999 H   0  0  0  0  0  0  0  0  0  0  0  0
   -5.6190   19.0780  -33.3890 C   0  0  0  0  0  0  0  0  0  0  0  0
   -6.0900   17.9440  -34.0680 O   0  0  0  0  0  0  0  0  0  0  0  0
   -6.1950   16.6450  -33.4930 C   0  0  0  0  0  0  0  0  0  0  0  0
   -6.1883   16.7279  -32.3961 H   0  0  0  0  0  0  0  0  0  0  0  0
   -7.1341   16.1743  -33.8194 H   0  0  0  0  0  0  0  0  0  0  0  0
   -5.3437   16.0296  -33.8194 H   0  0  0  0  0  0  0  0  0  0  0  0
   -6.3710   19.5720  -32.3110 C   0  0  0  0  0  0  0  0  0  0  0  0
   -7.5570   18.9040  -31.9640 O   0  0  0  0  0  0  0  0  0  0  0  0
   -8.8600   19.4720  -32.0590 C   0  0  0  0  0  0  0  0  0  0  0  0
   -9.2588   19.6458  -31.0487 H   0  0  0  0  0  0  0  0  0  0  0  0
   -8.8048   20.4277  -32.6008 H   0  0  0  0  0  0  0  0  0  0  0  0
   -9.5226   18.7811  -32.6008 H   0  0  0  0  0  0  0  0  0  0  0  0
   -5.9220   20.7080  -31.6100 C   0  0  0  0  0  0  0  0  0  0  0  0
   -6.5121   21.0975  -30.7674 H   0  0  0  0  0  0  0  0  0  0  0  0
   -5.0250   23.7220  -31.2110 C   0  0  0  0  0  0  0  0  0  0  0  0
   -6.3000   23.7890  -31.8960 C   0  0  0  0  0  0  0  0  0  0  0  0
   -7.3180   23.8390  -32.4430 N   0  0  0  0  0  0  0  0  0  0  0  0
  1  2  1  0
  2  3  2  0
  3  4  1  0
  4  5  1  0
  5  6  1  0
  6  7  1  0
  7  8  1  0
  7  9  1  0
  7 10  1  0
 10 11  2  0
 11 12  1  0
 11 13  1  0
 13 14  1  0
 13 15  2  0
 15 16  1  0
 16 17  2  0
 16 18  2  0
 16 19  1  0
 19 20  1  0
 19 21  1  0
 15 22  1  0
 22 23  1  0
 22 24  2  0
 24 25  1  0
  5 26  2  0
 26 27  1  0
 27 28  3  0
 26 29  1  0
 29 30  1  0
 30 31  2  0
 31 32  1  0
 31 33  1  0
 33 34  1  0
 33 35  2  0
 35 36  1  0
 36 37  1  0
 37 38  1  0
 37 39  1  0
 37 40  1  0
 35 41  1  0
 41 42  1  0
 42 43  1  0
 43 44  1  0
 43 45  1  0
 43 46  1  0
 41 47  2  0
 47 48  1  0
 29 49  2  0
 49 50  1  0
 50 51  3  0
 49  3  1  0
 24 10  1  0
 47 30  1  0
M  CHG  1   4  -1
M  END
>  <UniqueID>  (6) 
6

>  <SMILES>  (6) 
[H]/N=c1\[n-]c(SCc2ccc(S(N)(=O)=O)cc2)c(C#N)c(-c2ccc(OC)c(OC)c2)c1C#N

>  <Energy>  (6) 
55.71844556250354

>  <Genealogy>  (6) 
COc1ccc(-c2c(C#N)c(SCc3ccc(S(N)(=O)=O)cc3)[n-]c(=N)c2C#N)cc1OC (protonated)
[H]/N=c1\[n-]c(SCc2ccc(S(N)(=O)=O)cc2)c(C#N)c(-c2ccc(OC)c(OC)c2)c1C#N (cis-trans isomerization)
[H]/N=c1\[n-]c(SCc2ccc(S(N)(=O)=O)cc2)c(C#N)c(-c2ccc(OC)c(OC)c2)c1C#N (3D coordinates assigned)
[H]/N=c1\[n-]c(SCc2ccc(S(N)(=O)=O)cc2)c(C#N)c(-c2ccc(OC)c(OC)c2)c1C#N (optimized conformer: 55.71844556250354 kcal/mol)

>  <smiles>  (6) 
COc1ccc(-c2c(C#N)c(SCc3ccc(S(N)(=O)=O)cc3)[nH]c(=N)c2C#N)cc1OC

>  <score_type>  (6) 
oracle

>  <origin>  (6) 
adgpu

>  <m_score__min__energy>  (6) 
-10.93

>  <m_primary>  (6) 
energy

$$$$
6:0
     RDKit          3D

 53 57  0  0  0  0  0  0  0  0999 V2000
   -3.1880   24.7710  -30.0710 O   0  0  0  0  0  0  0  0  0  0  0  0
   -2.8150   23.6060  -29.7660 C   0  0  0  0  0  0  0  0  0  0  0  0
   -2.2910   22.7110  -30.8230 C   0  0  0  0  0  0  0  0  0  0  0  0
   -3.1120   22.3270  -31.8980 C   0  0  0  0  0  0  0  0  0  0  0  0
   -2.6250   21.4760  -32.8940 C   0  0  0  0  0  0  0  0  0  0  0  0
   -1.3120   20.9910  -32.8270 C   0  0  0  0  0  0  0  0  0  0  0  0
   -0.8100   20.1120  -33.8530 N   0  0  0  0  0  0  0  0  0  0  0  0
   -1.3010   18.8340  -33.9920 C   0  0  0  0  0  0  0  0  0  0  0  0
   -2.4520   18.2310  -32.9850 S   0  0  0  0  0  0  0  0  0  0  0  0
   -0.8200   18.0210  -34.9660 N   0  0  0  0  0  0  0  0  0  0  0  0
    0.1440   18.4320  -35.8230 C   0  0  0  0  0  0  0  0  0  0  0  0
    0.6140   17.5640  -36.8170 C   0  0  0  0  0  0  0  0  0  0  0  0
    1.6110   17.9870  -37.7000 C   0  0  0  0  0  0  0  0  0  0  0  0
    2.1410   19.2760  -37.5950 C   0  0  0  0  0  0  0  0  0  0  0  0
    1.6780   20.1480  -36.6050 C   0  0  0  0  0  0  0  0  0  0  0  0
    0.6740   19.7310  -35.7100 C   0  0  0  0  0  0  0  0  0  0  0  0
    0.1700   20.5660  -34.6990 C   0  0  0  0  0  0  0  0  0  0  0  0
    0.6200   21.7420  -34.5760 O   0  0  0  0  0  0  0  0  0  0  0  0
   -0.4940   21.3550  -31.7480 C   0  0  0  0  0  0  0  0  0  0  0  0
   -0.9800   22.2060  -30.7520 C   0  0  0  0  0  0  0  0  0  0  0  0
   -2.9200   23.1640  -28.3980 N   0  0  0  0  0  0  0  0  0  0  0  0
   -3.9450   23.7010  -27.5210 C   0  0  0  0  0  0  0  0  0  0  0  0
   -3.3840   24.8770  -26.7210 C   0  0  0  0  0  0  0  0  0  0  0  0
   -1.9540   24.7500  -26.3370 N   0  0  0  0  0  0  0  0  0  0  0  0
   -1.3610   25.7920  -25.4970 C   0  0  0  0  0  0  0  0  0  0  0  0
   -1.2520   27.1320  -25.9510 C   0  0  0  0  0  0  0  0  0  0  0  0
   -0.6870   28.1240  -25.1440 C   0  0  0  0  0  0  0  0  0  0  0  0
   -0.2130   27.8100  -23.8730 C   0  0  0  0  0  0  0  0  0  0  0  0
   -0.2990   26.5010  -23.4040 C   0  0  0  0  0  0  0  0  0  0  0  0
   -0.8630   25.5010  -24.2020 C   0  0  0  0  0  0  0  0  0  0  0  0
   -1.0630   23.7060  -26.9050 C   0  0  0  0  0  0  0  0  0  0  0  0
   -1.7700   22.6080  -27.7030 C   0  0  0  0  0  0  0  0  0  0  0  0
   -4.1455   22.6992  -31.9555 H   0  0  0  0  0  0  0  0  0  0  0  0
   -3.2744   21.1860  -33.7331 H   0  0  0  0  0  0  0  0  0  0  0  0
    0.1981   16.5492  -36.9025 H   0  0  0  0  0  0  0  0  0  0  0  0
    1.9795   17.3040  -38.4795 H   0  0  0  0  0  0  0  0  0  0  0  0
    2.9246   19.6054  -38.2932 H   0  0  0  0  0  0  0  0  0  0  0  0
    2.0986   21.1613  -36.5251 H   0  0  0  0  0  0  0  0  0  0  0  0
    0.5342   20.9692  -31.6853 H   0  0  0  0  0  0  0  0  0  0  0  0
   -0.3330   22.4829  -29.9066 H   0  0  0  0  0  0  0  0  0  0  0  0
   -4.7978   24.0448  -28.1248 H   0  0  0  0  0  0  0  0  0  0  0  0
   -4.2737   22.9148  -26.8255 H   0  0  0  0  0  0  0  0  0  0  0  0
   -3.4946   25.7870  -27.3290 H   0  0  0  0  0  0  0  0  0  0  0  0
   -3.9533   24.9084  -25.7803 H   0  0  0  0  0  0  0  0  0  0  0  0
   -1.6181   27.3946  -26.9545 H   0  0  0  0  0  0  0  0  0  0  0  0
   -0.6166   29.1572  -25.5148 H   0  0  0  0  0  0  0  0  0  0  0  0
    0.2286   28.5941  -23.2404 H   0  0  0  0  0  0  0  0  0  0  0  0
    0.0786   26.2530  -22.4011 H   0  0  0  0  0  0  0  0  0  0  0  0
   -0.9213   24.4716  -23.8187 H   0  0  0  0  0  0  0  0  0  0  0  0
   -0.3419   24.2006  -27.5723 H   0  0  0  0  0  0  0  0  0  0  0  0
   -0.5947   23.2044  -26.0453 H   0  0  0  0  0  0  0  0  0  0  0  0
   -1.0703   22.1829  -28.4376 H   0  0  0  0  0  0  0  0  0  0  0  0
   -2.1091   21.8206  -27.0138 H   0  0  0  0  0  0  0  0  0  0  0  0
  1  2  2  0
  2  3  1  0
  3  4  2  0
  4  5  1  0
  5  6  2  0
  6  7  1  0
  7  8  1  0
  8  9  2  0
  8 10  1  0
 10 11  1  0
 11 12  2  0
 12 13  1  0
 13 14  2  0
 14 15  1  0
 15 16  2  0
 16 17  1  0
 17 18  2  0
  6 19  1  0
 19 20  2  0
  2 21  1  0
 21 22  1  0
 22 23  1  0
 23 24  1  0
 24 25  1  0
 25 26  2  0
 26 27  1  0
 27 28  2  0
 28 29  1  0
 29 30  2  0
 24 31  1  0
 31 32  1  0
 20  3  1  0
 32 21  1  0
 17  7  1  0
 30 25  1  0
 16 11  1  0
  4 33  1  0
  5 34  1  0
 12 35  1  0
 13 36  1  0
 14 37  1  0
 15 38  1  0
 19 39  1  0
 20 40  1  0
 22 41  1  0
 22 42  1  0
 23 43  1  0
 23 44  1  0
 26 45  1  0
 27 46  1  0
 28 47  1  0
 29 48  1  0
 30 49  1  0
 31 50  1  0
 31 51  1  0
 32 52  1  0
 32 53  1  0
M  CHG  1  10  -1
M  END
>  <UniqueID>  (7) 
7

>  <SMILES>  (7) 
O=C(c1ccc(-n2c(=S)[n-]c3ccccc3c2=O)cc1)N1CCN(c2ccccc2)CC1

>  <Energy>  (7) 
89.02977440506645

>  <Genealogy>  (7) 
O=C(c1ccc(-n2c(=S)[n-]c3ccccc3c2=O)cc1)N1CCN(c2ccccc2)CC1 (protonated)
O=C(c1ccc(-n2c(=S)[n-]c3ccccc3c2=O)cc1)N1CCN(c2ccccc2)CC1 (3D coordinates assigned)
O=C(c1ccc(-n2c(=S)[n-]c3ccccc3c2=O)cc1)N1CCN(c2ccccc2)CC1 (nonaromatic ring conformer: 89.02977440506645 kcal/mol)

>  <smiles>  (7) 
O=C(c1ccc(-n2c(=S)[nH]c3ccccc3c2=O)cc1)N1CCN(c2ccccc2)CC1

>  <score_type>  (7) 
oracle

>  <origin>  (7) 
adgpu

>  <m_score__min__energy>  (7) 
-8.8399999999999999

>  <m_primary>  (7) 
energy

$$$$
7:0
     RDKit          3D

 62 65  0  0  0  0  0  0  0  0999 V2000
   -6.7880   23.3340  -31.9100 C   0  0  0  0  0  0  0  0  0  0  0  0
   -6.1420   23.2130  -30.5300 C   0  0  0  0  0  0  0  0  0  0  0  0
   -4.7730   22.6760  -30.6200 N   0  0  0  0  0  0  0  0  0  0  0  0
   -4.4950   21.4460  -31.3200 C   0  0  0  0  0  0  0  0  0  0  0  0
   -5.3000   20.4780  -31.2140 O   0  0  0  0  0  0  0  0  0  0  0  0
   -3.2810   21.2730  -32.1460 C   0  0  0  0  0  0  0  0  0  0  0  0
   -3.3690   20.6650  -33.4090 C   0  0  0  0  0  0  0  0  0  0  0  0
   -2.2220   20.4820  -34.1870 C   0  0  0  0  0  0  0  0  0  0  0  0
   -0.9710   20.8980  -33.7130 C   0  0  0  0  0  0  0  0  0  0  0  0
    0.4750   20.6840  -34.7030 S   0  0  0  0  0  0  0  0  0  0  0  0
    0.0650   20.4490  -36.1320 O   0  0  0  0  0  0  0  0  0  0  0  0
    1.2980   21.9420  -34.6550 O   0  0  0  0  0  0  0  0  0  0  0  0
    1.4430   19.3340  -34.1550 N   0  0  0  0  0  0  0  0  0  0  0  0
    0.6530   18.0860  -34.0850 C   0  0  0  0  0  0  0  0  0  0  0  0
    0.2940   17.7080  -32.6370 C   0  0  0  0  0  0  0  0  0  0  0  0
    1.4290   17.5390  -31.8000 O   0  0  0  0  0  0  0  0  0  0  0  0
    2.5240   18.3770  -32.1420 C   0  0  0  0  0  0  0  0  0  0  0  0
    2.1180   19.6610  -32.8840 C   0  0  0  0  0  0  0  0  0  0  0  0
   -0.8760   21.4810  -32.4410 C   0  0  0  0  0  0  0  0  0  0  0  0
   -2.0220   21.6660  -31.6620 C   0  0  0  0  0  0  0  0  0  0  0  0
   -3.7510   23.2220  -29.7660 C   0  0  0  0  0  0  0  0  0  0  0  0
   -3.1150   22.4390  -28.7790 C   0  0  0  0  0  0  0  0  0  0  0  0
   -3.4670   21.0480  -28.6570 N   0  0  0  0  0  0  0  0  0  0  0  0
   -2.1530   23.0110  -27.9690 N   0  0  0  0  0  0  0  0  0  0  0  0
   -1.4830   22.2270  -26.9050 C   0  0  0  0  0  0  0  0  0  0  0  0
   -0.8820   20.9590  -27.4590 C   0  0  0  0  0  0  0  0  0  0  0  0
   -1.2180   19.7110  -26.9030 C   0  0  0  0  0  0  0  0  0  0  0  0
   -0.6730   18.5350  -27.4270 C   0  0  0  0  0  0  0  0  0  0  0  0
    0.1950   18.5910  -28.5210 C   0  0  0  0  0  0  0  0  0  0  0  0
    0.5160   19.8230  -29.0950 C   0  0  0  0  0  0  0  0  0  0  0  0
   -0.0210   21.0030  -28.5710 C   0  0  0  0  0  0  0  0  0  0  0  0
   -1.8210   24.3360  -28.1420 C   0  0  0  0  0  0  0  0  0  0  0  0
   -0.9590   24.8900  -27.4100 O   0  0  0  0  0  0  0  0  0  0  0  0
   -2.4170   25.0750  -29.1100 N   0  0  0  0  0  0  0  0  0  0  0  0
   -3.3620   24.5520  -29.9210 C   0  0  0  0  0  0  0  0  0  0  0  0
   -3.8860   25.2740  -30.8120 O   0  0  0  0  0  0  0  0  0  0  0  0
   -7.8633   23.5354  -31.7951 H   0  0  0  0  0  0  0  0  0  0  0  0
   -6.3175   24.1596  -32.4640 H   0  0  0  0  0  0  0  0  0  0  0  0
   -6.6482   22.3940  -32.4640 H   0  0  0  0  0  0  0  0  0  0  0  0
   -6.1055   24.2087  -30.0639 H   0  0  0  0  0  0  0  0  0  0  0  0
   -6.7457   22.5198  -29.9259 H   0  0  0  0  0  0  0  0  0  0  0  0
   -4.3460   20.3309  -33.7882 H   0  0  0  0  0  0  0  0  0  0  0  0
   -2.3022   20.0088  -35.1768 H   0  0  0  0  0  0  0  0  0  0  0  0
   -0.2768   18.2223  -34.6568 H   0  0  0  0  0  0  0  0  0  0  0  0
    1.2648   17.2741  -34.5051 H   0  0  0  0  0  0  0  0  0  0  0  0
   -0.3353   18.5051  -32.2144 H   0  0  0  0  0  0  0  0  0  0  0  0
   -0.2289   16.7409  -32.6741 H   0  0  0  0  0  0  0  0  0  0  0  0
    3.0444   18.6621  -31.2158 H   0  0  0  0  0  0  0  0  0  0  0  0
    3.1647   17.8017  -32.8265 H   0  0  0  0  0  0  0  0  0  0  0  0
    1.4333   20.2438  -32.2503 H   0  0  0  0  0  0  0  0  0  0  0  0
    3.0235   20.2458  -33.1031 H   0  0  0  0  0  0  0  0  0  0  0  0
    0.1050   21.7942  -32.0544 H   0  0  0  0  0  0  0  0  0  0  0  0
   -1.9375   22.1218  -30.6645 H   0  0  0  0  0  0  0  0  0  0  0  0
   -3.2470   20.4720  -27.8170 H   0  0  0  0  0  0  0  0  0  0  0  0
   -3.9430   20.5370  -29.4330 H   0  0  0  0  0  0  0  0  0  0  0  0
   -0.6844   22.8374  -26.4583 H   0  0  0  0  0  0  0  0  0  0  0  0
   -2.2329   21.9554  -26.1474 H   0  0  0  0  0  0  0  0  0  0  0  0
   -1.9129   19.6603  -26.0518 H   0  0  0  0  0  0  0  0  0  0  0  0
   -0.9278   17.5639  -26.9775 H   0  0  0  0  0  0  0  0  0  0  0  0
    0.6252   17.6648  -28.9298 H   0  0  0  0  0  0  0  0  0  0  0  0
    1.1927   19.8652  -29.9612 H   0  0  0  0  0  0  0  0  0  0  0  0
    0.2309   21.9703  -29.0303 H   0  0  0  0  0  0  0  0  0  0  0  0
  1  2  1  0
  2  3  1  0
  3  4  1  0
  4  5  2  0
  4  6  1  0
  6  7  2  0
  7  8  1  0
  8  9  2  0
  9 10  1  0
 10 11  2  0
 10 12  2  0
 10 13  1  0
 13 14  1  0
 14 15  1  0
 15 16  1  0
 16 17  1  0
 17 18  1  0
  9 19  1  0
 19 20  2  0
  3 21  1  0
 21 22  2  0
 22 23  1  0
 22 24  1  0
 24 25  1  0
 25 26  1  0
 26 27  2  0
 27 28  1  0
 28 29  2  0
 29 30  1  0
 30 31  2  0
 24 32  1  0
 32 33  2  0
 32 34  1  0
 34 35  1  0
 35 36  2  0
 20  6  1  0
 35 21  1  0
 18 13  1  0
 31 26  1  0
  1 37  1  0
  1 38  1  0
  1 39  1  0
  2 40  1  0
  2 41  1  0
  7 42  1  0
  8 43  1  0
 14 44  1  0
 14 45  1  0
 15 46  1  0
 15 47  1  0
 17 48  1  0
 17 49  1  0
 18 50  1  0
 18 51  1  0
 19 52  1  0
 20 53  1  0
 23 54  1  0
 23 55  1  0
 25 56  1  0
 25 57  1  0
 27 58  1  0
 28 59  1  0
 29 60  1  0
 30 61  1  0
 31 62  1  0
M  CHG  1  34  -1
M  END
>  <UniqueID>  (8) 
8

>  <SMILES>  (8) 
CCN(C(=O)c1ccc(S(=O)(=O)N2CCOCC2)cc1)c1c(N)n(Cc2ccccc2)c(=O)[n-]c1=O

>  <Energy>  (8) 
93.63527457389719

>  <Genealogy>  (8) 
CCN(C(=O)c1ccc(S(=O)(=O)N2CCOCC2)cc1)c1c(N)n(Cc2ccccc2)c(=O)[n-]c1=O (protonated)
CCN(C(=O)c1ccc(S(=O)(=O)N2CCOCC2)cc1)c1c(N)n(Cc2ccccc2)c(=O)[n-]c1=O (3D coordinates assigned)
CCN(C(=O)c1ccc(S(=O)(=O)N2CCOCC2)cc1)c1c(N)n(Cc2ccccc2)c(=O)[n-]c1=O (nonaromatic ring conformer: 93.63527457389719 kcal/mol)

>  <smiles>  (8) 
CCN(C(=O)c1ccc(S(=O)(=O)N2CCOCC2)cc1)c1c(N)n(Cc2ccccc2)c(=O)[nH]c1=O

>  <score_type>  (8) 
oracle

>  <origin>  (8) 
adgpu

>  <m_score__min__energy>  (8) 
-10.94

>  <m_primary>  (8) 
energy

$$$$
8:0
     RDKit          3D

 43 45  0  0  0  0  0  0  0  0999 V2000
   -0.9440   19.7140  -33.8420 C   0  0  0  0  0  0  0  0  0  0  0  0
   -1.9490   20.3650  -32.9490 C   0  0  0  0  0  0  0  0  0  0  0  0
   -1.7220   20.4330  -31.7110 O   0  0  0  0  0  0  0  0  0  0  0  0
   -3.1120   20.9890  -33.5160 N   0  0  0  0  0  0  0  0  0  0  0  0
   -4.2220   21.4800  -32.7440 C   0  0  0  0  0  0  0  0  0  0  0  0
   -5.3770   20.6960  -32.6270 C   0  0  0  0  0  0  0  0  0  0  0  0
   -6.4620   21.1410  -31.8670 C   0  0  0  0  0  0  0  0  0  0  0  0
   -6.3970   22.3680  -31.2030 C   0  0  0  0  0  0  0  0  0  0  0  0
   -7.4620   22.7840  -30.4710 F   0  0  0  0  0  0  0  0  0  0  0  0
   -5.2380   23.1550  -31.2890 C   0  0  0  0  0  0  0  0  0  0  0  0
   -5.1530   24.6910  -30.4290 S   0  0  0  0  0  0  0  0  0  0  0  0
   -4.3100   25.6680  -31.1990 O   0  0  0  0  0  0  0  0  0  0  0  0
   -6.5440   25.2390  -30.2730 O   0  0  0  0  0  0  0  0  0  0  0  0
   -4.4410   24.4210  -28.8720 N   0  0  0  0  0  0  0  0  0  0  0  0
   -3.2230   23.7030  -28.6300 C   0  0  0  0  0  0  0  0  0  0  0  0
   -3.2220   22.3790  -28.1550 C   0  0  0  0  0  0  0  0  0  0  0  0
   -2.0100   21.7070  -27.9390 C   0  0  0  0  0  0  0  0  0  0  0  0
   -0.7940   22.3610  -28.1810 C   0  0  0  0  0  0  0  0  0  0  0  0
   -0.7920   23.6840  -28.6400 C   0  0  0  0  0  0  0  0  0  0  0  0
   -2.0010   24.3490  -28.8690 C   0  0  0  0  0  0  0  0  0  0  0  0
   -1.9810   25.6600  -29.3320 O   0  0  0  0  0  0  0  0  0  0  0  0
    0.4870   21.6250  -27.8950 C   0  0  0  0  0  0  0  0  0  0  0  0
    0.4100   20.1850  -28.4280 C   0  0  0  0  0  0  0  0  0  0  0  0
   -0.9190   19.4500  -28.1080 C   0  0  0  0  0  0  0  0  0  0  0  0
   -1.9770   20.3070  -27.3870 C   0  0  0  0  0  0  0  0  0  0  0  0
   -4.1510   22.7040  -32.0540 C   0  0  0  0  0  0  0  0  0  0  0  0
   -0.1769   19.2171  -33.2298 H   0  0  0  0  0  0  0  0  0  0  0  0
   -1.4458   18.9689  -34.4769 H   0  0  0  0  0  0  0  0  0  0  0  0
   -0.4692   20.4766  -34.4769 H   0  0  0  0  0  0  0  0  0  0  0  0
   -3.1100   21.1710  -34.5460 H   0  0  0  0  0  0  0  0  0  0  0  0
   -5.4303   19.7229  -33.1371 H   0  0  0  0  0  0  0  0  0  0  0  0
   -7.3692   20.5236  -31.7916 H   0  0  0  0  0  0  0  0  0  0  0  0
   -4.1752   21.8688  -27.9522 H   0  0  0  0  0  0  0  0  0  0  0  0
    0.1619   24.2011  -28.8207 H   0  0  0  0  0  0  0  0  0  0  0  0
    1.3221   22.1480  -28.3840 H   0  0  0  0  0  0  0  0  0  0  0  0
    0.6447   21.5941  -26.8068 H   0  0  0  0  0  0  0  0  0  0  0  0
    0.5306   20.2164  -29.5209 H   0  0  0  0  0  0  0  0  0  0  0  0
    1.2084   19.6215  -27.9229 H   0  0  0  0  0  0  0  0  0  0  0  0
   -1.3521   19.0988  -29.0562 H   0  0  0  0  0  0  0  0  0  0  0  0
   -0.6613   18.6331  -27.4179 H   0  0  0  0  0  0  0  0  0  0  0  0
   -2.9660   19.8446  -27.5215 H   0  0  0  0  0  0  0  0  0  0  0  0
   -1.7157   20.3589  -26.3197 H   0  0  0  0  0  0  0  0  0  0  0  0
   -3.2365   23.3123  -32.1145 H   0  0  0  0  0  0  0  0  0  0  0  0
  1  2  1  0
  2  3  2  0
  2  4  1  0
  4  5  1  0
  5  6  2  0
  6  7  1  0
  7  8  2  0
  8  9  1  0
  8 10  1  0
 10 11  1  0
 11 12  2  0
 11 13  2  0
 11 14  1  0
 14 15  1  0
 15 16  2  0
 16 17  1  0
 17 18  2  0
 18 19  1  0
 19 20  2  0
 20 21  1  0
 18 22  1  0
 22 23  1  0
 23 24  1  0
 24 25  1  0
 10 26  2  0
 26  5  1  0
 20 15  1  0
 25 17  1  0
  1 27  1  0
  1 28  1  0
  1 29  1  0
  4 30  1  0
  6 31  1  0
  7 32  1  0
 16 33  1  0
 19 34  1  0
 22 35  1  0
 22 36  1  0
 23 37  1  0
 23 38  1  0
 24 39  1  0
 24 40  1  0
 25 41  1  0
 25 42  1  0
 26 43  1  0
M  CHG  2  14  -1  21  -1
M  END
>  <UniqueID>  (9) 
9

>  <SMILES>  (9) 
CC(=O)Nc1ccc(F)c(S(=O)(=O)[N-]c2cc3c(cc2[O-])CCCC3)c1

>  <Energy>  (9) 
55.19813258475006

>  <Genealogy>  (9) 
CC(=O)Nc1ccc(F)c(S(=O)(=O)[N-]c2cc3c(cc2[O-])CCCC3)c1 (protonated)
CC(=O)Nc1ccc(F)c(S(=O)(=O)[N-]c2cc3c(cc2[O-])CCCC3)c1 (3D coordinates assigned)
CC(=O)Nc1ccc(F)c(S(=O)(=O)[N-]c2cc3c(cc2[O-])CCCC3)c1 (nonaromatic ring conformer: 55.19813258475006 kcal/mol)

>  <smiles>  (9) 
CC(=O)Nc1ccc(F)c(S(=O)(=O)Nc2cc3c(cc2O)CCCC3)c1

>  <score_type>  (9) 
oracle

>  <origin>  (9) 
adgpu

>  <m_score__min__energy>  (9) 
-13.039999999999999

>  <m_primary>  (9) 
energy

$$$$
9:0
     RDKit          3D

 54 57  0  0  0  0  0  0  0  0999 V2000
    1.1470   24.4290  -27.7370 O   0  0  0  0  0  0  0  0  0  0  0  0
   -0.0080   24.8990  -27.5600 C   0  0  0  0  0  0  0  0  0  0  0  0
   -1.1660   24.2250  -28.1890 C   0  0  0  0  0  0  0  0  0  0  0  0
   -1.3230   22.8340  -28.0890 C   0  0  0  0  0  0  0  0  0  0  0  0
   -2.4190   22.2060  -28.6830 C   0  0  0  0  0  0  0  0  0  0  0  0
   -3.3480   22.9740  -29.3980 C   0  0  0  0  0  0  0  0  0  0  0  0
   -4.5650   22.3400  -30.0070 C   0  0  0  0  0  0  0  0  0  0  0  0
   -4.5080   22.4290  -31.4640 N   0  0  0  0  0  0  0  0  0  0  0  0
   -4.6510   21.2870  -32.3190 C   0  0  0  0  0  0  0  0  0  0  0  0
   -5.6430   20.3660  -32.6560 C   0  0  0  0  0  0  0  0  0  0  0  0
   -7.0020   20.0890  -32.2860 N   0  0  0  0  0  0  0  0  0  0  0  0
   -7.5880   18.7660  -32.2200 C   0  0  0  0  0  0  0  0  0  0  0  0
   -9.0690   18.9770  -31.9300 C   0  0  0  0  0  0  0  0  0  0  0  0
   -9.3350   20.4700  -32.1020 C   0  0  0  0  0  0  0  0  0  0  0  0
   -7.9730   21.1490  -32.0830 C   0  0  0  0  0  0  0  0  0  0  0  0
   -4.7460   19.7210  -33.4880 C   0  0  0  0  0  0  0  0  0  0  0  0
   -4.7990   18.7200  -34.2480 O   0  0  0  0  0  0  0  0  0  0  0  0
   -3.7600   20.6130  -33.1280 C   0  0  0  0  0  0  0  0  0  0  0  0
   -2.5430   20.7580  -33.4220 O   0  0  0  0  0  0  0  0  0  0  0  0
   -3.1770   24.3200  -29.4890 N   0  0  0  0  0  0  0  0  0  0  0  0
   -2.1210   24.9540  -28.9160 C   0  0  0  0  0  0  0  0  0  0  0  0
   -0.1760   26.0760  -26.7430 N   0  0  0  0  0  0  0  0  0  0  0  0
   -1.5180   26.3660  -26.2100 C   0  0  0  0  0  0  0  0  0  0  0  0
   -1.6170   26.0080  -24.7220 C   0  0  0  0  0  0  0  0  0  0  0  0
   -0.4400   26.5260  -23.8730 C   0  0  0  0  0  0  0  0  0  0  0  0
    0.7240   25.6210  -23.8140 N   0  0  0  0  0  0  0  0  0  0  0  0
    1.5920   25.6850  -25.0040 C   0  0  0  0  0  0  0  0  0  0  0  0
    1.0190   26.6210  -26.0830 C   0  0  0  0  0  0  0  0  0  0  0  0
   -0.5798   22.2365  -27.5406 H   0  0  0  0  0  0  0  0  0  0  0  0
   -2.5523   21.1180  -28.5907 H   0  0  0  0  0  0  0  0  0  0  0  0
   -4.6102   21.2819  -29.7096 H   0  0  0  0  0  0  0  0  0  0  0  0
   -5.4606   22.8702  -29.6510 H   0  0  0  0  0  0  0  0  0  0  0  0
   -4.7260   23.3590  -31.8870 H   0  0  0  0  0  0  0  0  0  0  0  0
   -7.4570   18.2417  -33.1781 H   0  0  0  0  0  0  0  0  0  0  0  0
   -7.1089   18.1512  -31.4438 H   0  0  0  0  0  0  0  0  0  0  0  0
   -9.6811   18.3979  -32.6371 H   0  0  0  0  0  0  0  0  0  0  0  0
   -9.3278   18.6408  -30.9151 H   0  0  0  0  0  0  0  0  0  0  0  0
   -9.8420   20.6591  -33.0597 H   0  0  0  0  0  0  0  0  0  0  0  0
   -9.9863   20.8556  -31.3038 H   0  0  0  0  0  0  0  0  0  0  0  0
   -7.9038   21.8922  -32.8910 H   0  0  0  0  0  0  0  0  0  0  0  0
   -7.7990   21.6829  -31.1371 H   0  0  0  0  0  0  0  0  0  0  0  0
   -2.0135   26.0436  -29.0220 H   0  0  0  0  0  0  0  0  0  0  0  0
   -1.7291   27.4383  -26.3352 H   0  0  0  0  0  0  0  0  0  0  0  0
   -2.2494   25.7578  -26.7624 H   0  0  0  0  0  0  0  0  0  0  0  0
   -2.5471   26.4395  -24.3236 H   0  0  0  0  0  0  0  0  0  0  0  0
   -1.5974   24.9101  -24.6569 H   0  0  0  0  0  0  0  0  0  0  0  0
   -0.1073   27.4847  -24.2976 H   0  0  0  0  0  0  0  0  0  0  0  0
   -0.8160   26.6155  -22.8431 H   0  0  0  0  0  0  0  0  0  0  0  0
    0.4020   24.6410  -23.6330 H   0  0  0  0  0  0  0  0  0  0  0  0
    1.2920   25.9000  -22.9800 H   0  0  0  0  0  0  0  0  0  0  0  0
    2.5828   26.0552  -24.7019 H   0  0  0  0  0  0  0  0  0  0  0  0
    1.6597   24.6736  -25.4312 H   0  0  0  0  0  0  0  0  0  0  0  0
    0.7524   27.5780  -25.6107 H   0  0  0  0  0  0  0  0  0  0  0  0
    1.7928   26.7444  -26.8550 H   0  0  0  0  0  0  0  0  0  0  0  0
  1  2  2  0
  2  3  1  0
  3  4  2  0
  4  5  1  0
  5  6  2  0
  6  7  1  0
  7  8  1  0
  8  9  1  0
  9 10  2  0
 10 11  1  0
 11 12  1  0
 12 13  1  0
 13 14  1  0
 14 15  1  0
 10 16  1  0
 16 17  2  0
 16 18  1  0
 18 19  2  0
  6 20  1  0
 20 21  2  0
  2 22  1  0
 22 23  1  0
 23 24  1  0
 24 25  1  0
 25 26  1  0
 26 27  1  0
 27 28  1  0
 21  3  1  0
 28 22  1  0
 18  9  1  0
 15 11  1  0
  4 29  1  0
  5 30  1  0
  7 31  1  0
  7 32  1  0
  8 33  1  0
 12 34  1  0
 12 35  1  0
 13 36  1  0
 13 37  1  0
 14 38  1  0
 14 39  1  0
 15 40  1  0
 15 41  1  0
 21 42  1  0
 23 43  1  0
 23 44  1  0
 24 45  1  0
 24 46  1  0
 25 47  1  0
 25 48  1  0
 26 49  1  0
 26 50  1  0
 27 51  1  0
 27 52  1  0
 28 53  1  0
 28 54  1  0
M  CHG  1  26   1
M  END
>  <UniqueID>  (10) 
10

>  <SMILES>  (10) 
O=C(c1ccc(CNc2c(N3CCCC3)c(=O)c2=O)nc1)N1CCC[NH2+]CC1

>  <Energy>  (10) 
59.23614819501998

>  <Genealogy>  (10) 
O=C(c1ccc(CNc2c(N3CCCC3)c(=O)c2=O)nc1)N1CCC[NH2+]CC1 (protonated)
O=C(c1ccc(CNc2c(N3CCCC3)c(=O)c2=O)nc1)N1CCC[NH2+]CC1 (3D coordinates assigned)
O=C(c1ccc(CNc2c(N3CCCC3)c(=O)c2=O)nc1)N1CCC[NH2+]CC1 (nonaromatic ring conformer: 59.23614819501998 kcal/mol)

>  <smiles>  (10) 
O=C(c1ccc(CNc2c(N3CCCC3)c(=O)c2=O)nc1)N1CCCNCC1

>  <score_type>  (10) 
oracle

>  <origin>  (10) 
adgpu

>  <m_score__min__energy>  (10) 
-7.25

>  <m_primary>  (10) 
energy

$$$$
10:0
     RDKit          3D

 41 43  0  0  0  0  0  0  0  0999 V2000
   -1.5990   15.9590  -33.1430 C   0  0  0  0  0  0  0  0  0  0  0  0
   -2.1470   17.3000  -33.3280 N   0  0  0  0  0  0  0  0  0  0  0  0
   -1.4850   18.4840  -33.2800 C   0  0  0  0  0  0  0  0  0  0  0  0
   -0.2390   18.5780  -33.1110 O   0  0  0  0  0  0  0  0  0  0  0  0
   -2.3050   19.5570  -33.4120 N   0  0  0  0  0  0  0  0  0  0  0  0
   -1.9510   20.9700  -33.3230 C   0  0  0  0  0  0  0  0  0  0  0  0
   -3.5380   19.0180  -33.5070 C   0  0  0  0  0  0  0  0  0  0  0  0
   -4.7700   19.6660  -33.5990 C   0  0  0  0  0  0  0  0  0  0  0  0
   -5.9390   18.8750  -33.6470 C   0  0  0  0  0  0  0  0  0  0  0  0
   -7.2180   19.5290  -33.7350 N   0  0  0  0  0  0  0  0  0  0  0  0
   -8.0960   20.1220  -32.3600 S   0  0  0  0  0  0  0  0  0  0  0  0
   -8.2490   19.0110  -31.3580 O   0  0  0  0  0  0  0  0  0  0  0  0
   -9.4590   20.5760  -32.8000 O   0  0  0  0  0  0  0  0  0  0  0  0
   -7.2480   21.4920  -31.6490 C   0  0  0  0  0  0  0  0  0  0  0  0
   -6.2170   22.1320  -32.3500 C   0  0  0  0  0  0  0  0  0  0  0  0
   -5.5620   23.2330  -31.7890 C   0  0  0  0  0  0  0  0  0  0  0  0
   -5.9270   23.6970  -30.5180 C   0  0  0  0  0  0  0  0  0  0  0  0
   -5.1230   25.0950  -29.8120 S   0  0  0  0  0  0  0  0  0  0  0  0
   -3.5470   25.2620  -30.4960 N   0  0  0  0  0  0  0  0  0  0  0  0
   -5.0040   24.9240  -28.3220 O   0  0  0  0  0  0  0  0  0  0  0  0
   -5.9270   26.3330  -30.0920 O   0  0  0  0  0  0  0  0  0  0  0  0
   -6.9580   23.0560  -29.8180 C   0  0  0  0  0  0  0  0  0  0  0  0
   -7.6130   21.9570  -30.3790 C   0  0  0  0  0  0  0  0  0  0  0  0
   -5.8260   17.4570  -33.6040 C   0  0  0  0  0  0  0  0  0  0  0  0
   -4.5690   16.8360  -33.5000 C   0  0  0  0  0  0  0  0  0  0  0  0
   -3.4410   17.6540  -33.4560 C   0  0  0  0  0  0  0  0  0  0  0  0
   -1.5111   15.7439  -32.0678 H   0  0  0  0  0  0  0  0  0  0  0  0
   -2.2680   15.2218  -33.6109 H   0  0  0  0  0  0  0  0  0  0  0  0
   -0.6052   15.9013  -33.6109 H   0  0  0  0  0  0  0  0  0  0  0  0
   -1.8774   21.2637  -32.2655 H   0  0  0  0  0  0  0  0  0  0  0  0
   -0.9832   21.1374  -33.8182 H   0  0  0  0  0  0  0  0  0  0  0  0
   -2.7256   21.5740  -33.8182 H   0  0  0  0  0  0  0  0  0  0  0  0
   -4.8293   20.7639  -33.6332 H   0  0  0  0  0  0  0  0  0  0  0  0
   -7.6080   19.7530  -34.6770 H   0  0  0  0  0  0  0  0  0  0  0  0
   -5.9219   21.7671  -33.3449 H   0  0  0  0  0  0  0  0  0  0  0  0
   -4.7583   23.7360  -32.3468 H   0  0  0  0  0  0  0  0  0  0  0  0
   -3.6040   26.0160  -31.2170 H   0  0  0  0  0  0  0  0  0  0  0  0
   -7.2528   23.4197  -28.8226 H   0  0  0  0  0  0  0  0  0  0  0  0
   -8.4178   21.4552  -29.8218 H   0  0  0  0  0  0  0  0  0  0  0  0
   -6.7344   16.8386  -33.6528 H   0  0  0  0  0  0  0  0  0  0  0  0
   -4.4785   15.7407  -33.4548 H   0  0  0  0  0  0  0  0  0  0  0  0
  1  2  1  0
  2  3  1  0
  3  4  2  0
  3  5  1  0
  5  6  1  0
  5  7  1  0
  7  8  2  0
  8  9  1  0
  9 10  1  0
 10 11  1  0
 11 12  2  0
 11 13  2  0
 11 14  1  0
 14 15  2  0
 15 16  1  0
 16 17  2  0
 17 18  1  0
 18 19  1  0
 18 20  2  0
 18 21  2  0
 17 22  1  0
 22 23  2  0
  9 24  2  0
 24 25  1  0
 25 26  2  0
 26  2  1  0
 26  7  1  0
 23 14  1  0
  1 27  1  0
  1 28  1  0
  1 29  1  0
  6 30  1  0
  6 31  1  0
  6 32  1  0
  8 33  1  0
 10 34  1  0
 15 35  1  0
 16 36  1  0
 19 37  1  0
 22 38  1  0
 23 39  1  0
 24 40  1  0
 25 41  1  0
M  CHG  1  19  -1
M  END
>  <UniqueID>  (11) 
11

>  <SMILES>  (11) 
Cn1c(=O)n(C)c2cc(NS(=O)(=O)c3ccc(S([NH-])(=O)=O)cc3)ccc21

>  <Energy>  (11) 
85.89426841196997

>  <Genealogy>  (11) 
Cn1c(=O)n(C)c2cc(NS(=O)(=O)c3ccc(S([NH-])(=O)=O)cc3)ccc21 (protonated)
Cn1c(=O)n(C)c2cc(NS(=O)(=O)c3ccc(S([NH-])(=O)=O)cc3)ccc21 (3D coordinates assigned)
Cn1c(=O)n(C)c2cc(NS(=O)(=O)c3ccc(S([NH-])(=O)=O)cc3)ccc21 (optimized conformer: 85.89426841196997 kcal/mol)

>  <smiles>  (11) 
Cn1c(=O)n(C)c2cc(NS(=O)(=O)c3ccc(S(N)(=O)=O)cc3)ccc21

>  <score_type>  (11) 
oracle

>  <origin>  (11) 
adgpu

>  <m_score__min__energy>  (11) 
-11.35

>  <m_primary>  (11) 
energy

$$$$
11:0
     RDKit          3D

 58 61  0  0  0  0  0  0  0  0999 V2000
   -1.1970   22.0464  -25.2243 H   0  0  0  0  0  0  0  0  0  0  0  0
   -0.9020   22.3520  -26.2390 C   0  0  0  0  0  0  0  0  0  0  0  0
   -1.3610   21.6280  -27.3430 C   0  0  0  0  0  0  0  0  0  0  0  0
   -2.3980   20.2300  -27.0920 Cl  0  0  0  0  0  0  0  0  0  0  0  0
   -0.9990   22.0270  -28.6370 C   0  0  0  0  0  0  0  0  0  0  0  0
   -1.4450   21.2850  -29.7830 N   0  0  0  0  0  0  0  0  0  0  0  0
   -2.3880   21.5830  -30.6460 C   0  0  0  0  0  0  0  0  0  0  0  0
   -3.1720   22.7710  -30.5870 C   0  0  0  0  0  0  0  0  0  0  0  0
   -3.0220   23.8010  -29.5760 C   0  0  0  0  0  0  0  0  0  0  0  0
   -2.9120   24.6270  -28.7760 N   0  0  0  0  0  0  0  0  0  0  0  0
   -4.1610   22.9940  -31.5520 C   0  0  0  0  0  0  0  0  0  0  0  0
   -4.7742   23.9058  -31.5009 H   0  0  0  0  0  0  0  0  0  0  0  0
   -4.3730   22.0970  -32.5520 N   0  0  0  0  0  0  0  0  0  0  0  0
   -5.1260   22.3110  -33.2490 H   0  0  0  0  0  0  0  0  0  0  0  0
   -3.6360   20.9620  -32.6660 C   0  0  0  0  0  0  0  0  0  0  0  0
   -3.8690   20.0770  -33.7360 C   0  0  0  0  0  0  0  0  0  0  0  0
   -4.6481   20.3152  -34.4751 H   0  0  0  0  0  0  0  0  0  0  0  0
   -3.1200   18.8900  -33.8760 C   0  0  0  0  0  0  0  0  0  0  0  0
   -3.2940   18.0140  -34.9650 O   0  0  0  0  0  0  0  0  0  0  0  0
   -4.3740   17.0930  -35.1070 C   0  0  0  0  0  0  0  0  0  0  0  0
   -4.2506   16.5335  -36.0460 H   0  0  0  0  0  0  0  0  0  0  0  0
   -4.3672   16.4043  -34.2493 H   0  0  0  0  0  0  0  0  0  0  0  0
   -5.7260   17.8390  -35.1350 C   0  0  0  0  0  0  0  0  0  0  0  0
   -5.5413   18.8494  -35.5286 H   0  0  0  0  0  0  0  0  0  0  0  0
   -6.3867   17.2179  -35.7576 H   0  0  0  0  0  0  0  0  0  0  0  0
   -6.4360   17.9840  -33.8330 N   0  0  0  0  0  0  0  0  0  0  0  0
   -5.7030   17.3440  -32.7250 C   0  0  0  0  0  0  0  0  0  0  0  0
   -5.5536   16.2796  -32.9588 H   0  0  0  0  0  0  0  0  0  0  0  0
   -4.7335   17.8497  -32.6053 H   0  0  0  0  0  0  0  0  0  0  0  0
   -6.4910   17.4660  -31.4030 C   0  0  0  0  0  0  0  0  0  0  0  0
   -6.5707   16.4713  -30.9401 H   0  0  0  0  0  0  0  0  0  0  0  0
   -5.9536   18.1610  -30.7410 H   0  0  0  0  0  0  0  0  0  0  0  0
   -7.7930   17.9770  -31.6260 O   0  0  0  0  0  0  0  0  0  0  0  0
   -7.7100   19.2890  -32.1440 C   0  0  0  0  0  0  0  0  0  0  0  0
   -8.7271   19.6565  -32.3451 H   0  0  0  0  0  0  0  0  0  0  0  0
   -7.2003   19.9172  -31.3986 H   0  0  0  0  0  0  0  0  0  0  0  0
   -6.8930   19.3430  -33.4520 C   0  0  0  0  0  0  0  0  0  0  0  0
   -7.5225   19.7523  -34.2559 H   0  0  0  0  0  0  0  0  0  0  0  0
   -6.0132   19.9848  -33.2968 H   0  0  0  0  0  0  0  0  0  0  0  0
   -2.1410   18.5800  -32.9160 C   0  0  0  0  0  0  0  0  0  0  0  0
   -1.4180   17.3840  -33.0770 O   0  0  0  0  0  0  0  0  0  0  0  0
   -1.9700   16.0740  -32.9860 C   0  0  0  0  0  0  0  0  0  0  0  0
   -2.0864   15.7979  -31.9276 H   0  0  0  0  0  0  0  0  0  0  0  0
   -2.9526   16.0550  -33.4801 H   0  0  0  0  0  0  0  0  0  0  0  0
   -1.2973   15.3575  -33.4801 H   0  0  0  0  0  0  0  0  0  0  0  0
   -1.9080   19.4590  -31.8360 C   0  0  0  0  0  0  0  0  0  0  0  0
   -1.1490   19.2017  -31.0826 H   0  0  0  0  0  0  0  0  0  0  0  0
   -2.6340   20.6630  -31.7080 C   0  0  0  0  0  0  0  0  0  0  0  0
   -0.1430   23.1230  -28.8150 C   0  0  0  0  0  0  0  0  0  0  0  0
    0.1702   23.4108  -29.8294 H   0  0  0  0  0  0  0  0  0  0  0  0
    0.3190   23.8580  -27.7080 C   0  0  0  0  0  0  0  0  0  0  0  0
    1.1610   24.9760  -27.8490 O   0  0  0  0  0  0  0  0  0  0  0  0
    2.5810   24.9420  -27.7430 C   0  0  0  0  0  0  0  0  0  0  0  0
    2.8694   24.9351  -26.6815 H   0  0  0  0  0  0  0  0  0  0  0  0
    2.9636   24.0344  -28.2328 H   0  0  0  0  0  0  0  0  0  0  0  0
    3.0066   25.8302  -28.2328 H   0  0  0  0  0  0  0  0  0  0  0  0
   -0.0690   23.4640  -26.4160 C   0  0  0  0  0  0  0  0  0  0  0  0
    0.5030   24.3480  -25.0050 Cl  0  0  0  0  0  0  0  0  0  0  0  0
  1  2  1  0
  2  3  2  0
  3  4  1  0
  3  5  1  0
  5  6  1  0
  6  7  2  0
  7  8  1  0
  8  9  1  0
  9 10  3  0
  8 11  2  0
 11 12  1  0
 11 13  1  0
 13 14  1  0
 13 15  1  0
 15 16  2  0
 16 17  1  0
 16 18  1  0
 18 19  1  0
 19 20  1  0
 20 21  1  0
 20 22  1  0
 20 23  1  0
 23 24  1  0
 23 25  1  0
 23 26  1  0
 26 27  1  0
 27 28  1  0
 27 29  1  0
 27 30  1  0
 30 31  1  0
 30 32  1  0
 30 33  1  0
 33 34  1  0
 34 35  1  0
 34 36  1  0
 34 37  1  0
 37 38  1  0
 37 39  1  0
 18 40  2  0
 40 41  1  0
 41 42  1  0
 42 43  1  0
 42 44  1  0
 42 45  1  0
 40 46  1  0
 46 47  1  0
 46 48  2  0
  5 49  2  0
 49 50  1  0
 49 51  1  0
 51 52  1  0
 52 53  1  0
 53 54  1  0
 53 55  1  0
 53 56  1  0
 51 57  2  0
 57 58  1  0
 57  2  1  0
 48  7  1  0
 48 15  1  0
 37 26  1  0
M  END
>  <UniqueID>  (12) 
12

>  <SMILES>  (12) 
COc1cc(/N=c2\c(C#N)c[nH]c3cc(OCCN4CCOCC4)c(OC)cc23)c(Cl)cc1Cl

>  <Energy>  (12) 
99.99792388772933

>  <Genealogy>  (12) 
COc1cc(/N=c2\c(C#N)c[nH]c3cc(OCCN4CCOCC4)c(OC)cc23)c(Cl)cc1Cl (cis-trans isomerization)
COc1cc(/N=c2\c(C#N)c[nH]c3cc(OCCN4CCOCC4)c(OC)cc23)c(Cl)cc1Cl (3D coordinates assigned)
COc1cc(/N=c2\c(C#N)c[nH]c3cc(OCCN4CCOCC4)c(OC)cc23)c(Cl)cc1Cl (nonaromatic ring conformer: 99.99792388772933 kcal/mol)

>  <smiles>  (12) 
COc1cc(N=c2c(C#N)c[nH]c3cc(OCCN4CCOCC4)c(OC)cc23)c(Cl)cc1Cl

>  <score_type>  (12) 
oracle

>  <origin>  (12) 
adgpu

>  <m_score__min__energy>  (12) 
-7.6699999999999999

>  <m_primary>  (12) 
energy

$$$$
12:0
     RDKit          3D

 42 44  0  0  0  0  0  0  0  0999 V2000
   -1.7020   25.8530  -28.7280 O   0  0  0  0  0  0  0  0  0  0  0  0
   -2.4250   24.9230  -29.1720 C   0  0  0  0  0  0  0  0  0  0  0  0
   -3.4850   25.2510  -30.0820 N   0  0  0  0  0  0  0  0  0  0  0  0
   -4.6580   24.4620  -30.3340 C   0  0  0  0  0  0  0  0  0  0  0  0
   -5.9040   24.7900  -29.7730 C   0  0  0  0  0  0  0  0  0  0  0  0
   -7.0220   23.9910  -30.0270 C   0  0  0  0  0  0  0  0  0  0  0  0
   -6.9120   22.8700  -30.8610 C   0  0  0  0  0  0  0  0  0  0  0  0
   -8.3050   21.8270  -31.1410 S   0  0  0  0  0  0  0  0  0  0  0  0
   -9.1010   22.3790  -32.2900 O   0  0  0  0  0  0  0  0  0  0  0  0
   -9.1800   21.8080  -29.9170 O   0  0  0  0  0  0  0  0  0  0  0  0
   -7.7630   20.2130  -31.5240 N   0  0  0  0  0  0  0  0  0  0  0  0
   -8.8670   19.2520  -31.3400 C   0  0  0  0  0  0  0  0  0  0  0  0
   -8.5160   17.8840  -31.9580 C   0  0  0  0  0  0  0  0  0  0  0  0
   -7.1340   17.7990  -32.2460 O   0  0  0  0  0  0  0  0  0  0  0  0
   -6.7950   18.7380  -33.2520 C   0  0  0  0  0  0  0  0  0  0  0  0
   -7.2710   20.1660  -32.9080 C   0  0  0  0  0  0  0  0  0  0  0  0
   -5.6770   22.5570  -31.4400 C   0  0  0  0  0  0  0  0  0  0  0  0
   -4.5590   23.3560  -31.1870 C   0  0  0  0  0  0  0  0  0  0  0  0
   -2.1390   23.5270  -28.7660 C   0  0  0  0  0  0  0  0  0  0  0  0
   -3.2020   22.6910  -28.3820 C   0  0  0  0  0  0  0  0  0  0  0  0
   -2.9640   21.3640  -28.0160 C   0  0  0  0  0  0  0  0  0  0  0  0
   -1.6610   20.8600  -28.0210 C   0  0  0  0  0  0  0  0  0  0  0  0
   -0.5930   21.6850  -28.3790 C   0  0  0  0  0  0  0  0  0  0  0  0
   -0.8210   23.0210  -28.7410 C   0  0  0  0  0  0  0  0  0  0  0  0
    0.2600   23.8460  -29.0530 O   0  0  0  0  0  0  0  0  0  0  0  0
   -5.9996   25.6787  -29.1318 H   0  0  0  0  0  0  0  0  0  0  0  0
   -7.9910   24.2426  -29.5711 H   0  0  0  0  0  0  0  0  0  0  0  0
   -9.0563   19.1230  -30.2641 H   0  0  0  0  0  0  0  0  0  0  0  0
   -9.7622   19.6453  -31.8438 H   0  0  0  0  0  0  0  0  0  0  0  0
   -8.7853   17.0884  -31.2477 H   0  0  0  0  0  0  0  0  0  0  0  0
   -9.0779   17.7682  -32.8965 H   0  0  0  0  0  0  0  0  0  0  0  0
   -5.7015   18.7491  -33.3710 H   0  0  0  0  0  0  0  0  0  0  0  0
   -7.2982   18.4311  -34.1808 H   0  0  0  0  0  0  0  0  0  0  0  0
   -6.4305   20.8668  -33.0196 H   0  0  0  0  0  0  0  0  0  0  0  0
   -8.0861   20.4487  -33.5904 H   0  0  0  0  0  0  0  0  0  0  0  0
   -5.5861   21.6790  -32.0965 H   0  0  0  0  0  0  0  0  0  0  0  0
   -3.5959   23.1149  -31.6605 H   0  0  0  0  0  0  0  0  0  0  0  0
   -4.2290   23.0848  -28.3696 H   0  0  0  0  0  0  0  0  0  0  0  0
   -3.8031   20.7155  -27.7237 H   0  0  0  0  0  0  0  0  0  0  0  0
   -1.4763   19.8120  -27.7426 H   0  0  0  0  0  0  0  0  0  0  0  0
    0.4319   21.2855  -28.3772 H   0  0  0  0  0  0  0  0  0  0  0  0
    0.1760   24.8560  -29.0500 H   0  0  0  0  0  0  0  0  0  0  0  0
  1  2  2  0
  2  3  1  0
  3  4  1  0
  4  5  2  0
  5  6  1  0
  6  7  2  0
  7  8  1  0
  8  9  2  0
  8 10  2  0
  8 11  1  0
 11 12  1  0
 12 13  1  0
 13 14  1  0
 14 15  1  0
 15 16  1  0
  7 17  1  0
 17 18  2  0
  2 19  1  0
 19 20  2  0
 20 21  1  0
 21 22  2  0
 22 23  1  0
 23 24  2  0
 24 25  1  0
 18  4  1  0
 24 19  1  0
 16 11  1  0
  5 26  1  0
  6 27  1  0
 12 28  1  0
 12 29  1  0
 13 30  1  0
 13 31  1  0
 15 32  1  0
 15 33  1  0
 16 34  1  0
 16 35  1  0
 17 36  1  0
 18 37  1  0
 20 38  1  0
 21 39  1  0
 22 40  1  0
 23 41  1  0
 25 42  1  0
M  CHG  1   3  -1
M  END
>  <UniqueID>  (13) 
13

>  <SMILES>  (13) 
O=C([N-]c1ccc(S(=O)(=O)N2CCOCC2)cc1)c1ccccc1O

>  <Energy>  (13) 
58.28449738013838

>  <Genealogy>  (13) 
O=C([N-]c1ccc(S(=O)(=O)N2CCOCC2)cc1)c1ccccc1O (protonated)
O=C([N-]c1ccc(S(=O)(=O)N2CCOCC2)cc1)c1ccccc1O (3D coordinates assigned)
O=C([N-]c1ccc(S(=O)(=O)N2CCOCC2)cc1)c1ccccc1O (nonaromatic ring conformer: 58.28449738013838 kcal/mol)

>  <smiles>  (13) 
O=C(Nc1ccc(S(=O)(=O)N2CCOCC2)cc1)c1ccccc1O

>  <score_type>  (13) 
oracle

>  <origin>  (13) 
adgpu

>  <m_score__min__energy>  (13) 
-10.380000000000001

>  <m_primary>  (13) 
energy

$$$$
13:0
     RDKit          3D

 43 45  0  0  0  0  0  0  0  0999 V2000
   -8.7480   19.9260  -32.9900 N   0  0  0  0  0  0  0  0  0  0  0  0
   -8.6090   21.2880  -31.9350 S   0  0  0  0  0  0  0  0  0  0  0  0
   -9.4700   22.4100  -32.4410 O   0  0  0  0  0  0  0  0  0  0  0  0
   -9.0800   20.8900  -30.5640 O   0  0  0  0  0  0  0  0  0  0  0  0
   -6.9310   21.8170  -31.8740 C   0  0  0  0  0  0  0  0  0  0  0  0
   -5.9310   21.1110  -32.5520 C   0  0  0  0  0  0  0  0  0  0  0  0
   -4.6090   21.5610  -32.5150 C   0  0  0  0  0  0  0  0  0  0  0  0
   -4.2830   22.7260  -31.8170 C   0  0  0  0  0  0  0  0  0  0  0  0
   -5.2760   23.4480  -31.1310 C   0  0  0  0  0  0  0  0  0  0  0  0
   -4.9120   24.6770  -30.3800 C   0  0  0  0  0  0  0  0  0  0  0  0
   -5.8280   25.4340  -29.9600 O   0  0  0  0  0  0  0  0  0  0  0  0
   -3.5500   25.0740  -30.1610 N   0  0  0  0  0  0  0  0  0  0  0  0
   -2.5800   24.4030  -29.3440 C   0  0  0  0  0  0  0  0  0  0  0  0
   -2.7720   23.0790  -28.9100 C   0  0  0  0  0  0  0  0  0  0  0  0
   -1.7960   22.4370  -28.1350 C   0  0  0  0  0  0  0  0  0  0  0  0
   -2.0180   20.7610  -27.6380 S   0  0  0  0  0  0  0  0  0  0  0  0
   -1.4100   20.5540  -26.2790 O   0  0  0  0  0  0  0  0  0  0  0  0
   -3.4820   20.4380  -27.5350 O   0  0  0  0  0  0  0  0  0  0  0  0
   -1.2150   19.7000  -28.7530 N   0  0  0  0  0  0  0  0  0  0  0  0
   -0.7860   19.9900  -30.0930 C   0  0  0  0  0  0  0  0  0  0  0  0
   -1.5780   20.7150  -31.0030 C   0  0  0  0  0  0  0  0  0  0  0  0
   -1.1300   20.9350  -32.3090 C   0  0  0  0  0  0  0  0  0  0  0  0
    0.1160   20.4540  -32.7140 C   0  0  0  0  0  0  0  0  0  0  0  0
    0.9210   19.7580  -31.8100 C   0  0  0  0  0  0  0  0  0  0  0  0
    0.4750   19.5260  -30.5050 C   0  0  0  0  0  0  0  0  0  0  0  0
    1.2870   18.8310  -29.6180 O   0  0  0  0  0  0  0  0  0  0  0  0
   -0.6320   23.1320  -27.7760 C   0  0  0  0  0  0  0  0  0  0  0  0
   -0.4530   24.4580  -28.1750 C   0  0  0  0  0  0  0  0  0  0  0  0
   -1.4250   25.0950  -28.9520 C   0  0  0  0  0  0  0  0  0  0  0  0
   -1.2300   26.4140  -29.3470 O   0  0  0  0  0  0  0  0  0  0  0  0
   -6.5970   22.9630  -31.1410 C   0  0  0  0  0  0  0  0  0  0  0  0
   -8.4450   20.2390  -33.9410 H   0  0  0  0  0  0  0  0  0  0  0  0
   -6.1861   20.2008  -33.1146 H   0  0  0  0  0  0  0  0  0  0  0  0
   -3.8226   20.9962  -33.0371 H   0  0  0  0  0  0  0  0  0  0  0  0
   -3.2421   23.0814  -31.8037 H   0  0  0  0  0  0  0  0  0  0  0  0
   -3.6941   22.5437  -29.1805 H   0  0  0  0  0  0  0  0  0  0  0  0
   -2.5540   21.1104  -30.6852 H   0  0  0  0  0  0  0  0  0  0  0  0
   -1.7614   21.4888  -33.0194 H   0  0  0  0  0  0  0  0  0  0  0  0
    0.4634   20.6230  -33.7439 H   0  0  0  0  0  0  0  0  0  0  0  0
    1.9089   19.3911  -32.1252 H   0  0  0  0  0  0  0  0  0  0  0  0
    0.1430   22.6305  -27.1777 H   0  0  0  0  0  0  0  0  0  0  0  0
    0.4551   25.0027  -27.8772 H   0  0  0  0  0  0  0  0  0  0  0  0
   -7.3747   23.4888  -30.5677 H   0  0  0  0  0  0  0  0  0  0  0  0
  1  2  1  0
  2  3  2  0
  2  4  2  0
  2  5  1  0
  5  6  2  0
  6  7  1  0
  7  8  2  0
  8  9  1  0
  9 10  1  0
 10 11  2  0
 10 12  1  0
 12 13  1  0
 13 14  2  0
 14 15  1  0
 15 16  1  0
 16 17  2  0
 16 18  2  0
 16 19  1  0
 19 20  1  0
 20 21  2  0
 21 22  1  0
 22 23  2  0
 23 24  1  0
 24 25  2  0
 25 26  1  0
 15 27  2  0
 27 28  1  0
 28 29  2  0
 29 30  1  0
  9 31  2  0
 31  5  1  0
 29 13  1  0
 25 20  1  0
  1 32  1  0
  6 33  1  0
  7 34  1  0
  8 35  1  0
 14 36  1  0
 21 37  1  0
 22 38  1  0
 23 39  1  0
 24 40  1  0
 27 41  1  0
 28 42  1  0
 31 43  1  0
M  CHG  5   1  -1  12  -1  19  -1  26  -1  30  -1
M  END
>  <UniqueID>  (14) 
14

>  <SMILES>  (14) 
[NH-]S(=O)(=O)c1cccc(C(=O)[N-]c2cc(S(=O)(=O)[N-]c3ccccc3[O-])ccc2[O-])c1

>  <Energy>  (14) 
52.04712299857088

>  <Genealogy>  (14) 
[NH-]S(=O)(=O)c1cccc(C(=O)[N-]c2cc(S(=O)(=O)[N-]c3ccccc3[O-])ccc2[O-])c1 (protonated)
[NH-]S(=O)(=O)c1cccc(C(=O)[N-]c2cc(S(=O)(=O)[N-]c3ccccc3[O-])ccc2[O-])c1 (3D coordinates assigned)
[NH-]S(=O)(=O)c1cccc(C(=O)[N-]c2cc(S(=O)(=O)[N-]c3ccccc3[O-])ccc2[O-])c1 (optimized conformer: 52.04712299857088 kcal/mol)

>  <smiles>  (14) 
NS(=O)(=O)c1cccc(C(=O)Nc2cc(S(=O)(=O)Nc3ccccc3O)ccc2O)c1

>  <score_type>  (14) 
oracle

>  <origin>  (14) 
adgpu

>  <m_score__min__energy>  (14) 
-14.94

>  <m_primary>  (14) 
energy

$$$$
14:0
     RDKit          3D

 53 56  0  0  0  0  0  0  0  0999 V2000
   -5.7430   26.4270  -30.8990 O   0  0  0  0  0  0  0  0  0  0  0  0
   -5.2910   25.1390  -30.2690 S   0  0  0  0  0  0  0  0  0  0  0  0
   -5.6700   25.1730  -28.8160 O   0  0  0  0  0  0  0  0  0  0  0  0
   -3.5670   25.0380  -30.4650 N   0  0  0  0  0  0  0  0  0  0  0  0
   -2.6420   24.2230  -29.7260 C   0  0  0  0  0  0  0  0  0  0  0  0
   -2.7090   22.8150  -29.7230 C   0  0  0  0  0  0  0  0  0  0  0  0
   -1.7830   22.0640  -28.9860 C   0  0  0  0  0  0  0  0  0  0  0  0
   -0.7600   22.7160  -28.2650 C   0  0  0  0  0  0  0  0  0  0  0  0
   -0.7060   24.1130  -28.2590 C   0  0  0  0  0  0  0  0  0  0  0  0
   -1.6380   24.8620  -28.9840 C   0  0  0  0  0  0  0  0  0  0  0  0
   -1.5620   26.2510  -28.9620 O   0  0  0  0  0  0  0  0  0  0  0  0
    0.2290   21.9200  -27.4480 C   0  0  0  0  0  0  0  0  0  0  0  0
    0.3770   20.4870  -27.9740 C   0  0  0  0  0  0  0  0  0  0  0  0
   -0.9970   19.8270  -28.1230 C   0  0  0  0  0  0  0  0  0  0  0  0
   -1.8530   20.6310  -28.9930 N   0  0  0  0  0  0  0  0  0  0  0  0
   -6.0850   23.7840  -31.0760 C   0  0  0  0  0  0  0  0  0  0  0  0
   -7.4800   23.7600  -31.2160 C   0  0  0  0  0  0  0  0  0  0  0  0
   -8.1040   22.6880  -31.8570 C   0  0  0  0  0  0  0  0  0  0  0  0
   -7.3430   21.6300  -32.3590 C   0  0  0  0  0  0  0  0  0  0  0  0
   -5.9490   21.6380  -32.2210 C   0  0  0  0  0  0  0  0  0  0  0  0
   -4.9900   20.2820  -32.8210 S   0  0  0  0  0  0  0  0  0  0  0  0
   -4.2350   19.6650  -31.6780 O   0  0  0  0  0  0  0  0  0  0  0  0
   -3.9880   20.7870  -33.8210 O   0  0  0  0  0  0  0  0  0  0  0  0
   -5.9980   19.0690  -33.5750 N   0  0  0  0  0  0  0  0  0  0  0  0
   -5.2540   18.3000  -34.6040 C   0  0  0  0  0  0  0  0  0  0  0  0
   -4.8450   16.8990  -34.1260 C   0  0  0  0  0  0  0  0  0  0  0  0
   -6.0730   16.0730  -33.7100 C   0  0  0  0  0  0  0  0  0  0  0  0
   -7.2080   16.9410  -33.1400 C   0  0  0  0  0  0  0  0  0  0  0  0
   -6.6630   18.2420  -32.5450 C   0  0  0  0  0  0  0  0  0  0  0  0
   -5.3230   22.7220  -31.5880 C   0  0  0  0  0  0  0  0  0  0  0  0
   -3.4918   22.3031  -30.3019 H   0  0  0  0  0  0  0  0  0  0  0  0
    0.0754   24.6267  -27.6797 H   0  0  0  0  0  0  0  0  0  0  0  0
    1.2088   22.4181  -27.4903 H   0  0  0  0  0  0  0  0  0  0  0  0
   -0.1432   21.8688  -26.4142 H   0  0  0  0  0  0  0  0  0  0  0  0
    0.8757   20.5106  -28.9542 H   0  0  0  0  0  0  0  0  0  0  0  0
    0.9761   19.9049  -27.2583 H   0  0  0  0  0  0  0  0  0  0  0  0
   -0.8732   18.8254  -28.5605 H   0  0  0  0  0  0  0  0  0  0  0  0
   -1.4665   19.7490  -27.1313 H   0  0  0  0  0  0  0  0  0  0  0  0
   -2.5420   20.1430  -29.6110 H   0  0  0  0  0  0  0  0  0  0  0  0
   -8.0849   24.5887  -30.8194 H   0  0  0  0  0  0  0  0  0  0  0  0
   -9.1984   22.6767  -31.9670 H   0  0  0  0  0  0  0  0  0  0  0  0
   -7.8395   20.7883  -32.8640 H   0  0  0  0  0  0  0  0  0  0  0  0
   -5.8931   18.1945  -35.4931 H   0  0  0  0  0  0  0  0  0  0  0  0
   -4.3305   18.8548  -34.8260 H   0  0  0  0  0  0  0  0  0  0  0  0
   -4.3230   16.3793  -34.9430 H   0  0  0  0  0  0  0  0  0  0  0  0
   -4.1860   17.0078  -33.2520 H   0  0  0  0  0  0  0  0  0  0  0  0
   -6.4505   15.5353  -34.5922 H   0  0  0  0  0  0  0  0  0  0  0  0
   -5.7542   15.3808  -32.9168 H   0  0  0  0  0  0  0  0  0  0  0  0
   -7.9145   17.1838  -33.9475 H   0  0  0  0  0  0  0  0  0  0  0  0
   -7.7116   16.3763  -32.3415 H   0  0  0  0  0  0  0  0  0  0  0  0
   -7.4963   18.8135  -32.1102 H   0  0  0  0  0  0  0  0  0  0  0  0
   -5.9212   17.9862  -31.7741 H   0  0  0  0  0  0  0  0  0  0  0  0
   -4.2273   22.7400  -31.4921 H   0  0  0  0  0  0  0  0  0  0  0  0
  1  2  2  0
  2  3  2  0
  2  4  1  0
  4  5  1  0
  5  6  2  0
  6  7  1  0
  7  8  2  0
  8  9  1  0
  9 10  2  0
 10 11  1  0
  8 12  1  0
 12 13  1  0
 13 14  1  0
 14 15  1  0
  2 16  1  0
 16 17  2  0
 17 18  1  0
 18 19  2  0
 19 20  1  0
 20 21  1  0
 21 22  2  0
 21 23  2  0
 21 24  1  0
 24 25  1  0
 25 26  1  0
 26 27  1  0
 27 28  1  0
 28 29  1  0
 20 30  2  0
 10  5  1  0
 30 16  1  0
 15  7  1  0
 29 24  1  0
  6 31  1  0
  9 32  1  0
 12 33  1  0
 12 34  1  0
 13 35  1  0
 13 36  1  0
 14 37  1  0
 14 38  1  0
 15 39  1  0
 17 40  1  0
 18 41  1  0
 19 42  1  0
 25 43  1  0
 25 44  1  0
 26 45  1  0
 26 46  1  0
 27 47  1  0
 27 48  1  0
 28 49  1  0
 28 50  1  0
 29 51  1  0
 29 52  1  0
 30 53  1  0
M  CHG  2   4  -1  11  -1
M  END
>  <UniqueID>  (15) 
15

>  <SMILES>  (15) 
O=S(=O)([N-]c1cc2c(cc1[O-])CCCN2)c1cccc(S(=O)(=O)N2CCCCC2)c1

>  <Energy>  (15) 
63.845916453605525

>  <Genealogy>  (15) 
O=S(=O)([N-]c1cc2c(cc1[O-])CCCN2)c1cccc(S(=O)(=O)N2CCCCC2)c1 (protonated)
O=S(=O)([N-]c1cc2c(cc1[O-])CCCN2)c1cccc(S(=O)(=O)N2CCCCC2)c1 (3D coordinates assigned)
O=S(=O)([N-]c1cc2c(cc1[O-])CCCN2)c1cccc(S(=O)(=O)N2CCCCC2)c1 (nonaromatic ring conformer: 63.845916453605525 kcal/mol)

>  <smiles>  (15) 
O=S(=O)(Nc1cc2c(cc1O)CCCN2)c1cccc(S(=O)(=O)N2CCCCC2)c1

>  <score_type>  (15) 
oracle

>  <origin>  (15) 
adgpu

>  <m_score__min__energy>  (15) 
-14.9

>  <m_primary>  (15) 
energy

$$$$
15:0
     RDKit          3D

 51 54  0  0  0  0  0  0  0  0999 V2000
   -2.8580   19.4890  -26.7940 N   0  0  0  0  0  0  0  0  0  0  0  0
   -2.6600   19.9290  -27.8460 C   0  0  0  0  0  0  0  0  0  0  0  0
   -2.4160   20.4770  -29.1540 C   0  0  0  0  0  0  0  0  0  0  0  0
   -1.1770   21.0600  -29.4510 C   0  0  0  0  0  0  0  0  0  0  0  0
   -0.9400   21.5900  -30.7220 C   0  0  0  0  0  0  0  0  0  0  0  0
   -1.9390   21.5440  -31.6990 C   0  0  0  0  0  0  0  0  0  0  0  0
   -3.1850   20.9730  -31.4050 C   0  0  0  0  0  0  0  0  0  0  0  0
   -4.4310   20.9210  -32.6450 S   0  0  0  0  0  0  0  0  0  0  0  0
   -4.2970   19.6890  -33.4940 O   0  0  0  0  0  0  0  0  0  0  0  0
   -4.2130   22.1150  -33.5320 O   0  0  0  0  0  0  0  0  0  0  0  0
   -6.0630   20.9790  -31.9420 C   0  0  0  0  0  0  0  0  0  0  0  0
   -6.9230   19.8990  -32.2190 C   0  0  0  0  0  0  0  0  0  0  0  0
   -8.2220   19.8660  -31.7150 C   0  0  0  0  0  0  0  0  0  0  0  0
   -8.6890   20.9110  -30.9270 C   0  0  0  0  0  0  0  0  0  0  0  0
   -7.8590   21.9910  -30.6350 C   0  0  0  0  0  0  0  0  0  0  0  0
   -6.5390   22.0450  -31.1230 C   0  0  0  0  0  0  0  0  0  0  0  0
   -5.5660   23.4640  -30.6730 S   0  0  0  0  0  0  0  0  0  0  0  0
   -6.3700   24.7220  -30.8410 O   0  0  0  0  0  0  0  0  0  0  0  0
   -4.3740   23.5590  -31.5820 O   0  0  0  0  0  0  0  0  0  0  0  0
   -5.0350   23.3870  -29.0230 N   0  0  0  0  0  0  0  0  0  0  0  0
   -3.6880   23.6660  -28.5900 C   0  0  0  0  0  0  0  0  0  0  0  0
   -3.1130   22.9980  -27.4920 C   0  0  0  0  0  0  0  0  0  0  0  0
   -1.7970   23.2780  -27.0970 C   0  0  0  0  0  0  0  0  0  0  0  0
   -1.0410   24.2240  -27.8000 C   0  0  0  0  0  0  0  0  0  0  0  0
   -1.6020   24.8890  -28.8970 C   0  0  0  0  0  0  0  0  0  0  0  0
   -2.9170   24.6180  -29.2870 C   0  0  0  0  0  0  0  0  0  0  0  0
   -3.4490   25.2950  -30.3800 O   0  0  0  0  0  0  0  0  0  0  0  0
    0.3840   24.4600  -27.3820 C   0  0  0  0  0  0  0  0  0  0  0  0
    0.4920   24.5600  -25.8500 C   0  0  0  0  0  0  0  0  0  0  0  0
   -0.3360   23.5010  -25.0720 C   0  0  0  0  0  0  0  0  0  0  0  0
   -1.1460   22.5390  -25.9590 C   0  0  0  0  0  0  0  0  0  0  0  0
   -3.4170   20.4280  -30.1330 C   0  0  0  0  0  0  0  0  0  0  0  0
   -0.3904   21.1005  -28.6831 H   0  0  0  0  0  0  0  0  0  0  0  0
    0.0345   22.0443  -30.9543 H   0  0  0  0  0  0  0  0  0  0  0  0
   -1.7469   21.9567  -32.7004 H   0  0  0  0  0  0  0  0  0  0  0  0
   -6.5637   19.0677  -32.8434 H   0  0  0  0  0  0  0  0  0  0  0  0
   -8.8779   19.0123  -31.9411 H   0  0  0  0  0  0  0  0  0  0  0  0
   -9.7158   20.8853  -30.5332 H   0  0  0  0  0  0  0  0  0  0  0  0
   -8.2406   22.8145  -30.0135 H   0  0  0  0  0  0  0  0  0  0  0  0
   -5.7540   23.1120  -28.3190 H   0  0  0  0  0  0  0  0  0  0  0  0
   -3.7010   22.2503  -26.9395 H   0  0  0  0  0  0  0  0  0  0  0  0
   -1.0062   25.6271  -29.4539 H   0  0  0  0  0  0  0  0  0  0  0  0
    1.0067   23.6244  -27.7341 H   0  0  0  0  0  0  0  0  0  0  0  0
    0.7300   25.4062  -27.8235 H   0  0  0  0  0  0  0  0  0  0  0  0
    1.5496   24.4401  -25.5722 H   0  0  0  0  0  0  0  0  0  0  0  0
    0.0811   25.5419  -25.5724 H   0  0  0  0  0  0  0  0  0  0  0  0
    0.3582   22.9031  -24.4631 H   0  0  0  0  0  0  0  0  0  0  0  0
   -1.0682   24.0598  -24.4707 H   0  0  0  0  0  0  0  0  0  0  0  0
   -0.4720   21.7712  -26.3667 H   0  0  0  0  0  0  0  0  0  0  0  0
   -1.9322   22.0736  -25.3464 H   0  0  0  0  0  0  0  0  0  0  0  0
   -4.3865   19.9615  -29.9041 H   0  0  0  0  0  0  0  0  0  0  0  0
  1  2  3  0
  2  3  1  0
  3  4  2  0
  4  5  1  0
  5  6  2  0
  6  7  1  0
  7  8  1  0
  8  9  2  0
  8 10  2  0
  8 11  1  0
 11 12  2  0
 12 13  1  0
 13 14  2  0
 14 15  1  0
 15 16  2  0
 16 17  1  0
 17 18  2  0
 17 19  2  0
 17 20  1  0
 20 21  1  0
 21 22  2  0
 22 23  1  0
 23 24  2  0
 24 25  1  0
 25 26  2  0
 26 27  1  0
 24 28  1  0
 28 29  1  0
 29 30  1  0
 30 31  1  0
  7 32  2  0
 32  3  1  0
 16 11  1  0
 26 21  1  0
 31 23  1  0
  4 33  1  0
  5 34  1  0
  6 35  1  0
 12 36  1  0
 13 37  1  0
 14 38  1  0
 15 39  1  0
 20 40  1  0
 22 41  1  0
 25 42  1  0
 28 43  1  0
 28 44  1  0
 29 45  1  0
 29 46  1  0
 30 47  1  0
 30 48  1  0
 31 49  1  0
 31 50  1  0
 32 51  1  0
M  CHG  1  27  -1
M  END
>  <UniqueID>  (16) 
16

>  <SMILES>  (16) 
N#Cc1cccc(S(=O)(=O)c2ccccc2S(=O)(=O)Nc2cc3c(cc2[O-])CCCC3)c1

>  <Energy>  (16) 
66.88343025884691

>  <Genealogy>  (16) 
N#Cc1cccc(S(=O)(=O)c2ccccc2S(=O)(=O)Nc2cc3c(cc2[O-])CCCC3)c1 (protonated)
N#Cc1cccc(S(=O)(=O)c2ccccc2S(=O)(=O)Nc2cc3c(cc2[O-])CCCC3)c1 (3D coordinates assigned)
N#Cc1cccc(S(=O)(=O)c2ccccc2S(=O)(=O)Nc2cc3c(cc2[O-])CCCC3)c1 (nonaromatic ring conformer: 66.88343025884691 kcal/mol)

>  <smiles>  (16) 
N#Cc1cccc(S(=O)(=O)c2ccccc2S(=O)(=O)Nc2cc3c(cc2O)CCCC3)c1

>  <score_type>  (16) 
oracle

>  <origin>  (16) 
adgpu

>  <m_score__min__energy>  (16) 
-14.300000000000001

>  <m_primary>  (16) 
energy

$$$$
16:0
     RDKit          3D

 50 53  0  0  0  0  0  0  0  0999 V2000
   -9.0200   22.7150  -32.0550 C   0  0  0  0  0  0  0  0  0  0  0  0
   -7.6500   22.8570  -31.4480 C   0  0  0  0  0  0  0  0  0  0  0  0
   -7.2910   24.0720  -30.8480 C   0  0  0  0  0  0  0  0  0  0  0  0
   -6.0370   24.2360  -30.2610 C   0  0  0  0  0  0  0  0  0  0  0  0
   -5.1080   23.1860  -30.2600 C   0  0  0  0  0  0  0  0  0  0  0  0
   -3.7870   23.3500  -29.6090 C   0  0  0  0  0  0  0  0  0  0  0  0
   -3.1120   24.5350  -29.7180 N   0  0  0  0  0  0  0  0  0  0  0  0
   -1.8890   24.7170  -29.1520 C   0  0  0  0  0  0  0  0  0  0  0  0
   -1.2400   25.9430  -29.2750 O   0  0  0  0  0  0  0  0  0  0  0  0
   -1.3260   23.6550  -28.4530 C   0  0  0  0  0  0  0  0  0  0  0  0
    0.1450   23.5250  -27.6580 S   0  0  0  0  0  0  0  0  0  0  0  0
   -0.0940   21.9280  -27.1380 C   0  0  0  0  0  0  0  0  0  0  0  0
   -1.3370   21.4890  -27.5890 C   0  0  0  0  0  0  0  0  0  0  0  0
   -1.8630   20.1120  -27.3440 C   0  0  0  0  0  0  0  0  0  0  0  0
   -2.0090   22.4670  -28.3360 C   0  0  0  0  0  0  0  0  0  0  0  0
   -3.2270   22.3170  -28.9110 N   0  0  0  0  0  0  0  0  0  0  0  0
   -5.4580   21.9710  -30.8690 C   0  0  0  0  0  0  0  0  0  0  0  0
   -6.7160   21.7950  -31.4690 C   0  0  0  0  0  0  0  0  0  0  0  0
   -7.1030   20.2210  -32.1870 S   0  0  0  0  0  0  0  0  0  0  0  0
   -7.6930   19.3280  -31.1310 O   0  0  0  0  0  0  0  0  0  0  0  0
   -8.1270   20.4000  -33.2750 O   0  0  0  0  0  0  0  0  0  0  0  0
   -5.6640   19.4790  -32.8440 N   0  0  0  0  0  0  0  0  0  0  0  0
   -6.0290   18.4810  -33.8690 C   0  0  0  0  0  0  0  0  0  0  0  0
   -4.8470   18.1290  -34.8040 C   0  0  0  0  0  0  0  0  0  0  0  0
   -3.5430   18.4350  -34.2010 N   0  0  0  0  0  0  0  0  0  0  0  0
   -3.2180   17.5180  -33.0980 C   0  0  0  0  0  0  0  0  0  0  0  0
   -3.4290   19.8570  -33.8040 C   0  0  0  0  0  0  0  0  0  0  0  0
   -4.7740   20.4950  -33.4090 C   0  0  0  0  0  0  0  0  0  0  0  0
   -9.7697   22.6373  -31.2538 H   0  0  0  0  0  0  0  0  0  0  0  0
   -9.2383   23.5953  -32.6774 H   0  0  0  0  0  0  0  0  0  0  0  0
   -9.0531   21.8086  -32.6774 H   0  0  0  0  0  0  0  0  0  0  0  0
   -8.0076   24.9065  -30.8402 H   0  0  0  0  0  0  0  0  0  0  0  0
   -5.7744   25.1971  -29.7948 H   0  0  0  0  0  0  0  0  0  0  0  0
   -1.2220   26.4520  -30.1510 H   0  0  0  0  0  0  0  0  0  0  0  0
    0.6162   21.3359  -26.5422 H   0  0  0  0  0  0  0  0  0  0  0  0
   -1.9314   19.9330  -26.2608 H   0  0  0  0  0  0  0  0  0  0  0  0
   -2.8614   20.0152  -27.7954 H   0  0  0  0  0  0  0  0  0  0  0  0
   -1.1834   19.3742  -27.7954 H   0  0  0  0  0  0  0  0  0  0  0  0
   -4.7348   21.1422  -30.8767 H   0  0  0  0  0  0  0  0  0  0  0  0
   -6.3639   17.5632  -33.3636 H   0  0  0  0  0  0  0  0  0  0  0  0
   -6.8263   18.9165  -34.4892 H   0  0  0  0  0  0  0  0  0  0  0  0
   -4.8863   17.0538  -35.0330 H   0  0  0  0  0  0  0  0  0  0  0  0
   -4.9466   18.7398  -35.7134 H   0  0  0  0  0  0  0  0  0  0  0  0
   -3.3968   18.0225  -32.1370 H   0  0  0  0  0  0  0  0  0  0  0  0
   -3.8536   16.6228  -33.1660 H   0  0  0  0  0  0  0  0  0  0  0  0
   -2.1605   17.2229  -33.1660 H   0  0  0  0  0  0  0  0  0  0  0  0
   -2.7459   19.9247  -32.9445 H   0  0  0  0  0  0  0  0  0  0  0  0
   -3.0546   20.4080  -34.6793 H   0  0  0  0  0  0  0  0  0  0  0  0
   -4.5980   21.2818  -32.6607 H   0  0  0  0  0  0  0  0  0  0  0  0
   -5.2440   20.9292  -34.3037 H   0  0  0  0  0  0  0  0  0  0  0  0
  1  2  1  0
  2  3  2  0
  3  4  1  0
  4  5  2  0
  5  6  1  0
  6  7  2  0
  7  8  1  0
  8  9  1  0
  8 10  2  0
 10 11  1  0
 11 12  1  0
 12 13  2  0
 13 14  1  0
 13 15  1  0
 15 16  2  0
  5 17  1  0
 17 18  2  0
 18 19  1  0
 19 20  2  0
 19 21  2  0
 19 22  1  0
 22 23  1  0
 23 24  1  0
 24 25  1  0
 25 26  1  0
 25 27  1  0
 27 28  1  0
 18  2  1  0
 28 22  1  0
 16  6  1  0
 15 10  1  0
  1 29  1  0
  1 30  1  0
  1 31  1  0
  3 32  1  0
  4 33  1  0
  9 34  1  0
 12 35  1  0
 14 36  1  0
 14 37  1  0
 14 38  1  0
 17 39  1  0
 23 40  1  0
 23 41  1  0
 24 42  1  0
 24 43  1  0
 26 44  1  0
 26 45  1  0
 26 46  1  0
 27 47  1  0
 27 48  1  0
 28 49  1  0
 28 50  1  0
M  END
>  <UniqueID>  (17) 
17

>  <SMILES>  (17) 
Cc1ccc(-c2nc(O)c3scc(C)c3n2)cc1S(=O)(=O)N1CCN(C)CC1

>  <Energy>  (17) 
96.3023220976262

>  <Genealogy>  (17) 
Cc1ccc(-c2nc(O)c3scc(C)c3n2)cc1S(=O)(=O)N1CCN(C)CC1 (3D coordinates assigned)
Cc1ccc(-c2nc(O)c3scc(C)c3n2)cc1S(=O)(=O)N1CCN(C)CC1 (nonaromatic ring conformer: 96.3023220976262 kcal/mol)

>  <smiles>  (17) 
Cc1ccc(-c2nc(O)c3scc(C)c3n2)cc1S(=O)(=O)N1CCN(C)CC1

>  <score_type>  (17) 
oracle

>  <origin>  (17) 
adgpu

>  <m_score__min__energy>  (17) 
-10.029999999999999

>  <m_primary>  (17) 
energy

$$$$
17:0
     RDKit          3D

 50 53  0  0  0  0  0  0  0  0999 V2000
   -1.0280   17.3370  -35.3890 C   0  0  0  0  0  0  0  0  0  0  0  0
   -2.3660   16.8550  -35.0550 N   0  0  0  0  0  0  0  0  0  0  0  0
   -2.8310   15.5830  -35.1160 C   0  0  0  0  0  0  0  0  0  0  0  0
   -2.1480   14.6120  -35.5430 O   0  0  0  0  0  0  0  0  0  0  0  0
   -4.1000   15.4600  -34.6520 N   0  0  0  0  0  0  0  0  0  0  0  0
   -4.8820   14.2360  -34.4990 C   0  0  0  0  0  0  0  0  0  0  0  0
   -4.4250   16.7040  -34.2470 C   0  0  0  0  0  0  0  0  0  0  0  0
   -5.6010   17.1470  -33.6450 C   0  0  0  0  0  0  0  0  0  0  0  0
   -5.6970   18.5110  -33.2910 C   0  0  0  0  0  0  0  0  0  0  0  0
   -6.9280   19.0140  -32.7380 N   0  0  0  0  0  0  0  0  0  0  0  0
   -7.5290   18.3670  -31.5660 C   0  0  0  0  0  0  0  0  0  0  0  0
   -9.0730   18.4150  -31.6420 C   0  0  0  0  0  0  0  0  0  0  0  0
   -9.5670   19.2400  -32.6870 O   0  0  0  0  0  0  0  0  0  0  0  0
   -8.8980   20.4830  -32.6850 C   0  0  0  0  0  0  0  0  0  0  0  0
   -7.4680   20.2960  -33.2000 C   0  0  0  0  0  0  0  0  0  0  0  0
   -4.5870   19.3830  -33.5180 C   0  0  0  0  0  0  0  0  0  0  0  0
   -4.6340   20.7630  -33.1340 N   0  0  0  0  0  0  0  0  0  0  0  0
   -4.6000   21.1890  -31.7620 C   0  0  0  0  0  0  0  0  0  0  0  0
   -4.5210   20.3370  -30.8380 O   0  0  0  0  0  0  0  0  0  0  0  0
   -4.7050   22.5740  -31.4170 N   0  0  0  0  0  0  0  0  0  0  0  0
   -4.1800   23.1860  -30.2320 C   0  0  0  0  0  0  0  0  0  0  0  0
   -4.7270   22.9200  -28.9640 C   0  0  0  0  0  0  0  0  0  0  0  0
   -4.2150   23.5570  -27.8300 C   0  0  0  0  0  0  0  0  0  0  0  0
   -3.1700   24.4770  -27.9550 C   0  0  0  0  0  0  0  0  0  0  0  0
   -2.6420   24.7680  -29.2160 C   0  0  0  0  0  0  0  0  0  0  0  0
   -1.6110   25.6910  -29.3410 O   0  0  0  0  0  0  0  0  0  0  0  0
   -3.1520   24.1310  -30.3520 C   0  0  0  0  0  0  0  0  0  0  0  0
   -3.4210   18.8970  -34.1430 C   0  0  0  0  0  0  0  0  0  0  0  0
   -3.3760   17.5490  -34.4920 C   0  0  0  0  0  0  0  0  0  0  0  0
   -0.4691   17.5383  -34.4632 H   0  0  0  0  0  0  0  0  0  0  0  0
   -0.4993   16.5728  -35.9776 H   0  0  0  0  0  0  0  0  0  0  0  0
   -1.1081   18.2628  -35.9776 H   0  0  0  0  0  0  0  0  0  0  0  0
   -5.0198   14.0203  -33.4292 H   0  0  0  0  0  0  0  0  0  0  0  0
   -5.8644   14.3665  -34.9763 H   0  0  0  0  0  0  0  0  0  0  0  0
   -4.3507   13.3994  -34.9763 H   0  0  0  0  0  0  0  0  0  0  0  0
   -6.4322   16.4532  -33.4507 H   0  0  0  0  0  0  0  0  0  0  0  0
   -7.2026   17.3173  -31.5268 H   0  0  0  0  0  0  0  0  0  0  0  0
   -7.2042   18.9036  -30.6624 H   0  0  0  0  0  0  0  0  0  0  0  0
   -9.4450   17.3922  -31.8015 H   0  0  0  0  0  0  0  0  0  0  0  0
   -9.4285   18.8475  -30.6951 H   0  0  0  0  0  0  0  0  0  0  0  0
   -9.4332   21.1881  -33.3379 H   0  0  0  0  0  0  0  0  0  0  0  0
   -8.8686   20.8810  -31.6600 H   0  0  0  0  0  0  0  0  0  0  0  0
   -7.4726   20.3133  -34.2999 H   0  0  0  0  0  0  0  0  0  0  0  0
   -6.8379   21.1111  -32.8146 H   0  0  0  0  0  0  0  0  0  0  0  0
   -4.6270   21.4760  -33.8970 H   0  0  0  0  0  0  0  0  0  0  0  0
   -5.5601   22.2087  -28.8643 H   0  0  0  0  0  0  0  0  0  0  0  0
   -4.6349   23.3341  -26.8380 H   0  0  0  0  0  0  0  0  0  0  0  0
   -2.7632   24.9720  -27.0609 H   0  0  0  0  0  0  0  0  0  0  0  0
   -2.7442   24.3730  -31.3446 H   0  0  0  0  0  0  0  0  0  0  0  0
   -2.5704   19.5633  -34.3494 H   0  0  0  0  0  0  0  0  0  0  0  0
  1  2  1  0
  2  3  1  0
  3  4  2  0
  3  5  1  0
  5  6  1  0
  5  7  1  0
  7  8  2  0
  8  9  1  0
  9 10  1  0
 10 11  1  0
 11 12  1  0
 12 13  1  0
 13 14  1  0
 14 15  1  0
  9 16  2  0
 16 17  1  0
 17 18  1  0
 18 19  2  0
 18 20  1  0
 20 21  1  0
 21 22  2  0
 22 23  1  0
 23 24  2  0
 24 25  1  0
 25 26  1  0
 25 27  2  0
 16 28  1  0
 28 29  2  0
 29  2  1  0
 29  7  1  0
 15 10  1  0
 27 21  1  0
  1 30  1  0
  1 31  1  0
  1 32  1  0
  6 33  1  0
  6 34  1  0
  6 35  1  0
  8 36  1  0
 11 37  1  0
 11 38  1  0
 12 39  1  0
 12 40  1  0
 14 41  1  0
 14 42  1  0
 15 43  1  0
 15 44  1  0
 17 45  1  0
 22 46  1  0
 23 47  1  0
 24 48  1  0
 27 49  1  0
 28 50  1  0
M  CHG  2  20  -1  26  -1
M  END
>  <UniqueID>  (18) 
18

>  <SMILES>  (18) 
Cn1c(=O)n(C)c2cc(N3CCOCC3)c(NC(=O)[N-]c3cccc([O-])c3)cc21

>  <Energy>  (18) 
113.24452582476938

>  <Genealogy>  (18) 
Cn1c(=O)n(C)c2cc(N3CCOCC3)c(NC(=O)[N-]c3cccc([O-])c3)cc21 (protonated)
Cn1c(=O)n(C)c2cc(N3CCOCC3)c(NC(=O)[N-]c3cccc([O-])c3)cc21 (3D coordinates assigned)
Cn1c(=O)n(C)c2cc(N3CCOCC3)c(NC(=O)[N-]c3cccc([O-])c3)cc21 (nonaromatic ring conformer: 113.24452582476938 kcal/mol)

>  <smiles>  (18) 
Cn1c(=O)n(C)c2cc(N3CCOCC3)c(NC(=O)Nc3cccc(O)c3)cc21

>  <score_type>  (18) 
oracle

>  <origin>  (18) 
adgpu

>  <m_score__min__energy>  (18) 
-11.789999999999999

>  <m_primary>  (18) 
energy

$$$$
18:0
     RDKit          3D

 55 58  0  0  0  0  0  0  0  0999 V2000
   -8.3000   20.0310  -32.2080 C   0  0  0  0  0  0  0  0  0  0  0  0
   -7.5380   21.2560  -31.7620 C   0  0  0  0  0  0  0  0  0  0  0  0
   -8.2530   22.4440  -31.5370 C   0  0  0  0  0  0  0  0  0  0  0  0
   -7.6040   23.5920  -31.0810 C   0  0  0  0  0  0  0  0  0  0  0  0
   -6.2340   23.5700  -30.8270 C   0  0  0  0  0  0  0  0  0  0  0  0
   -5.4170   24.9880  -30.1740 S   0  0  0  0  0  0  0  0  0  0  0  0
   -6.4060   26.0710  -29.8340 O   0  0  0  0  0  0  0  0  0  0  0  0
   -4.4660   25.5200  -31.2090 O   0  0  0  0  0  0  0  0  0  0  0  0
   -4.5230   24.5530  -28.7490 N   0  0  0  0  0  0  0  0  0  0  0  0
   -3.3770   23.6900  -28.7140 C   0  0  0  0  0  0  0  0  0  0  0  0
   -3.4810   22.3230  -28.3990 C   0  0  0  0  0  0  0  0  0  0  0  0
   -2.3380   21.5110  -28.3840 C   0  0  0  0  0  0  0  0  0  0  0  0
   -1.0830   22.0580  -28.6870 C   0  0  0  0  0  0  0  0  0  0  0  0
   -0.9740   23.4190  -29.0080 C   0  0  0  0  0  0  0  0  0  0  0  0
   -2.1140   24.2300  -29.0140 C   0  0  0  0  0  0  0  0  0  0  0  0
   -1.9870   25.5810  -29.3260 O   0  0  0  0  0  0  0  0  0  0  0  0
    0.1140   21.1440  -28.7380 C   0  0  0  0  0  0  0  0  0  0  0  0
    0.1150   20.1100  -27.5870 C   0  0  0  0  0  0  0  0  0  0  0  0
   -1.2880   19.6700  -27.0920 C   0  0  0  0  0  0  0  0  0  0  0  0
   -2.4240   20.0440  -28.0520 C   0  0  0  0  0  0  0  0  0  0  0  0
   -5.5040   22.4040  -31.0790 C   0  0  0  0  0  0  0  0  0  0  0  0
   -6.1320   21.2520  -31.5770 C   0  0  0  0  0  0  0  0  0  0  0  0
   -5.1220   19.8310  -31.9150 S   0  0  0  0  0  0  0  0  0  0  0  0
   -3.7860   20.0420  -31.2570 O   0  0  0  0  0  0  0  0  0  0  0  0
   -5.7510   18.5880  -31.3530 O   0  0  0  0  0  0  0  0  0  0  0  0
   -4.9020   19.6500  -33.6470 N   0  0  0  0  0  0  0  0  0  0  0  0
   -6.0910   19.0810  -34.3150 C   0  0  0  0  0  0  0  0  0  0  0  0
   -6.1410   17.5480  -34.2260 C   0  0  0  0  0  0  0  0  0  0  0  0
   -4.9410   16.9710  -34.6990 O   0  0  0  0  0  0  0  0  0  0  0  0
   -3.8630   17.3890  -33.8860 C   0  0  0  0  0  0  0  0  0  0  0  0
   -3.6710   18.9090  -33.9840 C   0  0  0  0  0  0  0  0  0  0  0  0
   -8.6468   19.4734  -31.3255 H   0  0  0  0  0  0  0  0  0  0  0  0
   -9.1668   20.3380  -32.8117 H   0  0  0  0  0  0  0  0  0  0  0  0
   -7.6415   19.3892  -32.8117 H   0  0  0  0  0  0  0  0  0  0  0  0
   -9.3370   22.4696  -31.7224 H   0  0  0  0  0  0  0  0  0  0  0  0
   -8.1760   24.5179  -30.9214 H   0  0  0  0  0  0  0  0  0  0  0  0
   -4.4639   21.8889  -28.1633 H   0  0  0  0  0  0  0  0  0  0  0  0
    0.0079   23.8488  -29.2551 H   0  0  0  0  0  0  0  0  0  0  0  0
    0.1067   20.6053  -29.6970 H   0  0  0  0  0  0  0  0  0  0  0  0
    1.0156   21.7653  -28.6320 H   0  0  0  0  0  0  0  0  0  0  0  0
    0.6493   19.2138  -27.9353 H   0  0  0  0  0  0  0  0  0  0  0  0
    0.5983   20.6058  -26.7322 H   0  0  0  0  0  0  0  0  0  0  0  0
   -1.2851   18.5773  -26.9658 H   0  0  0  0  0  0  0  0  0  0  0  0
   -1.4771   20.2003  -26.1470 H   0  0  0  0  0  0  0  0  0  0  0  0
   -2.3333   19.4531  -28.9754 H   0  0  0  0  0  0  0  0  0  0  0  0
   -3.3922   19.8321  -27.5748 H   0  0  0  0  0  0  0  0  0  0  0  0
   -4.4215   22.3897  -30.8840 H   0  0  0  0  0  0  0  0  0  0  0  0
   -6.9933   19.4913  -33.8380 H   0  0  0  0  0  0  0  0  0  0  0  0
   -6.0366   19.3515  -35.3798 H   0  0  0  0  0  0  0  0  0  0  0  0
   -6.2918   17.2539  -33.1768 H   0  0  0  0  0  0  0  0  0  0  0  0
   -6.9714   17.1889  -34.8517 H   0  0  0  0  0  0  0  0  0  0  0  0
   -4.0719   17.1175  -32.8407 H   0  0  0  0  0  0  0  0  0  0  0  0
   -2.9444   16.8922  -34.2315 H   0  0  0  0  0  0  0  0  0  0  0  0
   -2.8743   19.2109  -33.2882 H   0  0  0  0  0  0  0  0  0  0  0  0
   -3.4067   19.1493  -35.0244 H   0  0  0  0  0  0  0  0  0  0  0  0
  1  2  1  0
  2  3  2  0
  3  4  1  0
  4  5  2  0
  5  6  1  0
  6  7  2  0
  6  8  2  0
  6  9  1  0
  9 10  1  0
 10 11  2  0
 11 12  1  0
 12 13  2  0
 13 14  1  0
 14 15  2  0
 15 16  1  0
 13 17  1  0
 17 18  1  0
 18 19  1  0
 19 20  1  0
  5 21  1  0
 21 22  2  0
 22 23  1  0
 23 24  2  0
 23 25  2  0
 23 26  1  0
 26 27  1  0
 27 28  1  0
 28 29  1  0
 29 30  1  0
 30 31  1  0
 22  2  1  0
 31 26  1  0
 15 10  1  0
 20 12  1  0
  1 32  1  0
  1 33  1  0
  1 34  1  0
  3 35  1  0
  4 36  1  0
 11 37  1  0
 14 38  1  0
 17 39  1  0
 17 40  1  0
 18 41  1  0
 18 42  1  0
 19 43  1  0
 19 44  1  0
 20 45  1  0
 20 46  1  0
 21 47  1  0
 27 48  1  0
 27 49  1  0
 28 50  1  0
 28 51  1  0
 30 52  1  0
 30 53  1  0
 31 54  1  0
 31 55  1  0
M  CHG  2   9  -1  16  -1
M  END
>  <UniqueID>  (19) 
19

>  <SMILES>  (19) 
Cc1ccc(S(=O)(=O)[N-]c2cc3c(cc2[O-])CCCC3)cc1S(=O)(=O)N1CCOCC1

>  <Energy>  (19) 
71.97976530397743

>  <Genealogy>  (19) 
Cc1ccc(S(=O)(=O)[N-]c2cc3c(cc2[O-])CCCC3)cc1S(=O)(=O)N1CCOCC1 (protonated)
Cc1ccc(S(=O)(=O)[N-]c2cc3c(cc2[O-])CCCC3)cc1S(=O)(=O)N1CCOCC1 (3D coordinates assigned)
Cc1ccc(S(=O)(=O)[N-]c2cc3c(cc2[O-])CCCC3)cc1S(=O)(=O)N1CCOCC1 (nonaromatic ring conformer: 71.97976530397743 kcal/mol)

>  <smiles>  (19) 
Cc1ccc(S(=O)(=O)Nc2cc3c(cc2O)CCCC3)cc1S(=O)(=O)N1CCOCC1

>  <score_type>  (19) 
oracle

>  <origin>  (19) 
adgpu

>  <m_score__min__energy>  (19) 
-15.31

>  <m_primary>  (19) 
energy

$$$$
19:0
     RDKit          3D

 29 31  0  0  0  0  0  0  0  0999 V2000
   -3.9050   16.4280  -34.9600 C   0  0  0  0  0  0  0  0  0  0  0  0
   -4.4960   17.5490  -34.1550 C   0  0  0  0  0  0  0  0  0  0  0  0
   -3.7300   18.7130  -33.9050 C   0  0  0  0  0  0  0  0  0  0  0  0
   -4.3140   19.7270  -33.1560 C   0  0  0  0  0  0  0  0  0  0  0  0
   -3.8120   20.8780  -32.8010 O   0  0  0  0  0  0  0  0  0  0  0  0
   -4.7560   21.4830  -32.1000 C   0  0  0  0  0  0  0  0  0  0  0  0
   -4.5920   22.8230  -31.5060 C   0  0  0  0  0  0  0  0  0  0  0  0
   -5.5070   23.8610  -31.4830 C   0  0  0  0  0  0  0  0  0  0  0  0
   -6.8840   23.8570  -32.0620 C   0  0  0  0  0  0  0  0  0  0  0  0
   -4.9700   24.9180  -30.8430 N   0  0  0  0  0  0  0  0  0  0  0  0
   -3.7690   24.5730  -30.4760 O   0  0  0  0  0  0  0  0  0  0  0  0
   -3.4930   23.3420  -30.8430 C   0  0  0  0  0  0  0  0  0  0  0  0
   -2.1940   22.6600  -30.5640 C   0  0  0  0  0  0  0  0  0  0  0  0
   -5.8920   20.7450  -31.9800 N   0  0  0  0  0  0  0  0  0  0  0  0
   -5.5780   19.6320  -32.6640 C   0  0  0  0  0  0  0  0  0  0  0  0
   -6.3700   18.5100  -32.8820 C   0  0  0  0  0  0  0  0  0  0  0  0
   -5.8220   17.4530  -33.6370 C   0  0  0  0  0  0  0  0  0  0  0  0
   -6.8130   16.0270  -33.9200 Cl  0  0  0  0  0  0  0  0  0  0  0  0
   -3.5013   15.6623  -34.2812 H   0  0  0  0  0  0  0  0  0  0  0  0
   -4.6848   15.9813  -35.5943 H   0  0  0  0  0  0  0  0  0  0  0  0
   -3.0958   16.8190  -35.5943 H   0  0  0  0  0  0  0  0  0  0  0  0
   -2.7049   18.8115  -34.2915 H   0  0  0  0  0  0  0  0  0  0  0  0
   -7.6240   23.8549  -31.2481 H   0  0  0  0  0  0  0  0  0  0  0  0
   -7.0236   24.7547  -32.6821 H   0  0  0  0  0  0  0  0  0  0  0  0
   -7.0184   22.9585  -32.6821 H   0  0  0  0  0  0  0  0  0  0  0  0
   -2.0466   22.5826  -29.4767 H   0  0  0  0  0  0  0  0  0  0  0  0
   -2.2068   21.6523  -31.0049 H   0  0  0  0  0  0  0  0  0  0  0  0
   -1.3718   23.2427  -31.0049 H   0  0  0  0  0  0  0  0  0  0  0  0
   -7.3914   18.4491  -32.4783 H   0  0  0  0  0  0  0  0  0  0  0  0
  1  2  1  0
  2  3  2  0
  3  4  1  0
  4  5  1  0
  5  6  1  0
  6  7  1  0
  7  8  1  0
  8  9  1  0
  8 10  2  0
 10 11  1  0
 11 12  1  0
 12 13  1  0
  6 14  2  0
 14 15  1  0
 15 16  1  0
 16 17  2  0
 17 18  1  0
 17  2  1  0
 15  4  2  0
 12  7  2  0
  1 19  1  0
  1 20  1  0
  1 21  1  0
  3 22  1  0
  9 23  1  0
  9 24  1  0
  9 25  1  0
 13 26  1  0
 13 27  1  0
 13 28  1  0
 16 29  1  0
M  END
>  <UniqueID>  (20) 
20

>  <SMILES>  (20) 
Cc1cc2oc(-c3c(C)noc3C)nc2cc1Cl

>  <Energy>  (20) 
97.17017023216337

>  <Genealogy>  (20) 
Cc1cc2oc(-c3c(C)noc3C)nc2cc1Cl (3D coordinates assigned)
Cc1cc2oc(-c3c(C)noc3C)nc2cc1Cl (optimized conformer: 97.17017023216337 kcal/mol)

>  <smiles>  (20) 
Cc1cc2oc(-c3c(C)noc3C)nc2cc1Cl

>  <score_type>  (20) 
oracle

>  <origin>  (20) 
adgpu

>  <m_score__min__energy>  (20) 
-7.3899999999999997

>  <m_primary>  (20) 
energy

$$$$
20:0
     RDKit          3D

 52 54  0  0  0  0  0  0  0  0999 V2000
   -1.1994   26.7980  -28.1778 H   0  0  0  0  0  0  0  0  0  0  0  0
   -1.2680   25.7270  -28.4190 C   0  0  0  0  0  0  0  0  0  0  0  0
   -2.1670   25.2980  -29.3410 N   0  0  0  0  0  0  0  0  0  0  0  0
   -2.2810   23.9850  -29.6760 C   0  0  0  0  0  0  0  0  0  0  0  0
   -3.2020   23.5690  -30.6450 O   0  0  0  0  0  0  0  0  0  0  0  0
   -4.5420   23.1790  -30.3390 C   0  0  1  0  0  0  0  0  0  0  0  0
   -5.1930   24.0591  -30.4471 H   0  0  0  0  0  0  0  0  0  0  0  0
   -5.0480   22.1150  -31.3090 C   0  0  0  0  0  0  0  0  0  0  0  0
   -6.3560   22.1830  -31.8620 C   0  0  0  0  0  0  0  0  0  0  0  0
   -7.4820   23.4900  -31.4980 Cl  0  0  0  0  0  0  0  0  0  0  0  0
   -6.7980   21.1950  -32.7470 C   0  0  0  0  0  0  0  0  0  0  0  0
   -7.8155   21.2495  -33.1614 H   0  0  0  0  0  0  0  0  0  0  0  0
   -5.9610   20.1430  -33.1080 C   0  0  0  0  0  0  0  0  0  0  0  0
   -6.3232   19.3660  -33.7973 H   0  0  0  0  0  0  0  0  0  0  0  0
   -4.6680   20.0710  -32.6000 C   0  0  0  0  0  0  0  0  0  0  0  0
   -3.8620   19.0480  -32.9780 F   0  0  0  0  0  0  0  0  0  0  0  0
   -4.1990   21.0490  -31.7110 C   0  0  0  0  0  0  0  0  0  0  0  0
   -2.5350   20.9040  -31.1430 Cl  0  0  0  0  0  0  0  0  0  0  0  0
   -4.6150   22.6740  -28.9000 C   0  0  0  0  0  0  0  0  0  0  0  0
   -4.4927   23.5201  -28.2078 H   0  0  0  0  0  0  0  0  0  0  0  0
   -5.5914   22.1975  -28.7277 H   0  0  0  0  0  0  0  0  0  0  0  0
   -3.8135   21.9405  -28.7277 H   0  0  0  0  0  0  0  0  0  0  0  0
   -1.4660   23.0350  -29.0560 C   0  0  0  0  0  0  0  0  0  0  0  0
   -1.5514   21.9730  -29.3297 H   0  0  0  0  0  0  0  0  0  0  0  0
   -0.5330   23.4400  -28.0780 C   0  0  0  0  0  0  0  0  0  0  0  0
    0.2590   22.5910  -27.4760 N   0  0  0  0  0  0  0  0  0  0  0  0
    0.2470   21.1580  -27.5750 C   0  0  0  0  0  0  0  0  0  0  0  0
   -0.8700   20.4550  -27.1220 C   0  0  0  0  0  0  0  0  0  0  0  0
   -1.7058   21.0033  -26.6628 H   0  0  0  0  0  0  0  0  0  0  0  0
   -0.9430   19.0540  -27.2440 C   0  0  0  0  0  0  0  0  0  0  0  0
   -2.0600   18.3480  -26.7690 O   0  0  0  0  0  0  0  0  0  0  0  0
   -3.1180   18.9130  -26.0010 C   0  0  0  0  0  0  0  0  0  0  0  0
   -2.8971   18.7950  -24.9299 H   0  0  0  0  0  0  0  0  0  0  0  0
   -3.2140   19.9824  -26.2400 H   0  0  0  0  0  0  0  0  0  0  0  0
   -4.0601   18.3979  -26.2400 H   0  0  0  0  0  0  0  0  0  0  0  0
    0.1310   18.3560  -27.8590 C   0  0  0  0  0  0  0  0  0  0  0  0
    0.1610   16.9570  -28.0210 O   0  0  0  0  0  0  0  0  0  0  0  0
    1.0290   16.0440  -27.3590 C   0  0  0  0  0  0  0  0  0  0  0  0
    0.9202   16.1584  -26.2704 H   0  0  0  0  0  0  0  0  0  0  0  0
    0.7679   15.0151  -27.6475 H   0  0  0  0  0  0  0  0  0  0  0  0
    2.0698   16.2528  -27.6475 H   0  0  0  0  0  0  0  0  0  0  0  0
    1.2350   19.0720  -28.3490 C   0  0  0  0  0  0  0  0  0  0  0  0
    2.2720   18.3520  -28.9660 O   0  0  0  0  0  0  0  0  0  0  0  0
    3.6590   18.5680  -28.7270 C   0  0  0  0  0  0  0  0  0  0  0  0
    3.8442   18.5968  -27.6431 H   0  0  0  0  0  0  0  0  0  0  0  0
    4.2404   17.7496  -29.1766 H   0  0  0  0  0  0  0  0  0  0  0  0
    3.9640   19.5245  -29.1766 H   0  0  0  0  0  0  0  0  0  0  0  0
    1.2810   20.4700  -28.2180 C   0  0  0  0  0  0  0  0  0  0  0  0
    2.1373   21.0281  -28.6245 H   0  0  0  0  0  0  0  0  0  0  0  0
   -0.4280   24.8120  -27.7740 C   0  0  0  0  0  0  0  0  0  0  0  0
    0.5210   25.2950  -26.7990 C   0  0  0  0  0  0  0  0  0  0  0  0
    1.2810   25.6830  -26.0170 N   0  0  0  0  0  0  0  0  0  0  0  0
  1  2  1  0
  2  3  1  0
  3  4  1  0
  4  5  1  0
  5  6  1  0
  6  7  1  1
  6  8  1  0
  8  9  2  0
  9 10  1  0
  9 11  1  0
 11 12  1  0
 11 13  2  0
 13 14  1  0
 13 15  1  0
 15 16  1  0
 15 17  2  0
 17 18  1  0
  6 19  1  0
 19 20  1  0
 19 21  1  0
 19 22  1  0
  4 23  2  0
 23 24  1  0
 23 25  1  0
 25 26  2  0
 26 27  1  0
 27 28  2  0
 28 29  1  0
 28 30  1  0
 30 31  1  0
 31 32  1  0
 32 33  1  0
 32 34  1  0
 32 35  1  0
 30 36  2  0
 36 37  1  0
 37 38  1  0
 38 39  1  0
 38 40  1  0
 38 41  1  0
 36 42  1  0
 42 43  1  0
 43 44  1  0
 44 45  1  0
 44 46  1  0
 44 47  1  0
 42 48  2  0
 48 49  1  0
 25 50  1  0
 50 51  1  0
 51 52  3  0
 50  2  2  0
 17  8  1  0
 48 27  1  0
M  CHG  1   3  -1
M  END
>  <UniqueID>  (21) 
21

>  <SMILES>  (21) 
COc1cc(/N=c2\cc(O[C@H](C)c3c(Cl)ccc(F)c3Cl)[n-]cc2C#N)cc(OC)c1OC

>  <Energy>  (21) 
66.99307003911434

>  <Genealogy>  (21) 
COc1cc(N=c2cc(OC(C)c3c(Cl)ccc(F)c3Cl)[n-]cc2C#N)cc(OC)c1OC (protonated)
COc1cc(N=c2cc(O[C@H](C)c3c(Cl)ccc(F)c3Cl)[n-]cc2C#N)cc(OC)c1OC (chirality)
COc1cc(/N=c2\cc(O[C@H](C)c3c(Cl)ccc(F)c3Cl)[n-]cc2C#N)cc(OC)c1OC (cis-trans isomerization)
COc1cc(/N=c2\cc(O[C@H](C)c3c(Cl)ccc(F)c3Cl)[n-]cc2C#N)cc(OC)c1OC (3D coordinates assigned)
COc1cc(/N=c2\cc(O[C@H](C)c3c(Cl)ccc(F)c3Cl)[n-]cc2C#N)cc(OC)c1OC (optimized conformer: 66.99307003911434 kcal/mol)

>  <smiles>  (21) 
COc1cc(N=c2cc(OC(C)c3c(Cl)ccc(F)c3Cl)[nH]cc2C#N)cc(OC)c1OC

>  <score_type>  (21) 
oracle

>  <origin>  (21) 
adgpu

>  <m_score__min__energy>  (21) 
-9.6799999999999997

>  <m_primary>  (21) 
energy

$$$$
21:0
     RDKit          3D

 57 60  0  0  0  0  0  0  0  0999 V2000
   -1.5950   19.8780  -27.6880 C   0  0  0  0  0  0  0  0  0  0  0  0
   -2.1820   20.8280  -28.6810 C   0  0  0  0  0  0  0  0  0  0  0  0
   -3.2820   21.5710  -28.4560 N   0  0  0  0  0  0  0  0  0  0  0  0
   -3.4850   22.2710  -29.5640 N   0  0  0  0  0  0  0  0  0  0  0  0
   -4.5890   23.1700  -29.7630 C   0  0  0  0  0  0  0  0  0  0  0  0
   -4.3640   24.5520  -29.9160 C   0  0  0  0  0  0  0  0  0  0  0  0
   -5.4350   25.4240  -30.1240 C   0  0  0  0  0  0  0  0  0  0  0  0
   -6.7410   24.9300  -30.1810 C   0  0  0  0  0  0  0  0  0  0  0  0
   -6.9760   23.5620  -30.0310 C   0  0  0  0  0  0  0  0  0  0  0  0
   -5.9070   22.6830  -29.8250 C   0  0  0  0  0  0  0  0  0  0  0  0
   -2.5690   22.0190  -30.4870 N   0  0  0  0  0  0  0  0  0  0  0  0
   -1.7350   21.1040  -29.9620 C   0  0  0  0  0  0  0  0  0  0  0  0
   -0.5670   20.5280  -30.6730 C   0  0  0  0  0  0  0  0  0  0  0  0
    0.5250   20.4090  -30.0540 O   0  0  0  0  0  0  0  0  0  0  0  0
   -0.6410   20.1320  -32.0610 N   0  0  0  0  0  0  0  0  0  0  0  0
    0.5640   20.1990  -32.8910 C   0  0  0  0  0  0  0  0  0  0  0  0
   -1.8840   19.7160  -32.6560 C   0  0  0  0  0  0  0  0  0  0  0  0
   -2.8050   20.6700  -33.1120 C   0  0  0  0  0  0  0  0  0  0  0  0
   -4.0520   20.2700  -33.5990 C   0  0  0  0  0  0  0  0  0  0  0  0
   -4.3890   18.9100  -33.6430 C   0  0  0  0  0  0  0  0  0  0  0  0
   -5.9810   18.4040  -34.2140 S   0  0  0  0  0  0  0  0  0  0  0  0
   -6.1040   16.9110  -34.0840 O   0  0  0  0  0  0  0  0  0  0  0  0
   -6.1130   18.7560  -35.6700 O   0  0  0  0  0  0  0  0  0  0  0  0
   -7.2640   19.1750  -33.3120 N   0  0  0  0  0  0  0  0  0  0  0  0
   -6.7580   20.3810  -32.6290 C   0  0  0  0  0  0  0  0  0  0  0  0
   -7.9110   21.1910  -32.0030 C   0  0  0  0  0  0  0  0  0  0  0  0
   -9.1270   20.3180  -31.6510 C   0  0  0  0  0  0  0  0  0  0  0  0
   -8.6950   18.9070  -31.2460 C   0  0  0  0  0  0  0  0  0  0  0  0
   -7.8660   18.2170  -32.3550 C   0  0  0  0  0  0  0  0  0  0  0  0
   -3.4600   17.9530  -33.2130 C   0  0  0  0  0  0  0  0  0  0  0  0
   -2.2120   18.3530  -32.7270 C   0  0  0  0  0  0  0  0  0  0  0  0
   -1.8132   20.2312  -26.6693 H   0  0  0  0  0  0  0  0  0  0  0  0
   -2.0339   18.8797  -27.8319 H   0  0  0  0  0  0  0  0  0  0  0  0
   -0.5058   19.8239  -27.8319 H   0  0  0  0  0  0  0  0  0  0  0  0
   -3.3383   24.9470  -29.8714 H   0  0  0  0  0  0  0  0  0  0  0  0
   -5.2501   26.5018  -30.2432 H   0  0  0  0  0  0  0  0  0  0  0  0
   -7.5833   25.6185  -30.3439 H   0  0  0  0  0  0  0  0  0  0  0  0
   -8.0044   23.1741  -30.0749 H   0  0  0  0  0  0  0  0  0  0  0  0
   -6.0984   21.6058  -29.7110 H   0  0  0  0  0  0  0  0  0  0  0  0
    1.4524   20.2484  -32.2443 H   0  0  0  0  0  0  0  0  0  0  0  0
    0.6221   19.3027  -33.5260 H   0  0  0  0  0  0  0  0  0  0  0  0
    0.5224   21.0962  -33.5260 H   0  0  0  0  0  0  0  0  0  0  0  0
   -2.5445   21.7384  -33.0862 H   0  0  0  0  0  0  0  0  0  0  0  0
   -4.7716   21.0247  -33.9490 H   0  0  0  0  0  0  0  0  0  0  0  0
   -7.9890   19.4610  -34.0120 H   0  0  0  0  0  0  0  0  0  0  0  0
   -6.0599   20.0776  -31.8349 H   0  0  0  0  0  0  0  0  0  0  0  0
   -6.2493   21.0143  -33.3707 H   0  0  0  0  0  0  0  0  0  0  0  0
   -7.5449   21.6715  -31.0837 H   0  0  0  0  0  0  0  0  0  0  0  0
   -8.2384   21.9322  -32.7469 H   0  0  0  0  0  0  0  0  0  0  0  0
   -9.6712   20.7808  -30.8146 H   0  0  0  0  0  0  0  0  0  0  0  0
   -9.7720   20.2440  -32.5389 H   0  0  0  0  0  0  0  0  0  0  0  0
   -8.0847   18.9702  -30.3330 H   0  0  0  0  0  0  0  0  0  0  0  0
   -9.6020   18.3084  -31.0760 H   0  0  0  0  0  0  0  0  0  0  0  0
   -7.0576   17.6412  -31.8808 H   0  0  0  0  0  0  0  0  0  0  0  0
   -8.5519   17.5722  -32.9240 H   0  0  0  0  0  0  0  0  0  0  0  0
   -3.7137   16.8836  -33.2581 H   0  0  0  0  0  0  0  0  0  0  0  0
   -1.4839   17.5966  -32.3988 H   0  0  0  0  0  0  0  0  0  0  0  0
  1  2  1  0
  2  3  2  0
  3  4  1  0
  4  5  1  0
  5  6  2  0
  6  7  1  0
  7  8  2  0
  8  9  1  0
  9 10  2  0
  4 11  1  0
 11 12  2  0
 12 13  1  0
 13 14  2  0
 13 15  1  0
 15 16  1  0
 15 17  1  0
 17 18  2  0
 18 19  1  0
 19 20  2  0
 20 21  1  0
 21 22  2  0
 21 23  2  0
 21 24  1  0
 24 25  1  0
 25 26  1  0
 26 27  1  0
 27 28  1  0
 28 29  1  0
 20 30  1  0
 30 31  2  0
 12  2  1  0
 31 17  1  0
 10  5  1  0
 29 24  1  0
  1 32  1  0
  1 33  1  0
  1 34  1  0
  6 35  1  0
  7 36  1  0
  8 37  1  0
  9 38  1  0
 10 39  1  0
 16 40  1  0
 16 41  1  0
 16 42  1  0
 18 43  1  0
 19 44  1  0
 24 45  1  0
 25 46  1  0
 25 47  1  0
 26 48  1  0
 26 49  1  0
 27 50  1  0
 27 51  1  0
 28 52  1  0
 28 53  1  0
 29 54  1  0
 29 55  1  0
 30 56  1  0
 31 57  1  0
M  CHG  1  24   1
M  END
>  <UniqueID>  (22) 
22

>  <SMILES>  (22) 
Cc1nn(-c2ccccc2)nc1C(=O)N(C)c1ccc(S(=O)(=O)[NH+]2CCCCC2)cc1

>  <Energy>  (22) 
101.99224198805234

>  <Genealogy>  (22) 
Cc1nn(-c2ccccc2)nc1C(=O)N(C)c1ccc(S(=O)(=O)[NH+]2CCCCC2)cc1 (protonated)
Cc1nn(-c2ccccc2)nc1C(=O)N(C)c1ccc(S(=O)(=O)[NH+]2CCCCC2)cc1 (3D coordinates assigned)
Cc1nn(-c2ccccc2)nc1C(=O)N(C)c1ccc(S(=O)(=O)[NH+]2CCCCC2)cc1 (nonaromatic ring conformer: 101.99224198805234 kcal/mol)

>  <smiles>  (22) 
Cc1nn(-c2ccccc2)nc1C(=O)N(C)c1ccc(S(=O)(=O)N2CCCCC2)cc1

>  <score_type>  (22) 
oracle

>  <origin>  (22) 
adgpu

>  <m_score__min__energy>  (22) 
-10.83

>  <m_primary>  (22) 
energy

$$$$
22:0
     RDKit          3D

 43 45  0  0  0  0  0  0  0  0999 V2000
   -7.7180   22.4580  -30.9780 C   0  0  0  0  0  0  0  0  0  0  0  0
   -6.4050   22.2570  -31.5930 N   0  0  0  0  0  0  0  0  0  0  0  0
   -5.9870   21.1630  -32.2690 C   0  0  0  0  0  0  0  0  0  0  0  0
   -6.9840   19.7530  -32.6230 S   0  0  0  0  0  0  0  0  0  0  0  0
   -6.2130   18.7340  -33.8660 C   0  0  0  0  0  0  0  0  0  0  0  0
   -8.3290   20.2020  -33.1250 O   0  0  0  0  0  0  0  0  0  0  0  0
   -7.1560   18.9350  -31.3760 O   0  0  0  0  0  0  0  0  0  0  0  0
   -4.6570   21.2960  -32.6230 C   0  0  0  0  0  0  0  0  0  0  0  0
   -4.2380   22.5120  -32.1220 C   0  0  0  0  0  0  0  0  0  0  0  0
   -5.3300   23.0710  -31.4870 C   0  0  0  0  0  0  0  0  0  0  0  0
   -5.3060   24.6150  -30.6380 S   0  0  0  0  0  0  0  0  0  0  0  0
   -6.1560   24.5430  -29.4000 O   0  0  0  0  0  0  0  0  0  0  0  0
   -5.8630   25.6750  -31.5450 O   0  0  0  0  0  0  0  0  0  0  0  0
   -3.6820   25.0330  -30.1980 N   0  0  0  0  0  0  0  0  0  0  0  0
   -2.7910   24.2080  -29.4340 C   0  0  0  0  0  0  0  0  0  0  0  0
   -3.1120   22.8800  -29.0980 C   0  0  0  0  0  0  0  0  0  0  0  0
   -2.2070   22.0960  -28.3690 C   0  0  0  0  0  0  0  0  0  0  0  0
   -0.9820   22.6410  -27.9520 C   0  0  0  0  0  0  0  0  0  0  0  0
   -0.6720   23.9710  -28.2680 C   0  0  0  0  0  0  0  0  0  0  0  0
   -1.5680   24.7480  -29.0080 C   0  0  0  0  0  0  0  0  0  0  0  0
   -1.2410   26.0630  -29.3170 O   0  0  0  0  0  0  0  0  0  0  0  0
   -0.0690   21.8190  -27.0800 C   0  0  0  0  0  0  0  0  0  0  0  0
   -0.0310   20.3240  -27.4760 C   0  0  0  0  0  0  0  0  0  0  0  0
   -1.2770   19.8060  -28.2310 C   0  0  0  0  0  0  0  0  0  0  0  0
   -2.5220   20.6720  -28.0090 C   0  0  0  0  0  0  0  0  0  0  0  0
   -7.6162   22.4424  -29.8828 H   0  0  0  0  0  0  0  0  0  0  0  0
   -8.1264   23.4291  -31.2945 H   0  0  0  0  0  0  0  0  0  0  0  0
   -8.3982   21.6535  -31.2945 H   0  0  0  0  0  0  0  0  0  0  0  0
   -5.6181   17.9477  -33.3783 H   0  0  0  0  0  0  0  0  0  0  0  0
   -6.9888   18.2708  -34.4934 H   0  0  0  0  0  0  0  0  0  0  0  0
   -5.5563   19.3547  -34.4934 H   0  0  0  0  0  0  0  0  0  0  0  0
   -4.0519   20.5747  -33.1919 H   0  0  0  0  0  0  0  0  0  0  0  0
   -3.2327   22.9496  -32.2109 H   0  0  0  0  0  0  0  0  0  0  0  0
   -4.0777   22.4549  -29.4088 H   0  0  0  0  0  0  0  0  0  0  0  0
    0.2811   24.4055  -27.9320 H   0  0  0  0  0  0  0  0  0  0  0  0
    0.9495   22.2272  -27.1576 H   0  0  0  0  0  0  0  0  0  0  0  0
   -0.4596   21.8753  -26.0532 H   0  0  0  0  0  0  0  0  0  0  0  0
    0.8464   20.1658  -28.1204 H   0  0  0  0  0  0  0  0  0  0  0  0
    0.0069   19.7612  -26.5316 H   0  0  0  0  0  0  0  0  0  0  0  0
   -1.0510   19.7883  -29.3074 H   0  0  0  0  0  0  0  0  0  0  0  0
   -1.5027   18.8032  -27.8391 H   0  0  0  0  0  0  0  0  0  0  0  0
   -3.3424   20.3055  -28.6435 H   0  0  0  0  0  0  0  0  0  0  0  0
   -2.8253   20.6174  -26.9531 H   0  0  0  0  0  0  0  0  0  0  0  0
  1  2  1  0
  2  3  1  0
  3  4  1  0
  4  5  1  0
  4  6  2  0
  4  7  2  0
  3  8  2  0
  8  9  1  0
  9 10  2  0
 10 11  1  0
 11 12  2  0
 11 13  2  0
 11 14  1  0
 14 15  1  0
 15 16  2  0
 16 17  1  0
 17 18  2  0
 18 19  1  0
 19 20  2  0
 20 21  1  0
 18 22  1  0
 22 23  1  0
 23 24  1  0
 24 25  1  0
 10  2  1  0
 20 15  1  0
 25 17  1  0
  1 26  1  0
  1 27  1  0
  1 28  1  0
  5 29  1  0
  5 30  1  0
  5 31  1  0
  8 32  1  0
  9 33  1  0
 16 34  1  0
 19 35  1  0
 22 36  1  0
 22 37  1  0
 23 38  1  0
 23 39  1  0
 24 40  1  0
 24 41  1  0
 25 42  1  0
 25 43  1  0
M  CHG  2  14  -1  21  -1
M  END
>  <UniqueID>  (23) 
23

>  <SMILES>  (23) 
Cn1c(S(C)(=O)=O)ccc1S(=O)(=O)[N-]c1cc2c(cc1[O-])CCCC2

>  <Energy>  (23) 
74.92519852467439

>  <Genealogy>  (23) 
Cn1c(S(C)(=O)=O)ccc1S(=O)(=O)[N-]c1cc2c(cc1[O-])CCCC2 (protonated)
Cn1c(S(C)(=O)=O)ccc1S(=O)(=O)[N-]c1cc2c(cc1[O-])CCCC2 (3D coordinates assigned)
Cn1c(S(C)(=O)=O)ccc1S(=O)(=O)[N-]c1cc2c(cc1[O-])CCCC2 (nonaromatic ring conformer: 74.92519852467439 kcal/mol)

>  <smiles>  (23) 
Cn1c(S(C)(=O)=O)ccc1S(=O)(=O)Nc1cc2c(cc1O)CCCC2

>  <score_type>  (23) 
oracle

>  <origin>  (23) 
adgpu

>  <m_score__min__energy>  (23) 
-13.300000000000001

>  <m_primary>  (23) 
energy

$$$$
23:0
     RDKit          3D

 48 50  0  0  0  0  0  0  0  0999 V2000
   -0.7830   26.7890  -27.7780 C   0  0  0  0  0  0  0  0  0  0  0  0
   -1.2630   26.1740  -28.9590 O   0  0  0  0  0  0  0  0  0  0  0  0
   -1.6800   24.8510  -28.9590 C   0  0  0  0  0  0  0  0  0  0  0  0
   -3.0340   24.5550  -29.1150 C   0  0  0  0  0  0  0  0  0  0  0  0
   -3.4870   23.2530  -29.1210 C   0  0  0  0  0  0  0  0  0  0  0  0
   -4.9610   22.9400  -29.2900 C   0  0  0  0  0  0  0  0  0  0  0  0
   -5.4080   23.2060  -30.6860 C   0  0  0  0  0  0  0  0  0  0  0  0
   -6.4960   22.3690  -31.1930 C   0  0  0  0  0  0  0  0  0  0  0  0
   -7.8280   22.5910  -30.8050 C   0  0  0  0  0  0  0  0  0  0  0  0
   -8.8750   21.8810  -31.2860 C   0  0  0  0  0  0  0  0  0  0  0  0
   -8.6830   20.8750  -32.2070 C   0  0  0  0  0  0  0  0  0  0  0  0
   -7.4050   20.6210  -32.6140 C   0  0  0  0  0  0  0  0  0  0  0  0
   -7.1950   19.6350  -33.5030 N   0  0  0  0  0  0  0  0  0  0  0  0
   -5.9690   19.3080  -33.9450 C   0  0  0  0  0  0  0  0  0  0  0  0
   -5.7930   18.3640  -34.7920 N   0  0  0  0  0  0  0  0  0  0  0  0
   -4.9390   20.0260  -33.4510 N   0  0  0  0  0  0  0  0  0  0  0  0
   -5.0910   21.0220  -32.5640 C   0  0  0  0  0  0  0  0  0  0  0  0
   -4.0300   21.6160  -32.1500 N   0  0  0  0  0  0  0  0  0  0  0  0
   -6.3370   21.3490  -32.1200 C   0  0  0  0  0  0  0  0  0  0  0  0
   -2.5580   22.2460  -28.9680 C   0  0  0  0  0  0  0  0  0  0  0  0
   -1.2340   22.5190  -28.8160 C   0  0  0  0  0  0  0  0  0  0  0  0
   -0.2600   21.5440  -28.6590 O   0  0  0  0  0  0  0  0  0  0  0  0
   -0.5740   20.2690  -28.1490 C   0  0  0  0  0  0  0  0  0  0  0  0
   -0.7820   23.8370  -28.8100 C   0  0  0  0  0  0  0  0  0  0  0  0
    0.5710   24.1180  -28.6550 O   0  0  0  0  0  0  0  0  0  0  0  0
    1.2410   23.9210  -27.4240 C   0  0  0  0  0  0  0  0  0  0  0  0
   -1.1911   26.2662  -26.9004 H   0  0  0  0  0  0  0  0  0  0  0  0
    0.3156   26.7368  -27.7579 H   0  0  0  0  0  0  0  0  0  0  0  0
   -1.1005   27.8420  -27.7579 H   0  0  0  0  0  0  0  0  0  0  0  0
   -3.7549   25.3770  -29.2357 H   0  0  0  0  0  0  0  0  0  0  0  0
   -5.1327   21.8795  -29.0535 H   0  0  0  0  0  0  0  0  0  0  0  0
   -5.5360   23.5853  -28.6096 H   0  0  0  0  0  0  0  0  0  0  0  0
   -5.7403   24.2534  -30.7368 H   0  0  0  0  0  0  0  0  0  0  0  0
   -4.5401   22.9713  -31.3197 H   0  0  0  0  0  0  0  0  0  0  0  0
   -8.0308   23.3846  -30.0708 H   0  0  0  0  0  0  0  0  0  0  0  0
   -9.8926   22.1103  -30.9369 H   0  0  0  0  0  0  0  0  0  0  0  0
   -9.5309   20.2958  -32.6013 H   0  0  0  0  0  0  0  0  0  0  0  0
   -7.9890   19.0630  -33.8970 H   0  0  0  0  0  0  0  0  0  0  0  0
   -4.8700   18.0700  -35.1650 H   0  0  0  0  0  0  0  0  0  0  0  0
   -3.9870   19.7500  -33.8150 H   0  0  0  0  0  0  0  0  0  0  0  0
   -3.1150   21.2980  -32.5190 H   0  0  0  0  0  0  0  0  0  0  0  0
   -2.8947   21.1988  -28.9688 H   0  0  0  0  0  0  0  0  0  0  0  0
   -0.5659   20.3017  -27.0495 H   0  0  0  0  0  0  0  0  0  0  0  0
   -1.5727   19.9696  -28.4996 H   0  0  0  0  0  0  0  0  0  0  0  0
    0.1715   19.5401  -28.4996 H   0  0  0  0  0  0  0  0  0  0  0  0
    0.5492   24.1244  -26.5933 H   0  0  0  0  0  0  0  0  0  0  0  0
    1.5939   22.8811  -27.3609 H   0  0  0  0  0  0  0  0  0  0  0  0
    2.1006   24.6044  -27.3609 H   0  0  0  0  0  0  0  0  0  0  0  0
  1  2  1  0
  2  3  1  0
  3  4  2  0
  4  5  1  0
  5  6  1  0
  6  7  1  0
  7  8  1  0
  8  9  2  0
  9 10  1  0
 10 11  2  0
 11 12  1  0
 12 13  1  0
 13 14  1  0
 14 15  2  3
 14 16  1  0
 16 17  1  0
 17 18  2  3
 17 19  1  0
  5 20  2  0
 20 21  1  0
 21 22  1  0
 22 23  1  0
 21 24  2  0
 24 25  1  0
 25 26  1  0
 24  3  1  0
 19  8  1  0
 19 12  2  0
  1 27  1  0
  1 28  1  0
  1 29  1  0
  4 30  1  0
  6 31  1  0
  6 32  1  0
  7 33  1  0
  7 34  1  0
  9 35  1  0
 10 36  1  0
 11 37  1  0
 13 38  1  0
 15 39  1  0
 16 40  1  0
 18 41  1  0
 20 42  1  0
 23 43  1  0
 23 44  1  0
 23 45  1  0
 26 46  1  0
 26 47  1  0
 26 48  1  0
M  END
>  <smiles>  (24) 
COc1cc(CCc2cccc3[nH]c(=N)[nH]c(=N)c23)cc(OC)c1OC

>  <score_type>  (24) 
oracle

>  <origin>  (24) 
adgpu

>  <m_score__min__energy>  (24) 
-7.9299999999999997

>  <m_primary>  (24) 
energy

$$$$
24:0
     RDKit          3D

 45 48  0  0  0  0  0  0  0  0999 V2000
   -3.6530   23.3540  -27.5170 O   0  0  0  0  0  0  0  0  0  0  0  0
   -2.6600   23.9230  -28.0460 C   0  0  0  0  0  0  0  0  0  0  0  0
   -2.2230   23.5440  -29.3640 N   0  0  0  0  0  0  0  0  0  0  0  0
   -2.8660   22.5420  -30.1690 C   0  0  0  0  0  0  0  0  0  0  0  0
   -3.2330   22.8520  -31.4860 C   0  0  0  0  0  0  0  0  0  0  0  0
   -3.8840   21.9050  -32.2830 C   0  0  0  0  0  0  0  0  0  0  0  0
   -4.1850   20.6380  -31.7680 C   0  0  0  0  0  0  0  0  0  0  0  0
   -5.0380   19.4570  -32.7570 S   0  0  0  0  0  0  0  0  0  0  0  0
   -4.5610   18.0750  -32.4060 O   0  0  0  0  0  0  0  0  0  0  0  0
   -4.7520   19.7210  -34.2090 O   0  0  0  0  0  0  0  0  0  0  0  0
   -6.7430   19.5750  -32.4680 N   0  0  0  0  0  0  0  0  0  0  0  0
   -7.6490   18.4350  -32.3520 C   0  0  0  0  0  0  0  0  0  0  0  0
   -9.0550   19.0380  -32.1080 C   0  0  0  0  0  0  0  0  0  0  0  0
   -8.8070   20.5080  -32.1100 C   0  0  0  0  0  0  0  0  0  0  0  0
   -9.7290   21.5400  -31.9300 C   0  0  0  0  0  0  0  0  0  0  0  0
   -9.2680   22.8660  -31.9670 C   0  0  0  0  0  0  0  0  0  0  0  0
   -7.9020   23.1360  -32.1800 C   0  0  0  0  0  0  0  0  0  0  0  0
   -6.9920   22.0800  -32.3570 C   0  0  0  0  0  0  0  0  0  0  0  0
   -7.4800   20.7710  -32.3170 C   0  0  0  0  0  0  0  0  0  0  0  0
   -3.8500   20.3340  -30.4420 C   0  0  0  0  0  0  0  0  0  0  0  0
   -3.1990   21.2810  -29.6440 C   0  0  0  0  0  0  0  0  0  0  0  0
   -1.9600   24.9860  -27.2940 C   0  0  0  0  0  0  0  0  0  0  0  0
   -1.9350   24.9290  -25.8890 C   0  0  0  0  0  0  0  0  0  0  0  0
   -1.2880   25.9240  -25.1500 C   0  0  0  0  0  0  0  0  0  0  0  0
   -0.6530   26.9800  -25.8070 C   0  0  0  0  0  0  0  0  0  0  0  0
   -0.6520   27.0360  -27.2020 C   0  0  0  0  0  0  0  0  0  0  0  0
   -1.2920   26.0420  -27.9490 C   0  0  0  0  0  0  0  0  0  0  0  0
   -1.2280   26.0970  -29.3370 O   0  0  0  0  0  0  0  0  0  0  0  0
   -1.3570   23.9820  -29.7490 H   0  0  0  0  0  0  0  0  0  0  0  0
   -3.0072   23.8476  -31.8956 H   0  0  0  0  0  0  0  0  0  0  0  0
   -4.1605   22.1561  -33.3176 H   0  0  0  0  0  0  0  0  0  0  0  0
   -7.6413   17.8435  -33.2794 H   0  0  0  0  0  0  0  0  0  0  0  0
   -7.3498   17.7609  -31.5359 H   0  0  0  0  0  0  0  0  0  0  0  0
   -9.7494   18.7551  -32.9128 H   0  0  0  0  0  0  0  0  0  0  0  0
   -9.5183   18.6824  -31.1758 H   0  0  0  0  0  0  0  0  0  0  0  0
  -10.7936   21.3196  -31.7628 H   0  0  0  0  0  0  0  0  0  0  0  0
   -9.9760   23.6965  -31.8292 H   0  0  0  0  0  0  0  0  0  0  0  0
   -7.5466   24.1766  -32.2079 H   0  0  0  0  0  0  0  0  0  0  0  0
   -5.9228   22.2786  -32.5228 H   0  0  0  0  0  0  0  0  0  0  0  0
   -4.0999   19.3466  -30.0266 H   0  0  0  0  0  0  0  0  0  0  0  0
   -2.9466   21.0379  -28.6013 H   0  0  0  0  0  0  0  0  0  0  0  0
   -2.4282   24.0954  -25.3676 H   0  0  0  0  0  0  0  0  0  0  0  0
   -1.2792   25.8750  -24.0511 H   0  0  0  0  0  0  0  0  0  0  0  0
   -0.1532   27.7683  -25.2250 H   0  0  0  0  0  0  0  0  0  0  0  0
   -0.1453   27.8661  -27.7161 H   0  0  0  0  0  0  0  0  0  0  0  0
  1  2  2  0
  2  3  1  0
  3  4  1  0
  4  5  2  0
  5  6  1  0
  6  7  2  0
  7  8  1  0
  8  9  2  0
  8 10  2  0
  8 11  1  0
 11 12  1  0
 12 13  1  0
 13 14  1  0
 14 15  2  0
 15 16  1  0
 16 17  2  0
 17 18  1  0
 18 19  2  0
  7 20  1  0
 20 21  2  0
  2 22  1  0
 22 23  2  0
 23 24  1  0
 24 25  2  0
 25 26  1  0
 26 27  2  0
 27 28  1  0
 21  4  1  0
 27 22  1  0
 19 11  1  0
 19 14  1  0
  3 29  1  0
  5 30  1  0
  6 31  1  0
 12 32  1  0
 12 33  1  0
 13 34  1  0
 13 35  1  0
 15 36  1  0
 16 37  1  0
 17 38  1  0
 18 39  1  0
 20 40  1  0
 21 41  1  0
 23 42  1  0
 24 43  1  0
 25 44  1  0
 26 45  1  0
M  CHG  1  28  -1
M  END
>  <UniqueID>  (25) 
24

>  <SMILES>  (25) 
O=C(Nc1ccc(S(=O)(=O)N2CCc3ccccc32)cc1)c1ccccc1[O-]

>  <Energy>  (25) 
74.31588372878976

>  <Genealogy>  (25) 
O=C(Nc1ccc(S(=O)(=O)N2CCc3ccccc32)cc1)c1ccccc1[O-] (protonated)
O=C(Nc1ccc(S(=O)(=O)N2CCc3ccccc32)cc1)c1ccccc1[O-] (3D coordinates assigned)
O=C(Nc1ccc(S(=O)(=O)N2CCc3ccccc32)cc1)c1ccccc1[O-] (nonaromatic ring conformer: 74.31588372878976 kcal/mol)

>  <smiles>  (25) 
O=C(Nc1ccc(S(=O)(=O)N2CCc3ccccc32)cc1)c1ccccc1O

>  <score_type>  (25) 
oracle

>  <origin>  (25) 
adgpu

>  <m_score__min__energy>  (25) 
-12.699999999999999

>  <m_primary>  (25) 
energy

$$$$
25:0
     RDKit          3D

 56 59  0  0  0  0  0  0  0  0999 V2000
   -1.3760   21.2050  -32.4040 C   0  0  0  0  0  0  0  0  0  0  0  0
   -2.6420   21.7810  -31.8390 C   0  0  0  0  0  0  0  0  0  0  0  0
   -2.7600   22.6320  -30.7450 C   0  0  0  0  0  0  0  0  0  0  0  0
   -1.7270   23.2140  -29.9400 N   0  0  0  0  0  0  0  0  0  0  0  0
   -1.9370   24.2610  -28.9870 C   0  0  0  0  0  0  0  0  0  0  0  0
   -2.5870   25.2900  -29.3200 O   0  0  0  0  0  0  0  0  0  0  0  0
   -1.4210   24.1260  -27.6040 C   0  0  0  0  0  0  0  0  0  0  0  0
   -1.1050   22.8600  -27.0790 C   0  0  0  0  0  0  0  0  0  0  0  0
   -0.6030   22.7380  -25.7810 C   0  0  0  0  0  0  0  0  0  0  0  0
   -0.4090   23.8730  -24.9930 C   0  0  0  0  0  0  0  0  0  0  0  0
   -0.7240   25.1410  -25.4980 C   0  0  0  0  0  0  0  0  0  0  0  0
   -0.4640   26.5880  -24.5250 S   0  0  0  0  0  0  0  0  0  0  0  0
   -1.6050   26.7630  -23.5610 O   0  0  0  0  0  0  0  0  0  0  0  0
   -0.4260   27.7780  -25.4450 O   0  0  0  0  0  0  0  0  0  0  0  0
    1.0570   26.4440  -23.6640 N   0  0  0  0  0  0  0  0  0  0  0  0
    2.1180   25.8940  -24.5290 C   0  0  0  0  0  0  0  0  0  0  0  0
    2.6270   26.9260  -25.5650 C   0  0  0  0  0  0  0  0  0  0  0  0
    2.2870   28.2640  -25.2460 O   0  0  0  0  0  0  0  0  0  0  0  0
    2.4880   28.5040  -23.8720 C   0  0  0  0  0  0  0  0  0  0  0  0
    1.4560   27.7280  -23.0340 C   0  0  0  0  0  0  0  0  0  0  0  0
   -1.2270   25.2640  -26.8000 C   0  0  0  0  0  0  0  0  0  0  0  0
   -4.1110   22.7780  -30.5470 C   0  0  0  0  0  0  0  0  0  0  0  0
   -4.6500   23.4760  -29.6470 O   0  0  0  0  0  0  0  0  0  0  0  0
   -4.7820   22.0870  -31.4890 N   0  0  0  0  0  0  0  0  0  0  0  0
   -6.2140   22.0350  -31.6320 C   0  0  0  0  0  0  0  0  0  0  0  0
   -6.8840   20.8000  -31.6410 C   0  0  0  0  0  0  0  0  0  0  0  0
   -8.2730   20.7540  -31.7920 C   0  0  0  0  0  0  0  0  0  0  0  0
   -9.0010   21.9380  -31.9440 C   0  0  0  0  0  0  0  0  0  0  0  0
   -8.3400   23.1690  -31.9490 C   0  0  0  0  0  0  0  0  0  0  0  0
   -6.9510   23.2190  -31.7970 C   0  0  0  0  0  0  0  0  0  0  0  0
   -3.8940   21.4700  -32.2680 N   0  0  0  0  0  0  0  0  0  0  0  0
   -4.2240   20.6030  -33.4040 C   0  0  0  0  0  0  0  0  0  0  0  0
   -0.7115   20.9027  -31.5812 H   0  0  0  0  0  0  0  0  0  0  0  0
   -1.6164   20.3276  -33.0224 H   0  0  0  0  0  0  0  0  0  0  0  0
   -0.8725   21.9626  -33.0224 H   0  0  0  0  0  0  0  0  0  0  0  0
   -1.2540   21.9604  -27.6942 H   0  0  0  0  0  0  0  0  0  0  0  0
   -0.3598   21.7435  -25.3787 H   0  0  0  0  0  0  0  0  0  0  0  0
   -0.0081   23.7719  -23.9737 H   0  0  0  0  0  0  0  0  0  0  0  0
    0.8890   25.7490  -22.8970 H   0  0  0  0  0  0  0  0  0  0  0  0
    2.9625   25.5812  -23.8973 H   0  0  0  0  0  0  0  0  0  0  0  0
    1.6931   25.0437  -25.0826 H   0  0  0  0  0  0  0  0  0  0  0  0
    3.7228   26.8498  -25.6225 H   0  0  0  0  0  0  0  0  0  0  0  0
    2.1407   26.6888  -26.5227 H   0  0  0  0  0  0  0  0  0  0  0  0
    3.5007   28.1785  -23.5917 H   0  0  0  0  0  0  0  0  0  0  0  0
    2.3688   29.5800  -23.6770 H   0  0  0  0  0  0  0  0  0  0  0  0
    1.8923   27.5153  -22.0469 H   0  0  0  0  0  0  0  0  0  0  0  0
    0.5547   28.3534  -22.9535 H   0  0  0  0  0  0  0  0  0  0  0  0
   -1.4725   26.2599  -27.1973 H   0  0  0  0  0  0  0  0  0  0  0  0
   -6.3136   19.8661  -31.5288 H   0  0  0  0  0  0  0  0  0  0  0  0
   -8.7939   19.7851  -31.7912 H   0  0  0  0  0  0  0  0  0  0  0  0
  -10.0943   21.9004  -32.0597 H   0  0  0  0  0  0  0  0  0  0  0  0
   -8.9130   24.0998  -32.0727 H   0  0  0  0  0  0  0  0  0  0  0  0
   -6.4334   24.1896  -31.8067 H   0  0  0  0  0  0  0  0  0  0  0  0
   -4.5922   19.6355  -33.0320 H   0  0  0  0  0  0  0  0  0  0  0  0
   -5.0030   21.0811  -34.0160 H   0  0  0  0  0  0  0  0  0  0  0  0
   -3.3242   20.4421  -34.0160 H   0  0  0  0  0  0  0  0  0  0  0  0
  1  2  1  0
  2  3  2  0
  3  4  1  0
  4  5  1  0
  5  6  2  0
  5  7  1  0
  7  8  2  0
  8  9  1  0
  9 10  2  0
 10 11  1  0
 11 12  1  0
 12 13  2  0
 12 14  2  0
 12 15  1  0
 15 16  1  0
 16 17  1  0
 17 18  1  0
 18 19  1  0
 19 20  1  0
 11 21  2  0
  3 22  1  0
 22 23  2  0
 22 24  1  0
 24 25  1  0
 25 26  2  0
 26 27  1  0
 27 28  2  0
 28 29  1  0
 29 30  2  0
 24 31  1  0
 31 32  1  0
 31  2  1  0
 21  7  1  0
 30 25  1  0
 20 15  1  0
  1 33  1  0
  1 34  1  0
  1 35  1  0
  8 36  1  0
  9 37  1  0
 10 38  1  0
 15 39  1  0
 16 40  1  0
 16 41  1  0
 17 42  1  0
 17 43  1  0
 19 44  1  0
 19 45  1  0
 20 46  1  0
 20 47  1  0
 21 48  1  0
 26 49  1  0
 27 50  1  0
 28 51  1  0
 29 52  1  0
 30 53  1  0
 32 54  1  0
 32 55  1  0
 32 56  1  0
M  CHG  2   4  -1  15   1
M  END
>  <UniqueID>  (26) 
25

>  <SMILES>  (26) 
Cc1c([N-]C(=O)c2cccc(S(=O)(=O)[NH+]3CCOCC3)c2)c(=O)n(-c2ccccc2)n1C

>  <Energy>  (26) 
116.98606312123512

>  <Genealogy>  (26) 
Cc1c([N-]C(=O)c2cccc(S(=O)(=O)[NH+]3CCOCC3)c2)c(=O)n(-c2ccccc2)n1C (protonated)
Cc1c([N-]C(=O)c2cccc(S(=O)(=O)[NH+]3CCOCC3)c2)c(=O)n(-c2ccccc2)n1C (3D coordinates assigned)
Cc1c([N-]C(=O)c2cccc(S(=O)(=O)[NH+]3CCOCC3)c2)c(=O)n(-c2ccccc2)n1C (nonaromatic ring conformer: 116.98606312123512 kcal/mol)

>  <smiles>  (26) 
Cc1c(NC(=O)c2cccc(S(=O)(=O)N3CCOCC3)c2)c(=O)n(-c2ccccc2)n1C

>  <score_type>  (26) 
oracle

>  <origin>  (26) 
adgpu

>  <m_score__min__energy>  (26) 
-11.300000000000001

>  <m_primary>  (26) 
energy

$$$$
26:0
     RDKit          3D

 49 52  0  0  0  0  0  0  0  0999 V2000
   -5.3970   24.3540  -31.6820 O   0  0  0  0  0  0  0  0  0  0  0  0
   -4.6470   23.3470  -31.5940 C   0  0  0  0  0  0  0  0  0  0  0  0
   -3.3730   23.4940  -31.0620 O   0  0  0  0  0  0  0  0  0  0  0  0
   -5.0920   22.0310  -32.1000 C   0  0  0  0  0  0  0  0  0  0  0  0
   -4.2400   21.3100  -32.9670 C   0  0  0  0  0  0  0  0  0  0  0  0
   -2.9730   21.8750  -33.3430 N   0  0  0  0  0  0  0  0  0  0  0  0
   -1.5190   20.9750  -33.6330 S   0  0  0  0  0  0  0  0  0  0  0  0
   -1.8080   19.8680  -34.6070 O   0  0  0  0  0  0  0  0  0  0  0  0
   -0.4800   21.8900  -34.2210 O   0  0  0  0  0  0  0  0  0  0  0  0
   -0.9500   20.2670  -32.1240 C   0  0  0  0  0  0  0  0  0  0  0  0
   -0.4660   18.9530  -32.0920 C   0  0  0  0  0  0  0  0  0  0  0  0
    0.0210   18.4140  -30.8980 C   0  0  0  0  0  0  0  0  0  0  0  0
    0.0210   19.1830  -29.7310 C   0  0  0  0  0  0  0  0  0  0  0  0
   -0.4860   20.4960  -29.7470 C   0  0  0  0  0  0  0  0  0  0  0  0
   -0.4850   21.3090  -28.6030 O   0  0  0  0  0  0  0  0  0  0  0  0
   -1.2440   22.4770  -28.4320 C   0  0  0  0  0  0  0  0  0  0  0  0
   -2.4050   22.4140  -27.6520 C   0  0  0  0  0  0  0  0  0  0  0  0
   -3.1860   23.5560  -27.4520 C   0  0  0  0  0  0  0  0  0  0  0  0
   -2.8010   24.7750  -28.0190 C   0  0  0  0  0  0  0  0  0  0  0  0
   -1.6320   24.8530  -28.7830 C   0  0  0  0  0  0  0  0  0  0  0  0
   -1.2500   26.0660  -29.3460 O   0  0  0  0  0  0  0  0  0  0  0  0
   -0.8490   23.7110  -28.9830 C   0  0  0  0  0  0  0  0  0  0  0  0
   -0.9570   21.0330  -30.9500 C   0  0  0  0  0  0  0  0  0  0  0  0
   -4.6550   20.0660  -33.4720 C   0  0  0  0  0  0  0  0  0  0  0  0
   -5.9050   19.5480  -33.1460 C   0  0  0  0  0  0  0  0  0  0  0  0
   -6.7640   20.2590  -32.3040 C   0  0  0  0  0  0  0  0  0  0  0  0
   -6.3630   21.4940  -31.7600 C   0  0  0  0  0  0  0  0  0  0  0  0
   -7.2940   22.1190  -30.7390 C   0  0  0  0  0  0  0  0  0  0  0  0
   -8.7480   22.1110  -31.2430 C   0  0  0  0  0  0  0  0  0  0  0  0
   -9.1780   20.7950  -31.9400 C   0  0  0  0  0  0  0  0  0  0  0  0
   -8.1050   19.6930  -31.9170 C   0  0  0  0  0  0  0  0  0  0  0  0
   -0.4692   18.3442  -33.0082 H   0  0  0  0  0  0  0  0  0  0  0  0
    0.4047   17.3833  -30.8767 H   0  0  0  0  0  0  0  0  0  0  0  0
    0.4187   18.7606  -28.7965 H   0  0  0  0  0  0  0  0  0  0  0  0
   -2.7045   21.4599  -27.1937 H   0  0  0  0  0  0  0  0  0  0  0  0
   -4.1037   23.4958  -26.8485 H   0  0  0  0  0  0  0  0  0  0  0  0
   -3.4176   25.6727  -27.8641 H   0  0  0  0  0  0  0  0  0  0  0  0
    0.0775   23.7773  -29.5722 H   0  0  0  0  0  0  0  0  0  0  0  0
   -1.3361   22.0653  -30.9748 H   0  0  0  0  0  0  0  0  0  0  0  0
   -3.9848   19.4956  -34.1319 H   0  0  0  0  0  0  0  0  0  0  0  0
   -6.2179   18.5751  -33.5528 H   0  0  0  0  0  0  0  0  0  0  0  0
   -7.2350   21.5477  -29.8008 H   0  0  0  0  0  0  0  0  0  0  0  0
   -6.9852   23.1619  -30.5744 H   0  0  0  0  0  0  0  0  0  0  0  0
   -9.4115   22.2764  -30.3814 H   0  0  0  0  0  0  0  0  0  0  0  0
   -8.8216   22.9054  -32.0004 H   0  0  0  0  0  0  0  0  0  0  0  0
  -10.0764   20.4131  -31.4331 H   0  0  0  0  0  0  0  0  0  0  0  0
   -9.3587   21.0400  -32.9970 H   0  0  0  0  0  0  0  0  0  0  0  0
   -8.0413   19.2700  -30.9036 H   0  0  0  0  0  0  0  0  0  0  0  0
   -8.3829   18.9088  -32.6366 H   0  0  0  0  0  0  0  0  0  0  0  0
  1  2  2  0
  2  3  1  0
  2  4  1  0
  4  5  2  0
  5  6  1  0
  6  7  1  0
  7  8  2  0
  7  9  2  0
  7 10  1  0
 10 11  2  0
 11 12  1  0
 12 13  2  0
 13 14  1  0
 14 15  1  0
 15 16  1  0
 16 17  2  0
 17 18  1  0
 18 19  2  0
 19 20  1  0
 20 21  1  0
 20 22  2  0
 14 23  2  0
  5 24  1  0
 24 25  2  0
 25 26  1  0
 26 27  2  0
 27 28  1  0
 28 29  1  0
 29 30  1  0
 30 31  1  0
 27  4  1  0
 23 10  1  0
 31 26  1  0
 22 16  1  0
 11 32  1  0
 12 33  1  0
 13 34  1  0
 17 35  1  0
 18 36  1  0
 19 37  1  0
 22 38  1  0
 23 39  1  0
 24 40  1  0
 25 41  1  0
 28 42  1  0
 28 43  1  0
 29 44  1  0
 29 45  1  0
 30 46  1  0
 30 47  1  0
 31 48  1  0
 31 49  1  0
M  CHG  3   3  -1   6  -1  21  -1
M  END
>  <UniqueID>  (27) 
26

>  <SMILES>  (27) 
O=C([O-])c1c([N-]S(=O)(=O)c2cccc(Oc3cccc([O-])c3)c2)ccc2c1CCCC2

>  <Energy>  (27) 
75.9182485026726

>  <Genealogy>  (27) 
O=C([O-])c1c([N-]S(=O)(=O)c2cccc(Oc3cccc([O-])c3)c2)ccc2c1CCCC2 (protonated)
O=C([O-])c1c([N-]S(=O)(=O)c2cccc(Oc3cccc([O-])c3)c2)ccc2c1CCCC2 (3D coordinates assigned)
O=C([O-])c1c([N-]S(=O)(=O)c2cccc(Oc3cccc([O-])c3)c2)ccc2c1CCCC2 (nonaromatic ring conformer: 75.9182485026726 kcal/mol)

>  <smiles>  (27) 
O=C(O)c1c(NS(=O)(=O)c2cccc(Oc3cccc(O)c3)c2)ccc2c1CCCC2

>  <score_type>  (27) 
oracle

>  <origin>  (27) 
adgpu

>  <m_score__min__energy>  (27) 
-13.390000000000001

>  <m_primary>  (27) 
energy

$$$$
27:0
     RDKit          3D

 57 60  0  0  0  0  0  0  0  0999 V2000
   -3.0670   22.2750  -32.6270 O   0  0  0  0  0  0  0  0  0  0  0  0
   -3.2700   22.9860  -31.6090 C   0  0  0  0  0  0  0  0  0  0  0  0
   -2.1870   23.3330  -30.7340 N   0  0  0  0  0  0  0  0  0  0  0  0
   -2.0050   23.0290  -29.3420 C   0  0  0  0  0  0  0  0  0  0  0  0
   -1.8980   21.7070  -28.8640 C   0  0  0  0  0  0  0  0  0  0  0  0
   -1.7170   21.4560  -27.4950 C   0  0  0  0  0  0  0  0  0  0  0  0
   -1.6350   19.7920  -26.8960 S   0  0  0  0  0  0  0  0  0  0  0  0
   -2.8640   19.0510  -27.3400 O   0  0  0  0  0  0  0  0  0  0  0  0
   -1.6280   19.8180  -25.3910 O   0  0  0  0  0  0  0  0  0  0  0  0
   -0.2190   18.9320  -27.4480 N   0  0  0  0  0  0  0  0  0  0  0  0
   -0.0790   18.9690  -28.9010 C   0  0  0  0  0  0  0  0  0  0  0  0
    0.7630   17.7610  -29.2740 C   0  0  0  0  0  0  0  0  0  0  0  0
    0.5870   16.7830  -28.1220 C   0  0  0  0  0  0  0  0  0  0  0  0
   -0.2660   17.5150  -27.0950 C   0  0  0  0  0  0  0  0  0  0  0  0
   -1.6380   22.5270  -26.6010 C   0  0  0  0  0  0  0  0  0  0  0  0
   -1.7250   23.8410  -27.0660 C   0  0  0  0  0  0  0  0  0  0  0  0
   -1.9010   24.0990  -28.4280 C   0  0  0  0  0  0  0  0  0  0  0  0
   -1.9790   25.4290  -28.8520 O   0  0  0  0  0  0  0  0  0  0  0  0
   -4.6470   23.4390  -31.2790 C   0  0  0  0  0  0  0  0  0  0  0  0
   -5.7350   22.5700  -31.4960 C   0  0  0  0  0  0  0  0  0  0  0  0
   -7.0450   22.9650  -31.2020 C   0  0  0  0  0  0  0  0  0  0  0  0
   -8.3750   21.8500  -31.4910 S   0  0  0  0  0  0  0  0  0  0  0  0
   -8.8160   21.2410  -30.1870 O   0  0  0  0  0  0  0  0  0  0  0  0
   -9.5210   22.6180  -32.0890 O   0  0  0  0  0  0  0  0  0  0  0  0
   -7.8330   20.6000  -32.5920 N   0  0  0  0  0  0  0  0  0  0  0  0
   -6.7240   19.8060  -32.0180 C   0  0  0  0  0  0  0  0  0  0  0  0
   -7.2020   18.4800  -31.3970 C   0  0  0  0  0  0  0  0  0  0  0  0
   -8.5070   18.6180  -30.8790 O   0  0  0  0  0  0  0  0  0  0  0  0
   -9.4390   18.7910  -31.9340 C   0  0  0  0  0  0  0  0  0  0  0  0
   -8.9460   19.7480  -33.0460 C   0  0  0  0  0  0  0  0  0  0  0  0
   -7.2830   24.2440  -30.6890 C   0  0  0  0  0  0  0  0  0  0  0  0
   -6.2160   25.1170  -30.4640 C   0  0  0  0  0  0  0  0  0  0  0  0
   -4.9040   24.7250  -30.7490 C   0  0  0  0  0  0  0  0  0  0  0  0
   -3.8690   25.6190  -30.4930 O   0  0  0  0  0  0  0  0  0  0  0  0
   -1.9569   20.8653  -29.5698 H   0  0  0  0  0  0  0  0  0  0  0  0
   -1.0667   18.9089  -29.3813 H   0  0  0  0  0  0  0  0  0  0  0  0
    0.3912   19.9054  -29.2357 H   0  0  0  0  0  0  0  0  0  0  0  0
    0.4059   17.3173  -30.2150 H   0  0  0  0  0  0  0  0  0  0  0  0
    1.8187   18.0274  -29.4303 H   0  0  0  0  0  0  0  0  0  0  0  0
    0.0768   15.8712  -28.4661 H   0  0  0  0  0  0  0  0  0  0  0  0
    1.5537   16.4693  -27.7011 H   0  0  0  0  0  0  0  0  0  0  0  0
   -1.3026   17.1487  -27.1320 H   0  0  0  0  0  0  0  0  0  0  0  0
    0.1098   17.3474  -26.0749 H   0  0  0  0  0  0  0  0  0  0  0  0
   -1.5067   22.3343  -25.5260 H   0  0  0  0  0  0  0  0  0  0  0  0
   -1.6545   24.6780  -26.3557 H   0  0  0  0  0  0  0  0  0  0  0  0
   -2.2630   25.6840  -29.7880 H   0  0  0  0  0  0  0  0  0  0  0  0
   -5.5516   21.5647  -31.9032 H   0  0  0  0  0  0  0  0  0  0  0  0
   -6.0023   19.5805  -32.8169 H   0  0  0  0  0  0  0  0  0  0  0  0
   -6.2681   20.4038  -31.2150 H   0  0  0  0  0  0  0  0  0  0  0  0
   -7.2004   17.6972  -32.1698 H   0  0  0  0  0  0  0  0  0  0  0  0
   -6.5215   18.2058  -30.5774 H   0  0  0  0  0  0  0  0  0  0  0  0
   -9.6400   17.8081  -32.3851 H   0  0  0  0  0  0  0  0  0  0  0  0
  -10.3413   19.2430  -31.4963 H   0  0  0  0  0  0  0  0  0  0  0  0
   -8.6069   19.1494  -33.9043 H   0  0  0  0  0  0  0  0  0  0  0  0
   -9.7837   20.4049  -33.3230 H   0  0  0  0  0  0  0  0  0  0  0  0
   -8.3111   24.5628  -30.4625 H   0  0  0  0  0  0  0  0  0  0  0  0
   -6.4093   26.1214  -30.0592 H   0  0  0  0  0  0  0  0  0  0  0  0
  1  2  2  0
  2  3  1  0
  3  4  1  0
  4  5  2  0
  5  6  1  0
  6  7  1  0
  7  8  2  0
  7  9  2  0
  7 10  1  0
 10 11  1  0
 11 12  1  0
 12 13  1  0
 13 14  1  0
  6 15  2  0
 15 16  1  0
 16 17  2  0
 17 18  1  0
  2 19  1  0
 19 20  2  0
 20 21  1  0
 21 22  1  0
 22 23  2  0
 22 24  2  0
 22 25  1  0
 25 26  1  0
 26 27  1  0
 27 28  1  0
 28 29  1  0
 29 30  1  0
 21 31  2  0
 31 32  1  0
 32 33  2  0
 33 34  1  0
 17  4  1  0
 33 19  1  0
 14 10  1  0
 30 25  1  0
  5 35  1  0
 11 36  1  0
 11 37  1  0
 12 38  1  0
 12 39  1  0
 13 40  1  0
 13 41  1  0
 14 42  1  0
 14 43  1  0
 15 44  1  0
 16 45  1  0
 18 46  1  0
 20 47  1  0
 26 48  1  0
 26 49  1  0
 27 50  1  0
 27 51  1  0
 29 52  1  0
 29 53  1  0
 30 54  1  0
 30 55  1  0
 31 56  1  0
 32 57  1  0
M  CHG  2   3  -1  34  -1
M  END
>  <UniqueID>  (28) 
27

>  <SMILES>  (28) 
O=C([N-]c1cc(S(=O)(=O)N2CCCC2)ccc1O)c1cc(S(=O)(=O)N2CCOCC2)ccc1[O-]

>  <Energy>  (28) 
78.06541285496637

>  <Genealogy>  (28) 
O=C([N-]c1cc(S(=O)(=O)N2CCCC2)ccc1O)c1cc(S(=O)(=O)N2CCOCC2)ccc1[O-] (protonated)
O=C([N-]c1cc(S(=O)(=O)N2CCCC2)ccc1O)c1cc(S(=O)(=O)N2CCOCC2)ccc1[O-] (3D coordinates assigned)
O=C([N-]c1cc(S(=O)(=O)N2CCCC2)ccc1O)c1cc(S(=O)(=O)N2CCOCC2)ccc1[O-] (nonaromatic ring conformer: 78.06541285496637 kcal/mol)

>  <smiles>  (28) 
O=C(Nc1cc(S(=O)(=O)N2CCCC2)ccc1O)c1cc(S(=O)(=O)N2CCOCC2)ccc1O

>  <score_type>  (28) 
oracle

>  <origin>  (28) 
adgpu

>  <m_score__min__energy>  (28) 
-14.24

>  <m_primary>  (28) 
energy

$$$$
28:0
     RDKit          3D

 54 55  0  0  0  0  0  0  0  0999 V2000
   -7.7250   22.5610  -32.0100 C   0  0  0  0  0  0  0  0  0  0  0  0
   -6.6060   22.8660  -30.9990 C   0  0  0  0  0  0  0  0  0  0  0  0
   -7.1660   23.7440  -29.8690 C   0  0  0  0  0  0  0  0  0  0  0  0
   -5.3960   23.5400  -31.6950 C   0  0  2  0  0  0  0  0  0  0  0  0
   -4.8220   22.6240  -32.6780 N   0  0  0  0  0  0  0  0  0  0  0  0
   -4.5600   21.2400  -32.4250 C   0  0  0  0  0  0  0  0  0  0  0  0
   -4.0780   20.8720  -31.3200 O   0  0  0  0  0  0  0  0  0  0  0  0
   -4.8850   20.2170  -33.4720 C   0  0  0  0  0  0  0  0  0  0  0  0
   -3.8370   19.1840  -33.5300 N   0  0  0  0  0  0  0  0  0  0  0  0
   -4.1930   17.8690  -33.4080 C   0  0  0  0  0  0  0  0  0  0  0  0
   -3.2340   16.8600  -33.4950 C   0  0  0  0  0  0  0  0  0  0  0  0
   -1.9070   17.1940  -33.7430 C   0  0  0  0  0  0  0  0  0  0  0  0
   -0.9500   16.1890  -33.8380 O   0  0  0  0  0  0  0  0  0  0  0  0
   -1.5430   18.5330  -33.9120 C   0  0  0  0  0  0  0  0  0  0  0  0
   -0.1690   18.8480  -34.1790 N   0  0  0  0  0  0  0  0  0  0  0  0
    0.7520   19.4330  -33.2490 C   0  0  0  0  0  0  0  0  0  0  0  0
    1.6900   20.1680  -33.6530 O   0  0  0  0  0  0  0  0  0  0  0  0
    0.6490   19.1380  -31.8530 N   0  0  0  0  0  0  0  0  0  0  0  0
   -0.5960   19.2320  -31.0970 C   0  0  0  0  0  0  0  0  0  0  0  0
   -0.6560   20.5340  -30.3420 C   0  0  0  0  0  0  0  0  0  0  0  0
   -0.9870   21.7210  -31.0140 C   0  0  0  0  0  0  0  0  0  0  0  0
   -1.0120   22.9370  -30.3260 C   0  0  0  0  0  0  0  0  0  0  0  0
   -0.7110   22.9810  -28.9580 C   0  0  0  0  0  0  0  0  0  0  0  0
   -0.7150   24.5130  -28.0920 S   0  0  0  0  0  0  0  0  0  0  0  0
   -1.6310   25.6760  -28.9840 N   0  0  0  0  0  0  0  0  0  0  0  0
   -1.3310   24.3320  -26.7330 O   0  0  0  0  0  0  0  0  0  0  0  0
    0.6940   25.0040  -27.9210 O   0  0  0  0  0  0  0  0  0  0  0  0
   -0.3780   21.7970  -28.2860 C   0  0  0  0  0  0  0  0  0  0  0  0
   -0.3530   20.5810  -28.9720 C   0  0  0  0  0  0  0  0  0  0  0  0
   -2.5290   19.5320  -33.7660 C   0  0  0  0  0  0  0  0  0  0  0  0
   -2.2010   20.7490  -33.8320 O   0  0  0  0  0  0  0  0  0  0  0  0
   -4.3330   23.9230  -30.7010 C   0  0  0  0  0  0  0  0  0  0  0  0
   -3.8290   25.2570  -30.6660 N   0  0  0  0  0  0  0  0  0  0  0  0
   -3.8760   23.0610  -29.9050 O   0  0  0  0  0  0  0  0  0  0  0  0
   -8.6491   22.3091  -31.4692 H   0  0  0  0  0  0  0  0  0  0  0  0
   -7.8991   23.4445  -32.6418 H   0  0  0  0  0  0  0  0  0  0  0  0
   -7.4267   21.7114  -32.6418 H   0  0  0  0  0  0  0  0  0  0  0  0
   -6.2426   21.9224  -30.5660 H   0  0  0  0  0  0  0  0  0  0  0  0
   -6.8895   23.3105  -28.8966 H   0  0  0  0  0  0  0  0  0  0  0  0
   -6.7474   24.7580  -29.9508 H   0  0  0  0  0  0  0  0  0  0  0  0
   -8.2619   23.7920  -29.9508 H   0  0  0  0  0  0  0  0  0  0  0  0
   -5.7567   24.4540  -32.1895 H   0  0  0  0  0  0  0  0  0  0  0  0
   -5.8470   19.7427  -33.2278 H   0  0  0  0  0  0  0  0  0  0  0  0
   -4.9448   20.7170  -34.4500 H   0  0  0  0  0  0  0  0  0  0  0  0
   -5.2473   17.6043  -33.2394 H   0  0  0  0  0  0  0  0  0  0  0  0
   -3.5254   15.8069  -33.3683 H   0  0  0  0  0  0  0  0  0  0  0  0
   -1.4469   19.1767  -31.7920 H   0  0  0  0  0  0  0  0  0  0  0  0
   -0.6399   18.4007  -30.3779 H   0  0  0  0  0  0  0  0  0  0  0  0
   -1.2278   21.6939  -32.0870 H   0  0  0  0  0  0  0  0  0  0  0  0
   -1.2690   23.8635  -30.8604 H   0  0  0  0  0  0  0  0  0  0  0  0
   -1.7690   25.2840  -29.9420 H   0  0  0  0  0  0  0  0  0  0  0  0
   -0.1353   21.8258  -27.2135 H   0  0  0  0  0  0  0  0  0  0  0  0
   -0.0947   19.6556  -28.4364 H   0  0  0  0  0  0  0  0  0  0  0  0
   -3.6050   25.7210  -29.7580 H   0  0  0  0  0  0  0  0  0  0  0  0
  1  2  1  0
  2  3  1  0
  2  4  1  0
  4  5  1  0
  5  6  1  0
  6  7  2  0
  6  8  1  0
  8  9  1  0
  9 10  1  0
 10 11  2  0
 11 12  1  0
 12 13  1  0
 12 14  2  0
 14 15  1  0
 15 16  1  0
 16 17  2  0
 16 18  1  0
 18 19  1  0
 19 20  1  0
 20 21  2  0
 21 22  1  0
 22 23  2  0
 23 24  1  0
 24 25  1  0
 24 26  2  0
 24 27  2  0
 23 28  1  0
 28 29  2  0
 14 30  1  0
 30 31  2  0
  4 32  1  0
 32 33  1  0
 32 34  2  0
 30  9  1  0
 29 20  1  0
  1 35  1  0
  1 36  1  0
  1 37  1  0
  2 38  1  0
  3 39  1  0
  3 40  1  0
  3 41  1  0
  4 42  1  6
  8 43  1  0
  8 44  1  0
 10 45  1  0
 11 46  1  0
 19 47  1  0
 19 48  1  0
 21 49  1  0
 22 50  1  0
 25 51  1  0
 28 52  1  0
 29 53  1  0
 33 54  1  0
M  CHG  6   5  -1  13  -1  15  -1  18  -1  25  -1  33  -1
M  END
>  <UniqueID>  (29) 
28

>  <SMILES>  (29) 
CC(C)[C@H]([N-]C(=O)Cn1ccc([O-])c([N-]C(=O)[N-]Cc2ccc(S([NH-])(=O)=O)cc2)c1=O)C([NH-])=O

>  <Energy>  (29) 
48.986479035590676

>  <Genealogy>  (29) 
CC(C)C([N-]C(=O)Cn1ccc([O-])c([N-]C(=O)[N-]Cc2ccc(S([NH-])(=O)=O)cc2)c1=O)C([NH-])=O (protonated)
CC(C)[C@H]([N-]C(=O)Cn1ccc([O-])c([N-]C(=O)[N-]Cc2ccc(S([NH-])(=O)=O)cc2)c1=O)C([NH-])=O (chirality)
CC(C)[C@H]([N-]C(=O)Cn1ccc([O-])c([N-]C(=O)[N-]Cc2ccc(S([NH-])(=O)=O)cc2)c1=O)C([NH-])=O (3D coordinates assigned)
CC(C)[C@H]([N-]C(=O)Cn1ccc([O-])c([N-]C(=O)[N-]Cc2ccc(S([NH-])(=O)=O)cc2)c1=O)C([NH-])=O (optimized conformer: 48.986479035590676 kcal/mol)

>  <smiles>  (29) 
CC(C)C(NC(=O)Cn1ccc(O)c(NC(=O)NCc2ccc(S(N)(=O)=O)cc2)c1=O)C(N)=O

>  <score_type>  (29) 
oracle

>  <origin>  (29) 
adgpu

>  <m_score__min__energy>  (29) 
-14.02

>  <m_primary>  (29) 
energy

$$$$
29:0
     RDKit          3D

 62 66  0  0  0  0  0  0  0  0999 V2000
   -0.2600   20.7750  -29.1320 C   0  0  0  0  0  0  0  0  0  0  0  0
   -0.9750   22.1030  -29.1100 C   0  0  0  0  0  0  0  0  0  0  0  0
   -0.2410   23.2610  -28.7950 C   0  0  0  0  0  0  0  0  0  0  0  0
   -0.8600   24.5080  -28.7710 C   0  0  0  0  0  0  0  0  0  0  0  0
   -2.2170   24.6220  -29.0650 C   0  0  0  0  0  0  0  0  0  0  0  0
   -2.9770   23.4860  -29.3700 C   0  0  0  0  0  0  0  0  0  0  0  0
   -4.3760   23.6450  -29.6650 N   0  0  0  0  0  0  0  0  0  0  0  0
   -4.8210   24.8630  -30.3430 C   0  0  0  0  0  0  0  0  0  0  0  0
   -6.3580   24.9170  -30.4350 C   0  0  0  0  0  0  0  0  0  0  0  0
   -6.9400   23.6040  -30.7930 N   0  0  0  0  0  0  0  0  0  0  0  0
   -6.6040   23.2630  -32.1650 C   0  0  0  0  0  0  0  0  0  0  0  0
   -7.2370   23.8000  -33.1120 O   0  0  0  0  0  0  0  0  0  0  0  0
   -5.5860   22.2270  -32.4790 C   0  0  0  0  0  0  0  0  0  0  0  0
   -4.2350   22.4510  -32.6840 C   0  0  0  0  0  0  0  0  0  0  0  0
   -3.6820   21.1830  -32.8040 C   0  0  0  0  0  0  0  0  0  0  0  0
   -2.2550   20.8490  -33.0330 C   0  0  0  0  0  0  0  0  0  0  0  0
   -1.9100   19.8370  -33.9490 C   0  0  0  0  0  0  0  0  0  0  0  0
   -0.5680   19.5190  -34.1840 C   0  0  0  0  0  0  0  0  0  0  0  0
    0.4460   20.2030  -33.5080 C   0  0  0  0  0  0  0  0  0  0  0  0
    0.1180   21.2030  -32.5930 C   0  0  0  0  0  0  0  0  0  0  0  0
   -1.2230   21.5280  -32.3550 C   0  0  0  0  0  0  0  0  0  0  0  0
   -4.6530   20.2550  -32.6730 N   0  0  0  0  0  0  0  0  0  0  0  0
   -5.7990   20.8880  -32.4850 N   0  0  0  0  0  0  0  0  0  0  0  0
   -7.0440   20.1960  -32.3210 C   0  0  0  0  0  0  0  0  0  0  0  0
   -7.0530   18.8550  -31.9080 C   0  0  0  0  0  0  0  0  0  0  0  0
   -8.2660   18.1860  -31.7140 C   0  0  0  0  0  0  0  0  0  0  0  0
   -9.4760   18.8450  -31.9560 C   0  0  0  0  0  0  0  0  0  0  0  0
   -9.4720   20.1730  -32.3940 C   0  0  0  0  0  0  0  0  0  0  0  0
   -8.2610   20.8470  -32.5840 C   0  0  0  0  0  0  0  0  0  0  0  0
   -6.5790   22.5130  -29.8380 C   0  0  0  0  0  0  0  0  0  0  0  0
   -5.3510   22.8160  -28.9540 C   0  0  0  0  0  0  0  0  0  0  0  0
   -2.3700   22.2050  -29.3610 C   0  0  0  0  0  0  0  0  0  0  0  0
   -3.1970   20.9820  -29.6820 C   0  0  0  0  0  0  0  0  0  0  0  0
   -0.0790   20.4389  -28.1004 H   0  0  0  0  0  0  0  0  0  0  0  0
   -0.8806   20.0331  -29.6558 H   0  0  0  0  0  0  0  0  0  0  0  0
    0.7010   20.8846  -29.6558 H   0  0  0  0  0  0  0  0  0  0  0  0
    0.8318   23.1806  -28.5655 H   0  0  0  0  0  0  0  0  0  0  0  0
   -0.2760   25.4055  -28.5192 H   0  0  0  0  0  0  0  0  0  0  0  0
   -2.6954   25.6125  -29.0575 H   0  0  0  0  0  0  0  0  0  0  0  0
   -4.4639   25.7382  -29.7804 H   0  0  0  0  0  0  0  0  0  0  0  0
   -4.4098   24.8649  -31.3632 H   0  0  0  0  0  0  0  0  0  0  0  0
   -6.7610   25.2300  -29.4605 H   0  0  0  0  0  0  0  0  0  0  0  0
   -6.6254   25.6334  -31.2257 H   0  0  0  0  0  0  0  0  0  0  0  0
   -7.9810   23.7070  -30.7360 H   0  0  0  0  0  0  0  0  0  0  0  0
   -3.7151   23.4188  -32.7395 H   0  0  0  0  0  0  0  0  0  0  0  0
   -2.7017   19.2921  -34.4840 H   0  0  0  0  0  0  0  0  0  0  0  0
   -0.3101   18.7278  -34.9034 H   0  0  0  0  0  0  0  0  0  0  0  0
    1.5004   19.9532  -33.6972 H   0  0  0  0  0  0  0  0  0  0  0  0
    0.9153   21.7382  -32.0565 H   0  0  0  0  0  0  0  0  0  0  0  0
   -1.4729   22.3195  -31.6332 H   0  0  0  0  0  0  0  0  0  0  0  0
   -6.1029   18.3280  -31.7362 H   0  0  0  0  0  0  0  0  0  0  0  0
   -8.2685   17.1409  -31.3709 H   0  0  0  0  0  0  0  0  0  0  0  0
  -10.4297   18.3190  -31.8019 H   0  0  0  0  0  0  0  0  0  0  0  0
  -10.4236   20.6890  -32.5896 H   0  0  0  0  0  0  0  0  0  0  0  0
   -8.2615   21.8879  -32.9397 H   0  0  0  0  0  0  0  0  0  0  0  0
   -7.4412   22.3345  -29.1787 H   0  0  0  0  0  0  0  0  0  0  0  0
   -6.3158   21.6370  -30.4491 H   0  0  0  0  0  0  0  0  0  0  0  0
   -5.6825   23.3481  -28.0502 H   0  0  0  0  0  0  0  0  0  0  0  0
   -4.8696   21.8629  -28.6896 H   0  0  0  0  0  0  0  0  0  0  0  0
   -3.5211   20.5027  -28.7465 H   0  0  0  0  0  0  0  0  0  0  0  0
   -4.0800   21.2796  -30.2666 H   0  0  0  0  0  0  0  0  0  0  0  0
   -2.5920   20.2734  -30.2666 H   0  0  0  0  0  0  0  0  0  0  0  0
  1  2  1  0
  2  3  2  0
  3  4  1  0
  4  5  2  0
  5  6  1  0
  6  7  1  0
  7  8  1  0
  8  9  1  0
  9 10  1  0
 10 11  1  0
 11 12  2  0
 11 13  1  0
 13 14  2  0
 14 15  1  0
 15 16  1  0
 16 17  2  0
 17 18  1  0
 18 19  2  0
 19 20  1  0
 20 21  2  0
 15 22  2  0
 22 23  1  0
 23 24  1  0
 24 25  2  0
 25 26  1  0
 26 27  2  0
 27 28  1  0
 28 29  2  0
 10 30  1  0
 30 31  1  0
  6 32  2  0
 32 33  1  0
 32  2  1  0
 31  7  1  0
 23 13  1  0
 29 24  1  0
 21 16  1  0
  1 34  1  0
  1 35  1  0
  1 36  1  0
  3 37  1  0
  4 38  1  0
  5 39  1  0
  8 40  1  0
  8 41  1  0
  9 42  1  0
  9 43  1  0
 10 44  1  0
 14 45  1  0
 17 46  1  0
 18 47  1  0
 19 48  1  0
 20 49  1  0
 21 50  1  0
 25 51  1  0
 26 52  1  0
 27 53  1  0
 28 54  1  0
 29 55  1  0
 30 56  1  0
 30 57  1  0
 31 58  1  0
 31 59  1  0
 33 60  1  0
 33 61  1  0
 33 62  1  0
M  CHG  1  10   1
M  END
>  <UniqueID>  (30) 
29

>  <SMILES>  (30) 
Cc1cccc(N2CC[NH+](C(=O)c3cc(-c4ccccc4)nn3-c3ccccc3)CC2)c1C

>  <Energy>  (30) 
122.79870449206093

>  <Genealogy>  (30) 
Cc1cccc(N2CC[NH+](C(=O)c3cc(-c4ccccc4)nn3-c3ccccc3)CC2)c1C (protonated)
Cc1cccc(N2CC[NH+](C(=O)c3cc(-c4ccccc4)nn3-c3ccccc3)CC2)c1C (3D coordinates assigned)
Cc1cccc(N2CC[NH+](C(=O)c3cc(-c4ccccc4)nn3-c3ccccc3)CC2)c1C (nonaromatic ring conformer: 122.79870449206093 kcal/mol)

>  <smiles>  (30) 
Cc1cccc(N2CCN(C(=O)c3cc(-c4ccccc4)nn3-c3ccccc3)CC2)c1C

>  <score_type>  (30) 
oracle

>  <origin>  (30) 
adgpu

>  <m_score__min__energy>  (30) 
-9

>  <m_primary>  (30) 
energy

$$$$
30:0
     RDKit          3D

 32 33  0  0  0  0  0  0  0  0999 V2000
   -9.2480   19.2920  -32.3710 C   0  0  0  0  0  0  0  0  0  0  0  0
   -7.7560   19.3120  -32.5180 C   0  0  0  0  0  0  0  0  0  0  0  0
   -7.0910   20.5090  -32.8270 C   0  0  0  0  0  0  0  0  0  0  0  0
   -5.6970   20.5340  -32.9300 C   0  0  0  0  0  0  0  0  0  0  0  0
   -4.9530   19.3680  -32.7160 C   0  0  0  0  0  0  0  0  0  0  0  0
   -3.1990   19.4030  -32.8670 S   0  0  0  0  0  0  0  0  0  0  0  0
   -2.7200   18.0430  -33.2910 O   0  0  0  0  0  0  0  0  0  0  0  0
   -2.7750   20.4140  -33.8950 O   0  0  0  0  0  0  0  0  0  0  0  0
   -2.4780   19.8090  -31.3430 N   0  0  0  0  0  0  0  0  0  0  0  0
   -2.3410   21.1380  -30.8210 C   0  0  0  0  0  0  0  0  0  0  0  0
   -1.2460   21.4220  -30.0010 C   0  0  0  0  0  0  0  0  0  0  0  0
   -1.0730   22.7000  -29.4690 C   0  0  0  0  0  0  0  0  0  0  0  0
   -1.9900   23.7180  -29.7460 C   0  0  0  0  0  0  0  0  0  0  0  0
   -1.7180   24.9930  -29.2460 O   0  0  0  0  0  0  0  0  0  0  0  0
   -3.1270   23.4380  -30.5440 C   0  0  0  0  0  0  0  0  0  0  0  0
   -4.1880   24.4410  -30.7880 C   0  0  0  0  0  0  0  0  0  0  0  0
   -3.9750   25.6590  -30.5420 O   0  0  0  0  0  0  0  0  0  0  0  0
   -5.4010   24.0700  -31.3560 O   0  0  0  0  0  0  0  0  0  0  0  0
   -3.2760   22.1510  -31.0920 C   0  0  0  0  0  0  0  0  0  0  0  0
   -5.6120   18.1760  -32.3840 C   0  0  0  0  0  0  0  0  0  0  0  0
   -7.0060   18.1500  -32.2800 C   0  0  0  0  0  0  0  0  0  0  0  0
   -9.5112   19.2885  -31.3030 H   0  0  0  0  0  0  0  0  0  0  0  0
   -9.6757   20.1845  -32.8511 H   0  0  0  0  0  0  0  0  0  0  0  0
   -9.6517   18.3884  -32.8511 H   0  0  0  0  0  0  0  0  0  0  0  0
   -7.6690   21.4309  -32.9887 H   0  0  0  0  0  0  0  0  0  0  0  0
   -5.1829   21.4737  -33.1802 H   0  0  0  0  0  0  0  0  0  0  0  0
   -0.5150   20.6322  -29.7732 H   0  0  0  0  0  0  0  0  0  0  0  0
   -0.2061   22.9087  -28.8249 H   0  0  0  0  0  0  0  0  0  0  0  0
   -2.0000   25.8450  -29.7110 H   0  0  0  0  0  0  0  0  0  0  0  0
   -4.1367   21.9347  -31.7419 H   0  0  0  0  0  0  0  0  0  0  0  0
   -5.0311   17.2592  -32.2049 H   0  0  0  0  0  0  0  0  0  0  0  0
   -7.5174   17.2142  -32.0103 H   0  0  0  0  0  0  0  0  0  0  0  0
  1  2  1  0
  2  3  2  0
  3  4  1  0
  4  5  2  0
  5  6  1  0
  6  7  2  0
  6  8  2  0
  6  9  1  0
  9 10  1  0
 10 11  2  0
 11 12  1  0
 12 13  2  0
 13 14  1  0
 13 15  1  0
 15 16  1  0
 16 17  2  0
 16 18  1  0
 15 19  2  0
  5 20  1  0
 20 21  2  0
 21  2  1  0
 19 10  1  0
  1 22  1  0
  1 23  1  0
  1 24  1  0
  3 25  1  0
  4 26  1  0
 11 27  1  0
 12 28  1  0
 14 29  1  0
 19 30  1  0
 20 31  1  0
 21 32  1  0
M  CHG  2   9  -1  18  -1
M  END
>  <UniqueID>  (31) 
30

>  <SMILES>  (31) 
Cc1ccc(S(=O)(=O)[N-]c2ccc(O)c(C(=O)[O-])c2)cc1

>  <Energy>  (31) 
40.277637947562596

>  <Genealogy>  (31) 
Cc1ccc(S(=O)(=O)[N-]c2ccc(O)c(C(=O)[O-])c2)cc1 (protonated)
Cc1ccc(S(=O)(=O)[N-]c2ccc(O)c(C(=O)[O-])c2)cc1 (3D coordinates assigned)
Cc1ccc(S(=O)(=O)[N-]c2ccc(O)c(C(=O)[O-])c2)cc1 (optimized conformer: 40.277637947562596 kcal/mol)

>  <smiles>  (31) 
Cc1ccc(S(=O)(=O)Nc2ccc(O)c(C(=O)O)c2)cc1

>  <score_type>  (31) 
oracle

>  <origin>  (31) 
adgpu

>  <m_score__min__energy>  (31) 
-9.3599999999999994

>  <m_primary>  (31) 
energy

$$$$
31:0
     RDKit          3D

 52 55  0  0  0  0  0  0  0  0999 V2000
   -5.8650   25.3990  -31.3790 O   0  0  0  0  0  0  0  0  0  0  0  0
   -5.1390   24.5070  -30.8680 C   0  0  0  0  0  0  0  0  0  0  0  0
   -3.7320   24.7410  -30.7340 N   0  0  0  0  0  0  0  0  0  0  0  0
   -2.8840   23.9970  -29.8500 C   0  0  0  0  0  0  0  0  0  0  0  0
   -2.9840   22.6050  -29.8310 C   0  0  0  0  0  0  0  0  0  0  0  0
   -2.1000   21.8470  -29.0670 C   0  0  0  0  0  0  0  0  0  0  0  0
   -1.1080   22.4700  -28.3010 C   0  0  0  0  0  0  0  0  0  0  0  0
    0.0430   21.4300  -27.4660 Cl  0  0  0  0  0  0  0  0  0  0  0  0
   -1.0350   23.8810  -28.2510 C   0  0  0  0  0  0  0  0  0  0  0  0
    0.2380   24.7050  -27.3170 S   0  0  0  0  0  0  0  0  0  0  0  0
    0.0570   24.4190  -25.8530 O   0  0  0  0  0  0  0  0  0  0  0  0
    0.1310   26.1930  -27.4980 O   0  0  0  0  0  0  0  0  0  0  0  0
    1.8900   24.1920  -27.8020 C   0  0  0  0  0  0  0  0  0  0  0  0
    2.9140   24.2880  -26.6800 C   0  0  0  0  0  0  0  0  0  0  0  0
    2.9680   25.2660  -27.8410 C   0  0  0  0  0  0  0  0  0  0  0  0
   -1.9440   24.6390  -29.0200 C   0  0  0  0  0  0  0  0  0  0  0  0
   -1.9230   26.0290  -28.9620 O   0  0  0  0  0  0  0  0  0  0  0  0
   -5.7260   23.3030  -30.3470 N   0  0  0  0  0  0  0  0  0  0  0  0
   -6.8450   22.6130  -30.9300 C   0  0  0  0  0  0  0  0  0  0  0  0
   -7.9990   23.2940  -31.3610 C   0  0  0  0  0  0  0  0  0  0  0  0
   -9.0470   22.5930  -31.9660 C   0  0  0  0  0  0  0  0  0  0  0  0
   -8.9480   21.2150  -32.1640 C   0  0  0  0  0  0  0  0  0  0  0  0
   -7.7990   20.5270  -31.7590 C   0  0  0  0  0  0  0  0  0  0  0  0
   -7.6630   18.7870  -32.0240 S   0  0  0  0  0  0  0  0  0  0  0  0
   -9.0340   18.1720  -31.9720 O   0  0  0  0  0  0  0  0  0  0  0  0
   -6.8430   18.1810  -30.9180 O   0  0  0  0  0  0  0  0  0  0  0  0
   -6.9150   18.4140  -33.5640 N   0  0  0  0  0  0  0  0  0  0  0  0
   -6.1310   19.5500  -34.0620 C   0  0  0  0  0  0  0  0  0  0  0  0
   -4.6660   19.3070  -33.7280 C   0  0  0  0  0  0  0  0  0  0  0  0
   -4.5740   17.8580  -33.2910 C   0  0  0  0  0  0  0  0  0  0  0  0
   -5.9790   17.2940  -33.4390 C   0  0  0  0  0  0  0  0  0  0  0  0
   -6.7510   21.2290  -31.1490 C   0  0  0  0  0  0  0  0  0  0  0  0
   -3.7648   22.1042  -30.4223 H   0  0  0  0  0  0  0  0  0  0  0  0
   -2.1821   20.7501  -29.0656 H   0  0  0  0  0  0  0  0  0  0  0  0
    1.5544   23.4253  -28.5158 H   0  0  0  0  0  0  0  0  0  0  0  0
    2.6059   24.6350  -25.6827 H   0  0  0  0  0  0  0  0  0  0  0  0
    3.6278   23.5906  -26.2172 H   0  0  0  0  0  0  0  0  0  0  0  0
    2.6990   26.3210  -27.6842 H   0  0  0  0  0  0  0  0  0  0  0  0
    3.7370   25.5697  -28.5666 H   0  0  0  0  0  0  0  0  0  0  0  0
   -5.2620   22.8700  -29.5160 H   0  0  0  0  0  0  0  0  0  0  0  0
   -8.0769   24.3823  -31.2213 H   0  0  0  0  0  0  0  0  0  0  0  0
   -9.9522   23.1294  -32.2868 H   0  0  0  0  0  0  0  0  0  0  0  0
   -9.7756   20.6684  -32.6398 H   0  0  0  0  0  0  0  0  0  0  0  0
   -6.2540   19.6369  -35.1516 H   0  0  0  0  0  0  0  0  0  0  0  0
   -6.4760   20.4823  -33.5911 H   0  0  0  0  0  0  0  0  0  0  0  0
   -4.0378   19.4800  -34.6142 H   0  0  0  0  0  0  0  0  0  0  0  0
   -4.3128   19.9893  -32.9408 H   0  0  0  0  0  0  0  0  0  0  0  0
   -3.8702   17.3077  -33.9327 H   0  0  0  0  0  0  0  0  0  0  0  0
   -4.2068   17.7678  -32.2580 H   0  0  0  0  0  0  0  0  0  0  0  0
   -6.0331   16.6623  -34.3379 H   0  0  0  0  0  0  0  0  0  0  0  0
   -6.2357   16.6825  -32.5614 H   0  0  0  0  0  0  0  0  0  0  0  0
   -5.8441   20.6898  -30.8380 H   0  0  0  0  0  0  0  0  0  0  0  0
  1  2  2  0
  2  3  1  0
  3  4  1  0
  4  5  2  0
  5  6  1  0
  6  7  2  0
  7  8  1  0
  7  9  1  0
  9 10  1  0
 10 11  2  0
 10 12  2  0
 10 13  1  0
 13 14  1  0
 14 15  1  0
  9 16  2  0
 16 17  1  0
  2 18  1  0
 18 19  1  0
 19 20  2  0
 20 21  1  0
 21 22  2  0
 22 23  1  0
 23 24  1  0
 24 25  2  0
 24 26  2  0
 24 27  1  0
 27 28  1  0
 28 29  1  0
 29 30  1  0
 30 31  1  0
 23 32  2  0
 16  4  1  0
 32 19  1  0
 15 13  1  0
 31 27  1  0
  5 33  1  0
  6 34  1  0
 13 35  1  0
 14 36  1  0
 14 37  1  0
 15 38  1  0
 15 39  1  0
 18 40  1  0
 20 41  1  0
 21 42  1  0
 22 43  1  0
 28 44  1  0
 28 45  1  0
 29 46  1  0
 29 47  1  0
 30 48  1  0
 30 49  1  0
 31 50  1  0
 31 51  1  0
 32 52  1  0
M  CHG  2   3  -1  17  -1
M  END
>  <UniqueID>  (32) 
31

>  <SMILES>  (32) 
O=C([N-]c1ccc(Cl)c(S(=O)(=O)C2CC2)c1[O-])Nc1cccc(S(=O)(=O)N2CCCC2)c1

>  <Energy>  (32) 
328.10654376545443

>  <Genealogy>  (32) 
O=C([N-]c1ccc(Cl)c(S(=O)(=O)C2CC2)c1[O-])Nc1cccc(S(=O)(=O)N2CCCC2)c1 (protonated)
O=C([N-]c1ccc(Cl)c(S(=O)(=O)C2CC2)c1[O-])Nc1cccc(S(=O)(=O)N2CCCC2)c1 (3D coordinates assigned)
O=C([N-]c1ccc(Cl)c(S(=O)(=O)C2CC2)c1[O-])Nc1cccc(S(=O)(=O)N2CCCC2)c1 (nonaromatic ring conformer: 328.10654376545443 kcal/mol)

>  <smiles>  (32) 
O=C(Nc1cccc(S(=O)(=O)N2CCCC2)c1)Nc1ccc(Cl)c(S(=O)(=O)C2CC2)c1O

>  <score_type>  (32) 
oracle

>  <origin>  (32) 
adgpu

>  <m_score__min__energy>  (32) 
-15.34

>  <m_primary>  (32) 
energy

$$$$
32:0
     RDKit          3D

 56 59  0  0  0  0  0  0  0  0999 V2000
   -0.9920   23.7560  -29.9410 O   0  0  0  0  0  0  0  0  0  0  0  0
   -1.6840   22.7960  -30.3750 C   0  0  0  0  0  0  0  0  0  0  0  0
   -1.0410   21.5650  -30.7330 N   0  0  0  0  0  0  0  0  0  0  0  0
   -1.0540   20.9420  -32.0260 C   0  0  0  0  0  0  0  0  0  0  0  0
   -0.3710   21.4910  -33.1250 C   0  0  0  0  0  0  0  0  0  0  0  0
   -0.3870   20.8370  -34.3600 C   0  0  0  0  0  0  0  0  0  0  0  0
   -1.0750   19.6310  -34.5070 C   0  0  0  0  0  0  0  0  0  0  0  0
   -1.7470   19.0660  -33.4140 C   0  0  0  0  0  0  0  0  0  0  0  0
   -2.6350   17.5510  -33.6040 S   0  0  0  0  0  0  0  0  0  0  0  0
   -1.9770   16.4830  -32.7760 O   0  0  0  0  0  0  0  0  0  0  0  0
   -2.5790   17.1220  -35.0440 O   0  0  0  0  0  0  0  0  0  0  0  0
   -4.3100   17.7160  -33.1200 N   0  0  0  0  0  0  0  0  0  0  0  0
   -4.8800   16.4180  -32.7400 C   0  0  0  0  0  0  0  0  0  0  0  0
   -5.7160   15.9210  -33.9040 C   0  0  0  0  0  0  0  0  0  0  0  0
   -6.1470   17.1760  -34.6230 C   0  0  0  0  0  0  0  0  0  0  0  0
   -5.1380   18.2430  -34.2160 C   0  0  0  0  0  0  0  0  0  0  0  0
   -1.7150   19.7170  -32.1720 C   0  0  0  0  0  0  0  0  0  0  0  0
   -3.1520   22.9690  -30.5540 C   0  0  0  0  0  0  0  0  0  0  0  0
   -3.9230   21.8840  -31.0240 C   0  0  0  0  0  0  0  0  0  0  0  0
   -5.3050   22.0130  -31.2160 C   0  0  0  0  0  0  0  0  0  0  0  0
   -6.2520   20.6380  -31.7860 S   0  0  0  0  0  0  0  0  0  0  0  0
   -6.4900   20.7840  -33.2630 O   0  0  0  0  0  0  0  0  0  0  0  0
   -5.4570   19.3800  -31.5730 O   0  0  0  0  0  0  0  0  0  0  0  0
   -7.7920   20.4930  -30.9640 N   0  0  0  0  0  0  0  0  0  0  0  0
   -8.4140   19.1690  -31.1540 C   0  0  0  0  0  0  0  0  0  0  0  0
   -9.1880   19.0480  -32.4890 C   0  0  0  0  0  0  0  0  0  0  0  0
   -9.3510   20.2830  -33.1590 O   0  0  0  0  0  0  0  0  0  0  0  0
   -9.8110   21.2590  -32.2540 C   0  0  0  0  0  0  0  0  0  0  0  0
   -8.7040   21.6220  -31.2500 C   0  0  0  0  0  0  0  0  0  0  0  0
   -5.9290   23.2370  -30.9520 C   0  0  0  0  0  0  0  0  0  0  0  0
   -5.1850   24.3180  -30.4800 C   0  0  0  0  0  0  0  0  0  0  0  0
   -3.8060   24.1950  -30.2750 C   0  0  0  0  0  0  0  0  0  0  0  0
   -3.1090   25.2980  -29.7960 O   0  0  0  0  0  0  0  0  0  0  0  0
    0.1775   22.4378  -33.0127 H   0  0  0  0  0  0  0  0  0  0  0  0
    0.1440   21.2737  -35.2187 H   0  0  0  0  0  0  0  0  0  0  0  0
   -1.0898   19.1230  -35.4826 H   0  0  0  0  0  0  0  0  0  0  0  0
   -4.0722   15.7024  -32.5268 H   0  0  0  0  0  0  0  0  0  0  0  0
   -5.4999   16.5197  -31.8370 H   0  0  0  0  0  0  0  0  0  0  0  0
   -5.1169   15.2794  -34.5669 H   0  0  0  0  0  0  0  0  0  0  0  0
   -6.5715   15.3129  -33.5749 H   0  0  0  0  0  0  0  0  0  0  0  0
   -6.1260   17.0220  -35.7120 H   0  0  0  0  0  0  0  0  0  0  0  0
   -7.1755   17.4647  -34.3608 H   0  0  0  0  0  0  0  0  0  0  0  0
   -4.4985   18.4945  -35.0750 H   0  0  0  0  0  0  0  0  0  0  0  0
   -5.6649   19.1500  -33.8848 H   0  0  0  0  0  0  0  0  0  0  0  0
   -2.2141   19.2605  -31.3046 H   0  0  0  0  0  0  0  0  0  0  0  0
   -3.4322   20.9241  -31.2425 H   0  0  0  0  0  0  0  0  0  0  0  0
   -7.6229   18.4049  -31.1374 H   0  0  0  0  0  0  0  0  0  0  0  0
   -9.1400   19.0277  -30.3398 H   0  0  0  0  0  0  0  0  0  0  0  0
   -8.6372   18.3629  -33.1502 H   0  0  0  0  0  0  0  0  0  0  0  0
  -10.1942   18.6748  -32.2477 H   0  0  0  0  0  0  0  0  0  0  0  0
  -10.1048   22.1606  -32.8114 H   0  0  0  0  0  0  0  0  0  0  0  0
  -10.6746   20.8572  -31.7037 H   0  0  0  0  0  0  0  0  0  0  0  0
   -8.1142   22.4533  -31.6636 H   0  0  0  0  0  0  0  0  0  0  0  0
   -9.1940   21.8976  -30.3045 H   0  0  0  0  0  0  0  0  0  0  0  0
   -7.0109   23.3472  -31.1174 H   0  0  0  0  0  0  0  0  0  0  0  0
   -5.6856   25.2741  -30.2673 H   0  0  0  0  0  0  0  0  0  0  0  0
  1  2  2  0
  2  3  1  0
  3  4  1  0
  4  5  2  0
  5  6  1  0
  6  7  2  0
  7  8  1  0
  8  9  1  0
  9 10  2  0
  9 11  2  0
  9 12  1  0
 12 13  1  0
 13 14  1  0
 14 15  1  0
 15 16  1  0
  8 17  2  0
  2 18  1  0
 18 19  2  0
 19 20  1  0
 20 21  1  0
 21 22  2  0
 21 23  2  0
 21 24  1  0
 24 25  1  0
 25 26  1  0
 26 27  1  0
 27 28  1  0
 28 29  1  0
 20 30  2  0
 30 31  1  0
 31 32  2  0
 32 33  1  0
 17  4  1  0
 32 18  1  0
 16 12  1  0
 29 24  1  0
  5 34  1  0
  6 35  1  0
  7 36  1  0
 13 37  1  0
 13 38  1  0
 14 39  1  0
 14 40  1  0
 15 41  1  0
 15 42  1  0
 16 43  1  0
 16 44  1  0
 17 45  1  0
 19 46  1  0
 25 47  1  0
 25 48  1  0
 26 49  1  0
 26 50  1  0
 28 51  1  0
 28 52  1  0
 29 53  1  0
 29 54  1  0
 30 55  1  0
 31 56  1  0
M  CHG  2   3  -1  33  -1
M  END
>  <UniqueID>  (33) 
32

>  <SMILES>  (33) 
O=C([N-]c1cccc(S(=O)(=O)N2CCCC2)c1)c1cc(S(=O)(=O)N2CCOCC2)ccc1[O-]

>  <Energy>  (33) 
75.52878421281459

>  <Genealogy>  (33) 
O=C([N-]c1cccc(S(=O)(=O)N2CCCC2)c1)c1cc(S(=O)(=O)N2CCOCC2)ccc1[O-] (protonated)
O=C([N-]c1cccc(S(=O)(=O)N2CCCC2)c1)c1cc(S(=O)(=O)N2CCOCC2)ccc1[O-] (3D coordinates assigned)
O=C([N-]c1cccc(S(=O)(=O)N2CCCC2)c1)c1cc(S(=O)(=O)N2CCOCC2)ccc1[O-] (nonaromatic ring conformer: 75.52878421281459 kcal/mol)

>  <smiles>  (33) 
O=C(Nc1cccc(S(=O)(=O)N2CCCC2)c1)c1cc(S(=O)(=O)N2CCOCC2)ccc1O

>  <score_type>  (33) 
oracle

>  <origin>  (33) 
adgpu

>  <m_score__min__energy>  (33) 
-14.48

>  <m_primary>  (33) 
energy

$$$$
33:0
     RDKit          3D

 35 37  0  0  0  0  0  0  0  0999 V2000
   -2.0370   24.2370  -27.6670 C   0  0  0  0  0  0  0  0  0  0  0  0
   -1.9560   25.0540  -28.9130 C   0  0  0  0  0  0  0  0  0  0  0  0
   -1.2270   26.0820  -28.9360 O   0  0  0  0  0  0  0  0  0  0  0  0
   -2.7930   24.7220  -30.0270 N   0  0  0  0  0  0  0  0  0  0  0  0
   -4.2110   24.4980  -29.9900 C   0  0  0  0  0  0  0  0  0  0  0  0
   -5.1270   25.5360  -30.2440 C   0  0  0  0  0  0  0  0  0  0  0  0
   -6.5030   25.2870  -30.2170 C   0  0  0  0  0  0  0  0  0  0  0  0
   -6.9760   24.0010  -29.9540 C   0  0  0  0  0  0  0  0  0  0  0  0
   -6.0770   22.9580  -29.7240 C   0  0  0  0  0  0  0  0  0  0  0  0
   -4.6970   23.1990  -29.7420 C   0  0  0  0  0  0  0  0  0  0  0  0
   -3.5680   21.8370  -29.4290 S   0  0  0  0  0  0  0  0  0  0  0  0
   -3.0610   21.7440  -31.1490 C   0  0  0  0  0  0  0  0  0  0  0  0
   -1.8630   22.1740  -31.5850 N   0  0  0  0  0  0  0  0  0  0  0  0
   -1.7860   21.8620  -32.8710 N   0  0  0  0  0  0  0  0  0  0  0  0
   -2.9340   21.2390  -33.1990 C   0  0  0  0  0  0  0  0  0  0  0  0
   -3.7620   21.1560  -32.1410 N   0  0  0  0  0  0  0  0  0  0  0  0
   -5.0490   20.5200  -32.0920 C   0  0  0  0  0  0  0  0  0  0  0  0
   -5.1420   19.1210  -32.0650 C   0  0  0  0  0  0  0  0  0  0  0  0
   -6.3910   18.4970  -31.9980 C   0  0  0  0  0  0  0  0  0  0  0  0
   -7.5610   19.2620  -31.9670 C   0  0  0  0  0  0  0  0  0  0  0  0
   -9.1130   18.4410  -31.8780 Cl  0  0  0  0  0  0  0  0  0  0  0  0
   -7.4780   20.6640  -32.0100 C   0  0  0  0  0  0  0  0  0  0  0  0
   -8.9250   21.6630  -31.9860 Cl  0  0  0  0  0  0  0  0  0  0  0  0
   -6.2260   21.2860  -32.0780 C   0  0  0  0  0  0  0  0  0  0  0  0
   -1.9715   24.8980  -26.7902 H   0  0  0  0  0  0  0  0  0  0  0  0
   -2.9934   23.6940  -27.6461 H   0  0  0  0  0  0  0  0  0  0  0  0
   -1.2059   23.5167  -27.6461 H   0  0  0  0  0  0  0  0  0  0  0  0
   -4.7586   26.5487  -30.4650 H   0  0  0  0  0  0  0  0  0  0  0  0
   -7.2132   26.1061  -30.4033 H   0  0  0  0  0  0  0  0  0  0  0  0
   -8.0587   23.8087  -29.9278 H   0  0  0  0  0  0  0  0  0  0  0  0
   -6.4535   21.9432  -29.5279 H   0  0  0  0  0  0  0  0  0  0  0  0
   -3.1650   20.8487  -34.2012 H   0  0  0  0  0  0  0  0  0  0  0  0
   -4.2270   18.5113  -32.0967 H   0  0  0  0  0  0  0  0  0  0  0  0
   -6.4537   17.3992  -31.9695 H   0  0  0  0  0  0  0  0  0  0  0  0
   -6.1635   22.3834  -32.1208 H   0  0  0  0  0  0  0  0  0  0  0  0
  1  2  1  0
  2  3  2  0
  2  4  1  0
  4  5  1  0
  5  6  2  0
  6  7  1  0
  7  8  2  0
  8  9  1  0
  9 10  2  0
 10 11  1  0
 11 12  1  0
 12 13  2  0
 13 14  1  0
 14 15  2  0
 15 16  1  0
 16 17  1  0
 17 18  2  0
 18 19  1  0
 19 20  2  0
 20 21  1  0
 20 22  1  0
 22 23  1  0
 22 24  2  0
 10  5  1  0
 16 12  1  0
 24 17  1  0
  1 25  1  0
  1 26  1  0
  1 27  1  0
  6 28  1  0
  7 29  1  0
  8 30  1  0
  9 31  1  0
 15 32  1  0
 18 33  1  0
 19 34  1  0
 24 35  1  0
M  CHG  1   4  -1
M  END
>  <UniqueID>  (34) 
33

>  <SMILES>  (34) 
CC(=O)[N-]c1ccccc1Sc1nncn1-c1ccc(Cl)c(Cl)c1

>  <Energy>  (34) 
74.5859931213941

>  <Genealogy>  (34) 
CC(=O)[N-]c1ccccc1Sc1nncn1-c1ccc(Cl)c(Cl)c1 (protonated)
CC(=O)[N-]c1ccccc1Sc1nncn1-c1ccc(Cl)c(Cl)c1 (3D coordinates assigned)
CC(=O)[N-]c1ccccc1Sc1nncn1-c1ccc(Cl)c(Cl)c1 (optimized conformer: 74.5859931213941 kcal/mol)

>  <smiles>  (34) 
CC(=O)Nc1ccccc1Sc1nncn1-c1ccc(Cl)c(Cl)c1

>  <score_type>  (34) 
oracle

>  <origin>  (34) 
adgpu

>  <m_score__min__energy>  (34) 
-10.49

>  <m_primary>  (34) 
energy

$$$$
34:0
     RDKit          3D

 44 46  0  0  0  0  0  0  0  0999 V2000
   -3.0650   21.0750  -27.5570 C   0  0  0  0  0  0  0  0  0  0  0  0
   -2.0450   22.1980  -27.3790 C   0  0  0  0  0  0  0  0  0  0  0  0
   -2.2420   23.2840  -28.3530 N   0  0  0  0  0  0  0  0  0  0  0  0
   -1.9420   24.6630  -28.0640 C   0  0  0  0  0  0  0  0  0  0  0  0
   -2.1620   25.5360  -28.9460 O   0  0  0  0  0  0  0  0  0  0  0  0
   -1.4190   25.0950  -26.7520 C   0  0  0  0  0  0  0  0  0  0  0  0
   -2.0050   26.0510  -25.9290 C   0  0  0  0  0  0  0  0  0  0  0  0
   -1.3340   26.2260  -24.7130 C   0  0  0  0  0  0  0  0  0  0  0  0
   -0.2260   25.4020  -24.5630 C   0  0  0  0  0  0  0  0  0  0  0  0
   -0.0870   24.4560  -25.9450 S   0  0  0  0  0  0  0  0  0  0  0  0
   -2.8770   22.9770  -29.6040 C   0  0  0  0  0  0  0  0  0  0  0  0
   -4.1230   23.5340  -29.9510 C   0  0  0  0  0  0  0  0  0  0  0  0
   -4.7820   24.4070  -29.0140 N   0  0  0  0  0  0  0  0  0  0  0  0
   -4.6910   23.2330  -31.1730 N   0  0  0  0  0  0  0  0  0  0  0  0
   -5.9950   23.8100  -31.5700 C   0  0  0  0  0  0  0  0  0  0  0  0
   -7.0720   22.7530  -31.6220 C   0  0  0  0  0  0  0  0  0  0  0  0
   -6.7820   21.4170  -31.2890 C   0  0  0  0  0  0  0  0  0  0  0  0
   -7.7900   20.4490  -31.3130 C   0  0  0  0  0  0  0  0  0  0  0  0
   -9.0970   20.8050  -31.6550 C   0  0  0  0  0  0  0  0  0  0  0  0
   -9.4000   22.1330  -31.9650 C   0  0  0  0  0  0  0  0  0  0  0  0
   -8.3950   23.1050  -31.9420 C   0  0  0  0  0  0  0  0  0  0  0  0
   -4.0270   22.3950  -32.0420 C   0  0  0  0  0  0  0  0  0  0  0  0
   -4.5180   22.1170  -33.1720 O   0  0  0  0  0  0  0  0  0  0  0  0
   -2.8270   21.8560  -31.7030 N   0  0  0  0  0  0  0  0  0  0  0  0
   -2.2430   22.1290  -30.5120 C   0  0  0  0  0  0  0  0  0  0  0  0
   -1.1260   21.6170  -30.2300 O   0  0  0  0  0  0  0  0  0  0  0  0
   -3.3911   20.7160  -26.5697 H   0  0  0  0  0  0  0  0  0  0  0  0
   -3.9341   21.4540  -28.1147 H   0  0  0  0  0  0  0  0  0  0  0  0
   -2.6044   20.2463  -28.1147 H   0  0  0  0  0  0  0  0  0  0  0  0
   -2.1441   22.6097  -26.3638 H   0  0  0  0  0  0  0  0  0  0  0  0
   -1.0429   21.7745  -27.5417 H   0  0  0  0  0  0  0  0  0  0  0  0
   -2.9079   26.6147  -26.2067 H   0  0  0  0  0  0  0  0  0  0  0  0
   -1.6543   26.9485  -23.9479 H   0  0  0  0  0  0  0  0  0  0  0  0
    0.4441   25.3736  -23.6911 H   0  0  0  0  0  0  0  0  0  0  0  0
   -5.7180   24.1710  -28.6200 H   0  0  0  0  0  0  0  0  0  0  0  0
   -4.3720   25.3050  -28.6860 H   0  0  0  0  0  0  0  0  0  0  0  0
   -6.2835   24.5793  -30.8386 H   0  0  0  0  0  0  0  0  0  0  0  0
   -5.8893   24.2463  -32.5742 H   0  0  0  0  0  0  0  0  0  0  0  0
   -5.7570   21.1330  -31.0084 H   0  0  0  0  0  0  0  0  0  0  0  0
   -7.5537   19.4044  -31.0620 H   0  0  0  0  0  0  0  0  0  0  0  0
   -9.8870   20.0400  -31.6802 H   0  0  0  0  0  0  0  0  0  0  0  0
  -10.4305   22.4144  -32.2275 H   0  0  0  0  0  0  0  0  0  0  0  0
   -8.6410   24.1514  -32.1757 H   0  0  0  0  0  0  0  0  0  0  0  0
   -2.3400   21.2210  -32.3760 H   0  0  0  0  0  0  0  0  0  0  0  0
  1  2  1  0
  2  3  1  0
  3  4  1  0
  4  5  2  0
  4  6  1  0
  6  7  2  0
  7  8  1  0
  8  9  2  0
  9 10  1  0
  3 11  1  0
 11 12  2  0
 12 13  1  0
 12 14  1  0
 14 15  1  0
 15 16  1  0
 16 17  2  0
 17 18  1  0
 18 19  2  0
 19 20  1  0
 20 21  2  0
 14 22  1  0
 22 23  2  0
 22 24  1  0
 24 25  1  0
 25 26  2  0
 10  6  1  0
 25 11  1  0
 21 16  1  0
  1 27  1  0
  1 28  1  0
  1 29  1  0
  2 30  1  0
  2 31  1  0
  7 32  1  0
  8 33  1  0
  9 34  1  0
 13 35  1  0
 13 36  1  0
 15 37  1  0
 15 38  1  0
 17 39  1  0
 18 40  1  0
 19 41  1  0
 20 42  1  0
 21 43  1  0
 24 44  1  0
M  END
>  <UniqueID>  (35) 
34

>  <SMILES>  (35) 
CCN(C(=O)c1cccs1)c1c(N)n(Cc2ccccc2)c(=O)[nH]c1=O

>  <Energy>  (35) 
87.93469489048219

>  <Genealogy>  (35) 
CCN(C(=O)c1cccs1)c1c(N)n(Cc2ccccc2)c(=O)[nH]c1=O (3D coordinates assigned)
CCN(C(=O)c1cccs1)c1c(N)n(Cc2ccccc2)c(=O)[nH]c1=O (optimized conformer: 87.93469489048219 kcal/mol)

>  <smiles>  (35) 
CCN(C(=O)c1cccs1)c1c(N)n(Cc2ccccc2)c(=O)[nH]c1=O

>  <score_type>  (35) 
oracle

>  <origin>  (35) 
adgpu

>  <m_score__min__energy>  (35) 
-7.7400000000000002

>  <m_primary>  (35) 
energy

$$$$
35:0
     RDKit          3D

 57 60  0  0  0  0  0  0  0  0999 V2000
   -1.2610   25.6210  -28.5600 C   0  0  0  0  0  0  0  0  0  0  0  0
   -1.7150   24.1990  -28.6960 C   0  0  0  0  0  0  0  0  0  0  0  0
   -2.6990   23.7370  -29.5510 C   0  0  0  0  0  0  0  0  0  0  0  0
   -3.4410   24.5290  -30.4860 N   0  0  0  0  0  0  0  0  0  0  0  0
   -5.1620   24.7320  -30.4490 S   0  0  0  0  0  0  0  0  0  0  0  0
   -5.5280   25.9710  -31.2150 O   0  0  0  0  0  0  0  0  0  0  0  0
   -5.6040   24.8520  -29.0160 O   0  0  0  0  0  0  0  0  0  0  0  0
   -5.9630   23.3390  -31.1940 C   0  0  0  0  0  0  0  0  0  0  0  0
   -7.3410   23.1680  -30.9860 C   0  0  0  0  0  0  0  0  0  0  0  0
   -8.0230   22.0970  -31.5610 C   0  0  0  0  0  0  0  0  0  0  0  0
   -7.3400   21.1740  -32.3550 C   0  0  0  0  0  0  0  0  0  0  0  0
   -8.0410   20.0760  -32.9430 N   0  0  0  0  0  0  0  0  0  0  0  0
   -5.9650   21.3260  -32.5670 C   0  0  0  0  0  0  0  0  0  0  0  0
   -5.2540   22.4030  -31.9950 C   0  0  0  0  0  0  0  0  0  0  0  0
   -3.8330   22.5400  -32.2180 N   0  0  0  0  0  0  0  0  0  0  0  0
   -3.1290   21.9050  -33.3360 C   0  0  0  0  0  0  0  0  0  0  0  0
   -1.9590   21.0940  -32.8390 C   0  0  0  0  0  0  0  0  0  0  0  0
   -2.1460   20.1370  -31.8260 C   0  0  0  0  0  0  0  0  0  0  0  0
   -1.0750   19.3530  -31.3900 C   0  0  0  0  0  0  0  0  0  0  0  0
    0.1880   19.5080  -31.9670 C   0  0  0  0  0  0  0  0  0  0  0  0
    0.3830   20.4480  -32.9820 C   0  0  0  0  0  0  0  0  0  0  0  0
   -0.6850   21.2370  -33.4240 C   0  0  0  0  0  0  0  0  0  0  0  0
   -0.4740   22.1560  -34.4470 O   0  0  0  0  0  0  0  0  0  0  0  0
   -2.7910   22.3830  -29.2900 C   0  0  0  0  0  0  0  0  0  0  0  0
   -3.5510   21.5600  -29.8690 O   0  0  0  0  0  0  0  0  0  0  0  0
   -1.9120   22.0540  -28.3210 N   0  0  0  0  0  0  0  0  0  0  0  0
   -1.7020   20.7320  -27.7900 C   0  0  0  0  0  0  0  0  0  0  0  0
   -2.6850   20.1190  -26.9980 C   0  0  0  0  0  0  0  0  0  0  0  0
   -2.4710   18.8400  -26.4730 C   0  0  0  0  0  0  0  0  0  0  0  0
   -1.2720   18.1680  -26.7310 C   0  0  0  0  0  0  0  0  0  0  0  0
   -0.2850   18.7760  -27.5130 C   0  0  0  0  0  0  0  0  0  0  0  0
   -0.4960   20.0550  -28.0380 C   0  0  0  0  0  0  0  0  0  0  0  0
   -1.2710   23.1600  -27.9440 N   0  0  0  0  0  0  0  0  0  0  0  0
   -0.2560   23.2350  -26.8920 C   0  0  0  0  0  0  0  0  0  0  0  0
   -1.1786   25.8792  -27.4939 H   0  0  0  0  0  0  0  0  0  0  0  0
   -0.2800   25.7405  -29.0431 H   0  0  0  0  0  0  0  0  0  0  0  0
   -1.9912   26.2868  -29.0431 H   0  0  0  0  0  0  0  0  0  0  0  0
   -7.8894   23.8884  -30.3613 H   0  0  0  0  0  0  0  0  0  0  0  0
   -9.1029   21.9787  -31.3886 H   0  0  0  0  0  0  0  0  0  0  0  0
   -8.2100   20.0400  -33.9730 H   0  0  0  0  0  0  0  0  0  0  0  0
   -8.3940   19.2880  -32.3540 H   0  0  0  0  0  0  0  0  0  0  0  0
   -5.4295   20.5942  -33.1896 H   0  0  0  0  0  0  0  0  0  0  0  0
   -3.2620   23.1120  -31.5580 H   0  0  0  0  0  0  0  0  0  0  0  0
   -3.8253   21.2431  -33.8717 H   0  0  0  0  0  0  0  0  0  0  0  0
   -2.7540   22.6902  -34.0089 H   0  0  0  0  0  0  0  0  0  0  0  0
   -3.1404   20.0050  -31.3746 H   0  0  0  0  0  0  0  0  0  0  0  0
   -1.2264   18.6123  -30.5910 H   0  0  0  0  0  0  0  0  0  0  0  0
    1.0295   18.8894  -31.6218 H   0  0  0  0  0  0  0  0  0  0  0  0
    1.3783   20.5682  -33.4348 H   0  0  0  0  0  0  0  0  0  0  0  0
   -3.6276   20.6462  -26.7891 H   0  0  0  0  0  0  0  0  0  0  0  0
   -3.2468   18.3624  -25.8565 H   0  0  0  0  0  0  0  0  0  0  0  0
   -1.1054   17.1618  -26.3190 H   0  0  0  0  0  0  0  0  0  0  0  0
    0.6584   18.2478  -27.7155 H   0  0  0  0  0  0  0  0  0  0  0  0
    0.2852   20.5328  -28.6474 H   0  0  0  0  0  0  0  0  0  0  0  0
   -0.7451   23.1989  -25.9074 H   0  0  0  0  0  0  0  0  0  0  0  0
    0.4361   22.3855  -26.9890 H   0  0  0  0  0  0  0  0  0  0  0  0
    0.3037   24.1770  -26.9890 H   0  0  0  0  0  0  0  0  0  0  0  0
  1  2  1  0
  2  3  2  0
  3  4  1  0
  4  5  1  0
  5  6  2  0
  5  7  2  0
  5  8  1  0
  8  9  2  0
  9 10  1  0
 10 11  2  0
 11 12  1  0
 11 13  1  0
 13 14  2  0
 14 15  1  0
 15 16  1  0
 16 17  1  0
 17 18  2  0
 18 19  1  0
 19 20  2  0
 20 21  1  0
 21 22  2  0
 22 23  1  0
  3 24  1  0
 24 25  2  0
 24 26  1  0
 26 27  1  0
 27 28  2  0
 28 29  1  0
 29 30  2  0
 30 31  1  0
 31 32  2  0
 26 33  1  0
 33 34  1  0
 33  2  1  0
 14  8  1  0
 22 17  1  0
 32 27  1  0
  1 35  1  0
  1 36  1  0
  1 37  1  0
  9 38  1  0
 10 39  1  0
 12 40  1  0
 12 41  1  0
 13 42  1  0
 15 43  1  0
 16 44  1  0
 16 45  1  0
 18 46  1  0
 19 47  1  0
 20 48  1  0
 21 49  1  0
 28 50  1  0
 29 51  1  0
 30 52  1  0
 31 53  1  0
 32 54  1  0
 34 55  1  0
 34 56  1  0
 34 57  1  0
M  CHG  2   4  -1  23  -1
M  END
>  <UniqueID>  (36) 
35

>  <SMILES>  (36) 
Cc1c([N-]S(=O)(=O)c2ccc(N)cc2NCc2ccccc2[O-])c(=O)n(-c2ccccc2)n1C

>  <Energy>  (36) 
108.11766357452177

>  <Genealogy>  (36) 
Cc1c([N-]S(=O)(=O)c2ccc(N)cc2NCc2ccccc2[O-])c(=O)n(-c2ccccc2)n1C (protonated)
Cc1c([N-]S(=O)(=O)c2ccc(N)cc2NCc2ccccc2[O-])c(=O)n(-c2ccccc2)n1C (3D coordinates assigned)
Cc1c([N-]S(=O)(=O)c2ccc(N)cc2NCc2ccccc2[O-])c(=O)n(-c2ccccc2)n1C (optimized conformer: 108.11766357452177 kcal/mol)

>  <smiles>  (36) 
Cc1c(NS(=O)(=O)c2ccc(N)cc2NCc2ccccc2O)c(=O)n(-c2ccccc2)n1C

>  <score_type>  (36) 
oracle

>  <origin>  (36) 
adgpu

>  <m_score__min__energy>  (36) 
-12.74

>  <m_primary>  (36) 
energy

$$$$
36:0
     RDKit          3D

 52 55  0  0  0  0  0  0  0  0999 V2000
    1.8890   15.0870  -27.9240 C   0  0  0  0  0  0  0  0  0  0  0  0
    0.8770   16.0010  -27.4140 N   0  0  0  0  0  0  0  0  0  0  0  0
    0.8050   17.3670  -27.8510 C   0  0  0  0  0  0  0  0  0  0  0  0
    1.6470   17.7990  -28.6860 O   0  0  0  0  0  0  0  0  0  0  0  0
   -0.2480   18.2680  -27.3350 C   0  0  0  0  0  0  0  0  0  0  0  0
   -0.1200   19.6650  -27.4340 C   0  0  0  0  0  0  0  0  0  0  0  0
   -1.1390   20.4930  -26.9540 C   0  0  0  0  0  0  0  0  0  0  0  0
   -0.9810   21.8830  -27.0500 O   0  0  0  0  0  0  0  0  0  0  0  0
   -1.7180   22.7300  -27.8920 C   0  0  0  0  0  0  0  0  0  0  0  0
   -1.1860   23.9830  -28.2180 C   0  0  0  0  0  0  0  0  0  0  0  0
   -1.8770   24.8450  -29.0740 C   0  0  0  0  0  0  0  0  0  0  0  0
   -3.1020   24.4510  -29.6400 C   0  0  0  0  0  0  0  0  0  0  0  0
   -3.8510   25.3110  -30.5120 N   0  0  0  0  0  0  0  0  0  0  0  0
   -5.2560   25.2360  -30.7900 C   0  0  0  0  0  0  0  0  0  0  0  0
   -6.0910   25.7570  -30.0050 O   0  0  0  0  0  0  0  0  0  0  0  0
   -5.7340   24.5600  -31.9580 N   0  0  0  0  0  0  0  0  0  0  0  0
   -5.7110   23.1450  -32.1970 C   0  0  0  0  0  0  0  0  0  0  0  0
   -4.5330   22.4680  -32.5550 C   0  0  0  0  0  0  0  0  0  0  0  0
   -4.5570   21.0950  -32.7960 C   0  0  0  0  0  0  0  0  0  0  0  0
   -5.7590   20.3860  -32.7160 C   0  0  0  0  0  0  0  0  0  0  0  0
   -6.9520   21.0480  -32.3640 C   0  0  0  0  0  0  0  0  0  0  0  0
   -6.9150   22.4330  -32.1180 C   0  0  0  0  0  0  0  0  0  0  0  0
   -8.1640   20.2840  -32.1590 N   0  0  0  0  0  0  0  0  0  0  0  0
   -9.4790   20.9110  -32.3200 C   0  0  0  0  0  0  0  0  0  0  0  0
   -8.0720   18.9230  -31.6800 C   0  0  0  0  0  0  0  0  0  0  0  0
   -9.1040   18.3140  -31.2900 O   0  0  0  0  0  0  0  0  0  0  0  0
   -6.7420   18.2300  -31.5990 C   0  0  0  0  0  0  0  0  0  0  0  0
   -5.7780   18.6290  -33.0880 S   0  0  0  0  0  0  0  0  0  0  0  0
   -3.6360   23.2000  -29.3100 C   0  0  0  0  0  0  0  0  0  0  0  0
   -2.9460   22.3380  -28.4520 C   0  0  0  0  0  0  0  0  0  0  0  0
   -2.2670   19.9140  -26.3490 C   0  0  0  0  0  0  0  0  0  0  0  0
   -2.3610   18.5240  -26.2660 C   0  0  0  0  0  0  0  0  0  0  0  0
   -1.3630   17.7420  -26.7570 N   0  0  0  0  0  0  0  0  0  0  0  0
    2.4135   14.6133  -27.0811 H   0  0  0  0  0  0  0  0  0  0  0  0
    1.4071   14.3120  -28.5381 H   0  0  0  0  0  0  0  0  0  0  0  0
    2.6111   15.6451  -28.5381 H   0  0  0  0  0  0  0  0  0  0  0  0
    0.1940   15.6410  -26.7130 H   0  0  0  0  0  0  0  0  0  0  0  0
    0.7800   20.1052  -27.8881 H   0  0  0  0  0  0  0  0  0  0  0  0
   -0.2174   24.2913  -27.7976 H   0  0  0  0  0  0  0  0  0  0  0  0
   -1.4604   25.8363  -29.3059 H   0  0  0  0  0  0  0  0  0  0  0  0
   -3.5879   23.0236  -32.6455 H   0  0  0  0  0  0  0  0  0  0  0  0
   -3.6259   20.5673  -33.0502 H   0  0  0  0  0  0  0  0  0  0  0  0
   -7.8435   22.9636  -31.8603 H   0  0  0  0  0  0  0  0  0  0  0  0
   -9.9108   21.1169  -31.3295 H   0  0  0  0  0  0  0  0  0  0  0  0
   -9.3700   21.8540  -32.8757 H   0  0  0  0  0  0  0  0  0  0  0  0
  -10.1431   20.2326  -32.8757 H   0  0  0  0  0  0  0  0  0  0  0  0
   -6.2004   18.5738  -30.7054 H   0  0  0  0  0  0  0  0  0  0  0  0
   -6.8921   17.1423  -31.5327 H   0  0  0  0  0  0  0  0  0  0  0  0
   -4.6057   22.8927  -29.7287 H   0  0  0  0  0  0  0  0  0  0  0  0
   -3.3659   21.3494  -28.2145 H   0  0  0  0  0  0  0  0  0  0  0  0
   -3.0683   20.5500  -25.9447 H   0  0  0  0  0  0  0  0  0  0  0  0
   -3.2442   18.0602  -25.8025 H   0  0  0  0  0  0  0  0  0  0  0  0
  1  2  1  0
  2  3  1  0
  3  4  2  0
  3  5  1  0
  5  6  2  0
  6  7  1  0
  7  8  1  0
  8  9  1  0
  9 10  2  0
 10 11  1  0
 11 12  2  0
 12 13  1  0
 13 14  1  0
 14 15  2  0
 14 16  1  0
 16 17  1  0
 17 18  2  0
 18 19  1  0
 19 20  2  0
 20 21  1  0
 21 22  2  0
 21 23  1  0
 23 24  1  0
 23 25  1  0
 25 26  2  0
 25 27  1  0
 27 28  1  0
 12 29  1  0
 29 30  2  0
  7 31  2  0
 31 32  1  0
 32 33  2  0
 33  5  1  0
 30  9  1  0
 22 17  1  0
 28 20  1  0
  1 34  1  0
  1 35  1  0
  1 36  1  0
  2 37  1  0
  6 38  1  0
 10 39  1  0
 11 40  1  0
 18 41  1  0
 19 42  1  0
 22 43  1  0
 24 44  1  0
 24 45  1  0
 24 46  1  0
 27 47  1  0
 27 48  1  0
 29 49  1  0
 30 50  1  0
 31 51  1  0
 32 52  1  0
M  CHG  2  13  -1  16  -1
M  END
>  <UniqueID>  (37) 
36

>  <SMILES>  (37) 
CNC(=O)c1cc(Oc2ccc([N-]C(=O)[N-]c3ccc4c(c3)N(C)C(=O)CS4)cc2)ccn1

>  <Energy>  (37) 
73.5074011775381

>  <Genealogy>  (37) 
CNC(=O)c1cc(Oc2ccc([N-]C(=O)[N-]c3ccc4c(c3)N(C)C(=O)CS4)cc2)ccn1 (protonated)
CNC(=O)c1cc(Oc2ccc([N-]C(=O)[N-]c3ccc4c(c3)N(C)C(=O)CS4)cc2)ccn1 (3D coordinates assigned)
CNC(=O)c1cc(Oc2ccc([N-]C(=O)[N-]c3ccc4c(c3)N(C)C(=O)CS4)cc2)ccn1 (nonaromatic ring conformer: 73.5074011775381 kcal/mol)

>  <smiles>  (37) 
CNC(=O)c1cc(Oc2ccc(NC(=O)Nc3ccc4c(c3)N(C)C(=O)CS4)cc2)ccn1

>  <score_type>  (37) 
oracle

>  <origin>  (37) 
adgpu

>  <m_score__min__energy>  (37) 
-13.119999999999999

>  <m_primary>  (37) 
energy

$$$$
37:0
     RDKit          3D

 67 71  0  0  0  0  0  0  0  0999 V2000
   -5.5580   25.6680  -30.1910 O   0  0  0  0  0  0  0  0  0  0  0  0
   -4.7640   24.7770  -30.5900 C   0  0  0  0  0  0  0  0  0  0  0  0
   -3.3530   24.9800  -30.4280 N   0  0  0  0  0  0  0  0  0  0  0  0
   -2.4910   24.3810  -29.4410 C   0  0  0  0  0  0  0  0  0  0  0  0
   -2.6990   23.0750  -28.9590 C   0  0  0  0  0  0  0  0  0  0  0  0
   -1.8450   22.5200  -28.0000 C   0  0  0  0  0  0  0  0  0  0  0  0
   -2.0570   20.8360  -27.5050 S   0  0  0  0  0  0  0  0  0  0  0  0
   -1.4480   20.6540  -26.1410 O   0  0  0  0  0  0  0  0  0  0  0  0
   -3.5250   20.5290  -27.4010 O   0  0  0  0  0  0  0  0  0  0  0  0
   -1.3220   19.7120  -28.6210 N   0  0  0  0  0  0  0  0  0  0  0  0
   -1.0550   20.3640  -29.9150 C   0  0  0  0  0  0  0  0  0  0  0  0
   -0.1550   19.4750  -30.7980 C   0  0  0  0  0  0  0  0  0  0  0  0
   -0.1370   18.1440  -30.3170 O   0  0  0  0  0  0  0  0  0  0  0  0
    0.4860   18.0970  -29.0430 C   0  0  0  0  0  0  0  0  0  0  0  0
   -0.0830   19.1500  -28.0680 C   0  0  0  0  0  0  0  0  0  0  0  0
   -0.8010   23.2920  -27.4750 C   0  0  0  0  0  0  0  0  0  0  0  0
   -0.6100   24.6030  -27.9170 C   0  0  0  0  0  0  0  0  0  0  0  0
   -1.4470   25.1470  -28.8980 C   0  0  0  0  0  0  0  0  0  0  0  0
   -1.2370   26.4500  -29.3340 O   0  0  0  0  0  0  0  0  0  0  0  0
   -5.3090   23.5590  -31.2170 C   0  0  0  0  0  0  0  0  0  0  0  0
   -6.6730   23.4510  -31.5040 C   0  0  0  0  0  0  0  0  0  0  0  0
   -7.1480   22.3530  -32.2190 C   0  0  0  0  0  0  0  0  0  0  0  0
   -6.2470   21.3860  -32.6760 C   0  0  0  0  0  0  0  0  0  0  0  0
   -6.6820   20.4100  -33.3460 O   0  0  0  0  0  0  0  0  0  0  0  0
   -4.9080   21.5040  -32.3990 N   0  0  0  0  0  0  0  0  0  0  0  0
   -3.9550   20.5900  -32.9680 C   0  0  0  0  0  0  0  0  0  0  0  0
   -4.1840   19.2060  -32.9310 C   0  0  0  0  0  0  0  0  0  0  0  0
   -3.2310   18.3230  -33.4440 C   0  0  0  0  0  0  0  0  0  0  0  0
   -2.0370   18.8130  -33.9820 C   0  0  0  0  0  0  0  0  0  0  0  0
   -1.7920   20.1930  -34.0130 C   0  0  0  0  0  0  0  0  0  0  0  0
   -0.2750   20.8160  -34.6670 S   0  0  0  0  0  0  0  0  0  0  0  0
   -0.2910   22.3180  -34.6040 O   0  0  0  0  0  0  0  0  0  0  0  0
   -0.1570   20.4130  -36.1110 O   0  0  0  0  0  0  0  0  0  0  0  0
    1.1060   20.2140  -33.7840 N   0  0  0  0  0  0  0  0  0  0  0  0
    2.3600   20.6750  -34.4070 C   0  0  0  0  0  0  0  0  0  0  0  0
    3.5720   19.9230  -33.8190 C   0  0  0  0  0  0  0  0  0  0  0  0
    3.2220   19.2580  -32.6220 O   0  0  0  0  0  0  0  0  0  0  0  0
    2.2780   18.2360  -32.8940 C   0  0  0  0  0  0  0  0  0  0  0  0
    1.0760   18.7470  -33.7190 C   0  0  0  0  0  0  0  0  0  0  0  0
   -2.7530   21.0760  -33.5070 C   0  0  0  0  0  0  0  0  0  0  0  0
   -4.4420   22.5490  -31.6490 C   0  0  0  0  0  0  0  0  0  0  0  0
   -3.5438   22.4832  -29.3413 H   0  0  0  0  0  0  0  0  0  0  0  0
   -2.0087   20.5406  -30.4340 H   0  0  0  0  0  0  0  0  0  0  0  0
   -0.5385   21.3176  -29.7307 H   0  0  0  0  0  0  0  0  0  0  0  0
   -0.5411   19.4811  -31.8280 H   0  0  0  0  0  0  0  0  0  0  0  0
    0.8699   19.8737  -30.7712 H   0  0  0  0  0  0  0  0  0  0  0  0
    0.3319   17.0969  -28.6115 H   0  0  0  0  0  0  0  0  0  0  0  0
    1.5547   18.3157  -29.1850 H   0  0  0  0  0  0  0  0  0  0  0  0
   -0.2966   18.6748  -27.0992 H   0  0  0  0  0  0  0  0  0  0  0  0
    0.6535   19.9549  -27.9278 H   0  0  0  0  0  0  0  0  0  0  0  0
   -0.1310   22.8655  -26.7140 H   0  0  0  0  0  0  0  0  0  0  0  0
    0.2022   25.2110  -27.4920 H   0  0  0  0  0  0  0  0  0  0  0  0
   -7.3704   24.2316  -31.1659 H   0  0  0  0  0  0  0  0  0  0  0  0
   -8.2239   22.2478  -32.4224 H   0  0  0  0  0  0  0  0  0  0  0  0
   -5.1163   18.8156  -32.4969 H   0  0  0  0  0  0  0  0  0  0  0  0
   -3.4203   17.2396  -33.4247 H   0  0  0  0  0  0  0  0  0  0  0  0
   -1.2879   18.1138  -34.3820 H   0  0  0  0  0  0  0  0  0  0  0  0
    2.3130   20.4920  -35.4906 H   0  0  0  0  0  0  0  0  0  0  0  0
    2.4799   21.7497  -34.2053 H   0  0  0  0  0  0  0  0  0  0  0  0
    3.9264   19.1829  -34.5516 H   0  0  0  0  0  0  0  0  0  0  0  0
    4.3638   20.6534  -33.5961 H   0  0  0  0  0  0  0  0  0  0  0  0
    2.7779   17.4346  -33.4578 H   0  0  0  0  0  0  0  0  0  0  0  0
    1.8921   17.8717  -31.9305 H   0  0  0  0  0  0  0  0  0  0  0  0
    1.1303   18.3350  -34.7375 H   0  0  0  0  0  0  0  0  0  0  0  0
    0.1411   18.4234  -33.2381 H   0  0  0  0  0  0  0  0  0  0  0  0
   -2.5650   22.1595  -33.5318 H   0  0  0  0  0  0  0  0  0  0  0  0
   -3.3757   22.5958  -31.3830 H   0  0  0  0  0  0  0  0  0  0  0  0
  1  2  2  0
  2  3  1  0
  3  4  1  0
  4  5  2  0
  5  6  1  0
  6  7  1  0
  7  8  2  0
  7  9  2  0
  7 10  1  0
 10 11  1  0
 11 12  1  0
 12 13  1  0
 13 14  1  0
 14 15  1  0
  6 16  2  0
 16 17  1  0
 17 18  2  0
 18 19  1  0
  2 20  1  0
 20 21  1  0
 21 22  2  0
 22 23  1  0
 23 24  2  0
 23 25  1  0
 25 26  1  0
 26 27  2  0
 27 28  1  0
 28 29  2  0
 29 30  1  0
 30 31  1  0
 31 32  2  0
 31 33  2  0
 31 34  1  0
 34 35  1  0
 35 36  1  0
 36 37  1  0
 37 38  1  0
 38 39  1  0
 30 40  2  0
 25 41  1  0
 18  4  1  0
 41 20  2  0
 15 10  1  0
 40 26  1  0
 39 34  1  0
  5 42  1  0
 11 43  1  0
 11 44  1  0
 12 45  1  0
 12 46  1  0
 14 47  1  0
 14 48  1  0
 15 49  1  0
 15 50  1  0
 16 51  1  0
 17 52  1  0
 21 53  1  0
 22 54  1  0
 27 55  1  0
 28 56  1  0
 29 57  1  0
 35 58  1  0
 35 59  1  0
 36 60  1  0
 36 61  1  0
 38 62  1  0
 38 63  1  0
 39 64  1  0
 39 65  1  0
 40 66  1  0
 41 67  1  0
M  CHG  2   3  -1  19  -1
M  END
>  <UniqueID>  (38) 
37

>  <SMILES>  (38) 
O=C([N-]c1cc(S(=O)(=O)N2CCOCC2)ccc1[O-])c1ccc(=O)n(-c2cccc(S(=O)(=O)N3CCOCC3)c2)c1

>  <Energy>  (38) 
100.334779543816

>  <Genealogy>  (38) 
O=C([N-]c1cc(S(=O)(=O)N2CCOCC2)ccc1[O-])c1ccc(=O)n(-c2cccc(S(=O)(=O)N3CCOCC3)c2)c1 (protonated)
O=C([N-]c1cc(S(=O)(=O)N2CCOCC2)ccc1[O-])c1ccc(=O)n(-c2cccc(S(=O)(=O)N3CCOCC3)c2)c1 (3D coordinates assigned)
O=C([N-]c1cc(S(=O)(=O)N2CCOCC2)ccc1[O-])c1ccc(=O)n(-c2cccc(S(=O)(=O)N3CCOCC3)c2)c1 (nonaromatic ring conformer: 100.334779543816 kcal/mol)

>  <smiles>  (38) 
O=C(Nc1cc(S(=O)(=O)N2CCOCC2)ccc1O)c1ccc(=O)n(-c2cccc(S(=O)(=O)N3CCOCC3)c2)c1

>  <score_type>  (38) 
oracle

>  <origin>  (38) 
adgpu

>  <m_score__min__energy>  (38) 
-15.65

>  <m_primary>  (38) 
energy

$$$$
38:0
     RDKit          3D

 51 54  0  0  0  0  0  0  0  0999 V2000
   -7.5460   19.0890  -31.8180 H   0  0  0  0  0  0  0  0  0  0  0  0
   -7.3220   18.2610  -32.4090 N   0  0  0  0  0  0  0  0  0  0  0  0
   -6.3400   18.2440  -33.2580 C   0  0  0  0  0  0  0  0  0  0  0  0
   -6.0500   17.2080  -34.1120 C   0  0  0  0  0  0  0  0  0  0  0  0
   -6.7080   15.9320  -34.2120 C   0  0  0  0  0  0  0  0  0  0  0  0
   -7.2360   14.9040  -34.2920 N   0  0  0  0  0  0  0  0  0  0  0  0
   -5.0050   17.6710  -34.8900 C   0  0  0  0  0  0  0  0  0  0  0  0
   -4.5123   17.1088  -35.6970 H   0  0  0  0  0  0  0  0  0  0  0  0
   -4.6860   18.9250  -34.5000 N   0  0  0  0  0  0  0  0  0  0  0  0
   -5.4930   19.2700  -33.5030 N   0  0  0  0  0  0  0  0  0  0  0  0
   -5.3970   20.5310  -32.8180 C   0  0  0  0  0  0  0  0  0  0  0  0
   -4.1400   21.0100  -32.4140 C   0  0  0  0  0  0  0  0  0  0  0  0
   -3.2333   20.4306  -32.6427 H   0  0  0  0  0  0  0  0  0  0  0  0
   -4.0370   22.2210  -31.7220 C   0  0  0  0  0  0  0  0  0  0  0  0
   -3.0486   22.5969  -31.4190 H   0  0  0  0  0  0  0  0  0  0  0  0
   -5.1900   22.9580  -31.4130 C   0  0  0  0  0  0  0  0  0  0  0  0
   -5.0800   24.4770  -30.5280 S   0  0  0  0  0  0  0  0  0  0  0  0
   -5.7280   24.3040  -29.1840 O   0  0  0  0  0  0  0  0  0  0  0  0
   -5.7900   25.5810  -31.2610 O   0  0  0  0  0  0  0  0  0  0  0  0
   -3.4150   24.9140  -30.3040 N   0  0  0  0  0  0  0  0  0  0  0  0
   -2.5270   24.3300  -29.3400 C   0  0  0  0  0  0  0  0  0  0  0  0
   -2.7100   23.0200  -28.8610 C   0  0  0  0  0  0  0  0  0  0  0  0
   -3.5680   22.4268  -29.2102 H   0  0  0  0  0  0  0  0  0  0  0  0
   -1.8090   22.4640  -27.9430 C   0  0  0  0  0  0  0  0  0  0  0  0
   -2.0420   20.8110  -27.3650 S   0  0  0  0  0  0  0  0  0  0  0  0
   -3.5050   20.4680  -27.4340 O   0  0  0  0  0  0  0  0  0  0  0  0
   -1.6120   20.7240  -25.9270 O   0  0  0  0  0  0  0  0  0  0  0  0
   -1.1300   19.6590  -28.3140 N   0  0  0  0  0  0  0  0  0  0  0  0
    0.0220   20.2930  -28.9950 C   0  0  0  0  0  0  0  0  0  0  0  0
    0.0734   19.9193  -30.0283 H   0  0  0  0  0  0  0  0  0  0  0  0
   -0.1278   21.3825  -28.9730 H   0  0  0  0  0  0  0  0  0  0  0  0
    1.3550   19.9810  -28.2860 C   0  0  0  0  0  0  0  0  0  0  0  0
    2.1693   20.4609  -28.8486 H   0  0  0  0  0  0  0  0  0  0  0  0
    1.2735   20.3670  -27.2592 H   0  0  0  0  0  0  0  0  0  0  0  0
    1.6340   18.5890  -28.1890 O   0  0  0  0  0  0  0  0  0  0  0  0
    0.4680   17.7770  -28.0930 C   0  0  0  0  0  0  0  0  0  0  0  0
    0.1970   17.4384  -29.1039 H   0  0  0  0  0  0  0  0  0  0  0  0
    0.7138   16.9416  -27.4209 H   0  0  0  0  0  0  0  0  0  0  0  0
   -0.7440   18.5010  -27.4830 C   0  0  0  0  0  0  0  0  0  0  0  0
   -1.5905   17.8011  -27.4227 H   0  0  0  0  0  0  0  0  0  0  0  0
   -0.4744   18.8594  -26.4786 H   0  0  0  0  0  0  0  0  0  0  0  0
   -0.7210   23.2240  -27.4960 C   0  0  0  0  0  0  0  0  0  0  0  0
   -0.0121   22.7950  -26.7725 H   0  0  0  0  0  0  0  0  0  0  0  0
   -0.5340   24.5260  -27.9670 C   0  0  0  0  0  0  0  0  0  0  0  0
    0.3241   25.1180  -27.6160 H   0  0  0  0  0  0  0  0  0  0  0  0
   -1.4340   25.0790  -28.8830 C   0  0  0  0  0  0  0  0  0  0  0  0
   -1.2330   26.3760  -29.3430 O   0  0  0  0  0  0  0  0  0  0  0  0
   -6.4460   22.4690  -31.7940 C   0  0  0  0  0  0  0  0  0  0  0  0
   -7.3536   23.0397  -31.5479 H   0  0  0  0  0  0  0  0  0  0  0  0
   -6.5510   21.2600  -32.4850 C   0  0  0  0  0  0  0  0  0  0  0  0
   -7.5419   20.8766  -32.7699 H   0  0  0  0  0  0  0  0  0  0  0  0
  1  2  1  0
  2  3  2  0
  3  4  1  0
  4  5  1  0
  5  6  3  0
  4  7  2  0
  7  8  1  0
  7  9  1  0
  9 10  1  0
 10 11  1  0
 11 12  2  0
 12 13  1  0
 12 14  1  0
 14 15  1  0
 14 16  2  0
 16 17  1  0
 17 18  2  0
 17 19  2  0
 17 20  1  0
 20 21  1  0
 21 22  2  0
 22 23  1  0
 22 24  1  0
 24 25  1  0
 25 26  2  0
 25 27  2  0
 25 28  1  0
 28 29  1  0
 29 30  1  0
 29 31  1  0
 29 32  1  0
 32 33  1  0
 32 34  1  0
 32 35  1  0
 35 36  1  0
 36 37  1  0
 36 38  1  0
 36 39  1  0
 39 40  1  0
 39 41  1  0
 24 42  2  0
 42 43  1  0
 42 44  1  0
 44 45  1  0
 44 46  2  0
 46 47  1  0
 16 48  1  0
 48 49  1  0
 48 50  2  0
 50 51  1  0
 10  3  1  0
 50 11  1  0
 46 21  1  0
 39 28  1  0
M  CHG  3   9  -1  20  -1  47  -1
M  END
>  <UniqueID>  (39) 
38

>  <SMILES>  (39) 
[H]/N=c1/c(C#N)c[n-]n1-c1ccc(S(=O)(=O)[N-]c2cc(S(=O)(=O)N3CCOCC3)ccc2[O-])cc1

>  <Energy>  (39) 
107.21385525865547

>  <Genealogy>  (39) 
N#Cc1c[n-]n(-c2ccc(S(=O)(=O)[N-]c3cc(S(=O)(=O)N4CCOCC4)ccc3[O-])cc2)c1=N (protonated)
[H]/N=c1/c(C#N)c[n-]n1-c1ccc(S(=O)(=O)[N-]c2cc(S(=O)(=O)N3CCOCC3)ccc2[O-])cc1 (cis-trans isomerization)
[H]/N=c1/c(C#N)c[n-]n1-c1ccc(S(=O)(=O)[N-]c2cc(S(=O)(=O)N3CCOCC3)ccc2[O-])cc1 (3D coordinates assigned)
[H]/N=c1/c(C#N)c[n-]n1-c1ccc(S(=O)(=O)[N-]c2cc(S(=O)(=O)N3CCOCC3)ccc2[O-])cc1 (nonaromatic ring conformer: 107.21385525865547 kcal/mol)

>  <smiles>  (39) 
N#Cc1c[nH]n(-c2ccc(S(=O)(=O)Nc3cc(S(=O)(=O)N4CCOCC4)ccc3O)cc2)c1=N

>  <score_type>  (39) 
oracle

>  <origin>  (39) 
adgpu

>  <m_score__min__energy>  (39) 
-14.74

>  <m_primary>  (39) 
energy

$$$$
39:0
     RDKit          3D

 64 67  0  0  0  0  0  0  0  0999 V2000
   -4.9030   24.5630  -28.3720 N   0  0  0  0  0  0  0  0  0  0  0  0
   -5.1730   24.8400  -30.0570 S   0  0  0  0  0  0  0  0  0  0  0  0
   -3.8810   25.2540  -30.7060 O   0  0  0  0  0  0  0  0  0  0  0  0
   -6.1760   25.9460  -30.2310 O   0  0  0  0  0  0  0  0  0  0  0  0
   -5.7810   23.3670  -30.8080 C   0  0  0  0  0  0  0  0  0  0  0  0
   -5.1200   22.8040  -31.9100 C   0  0  0  0  0  0  0  0  0  0  0  0
   -5.6010   21.6280  -32.4920 C   0  0  0  0  0  0  0  0  0  0  0  0
   -6.7370   20.9960  -31.9690 C   0  0  0  0  0  0  0  0  0  0  0  0
   -7.3260   19.5080  -32.7080 S   0  0  0  0  0  0  0  0  0  0  0  0
   -7.1990   18.3940  -31.7070 O   0  0  0  0  0  0  0  0  0  0  0  0
   -8.7780   19.6460  -33.0760 O   0  0  0  0  0  0  0  0  0  0  0  0
   -6.3930   19.1010  -34.1210 N   0  0  0  0  0  0  0  0  0  0  0  0
   -6.3750   17.6570  -34.3720 C   0  0  0  0  0  0  0  0  0  0  0  0
   -5.1340   16.9820  -33.7730 C   0  0  0  0  0  0  0  0  0  0  0  0
   -3.9030   17.9000  -33.8000 C   0  0  0  0  0  0  0  0  0  0  0  0
   -3.8910   18.7830  -32.6340 N   0  0  0  0  0  0  0  0  0  0  0  0
   -2.9820   19.6800  -32.3930 C   0  0  0  0  0  0  0  0  0  0  0  0
   -3.0770   20.4400  -31.2740 N   0  0  0  0  0  0  0  0  0  0  0  0
   -2.1450   21.3920  -31.0020 C   0  0  0  0  0  0  0  0  0  0  0  0
   -2.2550   22.2070  -29.8160 N   0  0  0  0  0  0  0  0  0  0  0  0
   -1.5060   23.4670  -29.7170 C   0  0  0  0  0  0  0  0  0  0  0  0
   -1.2620   23.8230  -28.2480 C   0  0  0  0  0  0  0  0  0  0  0  0
   -2.4730   23.7970  -27.5180 O   0  0  0  0  0  0  0  0  0  0  0  0
   -2.9680   22.4740  -27.4720 C   0  0  0  0  0  0  0  0  0  0  0  0
   -3.3580   21.9860  -28.8710 C   0  0  0  0  0  0  0  0  0  0  0  0
   -1.1110   21.5740  -31.8670 N   0  0  0  0  0  0  0  0  0  0  0  0
   -1.0030   20.8190  -32.9930 C   0  0  0  0  0  0  0  0  0  0  0  0
    0.0970   21.0200  -33.9040 N   0  0  0  0  0  0  0  0  0  0  0  0
   -0.0760   21.8840  -35.0800 C   0  0  0  0  0  0  0  0  0  0  0  0
    1.2780   22.4110  -35.5620 C   0  0  0  0  0  0  0  0  0  0  0  0
    2.1990   21.3510  -35.7300 O   0  0  0  0  0  0  0  0  0  0  0  0
    2.4820   20.7680  -34.4750 C   0  0  0  0  0  0  0  0  0  0  0  0
    1.2380   20.0950  -33.8870 C   0  0  0  0  0  0  0  0  0  0  0  0
   -1.9450   19.8750  -33.2490 N   0  0  0  0  0  0  0  0  0  0  0  0
   -7.3970   21.5570  -30.8670 C   0  0  0  0  0  0  0  0  0  0  0  0
   -6.9190   22.7370  -30.2880 C   0  0  0  0  0  0  0  0  0  0  0  0
   -5.7230   24.9640  -27.8640 H   0  0  0  0  0  0  0  0  0  0  0  0
   -4.0760   25.1410  -28.1000 H   0  0  0  0  0  0  0  0  0  0  0  0
   -4.2208   23.2895  -32.3170 H   0  0  0  0  0  0  0  0  0  0  0  0
   -5.0862   21.1971  -33.3634 H   0  0  0  0  0  0  0  0  0  0  0  0
   -7.2738   17.2080  -33.9242 H   0  0  0  0  0  0  0  0  0  0  0  0
   -6.3518   17.5029  -35.4609 H   0  0  0  0  0  0  0  0  0  0  0  0
   -5.3488   16.7084  -32.7294 H   0  0  0  0  0  0  0  0  0  0  0  0
   -4.9061   16.0944  -34.3814 H   0  0  0  0  0  0  0  0  0  0  0  0
   -2.9923   17.2831  -33.7952 H   0  0  0  0  0  0  0  0  0  0  0  0
   -3.9414   18.5165  -34.7102 H   0  0  0  0  0  0  0  0  0  0  0  0
   -0.5390   23.3561  -30.2295 H   0  0  0  0  0  0  0  0  0  0  0  0
   -2.0910   24.2703  -30.1886 H   0  0  0  0  0  0  0  0  0  0  0  0
   -0.5621   23.0951  -27.8118 H   0  0  0  0  0  0  0  0  0  0  0  0
   -0.8403   24.8376  -28.1960 H   0  0  0  0  0  0  0  0  0  0  0  0
   -2.1896   21.8124  -27.0640 H   0  0  0  0  0  0  0  0  0  0  0  0
   -3.8625   22.4560  -26.8320 H   0  0  0  0  0  0  0  0  0  0  0  0
   -3.5893   20.9114  -28.8287 H   0  0  0  0  0  0  0  0  0  0  0  0
   -4.2391   22.5489  -29.2127 H   0  0  0  0  0  0  0  0  0  0  0  0
   -0.5477   21.3055  -35.8880 H   0  0  0  0  0  0  0  0  0  0  0  0
   -0.7121   22.7378  -34.8037 H   0  0  0  0  0  0  0  0  0  0  0  0
    1.1424   22.9267  -36.5241 H   0  0  0  0  0  0  0  0  0  0  0  0
    1.6745   23.1061  -34.8073 H   0  0  0  0  0  0  0  0  0  0  0  0
    3.2735   20.0143  -34.5992 H   0  0  0  0  0  0  0  0  0  0  0  0
    2.8086   21.5614  -33.7866 H   0  0  0  0  0  0  0  0  0  0  0  0
    0.9914   19.2048  -34.4842 H   0  0  0  0  0  0  0  0  0  0  0  0
    1.4474   19.8069  -32.8463 H   0  0  0  0  0  0  0  0  0  0  0  0
   -8.2929   21.0681  -30.4567 H   0  0  0  0  0  0  0  0  0  0  0  0
   -7.4384   23.1718  -29.4213 H   0  0  0  0  0  0  0  0  0  0  0  0
  1  2  1  0
  2  3  2  0
  2  4  2  0
  2  5  1  0
  5  6  2  0
  6  7  1  0
  7  8  2  0
  8  9  1  0
  9 10  2  0
  9 11  2  0
  9 12  1  0
 12 13  1  0
 13 14  1  0
 14 15  1  0
 15 16  1  0
 16 17  2  3
 17 18  1  0
 18 19  2  0
 19 20  1  0
 20 21  1  0
 21 22  1  0
 22 23  1  0
 23 24  1  0
 24 25  1  0
 19 26  1  0
 26 27  1  0
 27 28  1  0
 28 29  1  0
 29 30  1  0
 30 31  1  0
 31 32  1  0
 32 33  1  0
 27 34  2  0
  8 35  1  0
 35 36  2  0
 36  5  1  0
 34 17  1  0
 25 20  1  0
 33 28  1  0
  1 37  1  0
  1 38  1  0
  6 39  1  0
  7 40  1  0
 13 41  1  0
 13 42  1  0
 14 43  1  0
 14 44  1  0
 15 45  1  0
 15 46  1  0
 21 47  1  0
 21 48  1  0
 22 49  1  0
 22 50  1  0
 24 51  1  0
 24 52  1  0
 25 53  1  0
 25 54  1  0
 29 55  1  0
 29 56  1  0
 30 57  1  0
 30 58  1  0
 32 59  1  0
 32 60  1  0
 33 61  1  0
 33 62  1  0
 35 63  1  0
 36 64  1  0
M  CHG  2  12  -1  26  -1
M  END
>  <UniqueID>  (40) 
39

>  <SMILES>  (40) 
NS(=O)(=O)c1ccc(S(=O)(=O)[N-]CCCN=c2nc(N3CCOCC3)[n-]c(N3CCOCC3)n2)cc1

>  <Energy>  (40) 
64.18153566448018

>  <Genealogy>  (40) 
NS(=O)(=O)c1ccc(S(=O)(=O)[N-]CCCN=c2nc(N3CCOCC3)[n-]c(N3CCOCC3)n2)cc1 (protonated)
NS(=O)(=O)c1ccc(S(=O)(=O)[N-]CCCN=c2nc(N3CCOCC3)[n-]c(N3CCOCC3)n2)cc1 (3D coordinates assigned)
NS(=O)(=O)c1ccc(S(=O)(=O)[N-]CCCN=c2nc(N3CCOCC3)[n-]c(N3CCOCC3)n2)cc1 (nonaromatic ring conformer: 64.18153566448018 kcal/mol)

>  <smiles>  (40) 
NS(=O)(=O)c1ccc(S(=O)(=O)NCCCN=c2nc(N3CCOCC3)[nH]c(N3CCOCC3)n2)cc1

>  <score_type>  (40) 
oracle

>  <origin>  (40) 
adgpu

>  <m_score__min__energy>  (40) 
-11.289999999999999

>  <m_primary>  (40) 
energy

$$$$
40:0
     RDKit          3D

 45 48  0  0  0  0  0  0  0  0999 V2000
   -0.2440   16.9070  -26.3510 H   0  0  0  0  0  0  0  0  0  0  0  0
    0.1810   17.3850  -27.1370 O   0  0  0  0  0  0  0  0  0  0  0  0
   -0.1470   18.7000  -27.4650 C   0  0  0  0  0  0  0  0  0  0  0  0
   -1.4580   19.1460  -27.2670 C   0  0  0  0  0  0  0  0  0  0  0  0
   -2.2127   18.4601  -26.8548 H   0  0  0  0  0  0  0  0  0  0  0  0
   -1.8140   20.4580  -27.5900 C   0  0  0  0  0  0  0  0  0  0  0  0
   -2.8511   20.7958  -27.4476 H   0  0  0  0  0  0  0  0  0  0  0  0
   -0.8530   21.3450  -28.0950 C   0  0  0  0  0  0  0  0  0  0  0  0
   -1.2410   22.7090  -28.4930 C   0  0  0  0  0  0  0  0  0  0  0  0
   -2.2980   23.1110  -29.3040 C   0  0  0  0  0  0  0  0  0  0  0  0
   -3.1530   22.3050  -30.1210 N   0  0  0  0  0  0  0  0  0  0  0  0
   -3.0560   22.2610  -31.3890 N   0  0  0  0  0  0  0  0  0  0  0  0
   -3.9640   21.4780  -32.1830 C   0  0  0  0  0  0  0  0  0  0  0  0
   -3.4300   20.5220  -33.0720 C   0  0  0  0  0  0  0  0  0  0  0  0
   -1.9430   20.3850  -33.2410 C   0  0  0  0  0  0  0  0  0  0  0  0
   -1.4641   20.3409  -32.2517 H   0  0  0  0  0  0  0  0  0  0  0  0
   -1.7207   19.4626  -33.7975 H   0  0  0  0  0  0  0  0  0  0  0  0
   -1.5559   21.2513  -33.7975 H   0  0  0  0  0  0  0  0  0  0  0  0
   -4.2820   19.6550  -33.7660 C   0  0  0  0  0  0  0  0  0  0  0  0
   -3.8540   18.8939  -34.4350 H   0  0  0  0  0  0  0  0  0  0  0  0
   -5.6630   19.7430  -33.6210 C   0  0  0  0  0  0  0  0  0  0  0  0
   -6.4710   18.8480  -34.3180 O   0  0  0  0  0  0  0  0  0  0  0  0
   -6.2250   20.7290  -32.7940 C   0  0  0  0  0  0  0  0  0  0  0  0
   -7.6230   20.8480  -32.6760 C   0  0  0  0  0  0  0  0  0  0  0  0
   -8.2778   20.1382  -33.2028 H   0  0  0  0  0  0  0  0  0  0  0  0
   -8.1830   21.8580  -31.8970 C   0  0  0  0  0  0  0  0  0  0  0  0
   -9.2761   21.9338  -31.8005 H   0  0  0  0  0  0  0  0  0  0  0  0
   -7.3630   22.7720  -31.2400 C   0  0  0  0  0  0  0  0  0  0  0  0
   -7.8109   23.5793  -30.6419 H   0  0  0  0  0  0  0  0  0  0  0  0
   -5.9740   22.6670  -31.3380 C   0  0  0  0  0  0  0  0  0  0  0  0
   -5.3361   23.4035  -30.8275 H   0  0  0  0  0  0  0  0  0  0  0  0
   -5.3780   21.6260  -32.0850 C   0  0  0  0  0  0  0  0  0  0  0  0
   -2.2720   24.4900  -29.3310 C   0  0  0  0  0  0  0  0  0  0  0  0
   -3.1280   25.2930  -30.0770 O   0  0  0  0  0  0  0  0  0  0  0  0
   -1.2730   24.9610  -28.5610 N   0  0  0  0  0  0  0  0  0  0  0  0
   -0.8740   26.3570  -28.4070 C   0  0  0  0  0  0  0  0  0  0  0  0
   -0.8039   26.6024  -27.3370 H   0  0  0  0  0  0  0  0  0  0  0  0
    0.1048   26.5134  -28.8840 H   0  0  0  0  0  0  0  0  0  0  0  0
   -1.6223   27.0070  -28.8840 H   0  0  0  0  0  0  0  0  0  0  0  0
   -0.6340   23.8800  -28.0680 C   0  0  0  0  0  0  0  0  0  0  0  0
    0.4790   23.9500  -27.2380 O   0  0  0  0  0  0  0  0  0  0  0  0
    0.4610   20.8990  -28.2990 C   0  0  0  0  0  0  0  0  0  0  0  0
    1.2174   21.5883  -28.7024 H   0  0  0  0  0  0  0  0  0  0  0  0
    0.8130   19.5800  -27.9910 C   0  0  0  0  0  0  0  0  0  0  0  0
    2.1170   19.1510  -28.2100 O   0  0  0  0  0  0  0  0  0  0  0  0
  1  2  1  0
  2  3  1  0
  3  4  2  0
  4  5  1  0
  4  6  1  0
  6  7  1  0
  6  8  2  0
  8  9  1  0
  9 10  1  0
 10 11  1  0
 11 12  2  0
 12 13  1  0
 13 14  2  0
 14 15  1  0
 15 16  1  0
 15 17  1  0
 15 18  1  0
 14 19  1  0
 19 20  1  0
 19 21  2  0
 21 22  1  0
 21 23  1  0
 23 24  2  0
 24 25  1  0
 24 26  1  0
 26 27  1  0
 26 28  2  0
 28 29  1  0
 28 30  1  0
 30 31  1  0
 30 32  2  0
 10 33  2  0
 33 34  1  0
 33 35  1  0
 35 36  1  0
 36 37  1  0
 36 38  1  0
 36 39  1  0
 35 40  1  0
 40 41  1  0
  8 42  1  0
 42 43  1  0
 42 44  2  0
 44 45  1  0
 44  3  1  0
 40  9  2  0
 32 13  1  0
 32 23  1  0
M  CHG  4  22  -1  34  -1  41  -1  45  -1
M  END
>  <UniqueID>  (41) 
40

>  <SMILES>  (41) 
Cc1cc([O-])c2ccccc2c1/N=N/c1c(-c2ccc(O)c([O-])c2)c([O-])n(C)c1[O-]

>  <Energy>  (41) 
96.10300836657359

>  <Genealogy>  (41) 
Cc1cc([O-])c2ccccc2c1N=Nc1c(-c2ccc(O)c([O-])c2)c([O-])n(C)c1[O-] (protonated)
Cc1cc([O-])c2ccccc2c1/N=N/c1c(-c2ccc(O)c([O-])c2)c([O-])n(C)c1[O-] (cis-trans isomerization)
Cc1cc([O-])c2ccccc2c1/N=N/c1c(-c2ccc(O)c([O-])c2)c([O-])n(C)c1[O-] (3D coordinates assigned)
Cc1cc([O-])c2ccccc2c1/N=N/c1c(-c2ccc(O)c([O-])c2)c([O-])n(C)c1[O-] (optimized conformer: 96.10300836657359 kcal/mol)

>  <smiles>  (41) 
Cc1cc(O)c2ccccc2c1N=Nc1c(-c2ccc(O)c(O)c2)c(O)n(C)c1O

>  <score_type>  (41) 
oracle

>  <origin>  (41) 
adgpu

>  <m_score__min__energy>  (41) 
-12.17

>  <m_primary>  (41) 
energy

$$$$
41:0
     RDKit          3D

 50 52  0  0  0  0  0  0  0  0999 V2000
   -6.1360   25.1580  -30.8180 C   0  0  0  0  0  0  0  0  0  0  0  0
   -6.6190   23.7620  -31.1120 C   0  0  0  0  0  0  0  0  0  0  0  0
   -7.9920   23.5540  -31.3310 C   0  0  0  0  0  0  0  0  0  0  0  0
   -8.4810   22.2810  -31.6280 C   0  0  0  0  0  0  0  0  0  0  0  0
   -7.6070   21.1930  -31.7080 C   0  0  0  0  0  0  0  0  0  0  0  0
   -8.2150   19.5910  -32.1080 S   0  0  0  0  0  0  0  0  0  0  0  0
   -8.7340   18.9200  -30.8680 O   0  0  0  0  0  0  0  0  0  0  0  0
   -9.3480   19.6970  -33.0910 O   0  0  0  0  0  0  0  0  0  0  0  0
   -6.9060   18.6420  -32.8050 C   0  0  0  0  0  0  0  0  0  0  0  0
   -6.3890   18.9750  -34.0650 C   0  0  0  0  0  0  0  0  0  0  0  0
   -5.3640   18.2090  -34.6280 C   0  0  0  0  0  0  0  0  0  0  0  0
   -4.8560   17.1030  -33.9380 C   0  0  0  0  0  0  0  0  0  0  0  0
   -3.8640   16.3600  -34.4860 F   0  0  0  0  0  0  0  0  0  0  0  0
   -5.3760   16.7640  -32.6850 C   0  0  0  0  0  0  0  0  0  0  0  0
   -6.4010   17.5290  -32.1200 C   0  0  0  0  0  0  0  0  0  0  0  0
   -6.2360   21.3910  -31.5120 C   0  0  0  0  0  0  0  0  0  0  0  0
   -5.7270   22.6660  -31.2190 C   0  0  0  0  0  0  0  0  0  0  0  0
   -3.9810   22.8610  -30.9950 S   0  0  0  0  0  0  0  0  0  0  0  0
   -3.5410   22.1400  -29.7520 O   0  0  0  0  0  0  0  0  0  0  0  0
   -3.6660   24.3230  -30.8390 O   0  0  0  0  0  0  0  0  0  0  0  0
   -3.1530   22.1550  -32.3580 N   0  0  0  0  0  0  0  0  0  0  0  0
   -3.0180   20.6980  -32.2370 C   0  0  0  0  0  0  0  0  0  0  0  0
   -2.9550   20.0230  -33.6320 C   0  0  0  0  0  0  0  0  0  0  0  0
   -1.5640   19.4540  -33.9730 C   0  0  0  0  0  0  0  0  0  0  0  0
   -0.4710   20.3720  -33.5950 N   0  0  0  0  0  0  0  0  0  0  0  0
   -0.3970   21.5360  -34.4950 C   0  0  0  0  0  0  0  0  0  0  0  0
   -0.4790   20.7700  -32.1620 C   0  0  0  0  0  0  0  0  0  0  0  0
   -1.7670   20.3850  -31.4080 C   0  0  0  0  0  0  0  0  0  0  0  0
   -6.0846   25.3065  -29.7293 H   0  0  0  0  0  0  0  0  0  0  0  0
   -5.1365   25.2998  -31.2550 H   0  0  0  0  0  0  0  0  0  0  0  0
   -6.8341   25.8872  -31.2550 H   0  0  0  0  0  0  0  0  0  0  0  0
   -8.6881   24.4034  -31.2676 H   0  0  0  0  0  0  0  0  0  0  0  0
   -9.5575   22.1334  -31.7997 H   0  0  0  0  0  0  0  0  0  0  0  0
   -6.7908   19.8408  -34.6117 H   0  0  0  0  0  0  0  0  0  0  0  0
   -4.9566   18.4761  -35.6142 H   0  0  0  0  0  0  0  0  0  0  0  0
   -4.9779   15.8937  -32.1427 H   0  0  0  0  0  0  0  0  0  0  0  0
   -6.8114   17.2566  -31.1364 H   0  0  0  0  0  0  0  0  0  0  0  0
   -5.5478   20.5363  -31.5885 H   0  0  0  0  0  0  0  0  0  0  0  0
   -3.9028   20.2896  -31.7267 H   0  0  0  0  0  0  0  0  0  0  0  0
   -3.6839   19.1995  -33.6544 H   0  0  0  0  0  0  0  0  0  0  0  0
   -3.1814   20.7982  -34.3789 H   0  0  0  0  0  0  0  0  0  0  0  0
   -1.4294   18.5042  -33.4347 H   0  0  0  0  0  0  0  0  0  0  0  0
   -1.5189   19.3103  -35.0626 H   0  0  0  0  0  0  0  0  0  0  0  0
   -0.3384   22.4580  -33.8979 H   0  0  0  0  0  0  0  0  0  0  0  0
    0.4977   21.4526  -35.1295 H   0  0  0  0  0  0  0  0  0  0  0  0
   -1.2950   21.5665  -35.1295 H   0  0  0  0  0  0  0  0  0  0  0  0
    0.3717   20.2824  -31.6635 H   0  0  0  0  0  0  0  0  0  0  0  0
   -0.4140   21.8678  -32.1378 H   0  0  0  0  0  0  0  0  0  0  0  0
   -1.7441   19.3074  -31.1884 H   0  0  0  0  0  0  0  0  0  0  0  0
   -1.8122   20.9729  -30.4794 H   0  0  0  0  0  0  0  0  0  0  0  0
  1  2  1  0
  2  3  2  0
  3  4  1  0
  4  5  2  0
  5  6  1  0
  6  7  2  0
  6  8  2  0
  6  9  1  0
  9 10  2  0
 10 11  1  0
 11 12  2  0
 12 13  1  0
 12 14  1  0
 14 15  2  0
  5 16  1  0
 16 17  2  0
 17 18  1  0
 18 19  2  0
 18 20  2  0
 18 21  1  0
 21 22  1  0
 22 23  1  0
 23 24  1  0
 24 25  1  0
 25 26  1  0
 25 27  1  0
 27 28  1  0
 17  2  1  0
 28 22  1  0
 15  9  1  0
  1 29  1  0
  1 30  1  0
  1 31  1  0
  3 32  1  0
  4 33  1  0
 10 34  1  0
 11 35  1  0
 14 36  1  0
 15 37  1  0
 16 38  1  0
 22 39  1  0
 23 40  1  0
 23 41  1  0
 24 42  1  0
 24 43  1  0
 26 44  1  0
 26 45  1  0
 26 46  1  0
 27 47  1  0
 27 48  1  0
 28 49  1  0
 28 50  1  0
M  CHG  1  21  -1
M  END
>  <UniqueID>  (42) 
41

>  <SMILES>  (42) 
Cc1ccc(S(=O)(=O)c2ccc(F)cc2)cc1S(=O)(=O)[N-]C1CCN(C)CC1

>  <Energy>  (42) 
63.723710278139464

>  <Genealogy>  (42) 
Cc1ccc(S(=O)(=O)c2ccc(F)cc2)cc1S(=O)(=O)[N-]C1CCN(C)CC1 (protonated)
Cc1ccc(S(=O)(=O)c2ccc(F)cc2)cc1S(=O)(=O)[N-]C1CCN(C)CC1 (3D coordinates assigned)
Cc1ccc(S(=O)(=O)c2ccc(F)cc2)cc1S(=O)(=O)[N-]C1CCN(C)CC1 (nonaromatic ring conformer: 63.723710278139464 kcal/mol)

>  <smiles>  (42) 
Cc1ccc(S(=O)(=O)c2ccc(F)cc2)cc1S(=O)(=O)NC1CCN(C)CC1

>  <score_type>  (42) 
oracle

>  <origin>  (42) 
adgpu

>  <m_score__min__energy>  (42) 
-9.9900000000000002

>  <m_primary>  (42) 
energy

$$$$
42:0
     RDKit          3D

 42 44  0  0  0  0  0  0  0  0999 V2000
   -8.9740   21.0260  -31.5960 C   0  0  0  0  0  0  0  0  0  0  0  0
   -8.0190   22.1400  -31.3050 C   0  0  0  0  0  0  0  0  0  0  0  0
   -7.3440   22.7840  -32.3480 C   0  0  0  0  0  0  0  0  0  0  0  0
   -6.4510   23.8150  -32.0520 C   0  0  0  0  0  0  0  0  0  0  0  0
   -6.2400   24.2070  -30.7220 C   0  0  0  0  0  0  0  0  0  0  0  0
   -5.2900   25.2980  -30.4040 C   0  0  0  0  0  0  0  0  0  0  0  0
   -5.7360   26.4410  -30.1150 O   0  0  0  0  0  0  0  0  0  0  0  0
   -3.8690   25.1120  -30.4640 N   0  0  0  0  0  0  0  0  0  0  0  0
   -3.1730   23.8640  -30.3390 C   0  0  0  0  0  0  0  0  0  0  0  0
   -2.3690   23.5750  -29.2220 C   0  0  0  0  0  0  0  0  0  0  0  0
   -1.6930   22.3540  -29.1400 C   0  0  0  0  0  0  0  0  0  0  0  0
   -1.7980   21.4240  -30.1750 C   0  0  0  0  0  0  0  0  0  0  0  0
   -2.5740   21.7140  -31.3060 C   0  0  0  0  0  0  0  0  0  0  0  0
   -2.6900   20.5540  -32.6250 S   0  0  0  0  0  0  0  0  0  0  0  0
   -1.7400   20.9150  -33.7330 O   0  0  0  0  0  0  0  0  0  0  0  0
   -2.3410   19.1890  -32.1030 O   0  0  0  0  0  0  0  0  0  0  0  0
   -4.3060   20.5240  -33.2530 N   0  0  0  0  0  0  0  0  0  0  0  0
   -5.1230   19.3510  -33.3860 C   0  0  0  0  0  0  0  0  0  0  0  0
   -6.4410   19.3040  -32.8950 C   0  0  0  0  0  0  0  0  0  0  0  0
   -7.2040   18.1410  -33.0360 C   0  0  0  0  0  0  0  0  0  0  0  0
   -6.6630   17.0190  -33.6660 C   0  0  0  0  0  0  0  0  0  0  0  0
   -5.3570   17.0590  -34.1600 C   0  0  0  0  0  0  0  0  0  0  0  0
   -4.5840   18.2200  -34.0220 C   0  0  0  0  0  0  0  0  0  0  0  0
   -3.2800   18.2590  -34.5130 O   0  0  0  0  0  0  0  0  0  0  0  0
   -3.2570   22.9360  -31.3830 C   0  0  0  0  0  0  0  0  0  0  0  0
   -6.9260   23.5200  -29.7060 C   0  0  0  0  0  0  0  0  0  0  0  0
   -7.7890   22.5160  -30.0170 N   0  0  0  0  0  0  0  0  0  0  0  0
   -9.3394   20.5998  -30.6500 H   0  0  0  0  0  0  0  0  0  0  0  0
   -9.8243   21.4141  -32.1760 H   0  0  0  0  0  0  0  0  0  0  0  0
   -8.4606   20.2450  -32.1760 H   0  0  0  0  0  0  0  0  0  0  0  0
   -7.5156   22.4805  -33.3913 H   0  0  0  0  0  0  0  0  0  0  0  0
   -5.9106   24.3221  -32.8649 H   0  0  0  0  0  0  0  0  0  0  0  0
   -2.2717   24.3115  -28.4108 H   0  0  0  0  0  0  0  0  0  0  0  0
   -1.0770   22.1259  -28.2577 H   0  0  0  0  0  0  0  0  0  0  0  0
   -1.2708   20.4613  -30.1033 H   0  0  0  0  0  0  0  0  0  0  0  0
   -6.8725   20.1856  -32.3984 H   0  0  0  0  0  0  0  0  0  0  0  0
   -8.2334   18.1101  -32.6494 H   0  0  0  0  0  0  0  0  0  0  0  0
   -7.2645   16.1043  -33.7733 H   0  0  0  0  0  0  0  0  0  0  0  0
   -4.9333   16.1753  -34.6596 H   0  0  0  0  0  0  0  0  0  0  0  0
   -2.6390   19.0010  -34.2560 H   0  0  0  0  0  0  0  0  0  0  0  0
   -3.8636   23.1671  -32.2710 H   0  0  0  0  0  0  0  0  0  0  0  0
   -6.7641   23.7958  -28.6535 H   0  0  0  0  0  0  0  0  0  0  0  0
  1  2  1  0
  2  3  2  0
  3  4  1  0
  4  5  2  0
  5  6  1  0
  6  7  2  0
  6  8  1  0
  8  9  1  0
  9 10  2  0
 10 11  1  0
 11 12  2  0
 12 13  1  0
 13 14  1  0
 14 15  2  0
 14 16  2  0
 14 17  1  0
 17 18  1  0
 18 19  2  0
 19 20  1  0
 20 21  2  0
 21 22  1  0
 22 23  2  0
 23 24  1  0
 13 25  2  0
  5 26  1  0
 26 27  2  0
 27  2  1  0
 25  9  1  0
 23 18  1  0
  1 28  1  0
  1 29  1  0
  1 30  1  0
  3 31  1  0
  4 32  1  0
 10 33  1  0
 11 34  1  0
 12 35  1  0
 19 36  1  0
 20 37  1  0
 21 38  1  0
 22 39  1  0
 24 40  1  0
 25 41  1  0
 26 42  1  0
M  CHG  2   8  -1  17  -1
M  END
>  <UniqueID>  (43) 
42

>  <SMILES>  (43) 
Cc1ccc(C(=O)[N-]c2cccc(S(=O)(=O)[N-]c3ccccc3O)c2)cn1

>  <Energy>  (43) 
53.9725245975711

>  <Genealogy>  (43) 
Cc1ccc(C(=O)[N-]c2cccc(S(=O)(=O)[N-]c3ccccc3O)c2)cn1 (protonated)
Cc1ccc(C(=O)[N-]c2cccc(S(=O)(=O)[N-]c3ccccc3O)c2)cn1 (3D coordinates assigned)
Cc1ccc(C(=O)[N-]c2cccc(S(=O)(=O)[N-]c3ccccc3O)c2)cn1 (optimized conformer: 53.9725245975711 kcal/mol)

>  <smiles>  (43) 
Cc1ccc(C(=O)Nc2cccc(S(=O)(=O)Nc3ccccc3O)c2)cn1

>  <score_type>  (43) 
oracle

>  <origin>  (43) 
adgpu

>  <m_score__min__energy>  (43) 
-10.130000000000001

>  <m_primary>  (43) 
energy

$$$$
43:0
     RDKit          3D

 33 35  0  0  0  0  0  0  0  0999 V2000
   -3.4730   21.5880  -33.0830 C   0  0  0  0  0  0  0  0  0  0  0  0
   -4.5040   21.3740  -32.0630 N   0  0  0  0  0  0  0  0  0  0  0  0
   -5.5980   20.4630  -32.3220 C   0  0  0  0  0  0  0  0  0  0  0  0
   -5.2830   19.2320  -32.9360 C   0  0  0  0  0  0  0  0  0  0  0  0
   -6.2750   18.3230  -33.2880 C   0  0  0  0  0  0  0  0  0  0  0  0
   -7.6070   18.6200  -33.0420 C   0  0  0  0  0  0  0  0  0  0  0  0
   -7.9540   19.8190  -32.4250 C   0  0  0  0  0  0  0  0  0  0  0  0
   -6.9750   20.7610  -32.0330 C   0  0  0  0  0  0  0  0  0  0  0  0
   -7.4170   21.9640  -31.3420 N   0  0  0  0  0  0  0  0  0  0  0  0
   -8.6120   21.9190  -30.4910 C   0  0  0  0  0  0  0  0  0  0  0  0
   -6.4670   23.4160  -31.3210 S   0  0  0  0  0  0  0  0  0  0  0  0
   -6.0550   23.7930  -32.7170 O   0  0  0  0  0  0  0  0  0  0  0  0
   -7.2380   24.5580  -30.7190 O   0  0  0  0  0  0  0  0  0  0  0  0
   -5.0770   23.0190  -30.3470 C   0  0  0  0  0  0  0  0  0  0  0  0
   -4.8170   23.6590  -29.1280 C   0  0  0  0  0  0  0  0  0  0  0  0
   -3.7390   23.2410  -28.3410 C   0  0  0  0  0  0  0  0  0  0  0  0
   -2.9300   22.1820  -28.7650 C   0  0  0  0  0  0  0  0  0  0  0  0
   -3.1980   21.5410  -29.9800 C   0  0  0  0  0  0  0  0  0  0  0  0
   -4.2840   21.9500  -30.7660 C   0  0  0  0  0  0  0  0  0  0  0  0
   -2.5086   21.7882  -32.5932 H   0  0  0  0  0  0  0  0  0  0  0  0
   -3.3859   20.6888  -33.7106 H   0  0  0  0  0  0  0  0  0  0  0  0
   -3.7509   22.4476  -33.7106 H   0  0  0  0  0  0  0  0  0  0  0  0
   -4.2305   18.9862  -33.1405 H   0  0  0  0  0  0  0  0  0  0  0  0
   -6.0029   17.3682  -33.7617 H   0  0  0  0  0  0  0  0  0  0  0  0
   -8.3914   17.9066  -33.3350 H   0  0  0  0  0  0  0  0  0  0  0  0
   -9.0155   20.0388  -32.2380 H   0  0  0  0  0  0  0  0  0  0  0  0
   -8.3096   21.9304  -29.4334 H   0  0  0  0  0  0  0  0  0  0  0  0
   -9.2448   22.7940  -30.7009 H   0  0  0  0  0  0  0  0  0  0  0  0
   -9.1772   20.9989  -30.7009 H   0  0  0  0  0  0  0  0  0  0  0  0
   -5.4582   24.4869  -28.7913 H   0  0  0  0  0  0  0  0  0  0  0  0
   -3.5272   23.7460  -27.3870 H   0  0  0  0  0  0  0  0  0  0  0  0
   -2.0837   21.8531  -28.1441 H   0  0  0  0  0  0  0  0  0  0  0  0
   -2.5553   20.7150  -30.3186 H   0  0  0  0  0  0  0  0  0  0  0  0
  1  2  1  0
  2  3  1  0
  3  4  2  0
  4  5  1  0
  5  6  2  0
  6  7  1  0
  7  8  2  0
  8  9  1  0
  9 10  1  0
  9 11  1  0
 11 12  2  0
 11 13  2  0
 11 14  1  0
 14 15  2  0
 15 16  1  0
 16 17  2  0
 17 18  1  0
 18 19  2  0
 19  2  1  0
  8  3  1  0
 19 14  1  0
  1 20  1  0
  1 21  1  0
  1 22  1  0
  4 23  1  0
  5 24  1  0
  6 25  1  0
  7 26  1  0
 10 27  1  0
 10 28  1  0
 10 29  1  0
 15 30  1  0
 16 31  1  0
 17 32  1  0
 18 33  1  0
M  END
>  <UniqueID>  (44) 
43

>  <SMILES>  (44) 
CN1c2ccccc2N(C)S(=O)(=O)c2ccccc21

>  <Energy>  (44) 
61.03177812860122

>  <Genealogy>  (44) 
CN1c2ccccc2N(C)S(=O)(=O)c2ccccc21 (3D coordinates assigned)
CN1c2ccccc2N(C)S(=O)(=O)c2ccccc21 (nonaromatic ring conformer: 61.03177812860122 kcal/mol)

>  <smiles>  (44) 
CN1c2ccccc2N(C)S(=O)(=O)c2ccccc21

>  <score_type>  (44) 
oracle

>  <origin>  (44) 
adgpu

>  <m_score__min__energy>  (44) 
-7.0099999999999998

>  <m_primary>  (44) 
energy

$$$$
44:0
     RDKit          3D

 52 54  0  0  0  0  0  0  0  0999 V2000
   -3.6720   16.9670  -34.8630 C   0  0  0  0  0  0  0  0  0  0  0  0
   -5.0660   16.8010  -34.6250 O   0  0  0  0  0  0  0  0  0  0  0  0
   -5.8750   17.7400  -33.9680 C   0  0  0  0  0  0  0  0  0  0  0  0
   -6.8050   17.2780  -33.0290 C   0  0  0  0  0  0  0  0  0  0  0  0
   -7.6340   18.1760  -32.3500 C   0  0  0  0  0  0  0  0  0  0  0  0
   -7.5460   19.5500  -32.6070 C   0  0  0  0  0  0  0  0  0  0  0  0
   -8.5710   20.6840  -31.7350 S   0  0  0  0  0  0  0  0  0  0  0  0
   -9.0810   20.0480  -30.4720 O   0  0  0  0  0  0  0  0  0  0  0  0
   -9.7560   21.0570  -32.5820 O   0  0  0  0  0  0  0  0  0  0  0  0
   -7.6350   22.1220  -31.3480 C   0  0  0  0  0  0  0  0  0  0  0  0
   -7.3040   23.0380  -32.3550 C   0  0  0  0  0  0  0  0  0  0  0  0
   -6.5440   24.1720  -32.0550 C   0  0  0  0  0  0  0  0  0  0  0  0
   -6.1100   24.4040  -30.7390 C   0  0  0  0  0  0  0  0  0  0  0  0
   -5.2620   25.6020  -30.4230 C   0  0  0  0  0  0  0  0  0  0  0  0
   -3.8640   25.2870  -30.6820 N   0  0  0  0  0  0  0  0  0  0  0  0
   -3.0410   24.6000  -29.7390 C   0  0  0  0  0  0  0  0  0  0  0  0
   -2.1150   25.2260  -29.1570 O   0  0  0  0  0  0  0  0  0  0  0  0
   -3.2610   23.2110  -29.4640 N   0  0  0  0  0  0  0  0  0  0  0  0
   -3.0190   22.1420  -30.4300 C   0  0  0  0  0  0  0  0  0  0  0  0
   -1.5030   22.0390  -30.7100 C   0  0  0  0  0  0  0  0  0  0  0  0
   -1.1690   21.4420  -32.0940 C   0  0  0  0  0  0  0  0  0  0  0  0
   -2.2780   20.5150  -32.6000 C   0  0  0  0  0  0  0  0  0  0  0  0
   -3.6190   21.2620  -32.7470 C   0  0  0  0  0  0  0  0  0  0  0  0
   -3.8000   22.4070  -31.7280 C   0  0  0  0  0  0  0  0  0  0  0  0
   -6.4200   23.4710  -29.7370 C   0  0  0  0  0  0  0  0  0  0  0  0
   -7.1820   22.3380  -30.0390 C   0  0  0  0  0  0  0  0  0  0  0  0
   -6.6120   20.0210  -33.5390 C   0  0  0  0  0  0  0  0  0  0  0  0
   -5.7820   19.1240  -34.2190 C   0  0  0  0  0  0  0  0  0  0  0  0
   -3.1409   17.0302  -33.9018 H   0  0  0  0  0  0  0  0  0  0  0  0
   -3.2929   16.1077  -35.4355 H   0  0  0  0  0  0  0  0  0  0  0  0
   -3.5053   17.8913  -35.4355 H   0  0  0  0  0  0  0  0  0  0  0  0
   -6.8841   16.2002  -32.8239 H   0  0  0  0  0  0  0  0  0  0  0  0
   -8.3581   17.8020  -31.6112 H   0  0  0  0  0  0  0  0  0  0  0  0
   -7.6438   22.8639  -33.3866 H   0  0  0  0  0  0  0  0  0  0  0  0
   -6.2849   24.8850  -32.8516 H   0  0  0  0  0  0  0  0  0  0  0  0
   -5.5709   26.4474  -31.0553 H   0  0  0  0  0  0  0  0  0  0  0  0
   -5.3877   25.8721  -29.3641 H   0  0  0  0  0  0  0  0  0  0  0  0
   -3.3703   21.1860  -30.0144 H   0  0  0  0  0  0  0  0  0  0  0  0
   -1.0695   23.0484  -30.6529 H   0  0  0  0  0  0  0  0  0  0  0  0
   -1.0811   21.3591  -29.9552 H   0  0  0  0  0  0  0  0  0  0  0  0
   -1.0371   22.2638  -32.8131 H   0  0  0  0  0  0  0  0  0  0  0  0
   -0.2479   20.8488  -31.9956 H   0  0  0  0  0  0  0  0  0  0  0  0
   -1.9855   20.1103  -33.5801 H   0  0  0  0  0  0  0  0  0  0  0  0
   -2.4128   19.7071  -31.8658 H   0  0  0  0  0  0  0  0  0  0  0  0
   -3.6722   21.6861  -33.7606 H   0  0  0  0  0  0  0  0  0  0  0  0
   -4.4192   20.5312  -32.5585 H   0  0  0  0  0  0  0  0  0  0  0  0
   -3.4384   23.3440  -32.1767 H   0  0  0  0  0  0  0  0  0  0  0  0
   -4.8687   22.4769  -31.4770 H   0  0  0  0  0  0  0  0  0  0  0  0
   -6.0618   23.6319  -28.7095 H   0  0  0  0  0  0  0  0  0  0  0  0
   -7.4266   21.6144  -29.2474 H   0  0  0  0  0  0  0  0  0  0  0  0
   -6.5312   21.1001  -33.7366 H   0  0  0  0  0  0  0  0  0  0  0  0
   -5.0537   19.5000  -34.9526 H   0  0  0  0  0  0  0  0  0  0  0  0
  1  2  1  0
  2  3  1  0
  3  4  2  0
  4  5  1  0
  5  6  2  0
  6  7  1  0
  7  8  2  0
  7  9  2  0
  7 10  1  0
 10 11  2  0
 11 12  1  0
 12 13  2  0
 13 14  1  0
 14 15  1  0
 15 16  1  0
 16 17  2  0
 16 18  1  0
 18 19  1  0
 19 20  1  0
 20 21  1  0
 21 22  1  0
 22 23  1  0
 23 24  1  0
 13 25  1  0
 25 26  2  0
  6 27  1  0
 27 28  2  0
 28  3  1  0
 26 10  1  0
 24 19  1  0
  1 29  1  0
  1 30  1  0
  1 31  1  0
  4 32  1  0
  5 33  1  0
 11 34  1  0
 12 35  1  0
 14 36  1  0
 14 37  1  0
 19 38  1  0
 20 39  1  0
 20 40  1  0
 21 41  1  0
 21 42  1  0
 22 43  1  0
 22 44  1  0
 23 45  1  0
 23 46  1  0
 24 47  1  0
 24 48  1  0
 25 49  1  0
 26 50  1  0
 27 51  1  0
 28 52  1  0
M  CHG  2  15  -1  18  -1
M  END
>  <UniqueID>  (45) 
44

>  <SMILES>  (45) 
COc1ccc(S(=O)(=O)c2ccc(C[N-]C(=O)[N-]C3CCCCC3)cc2)cc1

>  <Energy>  (45) 
50.772455042077745

>  <Genealogy>  (45) 
COc1ccc(S(=O)(=O)c2ccc(C[N-]C(=O)[N-]C3CCCCC3)cc2)cc1 (protonated)
COc1ccc(S(=O)(=O)c2ccc(C[N-]C(=O)[N-]C3CCCCC3)cc2)cc1 (3D coordinates assigned)
COc1ccc(S(=O)(=O)c2ccc(C[N-]C(=O)[N-]C3CCCCC3)cc2)cc1 (nonaromatic ring conformer: 50.772455042077745 kcal/mol)

>  <smiles>  (45) 
COc1ccc(S(=O)(=O)c2ccc(CNC(=O)NC3CCCCC3)cc2)cc1

>  <score_type>  (45) 
oracle

>  <origin>  (45) 
adgpu

>  <m_score__min__energy>  (45) 
-13.65

>  <m_primary>  (45) 
energy

$$$$
45:0
     RDKit          3D

 45 47  0  0  0  0  0  0  0  0999 V2000
   -3.6070   25.8420  -29.5650 H   0  0  0  0  0  0  0  0  0  0  0  0
   -3.5020   25.0250  -30.2070 N   0  0  0  0  0  0  0  0  0  0  0  0
   -4.5310   24.4720  -30.7580 C   0  0  0  0  0  0  0  0  0  0  0  0
   -4.4370   23.4160  -31.5900 N   0  0  0  0  0  0  0  0  0  0  0  0
   -5.6220   23.0060  -32.0380 N   0  0  0  0  0  0  0  0  0  0  0  0
   -6.6520   23.7390  -31.5600 C   0  0  0  0  0  0  0  0  0  0  0  0
   -8.3660   23.4140  -31.9710 S   0  0  0  0  0  0  0  0  0  0  0  0
   -8.4560   21.8260  -31.0690 C   0  0  0  0  0  0  0  0  0  0  0  0
   -7.8546   21.8997  -30.1509 H   0  0  0  0  0  0  0  0  0  0  0  0
   -9.5091   21.6215  -30.8259 H   0  0  0  0  0  0  0  0  0  0  0  0
   -7.9330   20.6980  -31.9080 C   0  0  0  0  0  0  0  0  0  0  0  0
   -8.7340   20.0470  -32.6300 O   0  0  0  0  0  0  0  0  0  0  0  0
   -6.5210   20.4310  -31.9460 N   0  0  0  0  0  0  0  0  0  0  0  0
   -5.8890   21.1030  -31.4540 H   0  0  0  0  0  0  0  0  0  0  0  0
   -5.9060   19.4400  -32.7870 C   0  0  0  0  0  0  0  0  0  0  0  0
   -6.6620   18.4430  -33.4170 C   0  0  0  0  0  0  0  0  0  0  0  0
   -7.7534   18.4153  -33.2823 H   0  0  0  0  0  0  0  0  0  0  0  0
   -6.0360   17.4860  -34.2140 C   0  0  0  0  0  0  0  0  0  0  0  0
   -6.6408   16.7064  -34.7002 H   0  0  0  0  0  0  0  0  0  0  0  0
   -4.6430   17.5020  -34.4060 C   0  0  0  0  0  0  0  0  0  0  0  0
   -4.0320   16.4130  -35.2480 C   0  0  0  0  0  0  0  0  0  0  0  0
   -3.5995   15.6422  -34.5931 H   0  0  0  0  0  0  0  0  0  0  0  0
   -4.8084   15.9612  -35.8829 H   0  0  0  0  0  0  0  0  0  0  0  0
   -3.2418   16.8402  -35.8829 H   0  0  0  0  0  0  0  0  0  0  0  0
   -3.8660   18.4980  -33.7520 C   0  0  0  0  0  0  0  0  0  0  0  0
   -2.0960   18.6320  -33.9050 S   0  0  0  0  0  0  0  0  0  0  0  0
   -1.4800   18.1890  -32.6050 O   0  0  0  0  0  0  0  0  0  0  0  0
   -1.5670   17.7220  -34.9770 O   0  0  0  0  0  0  0  0  0  0  0  0
   -1.5850   20.2690  -34.2690 N   0  0  0  0  0  0  0  0  0  0  0  0
   -0.5030   20.2770  -35.2720 C   0  0  0  0  0  0  0  0  0  0  0  0
    0.1961   19.4559  -35.0552 H   0  0  0  0  0  0  0  0  0  0  0  0
   -0.9460   20.1481  -36.2705 H   0  0  0  0  0  0  0  0  0  0  0  0
    0.2600   21.6110  -35.2390 C   0  0  0  0  0  0  0  0  0  0  0  0
    1.0489   21.5762  -36.0048 H   0  0  0  0  0  0  0  0  0  0  0  0
   -0.4801   22.4031  -35.4253 H   0  0  0  0  0  0  0  0  0  0  0  0
    0.8670   21.9050  -33.9860 O   0  0  0  0  0  0  0  0  0  0  0  0
    0.2610   21.2420  -32.8850 C   0  0  0  0  0  0  0  0  0  0  0  0
    0.7312   20.2542  -32.7708 H   0  0  0  0  0  0  0  0  0  0  0  0
    0.4106   21.8779  -32.0000 H   0  0  0  0  0  0  0  0  0  0  0  0
   -1.2570   21.0440  -33.0520 C   0  0  0  0  0  0  0  0  0  0  0  0
   -1.6436   20.5062  -32.1737 H   0  0  0  0  0  0  0  0  0  0  0  0
   -1.7205   22.0371  -33.1468 H   0  0  0  0  0  0  0  0  0  0  0  0
   -4.5150   19.4380  -32.9360 C   0  0  0  0  0  0  0  0  0  0  0  0
   -3.9161   20.1902  -32.4016 H   0  0  0  0  0  0  0  0  0  0  0  0
   -6.1260   24.9680  -30.5320 S   0  0  0  0  0  0  0  0  0  0  0  0
  1  2  1  0
  2  3  2  0
  3  4  1  0
  4  5  1  0
  5  6  2  0
  6  7  1  0
  7  8  1  0
  8  9  1  0
  8 10  1  0
  8 11  1  0
 11 12  2  0
 11 13  1  0
 13 14  1  0
 13 15  1  0
 15 16  2  0
 16 17  1  0
 16 18  1  0
 18 19  1  0
 18 20  2  0
 20 21  1  0
 21 22  1  0
 21 23  1  0
 21 24  1  0
 20 25  1  0
 25 26  1  0
 26 27  2  0
 26 28  2  0
 26 29  1  0
 29 30  1  0
 30 31  1  0
 30 32  1  0
 30 33  1  0
 33 34  1  0
 33 35  1  0
 33 36  1  0
 36 37  1  0
 37 38  1  0
 37 39  1  0
 37 40  1  0
 40 41  1  0
 40 42  1  0
 25 43  2  0
 43 44  1  0
  6 45  1  0
 45  3  1  0
 43 15  1  0
 40 29  1  0
M  CHG  1   4  -1
M  END
>  <UniqueID>  (46) 
45

>  <SMILES>  (46) 
[H]/N=c1/[n-]nc(SCC(=O)Nc2ccc(C)c(S(=O)(=O)N3CCOCC3)c2)s1

>  <Energy>  (46) 
92.17081907324976

>  <Genealogy>  (46) 
Cc1ccc(NC(=O)CSc2n[n-]c(=N)s2)cc1S(=O)(=O)N1CCOCC1 (protonated)
[H]/N=c1/[n-]nc(SCC(=O)Nc2ccc(C)c(S(=O)(=O)N3CCOCC3)c2)s1 (cis-trans isomerization)
[H]/N=c1/[n-]nc(SCC(=O)Nc2ccc(C)c(S(=O)(=O)N3CCOCC3)c2)s1 (3D coordinates assigned)
[H]/N=c1/[n-]nc(SCC(=O)Nc2ccc(C)c(S(=O)(=O)N3CCOCC3)c2)s1 (nonaromatic ring conformer: 92.17081907324976 kcal/mol)

>  <smiles>  (46) 
Cc1ccc(NC(=O)CSc2n[nH]c(=N)s2)cc1S(=O)(=O)N1CCOCC1

>  <score_type>  (46) 
oracle

>  <origin>  (46) 
adgpu

>  <m_score__min__energy>  (46) 
-10.42

>  <m_primary>  (46) 
energy

$$$$
46:0
     RDKit          3D

 61 65  0  0  0  0  0  0  0  0999 V2000
   -1.9120   21.1620  -31.5760 C   0  0  0  0  0  0  0  0  0  0  0  0
   -2.7390   22.2030  -30.9300 N   0  0  0  0  0  0  0  0  0  0  0  0
   -2.1270   23.2590  -30.2910 C   0  0  0  0  0  0  0  0  0  0  0  0
   -0.8670   23.3510  -30.2600 O   0  0  0  0  0  0  0  0  0  0  0  0
   -2.8870   24.2460  -29.6500 C   0  0  0  0  0  0  0  0  0  0  0  0
   -2.2400   25.3150  -28.9570 N   0  0  0  0  0  0  0  0  0  0  0  0
   -1.2420   24.9860  -27.5840 S   0  0  0  0  0  0  0  0  0  0  0  0
   -1.8400   25.6040  -26.3500 O   0  0  0  0  0  0  0  0  0  0  0  0
    0.1190   25.5830  -27.8080 O   0  0  0  0  0  0  0  0  0  0  0  0
   -1.1010   23.2410  -27.3920 C   0  0  0  0  0  0  0  0  0  0  0  0
   -2.2440   22.4690  -27.1270 C   0  0  0  0  0  0  0  0  0  0  0  0
   -2.1430   21.0760  -27.0270 C   0  0  0  0  0  0  0  0  0  0  0  0
   -0.9020   20.4500  -27.1940 C   0  0  0  0  0  0  0  0  0  0  0  0
    0.2370   21.2140  -27.4650 C   0  0  0  0  0  0  0  0  0  0  0  0
    0.1380   22.6060  -27.5670 C   0  0  0  0  0  0  0  0  0  0  0  0
   -4.2750   24.1700  -29.6640 C   0  0  0  0  0  0  0  0  0  0  0  0
   -4.9040   23.1210  -30.3340 C   0  0  0  0  0  0  0  0  0  0  0  0
   -6.3030   23.0430  -30.3740 C   0  0  0  0  0  0  0  0  0  0  0  0
   -6.9100   22.0310  -31.0420 N   0  0  0  0  0  0  0  0  0  0  0  0
   -6.2050   21.0650  -31.6910 C   0  0  0  0  0  0  0  0  0  0  0  0
   -6.9110   20.0040  -32.3620 N   0  0  0  0  0  0  0  0  0  0  0  0
   -6.8510   19.8220  -33.8180 C   0  0  0  0  0  0  0  0  0  0  0  0
   -6.4790   18.3650  -34.1630 C   0  0  0  0  0  0  0  0  0  0  0  0
   -6.8980   17.3790  -33.1310 N   0  0  0  0  0  0  0  0  0  0  0  0
   -5.7830   16.9840  -32.2420 C   0  0  0  0  0  0  0  0  0  0  0  0
   -4.4710   17.0990  -32.9730 C   0  0  0  0  0  0  0  0  0  0  0  0
   -4.0340   16.0480  -33.7950 C   0  0  0  0  0  0  0  0  0  0  0  0
   -2.8200   16.1490  -34.4820 C   0  0  0  0  0  0  0  0  0  0  0  0
   -2.0360   17.3000  -34.3540 C   0  0  0  0  0  0  0  0  0  0  0  0
   -2.4650   18.3530  -33.5410 C   0  0  0  0  0  0  0  0  0  0  0  0
   -3.6800   18.2550  -32.8500 C   0  0  0  0  0  0  0  0  0  0  0  0
   -8.0830   17.8280  -32.3670 C   0  0  0  0  0  0  0  0  0  0  0  0
   -7.7930   19.1230  -31.5880 C   0  0  0  0  0  0  0  0  0  0  0  0
   -4.8000   21.0840  -31.6450 C   0  0  0  0  0  0  0  0  0  0  0  0
   -4.1220   22.1290  -30.9740 C   0  0  0  0  0  0  0  0  0  0  0  0
   -1.4249   20.5489  -30.8034 H   0  0  0  0  0  0  0  0  0  0  0  0
   -2.5511   20.5225  -32.2027 H   0  0  0  0  0  0  0  0  0  0  0  0
   -1.1446   21.6399  -32.2027 H   0  0  0  0  0  0  0  0  0  0  0  0
   -3.2201   22.9595  -26.9978 H   0  0  0  0  0  0  0  0  0  0  0  0
   -3.0390   20.4734  -26.8172 H   0  0  0  0  0  0  0  0  0  0  0  0
   -0.8230   19.3559  -27.1119 H   0  0  0  0  0  0  0  0  0  0  0  0
    1.2112   20.7208  -27.5981 H   0  0  0  0  0  0  0  0  0  0  0  0
    1.0347   23.2047  -27.7852 H   0  0  0  0  0  0  0  0  0  0  0  0
   -4.8750   24.9344  -29.1485 H   0  0  0  0  0  0  0  0  0  0  0  0
   -6.9099   23.8045  -29.8623 H   0  0  0  0  0  0  0  0  0  0  0  0
   -7.8331   20.0582  -34.2536 H   0  0  0  0  0  0  0  0  0  0  0  0
   -6.0834   20.4934  -34.2302 H   0  0  0  0  0  0  0  0  0  0  0  0
   -6.9636   18.0990  -35.1140 H   0  0  0  0  0  0  0  0  0  0  0  0
   -5.3816   18.3197  -34.2232 H   0  0  0  0  0  0  0  0  0  0  0  0
   -5.7681   17.6441  -31.3622 H   0  0  0  0  0  0  0  0  0  0  0  0
   -5.9279   15.9406  -31.9254 H   0  0  0  0  0  0  0  0  0  0  0  0
   -4.6487   15.1418  -33.8991 H   0  0  0  0  0  0  0  0  0  0  0  0
   -2.4814   15.3222  -35.1237 H   0  0  0  0  0  0  0  0  0  0  0  0
   -1.0806   17.3767  -34.8938 H   0  0  0  0  0  0  0  0  0  0  0  0
   -1.8486   19.2589  -33.4437 H   0  0  0  0  0  0  0  0  0  0  0  0
   -4.0158   19.0842  -32.2099 H   0  0  0  0  0  0  0  0  0  0  0  0
   -8.9120   18.0097  -33.0669 H   0  0  0  0  0  0  0  0  0  0  0  0
   -8.3465   17.0417  -31.6443 H   0  0  0  0  0  0  0  0  0  0  0  0
   -8.7406   19.6448  -31.3883 H   0  0  0  0  0  0  0  0  0  0  0  0
   -7.2948   18.8642  -30.6421 H   0  0  0  0  0  0  0  0  0  0  0  0
   -4.2253   20.2829  -32.1328 H   0  0  0  0  0  0  0  0  0  0  0  0
  1  2  1  0
  2  3  1  0
  3  4  2  0
  3  5  1  0
  5  6  1  0
  6  7  1  0
  7  8  2  0
  7  9  2  0
  7 10  1  0
 10 11  2  0
 11 12  1  0
 12 13  2  0
 13 14  1  0
 14 15  2  0
  5 16  2  0
 16 17  1  0
 17 18  2  0
 18 19  1  0
 19 20  2  0
 20 21  1  0
 21 22  1  0
 22 23  1  0
 23 24  1  0
 24 25  1  0
 25 26  1  0
 26 27  2  0
 27 28  1  0
 28 29  2  0
 29 30  1  0
 30 31  2  0
 24 32  1  0
 32 33  1  0
 20 34  1  0
 34 35  2  0
 35  2  1  0
 15 10  1  0
 35 17  1  0
 33 21  1  0
 31 26  1  0
  1 36  1  0
  1 37  1  0
  1 38  1  0
 11 39  1  0
 12 40  1  0
 13 41  1  0
 14 42  1  0
 15 43  1  0
 16 44  1  0
 18 45  1  0
 22 46  1  0
 22 47  1  0
 23 48  1  0
 23 49  1  0
 25 50  1  0
 25 51  1  0
 27 52  1  0
 28 53  1  0
 29 54  1  0
 30 55  1  0
 31 56  1  0
 32 57  1  0
 32 58  1  0
 33 59  1  0
 33 60  1  0
 34 61  1  0
M  CHG  1   6  -1
M  END
>  <UniqueID>  (47) 
46

>  <SMILES>  (47) 
Cn1c(=O)c([N-]S(=O)(=O)c2ccccc2)cc2cnc(N3CCN(Cc4ccccc4)CC3)cc21

>  <Energy>  (47) 
96.80171733389471

>  <Genealogy>  (47) 
Cn1c(=O)c([N-]S(=O)(=O)c2ccccc2)cc2cnc(N3CCN(Cc4ccccc4)CC3)cc21 (protonated)
Cn1c(=O)c([N-]S(=O)(=O)c2ccccc2)cc2cnc(N3CCN(Cc4ccccc4)CC3)cc21 (3D coordinates assigned)
Cn1c(=O)c([N-]S(=O)(=O)c2ccccc2)cc2cnc(N3CCN(Cc4ccccc4)CC3)cc21 (nonaromatic ring conformer: 96.80171733389471 kcal/mol)

>  <smiles>  (47) 
Cn1c(=O)c(NS(=O)(=O)c2ccccc2)cc2cnc(N3CCN(Cc4ccccc4)CC3)cc21

>  <score_type>  (47) 
oracle

>  <origin>  (47) 
adgpu

>  <m_score__min__energy>  (47) 
-11.859999999999999

>  <m_primary>  (47) 
energy

$$$$
47:0
     RDKit          3D

 57 61  0  0  0  0  0  0  0  0999 V2000
   -0.4950   24.3510  -23.8750 N   0  0  0  0  0  0  0  0  0  0  0  0
   -0.2740   23.3050  -25.2330 S   0  0  0  0  0  0  0  0  0  0  0  0
    1.1820   23.2580  -25.6040 O   0  0  0  0  0  0  0  0  0  0  0  0
   -0.7260   21.9170  -24.8740 O   0  0  0  0  0  0  0  0  0  0  0  0
   -1.2160   23.9070  -26.5940 C   0  0  0  0  0  0  0  0  0  0  0  0
   -0.8130   25.0620  -27.2760 C   0  0  0  0  0  0  0  0  0  0  0  0
   -1.5540   25.5300  -28.3640 C   0  0  0  0  0  0  0  0  0  0  0  0
   -2.6970   24.8330  -28.7950 C   0  0  0  0  0  0  0  0  0  0  0  0
   -3.4870   25.2930  -29.9020 N   0  0  0  0  0  0  0  0  0  0  0  0
   -4.5630   24.5780  -30.5260 C   0  0  0  0  0  0  0  0  0  0  0  0
   -5.7330   25.0330  -30.4150 O   0  0  0  0  0  0  0  0  0  0  0  0
   -4.3450   23.3030  -31.2470 C   0  0  0  0  0  0  0  0  0  0  0  0
   -5.3770   22.7170  -32.0010 C   0  0  0  0  0  0  0  0  0  0  0  0
   -5.1660   21.5100  -32.6720 C   0  0  0  0  0  0  0  0  0  0  0  0
   -3.9160   20.8710  -32.6140 C   0  0  0  0  0  0  0  0  0  0  0  0
   -3.6990   19.6180  -33.2960 N   0  0  0  0  0  0  0  0  0  0  0  0
   -2.3900   19.3170  -33.8200 C   0  0  0  0  0  0  0  0  0  0  0  0
   -1.6740   20.2150  -34.4340 N   0  0  0  0  0  0  0  0  0  0  0  0
   -0.1390   19.5840  -34.9000 S   0  0  0  0  0  0  0  0  0  0  0  0
    0.0280   19.5740  -36.3940 O   0  0  0  0  0  0  0  0  0  0  0  0
    0.9890   20.2830  -34.1950 O   0  0  0  0  0  0  0  0  0  0  0  0
   -0.4630   18.0150  -34.2530 C   0  0  0  0  0  0  0  0  0  0  0  0
    0.3470   16.8810  -34.2850 C   0  0  0  0  0  0  0  0  0  0  0  0
   -0.1530   15.6920  -33.7330 C   0  0  0  0  0  0  0  0  0  0  0  0
   -1.4470   15.6560  -33.1790 C   0  0  0  0  0  0  0  0  0  0  0  0
   -2.2480   16.8100  -33.1650 C   0  0  0  0  0  0  0  0  0  0  0  0
   -1.7290   17.9960  -33.6980 C   0  0  0  0  0  0  0  0  0  0  0  0
   -4.7560   18.6380  -33.3840 C   0  0  0  0  0  0  0  0  0  0  0  0
   -5.4660   18.2470  -32.2330 C   0  0  0  0  0  0  0  0  0  0  0  0
   -6.4830   17.2910  -32.3220 C   0  0  0  0  0  0  0  0  0  0  0  0
   -6.8000   16.7180  -33.5550 C   0  0  0  0  0  0  0  0  0  0  0  0
   -6.1020   17.0990  -34.7030 C   0  0  0  0  0  0  0  0  0  0  0  0
   -5.0830   18.0540  -34.6200 C   0  0  0  0  0  0  0  0  0  0  0  0
   -2.8800   21.4660  -31.8740 C   0  0  0  0  0  0  0  0  0  0  0  0
   -3.0900   22.6730  -31.2030 C   0  0  0  0  0  0  0  0  0  0  0  0
   -3.1050   23.6890  -28.1000 C   0  0  0  0  0  0  0  0  0  0  0  0
   -2.3640   23.2210  -27.0120 C   0  0  0  0  0  0  0  0  0  0  0  0
   -0.6950   23.7430  -23.0500 H   0  0  0  0  0  0  0  0  0  0  0  0
    0.4240   24.8130  -23.6930 H   0  0  0  0  0  0  0  0  0  0  0  0
    0.0895   25.6022  -26.9541 H   0  0  0  0  0  0  0  0  0  0  0  0
   -1.2423   26.4470  -28.8855 H   0  0  0  0  0  0  0  0  0  0  0  0
   -6.3572   23.2123  -32.0630 H   0  0  0  0  0  0  0  0  0  0  0  0
   -5.9846   21.0565  -33.2501 H   0  0  0  0  0  0  0  0  0  0  0  0
   -1.9750   21.2020  -34.5930 H   0  0  0  0  0  0  0  0  0  0  0  0
    1.3517   16.9174  -34.7313 H   0  0  0  0  0  0  0  0  0  0  0  0
    0.4683   14.7843  -33.7330 H   0  0  0  0  0  0  0  0  0  0  0  0
   -1.8334   14.7178  -32.7542 H   0  0  0  0  0  0  0  0  0  0  0  0
   -3.2636   16.7823  -32.7433 H   0  0  0  0  0  0  0  0  0  0  0  0
   -5.2198   18.6954  -31.2592 H   0  0  0  0  0  0  0  0  0  0  0  0
   -7.0341   16.9900  -31.4188 H   0  0  0  0  0  0  0  0  0  0  0  0
   -7.6000   15.9660  -33.6223 H   0  0  0  0  0  0  0  0  0  0  0  0
   -6.3538   16.6475  -35.6740 H   0  0  0  0  0  0  0  0  0  0  0  0
   -4.5348   18.3494  -35.5268 H   0  0  0  0  0  0  0  0  0  0  0  0
   -1.8958   20.9773  -31.8228 H   0  0  0  0  0  0  0  0  0  0  0  0
   -2.2672   23.1333  -30.6363 H   0  0  0  0  0  0  0  0  0  0  0  0
   -4.0146   23.1550  -28.4122 H   0  0  0  0  0  0  0  0  0  0  0  0
   -2.6828   22.3113  -26.4820 H   0  0  0  0  0  0  0  0  0  0  0  0
  1  2  1  0
  2  3  2  0
  2  4  2  0
  2  5  1  0
  5  6  2  0
  6  7  1  0
  7  8  2  0
  8  9  1  0
  9 10  1  0
 10 11  2  0
 10 12  1  0
 12 13  2  0
 13 14  1  0
 14 15  2  0
 15 16  1  0
 16 17  1  0
 17 18  2  0
 18 19  1  0
 19 20  2  0
 19 21  2  0
 19 22  1  0
 22 23  2  0
 23 24  1  0
 24 25  2  0
 25 26  1  0
 26 27  2  0
 16 28  1  0
 28 29  2  0
 29 30  1  0
 30 31  2  0
 31 32  1  0
 32 33  2  0
 15 34  1  0
 34 35  2  0
  8 36  1  0
 36 37  2  0
 37  5  1  0
 35 12  1  0
 27 17  1  0
 33 28  1  0
 27 22  1  0
  1 38  1  0
  1 39  1  0
  6 40  1  0
  7 41  1  0
 13 42  1  0
 14 43  1  0
 18 44  1  0
 23 45  1  0
 24 46  1  0
 25 47  1  0
 26 48  1  0
 29 49  1  0
 30 50  1  0
 31 51  1  0
 32 52  1  0
 33 53  1  0
 34 54  1  0
 35 55  1  0
 36 56  1  0
 37 57  1  0
M  CHG  2   9  -1  18   1
M  END
>  <UniqueID>  (48) 
47

>  <SMILES>  (48) 
NS(=O)(=O)c1ccc([N-]C(=O)c2ccc(N(C3=[NH+]S(=O)(=O)c4ccccc43)c3ccccc3)cc2)cc1

>  <Energy>  (48) 
104.51232971348044

>  <Genealogy>  (48) 
NS(=O)(=O)c1ccc([N-]C(=O)c2ccc(N(C3=[NH+]S(=O)(=O)c4ccccc43)c3ccccc3)cc2)cc1 (protonated)
NS(=O)(=O)c1ccc([N-]C(=O)c2ccc(N(C3=[NH+]S(=O)(=O)c4ccccc43)c3ccccc3)cc2)cc1 (3D coordinates assigned)
NS(=O)(=O)c1ccc([N-]C(=O)c2ccc(N(C3=[NH+]S(=O)(=O)c4ccccc43)c3ccccc3)cc2)cc1 (nonaromatic ring conformer: 104.51232971348044 kcal/mol)

>  <smiles>  (48) 
NS(=O)(=O)c1ccc(NC(=O)c2ccc(N(C3=NS(=O)(=O)c4ccccc43)c3ccccc3)cc2)cc1

>  <score_type>  (48) 
oracle

>  <origin>  (48) 
adgpu

>  <m_score__min__energy>  (48) 
-11.84

>  <m_primary>  (48) 
energy

$$$$
48:0
     RDKit          3D

 48 50  0  0  0  0  0  0  0  0999 V2000
   -4.3400   18.0020  -34.3360 O   0  0  0  0  0  0  0  0  0  0  0  0
   -5.1430   18.9730  -33.5160 S   0  0  0  0  0  0  0  0  0  0  0  0
   -6.2100   19.5650  -34.3930 O   0  0  0  0  0  0  0  0  0  0  0  0
   -5.8920   18.1400  -32.1870 N   0  0  0  0  0  0  0  0  0  0  0  0
   -7.2950   17.8730  -32.5040 C   0  0  0  0  0  0  0  0  0  0  0  0
   -8.1850   18.8930  -31.7720 C   0  0  0  0  0  0  0  0  0  0  0  0
   -8.5090   20.1060  -32.5600 N   0  0  0  0  0  0  0  0  0  0  0  0
   -7.5780   21.2210  -32.3450 C   0  0  0  0  0  0  0  0  0  0  0  0
   -8.2690   22.2500  -31.4630 C   0  0  0  0  0  0  0  0  0  0  0  0
   -9.7490   21.9120  -31.5170 C   0  0  0  0  0  0  0  0  0  0  0  0
   -9.8630   20.6240  -32.3210 C   0  0  0  0  0  0  0  0  0  0  0  0
   -4.0980   20.2620  -32.9210 C   0  0  0  0  0  0  0  0  0  0  0  0
   -2.7140   20.2060  -33.1350 C   0  0  0  0  0  0  0  0  0  0  0  0
   -1.8830   21.2110  -32.6300 C   0  0  0  0  0  0  0  0  0  0  0  0
   -2.4310   22.2760  -31.9090 C   0  0  0  0  0  0  0  0  0  0  0  0
   -3.8140   22.3380  -31.6870 C   0  0  0  0  0  0  0  0  0  0  0  0
   -4.5150   23.6800  -30.7890 S   0  0  0  0  0  0  0  0  0  0  0  0
   -5.3610   24.5010  -31.7220 O   0  0  0  0  0  0  0  0  0  0  0  0
   -5.3750   23.1780  -29.6630 O   0  0  0  0  0  0  0  0  0  0  0  0
   -3.2540   24.6800  -30.1390 N   0  0  0  0  0  0  0  0  0  0  0  0
   -2.4180   24.3380  -29.0240 C   0  0  0  0  0  0  0  0  0  0  0  0
   -2.5980   23.1480  -28.2950 C   0  0  0  0  0  0  0  0  0  0  0  0
   -1.7700   22.8560  -27.2060 C   0  0  0  0  0  0  0  0  0  0  0  0
   -0.7530   23.7400  -26.8430 C   0  0  0  0  0  0  0  0  0  0  0  0
   -0.5640   24.9230  -27.5640 C   0  0  0  0  0  0  0  0  0  0  0  0
   -1.3980   25.2260  -28.6460 C   0  0  0  0  0  0  0  0  0  0  0  0
   -1.2210   26.4210  -29.3340 O   0  0  0  0  0  0  0  0  0  0  0  0
   -4.6440   21.3270  -32.1900 C   0  0  0  0  0  0  0  0  0  0  0  0
   -7.4499   17.9624  -33.5894 H   0  0  0  0  0  0  0  0  0  0  0  0
   -7.5585   16.8552  -32.1807 H   0  0  0  0  0  0  0  0  0  0  0  0
   -9.1288   18.3953  -31.5044 H   0  0  0  0  0  0  0  0  0  0  0  0
   -7.6137   19.2335  -30.8959 H   0  0  0  0  0  0  0  0  0  0  0  0
   -6.6671   20.8557  -31.8483 H   0  0  0  0  0  0  0  0  0  0  0  0
   -7.2951   21.6724  -33.3074 H   0  0  0  0  0  0  0  0  0  0  0  0
   -7.8974   22.1807  -30.4300 H   0  0  0  0  0  0  0  0  0  0  0  0
   -8.0746   23.2761  -31.8084 H   0  0  0  0  0  0  0  0  0  0  0  0
  -10.1432   21.7631  -30.5009 H   0  0  0  0  0  0  0  0  0  0  0  0
  -10.3286   22.7248  -31.9789 H   0  0  0  0  0  0  0  0  0  0  0  0
  -10.4497   19.8842  -31.7566 H   0  0  0  0  0  0  0  0  0  0  0  0
  -10.3678   20.8193  -33.2786 H   0  0  0  0  0  0  0  0  0  0  0  0
   -2.2802   19.3691  -33.7018 H   0  0  0  0  0  0  0  0  0  0  0  0
   -0.7973   21.1635  -32.8002 H   0  0  0  0  0  0  0  0  0  0  0  0
   -1.7758   23.0669  -31.5151 H   0  0  0  0  0  0  0  0  0  0  0  0
   -3.3931   22.4444  -28.5826 H   0  0  0  0  0  0  0  0  0  0  0  0
   -1.9208   21.9281  -26.6348 H   0  0  0  0  0  0  0  0  0  0  0  0
   -0.0998   23.5060  -25.9894 H   0  0  0  0  0  0  0  0  0  0  0  0
    0.2414   25.6164  -27.2803 H   0  0  0  0  0  0  0  0  0  0  0  0
   -5.7285   21.3690  -32.0106 H   0  0  0  0  0  0  0  0  0  0  0  0
  1  2  2  0
  2  3  2  0
  2  4  1  0
  4  5  1  0
  5  6  1  0
  6  7  1  0
  7  8  1  0
  8  9  1  0
  9 10  1  0
 10 11  1  0
  2 12  1  0
 12 13  2  0
 13 14  1  0
 14 15  2  0
 15 16  1  0
 16 17  1  0
 17 18  2  0
 17 19  2  0
 17 20  1  0
 20 21  1  0
 21 22  2  0
 22 23  1  0
 23 24  2  0
 24 25  1  0
 25 26  2  0
 26 27  1  0
 16 28  2  0
 11  7  1  0
 28 12  1  0
 26 21  1  0
  5 29  1  0
  5 30  1  0
  6 31  1  0
  6 32  1  0
  8 33  1  0
  8 34  1  0
  9 35  1  0
  9 36  1  0
 10 37  1  0
 10 38  1  0
 11 39  1  0
 11 40  1  0
 13 41  1  0
 14 42  1  0
 15 43  1  0
 22 44  1  0
 23 45  1  0
 24 46  1  0
 25 47  1  0
 28 48  1  0
M  CHG  3   4  -1  20  -1  27  -1
M  END
>  <UniqueID>  (49) 
48

>  <SMILES>  (49) 
O=S(=O)([N-]CCN1CCCC1)c1cccc(S(=O)(=O)[N-]c2ccccc2[O-])c1

>  <Energy>  (49) 
53.77397552162878

>  <Genealogy>  (49) 
O=S(=O)([N-]CCN1CCCC1)c1cccc(S(=O)(=O)[N-]c2ccccc2[O-])c1 (protonated)
O=S(=O)([N-]CCN1CCCC1)c1cccc(S(=O)(=O)[N-]c2ccccc2[O-])c1 (3D coordinates assigned)
O=S(=O)([N-]CCN1CCCC1)c1cccc(S(=O)(=O)[N-]c2ccccc2[O-])c1 (nonaromatic ring conformer: 53.77397552162878 kcal/mol)

>  <smiles>  (49) 
O=S(=O)(NCCN1CCCC1)c1cccc(S(=O)(=O)Nc2ccccc2O)c1

>  <score_type>  (49) 
oracle

>  <origin>  (49) 
adgpu

>  <m_score__min__energy>  (49) 
-13.81

>  <m_primary>  (49) 
energy

$$$$
