0:0
     RDKit          3D

 45 47  0  0  1  0  0  0  0  0999 V2000
   -0.8710   29.1190  -26.2490 C   0  0  0  0  0  0  0  0  0  0  0  0
   -1.0640   27.8980  -25.4700 N   0  0  0  0  0  0  0  0  0  0  0  0
    0.0220   27.0000  -25.3420 C   0  0  0  0  0  0  0  0  0  0  0  0
    0.7670   26.9290  -24.1870 C   0  0  0  0  0  0  0  0  0  0  0  0
    1.8260   26.0780  -24.0120 C   0  0  0  0  0  0  0  0  0  0  0  0
    2.1670   25.2350  -25.0680 C   0  0  0  0  0  0  0  0  0  0  0  0
    1.4230   25.3020  -26.2310 C   0  0  0  0  0  0  0  0  0  0  0  0
    0.3590   26.1730  -26.3730 C   0  0  0  0  0  0  0  0  0  0  0  0
   -0.3370   26.1540  -27.6170 N   0  0  0  0  0  0  0  0  0  0  0  0
   -1.3080   25.3470  -27.8030 C   0  0  0  0  0  0  0  0  0  0  0  0
   -1.7430   24.4810  -26.8830 N   0  0  0  0  0  0  0  0  0  0  0  0
   -2.7690   23.6430  -27.1110 C   0  0  0  0  0  0  0  0  0  0  0  0
   -3.4570   23.6230  -28.3370 C   0  0  0  0  0  0  0  0  0  0  0  0
   -4.5650   22.6960  -28.5480 C   0  0  0  0  0  0  0  0  0  0  0  0
   -2.9850   24.5280  -29.2650 C   0  0  0  0  0  0  0  0  0  0  0  0
   -3.5050   24.6070  -30.3880 N   0  0  0  0  0  0  0  0  0  0  0  0
   -4.5740   23.8820  -30.9300 C   0  0  0  0  0  0  0  0  0  0  0  0
   -5.8600   24.4610  -30.7500 C   0  0  0  0  0  0  0  0  0  0  0  0
   -6.0110   25.7220  -29.9770 C   0  0  0  0  0  0  0  0  0  0  0  0
   -6.9480   23.8170  -31.3140 C   0  0  0  0  0  0  0  0  0  0  0  0
   -6.7770   22.6340  -32.0360 C   0  0  0  0  0  0  0  0  0  0  0  0
   -5.5290   22.0640  -32.2160 C   0  0  0  0  0  0  0  0  0  0  0  0
   -4.4440   22.7050  -31.6550 C   0  0  0  0  0  0  0  0  0  0  0  0
   -2.8250   22.0240  -31.8990 Cl  0  0  0  0  0  0  0  0  0  0  0  0
   -1.9340   25.3610  -28.9860 N   0  0  0  0  0  0  0  0  0  0  0  0
   -0.7362   29.9715  -25.5671 H   0  0  0  0  0  0  0  0  0  0  0  0
    0.0214   29.0121  -26.8832 H   0  0  0  0  0  0  0  0  0  0  0  0
   -1.7529   29.2926  -26.8832 H   0  0  0  0  0  0  0  0  0  0  0  0
   -1.9720   27.6960  -25.0260 H   0  0  0  0  0  0  0  0  0  0  0  0
    0.4959   27.5953  -23.3548 H   0  0  0  0  0  0  0  0  0  0  0  0
    2.3896   26.0606  -23.0675 H   0  0  0  0  0  0  0  0  0  0  0  0
    3.0087   24.5326  -24.9781 H   0  0  0  0  0  0  0  0  0  0  0  0
    1.6859   24.6412  -27.0702 H   0  0  0  0  0  0  0  0  0  0  0  0
   -1.2460   24.4760  -25.9600 H   0  0  0  0  0  0  0  0  0  0  0  0
   -3.0799   22.9516  -26.3139 H   0  0  0  0  0  0  0  0  0  0  0  0
   -4.9582   22.3670  -27.5748 H   0  0  0  0  0  0  0  0  0  0  0  0
   -5.3621   23.2001  -29.1141 H   0  0  0  0  0  0  0  0  0  0  0  0
   -4.2095   21.8224  -29.1141 H   0  0  0  0  0  0  0  0  0  0  0  0
   -5.9841   25.4976  -28.9005 H   0  0  0  0  0  0  0  0  0  0  0  0
   -5.1885   26.4075  -30.2293 H   0  0  0  0  0  0  0  0  0  0  0  0
   -6.9721   26.1939  -30.2293 H   0  0  0  0  0  0  0  0  0  0  0  0
   -7.9558   24.2408  -31.1924 H   0  0  0  0  0  0  0  0  0  0  0  0
   -7.6582   22.1419  -32.4735 H   0  0  0  0  0  0  0  0  0  0  0  0
   -5.4063   21.1317  -32.7868 H   0  0  0  0  0  0  0  0  0  0  0  0
   -1.6070   26.0360  -29.7210 H   0  0  0  0  0  0  0  0  0  0  0  0
  1  2  1  0
  2  3  1  0
  3  4  2  0
  4  5  1  0
  5  6  2  0
  6  7  1  0
  7  8  2  0
  8  9  1  0
  9 10  2  0
 10 11  1  0
 11 12  1  0
 12 13  2  0
 13 14  1  0
 13 15  1  0
 15 16  2  0
 16 17  1  0
 17 18  2  0
 18 19  1  0
 18 20  1  0
 20 21  2  0
 21 22  1  0
 22 23  2  0
 23 24  1  0
 15 25  1  0
  8  3  1  0
 25 10  1  0
 23 17  1  0
  1 26  1  0
  1 27  1  0
  1 28  1  0
  2 29  1  0
  4 30  1  0
  5 31  1  0
  6 32  1  0
  7 33  1  0
 11 34  1  0
 12 35  1  0
 14 36  1  0
 14 37  1  0
 14 38  1  0
 19 39  1  0
 19 40  1  0
 19 41  1  0
 20 42  1  0
 21 43  1  0
 22 44  1  0
 25 45  1  0
M  END
>  <smiles>  (1) 
CNc1ccccc1N=c1[nH]cc(C)c(=Nc2c(C)cccc2Cl)[nH]1

>  <score_type>  (1) 
oracle

>  <origin>  (1) 
adgpu

>  <m_score__min__energy>  (1) 
-8.7599999999999998

>  <m_primary>  (1) 
energy

$$$$
1:0
     RDKit          3D

 30 32  0  0  0  0  0  0  0  0999 V2000
   -0.7580   24.7010  -27.1130 C   0  0  0  0  0  0  0  0  0  0  0  0
   -2.0410   24.7740  -26.5670 C   0  0  0  0  0  0  0  0  0  0  0  0
   -3.1610   24.5450  -27.3720 C   0  0  0  0  0  0  0  0  0  0  0  0
   -3.0110   24.2300  -28.7360 C   0  0  0  0  0  0  0  0  0  0  0  0
   -4.2120   23.9960  -29.5770 C   0  0  0  0  0  0  0  0  0  0  0  0
   -5.2790   23.1930  -29.1420 C   0  0  0  0  0  0  0  0  0  0  0  0
   -6.3830   23.0120  -29.9730 C   0  0  0  0  0  0  0  0  0  0  0  0
   -6.4050   23.6360  -31.2190 C   0  0  0  0  0  0  0  0  0  0  0  0
   -7.8010   23.4240  -32.3190 S   0  0  0  0  0  0  0  0  0  0  0  0
   -7.7190   21.6360  -32.2250 C   0  0  0  0  0  0  0  0  0  0  0  0
   -8.7900   20.9040  -31.7010 C   0  0  0  0  0  0  0  0  0  0  0  0
   -8.7130   19.5120  -31.6360 C   0  0  0  0  0  0  0  0  0  0  0  0
   -7.5610   18.8680  -32.0940 C   0  0  0  0  0  0  0  0  0  0  0  0
   -6.5280   19.5970  -32.5960 N   0  0  0  0  0  0  0  0  0  0  0  0
   -6.5810   20.9540  -32.6700 C   0  0  0  0  0  0  0  0  0  0  0  0
   -5.3580   24.4140  -31.5950 N   0  0  0  0  0  0  0  0  0  0  0  0
   -4.3020   24.5890  -30.8000 N   0  0  0  0  0  0  0  0  0  0  0  0
   -1.7110   24.1700  -29.2770 C   0  0  0  0  0  0  0  0  0  0  0  0
   -0.5940   24.4020  -28.4680 C   0  0  0  0  0  0  0  0  0  0  0  0
    0.1221   24.8786  -26.4775 H   0  0  0  0  0  0  0  0  0  0  0  0
   -2.1709   25.0122  -25.5010 H   0  0  0  0  0  0  0  0  0  0  0  0
   -4.1686   24.6116  -26.9357 H   0  0  0  0  0  0  0  0  0  0  0  0
   -5.2436   22.7111  -28.1538 H   0  0  0  0  0  0  0  0  0  0  0  0
   -7.2265   22.3844  -29.6495 H   0  0  0  0  0  0  0  0  0  0  0  0
   -9.6901   21.4241  -31.3413 H   0  0  0  0  0  0  0  0  0  0  0  0
   -9.5511   18.9278  -31.2282 H   0  0  0  0  0  0  0  0  0  0  0  0
   -7.4892   17.7713  -32.0487 H   0  0  0  0  0  0  0  0  0  0  0  0
   -5.7287   21.5158  -33.0799 H   0  0  0  0  0  0  0  0  0  0  0  0
   -1.5738   23.9389  -30.3437 H   0  0  0  0  0  0  0  0  0  0  0  0
    0.4164   24.3489  -28.8996 H   0  0  0  0  0  0  0  0  0  0  0  0
  1  2  2  0
  2  3  1  0
  3  4  2  0
  4  5  1  0
  5  6  2  0
  6  7  1  0
  7  8  2  0
  8  9  1  0
  9 10  1  0
 10 11  2  0
 11 12  1  0
 12 13  2  0
 13 14  1  0
 14 15  2  0
  8 16  1  0
 16 17  2  0
  4 18  1  0
 18 19  2  0
 19  1  1  0
 17  5  1  0
 15 10  1  0
  1 20  1  0
  2 21  1  0
  3 22  1  0
  6 23  1  0
  7 24  1  0
 11 25  1  0
 12 26  1  0
 13 27  1  0
 15 28  1  0
 18 29  1  0
 19 30  1  0
M  END
>  <UniqueID>  (2) 
1

>  <SMILES>  (2) 
c1ccc(-c2ccc(Sc3cccnc3)nn2)cc1

>  <Energy>  (2) 
34.72939886969146

>  <Genealogy>  (2) 
c1ccc(-c2ccc(Sc3cccnc3)nn2)cc1 (3D coordinates assigned)
c1ccc(-c2ccc(Sc3cccnc3)nn2)cc1 (optimized conformer: 34.72939886969146 kcal/mol)

>  <smiles>  (2) 
c1ccc(-c2ccc(Sc3cccnc3)nn2)cc1

>  <score_type>  (2) 
oracle

>  <origin>  (2) 
adgpu

>  <m_score__min__energy>  (2) 
-8.0899999999999999

>  <m_primary>  (2) 
energy

$$$$
2:0
     RDKit          3D

 35 36  0  0  0  0  0  0  0  0999 V2000
   -3.0980   23.4430  -28.4650 C   0  0  0  0  0  0  0  0  0  0  0  0
   -2.6910   24.5860  -29.3310 C   0  0  0  0  0  0  0  0  0  0  0  0
   -1.7040   25.2950  -28.9980 O   0  0  0  0  0  0  0  0  0  0  0  0
   -3.4920   24.9290  -30.4680 N   0  0  0  0  0  0  0  0  0  0  0  0
   -4.7700   24.3720  -30.8120 C   0  0  0  0  0  0  0  0  0  0  0  0
   -4.8940   23.2620  -31.6690 C   0  0  0  0  0  0  0  0  0  0  0  0
   -6.1590   22.7540  -31.9810 C   0  0  0  0  0  0  0  0  0  0  0  0
   -7.3070   23.3500  -31.4490 C   0  0  0  0  0  0  0  0  0  0  0  0
   -8.9320   22.7190  -31.8790 S   0  0  0  0  0  0  0  0  0  0  0  0
   -8.7690   21.1840  -30.9060 C   0  0  0  0  0  0  0  0  0  0  0  0
   -9.0050   19.9770  -31.7720 C   0  0  0  0  0  0  0  0  0  0  0  0
   -9.8620   20.0530  -32.6920 O   0  0  0  0  0  0  0  0  0  0  0  0
   -8.2050   18.7900  -31.6750 N   0  0  0  0  0  0  0  0  0  0  0  0
   -7.1600   18.3800  -32.5680 C   0  0  0  0  0  0  0  0  0  0  0  0
   -6.5370   19.2880  -33.4400 C   0  0  0  0  0  0  0  0  0  0  0  0
   -5.5190   18.8550  -34.2950 C   0  0  0  0  0  0  0  0  0  0  0  0
   -5.0980   17.5210  -34.2650 C   0  0  0  0  0  0  0  0  0  0  0  0
   -3.8260   16.9760  -35.3430 Cl  0  0  0  0  0  0  0  0  0  0  0  0
   -5.6810   16.6260  -33.3620 C   0  0  0  0  0  0  0  0  0  0  0  0
   -6.6970   17.0590  -32.5060 C   0  0  0  0  0  0  0  0  0  0  0  0
   -7.1860   24.4300  -30.5680 C   0  0  0  0  0  0  0  0  0  0  0  0
   -5.9210   24.9290  -30.2420 C   0  0  0  0  0  0  0  0  0  0  0  0
   -2.9960   23.7294  -27.4079 H   0  0  0  0  0  0  0  0  0  0  0  0
   -4.1453   23.1793  -28.6740 H   0  0  0  0  0  0  0  0  0  0  0  0
   -2.4531   22.5768  -28.6740 H   0  0  0  0  0  0  0  0  0  0  0  0
   -3.9941   22.7934  -32.0940 H   0  0  0  0  0  0  0  0  0  0  0  0
   -6.2514   21.8832  -32.6467 H   0  0  0  0  0  0  0  0  0  0  0  0
   -7.7554   21.1314  -30.4820 H   0  0  0  0  0  0  0  0  0  0  0  0
   -9.5195   21.1941  -30.1019 H   0  0  0  0  0  0  0  0  0  0  0  0
   -6.8508   20.3423  -33.4502 H   0  0  0  0  0  0  0  0  0  0  0  0
   -5.0485   19.5640  -34.9921 H   0  0  0  0  0  0  0  0  0  0  0  0
   -5.3396   15.5810  -33.3257 H   0  0  0  0  0  0  0  0  0  0  0  0
   -7.1357   16.3591  -31.7796 H   0  0  0  0  0  0  0  0  0  0  0  0
   -8.0864   24.8869  -30.1315 H   0  0  0  0  0  0  0  0  0  0  0  0
   -5.8297   25.7649  -29.5328 H   0  0  0  0  0  0  0  0  0  0  0  0
  1  2  1  0
  2  3  2  0
  2  4  1  0
  4  5  1  0
  5  6  2  0
  6  7  1  0
  7  8  2  0
  8  9  1  0
  9 10  1  0
 10 11  1  0
 11 12  2  0
 11 13  1  0
 13 14  1  0
 14 15  2  0
 15 16  1  0
 16 17  2  0
 17 18  1  0
 17 19  1  0
 19 20  2  0
  8 21  1  0
 21 22  2  0
 22  5  1  0
 20 14  1  0
  1 23  1  0
  1 24  1  0
  1 25  1  0
  6 26  1  0
  7 27  1  0
 10 28  1  0
 10 29  1  0
 15 30  1  0
 16 31  1  0
 19 32  1  0
 20 33  1  0
 21 34  1  0
 22 35  1  0
M  CHG  2   4  -1  13  -1
M  END
>  <UniqueID>  (3) 
2

>  <SMILES>  (3) 
CC(=O)[N-]c1ccc(SCC(=O)[N-]c2ccc(Cl)cc2)cc1

>  <Energy>  (3) 
33.69626878317196

>  <Genealogy>  (3) 
CC(=O)[N-]c1ccc(SCC(=O)[N-]c2ccc(Cl)cc2)cc1 (protonated)
CC(=O)[N-]c1ccc(SCC(=O)[N-]c2ccc(Cl)cc2)cc1 (3D coordinates assigned)
CC(=O)[N-]c1ccc(SCC(=O)[N-]c2ccc(Cl)cc2)cc1 (optimized conformer: 33.69626878317196 kcal/mol)

>  <smiles>  (3) 
CC(=O)Nc1ccc(SCC(=O)Nc2ccc(Cl)cc2)cc1

>  <score_type>  (3) 
oracle

>  <origin>  (3) 
adgpu

>  <m_score__min__energy>  (3) 
-10.23

>  <m_primary>  (3) 
energy

$$$$
3:0
     RDKit          3D

 38 41  0  0  0  0  0  0  0  0999 V2000
   -8.7540   22.9510  -31.9720 Cl  0  0  0  0  0  0  0  0  0  0  0  0
   -8.1170   21.3210  -32.0890 C   0  0  0  0  0  0  0  0  0  0  0  0
   -8.8960   20.2360  -31.6810 C   0  0  0  0  0  0  0  0  0  0  0  0
   -8.3890   18.9370  -31.7730 C   0  0  0  0  0  0  0  0  0  0  0  0
   -7.0990   18.7150  -32.2700 C   0  0  0  0  0  0  0  0  0  0  0  0
   -6.4860   17.0670  -32.3180 Cl  0  0  0  0  0  0  0  0  0  0  0  0
   -6.3060   19.8060  -32.6780 C   0  0  0  0  0  0  0  0  0  0  0  0
   -4.9810   19.6020  -33.1970 N   0  0  0  0  0  0  0  0  0  0  0  0
   -4.7180   18.8450  -34.2510 N   0  0  0  0  0  0  0  0  0  0  0  0
   -3.4380   18.9370  -34.5840 N   0  0  0  0  0  0  0  0  0  0  0  0
   -2.8620   19.7940  -33.7180 C   0  0  0  0  0  0  0  0  0  0  0  0
   -3.8350   20.2170  -32.8350 C   0  0  0  0  0  0  0  0  0  0  0  0
   -3.6370   21.1270  -31.6840 C   0  0  0  0  0  0  0  0  0  0  0  0
   -4.1340   22.4380  -31.7310 C   0  0  0  0  0  0  0  0  0  0  0  0
   -3.9540   23.3030  -30.6480 C   0  0  0  0  0  0  0  0  0  0  0  0
   -3.2660   22.8750  -29.4980 C   0  0  0  0  0  0  0  0  0  0  0  0
   -3.0810   23.7900  -28.3440 C   0  0  0  0  0  0  0  0  0  0  0  0
   -1.8350   24.4020  -28.1060 C   0  0  0  0  0  0  0  0  0  0  0  0
   -1.6640   25.2630  -27.0180 C   0  0  0  0  0  0  0  0  0  0  0  0
   -2.7320   25.5240  -26.1560 C   0  0  0  0  0  0  0  0  0  0  0  0
   -3.9730   24.9240  -26.3810 C   0  0  0  0  0  0  0  0  0  0  0  0
   -4.1500   24.0610  -27.4670 C   0  0  0  0  0  0  0  0  0  0  0  0
   -2.7530   21.5670  -29.4610 C   0  0  0  0  0  0  0  0  0  0  0  0
   -2.9320   20.7030  -30.5460 C   0  0  0  0  0  0  0  0  0  0  0  0
   -6.8290   21.1080  -32.5890 C   0  0  0  0  0  0  0  0  0  0  0  0
   -9.9092   20.4040  -31.2870 H   0  0  0  0  0  0  0  0  0  0  0  0
   -9.0065   18.0846  -31.4534 H   0  0  0  0  0  0  0  0  0  0  0  0
   -1.8058   20.1013  -33.7153 H   0  0  0  0  0  0  0  0  0  0  0  0
   -4.6690   22.7876  -32.6263 H   0  0  0  0  0  0  0  0  0  0  0  0
   -4.3536   24.3268  -30.6953 H   0  0  0  0  0  0  0  0  0  0  0  0
   -0.9902   24.2010  -28.7812 H   0  0  0  0  0  0  0  0  0  0  0  0
   -0.6868   25.7358  -26.8403 H   0  0  0  0  0  0  0  0  0  0  0  0
   -2.5956   26.2018  -25.3004 H   0  0  0  0  0  0  0  0  0  0  0  0
   -4.8134   25.1309  -25.7021 H   0  0  0  0  0  0  0  0  0  0  0  0
   -5.1297   23.5909  -27.6376 H   0  0  0  0  0  0  0  0  0  0  0  0
   -2.2064   21.2202  -28.5716 H   0  0  0  0  0  0  0  0  0  0  0  0
   -2.5178   19.6847  -30.5077 H   0  0  0  0  0  0  0  0  0  0  0  0
   -6.2208   21.9646  -32.9149 H   0  0  0  0  0  0  0  0  0  0  0  0
  1  2  1  0
  2  3  2  0
  3  4  1  0
  4  5  2  0
  5  6  1  0
  5  7  1  0
  7  8  1  0
  8  9  1  0
  9 10  2  0
 10 11  1  0
 11 12  2  0
 12 13  1  0
 13 14  2  0
 14 15  1  0
 15 16  2  0
 16 17  1  0
 17 18  2  0
 18 19  1  0
 19 20  2  0
 20 21  1  0
 21 22  2  0
 16 23  1  0
 23 24  2  0
  7 25  2  0
 25  2  1  0
 12  8  1  0
 24 13  1  0
 22 17  1  0
  3 26  1  0
  4 27  1  0
 11 28  1  0
 14 29  1  0
 15 30  1  0
 18 31  1  0
 19 32  1  0
 20 33  1  0
 21 34  1  0
 22 35  1  0
 23 36  1  0
 24 37  1  0
 25 38  1  0
M  END
>  <UniqueID>  (4) 
3

>  <SMILES>  (4) 
Clc1ccc(Cl)c(-n2nncc2-c2ccc(-c3ccccc3)cc2)c1

>  <Energy>  (4) 
93.0716837609914

>  <Genealogy>  (4) 
Clc1ccc(Cl)c(-n2nncc2-c2ccc(-c3ccccc3)cc2)c1 (3D coordinates assigned)
Clc1ccc(Cl)c(-n2nncc2-c2ccc(-c3ccccc3)cc2)c1 (optimized conformer: 93.0716837609914 kcal/mol)

>  <smiles>  (4) 
Clc1ccc(Cl)c(-n2nncc2-c2ccc(-c3ccccc3)cc2)c1

>  <score_type>  (4) 
oracle

>  <origin>  (4) 
adgpu

>  <m_score__min__energy>  (4) 
-8.9700000000000006

>  <m_primary>  (4) 
energy

$$$$
4:0
     RDKit          3D

 26 27  0  0  0  0  0  0  0  0999 V2000
   -3.8640   25.6650  -30.5270 O   0  0  0  0  0  0  0  0  0  0  0  0
   -3.7120   24.3040  -30.2800 C   0  0  0  0  0  0  0  0  0  0  0  0
   -2.5240   23.8480  -29.6970 C   0  0  0  0  0  0  0  0  0  0  0  0
   -2.3370   22.4860  -29.4530 C   0  0  0  0  0  0  0  0  0  0  0  0
   -3.3340   21.5710  -29.7970 C   0  0  0  0  0  0  0  0  0  0  0  0
   -4.5230   22.0180  -30.3800 C   0  0  0  0  0  0  0  0  0  0  0  0
   -4.7320   23.3890  -30.6130 C   0  0  0  0  0  0  0  0  0  0  0  0
   -6.0190   23.8460  -31.2590 C   0  0  0  0  0  0  0  0  0  0  0  0
   -6.3920   22.9610  -32.3650 N   0  0  0  0  0  0  0  0  0  0  0  0
   -7.3100   21.8580  -32.2500 C   0  0  0  0  0  0  0  0  0  0  0  0
   -6.9290   20.5920  -32.7170 C   0  0  0  0  0  0  0  0  0  0  0  0
   -7.8050   19.5090  -32.6130 C   0  0  0  0  0  0  0  0  0  0  0  0
   -9.0630   19.7010  -32.0420 C   0  0  0  0  0  0  0  0  0  0  0  0
   -9.4260   20.9320  -31.5960 N   0  0  0  0  0  0  0  0  0  0  0  0
   -8.5910   22.0020  -31.6860 C   0  0  0  0  0  0  0  0  0  0  0  0
   -1.7343   24.5657  -29.4299 H   0  0  0  0  0  0  0  0  0  0  0  0
   -1.4037   22.1336  -28.9895 H   0  0  0  0  0  0  0  0  0  0  0  0
   -3.1836   20.4977  -29.6090 H   0  0  0  0  0  0  0  0  0  0  0  0
   -5.3010   21.2920  -30.6586 H   0  0  0  0  0  0  0  0  0  0  0  0
   -6.8215   23.8400  -30.5067 H   0  0  0  0  0  0  0  0  0  0  0  0
   -5.8717   24.8613  -31.6558 H   0  0  0  0  0  0  0  0  0  0  0  0
   -5.9330   23.1340  -33.2890 H   0  0  0  0  0  0  0  0  0  0  0  0
   -5.9354   20.4510  -33.1675 H   0  0  0  0  0  0  0  0  0  0  0  0
   -7.5059   18.5152  -32.9776 H   0  0  0  0  0  0  0  0  0  0  0  0
   -9.7613   18.8557  -31.9528 H   0  0  0  0  0  0  0  0  0  0  0  0
   -8.9188   22.9847  -31.3160 H   0  0  0  0  0  0  0  0  0  0  0  0
  1  2  1  0
  2  3  2  0
  3  4  1  0
  4  5  2  0
  5  6  1  0
  6  7  2  0
  7  8  1  0
  8  9  1  0
  9 10  1  0
 10 11  2  0
 11 12  1  0
 12 13  2  0
 13 14  1  0
 14 15  2  0
  7  2  1  0
 15 10  1  0
  3 16  1  0
  4 17  1  0
  5 18  1  0
  6 19  1  0
  8 20  1  0
  8 21  1  0
  9 22  1  0
 11 23  1  0
 12 24  1  0
 13 25  1  0
 15 26  1  0
M  CHG  1   1  -1
M  END
>  <UniqueID>  (5) 
4

>  <SMILES>  (5) 
[O-]c1ccccc1CNc1cccnc1

>  <Energy>  (5) 
27.855695060384157

>  <Genealogy>  (5) 
[O-]c1ccccc1CNc1cccnc1 (protonated)
[O-]c1ccccc1CNc1cccnc1 (3D coordinates assigned)
[O-]c1ccccc1CNc1cccnc1 (optimized conformer: 27.855695060384157 kcal/mol)

>  <smiles>  (5) 
Oc1ccccc1CNc1cccnc1

>  <score_type>  (5) 
oracle

>  <origin>  (5) 
adgpu

>  <m_score__min__energy>  (5) 
-9.1099999999999994

>  <m_primary>  (5) 
energy

$$$$
5:0
     RDKit          3D

 27 28  0  0  0  0  0  0  0  0999 V2000
   -6.9256   17.0231  -33.2532 H   0  0  0  0  0  0  0  0  0  0  0  0
   -7.2360   18.0280  -32.9310 C   0  0  0  0  0  0  0  0  0  0  0  0
   -8.2550   18.1750  -31.9850 C   0  0  0  0  0  0  0  0  0  0  0  0
   -8.7471   17.2856  -31.5645 H   0  0  0  0  0  0  0  0  0  0  0  0
   -8.6490   19.4520  -31.5730 C   0  0  0  0  0  0  0  0  0  0  0  0
   -9.4558   19.5645  -30.8338 H   0  0  0  0  0  0  0  0  0  0  0  0
   -8.0190   20.5910  -32.0990 C   0  0  0  0  0  0  0  0  0  0  0  0
   -8.4700   21.9680  -31.6830 C   0  0  0  0  0  0  0  0  0  0  0  0
   -8.5929   21.9896  -30.5901 H   0  0  0  0  0  0  0  0  0  0  0  0
   -9.4228   22.1876  -32.1869 H   0  0  0  0  0  0  0  0  0  0  0  0
   -7.4490   23.0380  -32.0920 C   0  0  0  0  0  0  0  0  0  0  0  0
   -7.7750   24.0125  -31.6996 H   0  0  0  0  0  0  0  0  0  0  0  0
   -7.3907   23.0595  -33.1902 H   0  0  0  0  0  0  0  0  0  0  0  0
   -6.1190   22.7340  -31.5660 N   0  0  0  0  0  0  0  0  0  0  0  0
   -5.2440   23.6320  -31.2230 C   0  0  0  0  0  0  0  0  0  0  0  0
   -5.4230   24.9620  -31.3190 N   0  0  0  0  0  0  0  0  0  0  0  0
   -4.3010   25.4830  -30.8380 N   0  0  0  0  0  0  0  0  0  0  0  0
   -3.4700   24.5200  -30.4610 N   0  0  0  0  0  0  0  0  0  0  0  0
   -4.0380   23.3520  -30.7080 N   0  0  0  0  0  0  0  0  0  0  0  0
   -3.4830   22.0540  -30.3490 C   0  0  0  0  0  0  0  0  0  0  0  0
   -3.4438   21.9623  -29.2535 H   0  0  0  0  0  0  0  0  0  0  0  0
   -4.1189   21.2566  -30.7612 H   0  0  0  0  0  0  0  0  0  0  0  0
   -2.4672   21.9629  -30.7612 H   0  0  0  0  0  0  0  0  0  0  0  0
   -7.0030   20.4350  -33.0570 C   0  0  0  0  0  0  0  0  0  0  0  0
   -6.5135   21.3218  -33.4859 H   0  0  0  0  0  0  0  0  0  0  0  0
   -6.6120   19.1570  -33.4670 C   0  0  0  0  0  0  0  0  0  0  0  0
   -5.8118   19.0403  -34.2127 H   0  0  0  0  0  0  0  0  0  0  0  0
  1  2  1  0
  2  3  2  0
  3  4  1  0
  3  5  1  0
  5  6  1  0
  5  7  2  0
  7  8  1  0
  8  9  1  0
  8 10  1  0
  8 11  1  0
 11 12  1  0
 11 13  1  0
 11 14  1  0
 14 15  2  0
 15 16  1  0
 16 17  1  0
 17 18  2  0
 18 19  1  0
 19 20  1  0
 20 21  1  0
 20 22  1  0
 20 23  1  0
  7 24  1  0
 24 25  1  0
 24 26  2  0
 26 27  1  0
 26  2  1  0
 19 15  1  0
M  CHG  1  16  -1
M  END
>  <UniqueID>  (6) 
5

>  <SMILES>  (6) 
Cn1nn[n-]/c1=N\CCc1ccccc1

>  <Energy>  (6) 
64.16238423901505

>  <Genealogy>  (6) 
Cn1nn[n-]c1=NCCc1ccccc1 (protonated)
Cn1nn[n-]/c1=N\CCc1ccccc1 (cis-trans isomerization)
Cn1nn[n-]/c1=N\CCc1ccccc1 (3D coordinates assigned)
Cn1nn[n-]/c1=N\CCc1ccccc1 (optimized conformer: 64.16238423901505 kcal/mol)

>  <smiles>  (6) 
Cn1nn[nH]c1=NCCc1ccccc1

>  <score_type>  (6) 
oracle

>  <origin>  (6) 
adgpu

>  <m_score__min__energy>  (6) 
-8.1199999999999992

>  <m_primary>  (6) 
energy

$$$$
6:0
     RDKit          3D

 30 31  0  0  0  0  0  0  0  0999 V2000
   -3.8280   22.8840  -31.5620 C   0  0  0  0  0  0  0  0  0  0  0  0
   -5.2960   22.5740  -31.6710 C   0  0  0  0  0  0  0  0  0  0  0  0
   -5.7200   21.4530  -32.4030 C   0  0  0  0  0  0  0  0  0  0  0  0
   -7.0850   21.1440  -32.5240 C   0  0  0  0  0  0  0  0  0  0  0  0
   -7.4950   19.9690  -33.2490 N   0  0  0  0  0  0  0  0  0  0  0  0
   -6.8050   18.7080  -33.1950 C   0  0  0  0  0  0  0  0  0  0  0  0
   -6.1120   18.2520  -34.3270 C   0  0  0  0  0  0  0  0  0  0  0  0
   -5.4160   17.0390  -34.2910 C   0  0  0  0  0  0  0  0  0  0  0  0
   -5.3950   16.2790  -33.1190 C   0  0  0  0  0  0  0  0  0  0  0  0
   -4.7190   15.1050  -33.0840 F   0  0  0  0  0  0  0  0  0  0  0  0
   -6.0650   16.7340  -31.9790 C   0  0  0  0  0  0  0  0  0  0  0  0
   -6.7620   17.9460  -32.0130 C   0  0  0  0  0  0  0  0  0  0  0  0
   -8.0410   21.9610  -31.8830 C   0  0  0  0  0  0  0  0  0  0  0  0
   -9.5100   21.6500  -31.9730 C   0  0  0  0  0  0  0  0  0  0  0  0
   -7.6130   23.0710  -31.1390 C   0  0  0  0  0  0  0  0  0  0  0  0
   -6.2540   23.3840  -31.0360 C   0  0  0  0  0  0  0  0  0  0  0  0
   -5.7520   24.9220  -30.0050 Br  0  0  0  0  0  0  0  0  0  0  0  0
   -3.5437   22.9440  -30.5011 H   0  0  0  0  0  0  0  0  0  0  0  0
   -3.2479   22.0886  -32.0526 H   0  0  0  0  0  0  0  0  0  0  0  0
   -3.6190   23.8461  -32.0526 H   0  0  0  0  0  0  0  0  0  0  0  0
   -4.9728   20.8079  -32.8884 H   0  0  0  0  0  0  0  0  0  0  0  0
   -8.3600   20.0300  -33.8320 H   0  0  0  0  0  0  0  0  0  0  0  0
   -6.1161   18.8524  -35.2487 H   0  0  0  0  0  0  0  0  0  0  0  0
   -4.8849   16.6834  -35.1862 H   0  0  0  0  0  0  0  0  0  0  0  0
   -6.0438   16.1381  -31.0547 H   0  0  0  0  0  0  0  0  0  0  0  0
   -7.2792   18.3053  -31.1111 H   0  0  0  0  0  0  0  0  0  0  0  0
   -9.9288   21.5613  -30.9597 H   0  0  0  0  0  0  0  0  0  0  0  0
  -10.0237   22.4593  -32.5126 H   0  0  0  0  0  0  0  0  0  0  0  0
   -9.6517   20.7019  -32.5126 H   0  0  0  0  0  0  0  0  0  0  0  0
   -8.3559   23.7030  -30.6303 H   0  0  0  0  0  0  0  0  0  0  0  0
  1  2  1  0
  2  3  2  0
  3  4  1  0
  4  5  1  0
  5  6  1  0
  6  7  2  0
  7  8  1  0
  8  9  2  0
  9 10  1  0
  9 11  1  0
 11 12  2  0
  4 13  2  0
 13 14  1  0
 13 15  1  0
 15 16  2  0
 16 17  1  0
 16  2  1  0
 12  6  1  0
  1 18  1  0
  1 19  1  0
  1 20  1  0
  3 21  1  0
  5 22  1  0
  7 23  1  0
  8 24  1  0
 11 25  1  0
 12 26  1  0
 14 27  1  0
 14 28  1  0
 14 29  1  0
 15 30  1  0
M  END
>  <UniqueID>  (7) 
6

>  <SMILES>  (7) 
Cc1cc(Nc2ccc(F)cc2)c(C)cc1Br

>  <Energy>  (7) 
36.60587517518813

>  <Genealogy>  (7) 
Cc1cc(Nc2ccc(F)cc2)c(C)cc1Br (3D coordinates assigned)
Cc1cc(Nc2ccc(F)cc2)c(C)cc1Br (optimized conformer: 36.60587517518813 kcal/mol)

>  <smiles>  (7) 
Cc1cc(Nc2ccc(F)cc2)c(C)cc1Br

>  <score_type>  (7) 
oracle

>  <origin>  (7) 
adgpu

>  <m_score__min__energy>  (7) 
-7.5

>  <m_primary>  (7) 
energy

$$$$
7:0
     RDKit          3D

 23 24  0  0  0  0  0  0  0  0999 V2000
   -4.5660   24.9650  -30.9160 N   0  0  0  0  0  0  0  0  0  0  0  0
   -5.2630   24.0630  -31.1210 C   0  0  0  0  0  0  0  0  0  0  0  0
   -6.1300   22.9390  -31.3770 C   0  0  0  0  0  0  0  0  0  0  0  0
   -7.5020   23.0820  -31.1260 C   0  0  0  0  0  0  0  0  0  0  0  0
   -8.3840   22.0370  -31.4080 C   0  0  0  0  0  0  0  0  0  0  0  0
   -7.9060   20.8420  -31.9490 C   0  0  0  0  0  0  0  0  0  0  0  0
   -9.1170   19.4170  -32.3370 Br  0  0  0  0  0  0  0  0  0  0  0  0
   -6.5400   20.6880  -32.2030 C   0  0  0  0  0  0  0  0  0  0  0  0
   -5.6360   21.7260  -31.9140 C   0  0  0  0  0  0  0  0  0  0  0  0
   -4.1920   21.5180  -32.1880 C   0  0  0  0  0  0  0  0  0  0  0  0
   -3.2360   21.7370  -31.1820 C   0  0  0  0  0  0  0  0  0  0  0  0
   -1.8780   21.5250  -31.4420 C   0  0  0  0  0  0  0  0  0  0  0  0
   -1.4650   21.0870  -32.7030 C   0  0  0  0  0  0  0  0  0  0  0  0
    0.3890   20.7990  -33.0560 Br  0  0  0  0  0  0  0  0  0  0  0  0
   -2.4120   20.8560  -33.7060 C   0  0  0  0  0  0  0  0  0  0  0  0
   -3.7710   21.0660  -33.4500 C   0  0  0  0  0  0  0  0  0  0  0  0
   -7.8857   24.0228  -30.7045 H   0  0  0  0  0  0  0  0  0  0  0  0
   -9.4583   22.1556  -31.2034 H   0  0  0  0  0  0  0  0  0  0  0  0
   -6.1686   19.7461  -32.6330 H   0  0  0  0  0  0  0  0  0  0  0  0
   -3.5567   22.0765  -30.1860 H   0  0  0  0  0  0  0  0  0  0  0  0
   -1.1336   21.7035  -30.6521 H   0  0  0  0  0  0  0  0  0  0  0  0
   -2.0875   20.5086  -34.6980 H   0  0  0  0  0  0  0  0  0  0  0  0
   -4.5130   20.8766  -34.2397 H   0  0  0  0  0  0  0  0  0  0  0  0
  1  2  3  0
  2  3  1  0
  3  4  2  0
  4  5  1  0
  5  6  2  0
  6  7  1  0
  6  8  1  0
  8  9  2  0
  9 10  1  0
 10 11  2  0
 11 12  1  0
 12 13  2  0
 13 14  1  0
 13 15  1  0
 15 16  2  0
  9  3  1  0
 16 10  1  0
  4 17  1  0
  5 18  1  0
  8 19  1  0
 11 20  1  0
 12 21  1  0
 15 22  1  0
 16 23  1  0
M  END
>  <UniqueID>  (8) 
7

>  <SMILES>  (8) 
N#Cc1ccc(Br)cc1-c1ccc(Br)cc1

>  <Energy>  (8) 
30.455302838989752

>  <Genealogy>  (8) 
N#Cc1ccc(Br)cc1-c1ccc(Br)cc1 (3D coordinates assigned)
N#Cc1ccc(Br)cc1-c1ccc(Br)cc1 (optimized conformer: 30.455302838989752 kcal/mol)

>  <smiles>  (8) 
N#Cc1ccc(Br)cc1-c1ccc(Br)cc1

>  <score_type>  (8) 
oracle

>  <origin>  (8) 
adgpu

>  <m_score__min__energy>  (8) 
-7.8399999999999999

>  <m_primary>  (8) 
energy

$$$$
8:0
     RDKit          3D

 22 23  0  0  0  0  0  0  0  0999 V2000
   -5.6210   26.2820  -30.4770 O   0  0  0  0  0  0  0  0  0  0  0  0
   -4.9640   25.2370  -30.7240 C   0  0  0  0  0  0  0  0  0  0  0  0
   -3.5550   25.2280  -30.4600 N   0  0  0  0  0  0  0  0  0  0  0  0
   -2.9020   24.5450  -29.3800 C   0  0  0  0  0  0  0  0  0  0  0  0
   -1.6070   24.9000  -28.9580 C   0  0  0  0  0  0  0  0  0  0  0  0
   -1.0070   24.2270  -27.8900 C   0  0  0  0  0  0  0  0  0  0  0  0
   -1.6990   23.2090  -27.2260 C   0  0  0  0  0  0  0  0  0  0  0  0
   -1.1160   22.5580  -26.1890 F   0  0  0  0  0  0  0  0  0  0  0  0
   -2.9940   22.8690  -27.6250 C   0  0  0  0  0  0  0  0  0  0  0  0
   -3.5970   23.5400  -28.6940 C   0  0  0  0  0  0  0  0  0  0  0  0
   -5.6740   24.0430  -31.2190 C   0  0  0  0  0  0  0  0  0  0  0  0
   -5.1440   23.0340  -32.0210 C   0  0  0  0  0  0  0  0  0  0  0  0
   -6.0560   22.0080  -32.2960 C   0  0  0  0  0  0  0  0  0  0  0  0
   -7.2940   22.2040  -31.7040 C   0  0  0  0  0  0  0  0  0  0  0  0
   -8.7910   21.0310  -31.8300 Br  0  0  0  0  0  0  0  0  0  0  0  0
   -7.2640   23.6420  -30.8360 S   0  0  0  0  0  0  0  0  0  0  0  0
   -1.0657   25.7092  -29.4701 H   0  0  0  0  0  0  0  0  0  0  0  0
    0.0103   24.4982  -27.5714 H   0  0  0  0  0  0  0  0  0  0  0  0
   -3.5400   22.0727  -27.0979 H   0  0  0  0  0  0  0  0  0  0  0  0
   -4.6212   23.2776  -28.9975 H   0  0  0  0  0  0  0  0  0  0  0  0
   -4.1115   23.0428  -32.4003 H   0  0  0  0  0  0  0  0  0  0  0  0
   -5.8145   21.1343  -32.9191 H   0  0  0  0  0  0  0  0  0  0  0  0
  1  2  2  0
  2  3  1  0
  3  4  1  0
  4  5  2  0
  5  6  1  0
  6  7  2  0
  7  8  1  0
  7  9  1  0
  9 10  2  0
  2 11  1  0
 11 12  2  0
 12 13  1  0
 13 14  2  0
 14 15  1  0
 14 16  1  0
 10  4  1  0
 16 11  1  0
  5 17  1  0
  6 18  1  0
  9 19  1  0
 10 20  1  0
 12 21  1  0
 13 22  1  0
M  CHG  1   3  -1
M  END
>  <UniqueID>  (9) 
8

>  <SMILES>  (9) 
O=C([N-]c1ccc(F)cc1)c1ccc(Br)s1

>  <Energy>  (9) 
54.18723583303503

>  <Genealogy>  (9) 
O=C([N-]c1ccc(F)cc1)c1ccc(Br)s1 (protonated)
O=C([N-]c1ccc(F)cc1)c1ccc(Br)s1 (3D coordinates assigned)
O=C([N-]c1ccc(F)cc1)c1ccc(Br)s1 (optimized conformer: 54.18723583303503 kcal/mol)

>  <smiles>  (9) 
O=C(Nc1ccc(F)cc1)c1ccc(Br)s1

>  <score_type>  (9) 
oracle

>  <origin>  (9) 
adgpu

>  <m_score__min__energy>  (9) 
-8.1999999999999993

>  <m_primary>  (9) 
energy

$$$$
9:0
     RDKit          3D

 25 26  0  0  0  0  0  0  0  0999 V2000
   -8.5500   22.3520  -31.4070 C   0  0  0  0  0  0  0  0  0  0  0  0
   -7.2360   23.0400  -31.1830 C   0  0  0  0  0  0  0  0  0  0  0  0
   -7.1890   24.2740  -30.5200 C   0  0  0  0  0  0  0  0  0  0  0  0
   -5.9620   24.8980  -30.2770 C   0  0  0  0  0  0  0  0  0  0  0  0
   -4.7610   24.2800  -30.6660 C   0  0  0  0  0  0  0  0  0  0  0  0
   -3.4950   24.9190  -30.4520 N   0  0  0  0  0  0  0  0  0  0  0  0
   -2.6210   24.7100  -29.3350 C   0  0  0  0  0  0  0  0  0  0  0  0
   -1.9240   25.6730  -28.9200 O   0  0  0  0  0  0  0  0  0  0  0  0
   -2.4670   23.3830  -28.7120 C   0  0  0  0  0  0  0  0  0  0  0  0
   -3.4050   22.7490  -27.9200 C   0  0  0  0  0  0  0  0  0  0  0  0
   -2.8330   21.5500  -27.5530 C   0  0  0  0  0  0  0  0  0  0  0  0
   -1.5830   21.5280  -28.1380 C   0  0  0  0  0  0  0  0  0  0  0  0
   -1.3940   22.6340  -28.8190 O   0  0  0  0  0  0  0  0  0  0  0  0
   -4.8090   23.0470  -31.3390 C   0  0  0  0  0  0  0  0  0  0  0  0
   -3.2020   22.1780  -31.9140 Br  0  0  0  0  0  0  0  0  0  0  0  0
   -6.0400   22.4250  -31.5800 C   0  0  0  0  0  0  0  0  0  0  0  0
   -9.0084   22.1120  -30.4363 H   0  0  0  0  0  0  0  0  0  0  0  0
   -9.2192   23.0154  -31.9745 H   0  0  0  0  0  0  0  0  0  0  0  0
   -8.3860   21.4241  -31.9745 H   0  0  0  0  0  0  0  0  0  0  0  0
   -8.1221   24.7537  -30.1893 H   0  0  0  0  0  0  0  0  0  0  0  0
   -5.9362   25.8782  -29.7785 H   0  0  0  0  0  0  0  0  0  0  0  0
   -4.4009   23.1233  -27.6406 H   0  0  0  0  0  0  0  0  0  0  0  0
   -3.2817   20.7688  -26.9218 H   0  0  0  0  0  0  0  0  0  0  0  0
   -0.8555   20.7079  -28.0472 H   0  0  0  0  0  0  0  0  0  0  0  0
   -6.0691   21.4477  -32.0840 H   0  0  0  0  0  0  0  0  0  0  0  0
  1  2  1  0
  2  3  2  0
  3  4  1  0
  4  5  2  0
  5  6  1  0
  6  7  1  0
  7  8  2  0
  7  9  1  0
  9 10  2  0
 10 11  1  0
 11 12  2  0
 12 13  1  0
  5 14  1  0
 14 15  1  0
 14 16  2  0
 16  2  1  0
 13  9  1  0
  1 17  1  0
  1 18  1  0
  1 19  1  0
  3 20  1  0
  4 21  1  0
 10 22  1  0
 11 23  1  0
 12 24  1  0
 16 25  1  0
M  CHG  1   6  -1
M  END
>  <UniqueID>  (10) 
9

>  <SMILES>  (10) 
Cc1ccc([N-]C(=O)c2ccco2)c(Br)c1

>  <Energy>  (10) 
55.287066737284036

>  <Genealogy>  (10) 
Cc1ccc([N-]C(=O)c2ccco2)c(Br)c1 (protonated)
Cc1ccc([N-]C(=O)c2ccco2)c(Br)c1 (3D coordinates assigned)
Cc1ccc([N-]C(=O)c2ccco2)c(Br)c1 (optimized conformer: 55.287066737284036 kcal/mol)

>  <smiles>  (10) 
Cc1ccc(NC(=O)c2ccco2)c(Br)c1

>  <score_type>  (10) 
oracle

>  <origin>  (10) 
adgpu

>  <m_score__min__energy>  (10) 
-8.3599999999999994

>  <m_primary>  (10) 
energy

$$$$
10:0
     RDKit          3D

 43 45  0  0  0  0  0  0  0  0999 V2000
   -3.1250   18.6450  -33.1650 C   0  0  0  0  0  0  0  0  0  0  0  0
   -3.6500   17.4460  -33.8420 N   0  0  0  0  0  0  0  0  0  0  0  0
   -4.5660   17.7990  -34.9580 C   0  0  0  0  0  0  0  0  0  0  0  0
   -6.0580   17.6040  -34.6270 C   0  0  0  0  0  0  0  0  0  0  0  0
   -6.2930   17.8300  -33.1990 N   0  0  0  0  0  0  0  0  0  0  0  0
   -7.1910   18.8590  -32.7400 C   0  0  0  0  0  0  0  0  0  0  0  0
   -8.5760   18.6290  -32.7070 C   0  0  0  0  0  0  0  0  0  0  0  0
   -9.4430   19.6110  -32.2230 C   0  0  0  0  0  0  0  0  0  0  0  0
   -8.9390   20.8270  -31.7580 C   0  0  0  0  0  0  0  0  0  0  0  0
   -7.5560   21.0730  -31.7780 C   0  0  0  0  0  0  0  0  0  0  0  0
   -7.0280   22.3060  -31.2510 N   0  0  0  0  0  0  0  0  0  0  0  0
   -7.2970   22.6820  -29.8620 C   0  0  0  0  0  0  0  0  0  0  0  0
   -6.4640   23.3060  -32.1650 C   0  0  0  0  0  0  0  0  0  0  0  0
   -5.3500   24.0470  -31.4930 C   0  0  0  0  0  0  0  0  0  0  0  0
   -5.3820   25.3580  -31.0830 C   0  0  0  0  0  0  0  0  0  0  0  0
   -4.2410   25.6370  -30.4320 N   0  0  0  0  0  0  0  0  0  0  0  0
   -3.5520   24.4760  -30.4610 C   0  0  0  0  0  0  0  0  0  0  0  0
   -4.2020   23.4760  -31.0920 N   0  0  0  0  0  0  0  0  0  0  0  0
   -6.6890   20.0850  -32.2700 C   0  0  0  0  0  0  0  0  0  0  0  0
   -5.5200   17.0450  -32.2310 C   0  0  0  0  0  0  0  0  0  0  0  0
   -4.2420   16.4870  -32.8830 C   0  0  0  0  0  0  0  0  0  0  0  0
   -3.1855   18.5069  -32.0754 H   0  0  0  0  0  0  0  0  0  0  0  0
   -2.0761   18.8013  -33.4571 H   0  0  0  0  0  0  0  0  0  0  0  0
   -3.7215   19.5218  -33.4571 H   0  0  0  0  0  0  0  0  0  0  0  0
   -4.4042   18.8556  -35.2178 H   0  0  0  0  0  0  0  0  0  0  0  0
   -4.3322   17.1187  -35.7901 H   0  0  0  0  0  0  0  0  0  0  0  0
   -6.6562   18.3187  -35.2113 H   0  0  0  0  0  0  0  0  0  0  0  0
   -6.3503   16.5742  -34.8803 H   0  0  0  0  0  0  0  0  0  0  0  0
   -8.9801   17.6703  -33.0643 H   0  0  0  0  0  0  0  0  0  0  0  0
  -10.5272   19.4256  -32.2081 H   0  0  0  0  0  0  0  0  0  0  0  0
   -9.6270   21.5950  -31.3747 H   0  0  0  0  0  0  0  0  0  0  0  0
   -6.7918   21.9759  -29.1866 H   0  0  0  0  0  0  0  0  0  0  0  0
   -6.9202   23.6989  -29.6779 H   0  0  0  0  0  0  0  0  0  0  0  0
   -8.3811   22.6537  -29.6779 H   0  0  0  0  0  0  0  0  0  0  0  0
   -6.0761   22.8012  -33.0620 H   0  0  0  0  0  0  0  0  0  0  0  0
   -7.2517   24.0197  -32.4483 H   0  0  0  0  0  0  0  0  0  0  0  0
   -6.2072   26.0636  -31.2592 H   0  0  0  0  0  0  0  0  0  0  0  0
   -2.5547   24.3567  -30.0124 H   0  0  0  0  0  0  0  0  0  0  0  0
   -5.6052   20.2720  -32.2880 H   0  0  0  0  0  0  0  0  0  0  0  0
   -5.2420   17.6886  -31.3834 H   0  0  0  0  0  0  0  0  0  0  0  0
   -6.1372   16.2034  -31.8834 H   0  0  0  0  0  0  0  0  0  0  0  0
   -3.5055   16.2711  -32.0950 H   0  0  0  0  0  0  0  0  0  0  0  0
   -4.5105   15.5739  -33.4346 H   0  0  0  0  0  0  0  0  0  0  0  0
  1  2  1  0
  2  3  1  0
  3  4  1  0
  4  5  1  0
  5  6  1  0
  6  7  2  0
  7  8  1  0
  8  9  2  0
  9 10  1  0
 10 11  1  0
 11 12  1  0
 11 13  1  0
 13 14  1  0
 14 15  2  0
 15 16  1  0
 16 17  1  0
 17 18  2  0
 10 19  2  0
  5 20  1  0
 20 21  1  0
 21  2  1  0
 19  6  1  0
 18 14  1  0
  1 22  1  0
  1 23  1  0
  1 24  1  0
  3 25  1  0
  3 26  1  0
  4 27  1  0
  4 28  1  0
  7 29  1  0
  8 30  1  0
  9 31  1  0
 12 32  1  0
 12 33  1  0
 12 34  1  0
 13 35  1  0
 13 36  1  0
 15 37  1  0
 17 38  1  0
 19 39  1  0
 20 40  1  0
 20 41  1  0
 21 42  1  0
 21 43  1  0
M  CHG  1  16  -1
M  END
>  <UniqueID>  (11) 
10

>  <SMILES>  (11) 
CN1CCN(c2cccc(N(C)Cc3c[n-]cn3)c2)CC1

>  <Energy>  (11) 
83.21859129204442

>  <Genealogy>  (11) 
CN1CCN(c2cccc(N(C)Cc3c[n-]cn3)c2)CC1 (protonated)
CN1CCN(c2cccc(N(C)Cc3c[n-]cn3)c2)CC1 (3D coordinates assigned)
CN1CCN(c2cccc(N(C)Cc3c[n-]cn3)c2)CC1 (nonaromatic ring conformer: 83.21859129204442 kcal/mol)

>  <smiles>  (11) 
CN1CCN(c2cccc(N(C)Cc3c[nH]cn3)c2)CC1

>  <score_type>  (11) 
oracle

>  <origin>  (11) 
adgpu

>  <m_score__min__energy>  (11) 
-8.6500000000000004

>  <m_primary>  (11) 
energy

$$$$
11:0
     RDKit          3D

 29 30  0  0  0  0  0  0  0  0999 V2000
   -2.0790   25.4670  -28.8420 N   0  0  0  0  0  0  0  0  0  0  0  0
   -2.2500   24.1190  -28.3860 C   0  0  0  0  0  0  0  0  0  0  0  0
   -1.1110   23.3450  -28.1130 C   0  0  0  0  0  0  0  0  0  0  0  0
   -1.2350   22.0090  -27.7250 C   0  0  0  0  0  0  0  0  0  0  0  0
   -2.4990   21.4320  -27.6020 C   0  0  0  0  0  0  0  0  0  0  0  0
   -2.6530   19.7540  -27.1180 Cl  0  0  0  0  0  0  0  0  0  0  0  0
   -3.6430   22.1930  -27.8580 C   0  0  0  0  0  0  0  0  0  0  0  0
   -3.5350   23.5400  -28.2500 C   0  0  0  0  0  0  0  0  0  0  0  0
   -4.7220   24.3160  -28.4810 N   0  0  0  0  0  0  0  0  0  0  0  0
   -5.1890   24.8550  -30.0610 S   0  0  0  0  0  0  0  0  0  0  0  0
   -6.1300   26.0190  -29.9290 O   0  0  0  0  0  0  0  0  0  0  0  0
   -3.9680   25.2930  -30.8200 O   0  0  0  0  0  0  0  0  0  0  0  0
   -5.9510   23.5320  -30.9390 C   0  0  0  0  0  0  0  0  0  0  0  0
   -5.2010   22.3950  -31.2700 C   0  0  0  0  0  0  0  0  0  0  0  0
   -5.8020   21.3270  -31.9420 C   0  0  0  0  0  0  0  0  0  0  0  0
   -7.1550   21.3900  -32.2890 C   0  0  0  0  0  0  0  0  0  0  0  0
   -7.7370   20.3530  -32.9410 F   0  0  0  0  0  0  0  0  0  0  0  0
   -7.9080   22.5230  -31.9630 C   0  0  0  0  0  0  0  0  0  0  0  0
   -7.3090   23.5910  -31.2890 C   0  0  0  0  0  0  0  0  0  0  0  0
   -2.0540   26.2770  -28.1860 H   0  0  0  0  0  0  0  0  0  0  0  0
   -2.0560   25.6800  -29.8640 H   0  0  0  0  0  0  0  0  0  0  0  0
   -0.1115   23.7950  -28.2055 H   0  0  0  0  0  0  0  0  0  0  0  0
   -0.3353   21.4115  -27.5163 H   0  0  0  0  0  0  0  0  0  0  0  0
   -4.6373   21.7345  -27.7520 H   0  0  0  0  0  0  0  0  0  0  0  0
   -5.3110   24.6250  -27.6750 H   0  0  0  0  0  0  0  0  0  0  0  0
   -4.1359   22.3431  -31.0000 H   0  0  0  0  0  0  0  0  0  0  0  0
   -5.2100   20.4360  -32.1982 H   0  0  0  0  0  0  0  0  0  0  0  0
   -8.9721   22.5734  -32.2372 H   0  0  0  0  0  0  0  0  0  0  0  0
   -7.9035   24.4802  -31.0322 H   0  0  0  0  0  0  0  0  0  0  0  0
  1  2  1  0
  2  3  2  0
  3  4  1  0
  4  5  2  0
  5  6  1  0
  5  7  1  0
  7  8  2  0
  8  9  1  0
  9 10  1  0
 10 11  2  0
 10 12  2  0
 10 13  1  0
 13 14  2  0
 14 15  1  0
 15 16  2  0
 16 17  1  0
 16 18  1  0
 18 19  2  0
  8  2  1  0
 19 13  1  0
  1 20  1  0
  1 21  1  0
  3 22  1  0
  4 23  1  0
  7 24  1  0
  9 25  1  0
 14 26  1  0
 15 27  1  0
 18 28  1  0
 19 29  1  0
M  END
>  <UniqueID>  (12) 
11

>  <SMILES>  (12) 
Nc1ccc(Cl)cc1NS(=O)(=O)c1ccc(F)cc1

>  <Energy>  (12) 
34.063672176772236

>  <Genealogy>  (12) 
Nc1ccc(Cl)cc1NS(=O)(=O)c1ccc(F)cc1 (3D coordinates assigned)
Nc1ccc(Cl)cc1NS(=O)(=O)c1ccc(F)cc1 (optimized conformer: 34.063672176772236 kcal/mol)

>  <smiles>  (12) 
Nc1ccc(Cl)cc1NS(=O)(=O)c1ccc(F)cc1

>  <score_type>  (12) 
oracle

>  <origin>  (12) 
adgpu

>  <m_score__min__energy>  (12) 
-8.5099999999999998

>  <m_primary>  (12) 
energy

$$$$
12:0
     RDKit          3D

 36 38  0  0  0  0  0  0  0  0999 V2000
   -9.9160   21.1470  -32.0040 C   0  0  0  0  0  0  0  0  0  0  0  0
   -9.0210   20.0340  -32.5320 C   0  0  0  0  0  0  0  0  0  0  0  0
   -7.6180   20.3860  -32.3500 N   0  0  0  0  0  0  0  0  0  0  0  0
   -7.1450   21.3620  -31.5510 C   0  0  0  0  0  0  0  0  0  0  0  0
   -5.7770   21.4360  -31.7210 C   0  0  0  0  0  0  0  0  0  0  0  0
   -4.8860   22.4500  -31.1180 C   0  0  0  0  0  0  0  0  0  0  0  0
   -5.2660   23.8040  -31.0650 C   0  0  0  0  0  0  0  0  0  0  0  0
   -4.4210   24.7520  -30.4810 C   0  0  0  0  0  0  0  0  0  0  0  0
   -3.1970   24.3570  -29.9320 C   0  0  0  0  0  0  0  0  0  0  0  0
   -2.3580   25.3000  -29.3520 O   0  0  0  0  0  0  0  0  0  0  0  0
   -2.8210   23.0120  -29.9630 C   0  0  0  0  0  0  0  0  0  0  0  0
   -3.6630   22.0610  -30.5480 C   0  0  0  0  0  0  0  0  0  0  0  0
   -5.4830   20.4470  -32.6600 C   0  0  0  0  0  0  0  0  0  0  0  0
   -4.1550   20.0370  -33.1640 C   0  0  0  0  0  0  0  0  0  0  0  0
   -3.1720   20.9910  -33.4760 C   0  0  0  0  0  0  0  0  0  0  0  0
   -1.9150   20.5870  -33.9380 C   0  0  0  0  0  0  0  0  0  0  0  0
   -1.6220   19.2270  -34.0780 C   0  0  0  0  0  0  0  0  0  0  0  0
   -0.3670   18.8380  -34.5410 O   0  0  0  0  0  0  0  0  0  0  0  0
   -2.5910   18.2700  -33.7480 C   0  0  0  0  0  0  0  0  0  0  0  0
   -3.8480   18.6720  -33.2870 C   0  0  0  0  0  0  0  0  0  0  0  0
   -6.6260   19.8350  -33.0310 N   0  0  0  0  0  0  0  0  0  0  0  0
   -9.9062   21.1348  -30.9041 H   0  0  0  0  0  0  0  0  0  0  0  0
   -9.5443   22.1180  -32.3632 H   0  0  0  0  0  0  0  0  0  0  0  0
  -10.9441   20.9923  -32.3632 H   0  0  0  0  0  0  0  0  0  0  0  0
   -9.2362   19.1044  -31.9847 H   0  0  0  0  0  0  0  0  0  0  0  0
   -9.2191   19.8931  -33.6048 H   0  0  0  0  0  0  0  0  0  0  0  0
   -7.7457   21.9919  -30.8785 H   0  0  0  0  0  0  0  0  0  0  0  0
   -6.2329   24.1179  -31.4853 H   0  0  0  0  0  0  0  0  0  0  0  0
   -4.7193   25.8104  -30.4532 H   0  0  0  0  0  0  0  0  0  0  0  0
   -1.8607   22.7003  -29.5264 H   0  0  0  0  0  0  0  0  0  0  0  0
   -3.3656   21.0021  -30.5617 H   0  0  0  0  0  0  0  0  0  0  0  0
   -3.3921   22.0621  -33.3563 H   0  0  0  0  0  0  0  0  0  0  0  0
   -1.1553   21.3410  -34.1917 H   0  0  0  0  0  0  0  0  0  0  0  0
    0.3270   18.4410  -33.9190 H   0  0  0  0  0  0  0  0  0  0  0  0
   -2.3618   17.1992  -33.8520 H   0  0  0  0  0  0  0  0  0  0  0  0
   -4.6004   17.9155  -33.0193 H   0  0  0  0  0  0  0  0  0  0  0  0
  1  2  1  0
  2  3  1  0
  3  4  1  0
  4  5  2  0
  5  6  1  0
  6  7  2  0
  7  8  1  0
  8  9  2  0
  9 10  1  0
  9 11  1  0
 11 12  2  0
  5 13  1  0
 13 14  1  0
 14 15  2  0
 15 16  1  0
 16 17  2  0
 17 18  1  0
 17 19  1  0
 19 20  2  0
 13 21  2  0
 21  3  1  0
 12  6  1  0
 20 14  1  0
  1 22  1  0
  1 23  1  0
  1 24  1  0
  2 25  1  0
  2 26  1  0
  4 27  1  0
  7 28  1  0
  8 29  1  0
 11 30  1  0
 12 31  1  0
 15 32  1  0
 16 33  1  0
 18 34  1  0
 19 35  1  0
 20 36  1  0
M  CHG  1  10  -1
M  END
>  <UniqueID>  (13) 
12

>  <SMILES>  (13) 
CCn1cc(-c2ccc([O-])cc2)c(-c2ccc(O)cc2)n1

>  <Energy>  (13) 
72.06630596600512

>  <Genealogy>  (13) 
CCn1cc(-c2ccc([O-])cc2)c(-c2ccc(O)cc2)n1 (protonated)
CCn1cc(-c2ccc([O-])cc2)c(-c2ccc(O)cc2)n1 (3D coordinates assigned)
CCn1cc(-c2ccc([O-])cc2)c(-c2ccc(O)cc2)n1 (optimized conformer: 72.06630596600512 kcal/mol)

>  <smiles>  (13) 
CCn1cc(-c2ccc(O)cc2)c(-c2ccc(O)cc2)n1

>  <score_type>  (13) 
oracle

>  <origin>  (13) 
adgpu

>  <m_score__min__energy>  (13) 
-9.5500000000000007

>  <m_primary>  (13) 
energy

$$$$
13:0
     RDKit          3D

 35 37  0  0  0  0  0  0  0  0999 V2000
   -2.4670   20.9170  -33.5440 C   0  0  0  0  0  0  0  0  0  0  0  0
   -2.3070   21.4670  -32.1230 C   0  0  0  0  0  0  0  0  0  0  0  0
   -3.3980   22.4810  -31.6890 C   0  0  2  0  0  0  0  0  0  0  0  0
   -3.0880   22.9870  -30.2740 C   0  0  0  0  0  0  0  0  0  0  0  0
   -3.1880   24.3530  -29.9230 C   0  0  0  0  0  0  0  0  0  0  0  0
   -3.5520   25.3100  -30.8680 O   0  0  0  0  0  0  0  0  0  0  0  0
   -2.9270   24.7500  -28.6500 N   0  0  0  0  0  0  0  0  0  0  0  0
   -2.5790   23.8570  -27.6920 C   0  0  0  0  0  0  0  0  0  0  0  0
   -2.3400   24.2520  -26.5210 O   0  0  0  0  0  0  0  0  0  0  0  0
   -2.4940   22.5380  -27.9920 N   0  0  0  0  0  0  0  0  0  0  0  0
   -2.7430   22.0830  -29.2460 C   0  0  0  0  0  0  0  0  0  0  0  0
   -2.6640   20.8470  -29.4740 O   0  0  0  0  0  0  0  0  0  0  0  0
   -4.8770   22.0880  -31.8790 C   0  0  0  0  0  0  0  0  0  0  0  0
   -5.2060   20.7170  -31.8230 C   0  0  0  0  0  0  0  0  0  0  0  0
   -6.5270   20.2950  -31.9580 C   0  0  0  0  0  0  0  0  0  0  0  0
   -6.8700   18.9340  -31.9490 C   0  0  0  0  0  0  0  0  0  0  0  0
   -8.2080   18.5520  -32.0920 C   0  0  0  0  0  0  0  0  0  0  0  0
   -9.2050   19.5220  -32.2400 C   0  0  0  0  0  0  0  0  0  0  0  0
   -8.8670   20.8800  -32.2440 C   0  0  0  0  0  0  0  0  0  0  0  0
   -7.5310   21.2700  -32.1020 C   0  0  0  0  0  0  0  0  0  0  0  0
   -7.2140   22.5580  -32.0900 O   0  0  0  0  0  0  0  0  0  0  0  0
   -5.9640   23.0010  -31.9670 C   0  0  0  0  0  0  0  0  0  0  0  0
   -5.7860   24.2430  -31.9200 O   0  0  0  0  0  0  0  0  0  0  0  0
   -2.7740   19.8618  -33.4963 H   0  0  0  0  0  0  0  0  0  0  0  0
   -3.2333   21.4980  -34.0779 H   0  0  0  0  0  0  0  0  0  0  0  0
   -1.5086   20.9963  -34.0779 H   0  0  0  0  0  0  0  0  0  0  0  0
   -2.3312   20.6185  -31.4233 H   0  0  0  0  0  0  0  0  0  0  0  0
   -1.3533   22.0150  -32.1096 H   0  0  0  0  0  0  0  0  0  0  0  0
   -3.3220   23.2978  -32.4219 H   0  0  0  0  0  0  0  0  0  0  0  0
   -4.2220   25.0950  -31.5960 H   0  0  0  0  0  0  0  0  0  0  0  0
   -4.4104   19.9728  -31.6710 H   0  0  0  0  0  0  0  0  0  0  0  0
   -6.0883   18.1694  -31.8297 H   0  0  0  0  0  0  0  0  0  0  0  0
   -8.4771   17.4854  -32.0881 H   0  0  0  0  0  0  0  0  0  0  0  0
  -10.2558   19.2170  -32.3534 H   0  0  0  0  0  0  0  0  0  0  0  0
   -9.6525   21.6414  -32.3589 H   0  0  0  0  0  0  0  0  0  0  0  0
  1  2  1  0
  2  3  1  0
  3  4  1  0
  4  5  2  0
  5  6  1  0
  5  7  1  0
  7  8  1  0
  8  9  2  0
  8 10  1  0
 10 11  1  0
 11 12  2  0
  3 13  1  0
 13 14  2  0
 14 15  1  0
 15 16  2  0
 16 17  1  0
 17 18  2  0
 18 19  1  0
 19 20  2  0
 20 21  1  0
 21 22  1  0
 22 23  2  0
 11  4  1  0
 22 13  1  0
 20 15  1  0
  1 24  1  0
  1 25  1  0
  1 26  1  0
  2 27  1  0
  2 28  1  0
  3 29  1  6
  6 30  1  0
 14 31  1  0
 16 32  1  0
 17 33  1  0
 18 34  1  0
 19 35  1  0
M  CHG  2   7  -1  10  -1
M  END
>  <UniqueID>  (14) 
13

>  <SMILES>  (14) 
CC[C@H](c1c(O)[n-]c(=O)[n-]c1=O)c1cc2ccccc2oc1=O

>  <Energy>  (14) 
53.272422075329224

>  <Genealogy>  (14) 
CCC(c1c(O)[n-]c(=O)[n-]c1=O)c1cc2ccccc2oc1=O (protonated)
CC[C@H](c1c(O)[n-]c(=O)[n-]c1=O)c1cc2ccccc2oc1=O (chirality)
CC[C@H](c1c(O)[n-]c(=O)[n-]c1=O)c1cc2ccccc2oc1=O (3D coordinates assigned)
CC[C@H](c1c(O)[n-]c(=O)[n-]c1=O)c1cc2ccccc2oc1=O (optimized conformer: 53.272422075329224 kcal/mol)

>  <smiles>  (14) 
CCC(c1c(O)[nH]c(=O)[nH]c1=O)c1cc2ccccc2oc1=O

>  <score_type>  (14) 
oracle

>  <origin>  (14) 
adgpu

>  <m_score__min__energy>  (14) 
-11.31

>  <m_primary>  (14) 
energy

$$$$
14:0
     RDKit          3D

 18 19  0  0  0  0  0  0  0  0999 V2000
   -5.5226   26.6118  -30.7994 H   0  0  0  0  0  0  0  0  0  0  0  0
   -5.1040   25.6490  -30.4710 C   0  0  0  0  0  0  0  0  0  0  0  0
   -3.8890   25.2240  -30.7320 O   0  0  0  0  0  0  0  0  0  0  0  0
   -3.7290   24.0420  -30.1820 C   0  0  0  0  0  0  0  0  0  0  0  0
   -2.4950   23.2390  -30.2760 C   0  0  0  0  0  0  0  0  0  0  0  0
   -2.3490   22.4510  -31.2480 O   0  0  0  0  0  0  0  0  0  0  0  0
   -1.4190   23.3820  -29.3370 N   0  0  0  0  0  0  0  0  0  0  0  0
   -1.0330   24.4940  -28.7850 C   0  0  0  0  0  0  0  0  0  0  0  0
    0.0140   24.5560  -27.9370 N   0  0  0  0  0  0  0  0  0  0  0  0
    0.0140   25.8590  -27.5940 C   0  0  0  0  0  0  0  0  0  0  0  0
    0.7391   26.3165  -26.9048 H   0  0  0  0  0  0  0  0  0  0  0  0
   -0.9800   26.5300  -28.1970 N   0  0  0  0  0  0  0  0  0  0  0  0
   -1.2030   27.5450  -28.0990 H   0  0  0  0  0  0  0  0  0  0  0  0
   -1.6540   25.6800  -28.9470 N   0  0  0  0  0  0  0  0  0  0  0  0
   -4.8900   23.6640  -29.5370 C   0  0  0  0  0  0  0  0  0  0  0  0
   -5.0705   22.7273  -28.9892 H   0  0  0  0  0  0  0  0  0  0  0  0
   -5.7760   24.7040  -29.7220 C   0  0  0  0  0  0  0  0  0  0  0  0
   -6.8087   24.7678  -29.3486 H   0  0  0  0  0  0  0  0  0  0  0  0
  1  2  1  0
  2  3  1  0
  3  4  1  0
  4  5  1  0
  5  6  2  0
  5  7  1  0
  7  8  2  0
  8  9  1  0
  9 10  2  0
 10 11  1  0
 10 12  1  0
 12 13  1  0
 12 14  1  0
  4 15  2  0
 15 16  1  0
 15 17  1  0
 17 18  1  0
 17  2  2  0
 14  8  1  0
M  CHG  1  14  -1
M  END
>  <UniqueID>  (15) 
14

>  <SMILES>  (15) 
O=C(/N=c1/nc[nH][n-]1)c1ccco1

>  <Energy>  (15) 
82.03037191343937

>  <Genealogy>  (15) 
O=C(N=c1nc[nH][n-]1)c1ccco1 (protonated)
O=C(/N=c1/nc[nH][n-]1)c1ccco1 (cis-trans isomerization)
O=C(/N=c1/nc[nH][n-]1)c1ccco1 (3D coordinates assigned)
O=C(/N=c1/nc[nH][n-]1)c1ccco1 (optimized conformer: 82.03037191343937 kcal/mol)

>  <smiles>  (15) 
O=C(N=c1nc[nH][nH]1)c1ccco1

>  <score_type>  (15) 
oracle

>  <origin>  (15) 
adgpu

>  <m_score__min__energy>  (15) 
-6.3799999999999999

>  <m_primary>  (15) 
energy

$$$$
15:0
     RDKit          3D

 31 32  0  0  0  0  0  0  0  0999 V2000
   -0.1250   26.0650  -22.2610 H   0  0  0  0  0  0  0  0  0  0  0  0
   -0.8120   26.6360  -22.7310 O   0  0  0  0  0  0  0  0  0  0  0  0
   -1.2310   26.4210  -24.0300 N   0  0  0  0  0  0  0  0  0  0  0  0
   -1.9010   27.1230  -24.4180 H   0  0  0  0  0  0  0  0  0  0  0  0
   -0.8860   25.3880  -24.7570 C   0  0  0  0  0  0  0  0  0  0  0  0
   -1.4600   25.2190  -26.1160 C   0  0  0  0  0  0  0  0  0  0  0  0
   -0.6920   25.5290  -27.2510 C   0  0  0  0  0  0  0  0  0  0  0  0
    0.3387   25.8935  -27.1296 H   0  0  0  0  0  0  0  0  0  0  0  0
   -1.2270   25.3780  -28.5320 C   0  0  0  0  0  0  0  0  0  0  0  0
   -0.6109   25.6119  -29.4127 H   0  0  0  0  0  0  0  0  0  0  0  0
   -2.5480   24.9290  -28.7030 C   0  0  0  0  0  0  0  0  0  0  0  0
   -3.1110   24.7390  -30.0120 N   0  0  0  0  0  0  0  0  0  0  0  0
   -2.4780   24.8550  -30.8360 H   0  0  0  0  0  0  0  0  0  0  0  0
   -4.4850   24.3980  -30.2640 C   0  0  0  0  0  0  0  0  0  0  0  0
   -5.5330   25.2620  -29.8970 C   0  0  0  0  0  0  0  0  0  0  0  0
   -5.3058   26.2305  -29.4275 H   0  0  0  0  0  0  0  0  0  0  0  0
   -6.8630   24.8940  -30.1270 C   0  0  0  0  0  0  0  0  0  0  0  0
   -7.6782   25.5779  -29.8484 H   0  0  0  0  0  0  0  0  0  0  0  0
   -7.1570   23.6590  -30.7100 C   0  0  0  0  0  0  0  0  0  0  0  0
   -8.2031   23.3744  -30.8960 H   0  0  0  0  0  0  0  0  0  0  0  0
   -6.1240   22.7850  -31.0570 C   0  0  0  0  0  0  0  0  0  0  0  0
   -6.3572   21.8103  -31.5105 H   0  0  0  0  0  0  0  0  0  0  0  0
   -4.7940   23.1490  -30.8280 C   0  0  0  0  0  0  0  0  0  0  0  0
   -3.9840   22.4529  -31.0911 H   0  0  0  0  0  0  0  0  0  0  0  0
   -3.3080   24.6010  -27.5720 C   0  0  0  0  0  0  0  0  0  0  0  0
   -4.3332   24.2216  -27.6948 H   0  0  0  0  0  0  0  0  0  0  0  0
   -2.7740   24.7520  -26.2900 C   0  0  0  0  0  0  0  0  0  0  0  0
   -3.3863   24.5036  -25.4106 H   0  0  0  0  0  0  0  0  0  0  0  0
    0.0530   24.4090  -24.2810 N   0  0  0  0  0  0  0  0  0  0  0  0
    0.2900   23.5800  -24.8700 H   0  0  0  0  0  0  0  0  0  0  0  0
    0.6400   24.5460  -23.4330 H   0  0  0  0  0  0  0  0  0  0  0  0
  1  2  1  0
  2  3  1  0
  3  4  1  0
  3  5  2  0
  5  6  1  0
  6  7  2  0
  7  8  1  0
  7  9  1  0
  9 10  1  0
  9 11  2  0
 11 12  1  0
 12 13  1  0
 12 14  1  0
 14 15  2  0
 15 16  1  0
 15 17  1  0
 17 18  1  0
 17 19  2  0
 19 20  1  0
 19 21  1  0
 21 22  1  0
 21 23  2  0
 23 24  1  0
 11 25  1  0
 25 26  1  0
 25 27  2  0
 27 28  1  0
  5 29  1  0
 29 30  1  0
 29 31  1  0
 27  6  1  0
 23 14  1  0
M  CHG  1   3   1
M  END
>  <UniqueID>  (16) 
15

>  <SMILES>  (16) 
N/C(=[NH+]\O)c1ccc(Nc2ccccc2)cc1

>  <Energy>  (16) 
43.789052680903474

>  <Genealogy>  (16) 
NC(=[NH+]O)c1ccc(Nc2ccccc2)cc1 (protonated)
N/C(=[NH+]\O)c1ccc(Nc2ccccc2)cc1 (cis-trans isomerization)
N/C(=[NH+]\O)c1ccc(Nc2ccccc2)cc1 (3D coordinates assigned)
N/C(=[NH+]\O)c1ccc(Nc2ccccc2)cc1 (optimized conformer: 43.789052680903474 kcal/mol)

>  <smiles>  (16) 
NC(=NO)c1ccc(Nc2ccccc2)cc1

>  <score_type>  (16) 
oracle

>  <origin>  (16) 
adgpu

>  <m_score__min__energy>  (16) 
-7.0800000000000001

>  <m_primary>  (16) 
energy

$$$$
16:0
     RDKit          3D

 31 32  0  0  0  0  0  0  0  0999 V2000
   -5.0020   25.6800  -30.4660 C   0  0  0  0  0  0  0  0  0  0  0  0
   -5.3710   24.4890  -31.2560 N   0  0  0  0  0  0  0  0  0  0  0  0
   -6.8090   24.1800  -31.0700 C   0  0  0  0  0  0  0  0  0  0  0  0
   -7.1950   22.9560  -31.9050 C   0  0  0  0  0  0  0  0  0  0  0  0
   -6.2870   21.8380  -31.6250 N   0  0  0  0  0  0  0  0  0  0  0  0
   -6.5870   20.5320  -32.1340 C   0  0  0  0  0  0  0  0  0  0  0  0
   -7.6810   19.8240  -31.6110 C   0  0  0  0  0  0  0  0  0  0  0  0
   -7.9940   18.5500  -32.0940 C   0  0  0  0  0  0  0  0  0  0  0  0
   -7.2270   17.9810  -33.1170 C   0  0  0  0  0  0  0  0  0  0  0  0
   -6.1350   18.6770  -33.6440 C   0  0  0  0  0  0  0  0  0  0  0  0
   -5.7960   19.9480  -33.1490 C   0  0  0  0  0  0  0  0  0  0  0  0
   -4.6300   20.6130  -33.6560 N   0  0  0  0  0  0  0  0  0  0  0  0
   -5.1710   22.0190  -30.6930 C   0  0  0  0  0  0  0  0  0  0  0  0
   -4.4520   23.3470  -30.9790 C   0  0  0  0  0  0  0  0  0  0  0  0
   -5.0746   25.4457  -29.3937 H   0  0  0  0  0  0  0  0  0  0  0  0
   -3.9703   25.9752  -30.7078 H   0  0  0  0  0  0  0  0  0  0  0  0
   -5.6861   26.5068  -30.7078 H   0  0  0  0  0  0  0  0  0  0  0  0
   -7.0021   23.9714  -30.0074 H   0  0  0  0  0  0  0  0  0  0  0  0
   -7.4084   25.0427  -31.3963 H   0  0  0  0  0  0  0  0  0  0  0  0
   -8.2242   22.6578  -31.6565 H   0  0  0  0  0  0  0  0  0  0  0  0
   -7.1232   23.2150  -32.9717 H   0  0  0  0  0  0  0  0  0  0  0  0
   -8.2950   20.2742  -30.8170 H   0  0  0  0  0  0  0  0  0  0  0  0
   -8.8435   17.9946  -31.6698 H   0  0  0  0  0  0  0  0  0  0  0  0
   -7.4836   16.9850  -33.5069 H   0  0  0  0  0  0  0  0  0  0  0  0
   -5.5376   18.2272  -34.4508 H   0  0  0  0  0  0  0  0  0  0  0  0
   -3.6830   20.1860  -33.5410 H   0  0  0  0  0  0  0  0  0  0  0  0
   -4.6910   21.5440  -34.1240 H   0  0  0  0  0  0  0  0  0  0  0  0
   -5.5558   22.0285  -29.6625 H   0  0  0  0  0  0  0  0  0  0  0  0
   -4.4589   21.1902  -30.8198 H   0  0  0  0  0  0  0  0  0  0  0  0
   -3.8372   23.6027  -30.1034 H   0  0  0  0  0  0  0  0  0  0  0  0
   -3.8525   23.1940  -31.8885 H   0  0  0  0  0  0  0  0  0  0  0  0
  1  2  1  0
  2  3  1  0
  3  4  1  0
  4  5  1  0
  5  6  1  0
  6  7  2  0
  7  8  1  0
  8  9  2  0
  9 10  1  0
 10 11  2  0
 11 12  1  0
  5 13  1  0
 13 14  1  0
 14  2  1  0
 11  6  1  0
  1 15  1  0
  1 16  1  0
  1 17  1  0
  3 18  1  0
  3 19  1  0
  4 20  1  0
  4 21  1  0
  7 22  1  0
  8 23  1  0
  9 24  1  0
 10 25  1  0
 12 26  1  0
 12 27  1  0
 13 28  1  0
 13 29  1  0
 14 30  1  0
 14 31  1  0
M  END
>  <UniqueID>  (17) 
16

>  <SMILES>  (17) 
CN1CCN(c2ccccc2N)CC1

>  <Energy>  (17) 
41.226154156764785

>  <Genealogy>  (17) 
CN1CCN(c2ccccc2N)CC1 (3D coordinates assigned)
CN1CCN(c2ccccc2N)CC1 (nonaromatic ring conformer: 41.226154156764785 kcal/mol)

>  <smiles>  (17) 
CN1CCN(c2ccccc2N)CC1

>  <score_type>  (17) 
oracle

>  <origin>  (17) 
adgpu

>  <m_score__min__energy>  (17) 
-5.7400000000000002

>  <m_primary>  (17) 
energy

$$$$
17:0
     RDKit          3D

 32 34  0  0  0  0  0  0  0  0999 V2000
    1.6550   24.5700  -25.9350 C   0  0  0  0  0  0  0  0  0  0  0  0
    1.5170   24.2180  -27.3070 O   0  0  0  0  0  0  0  0  0  0  0  0
    0.2950   24.1740  -27.9940 C   0  0  0  0  0  0  0  0  0  0  0  0
   -0.5520   25.2860  -27.9160 C   0  0  0  0  0  0  0  0  0  0  0  0
   -1.7800   25.2920  -28.5820 C   0  0  0  0  0  0  0  0  0  0  0  0
   -2.1850   24.1800  -29.3410 C   0  0  0  0  0  0  0  0  0  0  0  0
   -3.4860   24.1860  -30.0460 C   0  0  0  0  0  0  0  0  0  0  0  0
   -4.0760   25.3130  -30.5020 N   0  0  0  0  0  0  0  0  0  0  0  0
   -5.2170   24.8830  -31.0680 C   0  0  0  0  0  0  0  0  0  0  0  0
   -5.2930   23.5100  -30.9430 C   0  0  0  0  0  0  0  0  0  0  0  0
   -6.3800   22.6210  -31.4240 C   0  0  0  0  0  0  0  0  0  0  0  0
   -7.7240   22.9790  -31.2100 C   0  0  0  0  0  0  0  0  0  0  0  0
   -8.7600   22.1530  -31.6560 C   0  0  0  0  0  0  0  0  0  0  0  0
   -8.4670   20.9610  -32.3220 C   0  0  0  0  0  0  0  0  0  0  0  0
   -9.4730   20.1610  -32.7560 F   0  0  0  0  0  0  0  0  0  0  0  0
   -7.1380   20.5940  -32.5430 C   0  0  0  0  0  0  0  0  0  0  0  0
   -6.0980   21.4160  -32.0970 C   0  0  0  0  0  0  0  0  0  0  0  0
   -4.1990   23.0670  -30.2970 N   0  0  0  0  0  0  0  0  0  0  0  0
   -1.3350   23.0640  -29.4200 C   0  0  0  0  0  0  0  0  0  0  0  0
   -0.1060   23.0590  -28.7530 C   0  0  0  0  0  0  0  0  0  0  0  0
    1.3256   23.7298  -25.3060 H   0  0  0  0  0  0  0  0  0  0  0  0
    2.7092   24.7983  -25.7193 H   0  0  0  0  0  0  0  0  0  0  0  0
    1.0368   25.4539  -25.7193 H   0  0  0  0  0  0  0  0  0  0  0  0
   -0.2479   26.1626  -27.3252 H   0  0  0  0  0  0  0  0  0  0  0  0
   -2.4348   26.1731  -28.5121 H   0  0  0  0  0  0  0  0  0  0  0  0
   -5.9694   25.5224  -31.5529 H   0  0  0  0  0  0  0  0  0  0  0  0
   -7.9616   23.9172  -30.6871 H   0  0  0  0  0  0  0  0  0  0  0  0
   -9.8069   22.4423  -31.4822 H   0  0  0  0  0  0  0  0  0  0  0  0
   -6.9083   19.6558  -33.0693 H   0  0  0  0  0  0  0  0  0  0  0  0
   -5.0534   21.1197  -32.2728 H   0  0  0  0  0  0  0  0  0  0  0  0
   -1.6387   22.1874  -30.0111 H   0  0  0  0  0  0  0  0  0  0  0  0
    0.5506   22.1791  -28.8220 H   0  0  0  0  0  0  0  0  0  0  0  0
  1  2  1  0
  2  3  1  0
  3  4  2  0
  4  5  1  0
  5  6  2  0
  6  7  1  0
  7  8  2  0
  8  9  1  0
  9 10  2  0
 10 11  1  0
 11 12  2  0
 12 13  1  0
 13 14  2  0
 14 15  1  0
 14 16  1  0
 16 17  2  0
 10 18  1  0
  6 19  1  0
 19 20  2  0
 20  3  1  0
 18  7  1  0
 17 11  1  0
  1 21  1  0
  1 22  1  0
  1 23  1  0
  4 24  1  0
  5 25  1  0
  9 26  1  0
 12 27  1  0
 13 28  1  0
 16 29  1  0
 17 30  1  0
 19 31  1  0
 20 32  1  0
M  CHG  1  18  -1
M  END
>  <UniqueID>  (18) 
17

>  <SMILES>  (18) 
COc1ccc(-c2ncc(-c3ccc(F)cc3)[n-]2)cc1

>  <Energy>  (18) 
63.72267160355045

>  <Genealogy>  (18) 
COc1ccc(-c2ncc(-c3ccc(F)cc3)[n-]2)cc1 (protonated)
COc1ccc(-c2ncc(-c3ccc(F)cc3)[n-]2)cc1 (3D coordinates assigned)
COc1ccc(-c2ncc(-c3ccc(F)cc3)[n-]2)cc1 (optimized conformer: 63.72267160355045 kcal/mol)

>  <smiles>  (18) 
COc1ccc(-c2ncc(-c3ccc(F)cc3)[nH]2)cc1

>  <score_type>  (18) 
oracle

>  <origin>  (18) 
adgpu

>  <m_score__min__energy>  (18) 
-7.75

>  <m_primary>  (18) 
energy

$$$$
18:0
     RDKit          3D

 51 53  0  0  0  0  0  0  0  0999 V2000
   -5.6300   24.3600  -29.3980 C   0  0  0  0  0  0  0  0  0  0  0  0
   -4.2440   24.3610  -29.9700 C   0  0  0  0  0  0  0  0  0  0  0  0
   -3.8920   25.3380  -30.6860 O   0  0  0  0  0  0  0  0  0  0  0  0
   -3.2850   23.2530  -29.7100 C   0  0  0  0  0  0  0  0  0  0  0  0
   -1.9360   23.3450  -30.1010 C   0  0  0  0  0  0  0  0  0  0  0  0
   -1.0520   22.2930  -29.8490 C   0  0  0  0  0  0  0  0  0  0  0  0
   -1.4850   21.1330  -29.2020 C   0  0  0  0  0  0  0  0  0  0  0  0
   -0.5500   20.1100  -28.9790 O   0  0  0  0  0  0  0  0  0  0  0  0
   -0.1710   19.1090  -29.9260 C   0  0  0  0  0  0  0  0  0  0  0  0
   -0.1210   19.6970  -31.3390 C   0  0  0  0  0  0  0  0  0  0  0  0
   -0.8150   18.7600  -32.3490 C   0  0  0  0  0  0  0  0  0  0  0  0
   -1.9850   19.3670  -33.0200 N   0  0  0  0  0  0  0  0  0  0  0  0
   -2.9150   18.3700  -33.6010 C   0  0  0  0  0  0  0  0  0  0  0  0
   -4.3070   18.9550  -33.8460 C   0  0  0  0  0  0  0  0  0  0  0  0
   -4.8370   19.4820  -32.5880 N   0  0  0  0  0  0  0  0  0  0  0  0
   -6.2550   19.5500  -32.3890 C   0  0  0  0  0  0  0  0  0  0  0  0
   -6.9960   18.3620  -32.3030 C   0  0  0  0  0  0  0  0  0  0  0  0
   -8.3790   18.4050  -32.1240 C   0  0  0  0  0  0  0  0  0  0  0  0
   -9.0340   19.6340  -32.0260 C   0  0  0  0  0  0  0  0  0  0  0  0
   -8.3080   20.8270  -32.0970 C   0  0  0  0  0  0  0  0  0  0  0  0
   -9.1720   22.3530  -31.9520 Cl  0  0  0  0  0  0  0  0  0  0  0  0
   -6.9120   20.7920  -32.2770 C   0  0  0  0  0  0  0  0  0  0  0  0
   -5.9860   22.2920  -32.3180 Cl  0  0  0  0  0  0  0  0  0  0  0  0
   -3.9390   20.1270  -31.6250 C   0  0  0  0  0  0  0  0  0  0  0  0
   -2.6030   20.4980  -32.2870 C   0  0  0  0  0  0  0  0  0  0  0  0
   -2.8330   21.0320  -28.8110 C   0  0  0  0  0  0  0  0  0  0  0  0
   -3.7210   22.0830  -29.0620 C   0  0  0  0  0  0  0  0  0  0  0  0
   -5.5733   24.3600  -28.2995 H   0  0  0  0  0  0  0  0  0  0  0  0
   -6.1674   25.2578  -29.7375 H   0  0  0  0  0  0  0  0  0  0  0  0
   -6.1661   23.4615  -29.7375 H   0  0  0  0  0  0  0  0  0  0  0  0
   -1.5752   24.2517  -30.6086 H   0  0  0  0  0  0  0  0  0  0  0  0
   -0.0016   22.3791  -30.1640 H   0  0  0  0  0  0  0  0  0  0  0  0
    0.8227   18.7184  -29.6614 H   0  0  0  0  0  0  0  0  0  0  0  0
   -0.9155   18.2995  -29.9043 H   0  0  0  0  0  0  0  0  0  0  0  0
   -0.6313   20.6715  -31.3420 H   0  0  0  0  0  0  0  0  0  0  0  0
    0.9321   19.8144  -31.6342 H   0  0  0  0  0  0  0  0  0  0  0  0
   -0.0823   18.4762  -33.1188 H   0  0  0  0  0  0  0  0  0  0  0  0
   -1.1853   17.8941  -31.7806 H   0  0  0  0  0  0  0  0  0  0  0  0
   -2.5045   18.0183  -34.5590 H   0  0  0  0  0  0  0  0  0  0  0  0
   -3.0169   17.5433  -32.8826 H   0  0  0  0  0  0  0  0  0  0  0  0
   -4.2398   19.7667  -34.5854 H   0  0  0  0  0  0  0  0  0  0  0  0
   -4.9755   18.1693  -34.2278 H   0  0  0  0  0  0  0  0  0  0  0  0
   -6.4839   17.3913  -32.3771 H   0  0  0  0  0  0  0  0  0  0  0  0
   -8.9540   17.4694  -32.0600 H   0  0  0  0  0  0  0  0  0  0  0  0
  -10.1254   19.6640  -31.8924 H   0  0  0  0  0  0  0  0  0  0  0  0
   -4.4174   21.0405  -31.2419 H   0  0  0  0  0  0  0  0  0  0  0  0
   -3.7412   19.4240  -30.8024 H   0  0  0  0  0  0  0  0  0  0  0  0
   -2.7797   21.3203  -32.9960 H   0  0  0  0  0  0  0  0  0  0  0  0
   -1.9084   20.7888  -31.4851 H   0  0  0  0  0  0  0  0  0  0  0  0
   -3.1899   20.1224  -28.3057 H   0  0  0  0  0  0  0  0  0  0  0  0
   -4.7718   21.9937  -28.7493 H   0  0  0  0  0  0  0  0  0  0  0  0
  1  2  1  0
  2  3  2  0
  2  4  1  0
  4  5  2  0
  5  6  1  0
  6  7  2  0
  7  8  1  0
  8  9  1  0
  9 10  1  0
 10 11  1  0
 11 12  1  0
 12 13  1  0
 13 14  1  0
 14 15  1  0
 15 16  1  0
 16 17  2  0
 17 18  1  0
 18 19  2  0
 19 20  1  0
 20 21  1  0
 20 22  2  0
 22 23  1  0
 15 24  1  0
 24 25  1  0
  7 26  1  0
 26 27  2  0
 27  4  1  0
 25 12  1  0
 22 16  1  0
  1 28  1  0
  1 29  1  0
  1 30  1  0
  5 31  1  0
  6 32  1  0
  9 33  1  0
  9 34  1  0
 10 35  1  0
 10 36  1  0
 11 37  1  0
 11 38  1  0
 13 39  1  0
 13 40  1  0
 14 41  1  0
 14 42  1  0
 17 43  1  0
 18 44  1  0
 19 45  1  0
 24 46  1  0
 24 47  1  0
 25 48  1  0
 25 49  1  0
 26 50  1  0
 27 51  1  0
M  END
>  <UniqueID>  (19) 
18

>  <SMILES>  (19) 
CC(=O)c1ccc(OCCCN2CCN(c3cccc(Cl)c3Cl)CC2)cc1

>  <Energy>  (19) 
65.8859268771435

>  <Genealogy>  (19) 
CC(=O)c1ccc(OCCCN2CCN(c3cccc(Cl)c3Cl)CC2)cc1 (3D coordinates assigned)
CC(=O)c1ccc(OCCCN2CCN(c3cccc(Cl)c3Cl)CC2)cc1 (nonaromatic ring conformer: 65.8859268771435 kcal/mol)

>  <smiles>  (19) 
CC(=O)c1ccc(OCCCN2CCN(c3cccc(Cl)c3Cl)CC2)cc1

>  <score_type>  (19) 
oracle

>  <origin>  (19) 
adgpu

>  <m_score__min__energy>  (19) 
-9.3599999999999994

>  <m_primary>  (19) 
energy

$$$$
19:0
     RDKit          3D

 31 31  0  0  0  0  0  0  0  0999 V2000
   -0.8620   23.4890  -25.4870 C   0  0  0  0  0  0  0  0  0  0  0  0
    0.0040   24.7620  -25.5720 C   0  0  0  0  0  0  0  0  0  0  0  0
    1.3540   24.3680  -26.1990 C   0  0  0  0  0  0  0  0  0  0  0  0
    0.2060   25.3120  -24.2150 N   0  0  0  0  0  0  0  0  0  0  0  0
   -0.3870   26.5090  -23.6690 C   0  0  0  0  0  0  0  0  0  0  0  0
    0.2820   27.1820  -22.5980 N   0  0  0  0  0  0  0  0  0  0  0  0
   -1.5320   26.9630  -24.0870 N   0  0  0  0  0  0  0  0  0  0  0  0
   -0.8350   25.9830  -26.6730 S   0  0  0  0  0  0  0  0  0  0  0  0
   -1.7310   24.8160  -27.7090 C   0  0  0  0  0  0  0  0  0  0  0  0
   -3.0720   24.5160  -27.4360 C   0  0  0  0  0  0  0  0  0  0  0  0
   -3.7740   23.6260  -28.2550 C   0  0  0  0  0  0  0  0  0  0  0  0
   -3.1430   23.0420  -29.3610 C   0  0  0  0  0  0  0  0  0  0  0  0
   -3.8640   22.1250  -30.2030 C   0  0  0  0  0  0  0  0  0  0  0  0
   -4.4440   21.3890  -30.8810 N   0  0  0  0  0  0  0  0  0  0  0  0
   -1.8090   23.3610  -29.6490 C   0  0  0  0  0  0  0  0  0  0  0  0
   -1.1080   24.2520  -28.8300 C   0  0  0  0  0  0  0  0  0  0  0  0
   -1.0358   23.2336  -24.4313 H   0  0  0  0  0  0  0  0  0  0  0  0
   -1.8266   23.6678  -25.9845 H   0  0  0  0  0  0  0  0  0  0  0  0
   -0.3414   22.6575  -25.9845 H   0  0  0  0  0  0  0  0  0  0  0  0
    2.0809   24.1559  -25.4011 H   0  0  0  0  0  0  0  0  0  0  0  0
    1.2212   23.4712  -26.8219 H   0  0  0  0  0  0  0  0  0  0  0  0
    1.7244   25.1955  -26.8219 H   0  0  0  0  0  0  0  0  0  0  0  0
    0.9540   24.8780  -23.6260 H   0  0  0  0  0  0  0  0  0  0  0  0
   -0.1270   28.0380  -22.1600 H   0  0  0  0  0  0  0  0  0  0  0  0
    1.1970   26.8290  -22.2400 H   0  0  0  0  0  0  0  0  0  0  0  0
   -1.9460   27.8240  -23.6660 H   0  0  0  0  0  0  0  0  0  0  0  0
   -2.0920   26.4880  -24.8240 H   0  0  0  0  0  0  0  0  0  0  0  0
   -3.5740   24.9818  -26.5752 H   0  0  0  0  0  0  0  0  0  0  0  0
   -4.8233   23.3841  -28.0304 H   0  0  0  0  0  0  0  0  0  0  0  0
   -1.3125   22.9098  -30.5207 H   0  0  0  0  0  0  0  0  0  0  0  0
   -0.0653   24.5105  -29.0665 H   0  0  0  0  0  0  0  0  0  0  0  0
  1  2  1  0
  2  3  1  0
  2  4  1  0
  4  5  1  0
  5  6  1  0
  5  7  2  0
  2  8  1  0
  8  9  1  0
  9 10  2  0
 10 11  1  0
 11 12  2  0
 12 13  1  0
 13 14  3  0
 12 15  1  0
 15 16  2  0
 16  9  1  0
  1 17  1  0
  1 18  1  0
  1 19  1  0
  3 20  1  0
  3 21  1  0
  3 22  1  0
  4 23  1  0
  6 24  1  0
  6 25  1  0
  7 26  1  0
  7 27  1  0
 10 28  1  0
 11 29  1  0
 15 30  1  0
 16 31  1  0
M  CHG  1   7   1
M  END
>  <UniqueID>  (20) 
19

>  <SMILES>  (20) 
CC(C)(NC(N)=[NH2+])Sc1ccc(C#N)cc1

>  <Energy>  (20) 
23.413172586698504

>  <Genealogy>  (20) 
CC(C)(NC(N)=[NH2+])Sc1ccc(C#N)cc1 (protonated)
CC(C)(NC(N)=[NH2+])Sc1ccc(C#N)cc1 (3D coordinates assigned)
CC(C)(NC(N)=[NH2+])Sc1ccc(C#N)cc1 (optimized conformer: 23.413172586698504 kcal/mol)

>  <smiles>  (20) 
CC(C)(NC(=N)N)Sc1ccc(C#N)cc1

>  <score_type>  (20) 
oracle

>  <origin>  (20) 
adgpu

>  <m_score__min__energy>  (20) 
-6.9100000000000001

>  <m_primary>  (20) 
energy

$$$$
20:0
     RDKit          3D

 31 32  0  0  0  0  0  0  0  0999 V2000
   -1.5580   20.8550  -30.6690 C   0  0  0  0  0  0  0  0  0  0  0  0
   -2.8470   21.4000  -31.2090 C   0  0  0  0  0  0  0  0  0  0  0  0
   -3.0890   21.4000  -32.5910 C   0  0  0  0  0  0  0  0  0  0  0  0
   -4.3030   21.8770  -33.0940 C   0  0  0  0  0  0  0  0  0  0  0  0
   -5.2910   22.3640  -32.2200 C   0  0  0  0  0  0  0  0  0  0  0  0
   -6.5380   22.8800  -32.7160 N   0  0  0  0  0  0  0  0  0  0  0  0
   -7.8280   22.3950  -32.3080 C   0  0  0  0  0  0  0  0  0  0  0  0
   -9.0980   23.4250  -32.2950 S   0  0  0  0  0  0  0  0  0  0  0  0
   -8.0310   21.0290  -31.9100 N   0  0  0  0  0  0  0  0  0  0  0  0
   -7.2760   19.9200  -32.4290 C   0  0  0  0  0  0  0  0  0  0  0  0
   -6.8310   19.8990  -33.7640 C   0  0  0  0  0  0  0  0  0  0  0  0
   -6.0800   18.8190  -34.2380 C   0  0  0  0  0  0  0  0  0  0  0  0
   -5.7820   17.7460  -33.3920 C   0  0  0  0  0  0  0  0  0  0  0  0
   -4.7500   16.2770  -34.0410 Br  0  0  0  0  0  0  0  0  0  0  0  0
   -6.2440   17.7500  -32.0730 C   0  0  0  0  0  0  0  0  0  0  0  0
   -6.9940   18.8280  -31.5950 C   0  0  0  0  0  0  0  0  0  0  0  0
   -5.0640   22.3200  -30.8380 C   0  0  0  0  0  0  0  0  0  0  0  0
   -3.8500   21.8420  -30.3340 C   0  0  0  0  0  0  0  0  0  0  0  0
   -1.5868   20.8672  -29.5694 H   0  0  0  0  0  0  0  0  0  0  0  0
   -1.4208   19.8218  -31.0208 H   0  0  0  0  0  0  0  0  0  0  0  0
   -0.7212   21.4763  -31.0208 H   0  0  0  0  0  0  0  0  0  0  0  0
   -2.3203   21.0231  -33.2816 H   0  0  0  0  0  0  0  0  0  0  0  0
   -4.4862   21.8713  -34.1786 H   0  0  0  0  0  0  0  0  0  0  0  0
   -6.5060   23.6570  -33.4150 H   0  0  0  0  0  0  0  0  0  0  0  0
   -8.7750   20.8300  -31.2040 H   0  0  0  0  0  0  0  0  0  0  0  0
   -7.0747   20.7347  -34.4365 H   0  0  0  0  0  0  0  0  0  0  0  0
   -5.7229   18.8133  -35.2784 H   0  0  0  0  0  0  0  0  0  0  0  0
   -6.0167   16.9026  -31.4095 H   0  0  0  0  0  0  0  0  0  0  0  0
   -7.3651   18.8201  -30.5595 H   0  0  0  0  0  0  0  0  0  0  0  0
   -5.8458   22.6637  -30.1448 H   0  0  0  0  0  0  0  0  0  0  0  0
   -3.6813   21.8126  -29.2474 H   0  0  0  0  0  0  0  0  0  0  0  0
  1  2  1  0
  2  3  2  0
  3  4  1  0
  4  5  2  0
  5  6  1  0
  6  7  1  0
  7  8  2  0
  7  9  1  0
  9 10  1  0
 10 11  2  0
 11 12  1  0
 12 13  2  0
 13 14  1  0
 13 15  1  0
 15 16  2  0
  5 17  1  0
 17 18  2  0
 18  2  1  0
 16 10  1  0
  1 19  1  0
  1 20  1  0
  1 21  1  0
  3 22  1  0
  4 23  1  0
  6 24  1  0
  9 25  1  0
 11 26  1  0
 12 27  1  0
 15 28  1  0
 16 29  1  0
 17 30  1  0
 18 31  1  0
M  END
>  <UniqueID>  (21) 
20

>  <SMILES>  (21) 
Cc1ccc(NC(=S)Nc2ccc(Br)cc2)cc1

>  <Energy>  (21) 
36.45661723673969

>  <Genealogy>  (21) 
Cc1ccc(NC(=S)Nc2ccc(Br)cc2)cc1 (3D coordinates assigned)
Cc1ccc(NC(=S)Nc2ccc(Br)cc2)cc1 (optimized conformer: 36.45661723673969 kcal/mol)

>  <smiles>  (21) 
Cc1ccc(NC(=S)Nc2ccc(Br)cc2)cc1

>  <score_type>  (21) 
oracle

>  <origin>  (21) 
adgpu

>  <m_score__min__energy>  (21) 
-6.7599999999999998

>  <m_primary>  (21) 
energy

$$$$
21:0
     RDKit          3D

 53 55  0  0  0  0  0  0  0  0999 V2000
   -7.7530   18.1040  -31.2490 C   0  0  0  0  0  0  0  0  0  0  0  0
   -9.0970   18.5580  -31.8150 C   0  0  0  0  0  0  0  0  0  0  0  0
   -8.9560   19.7780  -32.7420 C   0  0  0  0  0  0  0  0  0  0  0  0
   -7.7110   20.6110  -32.4820 C   0  0  0  0  0  0  0  0  0  0  0  0
   -7.8020   21.6360  -31.5920 N   0  0  0  0  0  0  0  0  0  0  0  0
   -6.7510   22.4360  -31.3040 C   0  0  0  0  0  0  0  0  0  0  0  0
   -6.8930   23.4660  -30.3710 C   0  0  0  0  0  0  0  0  0  0  0  0
   -5.8040   24.2840  -30.0610 C   0  0  0  0  0  0  0  0  0  0  0  0
   -4.5640   24.0830  -30.6780 C   0  0  0  0  0  0  0  0  0  0  0  0
   -3.4770   24.9490  -30.3200 N   0  0  0  0  0  0  0  0  0  0  0  0
   -2.2470   24.6060  -29.1460 S   0  0  0  0  0  0  0  0  0  0  0  0
   -2.9900   24.1650  -27.5890 C   0  0  0  0  0  0  0  0  0  0  0  0
   -1.4120   25.8390  -28.9490 O   0  0  0  0  0  0  0  0  0  0  0  0
   -1.3610   23.4960  -29.6380 O   0  0  0  0  0  0  0  0  0  0  0  0
   -4.4240   23.0480  -31.6210 C   0  0  0  0  0  0  0  0  0  0  0  0
   -5.5200   22.2210  -31.9380 C   0  0  0  0  0  0  0  0  0  0  0  0
   -5.4300   21.1810  -32.8790 C   0  0  0  0  0  0  0  0  0  0  0  0
   -4.3280   20.9640  -33.4590 O   0  0  0  0  0  0  0  0  0  0  0  0
   -6.5310   20.4060  -33.1700 N   0  0  0  0  0  0  0  0  0  0  0  0
   -6.4100   19.3410  -34.1890 C   0  0  0  0  0  0  0  0  0  0  0  0
   -5.5690   18.1670  -33.6350 C   0  0  0  0  0  0  0  0  0  0  0  0
   -4.1130   18.2510  -33.9110 N   0  0  0  0  0  0  0  0  0  0  0  0
   -3.5880   17.0880  -34.6560 C   0  0  0  0  0  0  0  0  0  0  0  0
   -2.1050   17.3140  -35.0310 C   0  0  0  0  0  0  0  0  0  0  0  0
   -1.5200   18.4030  -34.3350 O   0  0  0  0  0  0  0  0  0  0  0  0
   -1.8070   18.3040  -32.9540 C   0  0  0  0  0  0  0  0  0  0  0  0
   -3.3140   18.5000  -32.6880 C   0  0  0  0  0  0  0  0  0  0  0  0
   -7.7945   18.1180  -30.1499 H   0  0  0  0  0  0  0  0  0  0  0  0
   -7.5357   17.0826  -31.5947 H   0  0  0  0  0  0  0  0  0  0  0  0
   -6.9609   18.7844  -31.5947 H   0  0  0  0  0  0  0  0  0  0  0  0
   -9.5390   17.7284  -32.3863 H   0  0  0  0  0  0  0  0  0  0  0  0
   -9.7380   18.8489  -30.9697 H   0  0  0  0  0  0  0  0  0  0  0  0
   -8.9221   19.4204  -33.7817 H   0  0  0  0  0  0  0  0  0  0  0  0
   -9.8211   20.4285  -32.5460 H   0  0  0  0  0  0  0  0  0  0  0  0
   -7.8631   23.6330  -29.8801 H   0  0  0  0  0  0  0  0  0  0  0  0
   -5.9221   25.0933  -29.3254 H   0  0  0  0  0  0  0  0  0  0  0  0
   -2.3632   24.5370  -26.7652 H   0  0  0  0  0  0  0  0  0  0  0  0
   -3.9913   24.6151  -27.5200 H   0  0  0  0  0  0  0  0  0  0  0  0
   -3.0745   23.0704  -27.5200 H   0  0  0  0  0  0  0  0  0  0  0  0
   -3.4541   22.8837  -32.1132 H   0  0  0  0  0  0  0  0  0  0  0  0
   -7.4132   18.9762  -34.4546 H   0  0  0  0  0  0  0  0  0  0  0  0
   -5.9122   19.7509  -35.0802 H   0  0  0  0  0  0  0  0  0  0  0  0
   -5.7078   18.1331  -32.5443 H   0  0  0  0  0  0  0  0  0  0  0  0
   -5.9271   17.2634  -34.1501 H   0  0  0  0  0  0  0  0  0  0  0  0
   -3.9920   19.0900  -34.5300 H   0  0  0  0  0  0  0  0  0  0  0  0
   -3.6703   16.1882  -34.0286 H   0  0  0  0  0  0  0  0  0  0  0  0
   -4.1741   16.9602  -35.5780 H   0  0  0  0  0  0  0  0  0  0  0  0
   -1.5396   16.4009  -34.7932 H   0  0  0  0  0  0  0  0  0  0  0  0
   -2.0680   17.5500  -36.1048 H   0  0  0  0  0  0  0  0  0  0  0  0
   -1.5043   17.3097  -32.5939 H   0  0  0  0  0  0  0  0  0  0  0  0
   -1.2517   19.0912  -32.4229 H   0  0  0  0  0  0  0  0  0  0  0  0
   -3.6334   17.7994  -31.9024 H   0  0  0  0  0  0  0  0  0  0  0  0
   -3.4785   19.5406  -32.3715 H   0  0  0  0  0  0  0  0  0  0  0  0
  1  2  1  0
  2  3  1  0
  3  4  1  0
  4  5  2  0
  5  6  1  0
  6  7  2  0
  7  8  1  0
  8  9  2  0
  9 10  1  0
 10 11  1  0
 11 12  1  0
 11 13  2  0
 11 14  2  0
  9 15  1  0
 15 16  2  0
 16 17  1  0
 17 18  2  0
 17 19  1  0
 19 20  1  0
 20 21  1  0
 21 22  1  0
 22 23  1  0
 23 24  1  0
 24 25  1  0
 25 26  1  0
 26 27  1  0
 19  4  1  0
 27 22  1  0
 16  6  1  0
  1 28  1  0
  1 29  1  0
  1 30  1  0
  2 31  1  0
  2 32  1  0
  3 33  1  0
  3 34  1  0
  7 35  1  0
  8 36  1  0
 12 37  1  0
 12 38  1  0
 12 39  1  0
 15 40  1  0
 20 41  1  0
 20 42  1  0
 21 43  1  0
 21 44  1  0
 22 45  1  0
 23 46  1  0
 23 47  1  0
 24 48  1  0
 24 49  1  0
 26 50  1  0
 26 51  1  0
 27 52  1  0
 27 53  1  0
M  CHG  2  10  -1  22   1
M  END
>  <UniqueID>  (22) 
21

>  <SMILES>  (22) 
CCCc1nc2ccc([N-]S(C)(=O)=O)cc2c(=O)n1CC[NH+]1CCOCC1

>  <Energy>  (22) 
70.07684182258498

>  <Genealogy>  (22) 
CCCc1nc2ccc([N-]S(C)(=O)=O)cc2c(=O)n1CC[NH+]1CCOCC1 (protonated)
CCCc1nc2ccc([N-]S(C)(=O)=O)cc2c(=O)n1CC[NH+]1CCOCC1 (3D coordinates assigned)
CCCc1nc2ccc([N-]S(C)(=O)=O)cc2c(=O)n1CC[NH+]1CCOCC1 (nonaromatic ring conformer: 70.07684182258498 kcal/mol)

>  <smiles>  (22) 
CCCc1nc2ccc(NS(C)(=O)=O)cc2c(=O)n1CCN1CCOCC1

>  <score_type>  (22) 
oracle

>  <origin>  (22) 
adgpu

>  <m_score__min__energy>  (22) 
-10.1

>  <m_primary>  (22) 
energy

$$$$
22:0
     RDKit          3D

 29 30  0  0  0  0  0  0  0  0999 V2000
   -6.8910   22.7370  -32.0700 C   0  0  0  0  0  0  0  0  0  0  0  0
   -5.7530   23.3770  -31.3320 C   0  0  0  0  0  0  0  0  0  0  0  0
   -5.8810   24.6780  -30.8270 C   0  0  0  0  0  0  0  0  0  0  0  0
   -4.8070   25.2890  -30.1710 C   0  0  0  0  0  0  0  0  0  0  0  0
   -3.5890   24.6140  -30.0230 C   0  0  0  0  0  0  0  0  0  0  0  0
   -2.5150   25.2790  -29.3440 N   0  0  0  0  0  0  0  0  0  0  0  0
   -1.3950   24.5200  -28.2590 S   0  0  0  0  0  0  0  0  0  0  0  0
   -0.0860   24.3100  -28.9680 O   0  0  0  0  0  0  0  0  0  0  0  0
   -1.9540   23.2020  -27.8030 O   0  0  0  0  0  0  0  0  0  0  0  0
   -1.1280   25.5450  -26.8500 C   0  0  0  0  0  0  0  0  0  0  0  0
   -1.1780   25.0040  -25.5560 C   0  0  0  0  0  0  0  0  0  0  0  0
   -0.9630   25.8220  -24.4420 C   0  0  0  0  0  0  0  0  0  0  0  0
   -0.6940   27.1820  -24.6130 C   0  0  0  0  0  0  0  0  0  0  0  0
   -0.6400   27.7270  -25.8990 C   0  0  0  0  0  0  0  0  0  0  0  0
   -0.8550   26.9140  -27.0160 C   0  0  0  0  0  0  0  0  0  0  0  0
   -0.7930   27.4580  -28.2580 F   0  0  0  0  0  0  0  0  0  0  0  0
   -3.4540   23.3160  -30.5460 C   0  0  0  0  0  0  0  0  0  0  0  0
   -4.5280   22.7050  -31.2020 C   0  0  0  0  0  0  0  0  0  0  0  0
   -7.6140   22.3304  -31.3476 H   0  0  0  0  0  0  0  0  0  0  0  0
   -7.3871   23.4884  -32.7018 H   0  0  0  0  0  0  0  0  0  0  0  0
   -6.5066   21.9228  -32.7018 H   0  0  0  0  0  0  0  0  0  0  0  0
   -6.8300   25.2211  -30.9469 H   0  0  0  0  0  0  0  0  0  0  0  0
   -4.9200   26.3065  -29.7687 H   0  0  0  0  0  0  0  0  0  0  0  0
   -1.3870   23.9330  -25.4174 H   0  0  0  0  0  0  0  0  0  0  0  0
   -1.0058   25.3937  -23.4297 H   0  0  0  0  0  0  0  0  0  0  0  0
   -0.5247   27.8239  -23.7359 H   0  0  0  0  0  0  0  0  0  0  0  0
   -0.4279   28.7981  -26.0326 H   0  0  0  0  0  0  0  0  0  0  0  0
   -2.5001   22.7787  -30.4390 H   0  0  0  0  0  0  0  0  0  0  0  0
   -4.4117   21.6933  -31.6178 H   0  0  0  0  0  0  0  0  0  0  0  0
  1  2  1  0
  2  3  2  0
  3  4  1  0
  4  5  2  0
  5  6  1  0
  6  7  1  0
  7  8  2  0
  7  9  2  0
  7 10  1  0
 10 11  2  0
 11 12  1  0
 12 13  2  0
 13 14  1  0
 14 15  2  0
 15 16  1  0
  5 17  1  0
 17 18  2  0
 18  2  1  0
 15 10  1  0
  1 19  1  0
  1 20  1  0
  1 21  1  0
  3 22  1  0
  4 23  1  0
 11 24  1  0
 12 25  1  0
 13 26  1  0
 14 27  1  0
 17 28  1  0
 18 29  1  0
M  CHG  1   6  -1
M  END
>  <UniqueID>  (23) 
22

>  <SMILES>  (23) 
Cc1ccc([N-]S(=O)(=O)c2ccccc2F)cc1

>  <Energy>  (23) 
33.47290166297792

>  <Genealogy>  (23) 
Cc1ccc([N-]S(=O)(=O)c2ccccc2F)cc1 (protonated)
Cc1ccc([N-]S(=O)(=O)c2ccccc2F)cc1 (3D coordinates assigned)
Cc1ccc([N-]S(=O)(=O)c2ccccc2F)cc1 (optimized conformer: 33.47290166297792 kcal/mol)

>  <smiles>  (23) 
Cc1ccc(NS(=O)(=O)c2ccccc2F)cc1

>  <score_type>  (23) 
oracle

>  <origin>  (23) 
adgpu

>  <m_score__min__energy>  (23) 
-8.2400000000000002

>  <m_primary>  (23) 
energy

$$$$
23:0
     RDKit          3D

 35 36  0  0  0  0  0  0  0  0999 V2000
   -1.2930   26.4950  -24.7250 C   0  0  0  0  0  0  0  0  0  0  0  0
   -1.9820   25.7210  -25.8410 C   0  0  0  0  0  0  0  0  0  0  0  0
   -0.9970   25.2280  -26.8020 N   0  0  0  0  0  0  0  0  0  0  0  0
    0.3360   25.4070  -26.7550 C   0  0  0  0  0  0  0  0  0  0  0  0
    0.9340   24.8940  -27.8480 N   0  0  0  0  0  0  0  0  0  0  0  0
   -0.0220   24.3880  -28.6150 N   0  0  0  0  0  0  0  0  0  0  0  0
   -1.1900   24.5990  -27.9790 C   0  0  0  0  0  0  0  0  0  0  0  0
   -2.5190   24.1700  -28.5280 C   0  0  0  0  0  0  0  0  0  0  0  0
   -2.8380   24.9240  -29.7390 N   0  0  0  0  0  0  0  0  0  0  0  0
   -4.4310   24.5390  -30.3220 S   0  0  0  0  0  0  0  0  0  0  0  0
   -5.3430   24.3260  -29.1460 O   0  0  0  0  0  0  0  0  0  0  0  0
   -4.9820   25.6470  -31.1750 O   0  0  0  0  0  0  0  0  0  0  0  0
   -4.3270   23.0720  -31.2950 C   0  0  0  0  0  0  0  0  0  0  0  0
   -3.0980   22.4160  -31.4530 C   0  0  0  0  0  0  0  0  0  0  0  0
   -3.0110   21.2570  -32.2300 C   0  0  0  0  0  0  0  0  0  0  0  0
   -1.4690   20.4430  -32.4220 Cl  0  0  0  0  0  0  0  0  0  0  0  0
   -4.1520   20.7480  -32.8530 C   0  0  0  0  0  0  0  0  0  0  0  0
   -5.3820   21.3930  -32.7010 C   0  0  0  0  0  0  0  0  0  0  0  0
   -5.4830   22.5620  -31.9190 C   0  0  0  0  0  0  0  0  0  0  0  0
   -6.7040   23.2330  -31.7430 O   0  0  0  0  0  0  0  0  0  0  0  0
   -7.9010   22.6240  -31.2720 C   0  0  0  0  0  0  0  0  0  0  0  0
   -1.6324   26.1137  -23.7506 H   0  0  0  0  0  0  0  0  0  0  0  0
   -0.2036   26.3680  -24.8091 H   0  0  0  0  0  0  0  0  0  0  0  0
   -1.5453   27.5624  -24.8091 H   0  0  0  0  0  0  0  0  0  0  0  0
   -2.5252   24.8678  -25.4086 H   0  0  0  0  0  0  0  0  0  0  0  0
   -2.6829   26.3912  -26.3602 H   0  0  0  0  0  0  0  0  0  0  0  0
    0.8678   25.9068  -25.9319 H   0  0  0  0  0  0  0  0  0  0  0  0
   -2.4826   23.0972  -28.7682 H   0  0  0  0  0  0  0  0  0  0  0  0
   -3.2956   24.3625  -27.7731 H   0  0  0  0  0  0  0  0  0  0  0  0
   -2.1977   22.8153  -30.9631 H   0  0  0  0  0  0  0  0  0  0  0  0
   -4.0824   19.8367  -33.4652 H   0  0  0  0  0  0  0  0  0  0  0  0
   -6.2771   20.9864  -33.1944 H   0  0  0  0  0  0  0  0  0  0  0  0
   -7.9035   22.6227  -30.1720 H   0  0  0  0  0  0  0  0  0  0  0  0
   -8.7696   23.1898  -31.6400 H   0  0  0  0  0  0  0  0  0  0  0  0
   -7.9551   21.5888  -31.6400 H   0  0  0  0  0  0  0  0  0  0  0  0
  1  2  1  0
  2  3  1  0
  3  4  1  0
  4  5  2  0
  5  6  1  0
  6  7  2  0
  7  8  1  0
  8  9  1  0
  9 10  1  0
 10 11  2  0
 10 12  2  0
 10 13  1  0
 13 14  2  0
 14 15  1  0
 15 16  1  0
 15 17  2  0
 17 18  1  0
 18 19  2  0
 19 20  1  0
 20 21  1  0
  7  3  1  0
 19 13  1  0
  1 22  1  0
  1 23  1  0
  1 24  1  0
  2 25  1  0
  2 26  1  0
  4 27  1  0
  8 28  1  0
  8 29  1  0
 14 30  1  0
 17 31  1  0
 18 32  1  0
 21 33  1  0
 21 34  1  0
 21 35  1  0
M  CHG  1   9  -1
M  END
>  <UniqueID>  (24) 
23

>  <SMILES>  (24) 
CCn1cnnc1C[N-]S(=O)(=O)c1cc(Cl)ccc1OC

>  <Energy>  (24) 
63.19295065208472

>  <Genealogy>  (24) 
CCn1cnnc1C[N-]S(=O)(=O)c1cc(Cl)ccc1OC (protonated)
CCn1cnnc1C[N-]S(=O)(=O)c1cc(Cl)ccc1OC (3D coordinates assigned)
CCn1cnnc1C[N-]S(=O)(=O)c1cc(Cl)ccc1OC (optimized conformer: 63.19295065208472 kcal/mol)

>  <smiles>  (24) 
CCn1cnnc1CNS(=O)(=O)c1cc(Cl)ccc1OC

>  <score_type>  (24) 
oracle

>  <origin>  (24) 
adgpu

>  <m_score__min__energy>  (24) 
-8.5500000000000007

>  <m_primary>  (24) 
energy

$$$$
24:0
     RDKit          3D

 39 41  0  0  0  0  0  0  0  0999 V2000
   -1.7320   20.9000  -32.5510 H   0  0  0  0  0  0  0  0  0  0  0  0
   -2.6950   21.2060  -32.8170 N   0  0  0  0  0  0  0  0  0  0  0  0
   -3.4170   22.0370  -32.1270 C   0  0  0  0  0  0  0  0  0  0  0  0
   -2.9440   22.6130  -30.9260 C   0  0  0  0  0  0  0  0  0  0  0  0
   -1.6120   22.3150  -30.4350 C   0  0  0  0  0  0  0  0  0  0  0  0
   -0.5500   22.0780  -30.0430 N   0  0  0  0  0  0  0  0  0  0  0  0
   -3.7750   23.5110  -30.2170 C   0  0  0  0  0  0  0  0  0  0  0  0
   -3.3040   24.1330  -28.9530 C   0  0  0  0  0  0  0  0  0  0  0  0
   -4.0640   24.0100  -27.7780 C   0  0  0  0  0  0  0  0  0  0  0  0
   -5.0120   23.4523  -27.7934 H   0  0  0  0  0  0  0  0  0  0  0  0
   -3.6180   24.5950  -26.5890 C   0  0  0  0  0  0  0  0  0  0  0  0
   -4.2156   24.4964  -25.6708 H   0  0  0  0  0  0  0  0  0  0  0  0
   -2.4140   25.3050  -26.5650 C   0  0  0  0  0  0  0  0  0  0  0  0
   -1.9840   25.8710  -25.4110 F   0  0  0  0  0  0  0  0  0  0  0  0
   -1.6530   25.4310  -27.7310 C   0  0  0  0  0  0  0  0  0  0  0  0
   -0.7058   25.9899  -27.7112 H   0  0  0  0  0  0  0  0  0  0  0  0
   -2.0950   24.8470  -28.9230 C   0  0  0  0  0  0  0  0  0  0  0  0
   -1.4941   24.9473  -29.8389 H   0  0  0  0  0  0  0  0  0  0  0  0
   -5.0560   23.8130  -30.7230 C   0  0  0  0  0  0  0  0  0  0  0  0
   -5.9420   24.7090  -30.0100 C   0  0  0  0  0  0  0  0  0  0  0  0
   -6.6500   25.4240  -29.4390 N   0  0  0  0  0  0  0  0  0  0  0  0
   -5.4780   23.2190  -31.9240 C   0  0  0  0  0  0  0  0  0  0  0  0
   -7.1040   23.5730  -32.6170 S   0  0  0  0  0  0  0  0  0  0  0  0
   -7.9560   22.3880  -31.5260 C   0  0  0  0  0  0  0  0  0  0  0  0
   -7.6016   22.5201  -30.4931 H   0  0  0  0  0  0  0  0  0  0  0  0
   -9.0407   22.5661  -31.5665 H   0  0  0  0  0  0  0  0  0  0  0  0
   -7.6610   20.9900  -31.9810 C   0  0  0  0  0  0  0  0  0  0  0  0
   -8.1900   19.8900  -31.2840 C   0  0  0  0  0  0  0  0  0  0  0  0
   -8.8013   20.0538  -30.3843 H   0  0  0  0  0  0  0  0  0  0  0  0
   -7.9420   18.5890  -31.7300 C   0  0  0  0  0  0  0  0  0  0  0  0
   -8.3510   17.7317  -31.1753 H   0  0  0  0  0  0  0  0  0  0  0  0
   -7.1750   18.3740  -32.8800 C   0  0  0  0  0  0  0  0  0  0  0  0
   -6.8670   16.7410  -33.4380 Cl  0  0  0  0  0  0  0  0  0  0  0  0
   -6.6580   19.4660  -33.5860 C   0  0  0  0  0  0  0  0  0  0  0  0
   -6.0563   19.2986  -34.4915 H   0  0  0  0  0  0  0  0  0  0  0  0
   -6.9040   20.7680  -33.1440 C   0  0  0  0  0  0  0  0  0  0  0  0
   -6.5036   21.6230  -33.7085 H   0  0  0  0  0  0  0  0  0  0  0  0
   -4.6600   22.3560  -32.5830 N   0  0  0  0  0  0  0  0  0  0  0  0
   -5.0000   21.9260  -33.4740 H   0  0  0  0  0  0  0  0  0  0  0  0
  1  2  1  0
  2  3  2  0
  3  4  1  0
  4  5  1  0
  5  6  3  0
  4  7  2  0
  7  8  1  0
  8  9  2  0
  9 10  1  0
  9 11  1  0
 11 12  1  0
 11 13  2  0
 13 14  1  0
 13 15  1  0
 15 16  1  0
 15 17  2  0
 17 18  1  0
  7 19  1  0
 19 20  1  0
 20 21  3  0
 19 22  2  0
 22 23  1  0
 23 24  1  0
 24 25  1  0
 24 26  1  0
 24 27  1  0
 27 28  2  0
 28 29  1  0
 28 30  1  0
 30 31  1  0
 30 32  2  0
 32 33  1  0
 32 34  1  0
 34 35  1  0
 34 36  2  0
 36 37  1  0
 22 38  1  0
 38 39  1  0
 38  3  1  0
 17  8  1  0
 36 27  1  0
M  END
>  <UniqueID>  (25) 
24

>  <SMILES>  (25) 
[H]/N=c1/[nH]c(SCc2ccc(Cl)cc2)c(C#N)c(-c2ccc(F)cc2)c1C#N

>  <Energy>  (25) 
49.23884125531396

>  <Genealogy>  (25) 
[H]/N=c1/[nH]c(SCc2ccc(Cl)cc2)c(C#N)c(-c2ccc(F)cc2)c1C#N (cis-trans isomerization)
[H]/N=c1/[nH]c(SCc2ccc(Cl)cc2)c(C#N)c(-c2ccc(F)cc2)c1C#N (3D coordinates assigned)
[H]/N=c1/[nH]c(SCc2ccc(Cl)cc2)c(C#N)c(-c2ccc(F)cc2)c1C#N (optimized conformer: 49.23884125531396 kcal/mol)

>  <smiles>  (25) 
N#Cc1c(SCc2ccc(Cl)cc2)[nH]c(=N)c(C#N)c1-c1ccc(F)cc1

>  <score_type>  (25) 
oracle

>  <origin>  (25) 
adgpu

>  <m_score__min__energy>  (25) 
-9.3200000000000003

>  <m_primary>  (25) 
energy

$$$$
25:0
     RDKit          3D

 32 34  0  0  0  0  0  0  0  0999 V2000
   -9.1150   19.1120  -32.3510 C   0  0  0  0  0  0  0  0  0  0  0  0
   -8.8970   20.4790  -32.6880 O   0  0  0  0  0  0  0  0  0  0  0  0
   -7.9260   21.2960  -32.0890 C   0  0  0  0  0  0  0  0  0  0  0  0
   -8.2530   22.4880  -31.4170 C   0  0  0  0  0  0  0  0  0  0  0  0
   -7.2490   23.2690  -30.8370 C   0  0  0  0  0  0  0  0  0  0  0  0
   -5.9020   22.8740  -30.9170 C   0  0  0  0  0  0  0  0  0  0  0  0
   -4.8410   23.7000  -30.3030 C   0  0  0  0  0  0  0  0  0  0  0  0
   -4.3990   24.8630  -30.8210 N   0  0  0  0  0  0  0  0  0  0  0  0
   -3.4820   25.2710  -30.0000 O   0  0  0  0  0  0  0  0  0  0  0  0
   -3.3530   24.4120  -29.0180 C   0  0  0  0  0  0  0  0  0  0  0  0
   -2.3990   24.5600  -27.9020 C   0  0  0  0  0  0  0  0  0  0  0  0
   -2.7950   25.1610  -26.6950 C   0  0  0  0  0  0  0  0  0  0  0  0
   -1.8850   25.2990  -25.6420 C   0  0  0  0  0  0  0  0  0  0  0  0
   -0.5690   24.8370  -25.7830 C   0  0  0  0  0  0  0  0  0  0  0  0
    0.3450   24.9680  -24.7410 O   0  0  0  0  0  0  0  0  0  0  0  0
   -0.1710   24.2380  -26.9810 C   0  0  0  0  0  0  0  0  0  0  0  0
   -1.0780   24.0990  -28.0360 C   0  0  0  0  0  0  0  0  0  0  0  0
   -4.2040   23.3760  -29.1570 N   0  0  0  0  0  0  0  0  0  0  0  0
   -5.5810   21.6830  -31.5890 C   0  0  0  0  0  0  0  0  0  0  0  0
   -6.5870   20.9040  -32.1690 C   0  0  0  0  0  0  0  0  0  0  0  0
   -9.1325   19.0024  -31.2566 H   0  0  0  0  0  0  0  0  0  0  0  0
  -10.0774   18.7805  -32.7681 H   0  0  0  0  0  0  0  0  0  0  0  0
   -8.3035   18.4976  -32.7681 H   0  0  0  0  0  0  0  0  0  0  0  0
   -9.3035   22.8069  -31.3476 H   0  0  0  0  0  0  0  0  0  0  0  0
   -7.5148   24.1995  -30.3141 H   0  0  0  0  0  0  0  0  0  0  0  0
   -3.8264   25.5249  -26.5778 H   0  0  0  0  0  0  0  0  0  0  0  0
   -2.2027   25.7713  -24.7007 H   0  0  0  0  0  0  0  0  0  0  0  0
    0.1550   24.5920  -23.8190 H   0  0  0  0  0  0  0  0  0  0  0  0
    0.8608   23.8741  -27.0947 H   0  0  0  0  0  0  0  0  0  0  0  0
   -0.7561   23.6264  -28.9757 H   0  0  0  0  0  0  0  0  0  0  0  0
   -4.5315   21.3611  -31.6594 H   0  0  0  0  0  0  0  0  0  0  0  0
   -6.3219   19.9739  -32.6931 H   0  0  0  0  0  0  0  0  0  0  0  0
  1  2  1  0
  2  3  1  0
  3  4  2  0
  4  5  1  0
  5  6  2  0
  6  7  1  0
  7  8  2  0
  8  9  1  0
  9 10  1  0
 10 11  1  0
 11 12  2  0
 12 13  1  0
 13 14  2  0
 14 15  1  0
 14 16  1  0
 16 17  2  0
 10 18  2  0
  6 19  1  0
 19 20  2  0
 20  3  1  0
 18  7  1  0
 17 11  1  0
  1 21  1  0
  1 22  1  0
  1 23  1  0
  4 24  1  0
  5 25  1  0
 12 26  1  0
 13 27  1  0
 15 28  1  0
 16 29  1  0
 17 30  1  0
 19 31  1  0
 20 32  1  0
M  END
>  <UniqueID>  (26) 
25

>  <SMILES>  (26) 
COc1ccc(-c2noc(-c3ccc(O)cc3)n2)cc1

>  <Energy>  (26) 
67.35061890592965

>  <Genealogy>  (26) 
COc1ccc(-c2noc(-c3ccc(O)cc3)n2)cc1 (3D coordinates assigned)
COc1ccc(-c2noc(-c3ccc(O)cc3)n2)cc1 (optimized conformer: 67.35061890592965 kcal/mol)

>  <smiles>  (26) 
COc1ccc(-c2noc(-c3ccc(O)cc3)n2)cc1

>  <score_type>  (26) 
oracle

>  <origin>  (26) 
adgpu

>  <m_score__min__energy>  (26) 
-7.4500000000000002

>  <m_primary>  (26) 
energy

$$$$
26:0
     RDKit          3D

 39 42  0  0  0  0  0  0  0  0999 V2000
  -10.3910   21.1740  -31.9790 O   0  0  0  0  0  0  0  0  0  0  0  0
   -9.1320   21.1430  -31.9840 C   0  0  0  0  0  0  0  0  0  0  0  0
   -8.4630   20.0320  -32.4840 C   0  0  0  0  0  0  0  0  0  0  0  0
   -7.0620   20.0110  -32.5030 C   0  0  0  0  0  0  0  0  0  0  0  0
   -6.3930   18.8310  -33.1070 C   0  0  0  0  0  0  0  0  0  0  0  0
   -6.2580   17.6440  -32.3680 C   0  0  0  0  0  0  0  0  0  0  0  0
   -5.6220   16.5340  -32.9330 C   0  0  0  0  0  0  0  0  0  0  0  0
   -5.1250   16.5990  -34.2380 C   0  0  0  0  0  0  0  0  0  0  0  0
   -5.2680   17.7730  -34.9820 C   0  0  0  0  0  0  0  0  0  0  0  0
   -5.9040   18.8850  -34.4220 C   0  0  0  0  0  0  0  0  0  0  0  0
   -6.3450   21.0770  -31.9960 N   0  0  0  0  0  0  0  0  0  0  0  0
   -4.9020   21.0450  -32.0180 C   0  0  0  0  0  0  0  0  0  0  0  0
   -4.1980   21.5520  -33.1220 C   0  0  0  0  0  0  0  0  0  0  0  0
   -2.8010   21.5240  -33.1390 C   0  0  0  0  0  0  0  0  0  0  0  0
   -2.0970   20.9890  -32.0560 C   0  0  0  0  0  0  0  0  0  0  0  0
   -0.3430   20.9540  -32.0780 Cl  0  0  0  0  0  0  0  0  0  0  0  0
   -2.7930   20.4810  -30.9530 C   0  0  0  0  0  0  0  0  0  0  0  0
   -4.1900   20.5090  -30.9330 C   0  0  0  0  0  0  0  0  0  0  0  0
   -7.0040   22.1760  -31.4810 C   0  0  0  0  0  0  0  0  0  0  0  0
   -6.2770   23.3240  -30.8860 C   0  0  0  0  0  0  0  0  0  0  0  0
   -5.7220   23.3110  -29.5960 C   0  0  0  0  0  0  0  0  0  0  0  0
   -5.1000   24.5000  -29.2450 C   0  0  0  0  0  0  0  0  0  0  0  0
   -5.2540   25.5680  -30.5330 S   0  0  0  0  0  0  0  0  0  0  0  0
   -6.1090   24.5370  -31.5470 C   0  0  0  0  0  0  0  0  0  0  0  0
   -8.4060   22.2210  -31.4880 C   0  0  0  0  0  0  0  0  0  0  0  0
   -9.0322   19.1709  -32.8641 H   0  0  0  0  0  0  0  0  0  0  0  0
   -6.6533   17.5875  -31.3430 H   0  0  0  0  0  0  0  0  0  0  0  0
   -5.5126   15.6080  -32.3494 H   0  0  0  0  0  0  0  0  0  0  0  0
   -4.6215   15.7261  -34.6790 H   0  0  0  0  0  0  0  0  0  0  0  0
   -4.8796   17.8224  -36.0099 H   0  0  0  0  0  0  0  0  0  0  0  0
   -6.0216   19.8050  -35.0134 H   0  0  0  0  0  0  0  0  0  0  0  0
   -4.7481   21.9727  -33.9766 H   0  0  0  0  0  0  0  0  0  0  0  0
   -2.2543   21.9235  -34.0059 H   0  0  0  0  0  0  0  0  0  0  0  0
   -2.2397   20.0593  -30.1009 H   0  0  0  0  0  0  0  0  0  0  0  0
   -4.7338   20.1097  -30.0642 H   0  0  0  0  0  0  0  0  0  0  0  0
   -5.7756   22.4396  -28.9268 H   0  0  0  0  0  0  0  0  0  0  0  0
   -4.5943   24.7075  -28.2904 H   0  0  0  0  0  0  0  0  0  0  0  0
   -6.4724   24.7785  -32.5567 H   0  0  0  0  0  0  0  0  0  0  0  0
   -8.9306   23.1074  -31.1019 H   0  0  0  0  0  0  0  0  0  0  0  0
  1  2  2  0
  2  3  1  0
  3  4  2  0
  4  5  1  0
  5  6  2  0
  6  7  1  0
  7  8  2  0
  8  9  1  0
  9 10  2  0
  4 11  1  0
 11 12  1  0
 12 13  2  0
 13 14  1  0
 14 15  2  0
 15 16  1  0
 15 17  1  0
 17 18  2  0
 11 19  1  0
 19 20  1  0
 20 21  1  0
 21 22  2  0
 22 23  1  0
 23 24  1  0
 19 25  2  0
 25  2  1  0
 10  5  1  0
 18 12  1  0
 24 20  2  0
  3 26  1  0
  6 27  1  0
  7 28  1  0
  8 29  1  0
  9 30  1  0
 10 31  1  0
 13 32  1  0
 14 33  1  0
 17 34  1  0
 18 35  1  0
 21 36  1  0
 22 37  1  0
 24 38  1  0
 25 39  1  0
M  END
>  <UniqueID>  (27) 
26

>  <SMILES>  (27) 
O=c1cc(-c2ccccc2)n(-c2ccc(Cl)cc2)c(-c2ccsc2)c1

>  <Energy>  (27) 
91.17072510770097

>  <Genealogy>  (27) 
O=c1cc(-c2ccccc2)n(-c2ccc(Cl)cc2)c(-c2ccsc2)c1 (3D coordinates assigned)
O=c1cc(-c2ccccc2)n(-c2ccc(Cl)cc2)c(-c2ccsc2)c1 (optimized conformer: 91.17072510770097 kcal/mol)

>  <smiles>  (27) 
O=c1cc(-c2ccccc2)n(-c2ccc(Cl)cc2)c(-c2ccsc2)c1

>  <score_type>  (27) 
oracle

>  <origin>  (27) 
adgpu

>  <m_score__min__energy>  (27) 
-9.3100000000000005

>  <m_primary>  (27) 
energy

$$$$
27:0
     RDKit          3D

 35 37  0  0  0  0  0  0  0  0999 V2000
   -9.6892   21.7540  -30.6557 H   0  0  0  0  0  0  0  0  0  0  0  0
   -8.6020   21.7390  -30.8220 C   0  0  0  0  0  0  0  0  0  0  0  0
   -7.7680   22.5650  -30.0620 C   0  0  0  0  0  0  0  0  0  0  0  0
   -8.2020   23.2191  -29.2914 H   0  0  0  0  0  0  0  0  0  0  0  0
   -6.3800   22.5650  -30.2760 C   0  0  0  0  0  0  0  0  0  0  0  0
   -5.5430   23.4070  -29.4650 N   0  0  0  0  0  0  0  0  0  0  0  0
   -5.7190   23.4350  -28.4350 H   0  0  0  0  0  0  0  0  0  0  0  0
   -4.5330   24.2820  -29.9860 C   0  0  0  0  0  0  0  0  0  0  0  0
   -4.5200   24.5840  -31.2110 O   0  0  0  0  0  0  0  0  0  0  0  0
   -3.6300   24.9260  -29.0800 N   0  0  0  0  0  0  0  0  0  0  0  0
   -2.4360   24.5620  -28.6860 C   0  0  0  0  0  0  0  0  0  0  0  0
   -1.6460   25.5600  -28.0980 C   0  0  0  0  0  0  0  0  0  0  0  0
   -2.0957   26.5306  -27.8416 H   0  0  0  0  0  0  0  0  0  0  0  0
   -0.2940   25.3330  -27.8350 C   0  0  0  0  0  0  0  0  0  0  0  0
    0.5690   26.4310  -27.3020 C   0  0  0  0  0  0  0  0  0  0  0  0
    0.5522   26.4096  -26.2023 H   0  0  0  0  0  0  0  0  0  0  0  0
    1.6011   26.2907  -27.6557 H   0  0  0  0  0  0  0  0  0  0  0  0
    0.1888   27.4007  -27.6557 H   0  0  0  0  0  0  0  0  0  0  0  0
    0.2560   24.1280  -28.1290 N   0  0  0  0  0  0  0  0  0  0  0  0
   -0.4810   23.0960  -28.6130 C   0  0  0  0  0  0  0  0  0  0  0  0
    0.1370   21.8570  -28.8190 C   0  0  0  0  0  0  0  0  0  0  0  0
    1.2245   21.7584  -28.6859 H   0  0  0  0  0  0  0  0  0  0  0  0
   -0.6200   20.7480  -29.1920 C   0  0  0  0  0  0  0  0  0  0  0  0
   -0.1266   19.7836  -29.3829 H   0  0  0  0  0  0  0  0  0  0  0  0
   -2.0030   20.8620  -29.3230 C   0  0  0  0  0  0  0  0  0  0  0  0
   -2.6038   19.9763  -29.5770 H   0  0  0  0  0  0  0  0  0  0  0  0
   -2.6300   22.0970  -29.1330 C   0  0  0  0  0  0  0  0  0  0  0  0
   -3.7257   22.1662  -29.2004 H   0  0  0  0  0  0  0  0  0  0  0  0
   -1.8720   23.2590  -28.8550 C   0  0  0  0  0  0  0  0  0  0  0  0
   -5.8360   21.6960  -31.2410 C   0  0  0  0  0  0  0  0  0  0  0  0
   -4.7479   21.6661  -31.3999 H   0  0  0  0  0  0  0  0  0  0  0  0
   -6.6740   20.8700  -31.9990 C   0  0  0  0  0  0  0  0  0  0  0  0
   -6.2439   20.2005  -32.7585 H   0  0  0  0  0  0  0  0  0  0  0  0
   -8.0560   20.8940  -31.7930 C   0  0  0  0  0  0  0  0  0  0  0  0
   -9.1040   19.8560  -32.7430 Cl  0  0  0  0  0  0  0  0  0  0  0  0
  1  2  1  0
  2  3  2  0
  3  4  1  0
  3  5  1  0
  5  6  1  0
  6  7  1  0
  6  8  1  0
  8  9  2  0
  8 10  1  0
 10 11  2  0
 11 12  1  0
 12 13  1  0
 12 14  2  0
 14 15  1  0
 15 16  1  0
 15 17  1  0
 15 18  1  0
 14 19  1  0
 19 20  1  0
 20 21  2  0
 21 22  1  0
 21 23  1  0
 23 24  1  0
 23 25  2  0
 25 26  1  0
 25 27  1  0
 27 28  1  0
 27 29  2  0
  5 30  2  0
 30 31  1  0
 30 32  1  0
 32 33  1  0
 32 34  2  0
 34 35  1  0
 34  2  1  0
 29 11  1  0
 29 20  1  0
M  CHG  1  19  -1
M  END
>  <UniqueID>  (28) 
27

>  <SMILES>  (28) 
Cc1c/c(=N/C(=O)Nc2ccc(Cl)cc2)c2ccccc2[n-]1

>  <Energy>  (28) 
61.64204827575339

>  <Genealogy>  (28) 
Cc1cc(=NC(=O)Nc2ccc(Cl)cc2)c2ccccc2[n-]1 (protonated)
Cc1c/c(=N/C(=O)Nc2ccc(Cl)cc2)c2ccccc2[n-]1 (cis-trans isomerization)
Cc1c/c(=N/C(=O)Nc2ccc(Cl)cc2)c2ccccc2[n-]1 (3D coordinates assigned)
Cc1c/c(=N/C(=O)Nc2ccc(Cl)cc2)c2ccccc2[n-]1 (optimized conformer: 61.64204827575339 kcal/mol)

>  <smiles>  (28) 
Cc1cc(=NC(=O)Nc2ccc(Cl)cc2)c2ccccc2[nH]1

>  <score_type>  (28) 
oracle

>  <origin>  (28) 
adgpu

>  <m_score__min__energy>  (28) 
-8.4399999999999995

>  <m_primary>  (28) 
energy

$$$$
28:0
     RDKit          3D

 31 31  0  0  0  0  0  0  0  0999 V2000
   -7.8280   18.5160  -32.5890 C   0  0  0  0  0  0  0  0  0  0  0  0
   -8.7460   19.2020  -31.5780 C   0  0  0  0  0  0  0  0  0  0  0  0
   -9.3700   20.4950  -32.1230 C   0  0  0  0  0  0  0  0  0  0  0  0
   -9.1660   21.6900  -31.1800 C   0  0  0  0  0  0  0  0  0  0  0  0
   -8.7960   22.9530  -31.9650 C   0  0  0  0  0  0  0  0  0  0  0  0
   -7.4700   23.4360  -31.5720 N   0  0  0  0  0  0  0  0  0  0  0  0
   -6.2420   22.7350  -31.8490 C   0  0  0  0  0  0  0  0  0  0  0  0
   -6.2620   21.5220  -32.5640 C   0  0  0  0  0  0  0  0  0  0  0  0
   -5.0710   20.8800  -32.9140 C   0  0  0  0  0  0  0  0  0  0  0  0
   -3.8440   21.4420  -32.5630 C   0  0  0  0  0  0  0  0  0  0  0  0
   -2.3510   20.6380  -33.0110 Cl  0  0  0  0  0  0  0  0  0  0  0  0
   -3.8050   22.6420  -31.8490 C   0  0  0  0  0  0  0  0  0  0  0  0
   -4.9930   23.2920  -31.4710 C   0  0  0  0  0  0  0  0  0  0  0  0
   -4.9120   24.4870  -30.6750 N   0  0  0  0  0  0  0  0  0  0  0  0
   -3.9540   25.2750  -30.8150 O   0  0  0  0  0  0  0  0  0  0  0  0
   -5.9830   24.8760  -29.9060 O   0  0  0  0  0  0  0  0  0  0  0  0
   -7.0582   17.9407  -32.0539 H   0  0  0  0  0  0  0  0  0  0  0  0
   -8.4202   17.8373  -33.2204 H   0  0  0  0  0  0  0  0  0  0  0  0
   -7.3449   19.2762  -33.2204 H   0  0  0  0  0  0  0  0  0  0  0  0
   -9.5553   18.5069  -31.3099 H   0  0  0  0  0  0  0  0  0  0  0  0
   -8.1341   19.4719  -30.7046 H   0  0  0  0  0  0  0  0  0  0  0  0
   -8.9071   20.7283  -33.0932 H   0  0  0  0  0  0  0  0  0  0  0  0
  -10.4528   20.3279  -32.2210 H   0  0  0  0  0  0  0  0  0  0  0  0
  -10.0974   21.8722  -30.6238 H   0  0  0  0  0  0  0  0  0  0  0  0
   -8.3437   21.4540  -30.4885 H   0  0  0  0  0  0  0  0  0  0  0  0
   -8.7921   22.7218  -33.0404 H   0  0  0  0  0  0  0  0  0  0  0  0
   -9.5372   23.7358  -31.7460 H   0  0  0  0  0  0  0  0  0  0  0  0
   -7.4280   24.3420  -31.0540 H   0  0  0  0  0  0  0  0  0  0  0  0
   -7.2255   21.0749  -32.8501 H   0  0  0  0  0  0  0  0  0  0  0  0
   -5.1015   19.9298  -33.4673 H   0  0  0  0  0  0  0  0  0  0  0  0
   -2.8341   23.0833  -31.5795 H   0  0  0  0  0  0  0  0  0  0  0  0
  1  2  1  0
  2  3  1  0
  3  4  1  0
  4  5  1  0
  5  6  1  0
  6  7  1  0
  7  8  2  0
  8  9  1  0
  9 10  2  0
 10 11  1  0
 10 12  1  0
 12 13  2  0
 13 14  1  0
 14 15  2  0
 14 16  1  0
 13  7  1  0
  1 17  1  0
  1 18  1  0
  1 19  1  0
  2 20  1  0
  2 21  1  0
  3 22  1  0
  3 23  1  0
  4 24  1  0
  4 25  1  0
  5 26  1  0
  5 27  1  0
  6 28  1  0
  8 29  1  0
  9 30  1  0
 12 31  1  0
M  CHG  2  14   1  16  -1
M  END
>  <UniqueID>  (29) 
28

>  <SMILES>  (29) 
CCCCCNc1ccc(Cl)cc1[N+](=O)[O-]

>  <Energy>  (29) 
26.28393037764683

>  <Genealogy>  (29) 
CCCCCNc1ccc(Cl)cc1[N+](=O)[O-] (3D coordinates assigned)
CCCCCNc1ccc(Cl)cc1[N+](=O)[O-] (optimized conformer: 26.28393037764683 kcal/mol)

>  <smiles>  (29) 
CCCCCNc1ccc(Cl)cc1[N+](=O)[O-]

>  <score_type>  (29) 
oracle

>  <origin>  (29) 
adgpu

>  <m_score__min__energy>  (29) 
-6.6299999999999999

>  <m_primary>  (29) 
energy

$$$$
29:0
     RDKit          3D

 52 55  0  0  0  0  0  0  0  0999 V2000
   -1.6830   25.0410  -28.2340 C   0  0  0  0  0  0  0  0  0  0  0  0
   -2.5290   25.2840  -29.3540 O   0  0  0  0  0  0  0  0  0  0  0  0
   -3.5030   24.3870  -29.8170 C   0  0  0  0  0  0  0  0  0  0  0  0
   -4.8250   24.8350  -29.9240 C   0  0  0  0  0  0  0  0  0  0  0  0
   -5.8280   23.9850  -30.4000 C   0  0  0  0  0  0  0  0  0  0  0  0
   -5.5270   22.6620  -30.7710 C   0  0  0  0  0  0  0  0  0  0  0  0
   -6.5540   21.7650  -31.3580 C   0  0  0  0  0  0  0  0  0  0  0  0
   -7.9200   22.0900  -31.3820 C   0  0  0  0  0  0  0  0  0  0  0  0
   -8.8230   21.2150  -31.9910 C   0  0  0  0  0  0  0  0  0  0  0  0
   -8.3660   20.0310  -32.5770 C   0  0  0  0  0  0  0  0  0  0  0  0
   -6.9960   19.7280  -32.5380 C   0  0  0  0  0  0  0  0  0  0  0  0
   -6.4850   18.5180  -33.1300 N   0  0  0  0  0  0  0  0  0  0  0  0
   -7.2480   17.4700  -33.4070 N   0  0  0  0  0  0  0  0  0  0  0  0
   -6.4480   16.4880  -33.8630 C   0  0  0  0  0  0  0  0  0  0  0  0
   -6.9270   15.1210  -34.2200 C   0  0  0  0  0  0  0  0  0  0  0  0
   -5.1300   16.9030  -33.8520 C   0  0  0  0  0  0  0  0  0  0  0  0
   -5.1920   18.2050  -33.3990 C   0  0  0  0  0  0  0  0  0  0  0  0
   -4.0240   19.0970  -33.2390 C   0  0  0  0  0  0  0  0  0  0  0  0
   -4.0820   20.4170  -33.7010 C   0  0  0  0  0  0  0  0  0  0  0  0
   -2.9530   21.2370  -33.6360 C   0  0  0  0  0  0  0  0  0  0  0  0
   -1.7460   20.7490  -33.0980 C   0  0  0  0  0  0  0  0  0  0  0  0
   -0.5780   21.5290  -33.0690 O   0  0  0  0  0  0  0  0  0  0  0  0
    0.4130   21.5380  -34.0920 C   0  0  0  0  0  0  0  0  0  0  0  0
   -1.7020   19.4390  -32.5820 C   0  0  0  0  0  0  0  0  0  0  0  0
   -0.4160   18.8800  -32.0410 C   0  0  0  0  0  0  0  0  0  0  0  0
   -2.8440   18.6240  -32.6490 C   0  0  0  0  0  0  0  0  0  0  0  0
   -6.1510   20.5930  -31.9180 N   0  0  0  0  0  0  0  0  0  0  0  0
   -4.1990   22.2130  -30.6530 C   0  0  0  0  0  0  0  0  0  0  0  0
   -3.1970   23.0640  -30.1810 C   0  0  0  0  0  0  0  0  0  0  0  0
   -2.2490   25.2036  -27.3049 H   0  0  0  0  0  0  0  0  0  0  0  0
   -1.3213   24.0027  -28.2661 H   0  0  0  0  0  0  0  0  0  0  0  0
   -0.8254   25.7291  -28.2661 H   0  0  0  0  0  0  0  0  0  0  0  0
   -5.0769   25.8649  -29.6310 H   0  0  0  0  0  0  0  0  0  0  0  0
   -6.8608   24.3539  -30.4850 H   0  0  0  0  0  0  0  0  0  0  0  0
   -8.2759   23.0253  -30.9253 H   0  0  0  0  0  0  0  0  0  0  0  0
   -9.8956   21.4582  -32.0094 H   0  0  0  0  0  0  0  0  0  0  0  0
   -9.0732   19.3434  -33.0640 H   0  0  0  0  0  0  0  0  0  0  0  0
   -7.1268   14.5508  -33.3008 H   0  0  0  0  0  0  0  0  0  0  0  0
   -7.8513   15.1991  -34.8112 H   0  0  0  0  0  0  0  0  0  0  0  0
   -6.1561   14.6051  -34.8112 H   0  0  0  0  0  0  0  0  0  0  0  0
   -4.2371   16.3280  -34.1384 H   0  0  0  0  0  0  0  0  0  0  0  0
   -5.0211   20.8105  -34.1172 H   0  0  0  0  0  0  0  0  0  0  0  0
   -3.0068   22.2710  -34.0075 H   0  0  0  0  0  0  0  0  0  0  0  0
    1.4130   21.5471  -33.6337 H   0  0  0  0  0  0  0  0  0  0  0  0
    0.3039   20.6388  -34.7162 H   0  0  0  0  0  0  0  0  0  0  0  0
    0.2875   22.4350  -34.7162 H   0  0  0  0  0  0  0  0  0  0  0  0
   -0.4446   18.8924  -30.9414 H   0  0  0  0  0  0  0  0  0  0  0  0
   -0.2891   17.8455  -32.3928 H   0  0  0  0  0  0  0  0  0  0  0  0
    0.4270   19.4929  -32.3928 H   0  0  0  0  0  0  0  0  0  0  0  0
   -2.8119   17.6055  -32.2347 H   0  0  0  0  0  0  0  0  0  0  0  0
   -3.9469   21.1802  -30.9356 H   0  0  0  0  0  0  0  0  0  0  0  0
   -2.1636   22.6973  -30.0937 H   0  0  0  0  0  0  0  0  0  0  0  0
  1  2  1  0
  2  3  1  0
  3  4  2  0
  4  5  1  0
  5  6  2  0
  6  7  1  0
  7  8  2  0
  8  9  1  0
  9 10  2  0
 10 11  1  0
 11 12  1  0
 12 13  1  0
 13 14  2  0
 14 15  1  0
 14 16  1  0
 16 17  2  0
 17 18  1  0
 18 19  2  0
 19 20  1  0
 20 21  2  0
 21 22  1  0
 22 23  1  0
 21 24  1  0
 24 25  1  0
 24 26  2  0
 11 27  2  0
  6 28  1  0
 28 29  2  0
 29  3  1  0
 27  7  1  0
 17 12  1  0
 26 18  1  0
  1 30  1  0
  1 31  1  0
  1 32  1  0
  4 33  1  0
  5 34  1  0
  8 35  1  0
  9 36  1  0
 10 37  1  0
 15 38  1  0
 15 39  1  0
 15 40  1  0
 16 41  1  0
 19 42  1  0
 20 43  1  0
 23 44  1  0
 23 45  1  0
 23 46  1  0
 25 47  1  0
 25 48  1  0
 25 49  1  0
 26 50  1  0
 28 51  1  0
 29 52  1  0
M  END
>  <UniqueID>  (30) 
29

>  <SMILES>  (30) 
COc1ccc(-c2cccc(-n3nc(C)cc3-c3ccc(OC)c(C)c3)n2)cc1

>  <Energy>  (30) 
91.51893902787576

>  <Genealogy>  (30) 
COc1ccc(-c2cccc(-n3nc(C)cc3-c3ccc(OC)c(C)c3)n2)cc1 (3D coordinates assigned)
COc1ccc(-c2cccc(-n3nc(C)cc3-c3ccc(OC)c(C)c3)n2)cc1 (optimized conformer: 91.51893902787576 kcal/mol)

>  <smiles>  (30) 
COc1ccc(-c2cccc(-n3nc(C)cc3-c3ccc(OC)c(C)c3)n2)cc1

>  <score_type>  (30) 
oracle

>  <origin>  (30) 
adgpu

>  <m_score__min__energy>  (30) 
-9.4100000000000001

>  <m_primary>  (30) 
energy

$$$$
30:0
     RDKit          3D

 34 36  0  0  0  0  0  0  0  0999 V2000
   -3.9200   25.2920  -30.3710 O   0  0  0  0  0  0  0  0  0  0  0  0
   -3.3140   24.1890  -30.3780 C   0  0  0  0  0  0  0  0  0  0  0  0
   -3.7280   23.1430  -31.2670 N   0  0  0  0  0  0  0  0  0  0  0  0
   -5.0660   22.6660  -31.4630 C   0  0  0  0  0  0  0  0  0  0  0  0
   -6.1280   23.4010  -30.9210 C   0  0  0  0  0  0  0  0  0  0  0  0
   -7.4460   22.9600  -31.0720 C   0  0  0  0  0  0  0  0  0  0  0  0
   -7.7130   21.7690  -31.7550 C   0  0  0  0  0  0  0  0  0  0  0  0
   -9.3660   21.2140  -31.9410 Cl  0  0  0  0  0  0  0  0  0  0  0  0
   -6.6570   21.0160  -32.2780 C   0  0  0  0  0  0  0  0  0  0  0  0
   -5.3380   21.4550  -32.1270 C   0  0  0  0  0  0  0  0  0  0  0  0
   -2.2180   23.9400  -29.4210 C   0  0  0  0  0  0  0  0  0  0  0  0
   -1.2950   24.8610  -28.9630 C   0  0  0  0  0  0  0  0  0  0  0  0
   -1.2330   26.2090  -29.2940 O   0  0  0  0  0  0  0  0  0  0  0  0
   -0.4310   24.2020  -28.1190 C   0  0  0  0  0  0  0  0  0  0  0  0
   -0.7870   22.9400  -28.0460 O   0  0  0  0  0  0  0  0  0  0  0  0
   -1.8450   22.7490  -28.8080 C   0  0  0  0  0  0  0  0  0  0  0  0
   -2.5200   21.4880  -28.9290 N   0  0  0  0  0  0  0  0  0  0  0  0
   -2.1410   20.3180  -28.1850 C   0  0  0  0  0  0  0  0  0  0  0  0
   -2.9260   19.8400  -27.1180 C   0  0  0  0  0  0  0  0  0  0  0  0
   -2.5240   18.7100  -26.3980 C   0  0  0  0  0  0  0  0  0  0  0  0
   -1.3340   18.0560  -26.7270 C   0  0  0  0  0  0  0  0  0  0  0  0
   -0.5390   18.5360  -27.7710 C   0  0  0  0  0  0  0  0  0  0  0  0
   -0.9360   19.6650  -28.4930 C   0  0  0  0  0  0  0  0  0  0  0  0
   -5.9234   24.3322  -30.3724 H   0  0  0  0  0  0  0  0  0  0  0  0
   -8.2742   23.5505  -30.6531 H   0  0  0  0  0  0  0  0  0  0  0  0
   -6.8646   20.0757  -32.8097 H   0  0  0  0  0  0  0  0  0  0  0  0
   -4.5102   20.8520  -32.5284 H   0  0  0  0  0  0  0  0  0  0  0  0
    0.4196   24.6580  -27.5912 H   0  0  0  0  0  0  0  0  0  0  0  0
   -3.4050   21.4510  -29.4810 H   0  0  0  0  0  0  0  0  0  0  0  0
   -3.8590   20.3572  -26.8497 H   0  0  0  0  0  0  0  0  0  0  0  0
   -3.1458   18.3357  -25.5714 H   0  0  0  0  0  0  0  0  0  0  0  0
   -1.0230   17.1634  -26.1643 H   0  0  0  0  0  0  0  0  0  0  0  0
    0.4010   18.0244  -28.0251 H   0  0  0  0  0  0  0  0  0  0  0  0
   -0.3011   20.0444  -29.3072 H   0  0  0  0  0  0  0  0  0  0  0  0
  1  2  2  0
  2  3  1  0
  3  4  1  0
  4  5  2  0
  5  6  1  0
  6  7  2  0
  7  8  1  0
  7  9  1  0
  9 10  2  0
  2 11  1  0
 11 12  1  0
 12 13  1  0
 12 14  2  0
 14 15  1  0
 15 16  1  0
 16 17  1  0
 17 18  1  0
 18 19  2  0
 19 20  1  0
 20 21  2  0
 21 22  1  0
 22 23  2  0
 10  4  1  0
 16 11  2  0
 23 18  1  0
  5 24  1  0
  6 25  1  0
  9 26  1  0
 10 27  1  0
 14 28  1  0
 17 29  1  0
 19 30  1  0
 20 31  1  0
 21 32  1  0
 22 33  1  0
 23 34  1  0
M  CHG  2   3  -1  13  -1
M  END
>  <UniqueID>  (31) 
30

>  <SMILES>  (31) 
O=C([N-]c1ccc(Cl)cc1)c1c([O-])coc1Nc1ccccc1

>  <Energy>  (31) 
73.17781062848383

>  <Genealogy>  (31) 
O=C([N-]c1ccc(Cl)cc1)c1c([O-])coc1Nc1ccccc1 (protonated)
O=C([N-]c1ccc(Cl)cc1)c1c([O-])coc1Nc1ccccc1 (3D coordinates assigned)
O=C([N-]c1ccc(Cl)cc1)c1c([O-])coc1Nc1ccccc1 (optimized conformer: 73.17781062848383 kcal/mol)

>  <smiles>  (31) 
O=C(Nc1ccc(Cl)cc1)c1c(O)coc1Nc1ccccc1

>  <score_type>  (31) 
oracle

>  <origin>  (31) 
adgpu

>  <m_score__min__energy>  (31) 
-11.44

>  <m_primary>  (31) 
energy

$$$$
31:0
     RDKit          3D

 35 37  0  0  0  0  0  0  0  0999 V2000
   -4.6480   15.2700  -32.9370 C   0  0  0  0  0  0  0  0  0  0  0  0
   -5.7650   14.7830  -33.8530 C   0  0  0  0  0  0  0  0  0  0  0  0
   -6.5490   15.8800  -34.3240 O   0  0  0  0  0  0  0  0  0  0  0  0
   -6.6190   17.1500  -33.7280 C   0  0  0  0  0  0  0  0  0  0  0  0
   -6.0630   18.2340  -34.4200 C   0  0  0  0  0  0  0  0  0  0  0  0
   -6.1010   19.5210  -33.8760 C   0  0  0  0  0  0  0  0  0  0  0  0
   -6.6920   19.7390  -32.6240 C   0  0  0  0  0  0  0  0  0  0  0  0
   -6.7370   21.0660  -32.0640 N   0  0  0  0  0  0  0  0  0  0  0  0
   -7.9360   21.7140  -31.8730 C   0  0  0  0  0  0  0  0  0  0  0  0
   -9.3670   21.0160  -32.3060 S   0  0  0  0  0  0  0  0  0  0  0  0
   -7.9610   22.9650  -31.3370 N   0  0  0  0  0  0  0  0  0  0  0  0
   -6.8150   23.6050  -30.9790 C   0  0  0  0  0  0  0  0  0  0  0  0
   -6.8630   24.8960  -30.4290 C   0  0  0  0  0  0  0  0  0  0  0  0
   -5.6830   25.5500  -30.0650 C   0  0  0  0  0  0  0  0  0  0  0  0
   -4.4490   24.9220  -30.2490 C   0  0  0  0  0  0  0  0  0  0  0  0
   -4.3890   23.6380  -30.7960 C   0  0  0  0  0  0  0  0  0  0  0  0
   -5.5720   22.9700  -31.1660 C   0  0  0  0  0  0  0  0  0  0  0  0
   -5.5600   21.6800  -31.7180 C   0  0  0  0  0  0  0  0  0  0  0  0
   -4.4600   21.0820  -31.8910 O   0  0  0  0  0  0  0  0  0  0  0  0
   -7.2490   18.6600  -31.9250 C   0  0  0  0  0  0  0  0  0  0  0  0
   -7.2110   17.3730  -32.4690 C   0  0  0  0  0  0  0  0  0  0  0  0
   -4.9506   15.1381  -31.8877 H   0  0  0  0  0  0  0  0  0  0  0  0
   -3.7348   14.6884  -33.1312 H   0  0  0  0  0  0  0  0  0  0  0  0
   -4.4527   16.3350  -33.1312 H   0  0  0  0  0  0  0  0  0  0  0  0
   -5.3232   14.2596  -34.7137 H   0  0  0  0  0  0  0  0  0  0  0  0
   -6.4160   14.1027  -33.2843 H   0  0  0  0  0  0  0  0  0  0  0  0
   -5.5921   18.0707  -35.4006 H   0  0  0  0  0  0  0  0  0  0  0  0
   -5.6660   20.3647  -34.4318 H   0  0  0  0  0  0  0  0  0  0  0  0
   -8.8810   23.4450  -31.1990 H   0  0  0  0  0  0  0  0  0  0  0  0
   -7.8329   25.3943  -30.2842 H   0  0  0  0  0  0  0  0  0  0  0  0
   -5.7260   26.5607  -29.6330 H   0  0  0  0  0  0  0  0  0  0  0  0
   -3.5219   25.4399  -29.9624 H   0  0  0  0  0  0  0  0  0  0  0  0
   -3.4148   23.1474  -30.9381 H   0  0  0  0  0  0  0  0  0  0  0  0
   -7.7181   18.8264  -30.9441 H   0  0  0  0  0  0  0  0  0  0  0  0
   -7.6454   16.5301  -31.9115 H   0  0  0  0  0  0  0  0  0  0  0  0
  1  2  1  0
  2  3  1  0
  3  4  1  0
  4  5  2  0
  5  6  1  0
  6  7  2  0
  7  8  1  0
  8  9  1  0
  9 10  2  0
  9 11  1  0
 11 12  1  0
 12 13  2  0
 13 14  1  0
 14 15  2  0
 15 16  1  0
 16 17  2  0
 17 18  1  0
 18 19  2  0
  7 20  1  0
 20 21  2  0
 21  4  1  0
 18  8  1  0
 17 12  1  0
  1 22  1  0
  1 23  1  0
  1 24  1  0
  2 25  1  0
  2 26  1  0
  5 27  1  0
  6 28  1  0
 11 29  1  0
 13 30  1  0
 14 31  1  0
 15 32  1  0
 16 33  1  0
 20 34  1  0
 21 35  1  0
M  END
>  <UniqueID>  (32) 
31

>  <SMILES>  (32) 
CCOc1ccc(-n2c(=S)[nH]c3ccccc3c2=O)cc1

>  <Energy>  (32) 
52.405507269489505

>  <Genealogy>  (32) 
CCOc1ccc(-n2c(=S)[nH]c3ccccc3c2=O)cc1 (3D coordinates assigned)
CCOc1ccc(-n2c(=S)[nH]c3ccccc3c2=O)cc1 (optimized conformer: 52.405507269489505 kcal/mol)

>  <smiles>  (32) 
CCOc1ccc(-n2c(=S)[nH]c3ccccc3c2=O)cc1

>  <score_type>  (32) 
oracle

>  <origin>  (32) 
adgpu

>  <m_score__min__energy>  (32) 
-7.2999999999999998

>  <m_primary>  (32) 
energy

$$$$
32:0
     RDKit          3D

 42 44  0  0  0  0  0  0  0  0999 V2000
   -3.9400   24.9190  -26.4840 C   0  0  0  0  0  0  0  0  0  0  0  0
   -2.7650   24.2230  -27.1640 C   0  0  0  0  0  0  0  0  0  0  0  0
   -1.9860   25.1970  -28.0530 C   0  0  0  0  0  0  0  0  0  0  0  0
   -2.5920   25.2960  -29.3420 O   0  0  0  0  0  0  0  0  0  0  0  0
   -3.6230   24.4730  -29.8270 C   0  0  0  0  0  0  0  0  0  0  0  0
   -3.3840   23.2150  -30.4090 C   0  0  0  0  0  0  0  0  0  0  0  0
   -4.4490   22.4380  -30.8730 C   0  0  0  0  0  0  0  0  0  0  0  0
   -5.7740   22.8980  -30.7650 C   0  0  0  0  0  0  0  0  0  0  0  0
   -6.9140   22.0800  -31.2540 C   0  0  0  0  0  0  0  0  0  0  0  0
   -6.8850   20.7240  -31.6010 C   0  0  0  0  0  0  0  0  0  0  0  0
   -8.0790   20.2170  -32.0210 N   0  0  0  0  0  0  0  0  0  0  0  0
   -8.2730   18.8100  -32.3820 C   0  0  0  0  0  0  0  0  0  0  0  0
   -6.9740   18.2180  -32.8560 C   0  0  0  0  0  0  0  0  0  0  0  0
   -6.4130   17.1190  -32.1860 C   0  0  0  0  0  0  0  0  0  0  0  0
   -5.2260   16.5430  -32.6500 C   0  0  0  0  0  0  0  0  0  0  0  0
   -4.5970   17.0540  -33.7900 C   0  0  0  0  0  0  0  0  0  0  0  0
   -5.1570   18.1390  -34.4690 C   0  0  0  0  0  0  0  0  0  0  0  0
   -6.3440   18.7180  -34.0080 C   0  0  0  0  0  0  0  0  0  0  0  0
   -9.0620   21.1470  -31.9980 C   0  0  0  0  0  0  0  0  0  0  0  0
  -10.2560   20.9170  -32.3250 O   0  0  0  0  0  0  0  0  0  0  0  0
   -8.4970   22.6370  -31.4800 S   0  0  0  0  0  0  0  0  0  0  0  0
   -6.0050   24.1530  -30.1730 C   0  0  0  0  0  0  0  0  0  0  0  0
   -4.9390   24.9290  -29.7110 C   0  0  0  0  0  0  0  0  0  0  0  0
   -3.8247   24.8507  -25.3922 H   0  0  0  0  0  0  0  0  0  0  0  0
   -3.9635   25.9768  -26.7848 H   0  0  0  0  0  0  0  0  0  0  0  0
   -4.8790   24.4313  -26.7848 H   0  0  0  0  0  0  0  0  0  0  0  0
   -2.0903   23.8219  -26.3934 H   0  0  0  0  0  0  0  0  0  0  0  0
   -3.1573   23.4118  -27.7949 H   0  0  0  0  0  0  0  0  0  0  0  0
   -1.9777   26.1902  -27.5803 H   0  0  0  0  0  0  0  0  0  0  0  0
   -0.9582   24.8235  -28.1723 H   0  0  0  0  0  0  0  0  0  0  0  0
   -2.3536   22.8408  -30.4994 H   0  0  0  0  0  0  0  0  0  0  0  0
   -4.2490   21.4564  -31.3274 H   0  0  0  0  0  0  0  0  0  0  0  0
   -5.9708   20.1154  -31.5396 H   0  0  0  0  0  0  0  0  0  0  0  0
   -8.6276   18.2534  -31.5019 H   0  0  0  0  0  0  0  0  0  0  0  0
   -9.0169   18.7431  -33.1896 H   0  0  0  0  0  0  0  0  0  0  0  0
   -6.9086   16.7097  -31.2933 H   0  0  0  0  0  0  0  0  0  0  0  0
   -4.7864   15.6867  -32.1175 H   0  0  0  0  0  0  0  0  0  0  0  0
   -3.6618   16.6018  -34.1518 H   0  0  0  0  0  0  0  0  0  0  0  0
   -4.6638   18.5385  -35.3674 H   0  0  0  0  0  0  0  0  0  0  0  0
   -6.7857   19.5677  -34.5493 H   0  0  0  0  0  0  0  0  0  0  0  0
   -7.0346   24.5269  -30.0729 H   0  0  0  0  0  0  0  0  0  0  0  0
   -5.1374   25.9085  -29.2514 H   0  0  0  0  0  0  0  0  0  0  0  0
  1  2  1  0
  2  3  1  0
  3  4  1  0
  4  5  1  0
  5  6  2  0
  6  7  1  0
  7  8  2  0
  8  9  1  0
  9 10  2  0
 10 11  1  0
 11 12  1  0
 12 13  1  0
 13 14  2  0
 14 15  1  0
 15 16  2  0
 16 17  1  0
 17 18  2  0
 11 19  1  0
 19 20  2  0
 19 21  1  0
  8 22  1  0
 22 23  2  0
 23  5  1  0
 21  9  1  0
 18 13  1  0
  1 24  1  0
  1 25  1  0
  1 26  1  0
  2 27  1  0
  2 28  1  0
  3 29  1  0
  3 30  1  0
  6 31  1  0
  7 32  1  0
 10 33  1  0
 12 34  1  0
 12 35  1  0
 14 36  1  0
 15 37  1  0
 16 38  1  0
 17 39  1  0
 18 40  1  0
 22 41  1  0
 23 42  1  0
M  END
>  <UniqueID>  (33) 
32

>  <SMILES>  (33) 
CCCOc1ccc(-c2cn(Cc3ccccc3)c(=O)s2)cc1

>  <Energy>  (33) 
71.85452247403903

>  <Genealogy>  (33) 
CCCOc1ccc(-c2cn(Cc3ccccc3)c(=O)s2)cc1 (3D coordinates assigned)
CCCOc1ccc(-c2cn(Cc3ccccc3)c(=O)s2)cc1 (optimized conformer: 71.85452247403903 kcal/mol)

>  <smiles>  (33) 
CCCOc1ccc(-c2cn(Cc3ccccc3)c(=O)s2)cc1

>  <score_type>  (33) 
oracle

>  <origin>  (33) 
adgpu

>  <m_score__min__energy>  (33) 
-9.0600000000000005

>  <m_primary>  (33) 
energy

$$$$
33:0
     RDKit          3D

 38 39  0  0  0  0  0  0  0  0999 V2000
   -4.6130   13.7710  -32.1690 C   0  0  0  0  0  0  0  0  0  0  0  0
   -4.8120   15.2080  -32.5220 C   0  0  0  0  0  0  0  0  0  0  0  0
   -4.3350   15.6510  -33.6020 O   0  0  0  0  0  0  0  0  0  0  0  0
   -5.4540   16.0890  -31.5870 N   0  0  0  0  0  0  0  0  0  0  0  0
   -5.8970   17.4210  -31.9030 C   0  0  0  0  0  0  0  0  0  0  0  0
   -7.2370   17.8080  -31.7330 C   0  0  0  0  0  0  0  0  0  0  0  0
   -7.6480   19.1170  -32.0330 C   0  0  0  0  0  0  0  0  0  0  0  0
   -9.0930   19.4940  -31.8620 C   0  0  0  0  0  0  0  0  0  0  0  0
   -6.6930   20.0680  -32.4510 C   0  0  0  0  0  0  0  0  0  0  0  0
   -7.0710   21.3900  -32.7220 O   0  0  0  0  0  0  0  0  0  0  0  0
   -6.8560   22.4610  -31.8420 C   0  0  0  0  0  0  0  0  0  0  0  0
   -6.0170   23.5040  -32.2480 C   0  0  0  0  0  0  0  0  0  0  0  0
   -5.7700   24.5890  -31.4000 C   0  0  0  0  0  0  0  0  0  0  0  0
   -6.3640   24.6410  -30.1310 C   0  0  0  0  0  0  0  0  0  0  0  0
   -6.1200   25.7550  -29.2690 N   0  0  0  0  0  0  0  0  0  0  0  0
   -7.1980   23.5940  -29.7150 C   0  0  0  0  0  0  0  0  0  0  0  0
   -7.4440   22.5100  -30.5630 C   0  0  0  0  0  0  0  0  0  0  0  0
   -5.3470   19.6880  -32.6090 C   0  0  0  0  0  0  0  0  0  0  0  0
   -4.3290   20.6850  -33.0900 C   0  0  0  0  0  0  0  0  0  0  0  0
   -4.9610   18.3680  -32.3370 C   0  0  0  0  0  0  0  0  0  0  0  0
   -4.5978   13.6610  -31.0746 H   0  0  0  0  0  0  0  0  0  0  0  0
   -5.4370   13.1735  -32.5862 H   0  0  0  0  0  0  0  0  0  0  0  0
   -3.6577   13.4199  -32.5862 H   0  0  0  0  0  0  0  0  0  0  0  0
   -5.5510   15.7600  -30.5990 H   0  0  0  0  0  0  0  0  0  0  0  0
   -7.9715   17.0784  -31.3612 H   0  0  0  0  0  0  0  0  0  0  0  0
   -9.3313   19.5562  -30.7899 H   0  0  0  0  0  0  0  0  0  0  0  0
   -9.2758   20.4699  -32.3355 H   0  0  0  0  0  0  0  0  0  0  0  0
   -9.7293   18.7318  -32.3355 H   0  0  0  0  0  0  0  0  0  0  0  0
   -5.5475   23.4709  -33.2422 H   0  0  0  0  0  0  0  0  0  0  0  0
   -5.1081   25.4034  -31.7297 H   0  0  0  0  0  0  0  0  0  0  0  0
   -6.7150   26.6120  -29.3230 H   0  0  0  0  0  0  0  0  0  0  0  0
   -5.3680   25.7170  -28.5440 H   0  0  0  0  0  0  0  0  0  0  0  0
   -7.6607   23.6254  -28.7175 H   0  0  0  0  0  0  0  0  0  0  0  0
   -8.0996   21.6919  -30.2299 H   0  0  0  0  0  0  0  0  0  0  0  0
   -3.8438   21.1602  -32.2247 H   0  0  0  0  0  0  0  0  0  0  0  0
   -3.5709   20.1704  -33.6986 H   0  0  0  0  0  0  0  0  0  0  0  0
   -4.8277   21.4537  -33.6986 H   0  0  0  0  0  0  0  0  0  0  0  0
   -3.9094   18.0723  -32.4661 H   0  0  0  0  0  0  0  0  0  0  0  0
  1  2  1  0
  2  3  2  0
  2  4  1  0
  4  5  1  0
  5  6  2  0
  6  7  1  0
  7  8  1  0
  7  9  2  0
  9 10  1  0
 10 11  1  0
 11 12  2  0
 12 13  1  0
 13 14  2  0
 14 15  1  0
 14 16  1  0
 16 17  2  0
  9 18  1  0
 18 19  1  0
 18 20  2  0
 20  5  1  0
 17 11  1  0
  1 21  1  0
  1 22  1  0
  1 23  1  0
  4 24  1  0
  6 25  1  0
  8 26  1  0
  8 27  1  0
  8 28  1  0
 12 29  1  0
 13 30  1  0
 15 31  1  0
 15 32  1  0
 16 33  1  0
 17 34  1  0
 19 35  1  0
 19 36  1  0
 19 37  1  0
 20 38  1  0
M  END
>  <UniqueID>  (34) 
33

>  <SMILES>  (34) 
CC(=O)Nc1cc(C)c(Oc2ccc(N)cc2)c(C)c1

>  <Energy>  (34) 
46.23834206212511

>  <Genealogy>  (34) 
CC(=O)Nc1cc(C)c(Oc2ccc(N)cc2)c(C)c1 (3D coordinates assigned)
CC(=O)Nc1cc(C)c(Oc2ccc(N)cc2)c(C)c1 (optimized conformer: 46.23834206212511 kcal/mol)

>  <smiles>  (34) 
CC(=O)Nc1cc(C)c(Oc2ccc(N)cc2)c(C)c1

>  <score_type>  (34) 
oracle

>  <origin>  (34) 
adgpu

>  <m_score__min__energy>  (34) 
-7.3499999999999996

>  <m_primary>  (34) 
energy

$$$$
34:0
     RDKit          3D

 34 36  0  0  0  0  0  0  0  0999 V2000
   -3.4190   15.5130  -32.7630 N   0  0  0  0  0  0  0  0  0  0  0  0
   -4.6810   15.3100  -33.4150 C   0  0  0  0  0  0  0  0  0  0  0  0
   -4.9820   14.0400  -33.9320 C   0  0  0  0  0  0  0  0  0  0  0  0
   -6.2240   13.7870  -34.5180 C   0  0  0  0  0  0  0  0  0  0  0  0
   -7.1810   14.8000  -34.5910 C   0  0  0  0  0  0  0  0  0  0  0  0
   -6.8950   16.0710  -34.0900 C   0  0  0  0  0  0  0  0  0  0  0  0
   -5.6440   16.3460  -33.5090 C   0  0  0  0  0  0  0  0  0  0  0  0
   -5.3670   17.7210  -33.0360 C   0  0  0  0  0  0  0  0  0  0  0  0
   -4.3810   18.5020  -33.6580 C   0  0  0  0  0  0  0  0  0  0  0  0
   -4.1350   19.8070  -33.2250 C   0  0  0  0  0  0  0  0  0  0  0  0
   -4.8790   20.3600  -32.1660 C   0  0  0  0  0  0  0  0  0  0  0  0
   -4.6170   21.7480  -31.7050 C   0  0  0  0  0  0  0  0  0  0  0  0
   -5.5930   22.7510  -31.8650 C   0  0  0  0  0  0  0  0  0  0  0  0
   -5.3440   24.0560  -31.4300 C   0  0  0  0  0  0  0  0  0  0  0  0
   -4.1220   24.3760  -30.8310 C   0  0  0  0  0  0  0  0  0  0  0  0
   -3.8780   25.6730  -30.3990 O   0  0  0  0  0  0  0  0  0  0  0  0
   -3.1470   23.3880  -30.6670 C   0  0  0  0  0  0  0  0  0  0  0  0
   -3.3910   22.0820  -31.1000 C   0  0  0  0  0  0  0  0  0  0  0  0
   -5.8750   19.5780  -31.5540 C   0  0  0  0  0  0  0  0  0  0  0  0
   -6.1200   18.2730  -31.9890 C   0  0  0  0  0  0  0  0  0  0  0  0
   -2.7890   14.7040  -32.5640 H   0  0  0  0  0  0  0  0  0  0  0  0
   -3.1250   16.4480  -32.4060 H   0  0  0  0  0  0  0  0  0  0  0  0
   -4.2326   13.2368  -33.8750 H   0  0  0  0  0  0  0  0  0  0  0  0
   -6.4481   12.7888  -34.9222 H   0  0  0  0  0  0  0  0  0  0  0  0
   -8.1625   14.5965  -35.0442 H   0  0  0  0  0  0  0  0  0  0  0  0
   -7.6545   16.8644  -34.1501 H   0  0  0  0  0  0  0  0  0  0  0  0
   -3.7981   18.0839  -34.4919 H   0  0  0  0  0  0  0  0  0  0  0  0
   -3.3541   20.4069  -33.7153 H   0  0  0  0  0  0  0  0  0  0  0  0
   -6.5568   22.5059  -32.3350 H   0  0  0  0  0  0  0  0  0  0  0  0
   -6.1116   24.8332  -31.5594 H   0  0  0  0  0  0  0  0  0  0  0  0
   -2.1852   23.6391  -30.1959 H   0  0  0  0  0  0  0  0  0  0  0  0
   -2.6193   21.3095  -30.9670 H   0  0  0  0  0  0  0  0  0  0  0  0
   -6.4659   19.9971  -30.7262 H   0  0  0  0  0  0  0  0  0  0  0  0
   -6.9079   17.6750  -31.5077 H   0  0  0  0  0  0  0  0  0  0  0  0
  1  2  1  0
  2  3  2  0
  3  4  1  0
  4  5  2  0
  5  6  1  0
  6  7  2  0
  7  8  1  0
  8  9  2  0
  9 10  1  0
 10 11  2  0
 11 12  1  0
 12 13  2  0
 13 14  1  0
 14 15  2  0
 15 16  1  0
 15 17  1  0
 17 18  2  0
 11 19  1  0
 19 20  2  0
  7  2  1  0
 20  8  1  0
 18 12  1  0
  1 21  1  0
  1 22  1  0
  3 23  1  0
  4 24  1  0
  5 25  1  0
  6 26  1  0
  9 27  1  0
 10 28  1  0
 13 29  1  0
 14 30  1  0
 17 31  1  0
 18 32  1  0
 19 33  1  0
 20 34  1  0
M  CHG  1  16  -1
M  END
>  <UniqueID>  (35) 
34

>  <SMILES>  (35) 
Nc1ccccc1-c1ccc(-c2ccc([O-])cc2)cc1

>  <Energy>  (35) 
49.58946022698355

>  <Genealogy>  (35) 
Nc1ccccc1-c1ccc(-c2ccc([O-])cc2)cc1 (protonated)
Nc1ccccc1-c1ccc(-c2ccc([O-])cc2)cc1 (3D coordinates assigned)
Nc1ccccc1-c1ccc(-c2ccc([O-])cc2)cc1 (optimized conformer: 49.58946022698355 kcal/mol)

>  <smiles>  (35) 
Nc1ccccc1-c1ccc(-c2ccc(O)cc2)cc1

>  <score_type>  (35) 
oracle

>  <origin>  (35) 
adgpu

>  <m_score__min__energy>  (35) 
-9.1099999999999994

>  <m_primary>  (35) 
energy

$$$$
35:0
     RDKit          3D

 27 28  0  0  0  0  0  0  0  0999 V2000
   -9.4030   19.0140  -32.7050 C   0  0  0  0  0  0  0  0  0  0  0  0
   -8.3710   20.0030  -32.3010 C   0  0  0  0  0  0  0  0  0  0  0  0
   -7.0850   19.9960  -32.7400 C   0  0  0  0  0  0  0  0  0  0  0  0
   -6.1860   20.9570  -32.3120 C   0  0  0  0  0  0  0  0  0  0  0  0
   -6.5240   21.9660  -31.4320 C   0  0  0  0  0  0  0  0  0  0  0  0
   -5.5840   22.9810  -30.9780 C   0  0  0  0  0  0  0  0  0  0  0  0
   -4.2690   22.6600  -30.7250 C   0  0  0  0  0  0  0  0  0  0  0  0
   -3.3790   23.6400  -30.2900 C   0  0  0  0  0  0  0  0  0  0  0  0
   -2.1440   23.3390  -30.0520 N   0  0  0  0  0  0  0  0  0  0  0  0
   -3.7600   24.9170  -30.1040 N   0  0  0  0  0  0  0  0  0  0  0  0
   -5.0490   25.2050  -30.3590 C   0  0  0  0  0  0  0  0  0  0  0  0
   -5.4230   26.4180  -30.1850 N   0  0  0  0  0  0  0  0  0  0  0  0
   -5.9290   24.2720  -30.7810 N   0  0  0  0  0  0  0  0  0  0  0  0
   -7.8430   21.9630  -30.9910 C   0  0  0  0  0  0  0  0  0  0  0  0
   -8.7490   20.9950  -31.4210 C   0  0  0  0  0  0  0  0  0  0  0  0
   -9.8614   18.5747  -31.8067 H   0  0  0  0  0  0  0  0  0  0  0  0
  -10.1774   19.5159  -33.3037 H   0  0  0  0  0  0  0  0  0  0  0  0
   -8.9345   18.2190  -33.3037 H   0  0  0  0  0  0  0  0  0  0  0  0
   -6.7549   19.2176  -33.4436 H   0  0  0  0  0  0  0  0  0  0  0  0
   -5.1540   20.9152  -32.6904 H   0  0  0  0  0  0  0  0  0  0  0  0
   -3.9200   21.6265  -30.8668 H   0  0  0  0  0  0  0  0  0  0  0  0
   -1.7990   22.3690  -30.1800 H   0  0  0  0  0  0  0  0  0  0  0  0
   -3.1040   25.6720  -29.7780 H   0  0  0  0  0  0  0  0  0  0  0  0
   -6.3990   26.6910  -30.3660 H   0  0  0  0  0  0  0  0  0  0  0  0
   -6.9010   24.6040  -30.9470 H   0  0  0  0  0  0  0  0  0  0  0  0
   -8.1780   22.7404  -30.2886 H   0  0  0  0  0  0  0  0  0  0  0  0
   -9.7847   21.0229  -31.0515 H   0  0  0  0  0  0  0  0  0  0  0  0
  1  2  1  0
  2  3  2  0
  3  4  1  0
  4  5  2  0
  5  6  1  0
  6  7  2  0
  7  8  1  0
  8  9  2  3
  8 10  1  0
 10 11  1  0
 11 12  2  3
 11 13  1  0
  5 14  1  0
 14 15  2  0
 15  2  1  0
 13  6  1  0
  1 16  1  0
  1 17  1  0
  1 18  1  0
  3 19  1  0
  4 20  1  0
  7 21  1  0
  9 22  1  0
 10 23  1  0
 12 24  1  0
 13 25  1  0
 14 26  1  0
 15 27  1  0
M  END
>  <smiles>  (36) 
Cc1ccc(-c2cc(=N)[nH]c(=N)[nH]2)cc1

>  <score_type>  (36) 
oracle

>  <origin>  (36) 
adgpu

>  <m_score__min__energy>  (36) 
-6.2699999999999996

>  <m_primary>  (36) 
energy

$$$$
36:0
     RDKit          3D

 39 39  0  0  0  0  0  0  0  0999 V2000
   -6.1070   17.5090  -34.1660 C   0  0  0  0  0  0  0  0  0  0  0  0
   -4.8810   18.2160  -34.0180 O   0  0  0  0  0  0  0  0  0  0  0  0
   -4.7730   19.5090  -33.4860 C   0  0  0  0  0  0  0  0  0  0  0  0
   -3.5470   20.1980  -33.4180 C   0  0  0  0  0  0  0  0  0  0  0  0
   -3.4920   21.4850  -32.8750 C   0  0  0  0  0  0  0  0  0  0  0  0
   -4.6500   22.1040  -32.3930 C   0  0  0  0  0  0  0  0  0  0  0  0
   -4.5410   23.3960  -31.8590 O   0  0  0  0  0  0  0  0  0  0  0  0
   -5.6470   24.2440  -31.5600 C   0  0  0  0  0  0  0  0  0  0  0  0
   -5.2600   25.2580  -30.4700 C   0  0  2  0  0  0  0  0  0  0  0  0
   -3.8700   25.4660  -30.4820 O   0  0  0  0  0  0  0  0  0  0  0  0
   -5.7100   24.8260  -29.0530 C   0  0  0  0  0  0  0  0  0  0  0  0
   -4.6190   24.9210  -28.0620 N   0  0  0  0  0  0  0  0  0  0  0  0
   -4.1350   23.5910  -27.6260 C   0  0  0  0  0  0  0  0  0  0  0  0
   -2.6890   23.6520  -27.1010 C   0  0  0  0  0  0  0  0  0  0  0  0
   -4.2180   22.5940  -28.7910 C   0  0  0  0  0  0  0  0  0  0  0  0
   -5.8760   21.4170  -32.4620 C   0  0  0  0  0  0  0  0  0  0  0  0
   -5.9320   20.1300  -33.0060 C   0  0  0  0  0  0  0  0  0  0  0  0
   -6.5164   17.2729  -33.1727 H   0  0  0  0  0  0  0  0  0  0  0  0
   -6.8249   18.1318  -34.7199 H   0  0  0  0  0  0  0  0  0  0  0  0
   -5.9275   16.5757  -34.7199 H   0  0  0  0  0  0  0  0  0  0  0  0
   -2.6292   19.7219  -33.7935 H   0  0  0  0  0  0  0  0  0  0  0  0
   -2.5296   22.0155  -32.8264 H   0  0  0  0  0  0  0  0  0  0  0  0
   -5.9463   24.7851  -32.4698 H   0  0  0  0  0  0  0  0  0  0  0  0
   -6.4831   23.6284  -31.1968 H   0  0  0  0  0  0  0  0  0  0  0  0
   -5.7889   26.1936  -30.7045 H   0  0  0  0  0  0  0  0  0  0  0  0
   -3.4940   24.9350  -31.2320 H   0  0  0  0  0  0  0  0  0  0  0  0
   -6.5369   25.4763  -28.7314 H   0  0  0  0  0  0  0  0  0  0  0  0
   -6.0229   23.7728  -29.1072 H   0  0  0  0  0  0  0  0  0  0  0  0
   -4.9540   25.4550  -27.2250 H   0  0  0  0  0  0  0  0  0  0  0  0
   -3.8190   25.4410  -28.4930 H   0  0  0  0  0  0  0  0  0  0  0  0
   -4.7817   23.2569  -26.8013 H   0  0  0  0  0  0  0  0  0  0  0  0
   -2.6980   23.6516  -26.0010 H   0  0  0  0  0  0  0  0  0  0  0  0
   -2.1301   22.7766  -27.4634 H   0  0  0  0  0  0  0  0  0  0  0  0
   -2.2058   24.5713  -27.4634 H   0  0  0  0  0  0  0  0  0  0  0  0
   -4.3031   21.5719  -28.3935 H   0  0  0  0  0  0  0  0  0  0  0  0
   -5.1002   22.8225  -29.4070 H   0  0  0  0  0  0  0  0  0  0  0  0
   -3.3101   22.6735  -29.4070 H   0  0  0  0  0  0  0  0  0  0  0  0
   -6.7935   21.8939  -32.0868 H   0  0  0  0  0  0  0  0  0  0  0  0
   -6.8951   19.6011  -33.0572 H   0  0  0  0  0  0  0  0  0  0  0  0
  1  2  1  0
  2  3  1  0
  3  4  2  0
  4  5  1  0
  5  6  2  0
  6  7  1  0
  7  8  1  0
  8  9  1  0
  9 10  1  0
  9 11  1  0
 11 12  1  0
 12 13  1  0
 13 14  1  0
 13 15  1  0
  6 16  1  0
 16 17  2  0
 17  3  1  0
  1 18  1  0
  1 19  1  0
  1 20  1  0
  4 21  1  0
  5 22  1  0
  8 23  1  0
  8 24  1  0
  9 25  1  6
 10 26  1  0
 11 27  1  0
 11 28  1  0
 12 29  1  0
 12 30  1  0
 13 31  1  0
 14 32  1  0
 14 33  1  0
 14 34  1  0
 15 35  1  0
 15 36  1  0
 15 37  1  0
 16 38  1  0
 17 39  1  0
M  CHG  1  12   1
M  END
>  <UniqueID>  (37) 
35

>  <SMILES>  (37) 
COc1ccc(OC[C@H](O)C[NH2+]C(C)C)cc1

>  <Energy>  (37) 
30.987965164921338

>  <Genealogy>  (37) 
COc1ccc(OCC(O)C[NH2+]C(C)C)cc1 (protonated)
COc1ccc(OC[C@H](O)C[NH2+]C(C)C)cc1 (chirality)
COc1ccc(OC[C@H](O)C[NH2+]C(C)C)cc1 (3D coordinates assigned)
COc1ccc(OC[C@H](O)C[NH2+]C(C)C)cc1 (optimized conformer: 30.987965164921338 kcal/mol)

>  <smiles>  (37) 
COc1ccc(OCC(O)CNC(C)C)cc1

>  <score_type>  (37) 
oracle

>  <origin>  (37) 
adgpu

>  <m_score__min__energy>  (37) 
-5.8399999999999999

>  <m_primary>  (37) 
energy

$$$$
37:0
     RDKit          3D

 39 42  0  0  0  0  0  0  0  0999 V2000
   -3.1390   25.2970  -29.3340 O   0  0  0  0  0  0  0  0  0  0  0  0
   -3.9700   24.4550  -30.0700 C   0  0  0  0  0  0  0  0  0  0  0  0
   -5.3600   24.6170  -30.0350 C   0  0  0  0  0  0  0  0  0  0  0  0
   -6.1800   23.7750  -30.7880 C   0  0  0  0  0  0  0  0  0  0  0  0
   -5.6190   22.7650  -31.5730 C   0  0  0  0  0  0  0  0  0  0  0  0
   -4.2240   22.5780  -31.6090 C   0  0  0  0  0  0  0  0  0  0  0  0
   -3.6450   21.5050  -32.4550 C   0  0  0  0  0  0  0  0  0  0  0  0
   -2.3870   21.6420  -33.0670 C   0  0  0  0  0  0  0  0  0  0  0  0
   -1.8780   20.6070  -33.8660 C   0  0  0  0  0  0  0  0  0  0  0  0
   -0.5550   20.7680  -34.5170 C   0  0  0  0  0  0  0  0  0  0  0  0
    0.2070   19.7790  -35.1170 C   0  0  0  0  0  0  0  0  0  0  0  0
    1.3450   20.4050  -35.5740 C   0  0  0  0  0  0  0  0  0  0  0  0
    1.2150   21.7340  -35.2300 C   0  0  0  0  0  0  0  0  0  0  0  0
    0.0760   21.9180  -34.6040 O   0  0  0  0  0  0  0  0  0  0  0  0
   -2.6390   19.4400  -34.0300 C   0  0  0  0  0  0  0  0  0  0  0  0
   -3.8720   19.3140  -33.3780 C   0  0  0  0  0  0  0  0  0  0  0  0
   -4.7060   18.1040  -33.5410 C   0  0  0  0  0  0  0  0  0  0  0  0
   -4.0690   16.8670  -33.7390 C   0  0  0  0  0  0  0  0  0  0  0  0
   -4.8200   15.6980  -33.8860 C   0  0  0  0  0  0  0  0  0  0  0  0
   -6.2140   15.7520  -33.8480 C   0  0  0  0  0  0  0  0  0  0  0  0
   -6.8610   16.9770  -33.6730 C   0  0  0  0  0  0  0  0  0  0  0  0
   -6.1200   18.1570  -33.5250 C   0  0  0  0  0  0  0  0  0  0  0  0
   -7.0000   19.6770  -33.4030 Cl  0  0  0  0  0  0  0  0  0  0  0  0
   -4.3410   20.3480  -32.6270 N   0  0  0  0  0  0  0  0  0  0  0  0
   -3.4050   23.4430  -30.8550 C   0  0  0  0  0  0  0  0  0  0  0  0
   -3.4100   25.6420  -28.4200 H   0  0  0  0  0  0  0  0  0  0  0  0
   -5.8061   25.4079  -29.4141 H   0  0  0  0  0  0  0  0  0  0  0  0
   -7.2717   23.9073  -30.7631 H   0  0  0  0  0  0  0  0  0  0  0  0
   -6.2726   22.1102  -32.1681 H   0  0  0  0  0  0  0  0  0  0  0  0
   -1.8012   22.5613  -32.9194 H   0  0  0  0  0  0  0  0  0  0  0  0
   -0.0453   18.7123  -35.2094 H   0  0  0  0  0  0  0  0  0  0  0  0
    2.1876   19.9391  -36.1060 H   0  0  0  0  0  0  0  0  0  0  0  0
    1.9532   22.5201  -35.4471 H   0  0  0  0  0  0  0  0  0  0  0  0
   -2.2680   18.6255  -34.6695 H   0  0  0  0  0  0  0  0  0  0  0  0
   -2.9708   16.8188  -33.7785 H   0  0  0  0  0  0  0  0  0  0  0  0
   -4.3116   14.7335  -34.0319 H   0  0  0  0  0  0  0  0  0  0  0  0
   -6.8032   14.8294  -33.9559 H   0  0  0  0  0  0  0  0  0  0  0  0
   -7.9601   17.0159  -33.6512 H   0  0  0  0  0  0  0  0  0  0  0  0
   -2.3121   23.3216  -30.8838 H   0  0  0  0  0  0  0  0  0  0  0  0
  1  2  1  0
  2  3  2  0
  3  4  1  0
  4  5  2  0
  5  6  1  0
  6  7  1  0
  7  8  2  0
  8  9  1  0
  9 10  1  0
 10 11  2  0
 11 12  1  0
 12 13  2  0
 13 14  1  0
  9 15  2  0
 15 16  1  0
 16 17  1  0
 17 18  2  0
 18 19  1  0
 19 20  2  0
 20 21  1  0
 21 22  2  0
 22 23  1  0
 16 24  2  0
  6 25  2  0
 25  2  1  0
 24  7  1  0
 14 10  1  0
 22 17  1  0
  1 26  1  0
  3 27  1  0
  4 28  1  0
  5 29  1  0
  8 30  1  0
 11 31  1  0
 12 32  1  0
 13 33  1  0
 15 34  1  0
 18 35  1  0
 19 36  1  0
 20 37  1  0
 21 38  1  0
 25 39  1  0
M  END
>  <UniqueID>  (38) 
36

>  <SMILES>  (38) 
Oc1cccc(-c2cc(-c3ccco3)cc(-c3ccccc3Cl)n2)c1

>  <Energy>  (38) 
81.87025988824878

>  <Genealogy>  (38) 
Oc1cccc(-c2cc(-c3ccco3)cc(-c3ccccc3Cl)n2)c1 (3D coordinates assigned)
Oc1cccc(-c2cc(-c3ccco3)cc(-c3ccccc3Cl)n2)c1 (optimized conformer: 81.87025988824878 kcal/mol)

>  <smiles>  (38) 
Oc1cccc(-c2cc(-c3ccco3)cc(-c3ccccc3Cl)n2)c1

>  <score_type>  (38) 
oracle

>  <origin>  (38) 
adgpu

>  <m_score__min__energy>  (38) 
-9.3499999999999996

>  <m_primary>  (38) 
energy

$$$$
38:0
     RDKit          3D

 32 33  0  0  0  0  0  0  0  0999 V2000
   -8.6240   21.0850  -31.9270 C   0  0  0  0  0  0  0  0  0  0  0  0
   -8.5260   22.3880  -31.3590 O   0  0  0  0  0  0  0  0  0  0  0  0
   -7.3180   23.0620  -31.1260 C   0  0  0  0  0  0  0  0  0  0  0  0
   -6.1510   22.5580  -31.7130 C   0  0  0  0  0  0  0  0  0  0  0  0
   -4.9220   23.1940  -31.5140 C   0  0  0  0  0  0  0  0  0  0  0  0
   -4.8460   24.3610  -30.7340 C   0  0  0  0  0  0  0  0  0  0  0  0
   -3.6040   25.0330  -30.4840 N   0  0  0  0  0  0  0  0  0  0  0  0
   -2.5250   24.5600  -29.6690 C   0  0  0  0  0  0  0  0  0  0  0  0
   -2.2610   23.3300  -29.6050 O   0  0  0  0  0  0  0  0  0  0  0  0
   -1.7520   25.5110  -28.9290 N   0  0  0  0  0  0  0  0  0  0  0  0
   -1.1500   25.3100  -27.6410 C   0  0  0  0  0  0  0  0  0  0  0  0
   -0.1510   24.3430  -27.4260 C   0  0  0  0  0  0  0  0  0  0  0  0
    0.4230   24.1950  -26.1590 C   0  0  0  0  0  0  0  0  0  0  0  0
    0.0190   25.0160  -25.1040 C   0  0  0  0  0  0  0  0  0  0  0  0
   -0.9570   26.0000  -25.3120 C   0  0  0  0  0  0  0  0  0  0  0  0
   -1.3620   26.8510  -24.2370 N   0  0  0  0  0  0  0  0  0  0  0  0
   -1.5320   26.1480  -26.5840 C   0  0  0  0  0  0  0  0  0  0  0  0
   -6.0080   24.8520  -30.1270 C   0  0  0  0  0  0  0  0  0  0  0  0
   -7.2380   24.2160  -30.3250 C   0  0  0  0  0  0  0  0  0  0  0  0
   -8.6802   20.3374  -31.1221 H   0  0  0  0  0  0  0  0  0  0  0  0
   -9.5293   21.0232  -32.5487 H   0  0  0  0  0  0  0  0  0  0  0  0
   -7.7381   20.8885  -32.5487 H   0  0  0  0  0  0  0  0  0  0  0  0
   -6.2016   21.6532  -32.3365 H   0  0  0  0  0  0  0  0  0  0  0  0
   -4.0107   22.7795  -31.9697 H   0  0  0  0  0  0  0  0  0  0  0  0
    0.1795   23.7017  -28.2563 H   0  0  0  0  0  0  0  0  0  0  0  0
    1.1952   23.4294  -25.9931 H   0  0  0  0  0  0  0  0  0  0  0  0
    0.4678   24.8901  -24.1076 H   0  0  0  0  0  0  0  0  0  0  0  0
   -2.3750   27.0040  -24.0280 H   0  0  0  0  0  0  0  0  0  0  0  0
   -0.6540   27.3340  -23.6410 H   0  0  0  0  0  0  0  0  0  0  0  0
   -2.2888   26.9282  -26.7529 H   0  0  0  0  0  0  0  0  0  0  0  0
   -5.9533   25.7461  -29.4885 H   0  0  0  0  0  0  0  0  0  0  0  0
   -8.1459   24.6195  -29.8528 H   0  0  0  0  0  0  0  0  0  0  0  0
  1  2  1  0
  2  3  1  0
  3  4  2  0
  4  5  1  0
  5  6  2  0
  6  7  1  0
  7  8  1  0
  8  9  2  0
  8 10  1  0
 10 11  1  0
 11 12  2  0
 12 13  1  0
 13 14  2  0
 14 15  1  0
 15 16  1  0
 15 17  2  0
  6 18  1  0
 18 19  2  0
 19  3  1  0
 17 11  1  0
  1 20  1  0
  1 21  1  0
  1 22  1  0
  4 23  1  0
  5 24  1  0
 12 25  1  0
 13 26  1  0
 14 27  1  0
 16 28  1  0
 16 29  1  0
 17 30  1  0
 18 31  1  0
 19 32  1  0
M  CHG  2   7  -1  10  -1
M  END
>  <UniqueID>  (39) 
37

>  <SMILES>  (39) 
COc1ccc([N-]C(=O)[N-]c2cccc(N)c2)cc1

>  <Energy>  (39) 
37.89677458083449

>  <Genealogy>  (39) 
COc1ccc([N-]C(=O)[N-]c2cccc(N)c2)cc1 (protonated)
COc1ccc([N-]C(=O)[N-]c2cccc(N)c2)cc1 (3D coordinates assigned)
COc1ccc([N-]C(=O)[N-]c2cccc(N)c2)cc1 (optimized conformer: 37.89677458083449 kcal/mol)

>  <smiles>  (39) 
COc1ccc(NC(=O)Nc2cccc(N)c2)cc1

>  <score_type>  (39) 
oracle

>  <origin>  (39) 
adgpu

>  <m_score__min__energy>  (39) 
-9.3200000000000003

>  <m_primary>  (39) 
energy

$$$$
39:0
     RDKit          3D

 26 27  0  0  0  0  0  0  0  0999 V2000
   -6.8570   19.7730  -34.2180 N   0  0  0  0  0  0  0  0  0  0  0  0
   -6.2330   19.7630  -32.6030 S   0  0  0  0  0  0  0  0  0  0  0  0
   -7.0190   18.7750  -31.7860 O   0  0  0  0  0  0  0  0  0  0  0  0
   -4.7900   19.3470  -32.6450 O   0  0  0  0  0  0  0  0  0  0  0  0
   -6.3570   21.3660  -31.8700 C   0  0  0  0  0  0  0  0  0  0  0  0
   -5.1880   22.0710  -31.5390 C   0  0  0  0  0  0  0  0  0  0  0  0
   -5.2580   23.3380  -30.9340 C   0  0  0  0  0  0  0  0  0  0  0  0
   -4.0220   24.0830  -30.5890 C   0  0  0  0  0  0  0  0  0  0  0  0
   -3.9650   25.3190  -30.8220 O   0  0  0  0  0  0  0  0  0  0  0  0
   -2.8610   23.4340  -30.0460 N   0  0  0  0  0  0  0  0  0  0  0  0
   -1.9700   23.9920  -29.2810 C   0  0  0  0  0  0  0  0  0  0  0  0
   -1.9650   25.3020  -28.9470 N   0  0  0  0  0  0  0  0  0  0  0  0
   -0.9020   25.6090  -28.1590 C   0  0  0  0  0  0  0  0  0  0  0  0
   -0.0530   24.5450  -27.8710 C   0  0  0  0  0  0  0  0  0  0  0  0
   -0.6570   23.1720  -28.6340 S   0  0  0  0  0  0  0  0  0  0  0  0
   -6.5150   23.9110  -30.6940 C   0  0  0  0  0  0  0  0  0  0  0  0
   -7.6820   23.2190  -31.0200 C   0  0  0  0  0  0  0  0  0  0  0  0
   -7.6120   21.9490  -31.6020 C   0  0  0  0  0  0  0  0  0  0  0  0
   -9.1210   21.1230  -31.9760 Cl  0  0  0  0  0  0  0  0  0  0  0  0
   -7.8620   20.0520  -34.1560 H   0  0  0  0  0  0  0  0  0  0  0  0
   -6.8420   18.7850  -34.5570 H   0  0  0  0  0  0  0  0  0  0  0  0
   -4.2056   21.6262  -31.7559 H   0  0  0  0  0  0  0  0  0  0  0  0
   -0.7252   26.6250  -27.7764 H   0  0  0  0  0  0  0  0  0  0  0  0
    0.8552   24.5929  -27.2522 H   0  0  0  0  0  0  0  0  0  0  0  0
   -6.5816   24.9132  -30.2455 H   0  0  0  0  0  0  0  0  0  0  0  0
   -8.6626   23.6748  -30.8182 H   0  0  0  0  0  0  0  0  0  0  0  0
  1  2  1  0
  2  3  2  0
  2  4  2  0
  2  5  1  0
  5  6  2  0
  6  7  1  0
  7  8  1  0
  8  9  2  0
  8 10  1  0
 10 11  2  3
 11 12  1  0
 12 13  1  0
 13 14  2  0
 14 15  1  0
  7 16  2  0
 16 17  1  0
 17 18  2  0
 18 19  1  0
 18  5  1  0
 15 11  1  0
  1 20  1  0
  1 21  1  0
  6 22  1  0
 13 23  1  0
 14 24  1  0
 16 25  1  0
 17 26  1  0
M  CHG  1  12  -1
M  END
>  <UniqueID>  (40) 
38

>  <SMILES>  (40) 
NS(=O)(=O)c1cc(C(=O)N=c2[n-]ccs2)ccc1Cl

>  <Energy>  (40) 
64.164023572507

>  <Genealogy>  (40) 
NS(=O)(=O)c1cc(C(=O)N=c2[n-]ccs2)ccc1Cl (protonated)
NS(=O)(=O)c1cc(C(=O)N=c2[n-]ccs2)ccc1Cl (3D coordinates assigned)
NS(=O)(=O)c1cc(C(=O)N=c2[n-]ccs2)ccc1Cl (optimized conformer: 64.164023572507 kcal/mol)

>  <smiles>  (40) 
NS(=O)(=O)c1cc(C(=O)N=c2[nH]ccs2)ccc1Cl

>  <score_type>  (40) 
oracle

>  <origin>  (40) 
adgpu

>  <m_score__min__energy>  (40) 
-9.5299999999999994

>  <m_primary>  (40) 
energy

$$$$
40:0
     RDKit          3D

 27 28  0  0  0  0  0  0  0  0999 V2000
   -1.5720   24.4840  -28.7400 C   0  0  0  0  0  0  0  0  0  0  0  0
   -2.1990   23.6530  -29.7730 N   0  0  0  0  0  0  0  0  0  0  0  0
   -1.5050   22.4770  -30.3060 C   0  0  0  0  0  0  0  0  0  0  0  0
   -3.5080   23.9970  -30.2680 C   0  0  0  0  0  0  0  0  0  0  0  0
   -3.8800   25.2990  -30.3830 N   0  0  0  0  0  0  0  0  0  0  0  0
   -5.1110   25.6200  -30.8500 C   0  0  0  0  0  0  0  0  0  0  0  0
   -5.9790   24.6400  -31.2040 N   0  0  0  0  0  0  0  0  0  0  0  0
   -5.6210   23.3340  -31.0950 C   0  0  0  0  0  0  0  0  0  0  0  0
   -6.5700   22.2590  -31.4820 C   0  0  0  0  0  0  0  0  0  0  0  0
   -6.1580   21.2100  -32.3270 C   0  0  0  0  0  0  0  0  0  0  0  0
   -7.0530   20.1990  -32.6910 C   0  0  0  0  0  0  0  0  0  0  0  0
   -8.3680   20.2210  -32.2180 C   0  0  0  0  0  0  0  0  0  0  0  0
   -9.4880   18.9520  -32.6770 Cl  0  0  0  0  0  0  0  0  0  0  0  0
   -8.7880   21.2570  -31.3800 C   0  0  0  0  0  0  0  0  0  0  0  0
   -7.8980   22.2710  -31.0130 C   0  0  0  0  0  0  0  0  0  0  0  0
   -4.3840   23.0210  -30.6270 N   0  0  0  0  0  0  0  0  0  0  0  0
   -1.8552   24.1086  -27.7456 H   0  0  0  0  0  0  0  0  0  0  0  0
   -0.4783   24.4424  -28.8498 H   0  0  0  0  0  0  0  0  0  0  0  0
   -1.9122   25.5243  -28.8498 H   0  0  0  0  0  0  0  0  0  0  0  0
   -1.1397   21.8581  -29.4732 H   0  0  0  0  0  0  0  0  0  0  0  0
   -2.2007   21.8887  -30.9224 H   0  0  0  0  0  0  0  0  0  0  0  0
   -0.6537   22.8017  -30.9224 H   0  0  0  0  0  0  0  0  0  0  0  0
   -5.4062   26.6757  -30.9419 H   0  0  0  0  0  0  0  0  0  0  0  0
   -5.1247   21.1859  -32.7033 H   0  0  0  0  0  0  0  0  0  0  0  0
   -6.7212   19.3843  -33.3514 H   0  0  0  0  0  0  0  0  0  0  0  0
   -9.8229   21.2750  -31.0075 H   0  0  0  0  0  0  0  0  0  0  0  0
   -8.2372   23.0835  -30.3536 H   0  0  0  0  0  0  0  0  0  0  0  0
  1  2  1  0
  2  3  1  0
  2  4  1  0
  4  5  2  0
  5  6  1  0
  6  7  2  0
  7  8  1  0
  8  9  1  0
  9 10  2  0
 10 11  1  0
 11 12  2  0
 12 13  1  0
 12 14  1  0
 14 15  2  0
  8 16  2  0
 16  4  1  0
 15  9  1  0
  1 17  1  0
  1 18  1  0
  1 19  1  0
  3 20  1  0
  3 21  1  0
  3 22  1  0
  6 23  1  0
 10 24  1  0
 11 25  1  0
 14 26  1  0
 15 27  1  0
M  END
>  <UniqueID>  (41) 
39

>  <SMILES>  (41) 
CN(C)c1ncnc(-c2ccc(Cl)cc2)n1

>  <Energy>  (41) 
26.700517244327404

>  <Genealogy>  (41) 
CN(C)c1ncnc(-c2ccc(Cl)cc2)n1 (3D coordinates assigned)
CN(C)c1ncnc(-c2ccc(Cl)cc2)n1 (optimized conformer: 26.700517244327404 kcal/mol)

>  <smiles>  (41) 
CN(C)c1ncnc(-c2ccc(Cl)cc2)n1

>  <score_type>  (41) 
oracle

>  <origin>  (41) 
adgpu

>  <m_score__min__energy>  (41) 
-6.1900000000000004

>  <m_primary>  (41) 
energy

$$$$
41:0
     RDKit          3D

 53 56  0  0  0  0  0  0  0  0999 V2000
   -8.1517   21.3128  -33.3142 H   0  0  0  0  0  0  0  0  0  0  0  0
   -7.3430   21.5520  -32.6080 C   0  0  0  0  0  0  0  0  0  0  0  0
   -7.3260   22.8880  -31.9740 C   0  0  0  0  0  0  0  0  0  0  0  0
   -8.3510   23.6110  -32.0840 O   0  0  0  0  0  0  0  0  0  0  0  0
   -6.1570   23.4120  -31.2290 C   0  0  0  0  0  0  0  0  0  0  0  0
   -6.3470   24.3440  -30.1950 C   0  0  0  0  0  0  0  0  0  0  0  0
   -7.3630   24.6812  -29.9420 H   0  0  0  0  0  0  0  0  0  0  0  0
   -5.2510   24.8450  -29.4860 C   0  0  0  0  0  0  0  0  0  0  0  0
   -5.4126   25.5492  -28.6566 H   0  0  0  0  0  0  0  0  0  0  0  0
   -3.9510   24.4570  -29.8240 C   0  0  0  0  0  0  0  0  0  0  0  0
   -2.8530   24.9230  -29.0250 N   0  0  0  0  0  0  0  0  0  0  0  0
   -2.1870   24.2690  -28.1100 C   0  0  0  0  0  0  0  0  0  0  0  0
   -2.3870   22.8930  -27.8860 C   0  0  0  0  0  0  0  0  0  0  0  0
   -3.1230   22.3397  -28.4878 H   0  0  0  0  0  0  0  0  0  0  0  0
   -1.6530   22.2310  -26.9020 C   0  0  0  0  0  0  0  0  0  0  0  0
   -1.8200   21.1582  -26.7251 H   0  0  0  0  0  0  0  0  0  0  0  0
   -0.7340   22.9010  -26.1610 N   0  0  0  0  0  0  0  0  0  0  0  0
   -0.2040   22.3710  -25.4330 H   0  0  0  0  0  0  0  0  0  0  0  0
   -0.4860   24.2280  -26.3590 C   0  0  0  0  0  0  0  0  0  0  0  0
    0.4800   24.8850  -25.5850 C   0  0  0  0  0  0  0  0  0  0  0  0
    1.0329   24.3256  -24.8160 H   0  0  0  0  0  0  0  0  0  0  0  0
    0.7510   26.2520  -25.7800 C   0  0  0  0  0  0  0  0  0  0  0  0
    1.7130   26.9350  -25.0200 O   0  0  0  0  0  0  0  0  0  0  0  0
    1.5580   27.2890  -23.6490 C   0  0  0  0  0  0  0  0  0  0  0  0
    1.9185   26.4657  -23.0147 H   0  0  0  0  0  0  0  0  0  0  0  0
    2.1407   28.1976  -23.4368 H   0  0  0  0  0  0  0  0  0  0  0  0
    0.4952   27.4771  -23.4368 H   0  0  0  0  0  0  0  0  0  0  0  0
    0.0470   26.9660  -26.7580 C   0  0  0  0  0  0  0  0  0  0  0  0
    0.3450   28.3280  -26.9270 O   0  0  0  0  0  0  0  0  0  0  0  0
   -0.4660   29.3970  -26.4500 C   0  0  0  0  0  0  0  0  0  0  0  0
   -0.4649   29.3955  -25.3500 H   0  0  0  0  0  0  0  0  0  0  0  0
   -0.0643   30.3535  -26.8158 H   0  0  0  0  0  0  0  0  0  0  0  0
   -1.4953   29.2678  -26.8158 H   0  0  0  0  0  0  0  0  0  0  0  0
   -0.9270   26.3130  -27.5360 C   0  0  0  0  0  0  0  0  0  0  0  0
   -1.4792   26.8781  -28.3013 H   0  0  0  0  0  0  0  0  0  0  0  0
   -1.2040   24.9440  -27.3470 C   0  0  0  0  0  0  0  0  0  0  0  0
   -3.7570   23.5190  -30.8500 C   0  0  0  0  0  0  0  0  0  0  0  0
   -2.7401   23.1805  -31.0974 H   0  0  0  0  0  0  0  0  0  0  0  0
   -4.8510   23.0130  -31.5590 C   0  0  0  0  0  0  0  0  0  0  0  0
   -4.6881   22.2987  -32.3795 H   0  0  0  0  0  0  0  0  0  0  0  0
   -6.4110   20.6200  -32.3560 C   0  0  0  0  0  0  0  0  0  0  0  0
   -5.5984   20.8776  -31.6608 H   0  0  0  0  0  0  0  0  0  0  0  0
   -6.4090   19.2640  -32.9570 C   0  0  0  0  0  0  0  0  0  0  0  0
   -7.1690   18.2560  -32.3370 C   0  0  0  0  0  0  0  0  0  0  0  0
   -7.7354   18.4860  -31.4225 H   0  0  0  0  0  0  0  0  0  0  0  0
   -7.2120   16.9650  -32.8710 C   0  0  0  0  0  0  0  0  0  0  0  0
   -7.8036   16.1832  -32.3722 H   0  0  0  0  0  0  0  0  0  0  0  0
   -6.5040   16.6670  -34.0380 C   0  0  0  0  0  0  0  0  0  0  0  0
   -6.5480   15.4150  -34.5560 F   0  0  0  0  0  0  0  0  0  0  0  0
   -5.7580   17.6620  -34.6730 C   0  0  0  0  0  0  0  0  0  0  0  0
   -5.2057   17.4280  -35.5951 H   0  0  0  0  0  0  0  0  0  0  0  0
   -5.7100   18.9540  -34.1420 C   0  0  0  0  0  0  0  0  0  0  0  0
   -5.1238   19.7332  -34.6511 H   0  0  0  0  0  0  0  0  0  0  0  0
  1  2  1  0
  2  3  1  0
  3  4  2  0
  3  5  1  0
  5  6  2  0
  6  7  1  0
  6  8  1  0
  8  9  1  0
  8 10  2  0
 10 11  1  0
 11 12  2  0
 12 13  1  0
 13 14  1  0
 13 15  2  0
 15 16  1  0
 15 17  1  0
 17 18  1  0
 17 19  1  0
 19 20  2  0
 20 21  1  0
 20 22  1  0
 22 23  1  0
 23 24  1  0
 24 25  1  0
 24 26  1  0
 24 27  1  0
 22 28  2  0
 28 29  1  0
 29 30  1  0
 30 31  1  0
 30 32  1  0
 30 33  1  0
 28 34  1  0
 34 35  1  0
 34 36  2  0
 10 37  1  0
 37 38  1  0
 37 39  2  0
 39 40  1  0
  2 41  2  0
 41 42  1  0
 41 43  1  0
 43 44  2  0
 44 45  1  0
 44 46  1  0
 46 47  1  0
 46 48  2  0
 48 49  1  0
 48 50  1  0
 50 51  1  0
 50 52  2  0
 52 53  1  0
 39  5  1  0
 52 43  1  0
 36 12  1  0
 36 19  1  0
M  END
>  <UniqueID>  (42) 
40

>  <SMILES>  (42) 
COc1cc2[nH]cc/c(=N\c3ccc(C(=O)/C=C/c4ccc(F)cc4)cc3)c2cc1OC

>  <Energy>  (42) 
78.65372008356726

>  <Genealogy>  (42) 
COc1cc2[nH]cc/c(=N\c3ccc(C(=O)/C=C/c4ccc(F)cc4)cc3)c2cc1OC (cis-trans isomerization)
COc1cc2[nH]cc/c(=N\c3ccc(C(=O)/C=C/c4ccc(F)cc4)cc3)c2cc1OC (3D coordinates assigned)
COc1cc2[nH]cc/c(=N\c3ccc(C(=O)/C=C/c4ccc(F)cc4)cc3)c2cc1OC (optimized conformer: 78.65372008356726 kcal/mol)

>  <smiles>  (42) 
COc1cc2[nH]ccc(=Nc3ccc(C(=O)C=Cc4ccc(F)cc4)cc3)c2cc1OC

>  <score_type>  (42) 
oracle

>  <origin>  (42) 
adgpu

>  <m_score__min__energy>  (42) 
-8.7899999999999991

>  <m_primary>  (42) 
energy

$$$$
42:0
     RDKit          3D

 22 23  0  0  0  0  0  0  0  0999 V2000
   -6.8490   26.3790  -29.0200 H   0  0  0  0  0  0  0  0  0  0  0  0
   -7.0310   25.5070  -29.5660 N   0  0  0  0  0  0  0  0  0  0  0  0
   -6.0680   24.8720  -30.1530 C   0  0  0  0  0  0  0  0  0  0  0  0
   -4.4630   25.2970  -30.1320 S   0  0  0  0  0  0  0  0  0  0  0  0
   -3.8490   24.0590  -31.0550 N   0  0  0  0  0  0  0  0  0  0  0  0
   -4.9100   23.2720  -31.3910 C   0  0  0  0  0  0  0  0  0  0  0  0
   -4.7110   22.1090  -32.3240 C   0  0  0  0  0  0  0  0  0  0  0  0
   -5.2935   21.2506  -31.9581 H   0  0  0  0  0  0  0  0  0  0  0  0
   -5.0486   22.4040  -33.3285 H   0  0  0  0  0  0  0  0  0  0  0  0
   -3.2390   21.7160  -32.4020 C   0  0  0  0  0  0  0  0  0  0  0  0
   -2.8340   21.6079  -31.3850 H   0  0  0  0  0  0  0  0  0  0  0  0
   -3.1425   20.7606  -32.9386 H   0  0  0  0  0  0  0  0  0  0  0  0
   -2.6791   22.4961  -32.9386 H   0  0  0  0  0  0  0  0  0  0  0  0
   -6.1780   23.7020  -30.8960 C   0  0  0  0  0  0  0  0  0  0  0  0
   -7.4690   23.0310  -31.1530 C   0  0  0  0  0  0  0  0  0  0  0  0
   -8.4280   23.4240  -32.0650 C   0  0  0  0  0  0  0  0  0  0  0  0
   -8.3401   24.2794  -32.7510 H   0  0  0  0  0  0  0  0  0  0  0  0
   -9.4610   22.6180  -31.9860 O   0  0  0  0  0  0  0  0  0  0  0  0
   -9.2310   21.7210  -31.0550 C   0  0  0  0  0  0  0  0  0  0  0  0
   -9.9245   20.9175  -30.7662 H   0  0  0  0  0  0  0  0  0  0  0  0
   -7.9890   21.9370  -30.4930 C   0  0  0  0  0  0  0  0  0  0  0  0
   -7.5135   21.3581  -29.6876 H   0  0  0  0  0  0  0  0  0  0  0  0
  1  2  1  0
  2  3  2  0
  3  4  1  0
  4  5  1  0
  5  6  1  0
  6  7  1  0
  7  8  1  0
  7  9  1  0
  7 10  1  0
 10 11  1  0
 10 12  1  0
 10 13  1  0
  6 14  2  0
 14 15  1  0
 15 16  2  0
 16 17  1  0
 16 18  1  0
 18 19  1  0
 19 20  1  0
 19 21  2  0
 21 22  1  0
 14  3  1  0
 21 15  1  0
M  CHG  1   5  -1
M  END
>  <UniqueID>  (43) 
41

>  <SMILES>  (43) 
[H]/N=c1\s[n-]c(CC)c1-c1ccoc1

>  <Energy>  (43) 
84.19247377100882

>  <Genealogy>  (43) 
CCc1[n-]sc(=N)c1-c1ccoc1 (protonated)
[H]/N=c1\s[n-]c(CC)c1-c1ccoc1 (cis-trans isomerization)
[H]/N=c1\s[n-]c(CC)c1-c1ccoc1 (3D coordinates assigned)
[H]/N=c1\s[n-]c(CC)c1-c1ccoc1 (optimized conformer: 84.19247377100882 kcal/mol)

>  <smiles>  (43) 
CCc1[nH]sc(=N)c1-c1ccoc1

>  <score_type>  (43) 
oracle

>  <origin>  (43) 
adgpu

>  <m_score__min__energy>  (43) 
-6.29

>  <m_primary>  (43) 
energy

$$$$
43:0
     RDKit          3D

 38 40  0  0  0  0  0  0  0  0999 V2000
   -6.6740   25.4350  -29.7210 C   0  0  0  0  0  0  0  0  0  0  0  0
   -6.2270   24.1520  -30.2730 N   0  0  0  0  0  0  0  0  0  0  0  0
   -6.9910   22.9890  -29.7770 C   0  0  0  0  0  0  0  0  0  0  0  0
   -7.3380   21.9790  -30.8330 C   0  0  0  0  0  0  0  0  0  0  0  0
   -8.4930   21.9600  -31.5240 N   0  0  0  0  0  0  0  0  0  0  0  0
   -8.4100   20.9370  -32.3600 N   0  0  0  0  0  0  0  0  0  0  0  0
   -7.2010   20.3750  -32.1560 C   0  0  0  0  0  0  0  0  0  0  0  0
   -6.7020   19.1820  -32.8710 C   0  0  0  0  0  0  0  0  0  0  0  0
   -6.1770   19.3090  -34.1700 C   0  0  0  0  0  0  0  0  0  0  0  0
   -5.7200   18.1830  -34.8610 C   0  0  0  0  0  0  0  0  0  0  0  0
   -5.7840   16.9220  -34.2660 C   0  0  0  0  0  0  0  0  0  0  0  0
   -6.3030   16.7830  -32.9770 C   0  0  0  0  0  0  0  0  0  0  0  0
   -6.7610   17.9060  -32.2780 C   0  0  0  0  0  0  0  0  0  0  0  0
   -7.2620   17.7380  -31.0270 F   0  0  0  0  0  0  0  0  0  0  0  0
   -6.5370   21.0180  -31.2240 O   0  0  0  0  0  0  0  0  0  0  0  0
   -4.4890   23.9540  -30.1650 S   0  0  0  0  0  0  0  0  0  0  0  0
   -3.8340   25.2710  -30.4810 O   0  0  0  0  0  0  0  0  0  0  0  0
   -4.1250   23.6040  -28.7490 O   0  0  0  0  0  0  0  0  0  0  0  0
   -3.8380   22.7150  -31.2610 C   0  0  0  0  0  0  0  0  0  0  0  0
   -4.4900   22.4890  -32.4840 C   0  0  0  0  0  0  0  0  0  0  0  0
   -4.0210   21.5210  -33.3760 C   0  0  0  0  0  0  0  0  0  0  0  0
   -2.8840   20.7770  -33.0640 C   0  0  0  0  0  0  0  0  0  0  0  0
   -2.1990   21.0160  -31.8710 C   0  0  0  0  0  0  0  0  0  0  0  0
   -2.6570   21.9880  -30.9720 C   0  0  0  0  0  0  0  0  0  0  0  0
   -1.6850   22.2790  -29.5330 Cl  0  0  0  0  0  0  0  0  0  0  0  0
   -6.6573   25.3871  -28.6222 H   0  0  0  0  0  0  0  0  0  0  0  0
   -6.0018   26.2356  -30.0634 H   0  0  0  0  0  0  0  0  0  0  0  0
   -7.6981   25.6446  -30.0634 H   0  0  0  0  0  0  0  0  0  0  0  0
   -6.3902   22.4867  -29.0046 H   0  0  0  0  0  0  0  0  0  0  0  0
   -7.9440   23.3805  -29.3915 H   0  0  0  0  0  0  0  0  0  0  0  0
   -6.1258   20.3000  -34.6447 H   0  0  0  0  0  0  0  0  0  0  0  0
   -5.3091   18.2910  -35.8757 H   0  0  0  0  0  0  0  0  0  0  0  0
   -5.4255   16.0373  -34.8127 H   0  0  0  0  0  0  0  0  0  0  0  0
   -6.3520   15.7884  -32.5097 H   0  0  0  0  0  0  0  0  0  0  0  0
   -5.3803   23.0809  -32.7429 H   0  0  0  0  0  0  0  0  0  0  0  0
   -4.5492   21.3459  -34.3249 H   0  0  0  0  0  0  0  0  0  0  0  0
   -2.5266   20.0017  -33.7577 H   0  0  0  0  0  0  0  0  0  0  0  0
   -1.2937   20.4372  -31.6354 H   0  0  0  0  0  0  0  0  0  0  0  0
  1  2  1  0
  2  3  1  0
  3  4  1  0
  4  5  2  0
  5  6  1  0
  6  7  2  0
  7  8  1  0
  8  9  2  0
  9 10  1  0
 10 11  2  0
 11 12  1  0
 12 13  2  0
 13 14  1  0
  7 15  1  0
  2 16  1  0
 16 17  2  0
 16 18  2  0
 16 19  1  0
 19 20  2  0
 20 21  1  0
 21 22  2  0
 22 23  1  0
 23 24  2  0
 24 25  1  0
 15  4  1  0
 24 19  1  0
 13  8  1  0
  1 26  1  0
  1 27  1  0
  1 28  1  0
  3 29  1  0
  3 30  1  0
  9 31  1  0
 10 32  1  0
 11 33  1  0
 12 34  1  0
 20 35  1  0
 21 36  1  0
 22 37  1  0
 23 38  1  0
M  END
>  <UniqueID>  (44) 
42

>  <SMILES>  (44) 
CN(Cc1nnc(-c2ccccc2F)o1)S(=O)(=O)c1ccccc1Cl

>  <Energy>  (44) 
78.42848633185102

>  <Genealogy>  (44) 
CN(Cc1nnc(-c2ccccc2F)o1)S(=O)(=O)c1ccccc1Cl (3D coordinates assigned)
CN(Cc1nnc(-c2ccccc2F)o1)S(=O)(=O)c1ccccc1Cl (optimized conformer: 78.42848633185102 kcal/mol)

>  <smiles>  (44) 
CN(Cc1nnc(-c2ccccc2F)o1)S(=O)(=O)c1ccccc1Cl

>  <score_type>  (44) 
oracle

>  <origin>  (44) 
adgpu

>  <m_score__min__energy>  (44) 
-9.6699999999999999

>  <m_primary>  (44) 
energy

$$$$
44:0
     RDKit          3D

 33 35  0  0  0  0  0  0  0  0999 V2000
   -3.3780   20.5500  -33.2430 C   0  0  0  0  0  0  0  0  0  0  0  0
   -4.6490   20.2750  -33.8230 O   0  0  0  0  0  0  0  0  0  0  0  0
   -5.2740   19.0160  -33.8140 C   0  0  0  0  0  0  0  0  0  0  0  0
   -4.6580   17.8810  -34.3790 C   0  0  0  0  0  0  0  0  0  0  0  0
   -5.3150   16.6490  -34.3870 C   0  0  0  0  0  0  0  0  0  0  0  0
   -6.5910   16.5320  -33.8360 C   0  0  0  0  0  0  0  0  0  0  0  0
   -7.2250   15.3340  -33.8470 F   0  0  0  0  0  0  0  0  0  0  0  0
   -7.2120   17.6450  -33.2680 C   0  0  0  0  0  0  0  0  0  0  0  0
   -6.5600   18.8910  -33.2430 C   0  0  0  0  0  0  0  0  0  0  0  0
   -7.2380   20.0540  -32.6200 C   0  0  0  0  0  0  0  0  0  0  0  0
   -8.6380   20.0870  -32.5240 C   0  0  0  0  0  0  0  0  0  0  0  0
   -9.2780   21.1800  -31.9380 C   0  0  0  0  0  0  0  0  0  0  0  0
   -8.5310   22.2470  -31.4360 C   0  0  0  0  0  0  0  0  0  0  0  0
   -7.1260   22.2330  -31.5110 C   0  0  0  0  0  0  0  0  0  0  0  0
   -6.3290   23.3650  -30.9720 C   0  0  0  0  0  0  0  0  0  0  0  0
   -6.8650   24.3750  -30.1500 C   0  0  0  0  0  0  0  0  0  0  0  0
   -5.9400   25.3330  -29.7630 C   0  0  0  0  0  0  0  0  0  0  0  0
   -4.4570   24.9290  -30.4350 S   0  0  0  0  0  0  0  0  0  0  0  0
   -4.9680   23.5390  -31.2270 C   0  0  0  0  0  0  0  0  0  0  0  0
   -6.4890   21.1260  -32.1030 C   0  0  0  0  0  0  0  0  0  0  0  0
   -3.4636   20.5315  -32.1465 H   0  0  0  0  0  0  0  0  0  0  0  0
   -2.6543   19.7876  -33.5672 H   0  0  0  0  0  0  0  0  0  0  0  0
   -3.0342   21.5433  -33.5672 H   0  0  0  0  0  0  0  0  0  0  0  0
   -3.6525   17.9665  -34.8168 H   0  0  0  0  0  0  0  0  0  0  0  0
   -4.8252   15.7687  -34.8288 H   0  0  0  0  0  0  0  0  0  0  0  0
   -8.2191   17.5472  -32.8365 H   0  0  0  0  0  0  0  0  0  0  0  0
   -9.2334   19.2476  -32.9124 H   0  0  0  0  0  0  0  0  0  0  0  0
  -10.3758   21.2008  -31.8714 H   0  0  0  0  0  0  0  0  0  0  0  0
   -9.0446   23.1053  -30.9783 H   0  0  0  0  0  0  0  0  0  0  0  0
   -7.9209   24.4016  -29.8429 H   0  0  0  0  0  0  0  0  0  0  0  0
   -6.1434   26.2063  -29.1259 H   0  0  0  0  0  0  0  0  0  0  0  0
   -4.3380   22.8789  -31.8414 H   0  0  0  0  0  0  0  0  0  0  0  0
   -5.3909   21.0992  -32.1620 H   0  0  0  0  0  0  0  0  0  0  0  0
  1  2  1  0
  2  3  1  0
  3  4  2  0
  4  5  1  0
  5  6  2  0
  6  7  1  0
  6  8  1  0
  8  9  2  0
  9 10  1  0
 10 11  2  0
 11 12  1  0
 12 13  2  0
 13 14  1  0
 14 15  1  0
 15 16  1  0
 16 17  2  0
 17 18  1  0
 18 19  1  0
 14 20  2  0
  9  3  1  0
 20 10  1  0
 19 15  2  0
  1 21  1  0
  1 22  1  0
  1 23  1  0
  4 24  1  0
  5 25  1  0
  8 26  1  0
 11 27  1  0
 12 28  1  0
 13 29  1  0
 16 30  1  0
 17 31  1  0
 19 32  1  0
 20 33  1  0
M  END
>  <UniqueID>  (45) 
43

>  <SMILES>  (45) 
COc1ccc(F)cc1-c1cccc(-c2ccsc2)c1

>  <Energy>  (45) 
70.72138294099537

>  <Genealogy>  (45) 
COc1ccc(F)cc1-c1cccc(-c2ccsc2)c1 (3D coordinates assigned)
COc1ccc(F)cc1-c1cccc(-c2ccsc2)c1 (optimized conformer: 70.72138294099537 kcal/mol)

>  <smiles>  (45) 
COc1ccc(F)cc1-c1cccc(-c2ccsc2)c1

>  <score_type>  (45) 
oracle

>  <origin>  (45) 
adgpu

>  <m_score__min__energy>  (45) 
-7.9699999999999998

>  <m_primary>  (45) 
energy

$$$$
45:0
     RDKit          3D

 34 35  0  0  0  0  0  0  0  0999 V2000
   -0.8820   26.1400  -29.3040 O   0  0  0  0  0  0  0  0  0  0  0  0
   -1.6240   25.2490  -28.8140 C   0  0  0  0  0  0  0  0  0  0  0  0
   -2.8950   24.9920  -29.4290 N   0  0  0  0  0  0  0  0  0  0  0  0
   -3.5060   23.6740  -29.6040 C   0  0  0  0  0  0  0  0  0  0  0  0
   -3.4860   23.2960  -31.1020 C   0  0  0  0  0  0  0  0  0  0  0  0
   -4.7870   22.6870  -31.6600 C   0  0  0  0  0  0  0  0  0  0  0  0
   -5.8750   23.7170  -32.0180 C   0  0  0  0  0  0  0  0  0  0  0  0
   -6.7010   24.2850  -30.8270 C   0  0  0  0  0  0  0  0  0  0  0  0
   -5.8870   24.7680  -29.6120 C   0  0  0  0  0  0  0  0  0  0  0  0
   -4.9270   23.7180  -29.0080 C   0  0  0  0  0  0  0  0  0  0  0  0
   -1.1670   24.5070  -27.6230 C   0  0  0  0  0  0  0  0  0  0  0  0
   -1.2580   25.1080  -26.3580 C   0  0  0  0  0  0  0  0  0  0  0  0
   -0.8230   24.4250  -25.2180 C   0  0  0  0  0  0  0  0  0  0  0  0
   -0.2840   23.1430  -25.3340 C   0  0  0  0  0  0  0  0  0  0  0  0
   -0.1770   22.5400  -26.5890 C   0  0  0  0  0  0  0  0  0  0  0  0
   -0.6100   23.2150  -27.7360 C   0  0  0  0  0  0  0  0  0  0  0  0
   -0.4850   22.3990  -29.2920 Cl  0  0  0  0  0  0  0  0  0  0  0  0
   -2.9440   22.8909  -29.0740 H   0  0  0  0  0  0  0  0  0  0  0  0
   -3.2672   24.2080  -31.6768 H   0  0  0  0  0  0  0  0  0  0  0  0
   -2.7232   22.5096  -31.2004 H   0  0  0  0  0  0  0  0  0  0  0  0
   -4.5382   22.1205  -32.5695 H   0  0  0  0  0  0  0  0  0  0  0  0
   -5.2046   22.0575  -30.8604 H   0  0  0  0  0  0  0  0  0  0  0  0
   -5.3838   24.5636  -32.5199 H   0  0  0  0  0  0  0  0  0  0  0  0
   -6.5977   23.1760  -32.6465 H   0  0  0  0  0  0  0  0  0  0  0  0
   -7.2873   25.1377  -31.2001 H   0  0  0  0  0  0  0  0  0  0  0  0
   -7.3109   23.4458  -30.4614 H   0  0  0  0  0  0  0  0  0  0  0  0
   -5.2889   25.6363  -29.9256 H   0  0  0  0  0  0  0  0  0  0  0  0
   -6.6195   25.0024  -28.8255 H   0  0  0  0  0  0  0  0  0  0  0  0
   -4.8336   23.9279  -27.9323 H   0  0  0  0  0  0  0  0  0  0  0  0
   -5.3748   22.7406  -29.2409 H   0  0  0  0  0  0  0  0  0  0  0  0
   -1.6738   26.1219  -26.2628 H   0  0  0  0  0  0  0  0  0  0  0  0
   -0.9058   24.8987  -24.2287 H   0  0  0  0  0  0  0  0  0  0  0  0
    0.0569   22.6070  -24.4360 H   0  0  0  0  0  0  0  0  0  0  0  0
    0.2496   21.5299  -26.6765 H   0  0  0  0  0  0  0  0  0  0  0  0
  1  2  2  0
  2  3  1  0
  3  4  1  0
  4  5  1  0
  5  6  1  0
  6  7  1  0
  7  8  1  0
  8  9  1  0
  9 10  1  0
  2 11  1  0
 11 12  2  0
 12 13  1  0
 13 14  2  0
 14 15  1  0
 15 16  2  0
 16 17  1  0
 10  4  1  0
 16 11  1  0
  4 18  1  0
  5 19  1  0
  5 20  1  0
  6 21  1  0
  6 22  1  0
  7 23  1  0
  7 24  1  0
  8 25  1  0
  8 26  1  0
  9 27  1  0
  9 28  1  0
 10 29  1  0
 10 30  1  0
 12 31  1  0
 13 32  1  0
 14 33  1  0
 15 34  1  0
M  CHG  1   3  -1
M  END
>  <UniqueID>  (46) 
44

>  <SMILES>  (46) 
O=C([N-]C1CCCCCC1)c1ccccc1Cl

>  <Energy>  (46) 
45.83722750128447

>  <Genealogy>  (46) 
O=C([N-]C1CCCCCC1)c1ccccc1Cl (protonated)
O=C([N-]C1CCCCCC1)c1ccccc1Cl (3D coordinates assigned)
O=C([N-]C1CCCCCC1)c1ccccc1Cl (nonaromatic ring conformer: 45.83722750128447 kcal/mol)

>  <smiles>  (46) 
O=C(NC1CCCCCC1)c1ccccc1Cl

>  <score_type>  (46) 
oracle

>  <origin>  (46) 
adgpu

>  <m_score__min__energy>  (46) 
-6.6900000000000004

>  <m_primary>  (46) 
energy

$$$$
46:0
     RDKit          3D

 34 37  0  0  0  0  0  0  0  0999 V2000
   -4.0843   22.2522  -32.2237 H   0  0  0  0  0  0  0  0  0  0  0  0
   -4.1530   21.6420  -31.3110 C   0  0  0  0  0  0  0  0  0  0  0  0
   -4.6270   20.4360  -31.3780 N   0  0  0  0  0  0  0  0  0  0  0  0
   -5.0590   19.8010  -32.5880 C   0  0  0  0  0  0  0  0  0  0  0  0
   -6.3550   19.7940  -33.1080 C   0  0  0  0  0  0  0  0  0  0  0  0
   -7.5360   20.5110  -32.5920 C   0  0  0  0  0  0  0  0  0  0  0  0
   -9.1010   19.8910  -32.5990 S   0  0  0  0  0  0  0  0  0  0  0  0
   -9.8430   21.2260  -31.9000 C   0  0  0  0  0  0  0  0  0  0  0  0
  -10.9154   21.3251  -31.6762 H   0  0  0  0  0  0  0  0  0  0  0  0
   -8.8680   22.1820  -31.6540 C   0  0  0  0  0  0  0  0  0  0  0  0
   -9.0869   23.1588  -31.1981 H   0  0  0  0  0  0  0  0  0  0  0  0
   -7.5800   21.7900  -32.0390 C   0  0  0  0  0  0  0  0  0  0  0  0
   -6.6918   22.4274  -31.9173 H   0  0  0  0  0  0  0  0  0  0  0  0
   -6.4110   18.9820  -34.2030 N   0  0  0  0  0  0  0  0  0  0  0  0
   -5.1430   18.5370  -34.2910 C   0  0  0  0  0  0  0  0  0  0  0  0
   -4.4300   17.3940  -35.2880 S   0  0  0  0  0  0  0  0  0  0  0  0
   -2.9570   17.5000  -34.4200 C   0  0  0  0  0  0  0  0  0  0  0  0
   -2.0420   16.9349  -34.6514 H   0  0  0  0  0  0  0  0  0  0  0  0
   -3.0970   18.4180  -33.3690 C   0  0  0  0  0  0  0  0  0  0  0  0
   -2.3032   18.6523  -32.6445 H   0  0  0  0  0  0  0  0  0  0  0  0
   -4.3270   18.9800  -33.3550 N   0  0  0  0  0  0  0  0  0  0  0  0
   -3.7030   22.2050  -30.0150 C   0  0  0  0  0  0  0  0  0  0  0  0
   -3.1410   21.3530  -29.0440 C   0  0  0  0  0  0  0  0  0  0  0  0
   -3.1062   20.2689  -29.2269 H   0  0  0  0  0  0  0  0  0  0  0  0
   -2.6280   21.8680  -27.8530 C   0  0  0  0  0  0  0  0  0  0  0  0
   -2.1961   21.1898  -27.1023 H   0  0  0  0  0  0  0  0  0  0  0  0
   -2.6620   23.2410  -27.6130 C   0  0  0  0  0  0  0  0  0  0  0  0
   -2.2462   23.6462  -26.6787 H   0  0  0  0  0  0  0  0  0  0  0  0
   -3.2230   24.1010  -28.5570 C   0  0  0  0  0  0  0  0  0  0  0  0
   -3.2421   25.1836  -28.3630 H   0  0  0  0  0  0  0  0  0  0  0  0
   -3.7640   23.6000  -29.7530 C   0  0  0  0  0  0  0  0  0  0  0  0
   -4.3890   24.5170  -30.6670 N   0  0  0  0  0  0  0  0  0  0  0  0
   -3.9080   25.6560  -30.8410 O   0  0  0  0  0  0  0  0  0  0  0  0
   -5.3560   24.0660  -31.5350 O   0  0  0  0  0  0  0  0  0  0  0  0
  1  2  1  0
  2  3  2  0
  3  4  1  0
  4  5  2  0
  5  6  1  0
  6  7  1  0
  7  8  1  0
  8  9  1  0
  8 10  2  0
 10 11  1  0
 10 12  1  0
 12 13  1  0
  5 14  1  0
 14 15  2  0
 15 16  1  0
 16 17  1  0
 17 18  1  0
 17 19  2  0
 19 20  1  0
 19 21  1  0
  2 22  1  0
 22 23  2  0
 23 24  1  0
 23 25  1  0
 25 26  1  0
 25 27  2  0
 27 28  1  0
 27 29  1  0
 29 30  1  0
 29 31  2  0
 31 32  1  0
 32 33  2  0
 32 34  1  0
 21  4  1  0
 31 22  1  0
 12  6  2  0
 21 15  1  0
M  CHG  2  32   1  34  -1
M  END
>  <UniqueID>  (47) 
45

>  <SMILES>  (47) 
O=[N+]([O-])c1ccccc1/C=N/c1c(-c2cccs2)nc2sccn12

>  <Energy>  (47) 
154.33562842441842

>  <Genealogy>  (47) 
O=[N+]([O-])c1ccccc1/C=N/c1c(-c2cccs2)nc2sccn12 (cis-trans isomerization)
O=[N+]([O-])c1ccccc1/C=N/c1c(-c2cccs2)nc2sccn12 (3D coordinates assigned)
O=[N+]([O-])c1ccccc1/C=N/c1c(-c2cccs2)nc2sccn12 (optimized conformer: 154.33562842441842 kcal/mol)

>  <smiles>  (47) 
O=[N+]([O-])c1ccccc1C=Nc1c(-c2cccs2)nc2sccn12

>  <score_type>  (47) 
oracle

>  <origin>  (47) 
adgpu

>  <m_score__min__energy>  (47) 
-8.6600000000000001

>  <m_primary>  (47) 
energy

$$$$
47:0
     RDKit          3D

 34 36  0  0  0  0  0  0  0  0999 V2000
    0.3151   20.9369  -30.3650 H   0  0  0  0  0  0  0  0  0  0  0  0
   -0.6110   20.9620  -30.9580 C   0  0  0  0  0  0  0  0  0  0  0  0
   -1.8490   20.8030  -30.3290 C   0  0  0  0  0  0  0  0  0  0  0  0
   -1.8959   20.6468  -29.2412 H   0  0  0  0  0  0  0  0  0  0  0  0
   -3.0270   20.8420  -31.0790 C   0  0  0  0  0  0  0  0  0  0  0  0
   -3.9987   20.7030  -30.5825 H   0  0  0  0  0  0  0  0  0  0  0  0
   -2.9730   21.0590  -32.4700 C   0  0  0  0  0  0  0  0  0  0  0  0
   -4.1350   21.1140  -33.2560 O   0  0  0  0  0  0  0  0  0  0  0  0
   -5.4360   21.2560  -32.7530 C   0  0  0  0  0  0  0  0  0  0  0  0
   -6.3560   20.2270  -32.9820 C   0  0  0  0  0  0  0  0  0  0  0  0
   -6.0497   19.3367  -33.5508 H   0  0  0  0  0  0  0  0  0  0  0  0
   -7.6610   20.3230  -32.4930 C   0  0  0  0  0  0  0  0  0  0  0  0
   -8.3725   19.5013  -32.6621 H   0  0  0  0  0  0  0  0  0  0  0  0
   -8.0640   21.4600  -31.7900 C   0  0  0  0  0  0  0  0  0  0  0  0
   -9.7080   21.5880  -31.1950 Cl  0  0  0  0  0  0  0  0  0  0  0  0
   -7.1620   22.5080  -31.5810 C   0  0  0  0  0  0  0  0  0  0  0  0
   -7.4887   23.4125  -31.0469 H   0  0  0  0  0  0  0  0  0  0  0  0
   -5.8390   22.4120  -32.0500 C   0  0  0  0  0  0  0  0  0  0  0  0
   -4.9420   23.5280  -31.9370 N   0  0  0  0  0  0  0  0  0  0  0  0
   -4.3790   23.9470  -30.8410 C   0  0  0  0  0  0  0  0  0  0  0  0
   -4.4410   23.3550  -29.5910 C   0  0  0  0  0  0  0  0  0  0  0  0
   -5.0077   22.4633  -29.2850 H   0  0  0  0  0  0  0  0  0  0  0  0
   -3.6180   24.1560  -28.8200 C   0  0  0  0  0  0  0  0  0  0  0  0
   -3.3630   23.9900  -27.3600 C   0  0  0  0  0  0  0  0  0  0  0  0
   -4.1512   24.5031  -26.7895 H   0  0  0  0  0  0  0  0  0  0  0  0
   -3.3649   22.9195  -27.1068 H   0  0  0  0  0  0  0  0  0  0  0  0
   -2.3849   24.4249  -27.1068 H   0  0  0  0  0  0  0  0  0  0  0  0
   -3.1100   25.1610  -29.5640 N   0  0  0  0  0  0  0  0  0  0  0  0
   -3.5710   25.0180  -30.7950 N   0  0  0  0  0  0  0  0  0  0  0  0
   -3.3280   25.6490  -31.5920 H   0  0  0  0  0  0  0  0  0  0  0  0
   -1.7280   21.1960  -33.0950 C   0  0  0  0  0  0  0  0  0  0  0  0
   -1.6755   21.3383  -34.1845 H   0  0  0  0  0  0  0  0  0  0  0  0
   -0.5510   21.1530  -32.3420 C   0  0  0  0  0  0  0  0  0  0  0  0
    0.4235   21.2695  -32.8387 H   0  0  0  0  0  0  0  0  0  0  0  0
  1  2  1  0
  2  3  2  0
  3  4  1  0
  3  5  1  0
  5  6  1  0
  5  7  2  0
  7  8  1  0
  8  9  1  0
  9 10  2  0
 10 11  1  0
 10 12  1  0
 12 13  1  0
 12 14  2  0
 14 15  1  0
 14 16  1  0
 16 17  1  0
 16 18  2  0
 18 19  1  0
 19 20  2  0
 20 21  1  0
 21 22  1  0
 21 23  2  0
 23 24  1  0
 24 25  1  0
 24 26  1  0
 24 27  1  0
 23 28  1  0
 28 29  1  0
 29 30  1  0
  7 31  1  0
 31 32  1  0
 31 33  2  0
 33 34  1  0
 33  2  1  0
 18  9  1  0
 29 20  1  0
M  CHG  1  28  -1
M  END
>  <UniqueID>  (48) 
46

>  <SMILES>  (48) 
Cc1c/c(=N\c2cc(Cl)ccc2Oc2ccccc2)[nH][n-]1

>  <Energy>  (48) 
79.32754325275364

>  <Genealogy>  (48) 
Cc1cc(=Nc2cc(Cl)ccc2Oc2ccccc2)[nH][n-]1 (protonated)
Cc1c/c(=N\c2cc(Cl)ccc2Oc2ccccc2)[nH][n-]1 (cis-trans isomerization)
Cc1c/c(=N\c2cc(Cl)ccc2Oc2ccccc2)[nH][n-]1 (3D coordinates assigned)
Cc1c/c(=N\c2cc(Cl)ccc2Oc2ccccc2)[nH][n-]1 (optimized conformer: 79.32754325275364 kcal/mol)

>  <smiles>  (48) 
Cc1cc(=Nc2cc(Cl)ccc2Oc2ccccc2)[nH][nH]1

>  <score_type>  (48) 
oracle

>  <origin>  (48) 
adgpu

>  <m_score__min__energy>  (48) 
-9.5999999999999996

>  <m_primary>  (48) 
energy

$$$$
48:0
     RDKit          3D

 26 28  0  0  0  0  0  0  0  0999 V2000
   -6.4830   25.6850  -29.3380 C   0  0  0  0  0  0  0  0  0  0  0  0
   -5.6130   24.8520  -30.2180 C   0  0  0  0  0  0  0  0  0  0  0  0
   -5.9560   23.6400  -30.7780 C   0  0  0  0  0  0  0  0  0  0  0  0
   -4.8010   23.2460  -31.4230 C   0  0  0  0  0  0  0  0  0  0  0  0
   -4.5780   21.9970  -32.1700 C   0  0  0  0  0  0  0  0  0  0  0  0
   -3.3830   21.6830  -32.7070 N   0  0  0  0  0  0  0  0  0  0  0  0
   -3.4850   20.4430  -33.2150 C   0  0  0  0  0  0  0  0  0  0  0  0
   -4.7590   19.9510  -33.0130 C   0  0  0  0  0  0  0  0  0  0  0  0
   -5.4660   20.9430  -32.3580 C   0  0  0  0  0  0  0  0  0  0  0  0
   -6.9100   20.8870  -32.0640 C   0  0  0  0  0  0  0  0  0  0  0  0
   -7.6110   19.7490  -31.6860 C   0  0  0  0  0  0  0  0  0  0  0  0
   -8.9910   19.9580  -31.5710 C   0  0  0  0  0  0  0  0  0  0  0  0
   -9.3860   21.2520  -31.8810 C   0  0  0  0  0  0  0  0  0  0  0  0
   -8.0170   22.1330  -32.3010 S   0  0  0  0  0  0  0  0  0  0  0  0
   -3.8730   24.1520  -31.2170 O   0  0  0  0  0  0  0  0  0  0  0  0
   -4.3250   25.1340  -30.4920 N   0  0  0  0  0  0  0  0  0  0  0  0
   -6.2549   25.4666  -28.2843 H   0  0  0  0  0  0  0  0  0  0  0  0
   -6.2967   26.7500  -29.5404 H   0  0  0  0  0  0  0  0  0  0  0  0
   -7.5389   25.4526  -29.5404 H   0  0  0  0  0  0  0  0  0  0  0  0
   -6.9199   23.1128  -30.7238 H   0  0  0  0  0  0  0  0  0  0  0  0
   -2.5240   22.2770  -32.7040 H   0  0  0  0  0  0  0  0  0  0  0  0
   -2.6719   19.8993  -33.7184 H   0  0  0  0  0  0  0  0  0  0  0  0
   -5.1378   18.9631  -33.3141 H   0  0  0  0  0  0  0  0  0  0  0  0
   -7.1293   18.7786  -31.4956 H   0  0  0  0  0  0  0  0  0  0  0  0
   -9.6954   19.1709  -31.2640 H   0  0  0  0  0  0  0  0  0  0  0  0
  -10.4169   21.6350  -31.8562 H   0  0  0  0  0  0  0  0  0  0  0  0
  1  2  1  0
  2  3  1  0
  3  4  2  0
  4  5  1  0
  5  6  1  0
  6  7  1  0
  7  8  2  0
  8  9  1  0
  9 10  1  0
 10 11  2  0
 11 12  1  0
 12 13  2  0
 13 14  1  0
  4 15  1  0
 15 16  1  0
 16  2  2  0
  9  5  2  0
 14 10  1  0
  1 17  1  0
  1 18  1  0
  1 19  1  0
  3 20  1  0
  6 21  1  0
  7 22  1  0
  8 23  1  0
 11 24  1  0
 12 25  1  0
 13 26  1  0
M  END
>  <UniqueID>  (49) 
47

>  <SMILES>  (49) 
Cc1cc(-c2[nH]ccc2-c2cccs2)on1

>  <Energy>  (49) 
114.0432340683397

>  <Genealogy>  (49) 
Cc1cc(-c2[nH]ccc2-c2cccs2)on1 (3D coordinates assigned)
Cc1cc(-c2[nH]ccc2-c2cccs2)on1 (optimized conformer: 114.0432340683397 kcal/mol)

>  <smiles>  (49) 
Cc1cc(-c2[nH]ccc2-c2cccs2)on1

>  <score_type>  (49) 
oracle

>  <origin>  (49) 
adgpu

>  <m_score__min__energy>  (49) 
-7.5099999999999998

>  <m_primary>  (49) 
energy

$$$$
