0:0
     RDKit          3D

 27 28  0  0  0  0  0  0  0  0999 V2000
   -7.3380   23.7860  -32.3720 O   0  0  0  0  0  0  0  0  0  0  0  0
   -6.9470   23.3090  -31.2720 C   0  0  0  0  0  0  0  0  0  0  0  0
   -7.7780   22.3810  -30.5640 N   0  0  0  0  0  0  0  0  0  0  0  0
   -8.7790   21.5370  -31.2070 C   0  0  0  0  0  0  0  0  0  0  0  0
   -8.1220   20.3460  -31.8510 C   0  0  0  0  0  0  0  0  0  0  0  0
   -8.5760   19.0450  -31.5780 C   0  0  0  0  0  0  0  0  0  0  0  0
   -7.9730   17.9450  -32.1980 C   0  0  0  0  0  0  0  0  0  0  0  0
   -6.9190   18.1370  -33.0980 C   0  0  0  0  0  0  0  0  0  0  0  0
   -6.1670   16.7570  -33.8760 Cl  0  0  0  0  0  0  0  0  0  0  0  0
   -6.4680   19.4310  -33.3780 C   0  0  0  0  0  0  0  0  0  0  0  0
   -7.0680   20.5310  -32.7590 C   0  0  0  0  0  0  0  0  0  0  0  0
   -5.6370   23.7120  -30.7120 C   0  0  0  0  0  0  0  0  0  0  0  0
   -4.9280   22.8560  -29.8520 C   0  0  0  0  0  0  0  0  0  0  0  0
   -3.6940   23.2490  -29.3300 C   0  0  0  0  0  0  0  0  0  0  0  0
   -3.1740   24.4990  -29.6690 C   0  0  0  0  0  0  0  0  0  0  0  0
   -2.0630   24.8700  -29.2070 O   0  0  0  0  0  0  0  0  0  0  0  0
   -3.8680   25.3200  -30.5010 N   0  0  0  0  0  0  0  0  0  0  0  0
   -5.0710   24.9610  -31.0240 C   0  0  0  0  0  0  0  0  0  0  0  0
   -9.4999   21.1898  -30.4522 H   0  0  0  0  0  0  0  0  0  0  0  0
   -9.2967   22.1223  -31.9812 H   0  0  0  0  0  0  0  0  0  0  0  0
   -9.4078   18.8905  -30.8749 H   0  0  0  0  0  0  0  0  0  0  0  0
   -8.3282   16.9276  -31.9775 H   0  0  0  0  0  0  0  0  0  0  0  0
   -5.6401   19.5831  -34.0862 H   0  0  0  0  0  0  0  0  0  0  0  0
   -6.7123   21.5471  -32.9847 H   0  0  0  0  0  0  0  0  0  0  0  0
   -5.3465   21.8732  -29.5892 H   0  0  0  0  0  0  0  0  0  0  0  0
   -3.1370   22.5797  -28.6579 H   0  0  0  0  0  0  0  0  0  0  0  0
   -5.6040   25.6511  -31.6945 H   0  0  0  0  0  0  0  0  0  0  0  0
  1  2  2  0
  2  3  1  0
  3  4  1  0
  4  5  1  0
  5  6  2  0
  6  7  1  0
  7  8  2  0
  8  9  1  0
  8 10  1  0
 10 11  2  0
  2 12  1  0
 12 13  1  0
 13 14  2  0
 14 15  1  0
 15 16  2  0
 15 17  1  0
 17 18  1  0
 11  5  1  0
 18 12  2  0
  4 19  1  0
  4 20  1  0
  6 21  1  0
  7 22  1  0
 10 23  1  0
 11 24  1  0
 13 25  1  0
 14 26  1  0
 18 27  1  0
M  CHG  2   3  -1  17  -1
M  END
>  <UniqueID>  (1) 
1

>  <SMILES>  (1) 
O=C([N-]Cc1ccc(Cl)cc1)c1ccc(=O)[n-]c1

>  <Energy>  (1) 
27.00284697056739

>  <Genealogy>  (1) 
O=C([N-]Cc1ccc(Cl)cc1)c1ccc(=O)[n-]c1 (protonated)
O=C([N-]Cc1ccc(Cl)cc1)c1ccc(=O)[n-]c1 (3D coordinates assigned)
O=C([N-]Cc1ccc(Cl)cc1)c1ccc(=O)[n-]c1 (optimized conformer: 27.00284697056739 kcal/mol)

>  <smiles>  (1) 
O=C(NCc1ccc(Cl)cc1)c1ccc(=O)[nH]c1

>  <score_type>  (1) 
oracle

>  <origin>  (1) 
adgpu

>  <m_score__min__energy>  (1) 
-9.4199999999999999

>  <m_primary>  (1) 
energy

$$$$
1:0
     RDKit          3D

 50 53  0  0  1  0  0  0  0  0999 V2000
   -0.3460   19.1580  -27.7010 C   0  0  0  0  0  0  0  0  0  0  0  0
   -1.3300   20.1070  -27.0870 C   0  0  0  0  0  0  0  0  0  0  0  0
   -2.2820   19.2880  -26.2440 C   0  0  0  0  0  0  0  0  0  0  0  0
   -2.0780   20.8910  -28.0460 N   0  0  0  0  0  0  0  0  0  0  0  0
   -3.1250   20.4640  -28.7930 C   0  0  0  0  0  0  0  0  0  0  0  0
   -3.5790   21.4550  -29.5730 N   0  0  0  0  0  0  0  0  0  0  0  0
   -2.8350   22.5530  -29.3500 C   0  0  0  0  0  0  0  0  0  0  0  0
   -2.8870   23.8230  -29.8870 C   0  0  0  0  0  0  0  0  0  0  0  0
   -3.7480   24.1830  -30.7780 N   0  0  0  0  0  0  0  0  0  0  0  0
   -4.6950   23.2210  -31.2320 C   0  0  0  0  0  0  0  0  0  0  0  0
   -4.4070   22.3640  -32.2740 C   0  0  0  0  0  0  0  0  0  0  0  0
   -5.3230   21.4420  -32.7050 C   0  0  0  0  0  0  0  0  0  0  0  0
   -6.5680   21.3570  -32.0900 C   0  0  0  0  0  0  0  0  0  0  0  0
   -7.4920   20.4010  -32.5520 O   0  0  0  0  0  0  0  0  0  0  0  0
   -6.8650   22.2090  -31.0480 C   0  0  0  0  0  0  0  0  0  0  0  0
   -5.9440   23.1450  -30.6070 C   0  0  0  0  0  0  0  0  0  0  0  0
   -1.9980   24.7150  -29.4560 N   0  0  0  0  0  0  0  0  0  0  0  0
   -1.0880   24.3570  -28.5240 C   0  0  0  0  0  0  0  0  0  0  0  0
   -0.2470   25.2410  -28.1330 N   0  0  0  0  0  0  0  0  0  0  0  0
    0.7880   24.9920  -27.1330 C   0  0  0  0  0  0  0  0  0  0  0  0
    0.2990   25.6340  -25.8760 C   0  0  0  0  0  0  0  0  0  0  0  0
    1.1540   26.0090  -24.8610 C   0  0  0  0  0  0  0  0  0  0  0  0
    0.6790   26.5910  -23.7270 C   0  0  0  0  0  0  0  0  0  0  0  0
   -0.6720   26.8100  -23.5890 C   0  0  0  0  0  0  0  0  0  0  0  0
   -1.5560   26.4520  -24.5730 C   0  0  0  0  0  0  0  0  0  0  0  0
   -1.0590   25.8580  -25.7270 C   0  0  0  0  0  0  0  0  0  0  0  0
   -1.0300   23.1210  -27.9950 N   0  0  0  0  0  0  0  0  0  0  0  0
   -1.9060   22.1800  -28.3940 C   0  0  0  0  0  0  0  0  0  0  0  0
    0.2006   18.6308  -26.9052 H   0  0  0  0  0  0  0  0  0  0  0  0
   -0.8816   18.4268  -28.3243 H   0  0  0  0  0  0  0  0  0  0  0  0
    0.3653   19.7198  -28.3243 H   0  0  0  0  0  0  0  0  0  0  0  0
   -0.7640   20.8385  -26.4916 H   0  0  0  0  0  0  0  0  0  0  0  0
   -2.0746   19.4664  -25.1786 H   0  0  0  0  0  0  0  0  0  0  0  0
   -3.3176   19.5818  -26.4702 H   0  0  0  0  0  0  0  0  0  0  0  0
   -2.1461   18.2201  -26.4702 H   0  0  0  0  0  0  0  0  0  0  0  0
   -3.5434   19.4471  -28.7634 H   0  0  0  0  0  0  0  0  0  0  0  0
   -3.4253   22.4223  -32.7667 H   0  0  0  0  0  0  0  0  0  0  0  0
   -5.0743   20.7681  -33.5381 H   0  0  0  0  0  0  0  0  0  0  0  0
   -7.3060   20.0780  -33.5140 H   0  0  0  0  0  0  0  0  0  0  0  0
   -7.8483   22.1447  -30.5592 H   0  0  0  0  0  0  0  0  0  0  0  0
   -6.1920   23.8206  -29.7751 H   0  0  0  0  0  0  0  0  0  0  0  0
   -1.9870   25.6740  -29.8190 H   0  0  0  0  0  0  0  0  0  0  0  0
    0.9244   23.9108  -26.9834 H   0  0  0  0  0  0  0  0  0  0  0  0
    1.7606   25.4001  -27.4453 H   0  0  0  0  0  0  0  0  0  0  0  0
    2.2347   25.8351  -24.9699 H   0  0  0  0  0  0  0  0  0  0  0  0
    1.3716   26.8850  -22.9246 H   0  0  0  0  0  0  0  0  0  0  0  0
   -1.0504   27.2820  -22.6703 H   0  0  0  0  0  0  0  0  0  0  0  0
   -2.6346   26.6307  -24.4522 H   0  0  0  0  0  0  0  0  0  0  0  0
   -1.7511   25.5631  -26.5295 H   0  0  0  0  0  0  0  0  0  0  0  0
   -0.3230   22.8980  -27.2910 H   0  0  0  0  0  0  0  0  0  0  0  0
  1  2  1  0
  2  3  1  0
  2  4  1  0
  4  5  1  0
  5  6  2  0
  6  7  1  0
  7  8  1  0
  8  9  2  0
  9 10  1  0
 10 11  2  0
 11 12  1  0
 12 13  2  0
 13 14  1  0
 13 15  1  0
 15 16  2  0
  8 17  1  0
 17 18  1  0
 18 19  2  0
 19 20  1  0
 20 21  1  0
 21 22  2  0
 22 23  1  0
 23 24  2  0
 24 25  1  0
 25 26  2  0
 18 27  1  0
 27 28  1  0
 28  4  1  0
 28  7  2  0
 16 10  1  0
 26 21  1  0
  1 29  1  0
  1 30  1  0
  1 31  1  0
  2 32  1  0
  3 33  1  0
  3 34  1  0
  3 35  1  0
  5 36  1  0
 11 37  1  0
 12 38  1  0
 14 39  1  0
 15 40  1  0
 16 41  1  0
 17 42  1  0
 20 43  1  0
 20 44  1  0
 22 45  1  0
 23 46  1  0
 24 47  1  0
 25 48  1  0
 26 49  1  0
 27 50  1  0
M  END
>  <smiles>  (2) 
CC(C)n1cnc2c(=Nc3ccc(O)cc3)[nH]c(=NCc3ccccc3)[nH]c21

>  <score_type>  (2) 
oracle

>  <origin>  (2) 
adgpu

>  <m_score__min__energy>  (2) 
-8.6500000000000004

>  <m_primary>  (2) 
energy

$$$$
2:0
     RDKit          3D

 39 41  0  0  0  0  0  0  0  0999 V2000
   -9.6715   22.7171  -31.4170 H   0  0  0  0  0  0  0  0  0  0  0  0
   -8.6360   22.4020  -31.6130 C   0  0  0  0  0  0  0  0  0  0  0  0
   -8.3950   21.2640  -32.3160 N   0  0  0  0  0  0  0  0  0  0  0  0
   -7.1290   20.8380  -32.5780 C   0  0  0  0  0  0  0  0  0  0  0  0
   -6.9130   19.5740  -33.3460 C   0  0  0  0  0  0  0  0  0  0  0  0
   -6.7703   18.7387  -32.6447 H   0  0  0  0  0  0  0  0  0  0  0  0
   -7.7902   19.3753  -33.9793 H   0  0  0  0  0  0  0  0  0  0  0  0
   -6.0196   19.6778  -33.9793 H   0  0  0  0  0  0  0  0  0  0  0  0
   -6.0360   21.5820  -32.1160 C   0  0  0  0  0  0  0  0  0  0  0  0
   -5.0104   21.2353  -32.3107 H   0  0  0  0  0  0  0  0  0  0  0  0
   -6.2540   22.7710  -31.4040 C   0  0  0  0  0  0  0  0  0  0  0  0
   -5.1010   23.5500  -30.9060 C   0  0  0  0  0  0  0  0  0  0  0  0
   -5.0120   24.9000  -30.9960 N   0  0  0  0  0  0  0  0  0  0  0  0
   -3.8640   25.3010  -30.4600 N   0  0  0  0  0  0  0  0  0  0  0  0
   -3.2230   24.2040  -30.0240 C   0  0  0  0  0  0  0  0  0  0  0  0
   -1.9990   24.1410  -29.3640 C   0  0  0  0  0  0  0  0  0  0  0  0
   -1.4065   25.0466  -29.1668 H   0  0  0  0  0  0  0  0  0  0  0  0
   -1.5510   22.8670  -28.9590 C   0  0  0  0  0  0  0  0  0  0  0  0
   -0.4200   22.7690  -28.3230 N   0  0  0  0  0  0  0  0  0  0  0  0
    0.2080   21.5570  -27.8780 C   0  0  0  0  0  0  0  0  0  0  0  0
    1.2120   21.6390  -27.1210 O   0  0  0  0  0  0  0  0  0  0  0  0
   -0.2450   20.2720  -28.3340 N   0  0  0  0  0  0  0  0  0  0  0  0
   -0.8100   20.2250  -29.2120 H   0  0  0  0  0  0  0  0  0  0  0  0
    0.2630   19.0180  -27.7730 C   0  0  0  0  0  0  0  0  0  0  0  0
    1.0390   19.2380  -27.0250 H   0  0  0  0  0  0  0  0  0  0  0  0
   -0.8730   18.2610  -27.0820 C   0  0  0  0  0  0  0  0  0  0  0  0
   -0.7555   18.3393  -25.9911 H   0  0  0  0  0  0  0  0  0  0  0  0
   -1.8382   18.6971  -27.3791 H   0  0  0  0  0  0  0  0  0  0  0  0
   -0.8421   17.2023  -27.3791 H   0  0  0  0  0  0  0  0  0  0  0  0
    0.8870   18.1700  -28.8820 C   0  0  0  0  0  0  0  0  0  0  0  0
    1.4824   17.3609  -28.4339 H   0  0  0  0  0  0  0  0  0  0  0  0
    0.0903   17.7372  -29.5049 H   0  0  0  0  0  0  0  0  0  0  0  0
    1.5371   18.8019  -29.5049 H   0  0  0  0  0  0  0  0  0  0  0  0
   -2.3330   21.7620  -29.1940 N   0  0  0  0  0  0  0  0  0  0  0  0
   -3.5330   21.8370  -29.8410 C   0  0  0  0  0  0  0  0  0  0  0  0
   -4.1412   20.9369  -30.0140 H   0  0  0  0  0  0  0  0  0  0  0  0
   -3.9630   23.0880  -30.2750 C   0  0  0  0  0  0  0  0  0  0  0  0
   -7.5720   23.1720  -31.1390 C   0  0  0  0  0  0  0  0  0  0  0  0
   -7.7661   24.0877  -30.5612 H   0  0  0  0  0  0  0  0  0  0  0  0
  1  2  1  0
  2  3  2  0
  3  4  1  0
  4  5  1  0
  5  6  1  0
  5  7  1  0
  5  8  1  0
  4  9  2  0
  9 10  1  0
  9 11  1  0
 11 12  1  0
 12 13  2  0
 13 14  1  0
 14 15  1  0
 15 16  2  0
 16 17  1  0
 16 18  1  0
 18 19  2  0
 19 20  1  0
 20 21  2  0
 20 22  1  0
 22 23  1  0
 22 24  1  0
 24 25  1  0
 24 26  1  0
 26 27  1  0
 26 28  1  0
 26 29  1  0
 24 30  1  0
 30 31  1  0
 30 32  1  0
 30 33  1  0
 18 34  1  0
 34 35  1  0
 35 36  1  0
 35 37  2  0
 11 38  2  0
 38 39  1  0
 38  2  1  0
 37 12  1  0
 37 15  1  0
M  CHG  2  14  -1  34  -1
M  END
>  <UniqueID>  (3) 
2

>  <SMILES>  (3) 
Cc1cc(-c2n[n-]c3c/c(=N/C(=O)NC(C)C)[n-]cc23)ccn1

>  <Energy>  (3) 
82.96771837731517

>  <Genealogy>  (3) 
Cc1cc(-c2n[n-]c3cc(=NC(=O)NC(C)C)[n-]cc23)ccn1 (protonated)
Cc1cc(-c2n[n-]c3c/c(=N/C(=O)NC(C)C)[n-]cc23)ccn1 (cis-trans isomerization)
Cc1cc(-c2n[n-]c3c/c(=N/C(=O)NC(C)C)[n-]cc23)ccn1 (3D coordinates assigned)
Cc1cc(-c2n[n-]c3c/c(=N/C(=O)NC(C)C)[n-]cc23)ccn1 (optimized conformer: 82.96771837731517 kcal/mol)

>  <smiles>  (3) 
Cc1cc(-c2n[nH]c3cc(=NC(=O)NC(C)C)[nH]cc23)ccn1

>  <score_type>  (3) 
oracle

>  <origin>  (3) 
adgpu

>  <m_score__min__energy>  (3) 
-9.8200000000000003

>  <m_primary>  (3) 
energy

$$$$
3:0
     RDKit          3D

 34 35  0  0  0  0  0  0  0  0999 V2000
   -8.2140   20.2590  -32.0070 C   0  0  0  0  0  0  0  0  0  0  0  0
   -6.9790   20.6390  -32.7630 C   0  0  0  0  0  0  0  0  0  0  0  0
   -6.7520   20.0790  -33.8680 O   0  0  0  0  0  0  0  0  0  0  0  0
   -6.0320   21.6580  -32.2540 C   0  0  0  0  0  0  0  0  0  0  0  0
   -4.6460   21.5770  -32.3090 C   0  0  0  0  0  0  0  0  0  0  0  0
   -3.8470   20.4420  -32.8690 C   0  0  0  0  0  0  0  0  0  0  0  0
   -4.0920   22.6920  -31.7980 N   0  0  0  0  0  0  0  0  0  0  0  0
   -5.0980   23.5000  -31.4100 C   0  0  0  0  0  0  0  0  0  0  0  0
   -4.8690   24.8410  -30.8370 C   0  0  0  0  0  0  0  0  0  0  0  0
   -5.7960   25.6950  -30.8230 O   0  0  0  0  0  0  0  0  0  0  0  0
   -3.5610   25.1880  -30.3650 N   0  0  0  0  0  0  0  0  0  0  0  0
   -2.8260   24.5330  -29.3210 C   0  0  0  0  0  0  0  0  0  0  0  0
   -3.4540   23.5120  -28.5960 C   0  0  0  0  0  0  0  0  0  0  0  0
   -2.7790   22.8610  -27.5580 C   0  0  0  0  0  0  0  0  0  0  0  0
   -1.4760   23.2380  -27.2270 C   0  0  0  0  0  0  0  0  0  0  0  0
   -0.8250   22.6070  -26.2170 F   0  0  0  0  0  0  0  0  0  0  0  0
   -0.8480   24.2730  -27.9270 C   0  0  0  0  0  0  0  0  0  0  0  0
    0.4100   24.6550  -27.5930 F   0  0  0  0  0  0  0  0  0  0  0  0
   -1.5210   24.9240  -28.9670 C   0  0  0  0  0  0  0  0  0  0  0  0
   -6.3230   22.8840  -31.6550 C   0  0  0  0  0  0  0  0  0  0  0  0
   -7.6820   23.4170  -31.3030 C   0  0  0  0  0  0  0  0  0  0  0  0
   -8.0159   20.3199  -30.9267 H   0  0  0  0  0  0  0  0  0  0  0  0
   -9.0309   20.9473  -32.2694 H   0  0  0  0  0  0  0  0  0  0  0  0
   -8.5026   19.2305  -32.2694 H   0  0  0  0  0  0  0  0  0  0  0  0
   -3.4279   19.8467  -32.0444 H   0  0  0  0  0  0  0  0  0  0  0  0
   -4.4974   19.8056  -33.4871 H   0  0  0  0  0  0  0  0  0  0  0  0
   -3.0285   20.8396  -33.4871 H   0  0  0  0  0  0  0  0  0  0  0  0
   -3.0700   22.8950  -31.7340 H   0  0  0  0  0  0  0  0  0  0  0  0
   -4.4850   23.2202  -28.8447 H   0  0  0  0  0  0  0  0  0  0  0  0
   -3.2750   22.0516  -27.0022 H   0  0  0  0  0  0  0  0  0  0  0  0
   -1.0284   25.7442  -29.5098 H   0  0  0  0  0  0  0  0  0  0  0  0
   -7.7875   23.4584  -30.2089 H   0  0  0  0  0  0  0  0  0  0  0  0
   -7.7991   24.4277  -31.7211 H   0  0  0  0  0  0  0  0  0  0  0  0
   -8.4549   22.7554  -31.7211 H   0  0  0  0  0  0  0  0  0  0  0  0
  1  2  1  0
  2  3  2  0
  2  4  1  0
  4  5  2  0
  5  6  1  0
  5  7  1  0
  7  8  1  0
  8  9  1  0
  9 10  2  0
  9 11  1  0
 11 12  1  0
 12 13  2  0
 13 14  1  0
 14 15  2  0
 15 16  1  0
 15 17  1  0
 17 18  1  0
 17 19  2  0
  8 20  2  0
 20 21  1  0
 20  4  1  0
 19 12  1  0
  1 22  1  0
  1 23  1  0
  1 24  1  0
  6 25  1  0
  6 26  1  0
  6 27  1  0
  7 28  1  0
 13 29  1  0
 14 30  1  0
 19 31  1  0
 21 32  1  0
 21 33  1  0
 21 34  1  0
M  CHG  1  11  -1
M  END
>  <UniqueID>  (4) 
3

>  <SMILES>  (4) 
CC(=O)c1c(C)[nH]c(C(=O)[N-]c2ccc(F)c(F)c2)c1C

>  <Energy>  (4) 
65.28547140584776

>  <Genealogy>  (4) 
CC(=O)c1c(C)[nH]c(C(=O)[N-]c2ccc(F)c(F)c2)c1C (protonated)
CC(=O)c1c(C)[nH]c(C(=O)[N-]c2ccc(F)c(F)c2)c1C (3D coordinates assigned)
CC(=O)c1c(C)[nH]c(C(=O)[N-]c2ccc(F)c(F)c2)c1C (optimized conformer: 65.28547140584776 kcal/mol)

>  <smiles>  (4) 
CC(=O)c1c(C)[nH]c(C(=O)Nc2ccc(F)c(F)c2)c1C

>  <score_type>  (4) 
oracle

>  <origin>  (4) 
adgpu

>  <m_score__min__energy>  (4) 
-8.3599999999999994

>  <m_primary>  (4) 
energy

$$$$
4:0
     RDKit          3D

 47 49  0  0  0  0  0  0  0  0999 V2000
   -2.6810   20.2870  -27.4370 C   0  0  0  0  0  0  0  0  0  0  0  0
   -2.2570   21.5100  -26.8440 O   0  0  0  0  0  0  0  0  0  0  0  0
   -1.9510   22.6790  -27.5600 C   0  0  0  0  0  0  0  0  0  0  0  0
   -2.8410   23.2270  -28.5000 C   0  0  0  0  0  0  0  0  0  0  0  0
   -2.5160   24.3910  -29.1950 C   0  0  0  0  0  0  0  0  0  0  0  0
   -3.4560   24.9050  -30.1510 N   0  0  0  0  0  0  0  0  0  0  0  0
   -4.8540   24.0520  -30.7200 S   0  0  0  0  0  0  0  0  0  0  0  0
   -5.6940   23.6400  -29.5430 O   0  0  0  0  0  0  0  0  0  0  0  0
   -5.6500   24.9860  -31.5880 O   0  0  0  0  0  0  0  0  0  0  0  0
   -4.3450   22.6010  -31.6000 C   0  0  0  0  0  0  0  0  0  0  0  0
   -2.9720   22.4030  -31.8120 C   0  0  0  0  0  0  0  0  0  0  0  0
   -2.5310   21.3500  -32.5460 N   0  0  0  0  0  0  0  0  0  0  0  0
   -3.3910   20.4560  -33.1000 C   0  0  0  0  0  0  0  0  0  0  0  0
   -4.7640   20.5990  -32.9110 C   0  0  0  0  0  0  0  0  0  0  0  0
   -5.2570   21.6670  -32.1480 C   0  0  0  0  0  0  0  0  0  0  0  0
   -6.7150   21.7680  -31.9420 C   0  0  0  0  0  0  0  0  0  0  0  0
   -7.4300   20.6750  -31.4240 C   0  0  0  0  0  0  0  0  0  0  0  0
   -8.8100   20.7690  -31.2260 C   0  0  0  0  0  0  0  0  0  0  0  0
   -9.4820   21.9550  -31.5360 C   0  0  0  0  0  0  0  0  0  0  0  0
   -8.7750   23.0500  -32.0400 C   0  0  0  0  0  0  0  0  0  0  0  0
   -7.3940   22.9610  -32.2380 C   0  0  0  0  0  0  0  0  0  0  0  0
   -1.2850   25.0180  -28.9510 C   0  0  0  0  0  0  0  0  0  0  0  0
   -0.3710   24.4830  -28.0220 C   0  0  0  0  0  0  0  0  0  0  0  0
    0.8690   25.1030  -27.7990 O   0  0  0  0  0  0  0  0  0  0  0  0
    1.2890   25.6680  -26.5600 C   0  0  0  0  0  0  0  0  0  0  0  0
   -0.7160   23.3030  -27.3140 C   0  0  0  0  0  0  0  0  0  0  0  0
    0.1200   22.6950  -26.3570 O   0  0  0  0  0  0  0  0  0  0  0  0
   -0.0200   22.7600  -24.9430 C   0  0  0  0  0  0  0  0  0  0  0  0
   -2.9317   19.5639  -26.6469 H   0  0  0  0  0  0  0  0  0  0  0  0
   -3.5680   20.4703  -28.0611 H   0  0  0  0  0  0  0  0  0  0  0  0
   -1.8709   19.8819  -28.0611 H   0  0  0  0  0  0  0  0  0  0  0  0
   -3.8048   22.7318  -28.6893 H   0  0  0  0  0  0  0  0  0  0  0  0
   -2.2466   23.1077  -31.3793 H   0  0  0  0  0  0  0  0  0  0  0  0
   -3.0030   19.6185  -33.6983 H   0  0  0  0  0  0  0  0  0  0  0  0
   -5.4601   19.8751  -33.3597 H   0  0  0  0  0  0  0  0  0  0  0  0
   -6.9021   19.7430  -31.1737 H   0  0  0  0  0  0  0  0  0  0  0  0
   -9.3678   19.9094  -30.8260 H   0  0  0  0  0  0  0  0  0  0  0  0
  -10.5690   22.0264  -31.3830 H   0  0  0  0  0  0  0  0  0  0  0  0
   -9.3057   23.9829  -32.2812 H   0  0  0  0  0  0  0  0  0  0  0  0
   -6.8382   23.8271  -32.6264 H   0  0  0  0  0  0  0  0  0  0  0  0
   -1.0298   25.9406  -29.4928 H   0  0  0  0  0  0  0  0  0  0  0  0
    0.8591   25.0897  -25.7289 H   0  0  0  0  0  0  0  0  0  0  0  0
    2.3868   25.6394  -26.4974 H   0  0  0  0  0  0  0  0  0  0  0  0
    0.9452   26.7110  -26.4974 H   0  0  0  0  0  0  0  0  0  0  0  0
    0.8790   22.3426  -24.4660 H   0  0  0  0  0  0  0  0  0  0  0  0
   -0.1454   23.8085  -24.6348 H   0  0  0  0  0  0  0  0  0  0  0  0
   -0.9019   22.1792  -24.6348 H   0  0  0  0  0  0  0  0  0  0  0  0
  1  2  1  0
  2  3  1  0
  3  4  2  0
  4  5  1  0
  5  6  1  0
  6  7  1  0
  7  8  2  0
  7  9  2  0
  7 10  1  0
 10 11  2  0
 11 12  1  0
 12 13  2  0
 13 14  1  0
 14 15  2  0
 15 16  1  0
 16 17  2  0
 17 18  1  0
 18 19  2  0
 19 20  1  0
 20 21  2  0
  5 22  2  0
 22 23  1  0
 23 24  1  0
 24 25  1  0
 23 26  2  0
 26 27  1  0
 27 28  1  0
 26  3  1  0
 15 10  1  0
 21 16  1  0
  1 29  1  0
  1 30  1  0
  1 31  1  0
  4 32  1  0
 11 33  1  0
 13 34  1  0
 14 35  1  0
 17 36  1  0
 18 37  1  0
 19 38  1  0
 20 39  1  0
 21 40  1  0
 22 41  1  0
 25 42  1  0
 25 43  1  0
 25 44  1  0
 28 45  1  0
 28 46  1  0
 28 47  1  0
M  CHG  1   6  -1
M  END
>  <UniqueID>  (5) 
4

>  <SMILES>  (5) 
COc1cc([N-]S(=O)(=O)c2cnccc2-c2ccccc2)cc(OC)c1OC

>  <Energy>  (5) 
62.14451714023496

>  <Genealogy>  (5) 
COc1cc([N-]S(=O)(=O)c2cnccc2-c2ccccc2)cc(OC)c1OC (protonated)
COc1cc([N-]S(=O)(=O)c2cnccc2-c2ccccc2)cc(OC)c1OC (3D coordinates assigned)
COc1cc([N-]S(=O)(=O)c2cnccc2-c2ccccc2)cc(OC)c1OC (optimized conformer: 62.14451714023496 kcal/mol)

>  <smiles>  (5) 
COc1cc(NS(=O)(=O)c2cnccc2-c2ccccc2)cc(OC)c1OC

>  <score_type>  (5) 
oracle

>  <origin>  (5) 
adgpu

>  <m_score__min__energy>  (5) 
-9.5099999999999998

>  <m_primary>  (5) 
energy

$$$$
5:0
     RDKit          3D

 37 38  0  0  0  0  0  0  0  0999 V2000
   -1.9840   23.1010  -27.8680 C   0  0  0  0  0  0  0  0  0  0  0  0
   -1.4470   24.1170  -28.8300 C   0  0  0  0  0  0  0  0  0  0  0  0
   -0.2000   24.2420  -28.9570 O   0  0  0  0  0  0  0  0  0  0  0  0
   -2.3090   24.9320  -29.6310 N   0  0  0  0  0  0  0  0  0  0  0  0
   -3.9370   24.5150  -30.0560 S   0  0  0  0  0  0  0  0  0  0  0  0
   -4.5600   25.6630  -30.8000 O   0  0  0  0  0  0  0  0  0  0  0  0
   -4.7270   24.2650  -28.8010 O   0  0  0  0  0  0  0  0  0  0  0  0
   -3.9470   23.0950  -31.0960 C   0  0  0  0  0  0  0  0  0  0  0  0
   -5.0010   22.8710  -31.9920 C   0  0  0  0  0  0  0  0  0  0  0  0
   -5.0020   21.7330  -32.8040 C   0  0  0  0  0  0  0  0  0  0  0  0
   -3.9620   20.7990  -32.7200 C   0  0  0  0  0  0  0  0  0  0  0  0
   -3.9920   19.6560  -33.5870 N   0  0  0  0  0  0  0  0  0  0  0  0
   -5.1620   18.9720  -34.0530 C   0  0  0  0  0  0  0  0  0  0  0  0
   -5.1100   18.2770  -35.1040 O   0  0  0  0  0  0  0  0  0  0  0  0
   -6.4110   18.9890  -33.2510 C   0  0  0  0  0  0  0  0  0  0  0  0
   -7.3320   20.0320  -33.4670 C   0  0  0  0  0  0  0  0  0  0  0  0
   -8.5360   20.0800  -32.7650 C   0  0  0  0  0  0  0  0  0  0  0  0
   -8.8410   19.0920  -31.8330 C   0  0  0  0  0  0  0  0  0  0  0  0
   -7.9370   18.0570  -31.5880 C   0  0  0  0  0  0  0  0  0  0  0  0
   -6.7100   17.9990  -32.2730 C   0  0  0  0  0  0  0  0  0  0  0  0
   -5.7520   16.8860  -31.9360 C   0  0  0  0  0  0  0  0  0  0  0  0
   -2.8920   21.0400  -31.8400 C   0  0  0  0  0  0  0  0  0  0  0  0
   -2.8900   22.1790  -31.0300 C   0  0  0  0  0  0  0  0  0  0  0  0
   -1.8043   23.4410  -26.8374 H   0  0  0  0  0  0  0  0  0  0  0  0
   -3.0650   22.9778  -28.0303 H   0  0  0  0  0  0  0  0  0  0  0  0
   -1.4769   22.1385  -28.0303 H   0  0  0  0  0  0  0  0  0  0  0  0
   -5.8292   23.5921  -32.0565 H   0  0  0  0  0  0  0  0  0  0  0  0
   -5.8260   21.5700  -33.5143 H   0  0  0  0  0  0  0  0  0  0  0  0
   -7.0987   20.8192  -34.1990 H   0  0  0  0  0  0  0  0  0  0  0  0
   -9.2460   20.9000  -32.9481 H   0  0  0  0  0  0  0  0  0  0  0  0
   -9.7962   19.1270  -31.2886 H   0  0  0  0  0  0  0  0  0  0  0  0
   -8.1868   17.2789  -30.8517 H   0  0  0  0  0  0  0  0  0  0  0  0
   -5.6702   16.7910  -30.8432 H   0  0  0  0  0  0  0  0  0  0  0  0
   -6.1239   15.9413  -32.3594 H   0  0  0  0  0  0  0  0  0  0  0  0
   -4.7625   17.1131  -32.3594 H   0  0  0  0  0  0  0  0  0  0  0  0
   -2.0537   20.3296  -31.7889 H   0  0  0  0  0  0  0  0  0  0  0  0
   -2.0541   22.3567  -30.3374 H   0  0  0  0  0  0  0  0  0  0  0  0
  1  2  1  0
  2  3  2  0
  2  4  1  0
  4  5  1  0
  5  6  2  0
  5  7  2  0
  5  8  1  0
  8  9  2  0
  9 10  1  0
 10 11  2  0
 11 12  1  0
 12 13  1  0
 13 14  2  0
 13 15  1  0
 15 16  2  0
 16 17  1  0
 17 18  2  0
 18 19  1  0
 19 20  2  0
 20 21  1  0
 11 22  1  0
 22 23  2  0
 23  8  1  0
 20 15  1  0
  1 24  1  0
  1 25  1  0
  1 26  1  0
  9 27  1  0
 10 28  1  0
 16 29  1  0
 17 30  1  0
 18 31  1  0
 19 32  1  0
 21 33  1  0
 21 34  1  0
 21 35  1  0
 22 36  1  0
 23 37  1  0
M  CHG  2   4  -1  12  -1
M  END
>  <UniqueID>  (6) 
5

>  <SMILES>  (6) 
CC(=O)[N-]S(=O)(=O)c1ccc([N-]C(=O)c2ccccc2C)cc1

>  <Energy>  (6) 
46.05993294447033

>  <Genealogy>  (6) 
CC(=O)[N-]S(=O)(=O)c1ccc([N-]C(=O)c2ccccc2C)cc1 (protonated)
CC(=O)[N-]S(=O)(=O)c1ccc([N-]C(=O)c2ccccc2C)cc1 (3D coordinates assigned)
CC(=O)[N-]S(=O)(=O)c1ccc([N-]C(=O)c2ccccc2C)cc1 (optimized conformer: 46.05993294447033 kcal/mol)

>  <smiles>  (6) 
CC(=O)NS(=O)(=O)c1ccc(NC(=O)c2ccccc2C)cc1

>  <score_type>  (6) 
oracle

>  <origin>  (6) 
adgpu

>  <m_score__min__energy>  (6) 
-10.25

>  <m_primary>  (6) 
energy

$$$$
6:0
     RDKit          3D

 39 41  0  0  0  0  0  0  0  0999 V2000
   -9.5700   20.7280  -32.1740 C   0  0  0  0  0  0  0  0  0  0  0  0
   -8.6770   20.0050  -33.0760 N   0  0  0  0  0  0  0  0  0  0  0  0
   -7.2430   20.0150  -32.9550 C   0  0  0  0  0  0  0  0  0  0  0  0
   -6.4940   19.0240  -33.6070 C   0  0  0  0  0  0  0  0  0  0  0  0
   -5.1010   19.0130  -33.5160 C   0  0  0  0  0  0  0  0  0  0  0  0
   -4.4390   19.9900  -32.7710 C   0  0  0  0  0  0  0  0  0  0  0  0
   -5.1660   20.9880  -32.1010 C   0  0  0  0  0  0  0  0  0  0  0  0
   -4.4770   21.9970  -31.3360 N   0  0  0  0  0  0  0  0  0  0  0  0
   -4.5090   23.3300  -31.5500 C   0  0  0  0  0  0  0  0  0  0  0  0
   -3.7110   23.9320  -30.6020 C   0  0  0  0  0  0  0  0  0  0  0  0
   -3.5140   25.3020  -30.4710 O   0  0  0  0  0  0  0  0  0  0  0  0
   -3.1700   22.9950  -29.7970 N   0  0  0  0  0  0  0  0  0  0  0  0
   -2.2710   23.1970  -28.6890 C   0  0  0  0  0  0  0  0  0  0  0  0
   -1.1270   22.3970  -28.5480 C   0  0  0  0  0  0  0  0  0  0  0  0
   -0.2560   22.5910  -27.4750 C   0  0  0  0  0  0  0  0  0  0  0  0
   -0.5110   23.5880  -26.5260 C   0  0  0  0  0  0  0  0  0  0  0  0
    0.4140   23.7600  -25.4310 C   0  0  0  0  0  0  0  0  0  0  0  0
    1.1550   23.8990  -24.5540 N   0  0  0  0  0  0  0  0  0  0  0  0
   -1.6570   24.4010  -26.6540 C   0  0  0  0  0  0  0  0  0  0  0  0
   -1.9540   25.4870  -25.6530 C   0  0  0  0  0  0  0  0  0  0  0  0
   -2.5280   24.1980  -27.7390 C   0  0  0  0  0  0  0  0  0  0  0  0
   -3.6520   21.8260  -30.2750 C   0  0  0  0  0  0  0  0  0  0  0  0
   -3.3220   20.6970  -29.8180 O   0  0  0  0  0  0  0  0  0  0  0  0
   -6.5690   20.9990  -32.2040 C   0  0  0  0  0  0  0  0  0  0  0  0
   -9.2964   20.5065  -31.1318 H   0  0  0  0  0  0  0  0  0  0  0  0
   -9.4779   21.8090  -32.3555 H   0  0  0  0  0  0  0  0  0  0  0  0
  -10.6082   20.4129  -32.3555 H   0  0  0  0  0  0  0  0  0  0  0  0
   -9.1160   19.4470  -33.8440 H   0  0  0  0  0  0  0  0  0  0  0  0
   -7.0085   18.2494  -34.1946 H   0  0  0  0  0  0  0  0  0  0  0  0
   -4.5236   18.2323  -34.0328 H   0  0  0  0  0  0  0  0  0  0  0  0
   -3.3409   19.9785  -32.7080 H   0  0  0  0  0  0  0  0  0  0  0  0
   -5.0730   23.8446  -32.3419 H   0  0  0  0  0  0  0  0  0  0  0  0
   -0.9152   21.6115  -29.2883 H   0  0  0  0  0  0  0  0  0  0  0  0
    0.6368   21.9563  -27.3743 H   0  0  0  0  0  0  0  0  0  0  0  0
   -1.8445   25.0866  -24.6343 H   0  0  0  0  0  0  0  0  0  0  0  0
   -1.2508   26.3206  -25.7969 H   0  0  0  0  0  0  0  0  0  0  0  0
   -2.9835   25.8467  -25.7969 H   0  0  0  0  0  0  0  0  0  0  0  0
   -3.4213   24.8311  -27.8446 H   0  0  0  0  0  0  0  0  0  0  0  0
   -7.1461   21.7838  -31.6930 H   0  0  0  0  0  0  0  0  0  0  0  0
  1  2  1  0
  2  3  1  0
  3  4  2  0
  4  5  1  0
  5  6  2  0
  6  7  1  0
  7  8  1  0
  8  9  1  0
  9 10  2  0
 10 11  1  0
 10 12  1  0
 12 13  1  0
 13 14  2  0
 14 15  1  0
 15 16  2  0
 16 17  1  0
 17 18  3  0
 16 19  1  0
 19 20  1  0
 19 21  2  0
 12 22  1  0
 22 23  2  0
  7 24  2  0
 24  3  1  0
 22  8  1  0
 21 13  1  0
  1 25  1  0
  1 26  1  0
  1 27  1  0
  2 28  1  0
  4 29  1  0
  5 30  1  0
  6 31  1  0
  9 32  1  0
 14 33  1  0
 15 34  1  0
 20 35  1  0
 20 36  1  0
 20 37  1  0
 21 38  1  0
 24 39  1  0
M  CHG  1  11  -1
M  END
>  <UniqueID>  (7) 
6

>  <SMILES>  (7) 
CNc1cccc(-n2cc([O-])n(-c3ccc(C#N)c(C)c3)c2=O)c1

>  <Energy>  (7) 
84.1386731017346

>  <Genealogy>  (7) 
CNc1cccc(-n2cc([O-])n(-c3ccc(C#N)c(C)c3)c2=O)c1 (protonated)
CNc1cccc(-n2cc([O-])n(-c3ccc(C#N)c(C)c3)c2=O)c1 (3D coordinates assigned)
CNc1cccc(-n2cc([O-])n(-c3ccc(C#N)c(C)c3)c2=O)c1 (optimized conformer: 84.1386731017346 kcal/mol)

>  <smiles>  (7) 
CNc1cccc(-n2cc(O)n(-c3ccc(C#N)c(C)c3)c2=O)c1

>  <score_type>  (7) 
oracle

>  <origin>  (7) 
adgpu

>  <m_score__min__energy>  (7) 
-10.77

>  <m_primary>  (7) 
energy

$$$$
7:0
     RDKit          3D

 32 34  0  0  0  0  0  0  0  0999 V2000
   -0.8760   26.4030  -25.9020 C   0  0  0  0  0  0  0  0  0  0  0  0
   -1.9310   25.6570  -26.6660 C   0  0  0  0  0  0  0  0  0  0  0  0
   -3.1360   25.3000  -26.0420 C   0  0  0  0  0  0  0  0  0  0  0  0
   -4.1080   24.5790  -26.7430 C   0  0  0  0  0  0  0  0  0  0  0  0
   -3.8910   24.2100  -28.0820 C   0  0  0  0  0  0  0  0  0  0  0  0
   -4.8620   23.4460  -28.8160 N   0  0  0  0  0  0  0  0  0  0  0  0
   -5.2230   23.7110  -30.1860 C   0  0  0  0  0  0  0  0  0  0  0  0
   -4.6050   24.5980  -30.8370 O   0  0  0  0  0  0  0  0  0  0  0  0
   -6.3060   22.9550  -30.8570 C   0  0  0  0  0  0  0  0  0  0  0  0
   -7.5200   23.5880  -31.2470 C   0  0  0  0  0  0  0  0  0  0  0  0
   -8.5400   22.8540  -31.8780 C   0  0  0  0  0  0  0  0  0  0  0  0
   -8.3260   21.4980  -32.1000 C   0  0  0  0  0  0  0  0  0  0  0  0
   -7.1790   20.8820  -31.7240 C   0  0  0  0  0  0  0  0  0  0  0  0
   -6.1440   21.5690  -31.0950 C   0  0  0  0  0  0  0  0  0  0  0  0
   -7.2420   19.5440  -32.0620 O   0  0  0  0  0  0  0  0  0  0  0  0
   -8.5090   19.3060  -32.6900 C   0  0  0  0  0  0  0  0  0  0  0  0
   -9.1690   20.5800  -32.6940 O   0  0  0  0  0  0  0  0  0  0  0  0
   -2.6690   24.5330  -28.6890 C   0  0  0  0  0  0  0  0  0  0  0  0
   -1.6950   25.2540  -27.9900 C   0  0  0  0  0  0  0  0  0  0  0  0
   -0.5230   25.5540  -28.6030 F   0  0  0  0  0  0  0  0  0  0  0  0
   -1.0493   26.2805  -24.8227 H   0  0  0  0  0  0  0  0  0  0  0  0
    0.1157   26.0043  -26.1617 H   0  0  0  0  0  0  0  0  0  0  0  0
   -0.9213   27.4709  -26.1617 H   0  0  0  0  0  0  0  0  0  0  0  0
   -3.3171   25.5887  -24.9961 H   0  0  0  0  0  0  0  0  0  0  0  0
   -5.0474   24.2991  -26.2439 H   0  0  0  0  0  0  0  0  0  0  0  0
   -5.2840   22.6260  -28.3270 H   0  0  0  0  0  0  0  0  0  0  0  0
   -7.6615   24.6615  -31.0529 H   0  0  0  0  0  0  0  0  0  0  0  0
   -9.4785   23.3377  -32.1866 H   0  0  0  0  0  0  0  0  0  0  0  0
   -5.2241   21.0481  -30.7909 H   0  0  0  0  0  0  0  0  0  0  0  0
   -8.3680   18.9408  -33.7180 H   0  0  0  0  0  0  0  0  0  0  0  0
   -9.0944   18.5401  -32.1602 H   0  0  0  0  0  0  0  0  0  0  0  0
   -2.4744   24.2166  -29.7244 H   0  0  0  0  0  0  0  0  0  0  0  0
  1  2  1  0
  2  3  2  0
  3  4  1  0
  4  5  2  0
  5  6  1  0
  6  7  1  0
  7  8  2  0
  7  9  1  0
  9 10  2  0
 10 11  1  0
 11 12  2  0
 12 13  1  0
 13 14  2  0
 13 15  1  0
 15 16  1  0
 16 17  1  0
  5 18  1  0
 18 19  2  0
 19 20  1  0
 19  2  1  0
 14  9  1  0
 17 12  1  0
  1 21  1  0
  1 22  1  0
  1 23  1  0
  3 24  1  0
  4 25  1  0
  6 26  1  0
 10 27  1  0
 11 28  1  0
 14 29  1  0
 16 30  1  0
 16 31  1  0
 18 32  1  0
M  END
>  <UniqueID>  (8) 
7

>  <SMILES>  (8) 
Cc1ccc(NC(=O)c2ccc3c(c2)OCO3)cc1F

>  <Energy>  (8) 
68.52895681227173

>  <Genealogy>  (8) 
Cc1ccc(NC(=O)c2ccc3c(c2)OCO3)cc1F (3D coordinates assigned)
Cc1ccc(NC(=O)c2ccc3c(c2)OCO3)cc1F (nonaromatic ring conformer: 68.52895681227173 kcal/mol)

>  <smiles>  (8) 
Cc1ccc(NC(=O)c2ccc3c(c2)OCO3)cc1F

>  <score_type>  (8) 
oracle

>  <origin>  (8) 
adgpu

>  <m_score__min__energy>  (8) 
-6.8899999999999997

>  <m_primary>  (8) 
energy

$$$$
8:0
     RDKit          3D

 27 29  0  0  0  0  0  0  0  0999 V2000
   -4.2290   25.6190  -30.5430 O   0  0  0  0  0  0  0  0  0  0  0  0
   -4.0660   24.3710  -30.4750 C   0  0  0  0  0  0  0  0  0  0  0  0
   -4.5330   23.5830  -31.4780 N   0  0  0  0  0  0  0  0  0  0  0  0
   -4.3780   22.2340  -31.4470 C   0  0  0  0  0  0  0  0  0  0  0  0
   -4.9940   21.2340  -32.7940 S   0  0  0  0  0  0  0  0  0  0  0  0
   -6.7030   21.5000  -32.3210 C   0  0  0  0  0  0  0  0  0  0  0  0
   -7.5050   20.4140  -31.9480 C   0  0  0  0  0  0  0  0  0  0  0  0
   -8.8390   20.6220  -31.5840 C   0  0  0  0  0  0  0  0  0  0  0  0
   -9.3730   21.9150  -31.5890 C   0  0  0  0  0  0  0  0  0  0  0  0
   -8.5720   23.0010  -31.9570 C   0  0  0  0  0  0  0  0  0  0  0  0
   -7.2380   22.7940  -32.3220 C   0  0  0  0  0  0  0  0  0  0  0  0
   -3.7500   21.6430  -30.3990 N   0  0  0  0  0  0  0  0  0  0  0  0
   -3.2630   22.3820  -29.3680 C   0  0  0  0  0  0  0  0  0  0  0  0
   -2.6150   21.7540  -28.2980 C   0  0  0  0  0  0  0  0  0  0  0  0
   -2.1130   22.5160  -27.2390 C   0  0  0  0  0  0  0  0  0  0  0  0
   -2.2550   23.9070  -27.2440 C   0  0  0  0  0  0  0  0  0  0  0  0
   -1.5660   24.9400  -25.7910 Br  0  0  0  0  0  0  0  0  0  0  0  0
   -2.9010   24.5450  -28.3090 C   0  0  0  0  0  0  0  0  0  0  0  0
   -3.4090   23.7870  -29.3790 C   0  0  0  0  0  0  0  0  0  0  0  0
   -7.0854   19.3972  -31.9414 H   0  0  0  0  0  0  0  0  0  0  0  0
   -9.4690   19.7683  -31.2935 H   0  0  0  0  0  0  0  0  0  0  0  0
  -10.4228   22.0776  -31.3035 H   0  0  0  0  0  0  0  0  0  0  0  0
   -8.9914   24.0179  -31.9593 H   0  0  0  0  0  0  0  0  0  0  0  0
   -6.6083   23.6486  -32.6102 H   0  0  0  0  0  0  0  0  0  0  0  0
   -2.5007   20.6600  -28.2904 H   0  0  0  0  0  0  0  0  0  0  0  0
   -1.6047   22.0198  -26.3991 H   0  0  0  0  0  0  0  0  0  0  0  0
   -3.0114   25.6394  -28.3091 H   0  0  0  0  0  0  0  0  0  0  0  0
  1  2  2  0
  2  3  1  0
  3  4  1  0
  4  5  1  0
  5  6  1  0
  6  7  2  0
  7  8  1  0
  8  9  2  0
  9 10  1  0
 10 11  2  0
  4 12  2  0
 12 13  1  0
 13 14  2  0
 14 15  1  0
 15 16  2  0
 16 17  1  0
 16 18  1  0
 18 19  2  0
 19  2  1  0
 11  6  1  0
 19 13  1  0
  7 20  1  0
  8 21  1  0
  9 22  1  0
 10 23  1  0
 11 24  1  0
 14 25  1  0
 15 26  1  0
 18 27  1  0
M  CHG  1   3  -1
M  END
>  <UniqueID>  (9) 
8

>  <SMILES>  (9) 
O=c1[n-]c(Sc2ccccc2)nc2ccc(Br)cc12

>  <Energy>  (9) 
30.13624596324421

>  <Genealogy>  (9) 
O=c1[n-]c(Sc2ccccc2)nc2ccc(Br)cc12 (protonated)
O=c1[n-]c(Sc2ccccc2)nc2ccc(Br)cc12 (3D coordinates assigned)
O=c1[n-]c(Sc2ccccc2)nc2ccc(Br)cc12 (optimized conformer: 30.13624596324421 kcal/mol)

>  <smiles>  (9) 
O=c1[nH]c(Sc2ccccc2)nc2ccc(Br)cc12

>  <score_type>  (9) 
oracle

>  <origin>  (9) 
adgpu

>  <m_score__min__energy>  (9) 
-8.4700000000000006

>  <m_primary>  (9) 
energy

$$$$
9:0
     RDKit          3D

 56 59  0  0  0  0  0  0  0  0999 V2000
    2.3150   18.6530  -29.1220 C   0  0  0  0  0  0  0  0  0  0  0  0
    1.2500   19.3610  -29.8930 C   0  0  0  0  0  0  0  0  0  0  0  0
    0.7050   20.3860  -29.4000 O   0  0  0  0  0  0  0  0  0  0  0  0
    0.7900   18.8160  -31.1390 N   0  0  0  0  0  0  0  0  0  0  0  0
   -0.0880   19.5060  -32.0450 C   0  0  0  0  0  0  0  0  0  0  0  0
    0.3060   20.7330  -32.5910 C   0  0  0  0  0  0  0  0  0  0  0  0
   -0.5180   21.4040  -33.4370 N   0  0  0  0  0  0  0  0  0  0  0  0
   -1.7480   20.9280  -33.7670 C   0  0  0  0  0  0  0  0  0  0  0  0
   -2.2120   19.7170  -33.2270 C   0  0  0  0  0  0  0  0  0  0  0  0
   -3.5620   19.1980  -33.5670 C   0  0  0  0  0  0  0  0  0  0  0  0
   -3.7110   17.9640  -34.2260 C   0  0  0  0  0  0  0  0  0  0  0  0
   -4.9810   17.4820  -34.5500 C   0  0  0  0  0  0  0  0  0  0  0  0
   -6.1180   18.2290  -34.2310 C   0  0  0  0  0  0  0  0  0  0  0  0
   -5.9890   19.4690  -33.5880 C   0  0  0  0  0  0  0  0  0  0  0  0
   -7.1110   20.2420  -33.2540 O   0  0  0  0  0  0  0  0  0  0  0  0
   -7.1270   21.2630  -32.2920 C   0  0  0  0  0  0  0  0  0  0  0  0
   -7.9840   21.2220  -31.1770 C   0  0  0  0  0  0  0  0  0  0  0  0
   -8.0010   22.2800  -30.2660 C   0  0  0  0  0  0  0  0  0  0  0  0
   -7.1680   23.3840  -30.4550 C   0  0  0  0  0  0  0  0  0  0  0  0
   -6.2940   23.4320  -31.5560 C   0  0  0  0  0  0  0  0  0  0  0  0
   -5.4480   24.5640  -31.8020 N   0  0  0  0  0  0  0  0  0  0  0  0
   -4.7950   25.3590  -30.8050 C   0  0  0  0  0  0  0  0  0  0  0  0
   -5.3920   26.3660  -30.3440 O   0  0  0  0  0  0  0  0  0  0  0  0
   -3.4800   25.0130  -30.3480 N   0  0  0  0  0  0  0  0  0  0  0  0
   -3.0260   23.7350  -29.8780 C   0  0  0  0  0  0  0  0  0  0  0  0
   -3.3070   22.6040  -30.6520 C   0  0  0  0  0  0  0  0  0  0  0  0
   -2.8720   21.3410  -30.2460 C   0  0  0  0  0  0  0  0  0  0  0  0
   -2.1410   21.1970  -29.0630 C   0  0  0  0  0  0  0  0  0  0  0  0
   -1.7140   19.9590  -28.7030 F   0  0  0  0  0  0  0  0  0  0  0  0
   -1.8380   22.3200  -28.2730 C   0  0  0  0  0  0  0  0  0  0  0  0
   -1.0010   22.1580  -27.0250 C   0  0  0  0  0  0  0  0  0  0  0  0
   -1.3940   21.0240  -26.3360 F   0  0  0  0  0  0  0  0  0  0  0  0
    0.3290   22.0300  -27.3800 F   0  0  0  0  0  0  0  0  0  0  0  0
   -1.1340   23.2440  -26.1770 F   0  0  0  0  0  0  0  0  0  0  0  0
   -2.2610   23.5930  -28.7040 C   0  0  0  0  0  0  0  0  0  0  0  0
   -6.3020   22.3800  -32.4820 C   0  0  0  0  0  0  0  0  0  0  0  0
   -4.7170   19.9360  -33.2390 C   0  0  0  0  0  0  0  0  0  0  0  0
   -1.3660   19.0130  -32.3530 C   0  0  0  0  0  0  0  0  0  0  0  0
    2.1306   18.7756  -28.0445 H   0  0  0  0  0  0  0  0  0  0  0  0
    2.3022   17.5830  -29.3768 H   0  0  0  0  0  0  0  0  0  0  0  0
    3.2967   19.0789  -29.3768 H   0  0  0  0  0  0  0  0  0  0  0  0
    1.0400   17.8240  -31.3580 H   0  0  0  0  0  0  0  0  0  0  0  0
    1.2882   21.1562  -32.3336 H   0  0  0  0  0  0  0  0  0  0  0  0
   -2.3845   21.4953  -34.4620 H   0  0  0  0  0  0  0  0  0  0  0  0
   -2.8202   17.3742  -34.4881 H   0  0  0  0  0  0  0  0  0  0  0  0
   -5.0866   16.5118  -35.0576 H   0  0  0  0  0  0  0  0  0  0  0  0
   -7.1166   17.8437  -34.4847 H   0  0  0  0  0  0  0  0  0  0  0  0
   -8.6423   20.3543  -31.0225 H   0  0  0  0  0  0  0  0  0  0  0  0
   -8.6733   22.2434  -29.3961 H   0  0  0  0  0  0  0  0  0  0  0  0
   -7.1952   24.2196  -29.7402 H   0  0  0  0  0  0  0  0  0  0  0  0
   -3.8752   22.7107  -31.5879 H   0  0  0  0  0  0  0  0  0  0  0  0
   -3.1049   20.4573  -30.8582 H   0  0  0  0  0  0  0  0  0  0  0  0
   -1.9913   24.4841  -28.1182 H   0  0  0  0  0  0  0  0  0  0  0  0
   -5.6530   22.4316  -33.3686 H   0  0  0  0  0  0  0  0  0  0  0  0
   -4.6173   20.8908  -32.7020 H   0  0  0  0  0  0  0  0  0  0  0  0
   -1.7080   18.0677  -31.9065 H   0  0  0  0  0  0  0  0  0  0  0  0
  1  2  1  0
  2  3  2  0
  2  4  1  0
  4  5  1  0
  5  6  2  0
  6  7  1  0
  7  8  2  0
  8  9  1  0
  9 10  1  0
 10 11  2  0
 11 12  1  0
 12 13  2  0
 13 14  1  0
 14 15  1  0
 15 16  1  0
 16 17  2  0
 17 18  1  0
 18 19  2  0
 19 20  1  0
 20 21  1  0
 21 22  1  0
 22 23  2  0
 22 24  1  0
 24 25  1  0
 25 26  2  0
 26 27  1  0
 27 28  2  0
 28 29  1  0
 28 30  1  0
 30 31  1  0
 31 32  1  0
 31 33  1  0
 31 34  1  0
 30 35  2  0
 20 36  2  0
 14 37  2  0
  9 38  2  0
 38  5  1  0
 37 10  1  0
 36 16  1  0
 35 25  1  0
  1 39  1  0
  1 40  1  0
  1 41  1  0
  4 42  1  0
  6 43  1  0
  8 44  1  0
 11 45  1  0
 12 46  1  0
 13 47  1  0
 17 48  1  0
 18 49  1  0
 19 50  1  0
 26 51  1  0
 27 52  1  0
 35 53  1  0
 36 54  1  0
 37 55  1  0
 38 56  1  0
M  CHG  2  21  -1  24  -1
M  END
>  <UniqueID>  (10) 
9

>  <SMILES>  (10) 
CC(=O)Nc1cncc(-c2cccc(Oc3cccc([N-]C(=O)[N-]c4ccc(F)c(C(F)(F)F)c4)c3)c2)c1

>  <Energy>  (10) 
83.16312687789066

>  <Genealogy>  (10) 
CC(=O)Nc1cncc(-c2cccc(Oc3cccc([N-]C(=O)[N-]c4ccc(F)c(C(F)(F)F)c4)c3)c2)c1 (protonated)
CC(=O)Nc1cncc(-c2cccc(Oc3cccc([N-]C(=O)[N-]c4ccc(F)c(C(F)(F)F)c4)c3)c2)c1 (3D coordinates assigned)
CC(=O)Nc1cncc(-c2cccc(Oc3cccc([N-]C(=O)[N-]c4ccc(F)c(C(F)(F)F)c4)c3)c2)c1 (optimized conformer: 83.16312687789066 kcal/mol)

>  <smiles>  (10) 
CC(=O)Nc1cncc(-c2cccc(Oc3cccc(NC(=O)Nc4ccc(F)c(C(F)(F)F)c4)c3)c2)c1

>  <score_type>  (10) 
oracle

>  <origin>  (10) 
adgpu

>  <m_score__min__energy>  (10) 
-13.06

>  <m_primary>  (10) 
energy

$$$$
10:0
     RDKit          3D

 52 55  0  0  0  0  0  0  0  0999 V2000
   -1.1710   26.4750  -27.0300 C   0  0  0  0  0  0  0  0  0  0  0  0
   -1.6080   26.0830  -28.3270 O   0  0  0  0  0  0  0  0  0  0  0  0
   -1.5710   24.7670  -28.8150 C   0  0  0  0  0  0  0  0  0  0  0  0
   -0.5790   23.8510  -28.4180 C   0  0  0  0  0  0  0  0  0  0  0  0
   -0.5750   22.5500  -28.9250 C   0  0  0  0  0  0  0  0  0  0  0  0
   -1.5510   22.1460  -29.8440 C   0  0  0  0  0  0  0  0  0  0  0  0
   -1.5740   20.7310  -30.3520 C   0  0  0  0  0  0  0  0  0  0  0  0
   -2.8840   20.4560  -31.0110 C   0  0  0  0  0  0  0  0  0  0  0  0
   -3.1080   19.3920  -31.8100 N   0  0  0  0  0  0  0  0  0  0  0  0
   -4.4100   19.5130  -32.1310 C   0  0  0  0  0  0  0  0  0  0  0  0
   -5.1300   18.5120  -32.9410 C   0  0  0  0  0  0  0  0  0  0  0  0
   -4.9740   18.5510  -34.3360 C   0  0  0  0  0  0  0  0  0  0  0  0
   -5.6580   17.6480  -35.1510 C   0  0  0  0  0  0  0  0  0  0  0  0
   -6.5000   16.6930  -34.5830 C   0  0  0  0  0  0  0  0  0  0  0  0
   -6.6460   16.6250  -33.1950 C   0  0  0  0  0  0  0  0  0  0  0  0
   -5.9490   17.5120  -32.3580 C   0  0  0  0  0  0  0  0  0  0  0  0
   -6.1130   17.3790  -30.8670 C   0  0  0  0  0  0  0  0  0  0  0  0
   -4.9240   20.6500  -31.5250 C   0  0  0  0  0  0  0  0  0  0  0  0
   -6.2900   21.2100  -31.5990 C   0  0  0  0  0  0  0  0  0  0  0  0
   -6.5140   22.5960  -31.6820 C   0  0  0  0  0  0  0  0  0  0  0  0
   -7.8180   23.0970  -31.7520 C   0  0  0  0  0  0  0  0  0  0  0  0
   -8.9070   22.2220  -31.7270 C   0  0  0  0  0  0  0  0  0  0  0  0
   -8.6950   20.8460  -31.6230 C   0  0  0  0  0  0  0  0  0  0  0  0
   -7.3930   20.3410  -31.5540 C   0  0  0  0  0  0  0  0  0  0  0  0
   -3.9550   21.1970  -30.8320 O   0  0  0  0  0  0  0  0  0  0  0  0
   -2.5480   23.0520  -30.2340 C   0  0  0  0  0  0  0  0  0  0  0  0
   -2.5620   24.3650  -29.7250 C   0  0  0  0  0  0  0  0  0  0  0  0
   -3.5450   25.2980  -30.0960 O   0  0  0  0  0  0  0  0  0  0  0  0
   -4.9450   25.0410  -30.0850 C   0  0  0  0  0  0  0  0  0  0  0  0
   -1.7618   25.9451  -26.2683 H   0  0  0  0  0  0  0  0  0  0  0  0
   -0.1071   26.2228  -26.9098 H   0  0  0  0  0  0  0  0  0  0  0  0
   -1.3065   27.5600  -26.9098 H   0  0  0  0  0  0  0  0  0  0  0  0
    0.1979   24.1619  -27.7040 H   0  0  0  0  0  0  0  0  0  0  0  0
    0.1990   21.8388  -28.6007 H   0  0  0  0  0  0  0  0  0  0  0  0
   -0.7615   20.5904  -31.0801 H   0  0  0  0  0  0  0  0  0  0  0  0
   -1.4373   20.0382  -29.5085 H   0  0  0  0  0  0  0  0  0  0  0  0
   -4.3075   19.2991  -34.7899 H   0  0  0  0  0  0  0  0  0  0  0  0
   -5.5326   17.6898  -36.2430 H   0  0  0  0  0  0  0  0  0  0  0  0
   -7.0501   15.9922  -35.2282 H   0  0  0  0  0  0  0  0  0  0  0  0
   -7.3130   15.8698  -32.7536 H   0  0  0  0  0  0  0  0  0  0  0  0
   -5.3554   17.9934  -30.3585 H   0  0  0  0  0  0  0  0  0  0  0  0
   -7.1174   17.7208  -30.5767 H   0  0  0  0  0  0  0  0  0  0  0  0
   -5.9860   16.3256  -30.5767 H   0  0  0  0  0  0  0  0  0  0  0  0
   -5.6599   23.2891  -31.6919 H   0  0  0  0  0  0  0  0  0  0  0  0
   -7.9864   24.1815  -31.8268 H   0  0  0  0  0  0  0  0  0  0  0  0
   -9.9316   22.6174  -31.7893 H   0  0  0  0  0  0  0  0  0  0  0  0
   -9.5532   20.1584  -31.5953 H   0  0  0  0  0  0  0  0  0  0  0  0
   -7.2313   19.2567  -31.4639 H   0  0  0  0  0  0  0  0  0  0  0  0
   -3.3260   22.7342  -30.9438 H   0  0  0  0  0  0  0  0  0  0  0  0
   -5.2977   24.9762  -29.0451 H   0  0  0  0  0  0  0  0  0  0  0  0
   -5.4717   25.8575  -30.6007 H   0  0  0  0  0  0  0  0  0  0  0  0
   -5.1474   24.0907  -30.6007 H   0  0  0  0  0  0  0  0  0  0  0  0
  1  2  1  0
  2  3  1  0
  3  4  2  0
  4  5  1  0
  5  6  2  0
  6  7  1  0
  7  8  1  0
  8  9  2  0
  9 10  1  0
 10 11  1  0
 11 12  2  0
 12 13  1  0
 13 14  2  0
 14 15  1  0
 15 16  2  0
 16 17  1  0
 10 18  2  0
 18 19  1  0
 19 20  2  0
 20 21  1  0
 21 22  2  0
 22 23  1  0
 23 24  2  0
 18 25  1  0
  6 26  1  0
 26 27  2  0
 27 28  1  0
 28 29  1  0
 27  3  1  0
 25  8  1  0
 16 11  1  0
 24 19  1  0
  1 30  1  0
  1 31  1  0
  1 32  1  0
  4 33  1  0
  5 34  1  0
  7 35  1  0
  7 36  1  0
 12 37  1  0
 13 38  1  0
 14 39  1  0
 15 40  1  0
 17 41  1  0
 17 42  1  0
 17 43  1  0
 20 44  1  0
 21 45  1  0
 22 46  1  0
 23 47  1  0
 24 48  1  0
 26 49  1  0
 29 50  1  0
 29 51  1  0
 29 52  1  0
M  END
>  <UniqueID>  (11) 
10

>  <SMILES>  (11) 
COc1ccc(Cc2nc(-c3ccccc3C)c(-c3ccccc3)o2)cc1OC

>  <Energy>  (11) 
91.65171701452353

>  <Genealogy>  (11) 
COc1ccc(Cc2nc(-c3ccccc3C)c(-c3ccccc3)o2)cc1OC (3D coordinates assigned)
COc1ccc(Cc2nc(-c3ccccc3C)c(-c3ccccc3)o2)cc1OC (optimized conformer: 91.65171701452353 kcal/mol)

>  <smiles>  (11) 
COc1ccc(Cc2nc(-c3ccccc3C)c(-c3ccccc3)o2)cc1OC

>  <score_type>  (11) 
oracle

>  <origin>  (11) 
adgpu

>  <m_score__min__energy>  (11) 
-9.2100000000000009

>  <m_primary>  (11) 
energy

$$$$
11:0
     RDKit          3D

 52 55  0  0  0  0  0  0  0  0999 V2000
   -1.2130   26.4250  -24.8930 C   0  0  0  0  0  0  0  0  0  0  0  0
   -2.0160   25.8690  -26.0620 C   0  0  0  0  0  0  0  0  0  0  0  0
   -1.2050   25.8750  -27.2820 N   0  0  0  0  0  0  0  0  0  0  0  0
   -1.0180   24.2710  -27.9270 S   0  0  0  0  0  0  0  0  0  0  0  0
   -0.9960   23.2750  -26.8010 O   0  0  0  0  0  0  0  0  0  0  0  0
    0.2890   24.1850  -28.6630 O   0  0  0  0  0  0  0  0  0  0  0  0
   -2.3280   23.8990  -29.0440 C   0  0  0  0  0  0  0  0  0  0  0  0
   -2.4540   22.6210  -29.5940 C   0  0  0  0  0  0  0  0  0  0  0  0
   -3.5120   22.3290  -30.4560 C   0  0  0  0  0  0  0  0  0  0  0  0
   -4.4540   23.3130  -30.7890 C   0  0  0  0  0  0  0  0  0  0  0  0
   -5.7690   22.8720  -31.9400 S   0  0  0  0  0  0  0  0  0  0  0  0
   -4.8240   21.5230  -32.6580 C   0  0  0  0  0  0  0  0  0  0  0  0
   -3.6000   21.6890  -33.1930 N   0  0  0  0  0  0  0  0  0  0  0  0
   -3.2430   20.5250  -33.7140 N   0  0  0  0  0  0  0  0  0  0  0  0
   -4.2520   19.6600  -33.4880 C   0  0  0  0  0  0  0  0  0  0  0  0
   -4.2100   18.2460  -33.9210 C   0  0  0  0  0  0  0  0  0  0  0  0
   -3.0270   17.6720  -34.4190 C   0  0  0  0  0  0  0  0  0  0  0  0
   -3.0120   16.3360  -34.8330 C   0  0  0  0  0  0  0  0  0  0  0  0
   -4.1760   15.5670  -34.7660 C   0  0  0  0  0  0  0  0  0  0  0  0
   -5.3630   16.1350  -34.2920 C   0  0  0  0  0  0  0  0  0  0  0  0
   -6.8270   15.1730  -34.2180 Cl  0  0  0  0  0  0  0  0  0  0  0  0
   -5.3810   17.4720  -33.8760 C   0  0  0  0  0  0  0  0  0  0  0  0
   -5.2650   20.2590  -32.8190 N   0  0  0  0  0  0  0  0  0  0  0  0
   -6.5550   19.7320  -32.4790 C   0  0  0  0  0  0  0  0  0  0  0  0
   -7.7120   20.2590  -33.0730 C   0  0  0  0  0  0  0  0  0  0  0  0
   -8.9700   19.7490  -32.7370 C   0  0  0  0  0  0  0  0  0  0  0  0
   -9.0770   18.7130  -31.8030 C   0  0  0  0  0  0  0  0  0  0  0  0
   -7.9290   18.1880  -31.2040 C   0  0  0  0  0  0  0  0  0  0  0  0
   -6.6700   18.6950  -31.5410 C   0  0  0  0  0  0  0  0  0  0  0  0
   -4.3490   24.6030  -30.2150 C   0  0  0  0  0  0  0  0  0  0  0  0
   -5.4030   25.6610  -30.3980 C   0  0  0  0  0  0  0  0  0  0  0  0
   -3.2820   24.8790  -29.3450 C   0  0  0  0  0  0  0  0  0  0  0  0
   -1.6740   26.1058  -23.9467 H   0  0  0  0  0  0  0  0  0  0  0  0
   -0.1813   26.0469  -24.9441 H   0  0  0  0  0  0  0  0  0  0  0  0
   -1.2038   27.5238  -24.9441 H   0  0  0  0  0  0  0  0  0  0  0  0
   -2.3221   24.8373  -25.8344 H   0  0  0  0  0  0  0  0  0  0  0  0
   -2.9042   26.4987  -26.2187 H   0  0  0  0  0  0  0  0  0  0  0  0
   -1.7171   21.8426  -29.3469 H   0  0  0  0  0  0  0  0  0  0  0  0
   -3.6079   21.3177  -30.8781 H   0  0  0  0  0  0  0  0  0  0  0  0
   -2.1098   18.2759  -34.4833 H   0  0  0  0  0  0  0  0  0  0  0  0
   -2.0809   15.8898  -35.2124 H   0  0  0  0  0  0  0  0  0  0  0  0
   -4.1592   14.5147  -35.0860 H   0  0  0  0  0  0  0  0  0  0  0  0
   -6.3179   17.9187  -33.5118 H   0  0  0  0  0  0  0  0  0  0  0  0
   -7.6291   21.0758  -33.8052 H   0  0  0  0  0  0  0  0  0  0  0  0
   -9.8748   20.1621  -33.2068 H   0  0  0  0  0  0  0  0  0  0  0  0
  -10.0665   18.3111  -31.5397 H   0  0  0  0  0  0  0  0  0  0  0  0
   -8.0155   17.3758  -30.4672 H   0  0  0  0  0  0  0  0  0  0  0  0
   -5.7673   18.2796  -31.0693 H   0  0  0  0  0  0  0  0  0  0  0  0
   -5.7489   26.0082  -29.4132 H   0  0  0  0  0  0  0  0  0  0  0  0
   -4.9791   26.5080  -30.9573 H   0  0  0  0  0  0  0  0  0  0  0  0
   -6.2516   25.2403  -30.9573 H   0  0  0  0  0  0  0  0  0  0  0  0
   -3.1943   25.8784  -28.8938 H   0  0  0  0  0  0  0  0  0  0  0  0
  1  2  1  0
  2  3  1  0
  3  4  1  0
  4  5  2  0
  4  6  2  0
  4  7  1  0
  7  8  2  0
  8  9  1  0
  9 10  2  0
 10 11  1  0
 11 12  1  0
 12 13  2  0
 13 14  1  0
 14 15  2  0
 15 16  1  0
 16 17  2  0
 17 18  1  0
 18 19  2  0
 19 20  1  0
 20 21  1  0
 20 22  2  0
 15 23  1  0
 23 24  1  0
 24 25  2  0
 25 26  1  0
 26 27  2  0
 27 28  1  0
 28 29  2  0
 10 30  1  0
 30 31  1  0
 30 32  2  0
 32  7  1  0
 23 12  1  0
 29 24  1  0
 22 16  1  0
  1 33  1  0
  1 34  1  0
  1 35  1  0
  2 36  1  0
  2 37  1  0
  8 38  1  0
  9 39  1  0
 17 40  1  0
 18 41  1  0
 19 42  1  0
 22 43  1  0
 25 44  1  0
 26 45  1  0
 27 46  1  0
 28 47  1  0
 29 48  1  0
 31 49  1  0
 31 50  1  0
 31 51  1  0
 32 52  1  0
M  CHG  1   3  -1
M  END
>  <UniqueID>  (12) 
11

>  <SMILES>  (12) 
CC[N-]S(=O)(=O)c1ccc(Sc2nnc(-c3cccc(Cl)c3)n2-c2ccccc2)c(C)c1

>  <Energy>  (12) 
93.05614476695267

>  <Genealogy>  (12) 
CC[N-]S(=O)(=O)c1ccc(Sc2nnc(-c3cccc(Cl)c3)n2-c2ccccc2)c(C)c1 (protonated)
CC[N-]S(=O)(=O)c1ccc(Sc2nnc(-c3cccc(Cl)c3)n2-c2ccccc2)c(C)c1 (3D coordinates assigned)
CC[N-]S(=O)(=O)c1ccc(Sc2nnc(-c3cccc(Cl)c3)n2-c2ccccc2)c(C)c1 (optimized conformer: 93.05614476695267 kcal/mol)

>  <smiles>  (12) 
CCNS(=O)(=O)c1ccc(Sc2nnc(-c3cccc(Cl)c3)n2-c2ccccc2)c(C)c1

>  <score_type>  (12) 
oracle

>  <origin>  (12) 
adgpu

>  <m_score__min__energy>  (12) 
-10.619999999999999

>  <m_primary>  (12) 
energy

$$$$
12:0
     RDKit          3D

 45 47  0  0  0  0  0  0  0  0999 V2000
   -6.9840   20.5170  -32.9860 C   0  0  0  0  0  0  0  0  0  0  0  0
   -6.4480   21.7240  -32.2740 C   0  0  0  0  0  0  0  0  0  0  0  0
   -7.3280   22.6550  -31.7020 C   0  0  0  0  0  0  0  0  0  0  0  0
   -6.8290   23.7620  -31.0080 C   0  0  0  0  0  0  0  0  0  0  0  0
   -5.4450   23.9380  -30.8560 C   0  0  0  0  0  0  0  0  0  0  0  0
   -4.9100   25.1470  -30.1460 C   0  0  0  0  0  0  0  0  0  0  0  0
   -3.4870   25.0950  -30.1440 O   0  0  0  0  0  0  0  0  0  0  0  0
   -2.7080   24.7110  -29.0420 C   0  0  0  0  0  0  0  0  0  0  0  0
   -3.1540   23.7720  -28.0920 C   0  0  0  0  0  0  0  0  0  0  0  0
   -2.3400   23.4220  -27.0110 C   0  0  0  0  0  0  0  0  0  0  0  0
   -1.0750   24.0080  -26.8610 C   0  0  0  0  0  0  0  0  0  0  0  0
   -0.0340   23.5500  -25.5170 S   0  0  0  0  0  0  0  0  0  0  0  0
   -0.5640   22.2910  -24.8890 O   0  0  0  0  0  0  0  0  0  0  0  0
    1.3590   23.2840  -26.0210 O   0  0  0  0  0  0  0  0  0  0  0  0
   -0.0200   24.8320  -24.3330 N   0  0  0  0  0  0  0  0  0  0  0  0
   -1.1770   25.7180  -24.4740 C   0  0  0  0  0  0  0  0  0  0  0  0
   -0.7550   27.0760  -23.9310 C   0  0  0  0  0  0  0  0  0  0  0  0
    0.7670   27.0600  -23.9350 C   0  0  0  0  0  0  0  0  0  0  0  0
    1.1580   25.6910  -24.4730 C   0  0  0  0  0  0  0  0  0  0  0  0
   -0.6280   24.9360  -27.8090 C   0  0  0  0  0  0  0  0  0  0  0  0
   -1.4420   25.2860  -28.8900 C   0  0  0  0  0  0  0  0  0  0  0  0
   -4.5660   23.0060  -31.4290 C   0  0  0  0  0  0  0  0  0  0  0  0
   -5.0650   21.8990  -32.1230 C   0  0  0  0  0  0  0  0  0  0  0  0
   -7.3147   19.7722  -32.2471 H   0  0  0  0  0  0  0  0  0  0  0  0
   -7.8360   20.8114  -33.6164 H   0  0  0  0  0  0  0  0  0  0  0  0
   -6.1943   20.0824  -33.6164 H   0  0  0  0  0  0  0  0  0  0  0  0
   -8.4145   22.5138  -31.7997 H   0  0  0  0  0  0  0  0  0  0  0  0
   -7.5247   24.4983  -30.5792 H   0  0  0  0  0  0  0  0  0  0  0  0
   -5.2445   26.0571  -30.6654 H   0  0  0  0  0  0  0  0  0  0  0  0
   -5.2815   25.1632  -29.1108 H   0  0  0  0  0  0  0  0  0  0  0  0
   -4.1472   23.3120  -28.2011 H   0  0  0  0  0  0  0  0  0  0  0  0
   -2.6930   22.6843  -26.2754 H   0  0  0  0  0  0  0  0  0  0  0  0
   -0.0250   24.4040  -23.3760 H   0  0  0  0  0  0  0  0  0  0  0  0
   -1.4616   25.8047  -25.5330 H   0  0  0  0  0  0  0  0  0  0  0  0
   -2.0462   25.3249  -23.9262 H   0  0  0  0  0  0  0  0  0  0  0  0
   -1.1327   27.8825  -24.5766 H   0  0  0  0  0  0  0  0  0  0  0  0
   -1.1587   27.2563  -22.9238 H   0  0  0  0  0  0  0  0  0  0  0  0
    1.1581   27.8552  -24.5867 H   0  0  0  0  0  0  0  0  0  0  0  0
    1.1796   27.2368  -22.9307 H   0  0  0  0  0  0  0  0  0  0  0  0
    1.4474   25.7681  -25.5314 H   0  0  0  0  0  0  0  0  0  0  0  0
    2.0160   25.2792  -23.9213 H   0  0  0  0  0  0  0  0  0  0  0  0
    0.3676   25.3915  -27.7028 H   0  0  0  0  0  0  0  0  0  0  0  0
   -1.0841   26.0197  -29.6273 H   0  0  0  0  0  0  0  0  0  0  0  0
   -3.4794   23.1468  -31.3318 H   0  0  0  0  0  0  0  0  0  0  0  0
   -4.3696   21.1626  -32.5521 H   0  0  0  0  0  0  0  0  0  0  0  0
  1  2  1  0
  2  3  2  0
  3  4  1  0
  4  5  2  0
  5  6  1  0
  6  7  1  0
  7  8  1  0
  8  9  2  0
  9 10  1  0
 10 11  2  0
 11 12  1  0
 12 13  2  0
 12 14  2  0
 12 15  1  0
 15 16  1  0
 16 17  1  0
 17 18  1  0
 18 19  1  0
 11 20  1  0
 20 21  2  0
  5 22  1  0
 22 23  2  0
 23  2  1  0
 21  8  1  0
 19 15  1  0
  1 24  1  0
  1 25  1  0
  1 26  1  0
  3 27  1  0
  4 28  1  0
  6 29  1  0
  6 30  1  0
  9 31  1  0
 10 32  1  0
 15 33  1  0
 16 34  1  0
 16 35  1  0
 17 36  1  0
 17 37  1  0
 18 38  1  0
 18 39  1  0
 19 40  1  0
 19 41  1  0
 20 42  1  0
 21 43  1  0
 22 44  1  0
 23 45  1  0
M  CHG  1  15   1
M  END
>  <UniqueID>  (13) 
12

>  <SMILES>  (13) 
Cc1ccc(COc2ccc(S(=O)(=O)[NH+]3CCCC3)cc2)cc1

>  <Energy>  (13) 
44.82633458212934

>  <Genealogy>  (13) 
Cc1ccc(COc2ccc(S(=O)(=O)[NH+]3CCCC3)cc2)cc1 (protonated)
Cc1ccc(COc2ccc(S(=O)(=O)[NH+]3CCCC3)cc2)cc1 (3D coordinates assigned)
Cc1ccc(COc2ccc(S(=O)(=O)[NH+]3CCCC3)cc2)cc1 (nonaromatic ring conformer: 44.82633458212934 kcal/mol)

>  <smiles>  (13) 
Cc1ccc(COc2ccc(S(=O)(=O)N3CCCC3)cc2)cc1

>  <score_type>  (13) 
oracle

>  <origin>  (13) 
adgpu

>  <m_score__min__energy>  (13) 
-8.4900000000000002

>  <m_primary>  (13) 
energy

$$$$
13:0
     RDKit          3D

 53 56  0  0  0  0  0  0  0  0999 V2000
    1.9560   19.6530  -28.1010 C   0  0  0  0  0  0  0  0  0  0  0  0
    0.5930   20.0500  -27.9920 O   0  0  0  0  0  0  0  0  0  0  0  0
   -0.2800   20.1970  -29.0830 C   0  0  0  0  0  0  0  0  0  0  0  0
    0.1880   20.3080  -30.4080 C   0  0  0  0  0  0  0  0  0  0  0  0
   -0.7130   20.5070  -31.4600 C   0  0  0  0  0  0  0  0  0  0  0  0
   -2.0860   20.5980  -31.2040 C   0  0  0  0  0  0  0  0  0  0  0  0
   -3.2060   21.0720  -32.4820 S   0  0  0  0  0  0  0  0  0  0  0  0
   -2.5280   21.0340  -33.8240 O   0  0  0  0  0  0  0  0  0  0  0  0
   -4.3710   20.1210  -32.4860 O   0  0  0  0  0  0  0  0  0  0  0  0
   -3.7780   22.6820  -32.1780 N   0  0  0  0  0  0  0  0  0  0  0  0
   -3.9420   23.2450  -30.8680 C   0  0  0  0  0  0  0  0  0  0  0  0
   -2.8370   23.6830  -30.1190 C   0  0  0  0  0  0  0  0  0  0  0  0
   -2.9900   24.0890  -28.7850 C   0  0  0  0  0  0  0  0  0  0  0  0
   -1.8010   24.3900  -27.9580 C   0  0  0  0  0  0  0  0  0  0  0  0
   -1.4860   23.5580  -26.8690 C   0  0  0  0  0  0  0  0  0  0  0  0
   -0.3340   23.7880  -26.1110 C   0  0  0  0  0  0  0  0  0  0  0  0
    0.5130   24.8500  -26.4320 C   0  0  0  0  0  0  0  0  0  0  0  0
    0.2090   25.6860  -27.5110 C   0  0  0  0  0  0  0  0  0  0  0  0
   -0.9410   25.4620  -28.2770 C   0  0  0  0  0  0  0  0  0  0  0  0
   -1.2290   26.3130  -29.3390 O   0  0  0  0  0  0  0  0  0  0  0  0
   -4.2760   24.1240  -28.2210 C   0  0  0  0  0  0  0  0  0  0  0  0
   -5.3870   23.7530  -28.9820 C   0  0  0  0  0  0  0  0  0  0  0  0
   -5.2260   23.3040  -30.2980 C   0  0  0  0  0  0  0  0  0  0  0  0
   -6.3720   22.8420  -31.0250 N   0  0  0  0  0  0  0  0  0  0  0  0
   -7.5420   23.7150  -31.1360 C   0  0  0  0  0  0  0  0  0  0  0  0
   -8.3800   23.3000  -32.3470 C   0  0  0  0  0  0  0  0  0  0  0  0
   -8.6680   21.9150  -32.3100 O   0  0  0  0  0  0  0  0  0  0  0  0
   -7.4700   21.1730  -32.4420 C   0  0  0  0  0  0  0  0  0  0  0  0
   -6.5470   21.4050  -31.2410 C   0  0  0  0  0  0  0  0  0  0  0  0
   -2.5580   20.4490  -29.8940 C   0  0  0  0  0  0  0  0  0  0  0  0
   -1.6600   20.2490  -28.8380 C   0  0  0  0  0  0  0  0  0  0  0  0
   -2.2820   20.1150  -27.2000 Cl  0  0  0  0  0  0  0  0  0  0  0  0
    2.3832   19.5286  -27.0950 H   0  0  0  0  0  0  0  0  0  0  0  0
    2.0177   18.6996  -28.6461 H   0  0  0  0  0  0  0  0  0  0  0  0
    2.5201   20.4242  -28.6461 H   0  0  0  0  0  0  0  0  0  0  0  0
    1.2659   20.2379  -30.6159 H   0  0  0  0  0  0  0  0  0  0  0  0
   -0.3409   20.5922  -32.4917 H   0  0  0  0  0  0  0  0  0  0  0  0
   -1.8404   23.7079  -30.5840 H   0  0  0  0  0  0  0  0  0  0  0  0
   -2.1507   22.7202  -26.6117 H   0  0  0  0  0  0  0  0  0  0  0  0
   -0.0950   23.1317  -25.2612 H   0  0  0  0  0  0  0  0  0  0  0  0
    1.4200   25.0294  -25.8360 H   0  0  0  0  0  0  0  0  0  0  0  0
    0.8770   26.5240  -27.7591 H   0  0  0  0  0  0  0  0  0  0  0  0
   -4.4085   24.4445  -27.1771 H   0  0  0  0  0  0  0  0  0  0  0  0
   -6.3944   23.8140  -28.5445 H   0  0  0  0  0  0  0  0  0  0  0  0
   -8.1502   23.6295  -30.2235 H   0  0  0  0  0  0  0  0  0  0  0  0
   -7.2099   24.7561  -31.2615 H   0  0  0  0  0  0  0  0  0  0  0  0
   -9.3241   23.8646  -32.3424 H   0  0  0  0  0  0  0  0  0  0  0  0
   -7.8080   23.5161  -33.2614 H   0  0  0  0  0  0  0  0  0  0  0  0
   -7.7148   20.1025  -32.5064 H   0  0  0  0  0  0  0  0  0  0  0  0
   -6.9505   21.5042  -33.3532 H   0  0  0  0  0  0  0  0  0  0  0  0
   -6.9934   20.9518  -30.3436 H   0  0  0  0  0  0  0  0  0  0  0  0
   -5.5681   20.9440  -31.4389 H   0  0  0  0  0  0  0  0  0  0  0  0
   -3.6388   20.4892  -29.6935 H   0  0  0  0  0  0  0  0  0  0  0  0
  1  2  1  0
  2  3  1  0
  3  4  2  0
  4  5  1  0
  5  6  2  0
  6  7  1  0
  7  8  2  0
  7  9  2  0
  7 10  1  0
 10 11  1  0
 11 12  2  0
 12 13  1  0
 13 14  1  0
 14 15  2  0
 15 16  1  0
 16 17  2  0
 17 18  1  0
 18 19  2  0
 19 20  1  0
 13 21  2  0
 21 22  1  0
 22 23  2  0
 23 24  1  0
 24 25  1  0
 25 26  1  0
 26 27  1  0
 27 28  1  0
 28 29  1  0
  6 30  1  0
 30 31  2  0
 31 32  1  0
 31  3  1  0
 23 11  1  0
 29 24  1  0
 19 14  1  0
  1 33  1  0
  1 34  1  0
  1 35  1  0
  4 36  1  0
  5 37  1  0
 12 38  1  0
 15 39  1  0
 16 40  1  0
 17 41  1  0
 18 42  1  0
 21 43  1  0
 22 44  1  0
 25 45  1  0
 25 46  1  0
 26 47  1  0
 26 48  1  0
 28 49  1  0
 28 50  1  0
 29 51  1  0
 29 52  1  0
 30 53  1  0
M  CHG  2  10  -1  20  -1
M  END
>  <UniqueID>  (14) 
13

>  <SMILES>  (14) 
COc1ccc(S(=O)(=O)[N-]c2cc(-c3ccccc3[O-])ccc2N2CCOCC2)cc1Cl

>  <Energy>  (14) 
72.18742506314294

>  <Genealogy>  (14) 
COc1ccc(S(=O)(=O)[N-]c2cc(-c3ccccc3[O-])ccc2N2CCOCC2)cc1Cl (protonated)
COc1ccc(S(=O)(=O)[N-]c2cc(-c3ccccc3[O-])ccc2N2CCOCC2)cc1Cl (3D coordinates assigned)
COc1ccc(S(=O)(=O)[N-]c2cc(-c3ccccc3[O-])ccc2N2CCOCC2)cc1Cl (nonaromatic ring conformer: 72.18742506314294 kcal/mol)

>  <smiles>  (14) 
COc1ccc(S(=O)(=O)Nc2cc(-c3ccccc3O)ccc2N2CCOCC2)cc1Cl

>  <score_type>  (14) 
oracle

>  <origin>  (14) 
adgpu

>  <m_score__min__energy>  (14) 
-12.859999999999999

>  <m_primary>  (14) 
energy

$$$$
14:0
     RDKit          3D

 31 33  0  0  0  0  0  0  0  0999 V2000
   -8.1219   23.2111  -31.8629 H   0  0  0  0  0  0  0  0  0  0  0  0
   -7.1740   23.5670  -31.4330 C   0  0  0  0  0  0  0  0  0  0  0  0
   -7.1810   24.5680  -30.4570 C   0  0  0  0  0  0  0  0  0  0  0  0
   -8.1353   24.9926  -30.1119 H   0  0  0  0  0  0  0  0  0  0  0  0
   -5.9750   25.0300  -29.9190 C   0  0  0  0  0  0  0  0  0  0  0  0
   -5.9840   25.8072  -29.1406 H   0  0  0  0  0  0  0  0  0  0  0  0
   -4.7490   24.5030  -30.3710 C   0  0  0  0  0  0  0  0  0  0  0  0
   -3.4880   24.9240  -29.8200 N   0  0  0  0  0  0  0  0  0  0  0  0
   -2.5630   24.1610  -29.3080 C   0  0  0  0  0  0  0  0  0  0  0  0
   -2.7610   22.8280  -29.1620 N   0  0  0  0  0  0  0  0  0  0  0  0
   -1.8210   22.0230  -28.6110 C   0  0  0  0  0  0  0  0  0  0  0  0
   -2.0710   20.6520  -28.4910 C   0  0  0  0  0  0  0  0  0  0  0  0
   -3.0260   20.2352  -28.8434 H   0  0  0  0  0  0  0  0  0  0  0  0
   -1.1110   19.8120  -27.9250 C   0  0  0  0  0  0  0  0  0  0  0  0
   -1.3099   18.7342  -27.8313 H   0  0  0  0  0  0  0  0  0  0  0  0
    0.1010   20.3390  -27.4780 C   0  0  0  0  0  0  0  0  0  0  0  0
    0.8555   19.6739  -27.0326 H   0  0  0  0  0  0  0  0  0  0  0  0
    0.3620   21.7080  -27.5930 C   0  0  0  0  0  0  0  0  0  0  0  0
    1.3212   22.1121  -27.2373 H   0  0  0  0  0  0  0  0  0  0  0  0
   -0.5990   22.5790  -28.1640 C   0  0  0  0  0  0  0  0  0  0  0  0
   -0.3850   23.9360  -28.2940 N   0  0  0  0  0  0  0  0  0  0  0  0
    0.8790   24.5430  -27.8300 C   0  0  0  0  0  0  0  0  0  0  0  0
    0.8991   24.5526  -26.7302 H   0  0  0  0  0  0  0  0  0  0  0  0
    1.7284   23.9546  -28.2071 H   0  0  0  0  0  0  0  0  0  0  0  0
    0.9508   25.5738  -28.2071 H   0  0  0  0  0  0  0  0  0  0  0  0
   -1.3600   24.7290  -28.8590 C   0  0  0  0  0  0  0  0  0  0  0  0
   -1.1870   25.9740  -28.9820 O   0  0  0  0  0  0  0  0  0  0  0  0
   -4.7570   23.4780  -31.3250 C   0  0  0  0  0  0  0  0  0  0  0  0
   -3.8074   23.0309  -31.6541 H   0  0  0  0  0  0  0  0  0  0  0  0
   -5.9630   23.0190  -31.8620 C   0  0  0  0  0  0  0  0  0  0  0  0
   -5.9584   22.2252  -32.6235 H   0  0  0  0  0  0  0  0  0  0  0  0
  1  2  1  0
  2  3  2  0
  3  4  1  0
  3  5  1  0
  5  6  1  0
  5  7  2  0
  7  8  1  0
  8  9  2  0
  9 10  1  0
 10 11  1  0
 11 12  2  0
 12 13  1  0
 12 14  1  0
 14 15  1  0
 14 16  2  0
 16 17  1  0
 16 18  1  0
 18 19  1  0
 18 20  2  0
 20 21  1  0
 21 22  1  0
 22 23  1  0
 22 24  1  0
 22 25  1  0
 21 26  1  0
 26 27  2  0
  7 28  1  0
 28 29  1  0
 28 30  2  0
 30 31  1  0
 30  2  1  0
 26  9  1  0
 20 11  1  0
M  CHG  1  10  -1
M  END
>  <UniqueID>  (15) 
14

>  <SMILES>  (15) 
Cn1c(=O)/c(=N/c2ccccc2)[n-]c2ccccc21

>  <Energy>  (15) 
50.52727620847179

>  <Genealogy>  (15) 
Cn1c(=O)c(=Nc2ccccc2)[n-]c2ccccc21 (protonated)
Cn1c(=O)/c(=N/c2ccccc2)[n-]c2ccccc21 (cis-trans isomerization)
Cn1c(=O)/c(=N/c2ccccc2)[n-]c2ccccc21 (3D coordinates assigned)
Cn1c(=O)/c(=N/c2ccccc2)[n-]c2ccccc21 (optimized conformer: 50.52727620847179 kcal/mol)

>  <smiles>  (15) 
Cn1c(=O)c(=Nc2ccccc2)[nH]c2ccccc21

>  <score_type>  (15) 
oracle

>  <origin>  (15) 
adgpu

>  <m_score__min__energy>  (15) 
-7.71

>  <m_primary>  (15) 
energy

$$$$
15:0
     RDKit          3D

 58 62  0  0  0  0  0  0  0  0999 V2000
   -3.5236   12.7788  -34.9743 H   0  0  0  0  0  0  0  0  0  0  0  0
   -4.0380   13.7290  -34.7680 C   0  0  0  0  0  0  0  0  0  0  0  0
   -3.3340   14.9340  -34.8370 C   0  0  0  0  0  0  0  0  0  0  0  0
   -2.2659   14.9315  -35.1002 H   0  0  0  0  0  0  0  0  0  0  0  0
   -3.9850   16.1440  -34.5720 C   0  0  0  0  0  0  0  0  0  0  0  0
   -3.4274   17.0904  -34.6307 H   0  0  0  0  0  0  0  0  0  0  0  0
   -5.3490   16.1550  -34.2310 C   0  0  0  0  0  0  0  0  0  0  0  0
   -6.0250   17.3980  -33.9640 N   0  0  0  0  0  0  0  0  0  0  0  0
   -5.4900   18.6630  -34.4770 C   0  0  0  0  0  0  0  0  0  0  0  0
   -6.1755   19.0708  -35.2345 H   0  0  0  0  0  0  0  0  0  0  0  0
   -4.5041   18.4868  -34.9319 H   0  0  0  0  0  0  0  0  0  0  0  0
   -5.3500   19.6600  -33.3270 C   0  0  0  0  0  0  0  0  0  0  0  0
   -5.1419   20.6574  -33.7417 H   0  0  0  0  0  0  0  0  0  0  0  0
   -4.5263   19.3263  -32.6787 H   0  0  0  0  0  0  0  0  0  0  0  0
   -6.5810   19.7250  -32.5160 N   0  0  0  0  0  0  0  0  0  0  0  0
   -6.7540   20.8060  -31.5760 C   0  0  0  0  0  0  0  0  0  0  0  0
   -7.9130   21.1470  -31.2120 O   0  0  0  0  0  0  0  0  0  0  0  0
   -5.5920   21.5280  -31.0140 C   0  0  0  0  0  0  0  0  0  0  0  0
   -4.3710   20.8590  -30.9360 C   0  0  0  0  0  0  0  0  0  0  0  0
   -4.2824   19.8406  -31.3423 H   0  0  0  0  0  0  0  0  0  0  0  0
   -3.2910   21.4490  -30.3650 N   0  0  0  0  0  0  0  0  0  0  0  0
   -2.4180   20.8800  -30.2760 H   0  0  0  0  0  0  0  0  0  0  0  0
   -3.3380   22.6940  -29.8150 C   0  0  0  0  0  0  0  0  0  0  0  0
   -2.3080   23.0610  -29.0950 N   0  0  0  0  0  0  0  0  0  0  0  0
   -2.1770   24.1220  -28.1390 C   0  0  0  0  0  0  0  0  0  0  0  0
   -3.1230   24.2900  -27.1140 C   0  0  0  0  0  0  0  0  0  0  0  0
   -4.0032   23.6319  -27.0668 H   0  0  0  0  0  0  0  0  0  0  0  0
   -2.9490   25.2910  -26.1540 C   0  0  0  0  0  0  0  0  0  0  0  0
   -3.7011   25.4304  -25.3635 H   0  0  0  0  0  0  0  0  0  0  0  0
   -1.8210   26.1150  -26.1970 C   0  0  0  0  0  0  0  0  0  0  0  0
   -1.6869   26.9009  -25.4391 H   0  0  0  0  0  0  0  0  0  0  0  0
   -0.8590   25.9430  -27.2040 C   0  0  0  0  0  0  0  0  0  0  0  0
    0.3760   26.7940  -27.2200 C   0  0  0  0  0  0  0  0  0  0  0  0
    0.6870   27.0083  -26.1869 H   0  0  0  0  0  0  0  0  0  0  0  0
    1.1830   26.2593  -27.7424 H   0  0  0  0  0  0  0  0  0  0  0  0
    0.1637   27.7385  -27.7424 H   0  0  0  0  0  0  0  0  0  0  0  0
   -1.0290   24.9240  -28.1570 C   0  0  0  0  0  0  0  0  0  0  0  0
   -0.2560   24.7555  -28.9213 H   0  0  0  0  0  0  0  0  0  0  0  0
   -4.5080   23.4920  -30.0250 C   0  0  0  0  0  0  0  0  0  0  0  0
   -4.5380   24.8930  -29.8220 C   0  0  0  0  0  0  0  0  0  0  0  0
   -3.6208   25.4145  -29.5109 H   0  0  0  0  0  0  0  0  0  0  0  0
   -5.7110   25.6220  -30.0100 C   0  0  0  0  0  0  0  0  0  0  0  0
   -5.7237   26.7026  -29.8048 H   0  0  0  0  0  0  0  0  0  0  0  0
   -6.8650   24.9880  -30.4560 C   0  0  0  0  0  0  0  0  0  0  0  0
   -7.7981   25.5599  -30.5673 H   0  0  0  0  0  0  0  0  0  0  0  0
   -6.8410   23.6300  -30.7620 C   0  0  0  0  0  0  0  0  0  0  0  0
   -7.7489   23.1431  -31.1474 H   0  0  0  0  0  0  0  0  0  0  0  0
   -5.6640   22.8710  -30.5830 C   0  0  0  0  0  0  0  0  0  0  0  0
   -7.7100   18.8330  -32.8210 C   0  0  0  0  0  0  0  0  0  0  0  0
   -8.2402   19.2124  -33.7070 H   0  0  0  0  0  0  0  0  0  0  0  0
   -8.3846   18.8084  -31.9525 H   0  0  0  0  0  0  0  0  0  0  0  0
   -7.2170   17.4060  -33.1020 C   0  0  0  0  0  0  0  0  0  0  0  0
   -8.0203   16.8438  -33.6005 H   0  0  0  0  0  0  0  0  0  0  0  0
   -6.9466   16.9431  -32.1415 H   0  0  0  0  0  0  0  0  0  0  0  0
   -6.0510   14.9380  -34.1700 C   0  0  0  0  0  0  0  0  0  0  0  0
   -7.1202   14.9348  -33.9113 H   0  0  0  0  0  0  0  0  0  0  0  0
   -5.3950   13.7310  -34.4370 C   0  0  0  0  0  0  0  0  0  0  0  0
   -5.9491   12.7821  -34.3861 H   0  0  0  0  0  0  0  0  0  0  0  0
  1  2  1  0
  2  3  2  0
  3  4  1  0
  3  5  1  0
  5  6  1  0
  5  7  2  0
  7  8  1  0
  8  9  1  0
  9 10  1  0
  9 11  1  0
  9 12  1  0
 12 13  1  0
 12 14  1  0
 12 15  1  0
 15 16  1  0
 16 17  2  0
 16 18  1  0
 18 19  2  0
 19 20  1  0
 19 21  1  0
 21 22  1  0
 21 23  1  0
 23 24  2  0
 24 25  1  0
 25 26  2  0
 26 27  1  0
 26 28  1  0
 28 29  1  0
 28 30  2  0
 30 31  1  0
 30 32  1  0
 32 33  1  0
 33 34  1  0
 33 35  1  0
 33 36  1  0
 32 37  2  0
 37 38  1  0
 23 39  1  0
 39 40  2  0
 40 41  1  0
 40 42  1  0
 42 43  1  0
 42 44  2  0
 44 45  1  0
 44 46  1  0
 46 47  1  0
 46 48  2  0
 15 49  1  0
 49 50  1  0
 49 51  1  0
 49 52  1  0
 52 53  1  0
 52 54  1  0
  7 55  1  0
 55 56  1  0
 55 57  2  0
 57 58  1  0
 57  2  1  0
 52  8  1  0
 48 18  1  0
 37 25  1  0
 48 39  1  0
M  END
>  <UniqueID>  (16) 
15

>  <SMILES>  (16) 
Cc1cccc(/N=c2/[nH]cc(C(=O)N3CCN(c4ccccc4)CC3)c3ccccc23)c1

>  <Energy>  (16) 
99.90090992730072

>  <Genealogy>  (16) 
Cc1cccc(/N=c2/[nH]cc(C(=O)N3CCN(c4ccccc4)CC3)c3ccccc23)c1 (cis-trans isomerization)
Cc1cccc(/N=c2/[nH]cc(C(=O)N3CCN(c4ccccc4)CC3)c3ccccc23)c1 (3D coordinates assigned)
Cc1cccc(/N=c2/[nH]cc(C(=O)N3CCN(c4ccccc4)CC3)c3ccccc23)c1 (nonaromatic ring conformer: 99.90090992730072 kcal/mol)

>  <smiles>  (16) 
Cc1cccc(N=c2[nH]cc(C(=O)N3CCN(c4ccccc4)CC3)c3ccccc23)c1

>  <score_type>  (16) 
oracle

>  <origin>  (16) 
adgpu

>  <m_score__min__energy>  (16) 
-10.17

>  <m_primary>  (16) 
energy

$$$$
16:0
     RDKit          3D

 30 31  0  0  0  0  0  0  0  0999 V2000
   -2.9430   21.4280  -33.7790 O   0  0  0  0  0  0  0  0  0  0  0  0
   -3.4890   20.9270  -32.7590 C   0  0  0  0  0  0  0  0  0  0  0  0
   -2.6750   20.4620  -31.6740 N   0  0  0  0  0  0  0  0  0  0  0  0
   -2.9600   20.7390  -30.2710 C   0  0  0  0  0  0  0  0  0  0  0  0
   -2.5900   22.1580  -29.9330 C   0  0  0  0  0  0  0  0  0  0  0  0
   -1.4660   22.4340  -29.1380 C   0  0  0  0  0  0  0  0  0  0  0  0
   -1.1410   23.7540  -28.8110 C   0  0  0  0  0  0  0  0  0  0  0  0
   -1.9370   24.8080  -29.2730 C   0  0  0  0  0  0  0  0  0  0  0  0
   -1.6080   26.1170  -28.9440 O   0  0  0  0  0  0  0  0  0  0  0  0
   -3.0620   24.5400  -30.0620 C   0  0  0  0  0  0  0  0  0  0  0  0
   -3.8570   25.5830  -30.5200 O   0  0  0  0  0  0  0  0  0  0  0  0
   -3.3880   23.2200  -30.3900 C   0  0  0  0  0  0  0  0  0  0  0  0
   -4.9650   20.8230  -32.6810 C   0  0  0  0  0  0  0  0  0  0  0  0
   -5.7410   21.9370  -32.3140 C   0  0  0  0  0  0  0  0  0  0  0  0
   -7.1330   21.8400  -32.2440 C   0  0  0  0  0  0  0  0  0  0  0  0
   -7.7820   20.6290  -32.5400 C   0  0  0  0  0  0  0  0  0  0  0  0
   -9.2170   20.5270  -32.4700 N   0  0  0  0  0  0  0  0  0  0  0  0
   -9.8030   19.5040  -32.8790 O   0  0  0  0  0  0  0  0  0  0  0  0
   -9.9660   21.5560  -31.9460 O   0  0  0  0  0  0  0  0  0  0  0  0
   -7.0080   19.5170  -32.9080 C   0  0  0  0  0  0  0  0  0  0  0  0
   -5.6140   19.6120  -32.9770 C   0  0  0  0  0  0  0  0  0  0  0  0
   -4.0333   20.5891  -30.0823 H   0  0  0  0  0  0  0  0  0  0  0  0
   -2.3681   20.0559  -29.6441 H   0  0  0  0  0  0  0  0  0  0  0  0
   -0.8386   21.6084  -28.7710 H   0  0  0  0  0  0  0  0  0  0  0  0
   -0.2581   23.9643  -28.1895 H   0  0  0  0  0  0  0  0  0  0  0  0
   -4.2735   23.0124  -31.0088 H   0  0  0  0  0  0  0  0  0  0  0  0
   -5.2481   22.8922  -32.0802 H   0  0  0  0  0  0  0  0  0  0  0  0
   -7.7266   22.7197  -31.9545 H   0  0  0  0  0  0  0  0  0  0  0  0
   -7.5019   18.5629  -33.1441 H   0  0  0  0  0  0  0  0  0  0  0  0
   -5.0209   18.7316  -33.2653 H   0  0  0  0  0  0  0  0  0  0  0  0
  1  2  2  0
  2  3  1  0
  3  4  1  0
  4  5  1  0
  5  6  2  0
  6  7  1  0
  7  8  2  0
  8  9  1  0
  8 10  1  0
 10 11  1  0
 10 12  2  0
  2 13  1  0
 13 14  2  0
 14 15  1  0
 15 16  2  0
 16 17  1  0
 17 18  2  0
 17 19  1  0
 16 20  1  0
 20 21  2  0
 12  5  1  0
 21 13  1  0
  4 22  1  0
  4 23  1  0
  6 24  1  0
  7 25  1  0
 12 26  1  0
 14 27  1  0
 15 28  1  0
 20 29  1  0
 21 30  1  0
M  CHG  5   3  -1   9  -1  11  -1  17   1  19  -1
M  END
>  <UniqueID>  (17) 
16

>  <SMILES>  (17) 
O=C([N-]Cc1ccc([O-])c([O-])c1)c1ccc([N+](=O)[O-])cc1

>  <Energy>  (17) 
30.866510673592135

>  <Genealogy>  (17) 
O=C([N-]Cc1ccc([O-])c([O-])c1)c1ccc([N+](=O)[O-])cc1 (protonated)
O=C([N-]Cc1ccc([O-])c([O-])c1)c1ccc([N+](=O)[O-])cc1 (3D coordinates assigned)
O=C([N-]Cc1ccc([O-])c([O-])c1)c1ccc([N+](=O)[O-])cc1 (optimized conformer: 30.866510673592135 kcal/mol)

>  <smiles>  (17) 
O=C(NCc1ccc(O)c(O)c1)c1ccc([N+](=O)[O-])cc1

>  <score_type>  (17) 
oracle

>  <origin>  (17) 
adgpu

>  <m_score__min__energy>  (17) 
-12.98

>  <m_primary>  (17) 
energy

$$$$
17:0
     RDKit          3D

 48 50  0  0  0  0  0  0  0  0999 V2000
    0.2780   23.0180  -24.4970 C   0  0  0  0  0  0  0  0  0  0  0  0
   -0.4910   24.2030  -25.0040 C   0  0  0  0  0  0  0  0  0  0  0  0
   -0.2200   25.4880  -24.5130 C   0  0  0  0  0  0  0  0  0  0  0  0
   -0.8990   26.6020  -25.0270 C   0  0  0  0  0  0  0  0  0  0  0  0
   -0.6340   27.9710  -24.4700 C   0  0  0  0  0  0  0  0  0  0  0  0
   -1.8750   26.4220  -26.0190 C   0  0  0  0  0  0  0  0  0  0  0  0
   -2.1620   25.1370  -26.5140 C   0  0  0  0  0  0  0  0  0  0  0  0
   -3.1320   24.9340  -27.5560 N   0  0  0  0  0  0  0  0  0  0  0  0
   -2.7990   24.5420  -28.9000 C   0  0  0  0  0  0  0  0  0  0  0  0
   -1.6380   24.7600  -29.3440 O   0  0  0  0  0  0  0  0  0  0  0  0
   -3.8180   23.9310  -29.7890 C   0  0  0  0  0  0  0  0  0  0  0  0
   -3.4880   22.8620  -30.6410 C   0  0  0  0  0  0  0  0  0  0  0  0
   -4.4550   22.2960  -31.4780 C   0  0  0  0  0  0  0  0  0  0  0  0
   -5.7720   22.7900  -31.4810 C   0  0  0  0  0  0  0  0  0  0  0  0
   -6.7810   22.2530  -32.2970 O   0  0  0  0  0  0  0  0  0  0  0  0
   -6.6620   21.0640  -33.0790 C   0  0  0  0  0  0  0  0  0  0  0  0
   -7.5510   19.9750  -32.5450 C   0  0  0  0  0  0  0  0  0  0  0  0
   -8.7030   20.1100  -31.7930 C   0  0  0  0  0  0  0  0  0  0  0  0
   -9.3740   21.3870  -31.4020 C   0  0  0  0  0  0  0  0  0  0  0  0
   -9.1820   18.8880  -31.4850 N   0  0  0  0  0  0  0  0  0  0  0  0
   -8.3600   18.0170  -31.9950 O   0  0  0  0  0  0  0  0  0  0  0  0
   -7.3690   18.6070  -32.6250 C   0  0  0  0  0  0  0  0  0  0  0  0
   -6.2650   17.8810  -33.3180 C   0  0  0  0  0  0  0  0  0  0  0  0
   -6.0970   23.8620  -30.6430 C   0  0  0  0  0  0  0  0  0  0  0  0
   -5.1330   24.4290  -29.8050 C   0  0  0  0  0  0  0  0  0  0  0  0
   -1.4460   24.0370  -26.0170 C   0  0  0  0  0  0  0  0  0  0  0  0
    0.2752   23.0224  -23.3970 H   0  0  0  0  0  0  0  0  0  0  0  0
   -0.1922   22.0926  -24.8612 H   0  0  0  0  0  0  0  0  0  0  0  0
    1.3146   23.0705  -24.8612 H   0  0  0  0  0  0  0  0  0  0  0  0
    0.5299   25.6231  -23.7197 H   0  0  0  0  0  0  0  0  0  0  0  0
   -0.6424   27.9276  -23.3709 H   0  0  0  0  0  0  0  0  0  0  0  0
    0.3490   28.3235  -24.8155 H   0  0  0  0  0  0  0  0  0  0  0  0
   -1.4145   28.6648  -24.8155 H   0  0  0  0  0  0  0  0  0  0  0  0
   -2.4200   27.2927  -26.4127 H   0  0  0  0  0  0  0  0  0  0  0  0
   -4.1240   25.1940  -27.3560 H   0  0  0  0  0  0  0  0  0  0  0  0
   -2.4611   22.4678  -30.6492 H   0  0  0  0  0  0  0  0  0  0  0  0
   -4.1839   21.4590  -32.1383 H   0  0  0  0  0  0  0  0  0  0  0  0
   -6.9498   21.2862  -34.1172 H   0  0  0  0  0  0  0  0  0  0  0  0
   -5.6188   20.7180  -33.0332 H   0  0  0  0  0  0  0  0  0  0  0  0
   -9.4124   21.4601  -30.3051 H   0  0  0  0  0  0  0  0  0  0  0  0
   -8.8066   22.2381  -31.8066 H   0  0  0  0  0  0  0  0  0  0  0  0
  -10.3968   21.4026  -31.8066 H   0  0  0  0  0  0  0  0  0  0  0  0
   -5.5912   17.4379  -32.5699 H   0  0  0  0  0  0  0  0  0  0  0  0
   -6.6884   17.0845  -33.9475 H   0  0  0  0  0  0  0  0  0  0  0  0
   -5.7014   18.5853  -33.9475 H   0  0  0  0  0  0  0  0  0  0  0  0
   -7.1215   24.2626  -30.6437 H   0  0  0  0  0  0  0  0  0  0  0  0
   -5.4051   25.2718  -29.1526 H   0  0  0  0  0  0  0  0  0  0  0  0
   -1.6361   23.0339  -26.4266 H   0  0  0  0  0  0  0  0  0  0  0  0
  1  2  1  0
  2  3  2  0
  3  4  1  0
  4  5  1  0
  4  6  2  0
  6  7  1  0
  7  8  1  0
  8  9  1  0
  9 10  2  0
  9 11  1  0
 11 12  2  0
 12 13  1  0
 13 14  2  0
 14 15  1  0
 15 16  1  0
 16 17  1  0
 17 18  1  0
 18 19  1  0
 18 20  2  0
 20 21  1  0
 21 22  1  0
 22 23  1  0
 14 24  1  0
 24 25  2  0
  7 26  2  0
 26  2  1  0
 25 11  1  0
 22 17  2  0
  1 27  1  0
  1 28  1  0
  1 29  1  0
  3 30  1  0
  5 31  1  0
  5 32  1  0
  5 33  1  0
  6 34  1  0
  8 35  1  0
 12 36  1  0
 13 37  1  0
 16 38  1  0
 16 39  1  0
 19 40  1  0
 19 41  1  0
 19 42  1  0
 23 43  1  0
 23 44  1  0
 23 45  1  0
 24 46  1  0
 25 47  1  0
 26 48  1  0
M  END
>  <UniqueID>  (18) 
17

>  <SMILES>  (18) 
Cc1cc(C)cc(NC(=O)c2ccc(OCc3c(C)noc3C)cc2)c1

>  <Energy>  (18) 
81.22284291138101

>  <Genealogy>  (18) 
Cc1cc(C)cc(NC(=O)c2ccc(OCc3c(C)noc3C)cc2)c1 (3D coordinates assigned)
Cc1cc(C)cc(NC(=O)c2ccc(OCc3c(C)noc3C)cc2)c1 (optimized conformer: 81.22284291138101 kcal/mol)

>  <smiles>  (18) 
Cc1cc(C)cc(NC(=O)c2ccc(OCc3c(C)noc3C)cc2)c1

>  <score_type>  (18) 
oracle

>  <origin>  (18) 
adgpu

>  <m_score__min__energy>  (18) 
-8.7100000000000009

>  <m_primary>  (18) 
energy

$$$$
18:0
     RDKit          3D

 47 49  0  0  0  0  0  0  0  0999 V2000
   -1.1800   21.3580  -30.8890 C   0  0  0  0  0  0  0  0  0  0  0  0
   -1.9050   22.4060  -30.2530 O   0  0  0  0  0  0  0  0  0  0  0  0
   -3.2520   22.7140  -30.5060 C   0  0  0  0  0  0  0  0  0  0  0  0
   -4.1470   21.7590  -31.0180 C   0  0  0  0  0  0  0  0  0  0  0  0
   -5.4850   22.0890  -31.2630 C   0  0  0  0  0  0  0  0  0  0  0  0
   -6.4250   21.0740  -31.8050 C   0  0  0  0  0  0  0  0  0  0  0  0
   -7.8090   21.3020  -31.7930 C   0  0  0  0  0  0  0  0  0  0  0  0
   -8.6740   20.3370  -32.3080 C   0  0  0  0  0  0  0  0  0  0  0  0
   -8.1780   19.1800  -32.8180 N   0  0  0  0  0  0  0  0  0  0  0  0
   -6.8430   18.9170  -32.8510 C   0  0  0  0  0  0  0  0  0  0  0  0
   -6.3640   17.6340  -33.4130 C   0  0  0  0  0  0  0  0  0  0  0  0
   -7.1990   16.7780  -33.8130 O   0  0  0  0  0  0  0  0  0  0  0  0
   -4.9570   17.3450  -33.4660 N   0  0  0  0  0  0  0  0  0  0  0  0
   -4.3870   16.2720  -34.2340 C   0  0  0  0  0  0  0  0  0  0  0  0
   -4.6820   14.9430  -33.8850 C   0  0  0  0  0  0  0  0  0  0  0  0
   -4.1220   13.8820  -34.6030 C   0  0  0  0  0  0  0  0  0  0  0  0
   -3.2530   14.1380  -35.6670 C   0  0  0  0  0  0  0  0  0  0  0  0
   -2.9350   15.4540  -36.0080 C   0  0  0  0  0  0  0  0  0  0  0  0
   -3.4930   16.5190  -35.2930 C   0  0  0  0  0  0  0  0  0  0  0  0
   -5.9420   19.8670  -32.3390 C   0  0  0  0  0  0  0  0  0  0  0  0
   -5.9270   23.3920  -30.9910 C   0  0  0  0  0  0  0  0  0  0  0  0
   -5.0480   24.3660  -30.4780 C   0  0  0  0  0  0  0  0  0  0  0  0
   -5.4980   25.6690  -30.2070 O   0  0  0  0  0  0  0  0  0  0  0  0
   -6.4840   26.0100  -29.2370 C   0  0  0  0  0  0  0  0  0  0  0  0
   -3.6940   24.0190  -30.2340 C   0  0  0  0  0  0  0  0  0  0  0  0
   -2.7370   24.9170  -29.7230 O   0  0  0  0  0  0  0  0  0  0  0  0
   -2.0410   24.8040  -28.4870 C   0  0  0  0  0  0  0  0  0  0  0  0
   -0.7299   20.7073  -30.1248 H   0  0  0  0  0  0  0  0  0  0  0  0
   -1.8637   20.7676  -31.5167 H   0  0  0  0  0  0  0  0  0  0  0  0
   -0.3865   21.7896  -31.5167 H   0  0  0  0  0  0  0  0  0  0  0  0
   -3.7916   20.7396  -31.2288 H   0  0  0  0  0  0  0  0  0  0  0  0
   -8.2106   22.2386  -31.3789 H   0  0  0  0  0  0  0  0  0  0  0  0
   -9.7598   20.5131  -32.3012 H   0  0  0  0  0  0  0  0  0  0  0  0
   -4.3170   17.8880  -32.8420 H   0  0  0  0  0  0  0  0  0  0  0  0
   -5.3576   14.7363  -33.0419 H   0  0  0  0  0  0  0  0  0  0  0  0
   -4.3657   12.8446  -34.3301 H   0  0  0  0  0  0  0  0  0  0  0  0
   -2.8194   13.3024  -36.2360 H   0  0  0  0  0  0  0  0  0  0  0  0
   -2.2443   15.6538  -36.8405 H   0  0  0  0  0  0  0  0  0  0  0  0
   -3.2321   17.5539  -35.5594 H   0  0  0  0  0  0  0  0  0  0  0  0
   -4.8607   19.6660  -32.3563 H   0  0  0  0  0  0  0  0  0  0  0  0
   -6.9773   23.6577  -31.1814 H   0  0  0  0  0  0  0  0  0  0  0  0
   -6.0704   25.8670  -28.2278 H   0  0  0  0  0  0  0  0  0  0  0  0
   -6.7779   27.0620  -29.3671 H   0  0  0  0  0  0  0  0  0  0  0  0
   -7.3650   25.3644  -29.3671 H   0  0  0  0  0  0  0  0  0  0  0  0
   -2.7508   24.9192  -27.6546 H   0  0  0  0  0  0  0  0  0  0  0  0
   -1.5610   23.8162  -28.4255 H   0  0  0  0  0  0  0  0  0  0  0  0
   -1.2731   25.5892  -28.4255 H   0  0  0  0  0  0  0  0  0  0  0  0
  1  2  1  0
  2  3  1  0
  3  4  2  0
  4  5  1  0
  5  6  1  0
  6  7  2  0
  7  8  1  0
  8  9  2  0
  9 10  1  0
 10 11  1  0
 11 12  2  0
 11 13  1  0
 13 14  1  0
 14 15  2  0
 15 16  1  0
 16 17  2  0
 17 18  1  0
 18 19  2  0
 10 20  2  0
  5 21  2  0
 21 22  1  0
 22 23  1  0
 23 24  1  0
 22 25  2  0
 25 26  1  0
 26 27  1  0
 25  3  1  0
 20  6  1  0
 19 14  1  0
  1 28  1  0
  1 29  1  0
  1 30  1  0
  4 31  1  0
  7 32  1  0
  8 33  1  0
 13 34  1  0
 15 35  1  0
 16 36  1  0
 17 37  1  0
 18 38  1  0
 19 39  1  0
 20 40  1  0
 21 41  1  0
 24 42  1  0
 24 43  1  0
 24 44  1  0
 27 45  1  0
 27 46  1  0
 27 47  1  0
M  END
>  <UniqueID>  (19) 
18

>  <SMILES>  (19) 
COc1cc(-c2ccnc(C(=O)Nc3ccccc3)c2)cc(OC)c1OC

>  <Energy>  (19) 
60.79928702819559

>  <Genealogy>  (19) 
COc1cc(-c2ccnc(C(=O)Nc3ccccc3)c2)cc(OC)c1OC (3D coordinates assigned)
COc1cc(-c2ccnc(C(=O)Nc3ccccc3)c2)cc(OC)c1OC (optimized conformer: 60.79928702819559 kcal/mol)

>  <smiles>  (19) 
COc1cc(-c2ccnc(C(=O)Nc3ccccc3)c2)cc(OC)c1OC

>  <score_type>  (19) 
oracle

>  <origin>  (19) 
adgpu

>  <m_score__min__energy>  (19) 
-7.7300000000000004

>  <m_primary>  (19) 
energy

$$$$
19:0
     RDKit          3D

 34 35  0  0  0  0  0  0  0  0999 V2000
   -6.5040   25.6740  -29.3380 C   0  0  0  0  0  0  0  0  0  0  0  0
   -5.4850   25.6910  -30.8450 S   0  0  0  0  0  0  0  0  0  0  0  0
   -6.0580   24.0800  -31.3830 C   0  0  0  0  0  0  0  0  0  0  0  0
   -7.3850   23.7970  -31.4630 N   0  0  0  0  0  0  0  0  0  0  0  0
   -7.4570   22.2120  -31.9540 S   0  0  0  0  0  0  0  0  0  0  0  0
   -5.8350   21.8640  -32.1050 C   0  0  0  0  0  0  0  0  0  0  0  0
   -5.1330   20.2420  -32.4170 S   0  0  0  0  0  0  0  0  0  0  0  0
   -6.4440   19.7410  -33.5760 C   0  0  0  0  0  0  0  0  0  0  0  0
   -5.1750   23.0350  -31.7370 C   0  0  0  0  0  0  0  0  0  0  0  0
   -3.7590   23.1330  -31.5470 N   0  0  0  0  0  0  0  0  0  0  0  0
   -3.1180   23.3410  -30.2860 C   0  0  0  0  0  0  0  0  0  0  0  0
   -2.8130   22.3370  -29.5890 O   0  0  0  0  0  0  0  0  0  0  0  0
   -2.8570   24.6710  -29.8100 N   0  0  0  0  0  0  0  0  0  0  0  0
   -2.3230   24.9760  -28.5090 C   0  0  0  0  0  0  0  0  0  0  0  0
   -3.0070   24.6260  -27.3310 C   0  0  0  0  0  0  0  0  0  0  0  0
   -2.4760   24.9550  -26.0810 C   0  0  0  0  0  0  0  0  0  0  0  0
   -1.2690   25.6630  -25.9870 C   0  0  0  0  0  0  0  0  0  0  0  0
   -0.6800   25.9800  -24.6450 C   0  0  0  0  0  0  0  0  0  0  0  0
   -0.5890   26.0210  -27.1610 C   0  0  0  0  0  0  0  0  0  0  0  0
   -1.1210   25.6940  -28.4110 C   0  0  0  0  0  0  0  0  0  0  0  0
   -5.8504   25.6849  -28.4533 H   0  0  0  0  0  0  0  0  0  0  0  0
   -7.1538   26.5614  -29.3248 H   0  0  0  0  0  0  0  0  0  0  0  0
   -7.1239   24.7654  -29.3248 H   0  0  0  0  0  0  0  0  0  0  0  0
   -7.3250   19.4043  -33.0098 H   0  0  0  0  0  0  0  0  0  0  0  0
   -6.7203   20.5969  -34.2093 H   0  0  0  0  0  0  0  0  0  0  0  0
   -6.0791   18.9190  -34.2093 H   0  0  0  0  0  0  0  0  0  0  0  0
   -3.0420   25.4700  -30.4560 H   0  0  0  0  0  0  0  0  0  0  0  0
   -3.9656   24.0901  -27.3940 H   0  0  0  0  0  0  0  0  0  0  0  0
   -3.0078   24.6569  -25.1654 H   0  0  0  0  0  0  0  0  0  0  0  0
   -1.3533   25.6176  -23.8542 H   0  0  0  0  0  0  0  0  0  0  0  0
    0.2983   25.4866  -24.5482 H   0  0  0  0  0  0  0  0  0  0  0  0
   -0.5530   27.0683  -24.5482 H   0  0  0  0  0  0  0  0  0  0  0  0
    0.3670   26.5614  -27.0970 H   0  0  0  0  0  0  0  0  0  0  0  0
   -0.5934   26.0018  -29.3258 H   0  0  0  0  0  0  0  0  0  0  0  0
  1  2  1  0
  2  3  1  0
  3  4  2  0
  4  5  1  0
  5  6  1  0
  6  7  1  0
  7  8  1  0
  6  9  2  0
  9 10  1  0
 10 11  1  0
 11 12  2  0
 11 13  1  0
 13 14  1  0
 14 15  2  0
 15 16  1  0
 16 17  2  0
 17 18  1  0
 17 19  1  0
 19 20  2  0
  9  3  1  0
 20 14  1  0
  1 21  1  0
  1 22  1  0
  1 23  1  0
  8 24  1  0
  8 25  1  0
  8 26  1  0
 13 27  1  0
 15 28  1  0
 16 29  1  0
 18 30  1  0
 18 31  1  0
 18 32  1  0
 19 33  1  0
 20 34  1  0
M  CHG  1  10  -1
M  END
>  <UniqueID>  (20) 
19

>  <SMILES>  (20) 
CSc1nsc(SC)c1[N-]C(=O)Nc1ccc(C)cc1

>  <Energy>  (20) 
68.1104739559243

>  <Genealogy>  (20) 
CSc1nsc(SC)c1[N-]C(=O)Nc1ccc(C)cc1 (protonated)
CSc1nsc(SC)c1[N-]C(=O)Nc1ccc(C)cc1 (3D coordinates assigned)
CSc1nsc(SC)c1[N-]C(=O)Nc1ccc(C)cc1 (optimized conformer: 68.1104739559243 kcal/mol)

>  <smiles>  (20) 
CSc1nsc(SC)c1NC(=O)Nc1ccc(C)cc1

>  <score_type>  (20) 
oracle

>  <origin>  (20) 
adgpu

>  <m_score__min__energy>  (20) 
-8.2400000000000002

>  <m_primary>  (20) 
energy

$$$$
20:0
     RDKit          3D

 40 42  0  0  0  0  0  0  0  0999 V2000
   -9.7810   21.0230  -32.0470 C   0  0  0  0  0  0  0  0  0  0  0  0
   -8.7580   19.9750  -32.1300 N   0  0  0  0  0  0  0  0  0  0  0  0
   -9.1170   18.5660  -31.9320 C   0  0  0  0  0  0  0  0  0  0  0  0
   -7.3890   20.3310  -32.4010 C   0  0  0  0  0  0  0  0  0  0  0  0
   -6.6230   19.5540  -33.2110 N   0  0  0  0  0  0  0  0  0  0  0  0
   -5.3360   19.8910  -33.4750 C   0  0  0  0  0  0  0  0  0  0  0  0
   -4.5650   19.0600  -34.2970 O   0  0  0  0  0  0  0  0  0  0  0  0
   -4.5940   17.6580  -34.2840 C   0  0  0  0  0  0  0  0  0  0  0  0
   -5.2980   16.9310  -33.3140 C   0  0  0  0  0  0  0  0  0  0  0  0
   -5.2730   15.5380  -33.3550 C   0  0  0  0  0  0  0  0  0  0  0  0
   -4.5370   14.9010  -34.3520 C   0  0  0  0  0  0  0  0  0  0  0  0
   -4.5000   13.6430  -34.4070 O   0  0  0  0  0  0  0  0  0  0  0  0
   -3.8530   15.6470  -35.2610 N   0  0  0  0  0  0  0  0  0  0  0  0
   -3.8810   16.9810  -35.2230 N   0  0  0  0  0  0  0  0  0  0  0  0
   -4.8060   21.0060  -32.9080 N   0  0  0  0  0  0  0  0  0  0  0  0
   -5.5590   21.7960  -32.0970 C   0  0  0  0  0  0  0  0  0  0  0  0
   -4.9930   22.9860  -31.5080 N   0  0  0  0  0  0  0  0  0  0  0  0
   -3.5630   23.0250  -31.1710 C   0  0  0  0  0  0  0  0  0  0  0  0
   -3.2950   24.0800  -30.0950 C   0  0  0  0  0  0  0  0  0  0  0  0
   -3.8610   25.3230  -30.4560 O   0  0  0  0  0  0  0  0  0  0  0  0
   -5.2700   25.2100  -30.4770 C   0  0  0  0  0  0  0  0  0  0  0  0
   -5.7240   24.2580  -31.5880 C   0  0  0  0  0  0  0  0  0  0  0  0
   -6.8500   21.4510  -31.8490 N   0  0  0  0  0  0  0  0  0  0  0  0
   -9.9957   21.2430  -30.9908 H   0  0  0  0  0  0  0  0  0  0  0  0
   -9.4145   21.9333  -32.5440 H   0  0  0  0  0  0  0  0  0  0  0  0
  -10.6999   20.6786  -32.5440 H   0  0  0  0  0  0  0  0  0  0  0  0
   -9.1722   18.3495  -30.8549 H   0  0  0  0  0  0  0  0  0  0  0  0
  -10.0943   18.3679  -32.3963 H   0  0  0  0  0  0  0  0  0  0  0  0
   -8.3536   17.9244  -32.3963 H   0  0  0  0  0  0  0  0  0  0  0  0
   -5.8639   17.4541  -32.5291 H   0  0  0  0  0  0  0  0  0  0  0  0
   -5.8274   14.9489  -32.6096 H   0  0  0  0  0  0  0  0  0  0  0  0
   -3.2930   15.1750  -36.0060 H   0  0  0  0  0  0  0  0  0  0  0  0
   -3.2523   22.0386  -30.7963 H   0  0  0  0  0  0  0  0  0  0  0  0
   -2.9913   23.2845  -32.0742 H   0  0  0  0  0  0  0  0  0  0  0  0
   -3.7366   23.7455  -29.1447 H   0  0  0  0  0  0  0  0  0  0  0  0
   -2.2074   24.2063  -29.9897 H   0  0  0  0  0  0  0  0  0  0  0  0
   -5.6150   24.8225  -29.5070 H   0  0  0  0  0  0  0  0  0  0  0  0
   -5.7002   26.2043  -30.6677 H   0  0  0  0  0  0  0  0  0  0  0  0
   -6.8013   24.0636  -31.4800 H   0  0  0  0  0  0  0  0  0  0  0  0
   -5.5182   24.7253  -32.5623 H   0  0  0  0  0  0  0  0  0  0  0  0
  1  2  1  0
  2  3  1  0
  2  4  1  0
  4  5  2  0
  5  6  1  0
  6  7  1  0
  7  8  1  0
  8  9  1  0
  9 10  2  0
 10 11  1  0
 11 12  2  0
 11 13  1  0
 13 14  1  0
  6 15  2  0
 15 16  1  0
 16 17  1  0
 17 18  1  0
 18 19  1  0
 19 20  1  0
 20 21  1  0
 21 22  1  0
 16 23  2  0
 23  4  1  0
 14  8  2  0
 22 17  1  0
  1 24  1  0
  1 25  1  0
  1 26  1  0
  3 27  1  0
  3 28  1  0
  3 29  1  0
  9 30  1  0
 10 31  1  0
 13 32  1  0
 18 33  1  0
 18 34  1  0
 19 35  1  0
 19 36  1  0
 21 37  1  0
 21 38  1  0
 22 39  1  0
 22 40  1  0
M  END
>  <UniqueID>  (21) 
20

>  <SMILES>  (21) 
CN(C)c1nc(Oc2ccc(=O)[nH]n2)nc(N2CCOCC2)n1

>  <Energy>  (21) 
45.67612215440023

>  <Genealogy>  (21) 
CN(C)c1nc(Oc2ccc(=O)[nH]n2)nc(N2CCOCC2)n1 (3D coordinates assigned)
CN(C)c1nc(Oc2ccc(=O)[nH]n2)nc(N2CCOCC2)n1 (nonaromatic ring conformer: 45.67612215440023 kcal/mol)

>  <smiles>  (21) 
CN(C)c1nc(Oc2ccc(=O)[nH]n2)nc(N2CCOCC2)n1

>  <score_type>  (21) 
oracle

>  <origin>  (21) 
adgpu

>  <m_score__min__energy>  (21) 
-7.1900000000000004

>  <m_primary>  (21) 
energy

$$$$
21:0
     RDKit          3D

 58 61  0  0  0  0  0  0  0  0999 V2000
   -6.8120   17.6930  -33.0210 C   0  0  0  0  0  0  0  0  0  0  0  0
   -6.6920   19.1240  -32.5860 C   0  0  0  0  0  0  0  0  0  0  0  0
   -7.8200   19.8110  -32.1110 C   0  0  0  0  0  0  0  0  0  0  0  0
   -7.7090   21.1350  -31.6740 C   0  0  0  0  0  0  0  0  0  0  0  0
   -6.4680   21.7850  -31.7020 C   0  0  0  0  0  0  0  0  0  0  0  0
   -6.3200   23.4600  -31.1730 S   0  0  0  0  0  0  0  0  0  0  0  0
   -5.2120   24.1580  -31.9110 O   0  0  0  0  0  0  0  0  0  0  0  0
   -7.6170   24.1690  -31.4480 O   0  0  0  0  0  0  0  0  0  0  0  0
   -5.9880   23.5090  -29.4700 N   0  0  0  0  0  0  0  0  0  0  0  0
   -4.6530   23.5690  -28.9440 C   0  0  0  0  0  0  0  0  0  0  0  0
   -4.2420   22.6220  -27.9970 C   0  0  0  0  0  0  0  0  0  0  0  0
   -2.9320   22.6290  -27.5100 C   0  0  0  0  0  0  0  0  0  0  0  0
   -2.0150   23.5900  -27.9580 C   0  0  0  0  0  0  0  0  0  0  0  0
   -0.3540   23.5520  -27.3680 S   0  0  0  0  0  0  0  0  0  0  0  0
   -0.3090   24.0640  -25.9560 O   0  0  0  0  0  0  0  0  0  0  0  0
    0.5060   24.4100  -28.2520 O   0  0  0  0  0  0  0  0  0  0  0  0
    0.2230   21.9180  -27.4290 N   0  0  0  0  0  0  0  0  0  0  0  0
    0.0950   21.0490  -28.5600 C   0  0  0  0  0  0  0  0  0  0  0  0
    0.1970   19.6610  -28.6300 C   0  0  0  0  0  0  0  0  0  0  0  0
    0.4180   18.7100  -27.4910 C   0  0  0  0  0  0  0  0  0  0  0  0
    0.0030   19.2870  -29.9220 N   0  0  0  0  0  0  0  0  0  0  0  0
    0.0690   17.9180  -30.4410 C   0  0  0  0  0  0  0  0  0  0  0  0
   -0.2690   20.3720  -30.6480 N   0  0  0  0  0  0  0  0  0  0  0  0
   -0.5900   20.3910  -32.0500 C   0  0  0  0  0  0  0  0  0  0  0  0
   -1.9280   20.3860  -32.4730 C   0  0  0  0  0  0  0  0  0  0  0  0
   -2.2360   20.4170  -33.8360 C   0  0  0  0  0  0  0  0  0  0  0  0
   -1.2120   20.4580  -34.7840 C   0  0  0  0  0  0  0  0  0  0  0  0
    0.1230   20.4700  -34.3700 C   0  0  0  0  0  0  0  0  0  0  0  0
    0.4340   20.4420  -33.0080 C   0  0  0  0  0  0  0  0  0  0  0  0
   -0.2200   21.4470  -29.8360 C   0  0  0  0  0  0  0  0  0  0  0  0
   -0.4390   22.6330  -30.2040 O   0  0  0  0  0  0  0  0  0  0  0  0
   -2.4340   24.5700  -28.8740 C   0  0  0  0  0  0  0  0  0  0  0  0
   -1.5820   25.5370  -29.2960 F   0  0  0  0  0  0  0  0  0  0  0  0
   -3.7440   24.5550  -29.3660 C   0  0  0  0  0  0  0  0  0  0  0  0
   -5.3350   21.0930  -32.1520 C   0  0  0  0  0  0  0  0  0  0  0  0
   -5.4460   19.7680  -32.5890 C   0  0  0  0  0  0  0  0  0  0  0  0
   -6.8664   17.0437  -32.1347 H   0  0  0  0  0  0  0  0  0  0  0  0
   -7.7238   17.5682  -33.6236 H   0  0  0  0  0  0  0  0  0  0  0  0
   -5.9338   17.4181  -33.6236 H   0  0  0  0  0  0  0  0  0  0  0  0
   -8.7965   19.3055  -32.0823 H   0  0  0  0  0  0  0  0  0  0  0  0
   -8.5988   21.6677  -31.3072 H   0  0  0  0  0  0  0  0  0  0  0  0
   -6.7770   23.2740  -28.8260 H   0  0  0  0  0  0  0  0  0  0  0  0
   -4.9554   21.8675  -27.6341 H   0  0  0  0  0  0  0  0  0  0  0  0
   -2.6189   21.8765  -26.7713 H   0  0  0  0  0  0  0  0  0  0  0  0
    0.2938   19.2445  -26.5377 H   0  0  0  0  0  0  0  0  0  0  0  0
   -0.3137   17.8908  -27.5501 H   0  0  0  0  0  0  0  0  0  0  0  0
    1.4360   18.2974  -27.5501 H   0  0  0  0  0  0  0  0  0  0  0  0
    0.1032   17.2087  -29.6010 H   0  0  0  0  0  0  0  0  0  0  0  0
   -0.8204   17.7157  -31.0558 H   0  0  0  0  0  0  0  0  0  0  0  0
    0.9738   17.8022  -31.0558 H   0  0  0  0  0  0  0  0  0  0  0  0
   -2.7377   20.3576  -31.7289 H   0  0  0  0  0  0  0  0  0  0  0  0
   -3.2865   20.4091  -34.1621 H   0  0  0  0  0  0  0  0  0  0  0  0
   -1.4557   20.4809  -35.8564 H   0  0  0  0  0  0  0  0  0  0  0  0
    0.9297   20.5015  -35.1172 H   0  0  0  0  0  0  0  0  0  0  0  0
    1.4855   20.4600  -32.6856 H   0  0  0  0  0  0  0  0  0  0  0  0
   -4.0648   25.3202  -30.0881 H   0  0  0  0  0  0  0  0  0  0  0  0
   -4.3553   21.5931  -32.1617 H   0  0  0  0  0  0  0  0  0  0  0  0
   -4.5521   19.2293  -32.9364 H   0  0  0  0  0  0  0  0  0  0  0  0
  1  2  1  0
  2  3  2  0
  3  4  1  0
  4  5  2  0
  5  6  1  0
  6  7  2  0
  6  8  2  0
  6  9  1  0
  9 10  1  0
 10 11  2  0
 11 12  1  0
 12 13  2  0
 13 14  1  0
 14 15  2  0
 14 16  2  0
 14 17  1  0
 17 18  1  0
 18 19  2  0
 19 20  1  0
 19 21  1  0
 21 22  1  0
 21 23  1  0
 23 24  1  0
 24 25  2  0
 25 26  1  0
 26 27  2  0
 27 28  1  0
 28 29  2  0
 23 30  1  0
 30 31  2  0
 13 32  1  0
 32 33  1  0
 32 34  2  0
  5 35  1  0
 35 36  2  0
 36  2  1  0
 34 10  1  0
 30 18  1  0
 29 24  1  0
  1 37  1  0
  1 38  1  0
  1 39  1  0
  3 40  1  0
  4 41  1  0
  9 42  1  0
 11 43  1  0
 12 44  1  0
 20 45  1  0
 20 46  1  0
 20 47  1  0
 22 48  1  0
 22 49  1  0
 22 50  1  0
 25 51  1  0
 26 52  1  0
 27 53  1  0
 28 54  1  0
 29 55  1  0
 34 56  1  0
 35 57  1  0
 36 58  1  0
M  CHG  1  17  -1
M  END
>  <UniqueID>  (22) 
21

>  <SMILES>  (22) 
Cc1ccc(S(=O)(=O)Nc2ccc(S(=O)(=O)[N-]c3c(C)n(C)n(-c4ccccc4)c3=O)c(F)c2)cc1

>  <Energy>  (22) 
113.70879161195812

>  <Genealogy>  (22) 
Cc1ccc(S(=O)(=O)Nc2ccc(S(=O)(=O)[N-]c3c(C)n(C)n(-c4ccccc4)c3=O)c(F)c2)cc1 (protonated)
Cc1ccc(S(=O)(=O)Nc2ccc(S(=O)(=O)[N-]c3c(C)n(C)n(-c4ccccc4)c3=O)c(F)c2)cc1 (3D coordinates assigned)
Cc1ccc(S(=O)(=O)Nc2ccc(S(=O)(=O)[N-]c3c(C)n(C)n(-c4ccccc4)c3=O)c(F)c2)cc1 (optimized conformer: 113.70879161195812 kcal/mol)

>  <smiles>  (22) 
Cc1ccc(S(=O)(=O)Nc2ccc(S(=O)(=O)Nc3c(C)n(C)n(-c4ccccc4)c3=O)c(F)c2)cc1

>  <score_type>  (22) 
oracle

>  <origin>  (22) 
adgpu

>  <m_score__min__energy>  (22) 
-12.43

>  <m_primary>  (22) 
energy

$$$$
22:0
     RDKit          3D

 48 50  0  0  1  0  0  0  0  0999 V2000
   -0.0750   18.7260  -28.2040 C   0  0  0  0  0  0  0  0  0  0  0  0
   -1.3380   19.3300  -27.6980 C   0  0  0  0  0  0  0  0  0  0  0  0
   -1.8740   20.5230  -28.1390 C   0  0  0  0  0  0  0  0  0  0  0  0
   -3.0400   20.6810  -27.3950 C   0  0  0  0  0  0  0  0  0  0  0  0
   -3.8620   21.6490  -27.4690 N   0  0  0  0  0  0  0  0  0  0  0  0
   -3.6740   22.7350  -28.3670 C   0  0  0  0  0  0  0  0  0  0  0  0
   -2.6840   23.6460  -28.1510 C   0  0  0  0  0  0  0  0  0  0  0  0
   -2.4750   24.7090  -29.0010 C   0  0  0  0  0  0  0  0  0  0  0  0
   -1.5640   25.5840  -28.8410 N   0  0  0  0  0  0  0  0  0  0  0  0
   -0.6570   25.5140  -27.7100 C   0  0  0  0  0  0  0  0  0  0  0  0
   -1.3230   26.3990  -26.6420 C   0  0  0  0  0  0  0  0  0  0  0  0
   -0.5080   27.6330  -26.3800 C   0  0  0  0  0  0  0  0  0  0  0  0
   -1.3820   25.4840  -25.4120 C   0  0  0  0  0  0  0  0  0  0  0  0
   -3.2800   24.8550  -30.0900 N   0  0  0  0  0  0  0  0  0  0  0  0
   -4.2560   23.9510  -30.2990 C   0  0  0  0  0  0  0  0  0  0  0  0
   -5.0040   24.1310  -31.3540 N   0  0  0  0  0  0  0  0  0  0  0  0
   -6.0600   23.1980  -31.6250 C   0  0  0  0  0  0  0  0  0  0  0  0
   -5.6620   22.0250  -32.2650 C   0  0  0  0  0  0  0  0  0  0  0  0
   -6.5980   21.0580  -32.5730 C   0  0  0  0  0  0  0  0  0  0  0  0
   -7.9340   21.2800  -32.2330 C   0  0  0  0  0  0  0  0  0  0  0  0
   -9.1100   20.0370  -32.6320 Cl  0  0  0  0  0  0  0  0  0  0  0  0
   -8.2950   22.4550  -31.5980 C   0  0  0  0  0  0  0  0  0  0  0  0
   -7.3700   23.4420  -31.2790 C   0  0  0  0  0  0  0  0  0  0  0  0
   -4.4540   22.9110  -29.4580 N   0  0  0  0  0  0  0  0  0  0  0  0
   -3.1770   19.6360  -26.5640 N   0  0  0  0  0  0  0  0  0  0  0  0
   -2.1470   18.8140  -26.7440 N   0  0  0  0  0  0  0  0  0  0  0  0
    0.5541   18.4251  -27.3533 H   0  0  0  0  0  0  0  0  0  0  0  0
   -0.3104   17.8430  -28.8163 H   0  0  0  0  0  0  0  0  0  0  0  0
    0.4646   19.4635  -28.8163 H   0  0  0  0  0  0  0  0  0  0  0  0
   -1.4698   21.1986  -28.9073 H   0  0  0  0  0  0  0  0  0  0  0  0
   -2.0329   23.5289  -27.2722 H   0  0  0  0  0  0  0  0  0  0  0  0
   -0.5571   24.4785  -27.3526 H   0  0  0  0  0  0  0  0  0  0  0  0
    0.3601   25.8485  -27.9622 H   0  0  0  0  0  0  0  0  0  0  0  0
   -2.3148   26.7694  -26.9406 H   0  0  0  0  0  0  0  0  0  0  0  0
   -0.4087   27.7833  -25.2948 H   0  0  0  0  0  0  0  0  0  0  0  0
    0.4903   27.5148  -26.8266 H   0  0  0  0  0  0  0  0  0  0  0  0
   -1.0086   28.5047  -26.8266 H   0  0  0  0  0  0  0  0  0  0  0  0
   -1.3426   26.0951  -24.4982 H   0  0  0  0  0  0  0  0  0  0  0  0
   -2.3191   24.9082  -25.4279 H   0  0  0  0  0  0  0  0  0  0  0  0
   -0.5266   24.7926  -25.4279 H   0  0  0  0  0  0  0  0  0  0  0  0
   -3.1280   25.6690  -30.7500 H   0  0  0  0  0  0  0  0  0  0  0  0
   -4.6042   21.8703  -32.5240 H   0  0  0  0  0  0  0  0  0  0  0  0
   -6.2964   20.1283  -33.0777 H   0  0  0  0  0  0  0  0  0  0  0  0
   -9.3516   22.6136  -31.3363 H   0  0  0  0  0  0  0  0  0  0  0  0
   -7.6699   24.3725  -30.7748 H   0  0  0  0  0  0  0  0  0  0  0  0
   -5.2380   22.2200  -29.6590 H   0  0  0  0  0  0  0  0  0  0  0  0
   -3.9770   19.5010  -25.8810 H   0  0  0  0  0  0  0  0  0  0  0  0
   -1.9800   17.9140  -26.2360 H   0  0  0  0  0  0  0  0  0  0  0  0
  1  2  1  0
  2  3  2  0
  3  4  1  0
  4  5  2  0
  5  6  1  0
  6  7  2  0
  7  8  1  0
  8  9  2  0
  9 10  1  0
 10 11  1  0
 11 12  1  0
 11 13  1  0
  8 14  1  0
 14 15  1  0
 15 16  2  0
 16 17  1  0
 17 18  2  0
 18 19  1  0
 19 20  2  0
 20 21  1  0
 20 22  1  0
 22 23  2  0
 15 24  1  0
  4 25  1  0
 25 26  1  0
 26  2  1  0
 24  6  1  0
 23 17  1  0
  1 27  1  0
  1 28  1  0
  1 29  1  0
  3 30  1  0
  7 31  1  0
 10 32  1  0
 10 33  1  0
 11 34  1  0
 12 35  1  0
 12 36  1  0
 12 37  1  0
 13 38  1  0
 13 39  1  0
 13 40  1  0
 14 41  1  0
 18 42  1  0
 19 43  1  0
 22 44  1  0
 23 45  1  0
 24 46  1  0
 25 47  1  0
 26 48  1  0
M  END
>  <smiles>  (23) 
Cc1cc(=Nc2cc(=NCC(C)C)[nH]c(=Nc3ccc(Cl)cc3)[nH]2)[nH][nH]1

>  <score_type>  (23) 
oracle

>  <origin>  (23) 
adgpu

>  <m_score__min__energy>  (23) 
-9.9900000000000002

>  <m_primary>  (23) 
energy

$$$$
23:0
     RDKit          3D

 38 40  0  0  0  0  0  0  0  0999 V2000
   -5.7790   24.1790  -32.3430 O   0  0  0  0  0  0  0  0  0  0  0  0
   -5.7770   22.9240  -32.2160 C   0  0  0  0  0  0  0  0  0  0  0  0
   -7.0660   22.2050  -32.0730 C   0  0  0  0  0  0  0  0  0  0  0  0
   -8.2790   22.9110  -31.9610 C   0  0  0  0  0  0  0  0  0  0  0  0
   -9.4900   22.2220  -31.8500 C   0  0  0  0  0  0  0  0  0  0  0  0
   -9.5070   20.8260  -31.8530 C   0  0  0  0  0  0  0  0  0  0  0  0
   -8.3110   20.1120  -31.9720 C   0  0  0  0  0  0  0  0  0  0  0  0
   -8.3330   18.3580  -31.9800 Cl  0  0  0  0  0  0  0  0  0  0  0  0
   -7.0950   20.7970  -32.0860 C   0  0  0  0  0  0  0  0  0  0  0  0
   -4.4800   22.2100  -32.2250 C   0  0  0  0  0  0  0  0  0  0  0  0
   -4.3640   21.0000  -32.9320 C   0  0  0  0  0  0  0  0  0  0  0  0
   -3.1470   20.3150  -32.9720 C   0  0  0  0  0  0  0  0  0  0  0  0
   -3.0180   18.8100  -33.8640 Cl  0  0  0  0  0  0  0  0  0  0  0  0
   -2.0360   20.8300  -32.3050 C   0  0  0  0  0  0  0  0  0  0  0  0
   -2.1340   22.0320  -31.6010 C   0  0  0  0  0  0  0  0  0  0  0  0
   -3.3530   22.7360  -31.5560 C   0  0  0  0  0  0  0  0  0  0  0  0
   -3.4800   23.9630  -30.8200 N   0  0  0  0  0  0  0  0  0  0  0  0
   -3.1000   24.1750  -29.1440 S   0  0  0  0  0  0  0  0  0  0  0  0
   -2.0850   25.2730  -29.0040 O   0  0  0  0  0  0  0  0  0  0  0  0
   -4.3440   24.5710  -28.4030 O   0  0  0  0  0  0  0  0  0  0  0  0
   -2.4240   22.6860  -28.4920 C   0  0  0  0  0  0  0  0  0  0  0  0
   -3.2600   21.6280  -28.1060 C   0  0  0  0  0  0  0  0  0  0  0  0
   -2.7090   20.4480  -27.5990 C   0  0  0  0  0  0  0  0  0  0  0  0
   -1.3230   20.3200  -27.4680 C   0  0  0  0  0  0  0  0  0  0  0  0
   -0.4860   21.3740  -27.8480 C   0  0  0  0  0  0  0  0  0  0  0  0
   -1.0350   22.5540  -28.3600 C   0  0  0  0  0  0  0  0  0  0  0  0
   -8.2736   24.0110  -31.9609 H   0  0  0  0  0  0  0  0  0  0  0  0
  -10.4328   22.7815  -31.7600 H   0  0  0  0  0  0  0  0  0  0  0  0
  -10.4619   20.2876  -31.7617 H   0  0  0  0  0  0  0  0  0  0  0  0
   -6.1566   20.2319  -32.1863 H   0  0  0  0  0  0  0  0  0  0  0  0
   -5.2386   20.5895  -33.4579 H   0  0  0  0  0  0  0  0  0  0  0  0
   -1.0794   20.2877  -32.3335 H   0  0  0  0  0  0  0  0  0  0  0  0
   -1.2528   22.4319  -31.0779 H   0  0  0  0  0  0  0  0  0  0  0  0
   -4.3513   21.7272  -28.2025 H   0  0  0  0  0  0  0  0  0  0  0  0
   -3.3673   19.6181  -27.3024 H   0  0  0  0  0  0  0  0  0  0  0  0
   -0.8913   19.3913  -27.0665 H   0  0  0  0  0  0  0  0  0  0  0  0
    0.6046   21.2749  -27.7441 H   0  0  0  0  0  0  0  0  0  0  0  0
   -0.3746   23.3810  -28.6600 H   0  0  0  0  0  0  0  0  0  0  0  0
  1  2  2  0
  2  3  1  0
  3  4  2  0
  4  5  1  0
  5  6  2  0
  6  7  1  0
  7  8  1  0
  7  9  2  0
  2 10  1  0
 10 11  2  0
 11 12  1  0
 12 13  1  0
 12 14  2  0
 14 15  1  0
 15 16  2  0
 16 17  1  0
 17 18  1  0
 18 19  2  0
 18 20  2  0
 18 21  1  0
 21 22  2  0
 22 23  1  0
 23 24  2  0
 24 25  1  0
 25 26  2  0
  9  3  1  0
 16 10  1  0
 26 21  1  0
  4 27  1  0
  5 28  1  0
  6 29  1  0
  9 30  1  0
 11 31  1  0
 14 32  1  0
 15 33  1  0
 22 34  1  0
 23 35  1  0
 24 36  1  0
 25 37  1  0
 26 38  1  0
M  CHG  1  17  -1
M  END
>  <UniqueID>  (24) 
22

>  <SMILES>  (24) 
O=C(c1cccc(Cl)c1)c1cc(Cl)ccc1[N-]S(=O)(=O)c1ccccc1

>  <Energy>  (24) 
51.625935889098336

>  <Genealogy>  (24) 
O=C(c1cccc(Cl)c1)c1cc(Cl)ccc1[N-]S(=O)(=O)c1ccccc1 (protonated)
O=C(c1cccc(Cl)c1)c1cc(Cl)ccc1[N-]S(=O)(=O)c1ccccc1 (3D coordinates assigned)
O=C(c1cccc(Cl)c1)c1cc(Cl)ccc1[N-]S(=O)(=O)c1ccccc1 (optimized conformer: 51.625935889098336 kcal/mol)

>  <smiles>  (24) 
O=C(c1cccc(Cl)c1)c1cc(Cl)ccc1NS(=O)(=O)c1ccccc1

>  <score_type>  (24) 
oracle

>  <origin>  (24) 
adgpu

>  <m_score__min__energy>  (24) 
-10.77

>  <m_primary>  (24) 
energy

$$$$
24:0
     RDKit          3D

 33 35  0  0  0  0  0  0  0  0999 V2000
   -8.8950   19.5910  -31.9530 C   0  0  0  0  0  0  0  0  0  0  0  0
   -8.5270   21.0350  -31.7810 C   0  0  0  0  0  0  0  0  0  0  0  0
   -9.4020   22.0420  -32.2040 C   0  0  0  0  0  0  0  0  0  0  0  0
   -9.0320   23.3790  -32.0570 C   0  0  0  0  0  0  0  0  0  0  0  0
   -7.8230   23.6960  -31.5270 N   0  0  0  0  0  0  0  0  0  0  0  0
   -6.9310   22.7450  -31.1270 C   0  0  0  0  0  0  0  0  0  0  0  0
   -5.6240   23.1690  -30.5580 C   0  0  0  0  0  0  0  0  0  0  0  0
   -5.0410   24.4020  -30.8900 C   0  0  0  0  0  0  0  0  0  0  0  0
   -3.8500   24.7630  -30.3490 N   0  0  0  0  0  0  0  0  0  0  0  0
   -3.1670   23.9710  -29.4770 C   0  0  0  0  0  0  0  0  0  0  0  0
   -1.8700   24.4610  -28.9660 C   0  0  0  0  0  0  0  0  0  0  0  0
   -0.6390   23.8560  -29.1490 C   0  0  0  0  0  0  0  0  0  0  0  0
    0.3030   24.5440  -28.4740 N   0  0  0  0  0  0  0  0  0  0  0  0
   -0.3040   25.5440  -27.8540 N   0  0  0  0  0  0  0  0  0  0  0  0
    0.3860   26.5340  -27.0380 C   0  0  0  0  0  0  0  0  0  0  0  0
   -1.6220   25.5300  -28.1260 C   0  0  0  0  0  0  0  0  0  0  0  0
   -3.7330   22.7390  -29.0860 C   0  0  0  0  0  0  0  0  0  0  0  0
   -3.0110   21.7010  -27.8600 Cl  0  0  0  0  0  0  0  0  0  0  0  0
   -4.9580   22.3490  -29.6350 C   0  0  0  0  0  0  0  0  0  0  0  0
   -7.2780   21.3880  -31.2500 C   0  0  0  0  0  0  0  0  0  0  0  0
   -9.0143   19.1228  -30.9648 H   0  0  0  0  0  0  0  0  0  0  0  0
   -9.8406   19.5174  -32.5102 H   0  0  0  0  0  0  0  0  0  0  0  0
   -8.0999   19.0738  -32.5102 H   0  0  0  0  0  0  0  0  0  0  0  0
  -10.3737   21.7813  -32.6488 H   0  0  0  0  0  0  0  0  0  0  0  0
   -9.7206   24.1773  -32.3709 H   0  0  0  0  0  0  0  0  0  0  0  0
   -5.5516   25.0782  -31.5914 H   0  0  0  0  0  0  0  0  0  0  0  0
   -0.4575   22.9539  -29.7517 H   0  0  0  0  0  0  0  0  0  0  0  0
    0.2275   26.3066  -25.9735 H   0  0  0  0  0  0  0  0  0  0  0  0
    1.4626   26.5079  -27.2622 H   0  0  0  0  0  0  0  0  0  0  0  0
   -0.0111   27.5350  -27.2622 H   0  0  0  0  0  0  0  0  0  0  0  0
   -2.3691   26.2428  -27.7470 H   0  0  0  0  0  0  0  0  0  0  0  0
   -5.4048   21.3881  -29.3399 H   0  0  0  0  0  0  0  0  0  0  0  0
   -6.5727   20.6065  -30.9310 H   0  0  0  0  0  0  0  0  0  0  0  0
  1  2  1  0
  2  3  2  0
  3  4  1  0
  4  5  2  0
  5  6  1  0
  6  7  1  0
  7  8  2  0
  8  9  1  0
  9 10  2  0
 10 11  1  0
 11 12  1  0
 12 13  2  0
 13 14  1  0
 14 15  1  0
 14 16  1  0
 10 17  1  0
 17 18  1  0
 17 19  2  0
  6 20  2  0
 20  2  1  0
 19  7  1  0
 16 11  2  0
  1 21  1  0
  1 22  1  0
  1 23  1  0
  3 24  1  0
  4 25  1  0
  8 26  1  0
 12 27  1  0
 15 28  1  0
 15 29  1  0
 15 30  1  0
 16 31  1  0
 19 32  1  0
 20 33  1  0
M  END
>  <UniqueID>  (25) 
23

>  <SMILES>  (25) 
Cc1ccnc(-c2cnc(-c3cnn(C)c3)c(Cl)c2)c1

>  <Energy>  (25) 
74.16256459473975

>  <Genealogy>  (25) 
Cc1ccnc(-c2cnc(-c3cnn(C)c3)c(Cl)c2)c1 (3D coordinates assigned)
Cc1ccnc(-c2cnc(-c3cnn(C)c3)c(Cl)c2)c1 (optimized conformer: 74.16256459473975 kcal/mol)

>  <smiles>  (25) 
Cc1ccnc(-c2cnc(-c3cnn(C)c3)c(Cl)c2)c1

>  <score_type>  (25) 
oracle

>  <origin>  (25) 
adgpu

>  <m_score__min__energy>  (25) 
-7.4100000000000001

>  <m_primary>  (25) 
energy

$$$$
25:0
     RDKit          3D

 45 47  0  0  0  0  0  0  0  0999 V2000
   -9.1710   20.3640  -31.9810 C   0  0  0  0  0  0  0  0  0  0  0  0
   -7.9440   20.4390  -31.2630 O   0  0  0  0  0  0  0  0  0  0  0  0
   -7.1980   21.6150  -31.0780 C   0  0  0  0  0  0  0  0  0  0  0  0
   -7.6490   22.6540  -30.2440 C   0  0  0  0  0  0  0  0  0  0  0  0
   -6.9070   23.8300  -30.1110 C   0  0  0  0  0  0  0  0  0  0  0  0
   -5.6960   23.9890  -30.8010 C   0  0  0  0  0  0  0  0  0  0  0  0
   -4.9060   25.2350  -30.6650 C   0  0  0  0  0  0  0  0  0  0  0  0
   -5.4860   26.3500  -30.7690 O   0  0  0  0  0  0  0  0  0  0  0  0
   -3.5020   25.2180  -30.3700 N   0  0  0  0  0  0  0  0  0  0  0  0
   -2.8740   24.5130  -29.2900 C   0  0  0  0  0  0  0  0  0  0  0  0
   -3.5370   23.4880  -28.5930 C   0  0  0  0  0  0  0  0  0  0  0  0
   -2.8940   22.8120  -27.5520 C   0  0  0  0  0  0  0  0  0  0  0  0
   -1.5700   23.1420  -27.2010 C   0  0  0  0  0  0  0  0  0  0  0  0
   -0.8790   22.4980  -26.1610 O   0  0  0  0  0  0  0  0  0  0  0  0
   -0.3260   23.1440  -25.0150 C   0  0  0  0  0  0  0  0  0  0  0  0
    1.0140   23.4160  -25.2230 F   0  0  0  0  0  0  0  0  0  0  0  0
   -0.4790   22.3440  -23.8970 F   0  0  0  0  0  0  0  0  0  0  0  0
   -0.9950   24.3340  -24.8070 F   0  0  0  0  0  0  0  0  0  0  0  0
   -0.9070   24.1490  -27.9160 C   0  0  0  0  0  0  0  0  0  0  0  0
    0.3720   24.4740  -27.5990 F   0  0  0  0  0  0  0  0  0  0  0  0
   -1.5520   24.8220  -28.9570 C   0  0  0  0  0  0  0  0  0  0  0  0
   -5.2480   22.9590  -31.6410 C   0  0  0  0  0  0  0  0  0  0  0  0
   -5.9770   21.7660  -31.7650 C   0  0  0  0  0  0  0  0  0  0  0  0
   -5.4550   20.6950  -32.6360 C   0  0  0  0  0  0  0  0  0  0  0  0
   -6.4160   19.6950  -33.5920 S   0  0  0  0  0  0  0  0  0  0  0  0
   -5.1010   18.8550  -34.2170 C   0  0  0  0  0  0  0  0  0  0  0  0
   -5.1920   17.7840  -35.2490 C   0  0  0  0  0  0  0  0  0  0  0  0
   -3.9300   19.3410  -33.7490 N   0  0  0  0  0  0  0  0  0  0  0  0
   -4.1150   20.3660  -32.8720 C   0  0  0  0  0  0  0  0  0  0  0  0
   -2.9470   21.0650  -32.2500 C   0  0  0  0  0  0  0  0  0  0  0  0
  -10.0091   20.3128  -31.2704 H   0  0  0  0  0  0  0  0  0  0  0  0
   -9.2808   21.2571  -32.6137 H   0  0  0  0  0  0  0  0  0  0  0  0
   -9.1712   19.4642  -32.6137 H   0  0  0  0  0  0  0  0  0  0  0  0
   -8.5936   22.5395  -29.6921 H   0  0  0  0  0  0  0  0  0  0  0  0
   -7.2749   24.6372  -29.4605 H   0  0  0  0  0  0  0  0  0  0  0  0
   -4.5669   23.2165  -28.8681 H   0  0  0  0  0  0  0  0  0  0  0  0
   -3.4241   22.0188  -27.0044 H   0  0  0  0  0  0  0  0  0  0  0  0
   -1.0154   25.6008  -29.5187 H   0  0  0  0  0  0  0  0  0  0  0  0
   -4.3148   23.0876  -32.2090 H   0  0  0  0  0  0  0  0  0  0  0  0
   -5.2752   16.8048  -34.7548 H   0  0  0  0  0  0  0  0  0  0  0  0
   -6.0789   17.9543  -35.8770 H   0  0  0  0  0  0  0  0  0  0  0  0
   -4.2891   17.8023  -35.8770 H   0  0  0  0  0  0  0  0  0  0  0  0
   -3.0307   21.0149  -31.1543 H   0  0  0  0  0  0  0  0  0  0  0  0
   -2.0147   20.5763  -32.5692 H   0  0  0  0  0  0  0  0  0  0  0  0
   -2.9371   22.1176  -32.5692 H   0  0  0  0  0  0  0  0  0  0  0  0
  1  2  1  0
  2  3  1  0
  3  4  2  0
  4  5  1  0
  5  6  2  0
  6  7  1  0
  7  8  2  0
  7  9  1  0
  9 10  1  0
 10 11  2  0
 11 12  1  0
 12 13  2  0
 13 14  1  0
 14 15  1  0
 15 16  1  0
 15 17  1  0
 15 18  1  0
 13 19  1  0
 19 20  1  0
 19 21  2  0
  6 22  1  0
 22 23  2  0
 23 24  1  0
 24 25  1  0
 25 26  1  0
 26 27  1  0
 26 28  2  0
 28 29  1  0
 29 30  1  0
 23  3  1  0
 29 24  2  0
 21 10  1  0
  1 31  1  0
  1 32  1  0
  1 33  1  0
  4 34  1  0
  5 35  1  0
 11 36  1  0
 12 37  1  0
 21 38  1  0
 22 39  1  0
 27 40  1  0
 27 41  1  0
 27 42  1  0
 30 43  1  0
 30 44  1  0
 30 45  1  0
M  CHG  1   9  -1
M  END
>  <UniqueID>  (26) 
24

>  <SMILES>  (26) 
COc1ccc(C(=O)[N-]c2ccc(OC(F)(F)F)c(F)c2)cc1-c1sc(C)nc1C

>  <Energy>  (26) 
86.8676941536115

>  <Genealogy>  (26) 
COc1ccc(C(=O)[N-]c2ccc(OC(F)(F)F)c(F)c2)cc1-c1sc(C)nc1C (protonated)
COc1ccc(C(=O)[N-]c2ccc(OC(F)(F)F)c(F)c2)cc1-c1sc(C)nc1C (3D coordinates assigned)
COc1ccc(C(=O)[N-]c2ccc(OC(F)(F)F)c(F)c2)cc1-c1sc(C)nc1C (optimized conformer: 86.8676941536115 kcal/mol)

>  <smiles>  (26) 
COc1ccc(C(=O)Nc2ccc(OC(F)(F)F)c(F)c2)cc1-c1sc(C)nc1C

>  <score_type>  (26) 
oracle

>  <origin>  (26) 
adgpu

>  <m_score__min__energy>  (26) 
-10.039999999999999

>  <m_primary>  (26) 
energy

$$$$
26:0
     RDKit          3D

 32 33  0  0  0  0  0  0  0  0999 V2000
   -5.3000   15.0060  -33.8510 C   0  0  0  0  0  0  0  0  0  0  0  0
   -6.3330   15.9100  -34.2330 O   0  0  0  0  0  0  0  0  0  0  0  0
   -6.5080   17.1890  -33.6840 C   0  0  0  0  0  0  0  0  0  0  0  0
   -5.9390   18.2810  -34.3470 C   0  0  0  0  0  0  0  0  0  0  0  0
   -6.0850   19.5750  -33.8410 C   0  0  0  0  0  0  0  0  0  0  0  0
   -6.8120   19.8000  -32.6600 C   0  0  0  0  0  0  0  0  0  0  0  0
   -6.9600   21.1730  -32.1190 C   0  0  0  0  0  0  0  0  0  0  0  0
   -5.8310   21.8650  -31.6430 C   0  0  0  0  0  0  0  0  0  0  0  0
   -5.9540   23.1630  -31.1280 C   0  0  0  0  0  0  0  0  0  0  0  0
   -4.5360   24.0060  -30.5140 S   0  0  0  0  0  0  0  0  0  0  0  0
   -4.4520   23.8100  -28.7480 C   0  0  0  0  0  0  0  0  0  0  0  0
   -4.6230   25.4680  -30.8530 O   0  0  0  0  0  0  0  0  0  0  0  0
   -3.2950   23.4380  -31.1440 O   0  0  0  0  0  0  0  0  0  0  0  0
   -7.2140   23.7720  -31.0770 C   0  0  0  0  0  0  0  0  0  0  0  0
   -8.3390   23.0960  -31.5530 C   0  0  0  0  0  0  0  0  0  0  0  0
   -8.2190   21.8050  -32.0750 C   0  0  0  0  0  0  0  0  0  0  0  0
   -9.3240   21.1890  -32.5640 F   0  0  0  0  0  0  0  0  0  0  0  0
   -7.3800   18.7030  -31.9890 C   0  0  0  0  0  0  0  0  0  0  0  0
   -7.2320   17.4080  -32.4960 C   0  0  0  0  0  0  0  0  0  0  0  0
   -5.2434   14.9565  -32.7536 H   0  0  0  0  0  0  0  0  0  0  0  0
   -5.5210   14.0059  -34.2523 H   0  0  0  0  0  0  0  0  0  0  0  0
   -4.3381   15.3577  -34.2523 H   0  0  0  0  0  0  0  0  0  0  0  0
   -5.3714   18.1196  -35.2753 H   0  0  0  0  0  0  0  0  0  0  0  0
   -5.6276   20.4235  -34.3709 H   0  0  0  0  0  0  0  0  0  0  0  0
   -4.8428   21.3830  -31.6753 H   0  0  0  0  0  0  0  0  0  0  0  0
   -4.8403   24.7160  -28.2597 H   0  0  0  0  0  0  0  0  0  0  0  0
   -5.0574   22.9426  -28.4461 H   0  0  0  0  0  0  0  0  0  0  0  0
   -3.4064   23.6502  -28.4461 H   0  0  0  0  0  0  0  0  0  0  0  0
   -7.3176   24.7850  -30.6611 H   0  0  0  0  0  0  0  0  0  0  0  0
   -9.3251   23.5820  -31.5170 H   0  0  0  0  0  0  0  0  0  0  0  0
   -7.9447   18.8643  -31.0589 H   0  0  0  0  0  0  0  0  0  0  0  0
   -7.6830   16.5569  -31.9647 H   0  0  0  0  0  0  0  0  0  0  0  0
  1  2  1  0
  2  3  1  0
  3  4  2  0
  4  5  1  0
  5  6  2  0
  6  7  1  0
  7  8  2  0
  8  9  1  0
  9 10  1  0
 10 11  1  0
 10 12  2  0
 10 13  2  0
  9 14  2  0
 14 15  1  0
 15 16  2  0
 16 17  1  0
  6 18  1  0
 18 19  2  0
 19  3  1  0
 16  7  1  0
  1 20  1  0
  1 21  1  0
  1 22  1  0
  4 23  1  0
  5 24  1  0
  8 25  1  0
 11 26  1  0
 11 27  1  0
 11 28  1  0
 14 29  1  0
 15 30  1  0
 18 31  1  0
 19 32  1  0
M  END
>  <UniqueID>  (27) 
25

>  <SMILES>  (27) 
COc1ccc(-c2cc(S(C)(=O)=O)ccc2F)cc1

>  <Energy>  (27) 
35.21067983996277

>  <Genealogy>  (27) 
COc1ccc(-c2cc(S(C)(=O)=O)ccc2F)cc1 (3D coordinates assigned)
COc1ccc(-c2cc(S(C)(=O)=O)ccc2F)cc1 (optimized conformer: 35.21067983996277 kcal/mol)

>  <smiles>  (27) 
COc1ccc(-c2cc(S(C)(=O)=O)ccc2F)cc1

>  <score_type>  (27) 
oracle

>  <origin>  (27) 
adgpu

>  <m_score__min__energy>  (27) 
-8.0399999999999991

>  <m_primary>  (27) 
energy

$$$$
27:0
     RDKit          3D

 20 21  0  0  0  0  0  0  0  0999 V2000
   -3.8180   25.2990  -30.1260 N   0  0  0  0  0  0  0  0  0  0  0  0
   -4.8290   24.3820  -30.5530 C   0  0  0  0  0  0  0  0  0  0  0  0
   -6.1700   24.6100  -30.2210 C   0  0  0  0  0  0  0  0  0  0  0  0
   -7.1630   23.7190  -30.6340 C   0  0  0  0  0  0  0  0  0  0  0  0
   -6.8260   22.5850  -31.3900 C   0  0  0  0  0  0  0  0  0  0  0  0
   -7.7950   21.7140  -31.7950 N   0  0  0  0  0  0  0  0  0  0  0  0
   -7.4960   20.6080  -32.5280 C   0  0  0  0  0  0  0  0  0  0  0  0
   -6.1760   20.3340  -32.8870 C   0  0  0  0  0  0  0  0  0  0  0  0
   -5.1580   21.2030  -32.4900 C   0  0  0  0  0  0  0  0  0  0  0  0
   -3.9660   20.9500  -32.8180 O   0  0  0  0  0  0  0  0  0  0  0  0
   -5.4720   22.3470  -31.7320 C   0  0  0  0  0  0  0  0  0  0  0  0
   -4.4820   23.2520  -31.3080 C   0  0  0  0  0  0  0  0  0  0  0  0
   -3.7670   25.6120  -29.1310 H   0  0  0  0  0  0  0  0  0  0  0  0
   -3.1120   25.6700  -30.8010 H   0  0  0  0  0  0  0  0  0  0  0  0
   -6.4433   25.4971  -29.6308 H   0  0  0  0  0  0  0  0  0  0  0  0
   -8.2132   23.9065  -30.3659 H   0  0  0  0  0  0  0  0  0  0  0  0
   -8.7960   21.8870  -31.5440 H   0  0  0  0  0  0  0  0  0  0  0  0
   -8.3001   19.9252  -32.8398 H   0  0  0  0  0  0  0  0  0  0  0  0
   -5.9386   19.4382  -33.4796 H   0  0  0  0  0  0  0  0  0  0  0  0
   -3.4289   23.0723  -31.5703 H   0  0  0  0  0  0  0  0  0  0  0  0
  1  2  1  0
  2  3  2  0
  3  4  1  0
  4  5  2  0
  5  6  1  0
  6  7  1  0
  7  8  2  0
  8  9  1  0
  9 10  2  0
  9 11  1  0
 11 12  2  0
 12  2  1  0
 11  5  1  0
  1 13  1  0
  1 14  1  0
  3 15  1  0
  4 16  1  0
  6 17  1  0
  7 18  1  0
  8 19  1  0
 12 20  1  0
M  END
>  <UniqueID>  (28) 
26

>  <SMILES>  (28) 
Nc1ccc2[nH]ccc(=O)c2c1

>  <Energy>  (28) 
24.25336339438215

>  <Genealogy>  (28) 
Nc1ccc2[nH]ccc(=O)c2c1 (3D coordinates assigned)
Nc1ccc2[nH]ccc(=O)c2c1 (optimized conformer: 24.25336339438215 kcal/mol)

>  <smiles>  (28) 
Nc1ccc2[nH]ccc(=O)c2c1

>  <score_type>  (28) 
oracle

>  <origin>  (28) 
adgpu

>  <m_score__min__energy>  (28) 
-5.6799999999999997

>  <m_primary>  (28) 
energy

$$$$
28:0
     RDKit          3D

 31 32  0  0  0  0  0  0  0  0999 V2000
   -0.2530   22.6320  -23.8450 C   0  0  0  0  0  0  0  0  0  0  0  0
   -0.4630   22.7070  -25.2520 O   0  0  0  0  0  0  0  0  0  0  0  0
   -0.7200   23.8940  -25.9560 C   0  0  0  0  0  0  0  0  0  0  0  0
   -0.4250   25.1600  -25.4150 C   0  0  0  0  0  0  0  0  0  0  0  0
   -0.6740   26.3170  -26.1530 C   0  0  0  0  0  0  0  0  0  0  0  0
   -1.2320   26.2300  -27.4280 C   0  0  0  0  0  0  0  0  0  0  0  0
   -1.5630   24.9830  -27.9740 C   0  0  0  0  0  0  0  0  0  0  0  0
   -2.1390   24.9310  -29.2860 N   0  0  0  0  0  0  0  0  0  0  0  0
   -3.5060   24.5550  -29.5170 C   0  0  0  0  0  0  0  0  0  0  0  0
   -4.3080   24.4720  -28.5490 O   0  0  0  0  0  0  0  0  0  0  0  0
   -3.9970   24.3480  -30.8450 N   0  0  0  0  0  0  0  0  0  0  0  0
   -5.1830   23.6220  -31.2000 C   0  0  0  0  0  0  0  0  0  0  0  0
   -6.4680   24.1360  -30.9500 C   0  0  0  0  0  0  0  0  0  0  0  0
   -7.6010   23.4140  -31.3350 C   0  0  0  0  0  0  0  0  0  0  0  0
   -7.4620   22.1840  -31.9840 C   0  0  0  0  0  0  0  0  0  0  0  0
   -6.1870   21.6780  -32.2580 C   0  0  0  0  0  0  0  0  0  0  0  0
   -6.0120   20.1430  -33.0880 Cl  0  0  0  0  0  0  0  0  0  0  0  0
   -5.0520   22.4000  -31.8740 C   0  0  0  0  0  0  0  0  0  0  0  0
   -1.2850   23.8080  -27.2420 C   0  0  0  0  0  0  0  0  0  0  0  0
   -1.5590   22.2160  -27.9490 Cl  0  0  0  0  0  0  0  0  0  0  0  0
   -1.1636   22.9572  -23.3205 H   0  0  0  0  0  0  0  0  0  0  0  0
   -0.0187   21.5946  -23.5640 H   0  0  0  0  0  0  0  0  0  0  0  0
    0.5854   23.2863  -23.5640 H   0  0  0  0  0  0  0  0  0  0  0  0
    0.0041   25.2370  -24.4051 H   0  0  0  0  0  0  0  0  0  0  0  0
   -0.4294   27.3016  -25.7278 H   0  0  0  0  0  0  0  0  0  0  0  0
   -1.4134   27.1464  -28.0088 H   0  0  0  0  0  0  0  0  0  0  0  0
   -1.6160   25.3830  -30.0700 H   0  0  0  0  0  0  0  0  0  0  0  0
   -6.5816   25.1092  -30.4500 H   0  0  0  0  0  0  0  0  0  0  0  0
   -8.6041   23.8146  -31.1268 H   0  0  0  0  0  0  0  0  0  0  0  0
   -8.3552   21.6139  -32.2793 H   0  0  0  0  0  0  0  0  0  0  0  0
   -4.0506   22.0063  -32.1024 H   0  0  0  0  0  0  0  0  0  0  0  0
  1  2  1  0
  2  3  1  0
  3  4  2  0
  4  5  1  0
  5  6  2  0
  6  7  1  0
  7  8  1  0
  8  9  1  0
  9 10  2  0
  9 11  1  0
 11 12  1  0
 12 13  2  0
 13 14  1  0
 14 15  2  0
 15 16  1  0
 16 17  1  0
 16 18  2  0
  7 19  2  0
 19 20  1  0
 19  3  1  0
 18 12  1  0
  1 21  1  0
  1 22  1  0
  1 23  1  0
  4 24  1  0
  5 25  1  0
  6 26  1  0
  8 27  1  0
 13 28  1  0
 14 29  1  0
 15 30  1  0
 18 31  1  0
M  CHG  1  11  -1
M  END
>  <UniqueID>  (29) 
27

>  <SMILES>  (29) 
COc1cccc(NC(=O)[N-]c2cccc(Cl)c2)c1Cl

>  <Energy>  (29) 
40.880132201654355

>  <Genealogy>  (29) 
COc1cccc(NC(=O)[N-]c2cccc(Cl)c2)c1Cl (protonated)
COc1cccc(NC(=O)[N-]c2cccc(Cl)c2)c1Cl (3D coordinates assigned)
COc1cccc(NC(=O)[N-]c2cccc(Cl)c2)c1Cl (optimized conformer: 40.880132201654355 kcal/mol)

>  <smiles>  (29) 
COc1cccc(NC(=O)Nc2cccc(Cl)c2)c1Cl

>  <score_type>  (29) 
oracle

>  <origin>  (29) 
adgpu

>  <m_score__min__energy>  (29) 
-8.4299999999999997

>  <m_primary>  (29) 
energy

$$$$
29:0
     RDKit          3D

 32 33  0  0  0  0  0  0  0  0999 V2000
   -3.4690   21.6260  -33.8420 N   0  0  0  0  0  0  0  0  0  0  0  0
   -3.3230   21.5690  -32.3890 C   0  0  0  0  0  0  0  0  0  0  0  0
   -4.6940   21.5460  -31.7000 C   0  0  0  0  0  0  0  0  0  0  0  0
   -5.7390   21.7110  -32.6580 O   0  0  0  0  0  0  0  0  0  0  0  0
   -7.1160   21.5610  -32.4090 C   0  0  0  0  0  0  0  0  0  0  0  0
   -7.9160   22.6340  -31.9650 C   0  0  0  0  0  0  0  0  0  0  0  0
   -9.2710   22.4420  -31.6930 C   0  0  0  0  0  0  0  0  0  0  0  0
   -9.8470   21.1830  -31.8550 C   0  0  0  0  0  0  0  0  0  0  0  0
   -9.0700   20.1110  -32.2960 C   0  0  0  0  0  0  0  0  0  0  0  0
   -7.7060   20.2880  -32.5850 C   0  0  0  0  0  0  0  0  0  0  0  0
   -6.9100   19.1360  -33.0730 C   0  0  0  0  0  0  0  0  0  0  0  0
   -6.9190   17.9130  -32.3760 C   0  0  0  0  0  0  0  0  0  0  0  0
   -6.1600   16.8340  -32.8360 C   0  0  0  0  0  0  0  0  0  0  0  0
   -5.3830   16.9640  -33.9900 C   0  0  0  0  0  0  0  0  0  0  0  0
   -5.3610   18.1760  -34.6840 C   0  0  0  0  0  0  0  0  0  0  0  0
   -6.1180   19.2600  -34.2280 C   0  0  0  0  0  0  0  0  0  0  0  0
   -4.2300   22.3010  -34.0830 H   0  0  0  0  0  0  0  0  0  0  0  0
   -3.7230   20.6820  -34.2160 H   0  0  0  0  0  0  0  0  0  0  0  0
   -2.5770   21.9520  -34.2790 H   0  0  0  0  0  0  0  0  0  0  0  0
   -2.7689   20.6581  -32.1184 H   0  0  0  0  0  0  0  0  0  0  0  0
   -2.7778   22.4644  -32.0558 H   0  0  0  0  0  0  0  0  0  0  0  0
   -4.8240   20.5827  -31.1851 H   0  0  0  0  0  0  0  0  0  0  0  0
   -4.7418   22.3730  -30.9762 H   0  0  0  0  0  0  0  0  0  0  0  0
   -7.4684   23.6300  -31.8321 H   0  0  0  0  0  0  0  0  0  0  0  0
   -9.8865   23.2866  -31.3497 H   0  0  0  0  0  0  0  0  0  0  0  0
  -10.9145   21.0344  -31.6351 H   0  0  0  0  0  0  0  0  0  0  0  0
   -9.5290   19.1189  -32.4185 H   0  0  0  0  0  0  0  0  0  0  0  0
   -7.5263   17.8064  -31.4651 H   0  0  0  0  0  0  0  0  0  0  0  0
   -6.1741   15.8800  -32.2885 H   0  0  0  0  0  0  0  0  0  0  0  0
   -4.7887   16.1120  -34.3519 H   0  0  0  0  0  0  0  0  0  0  0  0
   -4.7471   18.2781  -35.5910 H   0  0  0  0  0  0  0  0  0  0  0  0
   -6.0936   20.2138  -34.7754 H   0  0  0  0  0  0  0  0  0  0  0  0
  1  2  1  0
  2  3  1  0
  3  4  1  0
  4  5  1  0
  5  6  2  0
  6  7  1  0
  7  8  2  0
  8  9  1  0
  9 10  2  0
 10 11  1  0
 11 12  2  0
 12 13  1  0
 13 14  2  0
 14 15  1  0
 15 16  2  0
 10  5  1  0
 16 11  1  0
  1 17  1  0
  1 18  1  0
  1 19  1  0
  2 20  1  0
  2 21  1  0
  3 22  1  0
  3 23  1  0
  6 24  1  0
  7 25  1  0
  8 26  1  0
  9 27  1  0
 12 28  1  0
 13 29  1  0
 14 30  1  0
 15 31  1  0
 16 32  1  0
M  CHG  1   1   1
M  END
>  <UniqueID>  (30) 
28

>  <SMILES>  (30) 
[NH3+]CCOc1ccccc1-c1ccccc1

>  <Energy>  (30) 
35.90730036999165

>  <Genealogy>  (30) 
[NH3+]CCOc1ccccc1-c1ccccc1 (protonated)
[NH3+]CCOc1ccccc1-c1ccccc1 (3D coordinates assigned)
[NH3+]CCOc1ccccc1-c1ccccc1 (optimized conformer: 35.90730036999165 kcal/mol)

>  <smiles>  (30) 
NCCOc1ccccc1-c1ccccc1

>  <score_type>  (30) 
oracle

>  <origin>  (30) 
adgpu

>  <m_score__min__energy>  (30) 
-5.71

>  <m_primary>  (30) 
energy

$$$$
30:0
     RDKit          3D

 35 36  0  0  0  0  0  0  0  0999 V2000
   -9.1280   18.1740  -31.8930 N   0  0  0  0  0  0  0  0  0  0  0  0
   -8.8640   19.2920  -31.7460 C   0  0  0  0  0  0  0  0  0  0  0  0
   -8.5310   20.7090  -31.5590 C   0  0  0  0  0  0  0  0  0  0  0  0
   -7.6290   21.2000  -32.7040 C   0  0  0  0  0  0  0  0  0  0  0  0
   -6.3870   21.8450  -32.2200 N   0  0  1  0  0  0  0  0  0  0  0  0
   -6.4620   22.4000  -30.8450 C   0  0  0  0  0  0  0  0  0  0  0  0
   -5.7850   23.7350  -30.6600 C   0  0  0  0  0  0  0  0  0  0  0  0
   -6.3860   24.9620  -30.4640 C   0  0  0  0  0  0  0  0  0  0  0  0
   -5.3600   25.8830  -30.4600 C   0  0  0  0  0  0  0  0  0  0  0  0
   -4.2140   25.2740  -30.6680 O   0  0  0  0  0  0  0  0  0  0  0  0
   -4.4360   23.9880  -30.8070 C   0  0  0  0  0  0  0  0  0  0  0  0
   -5.0120   20.7750  -32.4310 S   0  0  0  0  0  0  0  0  0  0  0  0
   -4.1060   21.3490  -33.4840 O   0  0  0  0  0  0  0  0  0  0  0  0
   -4.2330   20.7070  -31.1450 O   0  0  0  0  0  0  0  0  0  0  0  0
   -5.4610   19.1380  -32.9320 C   0  0  0  0  0  0  0  0  0  0  0  0
   -5.7560   18.1550  -31.9730 C   0  0  0  0  0  0  0  0  0  0  0  0
   -6.1110   16.8640  -32.3720 C   0  0  0  0  0  0  0  0  0  0  0  0
   -6.1490   16.5340  -33.7300 C   0  0  0  0  0  0  0  0  0  0  0  0
   -6.5960   14.9140  -34.2290 Cl  0  0  0  0  0  0  0  0  0  0  0  0
   -5.8160   17.4960  -34.6880 C   0  0  0  0  0  0  0  0  0  0  0  0
   -5.4630   18.7890  -34.2910 C   0  0  0  0  0  0  0  0  0  0  0  0
   -9.4579   21.3013  -31.5475 H   0  0  0  0  0  0  0  0  0  0  0  0
   -7.9961   20.8284  -30.6052 H   0  0  0  0  0  0  0  0  0  0  0  0
   -7.3562   20.3382  -33.3307 H   0  0  0  0  0  0  0  0  0  0  0  0
   -8.1945   21.9542  -33.2709 H   0  0  0  0  0  0  0  0  0  0  0  0
   -6.1970   22.6560  -32.8530 H   0  0  0  0  0  0  0  0  0  0  0  0
   -7.5235   22.5160  -30.5810 H   0  0  0  0  0  0  0  0  0  0  0  0
   -5.9264   21.6907  -30.1969 H   0  0  0  0  0  0  0  0  0  0  0  0
   -7.4600   25.1632  -30.3374 H   0  0  0  0  0  0  0  0  0  0  0  0
   -5.4822   26.9653  -30.3058 H   0  0  0  0  0  0  0  0  0  0  0  0
   -3.6660   23.2290  -31.0094 H   0  0  0  0  0  0  0  0  0  0  0  0
   -5.7073   18.4029  -30.9024 H   0  0  0  0  0  0  0  0  0  0  0  0
   -6.3612   16.1053  -31.6158 H   0  0  0  0  0  0  0  0  0  0  0  0
   -5.8318   17.2350  -35.7565 H   0  0  0  0  0  0  0  0  0  0  0  0
   -5.1853   19.5370  -35.0482 H   0  0  0  0  0  0  0  0  0  0  0  0
  1  2  3  0
  2  3  1  0
  3  4  1  0
  4  5  1  0
  5  6  1  0
  6  7  1  0
  7  8  1  0
  8  9  2  0
  9 10  1  0
 10 11  1  0
  5 12  1  0
 12 13  2  0
 12 14  2  0
 12 15  1  0
 15 16  2  0
 16 17  1  0
 17 18  2  0
 18 19  1  0
 18 20  1  0
 20 21  2  0
 11  7  2  0
 21 15  1  0
  3 22  1  0
  3 23  1  0
  4 24  1  0
  4 25  1  0
  5 26  1  6
  6 27  1  0
  6 28  1  0
  8 29  1  0
  9 30  1  0
 11 31  1  0
 16 32  1  0
 17 33  1  0
 20 34  1  0
 21 35  1  0
M  CHG  1   5   1
M  END
>  <UniqueID>  (31) 
29

>  <SMILES>  (31) 
N#CCC[N@@H+](Cc1ccoc1)S(=O)(=O)c1ccc(Cl)cc1

>  <Energy>  (31) 
61.51104753991498

>  <Genealogy>  (31) 
N#CCC[NH+](Cc1ccoc1)S(=O)(=O)c1ccc(Cl)cc1 (protonated)
N#CCC[N@@H+](Cc1ccoc1)S(=O)(=O)c1ccc(Cl)cc1 (chirality)
N#CCC[N@@H+](Cc1ccoc1)S(=O)(=O)c1ccc(Cl)cc1 (3D coordinates assigned)
N#CCC[N@@H+](Cc1ccoc1)S(=O)(=O)c1ccc(Cl)cc1 (optimized conformer: 61.51104753991498 kcal/mol)

>  <smiles>  (31) 
N#CCCN(Cc1ccoc1)S(=O)(=O)c1ccc(Cl)cc1

>  <score_type>  (31) 
oracle

>  <origin>  (31) 
adgpu

>  <m_score__min__energy>  (31) 
-7.5899999999999999

>  <m_primary>  (31) 
energy

$$$$
31:0
     RDKit          3D

 41 43  0  0  0  0  0  0  0  0999 V2000
   -3.7737   24.4361  -31.5596 H   0  0  0  0  0  0  0  0  0  0  0  0
   -3.7750   24.1670  -30.4930 C   0  0  0  0  0  0  0  0  0  0  0  0
   -2.9720   24.8370  -29.6250 N   0  0  0  0  0  0  0  0  0  0  0  0
   -2.9370   24.5470  -28.2950 C   0  0  0  0  0  0  0  0  0  0  0  0
   -2.1610   25.1940  -27.4720 N   0  0  0  0  0  0  0  0  0  0  0  0
   -1.2400   26.2660  -27.7450 C   0  0  0  0  0  0  0  0  0  0  0  0
   -1.1750   26.7130  -28.9210 O   0  0  0  0  0  0  0  0  0  0  0  0
   -0.3560   26.8800  -26.7000 C   0  0  0  0  0  0  0  0  0  0  0  0
   -0.7333   26.6179  -25.7005 H   0  0  0  0  0  0  0  0  0  0  0  0
    0.6691   26.4985  -26.8166 H   0  0  0  0  0  0  0  0  0  0  0  0
   -0.3556   27.9738  -26.8166 H   0  0  0  0  0  0  0  0  0  0  0  0
   -3.7560   23.5280  -27.7960 C   0  0  0  0  0  0  0  0  0  0  0  0
   -3.7413   23.2820  -26.7240 H   0  0  0  0  0  0  0  0  0  0  0  0
   -4.5920   22.8250  -28.6660 C   0  0  0  0  0  0  0  0  0  0  0  0
   -5.2416   22.0271  -28.2770 H   0  0  0  0  0  0  0  0  0  0  0  0
   -4.6060   23.1330  -30.0340 C   0  0  0  0  0  0  0  0  0  0  0  0
   -5.4910   22.3960  -30.9660 C   0  0  0  0  0  0  0  0  0  0  0  0
   -6.8850   22.4820  -30.8080 C   0  0  0  0  0  0  0  0  0  0  0  0
   -7.3046   23.0940  -29.9960 H   0  0  0  0  0  0  0  0  0  0  0  0
   -7.7420   21.7980  -31.6720 C   0  0  0  0  0  0  0  0  0  0  0  0
   -9.4810   21.9240  -31.4670 Cl  0  0  0  0  0  0  0  0  0  0  0  0
   -7.2160   21.0190  -32.7030 C   0  0  0  0  0  0  0  0  0  0  0  0
   -7.8918   20.4850  -33.3871 H   0  0  0  0  0  0  0  0  0  0  0  0
   -5.8340   20.9160  -32.8680 C   0  0  0  0  0  0  0  0  0  0  0  0
   -5.4267   20.3016  -33.6845 H   0  0  0  0  0  0  0  0  0  0  0  0
   -4.9560   21.5920  -31.9980 C   0  0  0  0  0  0  0  0  0  0  0  0
   -3.5590   21.4780  -32.1160 O   0  0  0  0  0  0  0  0  0  0  0  0
   -2.7530   20.4710  -31.5040 C   0  0  0  0  0  0  0  0  0  0  0  0
   -3.3981   19.6439  -31.1729 H   0  0  0  0  0  0  0  0  0  0  0  0
   -2.0181   20.1109  -32.2390 H   0  0  0  0  0  0  0  0  0  0  0  0
   -2.0160   21.0290  -30.3160 C   0  0  0  0  0  0  0  0  0  0  0  0
   -1.1390   22.1150  -30.4770 C   0  0  0  0  0  0  0  0  0  0  0  0
   -0.9965   22.5609  -31.4724 H   0  0  0  0  0  0  0  0  0  0  0  0
   -0.4470   22.6310  -29.3780 C   0  0  0  0  0  0  0  0  0  0  0  0
    0.2329   23.4858  -29.5087 H   0  0  0  0  0  0  0  0  0  0  0  0
   -0.6180   22.0620  -28.1130 C   0  0  0  0  0  0  0  0  0  0  0  0
   -0.0742   22.4704  -27.2484 H   0  0  0  0  0  0  0  0  0  0  0  0
   -1.4790   20.9750  -27.9460 C   0  0  0  0  0  0  0  0  0  0  0  0
   -1.6108   20.5270  -26.9500 H   0  0  0  0  0  0  0  0  0  0  0  0
   -2.1740   20.4550  -29.0430 C   0  0  0  0  0  0  0  0  0  0  0  0
   -2.8460   19.5945  -28.9088 H   0  0  0  0  0  0  0  0  0  0  0  0
  1  2  1  0
  2  3  1  0
  3  4  1  0
  4  5  2  0
  5  6  1  0
  6  7  2  0
  6  8  1  0
  8  9  1  0
  8 10  1  0
  8 11  1  0
  4 12  1  0
 12 13  1  0
 12 14  2  0
 14 15  1  0
 14 16  1  0
 16 17  1  0
 17 18  2  0
 18 19  1  0
 18 20  1  0
 20 21  1  0
 20 22  2  0
 22 23  1  0
 22 24  1  0
 24 25  1  0
 24 26  2  0
 26 27  1  0
 27 28  1  0
 28 29  1  0
 28 30  1  0
 28 31  1  0
 31 32  2  0
 32 33  1  0
 32 34  1  0
 34 35  1  0
 34 36  2  0
 36 37  1  0
 36 38  1  0
 38 39  1  0
 38 40  2  0
 40 41  1  0
 16  2  2  0
 26 17  1  0
 40 31  1  0
M  CHG  1   3  -1
M  END
>  <UniqueID>  (32) 
30

>  <SMILES>  (32) 
CC(=O)/N=c1/ccc(-c2cc(Cl)ccc2OCc2ccccc2)c[n-]1

>  <Energy>  (32) 
53.05302811279871

>  <Genealogy>  (32) 
CC(=O)N=c1ccc(-c2cc(Cl)ccc2OCc2ccccc2)c[n-]1 (protonated)
CC(=O)/N=c1/ccc(-c2cc(Cl)ccc2OCc2ccccc2)c[n-]1 (cis-trans isomerization)
CC(=O)/N=c1/ccc(-c2cc(Cl)ccc2OCc2ccccc2)c[n-]1 (3D coordinates assigned)
CC(=O)/N=c1/ccc(-c2cc(Cl)ccc2OCc2ccccc2)c[n-]1 (optimized conformer: 53.05302811279871 kcal/mol)

>  <smiles>  (32) 
CC(=O)N=c1ccc(-c2cc(Cl)ccc2OCc2ccccc2)c[nH]1

>  <score_type>  (32) 
oracle

>  <origin>  (32) 
adgpu

>  <m_score__min__energy>  (32) 
-9.0700000000000003

>  <m_primary>  (32) 
energy

$$$$
32:0
     RDKit          3D

 27 28  0  0  0  0  0  0  0  0999 V2000
   -1.2270   25.9210  -28.8370 N   0  0  0  0  0  0  0  0  0  0  0  0
   -2.3430   24.6030  -28.9410 S   0  0  0  0  0  0  0  0  0  0  0  0
   -1.6000   23.3210  -29.1960 O   0  0  0  0  0  0  0  0  0  0  0  0
   -3.0790   24.4880  -27.6370 O   0  0  0  0  0  0  0  0  0  0  0  0
   -3.4780   24.8890  -30.1910 O   0  0  0  0  0  0  0  0  0  0  0  0
   -4.5030   24.0120  -30.5740 C   0  0  0  0  0  0  0  0  0  0  0  0
   -4.1520   22.8690  -31.3000 C   0  0  0  0  0  0  0  0  0  0  0  0
   -5.1290   21.9560  -31.7100 C   0  0  0  0  0  0  0  0  0  0  0  0
   -6.4830   22.1740  -31.4010 C   0  0  0  0  0  0  0  0  0  0  0  0
   -7.5230   21.2060  -31.8360 C   0  0  0  0  0  0  0  0  0  0  0  0
   -7.1720   19.8880  -32.1840 C   0  0  0  0  0  0  0  0  0  0  0  0
   -8.1530   18.9790  -32.5920 C   0  0  0  0  0  0  0  0  0  0  0  0
   -9.4910   19.3730  -32.6580 C   0  0  0  0  0  0  0  0  0  0  0  0
   -9.8520   20.6780  -32.3150 C   0  0  0  0  0  0  0  0  0  0  0  0
   -8.8750   21.5910  -31.9050 C   0  0  0  0  0  0  0  0  0  0  0  0
   -6.8350   23.3250  -30.6750 C   0  0  0  0  0  0  0  0  0  0  0  0
   -5.8570   24.2350  -30.2650 C   0  0  0  0  0  0  0  0  0  0  0  0
   -1.2300   26.4140  -29.7560 H   0  0  0  0  0  0  0  0  0  0  0  0
   -3.0967   22.6863  -31.5510 H   0  0  0  0  0  0  0  0  0  0  0  0
   -4.8358   21.0610  -32.2783 H   0  0  0  0  0  0  0  0  0  0  0  0
   -6.1197   19.5713  -32.1347 H   0  0  0  0  0  0  0  0  0  0  0  0
   -7.8700   17.9508  -32.8617 H   0  0  0  0  0  0  0  0  0  0  0  0
  -10.2605   18.6559  -32.9800 H   0  0  0  0  0  0  0  0  0  0  0  0
  -10.9061   20.9881  -32.3674 H   0  0  0  0  0  0  0  0  0  0  0  0
   -9.1653   22.6170  -31.6346 H   0  0  0  0  0  0  0  0  0  0  0  0
   -7.8904   23.5112  -30.4272 H   0  0  0  0  0  0  0  0  0  0  0  0
   -6.1477   25.1311  -29.6972 H   0  0  0  0  0  0  0  0  0  0  0  0
  1  2  1  0
  2  3  2  0
  2  4  2  0
  2  5  1  0
  5  6  1  0
  6  7  2  0
  7  8  1  0
  8  9  2  0
  9 10  1  0
 10 11  2  0
 11 12  1  0
 12 13  2  0
 13 14  1  0
 14 15  2  0
  9 16  1  0
 16 17  2  0
 17  6  1  0
 15 10  1  0
  1 18  1  0
  7 19  1  0
  8 20  1  0
 11 21  1  0
 12 22  1  0
 13 23  1  0
 14 24  1  0
 15 25  1  0
 16 26  1  0
 17 27  1  0
M  CHG  1   1  -1
M  END
>  <UniqueID>  (33) 
31

>  <SMILES>  (33) 
[NH-]S(=O)(=O)Oc1ccc(-c2ccccc2)cc1

>  <Energy>  (33) 
31.43440459114606

>  <Genealogy>  (33) 
[NH-]S(=O)(=O)Oc1ccc(-c2ccccc2)cc1 (protonated)
[NH-]S(=O)(=O)Oc1ccc(-c2ccccc2)cc1 (3D coordinates assigned)
[NH-]S(=O)(=O)Oc1ccc(-c2ccccc2)cc1 (optimized conformer: 31.43440459114606 kcal/mol)

>  <smiles>  (33) 
NS(=O)(=O)Oc1ccc(-c2ccccc2)cc1

>  <score_type>  (33) 
oracle

>  <origin>  (33) 
adgpu

>  <m_score__min__energy>  (33) 
-9.9399999999999995

>  <m_primary>  (33) 
energy

$$$$
33:0
     RDKit          3D

 45 49  0  0  0  0  0  0  0  0999 V2000
   -1.6400   15.5120  -38.4360 H   0  0  0  0  0  0  0  0  0  0  0  0
   -1.8960   14.5550  -38.1060 N   0  0  0  0  0  0  0  0  0  0  0  0
   -2.6280   14.3730  -37.0550 C   0  0  0  0  0  0  0  0  0  0  0  0
   -3.0840   15.4440  -36.3500 N   0  0  0  0  0  0  0  0  0  0  0  0
   -3.8590   15.2930  -35.2410 C   0  0  0  0  0  0  0  0  0  0  0  0
   -4.3240   16.5000  -34.5090 C   0  0  0  0  0  0  0  0  0  0  0  0
   -3.4290   17.5440  -34.1620 C   0  0  0  0  0  0  0  0  0  0  0  0
   -2.3668   17.4726  -34.4390 H   0  0  0  0  0  0  0  0  0  0  0  0
   -3.8980   18.6670  -33.4660 C   0  0  0  0  0  0  0  0  0  0  0  0
   -3.2185   19.4920  -33.2060 H   0  0  0  0  0  0  0  0  0  0  0  0
   -5.2110   18.7130  -33.1200 N   0  0  0  0  0  0  0  0  0  0  0  0
   -5.9310   19.6570  -32.4850 C   0  0  0  0  0  0  0  0  0  0  0  0
   -5.4180   20.9180  -31.9080 C   0  0  0  0  0  0  0  0  0  0  0  0
   -6.2790   22.0020  -31.6760 C   0  0  0  0  0  0  0  0  0  0  0  0
   -7.3495   21.9112  -31.9121 H   0  0  0  0  0  0  0  0  0  0  0  0
   -5.7820   23.1970  -31.1460 C   0  0  0  0  0  0  0  0  0  0  0  0
   -6.4639   24.0419  -30.9696 H   0  0  0  0  0  0  0  0  0  0  0  0
   -4.4200   23.3250  -30.8380 C   0  0  0  0  0  0  0  0  0  0  0  0
   -3.9080   24.5950  -30.2810 C   0  0  0  0  0  0  0  0  0  0  0  0
   -4.1990   25.6770  -30.8550 O   0  0  0  0  0  0  0  0  0  0  0  0
   -3.1220   24.6420  -29.0830 N   0  0  0  0  0  0  0  0  0  0  0  0
   -1.6780   24.8480  -29.0500 C   0  0  0  0  0  0  0  0  0  0  0  0
   -1.6604   25.8504  -29.5027 H   0  0  0  0  0  0  0  0  0  0  0  0
   -1.0220   24.1840  -27.8550 C   0  0  0  0  0  0  0  0  0  0  0  0
   -0.1598   24.6605  -27.3656 H   0  0  0  0  0  0  0  0  0  0  0  0
   -1.3729   23.8170  -26.8792 H   0  0  0  0  0  0  0  0  0  0  0  0
   -0.8700   23.5770  -29.2410 C   0  0  0  0  0  0  0  0  0  0  0  0
    0.1019   23.6147  -29.7548 H   0  0  0  0  0  0  0  0  0  0  0  0
   -1.0654   22.5894  -29.6842 H   0  0  0  0  0  0  0  0  0  0  0  0
   -3.5530   22.2560  -31.1080 C   0  0  0  0  0  0  0  0  0  0  0  0
   -2.4777   22.3573  -30.8995 H   0  0  0  0  0  0  0  0  0  0  0  0
   -4.0490   21.0620  -31.6410 C   0  0  0  0  0  0  0  0  0  0  0  0
   -3.3607   20.2304  -31.8522 H   0  0  0  0  0  0  0  0  0  0  0  0
   -7.2490   19.2290  -32.4620 C   0  0  0  0  0  0  0  0  0  0  0  0
   -8.0871   19.7883  -32.0206 H   0  0  0  0  0  0  0  0  0  0  0  0
   -7.3520   18.0210  -33.0630 N   0  0  0  0  0  0  0  0  0  0  0  0
   -6.0890   17.7490  -33.4470 C   0  0  0  0  0  0  0  0  0  0  0  0
   -5.6820   16.6090  -34.1380 C   0  0  0  0  0  0  0  0  0  0  0  0
   -6.4005   15.8144  -34.3880 H   0  0  0  0  0  0  0  0  0  0  0  0
   -4.1810   13.9950  -34.8110 C   0  0  0  0  0  0  0  0  0  0  0  0
   -4.7960   13.8385  -33.9125 H   0  0  0  0  0  0  0  0  0  0  0  0
   -3.7060   12.9090  -35.5450 C   0  0  0  0  0  0  0  0  0  0  0  0
   -3.9497   11.8843  -35.2277 H   0  0  0  0  0  0  0  0  0  0  0  0
   -2.9430   13.1120  -36.6510 N   0  0  0  0  0  0  0  0  0  0  0  0
   -2.5960   12.2860  -37.1890 H   0  0  0  0  0  0  0  0  0  0  0  0
  1  2  1  0
  2  3  2  0
  3  4  1  0
  4  5  2  0
  5  6  1  0
  6  7  1  0
  7  8  1  0
  7  9  2  0
  9 10  1  0
  9 11  1  0
 11 12  1  0
 12 13  1  0
 13 14  2  0
 14 15  1  0
 14 16  1  0
 16 17  1  0
 16 18  2  0
 18 19  1  0
 19 20  2  0
 19 21  1  0
 21 22  1  0
 22 23  1  0
 22 24  1  0
 24 25  1  0
 24 26  1  0
 24 27  1  0
 27 28  1  0
 27 29  1  0
 18 30  1  0
 30 31  1  0
 30 32  2  0
 32 33  1  0
 12 34  2  0
 34 35  1  0
 34 36  1  0
 36 37  2  0
 37 38  1  0
 38 39  1  0
  5 40  1  0
 40 41  1  0
 40 42  2  0
 42 43  1  0
 42 44  1  0
 44 45  1  0
 44  3  1  0
 38  6  2  0
 37 11  1  0
 32 13  1  0
 27 22  1  0
M  CHG  1  21  -1
M  END
>  <UniqueID>  (34) 
32

>  <SMILES>  (34) 
[H]/N=c1\nc(-c2ccn3c(-c4ccc(C(=O)[N-]C5CC5)cc4)cnc3c2)cc[nH]1

>  <Energy>  (34) 
362.95194404271535

>  <Genealogy>  (34) 
N=c1nc(-c2ccn3c(-c4ccc(C(=O)[N-]C5CC5)cc4)cnc3c2)cc[nH]1 (protonated)
[H]/N=c1\nc(-c2ccn3c(-c4ccc(C(=O)[N-]C5CC5)cc4)cnc3c2)cc[nH]1 (cis-trans isomerization)
[H]/N=c1\nc(-c2ccn3c(-c4ccc(C(=O)[N-]C5CC5)cc4)cnc3c2)cc[nH]1 (3D coordinates assigned)
[H]/N=c1\nc(-c2ccn3c(-c4ccc(C(=O)[N-]C5CC5)cc4)cnc3c2)cc[nH]1 (nonaromatic ring conformer: 362.95194404271535 kcal/mol)

>  <smiles>  (34) 
N=c1nc(-c2ccn3c(-c4ccc(C(=O)NC5CC5)cc4)cnc3c2)cc[nH]1

>  <score_type>  (34) 
oracle

>  <origin>  (34) 
adgpu

>  <m_score__min__energy>  (34) 
-10.67

>  <m_primary>  (34) 
energy

$$$$
34:0
     RDKit          3D

 51 53  0  0  0  0  0  0  0  0999 V2000
   -4.9620   18.1590  -34.2720 C   0  0  0  0  0  0  0  0  0  0  0  0
   -4.8810   18.7840  -32.8830 C   0  0  0  0  0  0  0  0  0  0  0  0
   -5.7720   20.0070  -32.7330 C   0  0  0  0  0  0  0  0  0  0  0  0
   -5.2390   21.3160  -32.6300 C   0  0  0  0  0  0  0  0  0  0  0  0
   -3.5190   21.5860  -33.1500 S   0  0  0  0  0  0  0  0  0  0  0  0
   -2.8130   21.3740  -31.5020 C   0  0  0  0  0  0  0  0  0  0  0  0
   -1.4440   21.5720  -31.2580 C   0  0  0  0  0  0  0  0  0  0  0  0
   -0.9240   21.3960  -29.9720 C   0  0  0  0  0  0  0  0  0  0  0  0
   -1.7660   21.0130  -28.9220 C   0  0  0  0  0  0  0  0  0  0  0  0
   -1.1120   20.7950  -27.3080 Cl  0  0  0  0  0  0  0  0  0  0  0  0
   -3.1280   20.8020  -29.1610 C   0  0  0  0  0  0  0  0  0  0  0  0
   -3.6480   20.9780  -30.4470 C   0  0  0  0  0  0  0  0  0  0  0  0
   -6.0280   22.3550  -32.1750 N   0  0  0  0  0  0  0  0  0  0  0  0
   -5.3920   23.6060  -31.7000 C   0  0  0  0  0  0  0  0  0  0  0  0
   -5.7300   23.8660  -29.9620 S   0  0  0  0  0  0  0  0  0  0  0  0
   -6.4130   22.6440  -29.4110 O   0  0  0  0  0  0  0  0  0  0  0  0
   -6.6520   25.0410  -29.7930 O   0  0  0  0  0  0  0  0  0  0  0  0
   -4.2420   24.1650  -29.0670 C   0  0  0  0  0  0  0  0  0  0  0  0
   -4.2430   24.1600  -27.6650 C   0  0  0  0  0  0  0  0  0  0  0  0
   -3.0520   24.3560  -26.9610 C   0  0  0  0  0  0  0  0  0  0  0  0
   -1.8490   24.5700  -27.6490 C   0  0  0  0  0  0  0  0  0  0  0  0
   -0.5640   24.7420  -26.8950 C   0  0  0  0  0  0  0  0  0  0  0  0
   -1.8480   24.5590  -29.0520 C   0  0  0  0  0  0  0  0  0  0  0  0
   -3.0390   24.3650  -29.7570 C   0  0  0  0  0  0  0  0  0  0  0  0
   -7.3930   22.1780  -32.0460 C   0  0  0  0  0  0  0  0  0  0  0  0
   -8.3240   23.3100  -31.6770 C   0  0  0  0  0  0  0  0  0  0  0  0
   -7.9630   20.9230  -32.2900 C   0  0  0  0  0  0  0  0  0  0  0  0
   -7.1570   19.8360  -32.5930 C   0  0  0  0  0  0  0  0  0  0  0  0
   -7.6850   18.6990  -32.7350 O   0  0  0  0  0  0  0  0  0  0  0  0
   -5.1029   17.0722  -34.1774 H   0  0  0  0  0  0  0  0  0  0  0  0
   -5.8115   18.5925  -34.8202 H   0  0  0  0  0  0  0  0  0  0  0  0
   -4.0301   18.3616  -34.8202 H   0  0  0  0  0  0  0  0  0  0  0  0
   -5.1885   18.0323  -32.1411 H   0  0  0  0  0  0  0  0  0  0  0  0
   -3.8422   19.1106  -32.7274 H   0  0  0  0  0  0  0  0  0  0  0  0
   -0.7780   21.8668  -32.0823 H   0  0  0  0  0  0  0  0  0  0  0  0
    0.1478   21.5587  -29.7856 H   0  0  0  0  0  0  0  0  0  0  0  0
   -3.7901   20.4975  -28.3371 H   0  0  0  0  0  0  0  0  0  0  0  0
   -4.7184   20.8048  -30.6323 H   0  0  0  0  0  0  0  0  0  0  0  0
   -4.3044   23.5380  -31.8503 H   0  0  0  0  0  0  0  0  0  0  0  0
   -5.8036   24.4513  -32.2710 H   0  0  0  0  0  0  0  0  0  0  0  0
   -5.1839   24.0013  -27.1177 H   0  0  0  0  0  0  0  0  0  0  0  0
   -3.0581   24.3424  -25.8611 H   0  0  0  0  0  0  0  0  0  0  0  0
   -0.7666   24.7149  -25.8142 H   0  0  0  0  0  0  0  0  0  0  0  0
    0.1277   23.9284  -27.1589 H   0  0  0  0  0  0  0  0  0  0  0  0
   -0.1106   25.7088  -27.1589 H   0  0  0  0  0  0  0  0  0  0  0  0
   -0.9051   24.7038  -29.5998 H   0  0  0  0  0  0  0  0  0  0  0  0
   -3.0320   24.3693  -30.8570 H   0  0  0  0  0  0  0  0  0  0  0  0
   -8.3890   23.3891  -30.5818 H   0  0  0  0  0  0  0  0  0  0  0  0
   -7.9366   24.2529  -32.0903 H   0  0  0  0  0  0  0  0  0  0  0  0
   -9.3240   23.1119  -32.0903 H   0  0  0  0  0  0  0  0  0  0  0  0
   -9.0548   20.7985  -32.2412 H   0  0  0  0  0  0  0  0  0  0  0  0
  1  2  1  0
  2  3  1  0
  3  4  2  0
  4  5  1  0
  5  6  1  0
  6  7  2  0
  7  8  1  0
  8  9  2  0
  9 10  1  0
  9 11  1  0
 11 12  2  0
  4 13  1  0
 13 14  1  0
 14 15  1  0
 15 16  2  0
 15 17  2  0
 15 18  1  0
 18 19  2  0
 19 20  1  0
 20 21  2  0
 21 22  1  0
 21 23  1  0
 23 24  2  0
 13 25  1  0
 25 26  1  0
 25 27  2  0
 27 28  1  0
 28 29  2  0
 28  3  1  0
 12  6  1  0
 24 18  1  0
  1 30  1  0
  1 31  1  0
  1 32  1  0
  2 33  1  0
  2 34  1  0
  7 35  1  0
  8 36  1  0
 11 37  1  0
 12 38  1  0
 14 39  1  0
 14 40  1  0
 19 41  1  0
 20 42  1  0
 22 43  1  0
 22 44  1  0
 22 45  1  0
 23 46  1  0
 24 47  1  0
 26 48  1  0
 26 49  1  0
 26 50  1  0
 27 51  1  0
M  END
>  <UniqueID>  (35) 
33

>  <SMILES>  (35) 
CCc1c(Sc2ccc(Cl)cc2)n(CS(=O)(=O)c2ccc(C)cc2)c(C)cc1=O

>  <Energy>  (35) 
56.48700829081867

>  <Genealogy>  (35) 
CCc1c(Sc2ccc(Cl)cc2)n(CS(=O)(=O)c2ccc(C)cc2)c(C)cc1=O (3D coordinates assigned)
CCc1c(Sc2ccc(Cl)cc2)n(CS(=O)(=O)c2ccc(C)cc2)c(C)cc1=O (optimized conformer: 56.48700829081867 kcal/mol)

>  <smiles>  (35) 
CCc1c(Sc2ccc(Cl)cc2)n(CS(=O)(=O)c2ccc(C)cc2)c(C)cc1=O

>  <score_type>  (35) 
oracle

>  <origin>  (35) 
adgpu

>  <m_score__min__energy>  (35) 
-9.0999999999999996

>  <m_primary>  (35) 
energy

$$$$
35:0
     RDKit          3D

 46 48  0  0  0  0  0  0  0  0999 V2000
   -3.1790   20.3370  -32.9950 C   0  0  0  0  0  0  0  0  0  0  0  0
   -4.1710   19.7680  -33.8510 O   0  0  0  0  0  0  0  0  0  0  0  0
   -4.5330   18.4100  -33.8470 C   0  0  0  0  0  0  0  0  0  0  0  0
   -3.5660   17.3820  -33.8180 C   0  0  0  0  0  0  0  0  0  0  0  0
   -3.9620   16.0410  -33.7870 C   0  0  0  0  0  0  0  0  0  0  0  0
   -5.3170   15.7120  -33.7980 C   0  0  0  0  0  0  0  0  0  0  0  0
   -6.2830   16.7200  -33.8360 C   0  0  0  0  0  0  0  0  0  0  0  0
   -5.9010   18.0740  -33.8500 C   0  0  0  0  0  0  0  0  0  0  0  0
   -6.8740   19.1310  -33.8720 N   0  0  0  0  0  0  0  0  0  0  0  0
   -7.8740   19.6000  -32.5320 S   0  0  0  0  0  0  0  0  0  0  0  0
   -9.3060   19.6200  -32.9900 O   0  0  0  0  0  0  0  0  0  0  0  0
   -7.7600   18.6160  -31.4000 O   0  0  0  0  0  0  0  0  0  0  0  0
   -7.4060   21.2170  -32.0050 C   0  0  0  0  0  0  0  0  0  0  0  0
   -8.3780   22.2160  -31.8470 C   0  0  0  0  0  0  0  0  0  0  0  0
   -7.9960   23.5220  -31.5300 C   0  0  0  0  0  0  0  0  0  0  0  0
   -6.6410   23.8440  -31.3940 C   0  0  0  0  0  0  0  0  0  0  0  0
   -5.6590   22.8530  -31.5600 C   0  0  0  0  0  0  0  0  0  0  0  0
   -4.2600   23.1650  -31.4740 N   0  0  0  0  0  0  0  0  0  0  0  0
   -3.6820   24.0780  -30.5270 C   0  0  0  0  0  0  0  0  0  0  0  0
   -3.9530   25.3040  -30.6270 O   0  0  0  0  0  0  0  0  0  0  0  0
   -2.8320   23.6030  -29.4060 C   0  0  0  0  0  0  0  0  0  0  0  0
   -3.0240   22.3120  -28.8800 C   0  0  0  0  0  0  0  0  0  0  0  0
   -2.2010   21.8260  -27.8500 C   0  0  0  0  0  0  0  0  0  0  0  0
   -2.4190   20.4510  -27.2880 C   0  0  0  0  0  0  0  0  0  0  0  0
   -1.2160   22.6590  -27.3030 C   0  0  0  0  0  0  0  0  0  0  0  0
   -1.0330   23.9520  -27.8020 C   0  0  0  0  0  0  0  0  0  0  0  0
   -1.8310   24.4260  -28.8510 C   0  0  0  0  0  0  0  0  0  0  0  0
   -1.6100   25.7090  -29.3450 O   0  0  0  0  0  0  0  0  0  0  0  0
   -6.0480   21.5350  -31.8330 C   0  0  0  0  0  0  0  0  0  0  0  0
   -3.4635   20.1738  -31.9450 H   0  0  0  0  0  0  0  0  0  0  0  0
   -2.2080   19.8586  -33.1904 H   0  0  0  0  0  0  0  0  0  0  0  0
   -3.1017   21.4167  -33.1904 H   0  0  0  0  0  0  0  0  0  0  0  0
   -2.4959   17.6369  -33.8198 H   0  0  0  0  0  0  0  0  0  0  0  0
   -3.2036   15.2449  -33.7539 H   0  0  0  0  0  0  0  0  0  0  0  0
   -5.6257   14.6564  -33.7767 H   0  0  0  0  0  0  0  0  0  0  0  0
   -7.3500   16.4534  -33.8551 H   0  0  0  0  0  0  0  0  0  0  0  0
   -9.4429   21.9707  -31.9729 H   0  0  0  0  0  0  0  0  0  0  0  0
   -8.7618   24.2986  -31.3871 H   0  0  0  0  0  0  0  0  0  0  0  0
   -6.3438   24.8761  -31.1564 H   0  0  0  0  0  0  0  0  0  0  0  0
   -3.8276   21.6760  -29.2797 H   0  0  0  0  0  0  0  0  0  0  0  0
   -2.4114   20.4986  -26.1891 H   0  0  0  0  0  0  0  0  0  0  0  0
   -3.3897   20.0641  -27.6316 H   0  0  0  0  0  0  0  0  0  0  0  0
   -1.6156   19.7828  -27.6316 H   0  0  0  0  0  0  0  0  0  0  0  0
   -0.5851   22.2946  -26.4788 H   0  0  0  0  0  0  0  0  0  0  0  0
   -0.2578   24.6009  -27.3683 H   0  0  0  0  0  0  0  0  0  0  0  0
   -5.2866   20.7452  -31.9131 H   0  0  0  0  0  0  0  0  0  0  0  0
  1  2  1  0
  2  3  1  0
  3  4  2  0
  4  5  1  0
  5  6  2  0
  6  7  1  0
  7  8  2  0
  8  9  1  0
  9 10  1  0
 10 11  2  0
 10 12  2  0
 10 13  1  0
 13 14  2  0
 14 15  1  0
 15 16  2  0
 16 17  1  0
 17 18  1  0
 18 19  1  0
 19 20  2  0
 19 21  1  0
 21 22  2  0
 22 23  1  0
 23 24  1  0
 23 25  2  0
 25 26  1  0
 26 27  2  0
 27 28  1  0
 17 29  2  0
  8  3  1  0
 29 13  1  0
 27 21  1  0
  1 30  1  0
  1 31  1  0
  1 32  1  0
  4 33  1  0
  5 34  1  0
  6 35  1  0
  7 36  1  0
 14 37  1  0
 15 38  1  0
 16 39  1  0
 22 40  1  0
 24 41  1  0
 24 42  1  0
 24 43  1  0
 25 44  1  0
 26 45  1  0
 29 46  1  0
M  CHG  3   9  -1  18  -1  28  -1
M  END
>  <UniqueID>  (36) 
34

>  <SMILES>  (36) 
COc1ccccc1[N-]S(=O)(=O)c1cccc([N-]C(=O)c2cc(C)ccc2[O-])c1

>  <Energy>  (36) 
59.744308521658446

>  <Genealogy>  (36) 
COc1ccccc1[N-]S(=O)(=O)c1cccc([N-]C(=O)c2cc(C)ccc2[O-])c1 (protonated)
COc1ccccc1[N-]S(=O)(=O)c1cccc([N-]C(=O)c2cc(C)ccc2[O-])c1 (3D coordinates assigned)
COc1ccccc1[N-]S(=O)(=O)c1cccc([N-]C(=O)c2cc(C)ccc2[O-])c1 (optimized conformer: 59.744308521658446 kcal/mol)

>  <smiles>  (36) 
COc1ccccc1NS(=O)(=O)c1cccc(NC(=O)c2cc(C)ccc2O)c1

>  <score_type>  (36) 
oracle

>  <origin>  (36) 
adgpu

>  <m_score__min__energy>  (36) 
-13.56

>  <m_primary>  (36) 
energy

$$$$
36:0
     RDKit          3D

 42 45  0  0  1  0  0  0  0  0999 V2000
    2.5260   19.1440  -32.6900 C   0  0  0  0  0  0  0  0  0  0  0  0
    1.6290   19.8990  -33.4680 O   0  0  0  0  0  0  0  0  0  0  0  0
    0.4410   20.4240  -33.0220 C   0  0  0  0  0  0  0  0  0  0  0  0
    0.2090   20.7410  -31.6980 C   0  0  0  0  0  0  0  0  0  0  0  0
   -1.0080   21.2730  -31.2740 C   0  0  0  0  0  0  0  0  0  0  0  0
   -2.0240   21.5020  -32.1770 C   0  0  0  0  0  0  0  0  0  0  0  0
   -3.3180   22.0560  -31.7960 C   0  0  0  0  0  0  0  0  0  0  0  0
   -4.4280   21.3410  -32.0470 N   0  0  0  0  0  0  0  0  0  0  0  0
   -5.6400   21.8170  -31.7120 C   0  0  0  0  0  0  0  0  0  0  0  0
   -6.7410   21.1650  -31.9330 N   0  0  0  0  0  0  0  0  0  0  0  0
   -6.6510   19.8910  -32.5600 C   0  0  0  0  0  0  0  0  0  0  0  0
   -7.1110   18.8100  -31.8010 C   0  0  0  0  0  0  0  0  0  0  0  0
   -7.0810   17.5190  -32.2850 C   0  0  0  0  0  0  0  0  0  0  0  0
   -6.5790   17.3290  -33.5560 C   0  0  0  0  0  0  0  0  0  0  0  0
   -6.5450   15.5330  -34.2140 Br  0  0  0  0  0  0  0  0  0  0  0  0
   -6.1130   18.3950  -34.3330 C   0  0  0  0  0  0  0  0  0  0  0  0
   -6.1540   19.6900  -33.8190 C   0  0  0  0  0  0  0  0  0  0  0  0
   -5.8040   23.0600  -31.0940 C   0  0  0  0  0  0  0  0  0  0  0  0
   -7.0500   23.5300  -30.7590 C   0  0  0  0  0  0  0  0  0  0  0  0
   -7.1610   24.7520  -30.1560 C   0  0  0  0  0  0  0  0  0  0  0  0
   -6.0010   25.4740  -29.9050 C   0  0  0  0  0  0  0  0  0  0  0  0
   -4.7490   25.0090  -30.2390 C   0  0  0  0  0  0  0  0  0  0  0  0
   -4.6560   23.7680  -30.8490 C   0  0  0  0  0  0  0  0  0  0  0  0
   -3.4630   23.2520  -31.2020 N   0  0  0  0  0  0  0  0  0  0  0  0
   -1.7680   21.1770  -33.4920 C   0  0  0  0  0  0  0  0  0  0  0  0
   -0.5660   20.6510  -33.9190 C   0  0  0  0  0  0  0  0  0  0  0  0
    2.3210   19.3165  -31.6231 H   0  0  0  0  0  0  0  0  0  0  0  0
    2.4007   18.0755  -32.9193 H   0  0  0  0  0  0  0  0  0  0  0  0
    3.5575   19.4498  -32.9193 H   0  0  0  0  0  0  0  0  0  0  0  0
    1.0052   20.5693  -30.9587 H   0  0  0  0  0  0  0  0  0  0  0  0
   -1.1585   21.5118  -30.2108 H   0  0  0  0  0  0  0  0  0  0  0  0
   -7.5071   18.9944  -30.7915 H   0  0  0  0  0  0  0  0  0  0  0  0
   -7.4431   16.6738  -31.6813 H   0  0  0  0  0  0  0  0  0  0  0  0
   -5.7169   18.2124  -35.3428 H   0  0  0  0  0  0  0  0  0  0  0  0
   -5.7917   20.5389  -34.4174 H   0  0  0  0  0  0  0  0  0  0  0  0
   -7.9474   22.9309  -30.9731 H   0  0  0  0  0  0  0  0  0  0  0  0
   -8.1459   25.1541  -29.8761 H   0  0  0  0  0  0  0  0  0  0  0  0
   -6.0863   26.4574  -29.4196 H   0  0  0  0  0  0  0  0  0  0  0  0
   -3.8488   25.6049  -30.0279 H   0  0  0  0  0  0  0  0  0  0  0  0
   -2.6300   23.8370  -30.9900 H   0  0  0  0  0  0  0  0  0  0  0  0
   -2.5600   21.3451  -34.2366 H   0  0  0  0  0  0  0  0  0  0  0  0
   -0.4175   20.4138  -34.9828 H   0  0  0  0  0  0  0  0  0  0  0  0
  1  2  1  0
  2  3  1  0
  3  4  2  0
  4  5  1  0
  5  6  2  0
  6  7  1  0
  7  8  2  0
  8  9  1  0
  9 10  2  0
 10 11  1  0
 11 12  2  0
 12 13  1  0
 13 14  2  0
 14 15  1  0
 14 16  1  0
 16 17  2  0
  9 18  1  0
 18 19  2  0
 19 20  1  0
 20 21  2  0
 21 22  1  0
 22 23  2  0
 23 24  1  0
  6 25  1  0
 25 26  2  0
 26  3  1  0
 24  7  1  0
 17 11  1  0
 23 18  1  0
  1 27  1  0
  1 28  1  0
  1 29  1  0
  4 30  1  0
  5 31  1  0
 12 32  1  0
 13 33  1  0
 16 34  1  0
 17 35  1  0
 19 36  1  0
 20 37  1  0
 21 38  1  0
 22 39  1  0
 24 40  1  0
 25 41  1  0
 26 42  1  0
M  END
>  <smiles>  (37) 
COc1ccc(-c2nc(=Nc3ccc(Br)cc3)c3ccccc3[nH]2)cc1

>  <score_type>  (37) 
oracle

>  <origin>  (37) 
adgpu

>  <m_score__min__energy>  (37) 
-8.3300000000000001

>  <m_primary>  (37) 
energy

$$$$
37:0
     RDKit          3D

 45 48  0  0  0  0  0  0  0  0999 V2000
   -1.4962   27.6676  -23.1557 H   0  0  0  0  0  0  0  0  0  0  0  0
   -0.8870   27.0510  -23.8330 C   0  0  0  0  0  0  0  0  0  0  0  0
   -0.1340   27.6570  -24.8380 C   0  0  0  0  0  0  0  0  0  0  0  0
   -0.1510   28.7508  -24.9538 H   0  0  0  0  0  0  0  0  0  0  0  0
    0.6420   26.8760  -25.6980 C   0  0  0  0  0  0  0  0  0  0  0  0
    1.2364   27.3601  -26.4869 H   0  0  0  0  0  0  0  0  0  0  0  0
    0.6700   25.4760  -25.5640 C   0  0  0  0  0  0  0  0  0  0  0  0
    1.5110   24.6770  -26.4870 C   0  0  0  0  0  0  0  0  0  0  0  0
    2.5680   24.1440  -26.0600 O   0  0  0  0  0  0  0  0  0  0  0  0
    1.2010   24.5640  -27.8840 N   0  0  0  0  0  0  0  0  0  0  0  0
    0.0040   24.0060  -28.4420 C   0  0  0  0  0  0  0  0  0  0  0  0
   -0.1900   22.5990  -28.5330 C   0  0  0  0  0  0  0  0  0  0  0  0
    0.5877   21.9170  -28.1588 H   0  0  0  0  0  0  0  0  0  0  0  0
   -1.3670   22.0710  -29.0970 C   0  0  0  0  0  0  0  0  0  0  0  0
   -1.5311   20.9852  -29.1614 H   0  0  0  0  0  0  0  0  0  0  0  0
   -2.3150   22.9730  -29.5700 C   0  0  0  0  0  0  0  0  0  0  0  0
   -2.1220   24.3220  -29.5120 C   0  0  0  0  0  0  0  0  0  0  0  0
   -3.1550   24.9250  -30.0460 O   0  0  0  0  0  0  0  0  0  0  0  0
   -3.9760   23.9590  -30.4240 C   0  0  0  0  0  0  0  0  0  0  0  0
   -5.1080   24.2030  -31.0180 N   0  0  0  0  0  0  0  0  0  0  0  0
   -6.0970   23.2320  -31.3880 C   0  0  0  0  0  0  0  0  0  0  0  0
   -7.3230   23.2180  -30.7130 C   0  0  0  0  0  0  0  0  0  0  0  0
   -7.5275   23.9692  -29.9359 H   0  0  0  0  0  0  0  0  0  0  0  0
   -8.2900   22.2550  -31.0200 C   0  0  0  0  0  0  0  0  0  0  0  0
   -9.2600   22.2682  -30.5013 H   0  0  0  0  0  0  0  0  0  0  0  0
   -8.0280   21.2720  -31.9870 C   0  0  0  0  0  0  0  0  0  0  0  0
   -9.0800   20.2560  -32.3410 C   0  0  0  0  0  0  0  0  0  0  0  0
   -9.4035   20.4181  -33.3798 H   0  0  0  0  0  0  0  0  0  0  0  0
   -9.9307   20.3735  -31.6536 H   0  0  0  0  0  0  0  0  0  0  0  0
   -8.5300   18.8400  -32.2030 C   0  0  0  0  0  0  0  0  0  0  0  0
   -8.4318   18.5871  -31.1370 H   0  0  0  0  0  0  0  0  0  0  0  0
   -9.2180   18.1307  -32.6862 H   0  0  0  0  0  0  0  0  0  0  0  0
   -7.5436   18.7811  -32.6862 H   0  0  0  0  0  0  0  0  0  0  0  0
   -6.7890   21.2710  -32.6490 C   0  0  0  0  0  0  0  0  0  0  0  0
   -6.5773   20.5088  -33.4133 H   0  0  0  0  0  0  0  0  0  0  0  0
   -5.8240   22.2340  -32.3410 C   0  0  0  0  0  0  0  0  0  0  0  0
   -4.8470   22.2114  -32.8459 H   0  0  0  0  0  0  0  0  0  0  0  0
   -3.4950   22.7170  -30.1530 N   0  0  0  0  0  0  0  0  0  0  0  0
   -3.8990   21.7810  -30.3810 H   0  0  0  0  0  0  0  0  0  0  0  0
   -0.9730   24.8810  -28.9610 C   0  0  0  0  0  0  0  0  0  0  0  0
   -0.8310   25.9714  -28.9311 H   0  0  0  0  0  0  0  0  0  0  0  0
   -0.0950   24.8690  -24.5420 C   0  0  0  0  0  0  0  0  0  0  0  0
   -0.1630   23.1210  -24.3370 Cl  0  0  0  0  0  0  0  0  0  0  0  0
   -0.8690   25.6630  -23.6850 C   0  0  0  0  0  0  0  0  0  0  0  0
   -1.4657   25.1899  -22.8912 H   0  0  0  0  0  0  0  0  0  0  0  0
  1  2  1  0
  2  3  2  0
  3  4  1  0
  3  5  1  0
  5  6  1  0
  5  7  2  0
  7  8  1  0
  8  9  2  0
  8 10  1  0
 10 11  1  0
 11 12  2  0
 12 13  1  0
 12 14  1  0
 14 15  1  0
 14 16  2  0
 16 17  1  0
 17 18  1  0
 18 19  1  0
 19 20  2  0
 20 21  1  0
 21 22  2  0
 22 23  1  0
 22 24  1  0
 24 25  1  0
 24 26  2  0
 26 27  1  0
 27 28  1  0
 27 29  1  0
 27 30  1  0
 30 31  1  0
 30 32  1  0
 30 33  1  0
 26 34  1  0
 34 35  1  0
 34 36  2  0
 36 37  1  0
 19 38  1  0
 38 39  1  0
 17 40  2  0
 40 41  1  0
  7 42  1  0
 42 43  1  0
 42 44  2  0
 44 45  1  0
 44  2  1  0
 40 11  1  0
 38 16  1  0
 36 21  1  0
M  CHG  1  10  -1
M  END
>  <UniqueID>  (38) 
35

>  <SMILES>  (38) 
CCc1ccc(/N=c2\[nH]c3ccc([N-]C(=O)c4ccccc4Cl)cc3o2)cc1

>  <Energy>  (38) 
101.99734119697344

>  <Genealogy>  (38) 
CCc1ccc(N=c2[nH]c3ccc([N-]C(=O)c4ccccc4Cl)cc3o2)cc1 (protonated)
CCc1ccc(/N=c2\[nH]c3ccc([N-]C(=O)c4ccccc4Cl)cc3o2)cc1 (cis-trans isomerization)
CCc1ccc(/N=c2\[nH]c3ccc([N-]C(=O)c4ccccc4Cl)cc3o2)cc1 (3D coordinates assigned)
CCc1ccc(/N=c2\[nH]c3ccc([N-]C(=O)c4ccccc4Cl)cc3o2)cc1 (optimized conformer: 101.99734119697344 kcal/mol)

>  <smiles>  (38) 
CCc1ccc(N=c2[nH]c3ccc(NC(=O)c4ccccc4Cl)cc3o2)cc1

>  <score_type>  (38) 
oracle

>  <origin>  (38) 
adgpu

>  <m_score__min__energy>  (38) 
-10.5

>  <m_primary>  (38) 
energy

$$$$
38:0
     RDKit          3D

 33 35  0  0  0  0  0  0  0  0999 V2000
   -2.7760   23.6750  -28.2770 C   0  0  0  0  0  0  0  0  0  0  0  0
   -2.6110   24.9040  -29.1180 C   0  0  0  0  0  0  0  0  0  0  0  0
   -1.5780   25.6090  -28.9700 O   0  0  0  0  0  0  0  0  0  0  0  0
   -3.5690   25.2800  -30.1150 N   0  0  0  0  0  0  0  0  0  0  0  0
   -4.6840   24.5010  -30.5700 C   0  0  0  0  0  0  0  0  0  0  0  0
   -6.0110   24.8810  -30.3170 C   0  0  0  0  0  0  0  0  0  0  0  0
   -7.0640   24.1070  -30.8070 C   0  0  0  0  0  0  0  0  0  0  0  0
   -6.7840   22.9680  -31.5800 C   0  0  0  0  0  0  0  0  0  0  0  0
   -7.8020   22.1430  -32.0800 O   0  0  0  0  0  0  0  0  0  0  0  0
   -7.7120   20.7540  -32.2540 C   0  0  0  0  0  0  0  0  0  0  0  0
   -8.6750   19.8680  -31.7060 C   0  0  0  0  0  0  0  0  0  0  0  0
   -8.5700   18.4820  -31.9100 C   0  0  0  0  0  0  0  0  0  0  0  0
   -7.5080   17.9940  -32.6710 C   0  0  0  0  0  0  0  0  0  0  0  0
   -7.3030   16.6810  -32.9470 N   0  0  0  0  0  0  0  0  0  0  0  0
   -6.1920   16.5140  -33.7070 C   0  0  0  0  0  0  0  0  0  0  0  0
   -5.7480   15.1880  -34.2210 C   0  0  0  0  0  0  0  0  0  0  0  0
   -5.4470   17.9860  -34.0890 S   0  0  0  0  0  0  0  0  0  0  0  0
   -6.5820   18.8640  -33.2190 C   0  0  0  0  0  0  0  0  0  0  0  0
   -6.6610   20.2420  -33.0340 C   0  0  0  0  0  0  0  0  0  0  0  0
   -5.4890   22.6270  -31.8200 N   0  0  0  0  0  0  0  0  0  0  0  0
   -4.4480   23.3650  -31.3500 C   0  0  0  0  0  0  0  0  0  0  0  0
   -2.7389   23.9512  -27.2129 H   0  0  0  0  0  0  0  0  0  0  0  0
   -3.7453   23.2053  -28.5003 H   0  0  0  0  0  0  0  0  0  0  0  0
   -1.9649   22.9663  -28.5003 H   0  0  0  0  0  0  0  0  0  0  0  0
   -6.2213   25.7888  -29.7325 H   0  0  0  0  0  0  0  0  0  0  0  0
   -8.1053   24.3868  -30.5895 H   0  0  0  0  0  0  0  0  0  0  0  0
   -9.5117   20.2700  -31.1158 H   0  0  0  0  0  0  0  0  0  0  0  0
   -9.3117   17.7944  -31.4775 H   0  0  0  0  0  0  0  0  0  0  0  0
   -5.5251   14.5224  -33.3741 H   0  0  0  0  0  0  0  0  0  0  0  0
   -6.5472   14.7461  -34.8342 H   0  0  0  0  0  0  0  0  0  0  0  0
   -4.8439   15.3165  -34.8342 H   0  0  0  0  0  0  0  0  0  0  0  0
   -5.9179   20.9142  -33.4879 H   0  0  0  0  0  0  0  0  0  0  0  0
   -3.4155   23.0668  -31.5846 H   0  0  0  0  0  0  0  0  0  0  0  0
  1  2  1  0
  2  3  2  0
  2  4  1  0
  4  5  1  0
  5  6  2  0
  6  7  1  0
  7  8  2  0
  8  9  1  0
  9 10  1  0
 10 11  2  0
 11 12  1  0
 12 13  2  0
 13 14  1  0
 14 15  2  0
 15 16  1  0
 15 17  1  0
 17 18  1  0
 18 19  2  0
  8 20  1  0
 20 21  2  0
 21  5  1  0
 19 10  1  0
 18 13  1  0
  1 22  1  0
  1 23  1  0
  1 24  1  0
  6 25  1  0
  7 26  1  0
 11 27  1  0
 12 28  1  0
 16 29  1  0
 16 30  1  0
 16 31  1  0
 19 32  1  0
 21 33  1  0
M  CHG  1   4  -1
M  END
>  <UniqueID>  (39) 
36

>  <SMILES>  (39) 
CC(=O)[N-]c1ccc(Oc2ccc3nc(C)sc3c2)nc1

>  <Energy>  (39) 
78.78232627208573

>  <Genealogy>  (39) 
CC(=O)[N-]c1ccc(Oc2ccc3nc(C)sc3c2)nc1 (protonated)
CC(=O)[N-]c1ccc(Oc2ccc3nc(C)sc3c2)nc1 (3D coordinates assigned)
CC(=O)[N-]c1ccc(Oc2ccc3nc(C)sc3c2)nc1 (optimized conformer: 78.78232627208573 kcal/mol)

>  <smiles>  (39) 
CC(=O)Nc1ccc(Oc2ccc3nc(C)sc3c2)nc1

>  <score_type>  (39) 
oracle

>  <origin>  (39) 
adgpu

>  <m_score__min__energy>  (39) 
-10.140000000000001

>  <m_primary>  (39) 
energy

$$$$
39:0
     RDKit          3D

 37 40  0  0  0  0  0  0  0  0999 V2000
   -9.4620   17.7830  -31.5860 F   0  0  0  0  0  0  0  0  0  0  0  0
   -8.4910   18.6610  -31.9420 C   0  0  0  0  0  0  0  0  0  0  0  0
   -7.2020   18.2010  -32.2240 C   0  0  0  0  0  0  0  0  0  0  0  0
   -6.2000   19.1050  -32.5880 C   0  0  0  0  0  0  0  0  0  0  0  0
   -6.4870   20.4800  -32.6900 C   0  0  0  0  0  0  0  0  0  0  0  0
   -5.4780   21.4290  -33.0760 N   0  0  0  0  0  0  0  0  0  0  0  0
   -4.8120   22.3070  -32.1550 C   0  0  0  0  0  0  0  0  0  0  0  0
   -3.4590   22.3260  -31.8160 C   0  0  0  0  0  0  0  0  0  0  0  0
   -2.3680   21.5240  -32.4060 C   0  0  0  0  0  0  0  0  0  0  0  0
   -1.1010   21.5170  -31.7980 C   0  0  0  0  0  0  0  0  0  0  0  0
   -0.0630   20.7540  -32.3400 C   0  0  0  0  0  0  0  0  0  0  0  0
   -0.2760   20.0030  -33.5010 C   0  0  0  0  0  0  0  0  0  0  0  0
    0.7320   19.2640  -34.0240 F   0  0  0  0  0  0  0  0  0  0  0  0
   -1.5260   20.0230  -34.1250 C   0  0  0  0  0  0  0  0  0  0  0  0
   -2.5670   20.7850  -33.5850 C   0  0  0  0  0  0  0  0  0  0  0  0
   -3.2520   23.2580  -30.8520 N   0  0  0  0  0  0  0  0  0  0  0  0
   -4.4770   23.7880  -30.6480 C   0  0  0  0  0  0  0  0  0  0  0  0
   -4.7870   24.7940  -29.7350 C   0  0  0  0  0  0  0  0  0  0  0  0
   -6.1250   25.2110  -29.6510 C   0  0  0  0  0  0  0  0  0  0  0  0
   -7.1080   24.6160  -30.4660 C   0  0  0  0  0  0  0  0  0  0  0  0
   -6.7400   23.6060  -31.3670 C   0  0  0  0  0  0  0  0  0  0  0  0
   -5.4320   23.2420  -31.4210 N   0  0  0  0  0  0  0  0  0  0  0  0
   -7.7790   20.9330  -32.3830 C   0  0  0  0  0  0  0  0  0  0  0  0
   -8.7780   20.0270  -32.0170 C   0  0  0  0  0  0  0  0  0  0  0  0
   -6.9757   17.1265  -32.1595 H   0  0  0  0  0  0  0  0  0  0  0  0
   -5.1830   18.7409  -32.7957 H   0  0  0  0  0  0  0  0  0  0  0  0
   -5.2440   21.5200  -34.0900 H   0  0  0  0  0  0  0  0  0  0  0  0
   -0.9254   22.1147  -30.8914 H   0  0  0  0  0  0  0  0  0  0  0  0
    0.9232   20.7439  -31.8529 H   0  0  0  0  0  0  0  0  0  0  0  0
   -1.6915   19.4387  -35.0421 H   0  0  0  0  0  0  0  0  0  0  0  0
   -3.5464   20.8061  -34.0854 H   0  0  0  0  0  0  0  0  0  0  0  0
   -4.0097   25.2462  -29.1015 H   0  0  0  0  0  0  0  0  0  0  0  0
   -6.4071   26.0062  -28.9453 H   0  0  0  0  0  0  0  0  0  0  0  0
   -8.1565   24.9411  -30.3963 H   0  0  0  0  0  0  0  0  0  0  0  0
   -7.4889   23.1224  -32.0115 H   0  0  0  0  0  0  0  0  0  0  0  0
   -8.0069   22.0081  -32.4307 H   0  0  0  0  0  0  0  0  0  0  0  0
   -9.7911   20.3891  -31.7877 H   0  0  0  0  0  0  0  0  0  0  0  0
  1  2  1  0
  2  3  2  0
  3  4  1  0
  4  5  2  0
  5  6  1  0
  6  7  1  0
  7  8  2  0
  8  9  1  0
  9 10  2  0
 10 11  1  0
 11 12  2  0
 12 13  1  0
 12 14  1  0
 14 15  2  0
  8 16  1  0
 16 17  2  0
 17 18  1  0
 18 19  2  0
 19 20  1  0
 20 21  2  0
 21 22  1  0
  5 23  1  0
 23 24  2  0
 24  2  1  0
 22  7  1  0
 15  9  1  0
 22 17  1  0
  3 25  1  0
  4 26  1  0
  6 27  1  0
 10 28  1  0
 11 29  1  0
 14 30  1  0
 15 31  1  0
 18 32  1  0
 19 33  1  0
 20 34  1  0
 21 35  1  0
 23 36  1  0
 24 37  1  0
M  END
>  <UniqueID>  (40) 
37

>  <SMILES>  (40) 
Fc1ccc(Nc2c(-c3ccc(F)cc3)nc3ccccn23)cc1

>  <Energy>  (40) 
85.87067805803282

>  <Genealogy>  (40) 
Fc1ccc(Nc2c(-c3ccc(F)cc3)nc3ccccn23)cc1 (3D coordinates assigned)
Fc1ccc(Nc2c(-c3ccc(F)cc3)nc3ccccn23)cc1 (optimized conformer: 85.87067805803282 kcal/mol)

>  <smiles>  (40) 
Fc1ccc(Nc2c(-c3ccc(F)cc3)nc3ccccn23)cc1

>  <score_type>  (40) 
oracle

>  <origin>  (40) 
adgpu

>  <m_score__min__energy>  (40) 
-7.9299999999999997

>  <m_primary>  (40) 
energy

$$$$
40:0
     RDKit          3D

 40 41  0  0  0  0  0  0  0  0999 V2000
   -6.0090   19.6380  -33.5450 C   0  0  0  0  0  0  0  0  0  0  0  0
   -5.3570   20.8270  -33.1100 O   0  0  0  0  0  0  0  0  0  0  0  0
   -5.9670   21.8310  -32.3450 C   0  0  0  0  0  0  0  0  0  0  0  0
   -7.3250   21.7780  -31.9790 C   0  0  0  0  0  0  0  0  0  0  0  0
   -7.8860   22.8060  -31.2170 C   0  0  0  0  0  0  0  0  0  0  0  0
   -7.1060   23.8890  -30.8120 C   0  0  0  0  0  0  0  0  0  0  0  0
   -5.7460   23.9590  -31.1650 C   0  0  0  0  0  0  0  0  0  0  0  0
   -4.9140   25.1090  -30.7390 C   0  0  0  0  0  0  0  0  0  0  0  0
   -5.4340   26.2510  -30.6090 O   0  0  0  0  0  0  0  0  0  0  0  0
   -3.5180   24.9290  -30.4730 N   0  0  0  0  0  0  0  0  0  0  0  0
   -2.9860   23.8640  -29.6290 C   0  0  0  0  0  0  0  0  0  0  0  0
   -2.2270   24.4500  -28.4690 C   0  0  0  0  0  0  0  0  0  0  0  0
   -2.8720   24.7040  -27.2510 C   0  0  0  0  0  0  0  0  0  0  0  0
   -2.1590   25.2300  -26.1730 C   0  0  0  0  0  0  0  0  0  0  0  0
   -0.7850   25.5070  -26.2930 C   0  0  0  0  0  0  0  0  0  0  0  0
   -0.0360   26.0370  -25.2300 O   0  0  0  0  0  0  0  0  0  0  0  0
   -0.4700   26.0690  -23.8740 C   0  0  0  0  0  0  0  0  0  0  0  0
   -0.1300   25.2500  -27.5080 C   0  0  0  0  0  0  0  0  0  0  0  0
    1.2420   25.5320  -27.5980 O   0  0  0  0  0  0  0  0  0  0  0  0
    2.2600   24.8240  -26.8970 C   0  0  0  0  0  0  0  0  0  0  0  0
   -0.8570   24.7220  -28.5920 C   0  0  0  0  0  0  0  0  0  0  0  0
   -5.1890   22.9200  -31.9350 C   0  0  0  0  0  0  0  0  0  0  0  0
   -6.3292   19.0541  -32.6695 H   0  0  0  0  0  0  0  0  0  0  0  0
   -6.8882   19.9026  -34.1508 H   0  0  0  0  0  0  0  0  0  0  0  0
   -5.3132   19.0389  -34.1508 H   0  0  0  0  0  0  0  0  0  0  0  0
   -7.9456   20.9259  -32.2933 H   0  0  0  0  0  0  0  0  0  0  0  0
   -8.9483   22.7610  -30.9350 H   0  0  0  0  0  0  0  0  0  0  0  0
   -7.5571   24.6936  -30.2127 H   0  0  0  0  0  0  0  0  0  0  0  0
   -3.8174   23.2530  -29.2477 H   0  0  0  0  0  0  0  0  0  0  0  0
   -2.3042   23.2401  -30.2256 H   0  0  0  0  0  0  0  0  0  0  0  0
   -3.9452   24.4877  -27.1443 H   0  0  0  0  0  0  0  0  0  0  0  0
   -2.6751   25.4295  -25.2223 H   0  0  0  0  0  0  0  0  0  0  0  0
    0.4031   26.0046  -23.2080 H   0  0  0  0  0  0  0  0  0  0  0  0
   -1.0081   27.0093  -23.6833 H   0  0  0  0  0  0  0  0  0  0  0  0
   -1.1402   25.2178  -23.6833 H   0  0  0  0  0  0  0  0  0  0  0  0
    2.1030   24.9332  -25.8137 H   0  0  0  0  0  0  0  0  0  0  0  0
    2.2187   23.7587  -27.1680 H   0  0  0  0  0  0  0  0  0  0  0  0
    3.2444   25.2334  -27.1680 H   0  0  0  0  0  0  0  0  0  0  0  0
   -0.3452   24.5209  -29.5447 H   0  0  0  0  0  0  0  0  0  0  0  0
   -4.1271   22.9648  -32.2184 H   0  0  0  0  0  0  0  0  0  0  0  0
  1  2  1  0
  2  3  1  0
  3  4  2  0
  4  5  1  0
  5  6  2  0
  6  7  1  0
  7  8  1  0
  8  9  2  0
  8 10  1  0
 10 11  1  0
 11 12  1  0
 12 13  2  0
 13 14  1  0
 14 15  2  0
 15 16  1  0
 16 17  1  0
 15 18  1  0
 18 19  1  0
 19 20  1  0
 18 21  2  0
  7 22  2  0
 22  3  1  0
 21 12  1  0
  1 23  1  0
  1 24  1  0
  1 25  1  0
  4 26  1  0
  5 27  1  0
  6 28  1  0
 11 29  1  0
 11 30  1  0
 13 31  1  0
 14 32  1  0
 17 33  1  0
 17 34  1  0
 17 35  1  0
 20 36  1  0
 20 37  1  0
 20 38  1  0
 21 39  1  0
 22 40  1  0
M  CHG  1  10  -1
M  END
>  <UniqueID>  (41) 
38

>  <SMILES>  (41) 
COc1cccc(C(=O)[N-]Cc2ccc(OC)c(OC)c2)c1

>  <Energy>  (41) 
36.89792748092962

>  <Genealogy>  (41) 
COc1cccc(C(=O)[N-]Cc2ccc(OC)c(OC)c2)c1 (protonated)
COc1cccc(C(=O)[N-]Cc2ccc(OC)c(OC)c2)c1 (3D coordinates assigned)
COc1cccc(C(=O)[N-]Cc2ccc(OC)c(OC)c2)c1 (optimized conformer: 36.89792748092962 kcal/mol)

>  <smiles>  (41) 
COc1cccc(C(=O)NCc2ccc(OC)c(OC)c2)c1

>  <score_type>  (41) 
oracle

>  <origin>  (41) 
adgpu

>  <m_score__min__energy>  (41) 
-8.0199999999999996

>  <m_primary>  (41) 
energy

$$$$
41:0
     RDKit          3D

 45 47  0  0  0  0  0  0  0  0999 V2000
  -10.0680   21.2140  -32.0110 C   0  0  0  0  0  0  0  0  0  0  0  0
   -8.7820   21.1990  -32.6240 O   0  0  0  0  0  0  0  0  0  0  0  0
   -7.6410   21.8270  -32.0980 C   0  0  0  0  0  0  0  0  0  0  0  0
   -7.7020   23.0930  -31.4870 C   0  0  0  0  0  0  0  0  0  0  0  0
   -6.5450   23.6990  -30.9930 C   0  0  0  0  0  0  0  0  0  0  0  0
   -5.3010   23.0540  -31.0930 C   0  0  0  0  0  0  0  0  0  0  0  0
   -4.0640   23.6890  -30.5800 C   0  0  0  0  0  0  0  0  0  0  0  0
   -3.8870   24.9260  -30.7580 O   0  0  0  0  0  0  0  0  0  0  0  0
   -3.0570   22.9180  -29.9030 N   0  0  0  0  0  0  0  0  0  0  0  0
   -1.8630   23.5320  -29.3250 C   0  0  0  0  0  0  0  0  0  0  0  0
   -2.2210   24.2990  -28.0810 C   0  0  0  0  0  0  0  0  0  0  0  0
   -3.5130   24.2070  -27.5460 C   0  0  0  0  0  0  0  0  0  0  0  0
   -3.8270   24.9110  -26.3800 C   0  0  0  0  0  0  0  0  0  0  0  0
   -2.8830   25.6750  -25.7710 N   0  0  0  0  0  0  0  0  0  0  0  0
   -1.6210   25.7800  -26.2660 C   0  0  0  0  0  0  0  0  0  0  0  0
   -1.2660   25.0930  -27.4300 C   0  0  0  0  0  0  0  0  0  0  0  0
   -5.2380   21.7920  -31.7090 C   0  0  0  0  0  0  0  0  0  0  0  0
   -6.3990   21.1730  -32.1960 C   0  0  0  0  0  0  0  0  0  0  0  0
   -6.2960   19.8380  -32.8230 C   0  0  0  0  0  0  0  0  0  0  0  0
   -5.3950   19.6590  -33.8850 C   0  0  0  0  0  0  0  0  0  0  0  0
   -5.2840   18.4180  -34.5180 C   0  0  0  0  0  0  0  0  0  0  0  0
   -6.0710   17.3460  -34.0980 C   0  0  0  0  0  0  0  0  0  0  0  0
   -6.9640   17.5060  -33.0360 C   0  0  0  0  0  0  0  0  0  0  0  0
   -7.0760   18.7420  -32.3750 C   0  0  0  0  0  0  0  0  0  0  0  0
   -8.0410   18.8750  -31.2270 C   0  0  0  0  0  0  0  0  0  0  0  0
   -9.9528   21.2127  -30.9171 H   0  0  0  0  0  0  0  0  0  0  0  0
  -10.6116   22.1185  -32.3213 H   0  0  0  0  0  0  0  0  0  0  0  0
  -10.6325   20.3224  -32.3213 H   0  0  0  0  0  0  0  0  0  0  0  0
   -8.6690   23.6096  -31.3977 H   0  0  0  0  0  0  0  0  0  0  0  0
   -6.6082   24.6906  -30.5212 H   0  0  0  0  0  0  0  0  0  0  0  0
   -3.1310   21.8780  -29.8690 H   0  0  0  0  0  0  0  0  0  0  0  0
   -1.1375   22.7454  -29.0703 H   0  0  0  0  0  0  0  0  0  0  0  0
   -1.4254   24.2245  -30.0591 H   0  0  0  0  0  0  0  0  0  0  0  0
   -4.2743   23.5854  -28.0400 H   0  0  0  0  0  0  0  0  0  0  0  0
   -4.8395   24.8464  -25.9550 H   0  0  0  0  0  0  0  0  0  0  0  0
   -0.8787   26.4064  -25.7497 H   0  0  0  0  0  0  0  0  0  0  0  0
   -0.2455   25.1745  -27.8324 H   0  0  0  0  0  0  0  0  0  0  0  0
   -4.2675   21.2841  -31.8103 H   0  0  0  0  0  0  0  0  0  0  0  0
   -4.7723   20.5013  -34.2210 H   0  0  0  0  0  0  0  0  0  0  0  0
   -4.5749   18.2866  -35.3486 H   0  0  0  0  0  0  0  0  0  0  0  0
   -5.9883   16.3728  -34.6040 H   0  0  0  0  0  0  0  0  0  0  0  0
   -7.5853   16.6574  -32.7138 H   0  0  0  0  0  0  0  0  0  0  0  0
   -7.4926   18.7994  -30.2764 H   0  0  0  0  0  0  0  0  0  0  0  0
   -8.5451   19.8511  -31.2829 H   0  0  0  0  0  0  0  0  0  0  0  0
   -8.7903   18.0716  -31.2829 H   0  0  0  0  0  0  0  0  0  0  0  0
  1  2  1  0
  2  3  1  0
  3  4  2  0
  4  5  1  0
  5  6  2  0
  6  7  1  0
  7  8  2  0
  7  9  1  0
  9 10  1  0
 10 11  1  0
 11 12  2  0
 12 13  1  0
 13 14  2  0
 14 15  1  0
 15 16  2  0
  6 17  1  0
 17 18  2  0
 18 19  1  0
 19 20  2  0
 20 21  1  0
 21 22  2  0
 22 23  1  0
 23 24  2  0
 24 25  1  0
 18  3  1  0
 24 19  1  0
 16 11  1  0
  1 26  1  0
  1 27  1  0
  1 28  1  0
  4 29  1  0
  5 30  1  0
  9 31  1  0
 10 32  1  0
 10 33  1  0
 12 34  1  0
 13 35  1  0
 15 36  1  0
 16 37  1  0
 17 38  1  0
 20 39  1  0
 21 40  1  0
 22 41  1  0
 23 42  1  0
 25 43  1  0
 25 44  1  0
 25 45  1  0
M  END
>  <UniqueID>  (42) 
39

>  <SMILES>  (42) 
COc1ccc(C(=O)NCc2ccncc2)cc1-c1ccccc1C

>  <Energy>  (42) 
55.5367608956609

>  <Genealogy>  (42) 
COc1ccc(C(=O)NCc2ccncc2)cc1-c1ccccc1C (3D coordinates assigned)
COc1ccc(C(=O)NCc2ccncc2)cc1-c1ccccc1C (optimized conformer: 55.5367608956609 kcal/mol)

>  <smiles>  (42) 
COc1ccc(C(=O)NCc2ccncc2)cc1-c1ccccc1C

>  <score_type>  (42) 
oracle

>  <origin>  (42) 
adgpu

>  <m_score__min__energy>  (42) 
-8.7200000000000006

>  <m_primary>  (42) 
energy

$$$$
42:0
     RDKit          3D

 49 51  0  0  0  0  0  0  0  0999 V2000
   -2.6820   20.6090  -33.1200 C   0  0  0  0  0  0  0  0  0  0  0  0
   -1.5060   20.4740  -32.3280 O   0  0  0  0  0  0  0  0  0  0  0  0
   -1.2830   21.1470  -31.1170 C   0  0  0  0  0  0  0  0  0  0  0  0
   -0.3940   20.5820  -30.2000 C   0  0  0  0  0  0  0  0  0  0  0  0
   -0.1430   21.2070  -28.9760 C   0  0  0  0  0  0  0  0  0  0  0  0
   -0.7790   22.4190  -28.6500 C   0  0  0  0  0  0  0  0  0  0  0  0
   -0.5570   23.0650  -27.4230 O   0  0  0  0  0  0  0  0  0  0  0  0
   -0.7870   22.4780  -26.1470 C   0  0  0  0  0  0  0  0  0  0  0  0
   -1.6660   23.0010  -29.5760 C   0  0  0  0  0  0  0  0  0  0  0  0
   -2.4720   24.5240  -29.1960 S   0  0  0  0  0  0  0  0  0  0  0  0
   -3.2620   24.3860  -27.9240 O   0  0  0  0  0  0  0  0  0  0  0  0
   -1.4330   25.5970  -29.0320 O   0  0  0  0  0  0  0  0  0  0  0  0
   -3.5510   24.9310  -30.4910 N   0  0  0  0  0  0  0  0  0  0  0  0
   -4.7810   24.2560  -30.7860 C   0  0  0  0  0  0  0  0  0  0  0  0
   -5.9650   24.7480  -30.2240 C   0  0  0  0  0  0  0  0  0  0  0  0
   -7.1870   24.1190  -30.4820 C   0  0  0  0  0  0  0  0  0  0  0  0
   -7.2370   22.9870  -31.3060 C   0  0  0  0  0  0  0  0  0  0  0  0
   -8.7750   22.2020  -31.6380 S   0  0  0  0  0  0  0  0  0  0  0  0
   -9.3730   21.7180  -30.3450 O   0  0  0  0  0  0  0  0  0  0  0  0
   -9.7030   23.1950  -32.2800 O   0  0  0  0  0  0  0  0  0  0  0  0
   -8.5140   20.8440  -32.6970 N   0  0  0  0  0  0  0  0  0  0  0  0
   -8.0660   19.6580  -31.9570 C   0  0  0  0  0  0  0  0  0  0  0  0
   -6.9520   18.9390  -32.6590 C   0  0  0  0  0  0  0  0  0  0  0  0
   -6.4440   17.7010  -32.3160 C   0  0  0  0  0  0  0  0  0  0  0  0
   -5.4580   17.4360  -33.2400 C   0  0  0  0  0  0  0  0  0  0  0  0
   -5.4240   18.5260  -34.0880 C   0  0  0  0  0  0  0  0  0  0  0  0
   -6.3270   19.4040  -33.7160 O   0  0  0  0  0  0  0  0  0  0  0  0
   -6.0560   22.4990  -31.8800 C   0  0  0  0  0  0  0  0  0  0  0  0
   -4.8340   23.1250  -31.6200 C   0  0  0  0  0  0  0  0  0  0  0  0
   -1.9180   22.3620  -30.8000 C   0  0  0  0  0  0  0  0  0  0  0  0
   -3.5577   20.7095  -32.4619 H   0  0  0  0  0  0  0  0  0  0  0  0
   -2.5959   21.5032  -33.7549 H   0  0  0  0  0  0  0  0  0  0  0  0
   -2.8007   19.7186  -33.7549 H   0  0  0  0  0  0  0  0  0  0  0  0
    0.1130   19.6367  -30.4436 H   0  0  0  0  0  0  0  0  0  0  0  0
    0.5569   20.7483  -28.2620 H   0  0  0  0  0  0  0  0  0  0  0  0
   -0.5070   23.1925  -25.3589 H   0  0  0  0  0  0  0  0  0  0  0  0
   -1.8521   22.2216  -26.0480 H   0  0  0  0  0  0  0  0  0  0  0  0
   -0.1796   21.5663  -26.0480 H   0  0  0  0  0  0  0  0  0  0  0  0
   -5.9339   25.6356  -29.5749 H   0  0  0  0  0  0  0  0  0  0  0  0
   -8.1119   24.5142  -30.0366 H   0  0  0  0  0  0  0  0  0  0  0  0
   -7.7880   21.1150  -33.4010 H   0  0  0  0  0  0  0  0  0  0  0  0
   -7.7139   19.9725  -30.9635 H   0  0  0  0  0  0  0  0  0  0  0  0
   -8.9181   18.9666  -31.8796 H   0  0  0  0  0  0  0  0  0  0  0  0
   -6.7609   17.0607  -31.4796 H   0  0  0  0  0  0  0  0  0  0  0  0
   -4.8252   16.5378  -33.2923 H   0  0  0  0  0  0  0  0  0  0  0  0
   -4.7438   18.6411  -34.9448 H   0  0  0  0  0  0  0  0  0  0  0  0
   -6.0907   21.6187  -32.5387 H   0  0  0  0  0  0  0  0  0  0  0  0
   -3.9102   22.7317  -32.0693 H   0  0  0  0  0  0  0  0  0  0  0  0
   -2.6179   22.8149  -31.5176 H   0  0  0  0  0  0  0  0  0  0  0  0
  1  2  1  0
  2  3  1  0
  3  4  2  0
  4  5  1  0
  5  6  2  0
  6  7  1  0
  7  8  1  0
  6  9  1  0
  9 10  1  0
 10 11  2  0
 10 12  2  0
 10 13  1  0
 13 14  1  0
 14 15  2  0
 15 16  1  0
 16 17  2  0
 17 18  1  0
 18 19  2  0
 18 20  2  0
 18 21  1  0
 21 22  1  0
 22 23  1  0
 23 24  2  0
 24 25  1  0
 25 26  2  0
 26 27  1  0
 17 28  1  0
 28 29  2  0
  9 30  2  0
 30  3  1  0
 29 14  1  0
 27 23  1  0
  1 31  1  0
  1 32  1  0
  1 33  1  0
  4 34  1  0
  5 35  1  0
  8 36  1  0
  8 37  1  0
  8 38  1  0
 15 39  1  0
 16 40  1  0
 21 41  1  0
 22 42  1  0
 22 43  1  0
 24 44  1  0
 25 45  1  0
 26 46  1  0
 28 47  1  0
 29 48  1  0
 30 49  1  0
M  CHG  1  13  -1
M  END
>  <UniqueID>  (43) 
40

>  <SMILES>  (43) 
COc1ccc(OC)c(S(=O)(=O)[N-]c2ccc(S(=O)(=O)NCc3ccco3)cc2)c1

>  <Energy>  (43) 
79.12638539648782

>  <Genealogy>  (43) 
COc1ccc(OC)c(S(=O)(=O)[N-]c2ccc(S(=O)(=O)NCc3ccco3)cc2)c1 (protonated)
COc1ccc(OC)c(S(=O)(=O)[N-]c2ccc(S(=O)(=O)NCc3ccco3)cc2)c1 (3D coordinates assigned)
COc1ccc(OC)c(S(=O)(=O)[N-]c2ccc(S(=O)(=O)NCc3ccco3)cc2)c1 (optimized conformer: 79.12638539648782 kcal/mol)

>  <smiles>  (43) 
COc1ccc(OC)c(S(=O)(=O)Nc2ccc(S(=O)(=O)NCc3ccco3)cc2)c1

>  <score_type>  (43) 
oracle

>  <origin>  (43) 
adgpu

>  <m_score__min__energy>  (43) 
-10.289999999999999

>  <m_primary>  (43) 
energy

$$$$
43:0
     RDKit          3D

 57 61  0  0  0  0  0  0  0  0999 V2000
   -0.8590   27.0420  -27.8360 C   0  0  0  0  0  0  0  0  0  0  0  0
   -1.5340   26.1150  -28.6720 O   0  0  0  0  0  0  0  0  0  0  0  0
   -1.3300   24.7360  -28.5840 C   0  0  0  0  0  0  0  0  0  0  0  0
   -0.0680   24.2240  -28.5540 N   0  0  0  0  0  0  0  0  0  0  0  0
    0.1720   22.8910  -28.4790 C   0  0  0  0  0  0  0  0  0  0  0  0
   -0.8970   21.9840  -28.4340 C   0  0  0  0  0  0  0  0  0  0  0  0
   -0.6600   20.5170  -28.4420 C   0  0  0  0  0  0  0  0  0  0  0  0
   -0.8680   19.7470  -27.2860 C   0  0  0  0  0  0  0  0  0  0  0  0
   -0.6030   18.3760  -27.2950 C   0  0  0  0  0  0  0  0  0  0  0  0
   -0.1160   17.7590  -28.4490 C   0  0  0  0  0  0  0  0  0  0  0  0
    0.1100   18.5060  -29.6110 C   0  0  0  0  0  0  0  0  0  0  0  0
    0.6480   17.8520  -30.7750 N   0  0  0  0  0  0  0  0  0  0  0  0
    1.6300   18.4420  -31.6450 C   0  0  0  0  0  0  0  0  0  0  0  0
    2.9620   18.0420  -31.5170 C   0  0  0  0  0  0  0  0  0  0  0  0
    3.9310   18.5650  -32.3710 C   0  0  0  0  0  0  0  0  0  0  0  0
    3.5970   19.4620  -33.3360 N   0  0  0  0  0  0  0  0  0  0  0  0
    4.5920   19.9290  -34.1650 O   0  0  0  0  0  0  0  0  0  0  0  0
    2.3090   19.9050  -33.4750 C   0  0  0  0  0  0  0  0  0  0  0  0
    1.9770   20.8490  -34.4670 C   0  0  0  0  0  0  0  0  0  0  0  0
    0.6670   21.3190  -34.5860 C   0  0  0  0  0  0  0  0  0  0  0  0
    0.2670   22.4910  -35.8270 Cl  0  0  0  0  0  0  0  0  0  0  0  0
   -0.3220   20.8710  -33.7100 C   0  0  0  0  0  0  0  0  0  0  0  0
   -0.0130   19.9390  -32.7200 C   0  0  0  0  0  0  0  0  0  0  0  0
    1.2930   19.4210  -32.6070 C   0  0  0  0  0  0  0  0  0  0  0  0
   -0.1880   19.8820  -29.6040 C   0  0  0  0  0  0  0  0  0  0  0  0
   -2.2030   22.4990  -28.4380 C   0  0  0  0  0  0  0  0  0  0  0  0
   -2.4310   23.8760  -28.5120 C   0  0  0  0  0  0  0  0  0  0  0  0
   -3.7580   24.4200  -28.5640 N   0  0  0  0  0  0  0  0  0  0  0  0
   -4.6830   24.6340  -30.0160 S   0  0  0  0  0  0  0  0  0  0  0  0
   -4.0010   25.6590  -30.8720 O   0  0  0  0  0  0  0  0  0  0  0  0
   -6.0370   25.1680  -29.6530 O   0  0  0  0  0  0  0  0  0  0  0  0
   -4.8230   23.1350  -30.9470 C   0  0  0  0  0  0  0  0  0  0  0  0
   -6.0810   22.5480  -31.1950 C   0  0  0  0  0  0  0  0  0  0  0  0
   -7.2250   23.1090  -30.7240 F   0  0  0  0  0  0  0  0  0  0  0  0
   -6.1730   21.3620  -31.9300 C   0  0  0  0  0  0  0  0  0  0  0  0
   -5.0190   20.7560  -32.4330 C   0  0  0  0  0  0  0  0  0  0  0  0
   -3.7680   21.3280  -32.1890 C   0  0  0  0  0  0  0  0  0  0  0  0
   -3.6650   22.5070  -31.4440 C   0  0  0  0  0  0  0  0  0  0  0  0
   -2.4350   23.0380  -31.2160 F   0  0  0  0  0  0  0  0  0  0  0  0
   -1.0442   26.7876  -26.7820 H   0  0  0  0  0  0  0  0  0  0  0  0
    0.2213   26.9998  -28.0390 H   0  0  0  0  0  0  0  0  0  0  0  0
   -1.2308   28.0571  -28.0390 H   0  0  0  0  0  0  0  0  0  0  0  0
    1.2074   22.5205  -28.4534 H   0  0  0  0  0  0  0  0  0  0  0  0
   -1.2415   20.2262  -26.3690 H   0  0  0  0  0  0  0  0  0  0  0  0
   -0.7789   17.7789  -26.3881 H   0  0  0  0  0  0  0  0  0  0  0  0
    0.0914   16.6787  -28.4450 H   0  0  0  0  0  0  0  0  0  0  0  0
    0.1940   16.9670  -31.0960 H   0  0  0  0  0  0  0  0  0  0  0  0
    3.2460   17.3144  -30.7424 H   0  0  0  0  0  0  0  0  0  0  0  0
    4.9788   18.2481  -32.2629 H   0  0  0  0  0  0  0  0  0  0  0  0
    2.7544   21.2182  -35.1521 H   0  0  0  0  0  0  0  0  0  0  0  0
   -1.3491   21.2543  -33.8006 H   0  0  0  0  0  0  0  0  0  0  0  0
   -0.7946   19.6053  -32.0216 H   0  0  0  0  0  0  0  0  0  0  0  0
   -0.0492   20.4701  -30.5232 H   0  0  0  0  0  0  0  0  0  0  0  0
   -3.0583   21.8096  -28.3821 H   0  0  0  0  0  0  0  0  0  0  0  0
   -7.1567   20.9049  -32.1127 H   0  0  0  0  0  0  0  0  0  0  0  0
   -5.0954   19.8293  -33.0207 H   0  0  0  0  0  0  0  0  0  0  0  0
   -2.8602   20.8490  -32.5845 H   0  0  0  0  0  0  0  0  0  0  0  0
  1  2  1  0
  2  3  1  0
  3  4  2  0
  4  5  1  0
  5  6  2  0
  6  7  1  0
  7  8  2  0
  8  9  1  0
  9 10  2  0
 10 11  1  0
 11 12  1  0
 12 13  1  0
 13 14  2  0
 14 15  1  0
 15 16  2  0
 16 17  1  0
 16 18  1  0
 18 19  2  0
 19 20  1  0
 20 21  1  0
 20 22  2  0
 22 23  1  0
 23 24  2  0
 11 25  2  0
  6 26  1  0
 26 27  2  0
 27 28  1  0
 28 29  1  0
 29 30  2  0
 29 31  2  0
 29 32  1  0
 32 33  2  0
 33 34  1  0
 33 35  1  0
 35 36  2  0
 36 37  1  0
 37 38  2  0
 38 39  1  0
 27  3  1  0
 38 32  1  0
 25  7  1  0
 24 13  1  0
 24 18  1  0
  1 40  1  0
  1 41  1  0
  1 42  1  0
  5 43  1  0
  8 44  1  0
  9 45  1  0
 10 46  1  0
 12 47  1  0
 14 48  1  0
 15 49  1  0
 19 50  1  0
 22 51  1  0
 23 52  1  0
 25 53  1  0
 26 54  1  0
 35 55  1  0
 36 56  1  0
 37 57  1  0
M  CHG  3  16   1  17  -1  28  -1
M  END
>  <UniqueID>  (44) 
41

>  <SMILES>  (44) 
COc1ncc(-c2cccc(Nc3cc[n+]([O-])c4cc(Cl)ccc34)c2)cc1[N-]S(=O)(=O)c1c(F)cccc1F

>  <Energy>  (44) 
84.97240533385694

>  <Genealogy>  (44) 
COc1ncc(-c2cccc(Nc3cc[n+]([O-])c4cc(Cl)ccc34)c2)cc1[N-]S(=O)(=O)c1c(F)cccc1F (protonated)
COc1ncc(-c2cccc(Nc3cc[n+]([O-])c4cc(Cl)ccc34)c2)cc1[N-]S(=O)(=O)c1c(F)cccc1F (3D coordinates assigned)
COc1ncc(-c2cccc(Nc3cc[n+]([O-])c4cc(Cl)ccc34)c2)cc1[N-]S(=O)(=O)c1c(F)cccc1F (optimized conformer: 84.97240533385694 kcal/mol)

>  <smiles>  (44) 
COc1ncc(-c2cccc(Nc3cc[n+]([O-])c4cc(Cl)ccc34)c2)cc1NS(=O)(=O)c1c(F)cccc1F

>  <score_type>  (44) 
oracle

>  <origin>  (44) 
adgpu

>  <m_score__min__energy>  (44) 
-11.49

>  <m_primary>  (44) 
energy

$$$$
44:0
     RDKit          3D

 36 39  0  0  0  0  0  0  0  0999 V2000
   -0.8709   26.9200  -25.9004 H   0  0  0  0  0  0  0  0  0  0  0  0
   -1.4040   26.1650  -26.4970 C   0  0  0  0  0  0  0  0  0  0  0  0
   -0.9400   25.8260  -27.7710 C   0  0  0  0  0  0  0  0  0  0  0  0
   -0.0462   26.3201  -28.1797 H   0  0  0  0  0  0  0  0  0  0  0  0
   -1.6110   24.8590  -28.5270 C   0  0  0  0  0  0  0  0  0  0  0  0
   -1.2546   24.6086  -29.5371 H   0  0  0  0  0  0  0  0  0  0  0  0
   -2.7340   24.2090  -28.0030 C   0  0  0  0  0  0  0  0  0  0  0  0
   -3.4410   23.2630  -28.8200 N   0  0  0  0  0  0  0  0  0  0  0  0
   -4.4670   23.4950  -29.5890 C   0  0  0  0  0  0  0  0  0  0  0  0
   -4.9340   22.4870  -30.3700 N   0  0  0  0  0  0  0  0  0  0  0  0
   -6.0090   22.6490  -31.1860 C   0  0  0  0  0  0  0  0  0  0  0  0
   -6.4470   21.5220  -32.0300 C   0  0  0  0  0  0  0  0  0  0  0  0
   -7.7700   21.2130  -32.3410 C   0  0  0  0  0  0  0  0  0  0  0  0
   -8.6448   21.7794  -31.9890 H   0  0  0  0  0  0  0  0  0  0  0  0
   -7.8290   20.1210  -33.1350 N   0  0  0  0  0  0  0  0  0  0  0  0
   -8.6920   19.6740  -33.5180 H   0  0  0  0  0  0  0  0  0  0  0  0
   -6.5570   19.7430  -33.3450 C   0  0  0  0  0  0  0  0  0  0  0  0
   -6.1160   18.6840  -34.1360 C   0  0  0  0  0  0  0  0  0  0  0  0
   -6.8309   18.0200  -34.6440 H   0  0  0  0  0  0  0  0  0  0  0  0
   -4.7300   18.4900  -34.2650 C   0  0  0  0  0  0  0  0  0  0  0  0
   -4.3490   17.6564  -34.8733 H   0  0  0  0  0  0  0  0  0  0  0  0
   -3.8240   19.3580  -33.6190 C   0  0  0  0  0  0  0  0  0  0  0  0
   -2.7413   19.2009  -33.7337 H   0  0  0  0  0  0  0  0  0  0  0  0
   -4.2950   20.4220  -32.8300 C   0  0  0  0  0  0  0  0  0  0  0  0
   -3.5968   21.1123  -32.3340 H   0  0  0  0  0  0  0  0  0  0  0  0
   -5.6790   20.5760  -32.6950 C   0  0  0  0  0  0  0  0  0  0  0  0
   -6.6400   23.8960  -31.2430 C   0  0  0  0  0  0  0  0  0  0  0  0
   -7.4891   24.0654  -31.9215 H   0  0  0  0  0  0  0  0  0  0  0  0
   -6.1700   24.9190  -30.4220 C   0  0  0  0  0  0  0  0  0  0  0  0
   -6.6621   25.9027  -30.4362 H   0  0  0  0  0  0  0  0  0  0  0  0
   -5.1050   24.7060  -29.6030 N   0  0  0  0  0  0  0  0  0  0  0  0
   -4.8190   25.4870  -28.9740 H   0  0  0  0  0  0  0  0  0  0  0  0
   -3.2170   24.5780  -26.7340 C   0  0  0  0  0  0  0  0  0  0  0  0
   -4.1255   24.1044  -26.3336 H   0  0  0  0  0  0  0  0  0  0  0  0
   -2.5450   25.5450  -25.9810 C   0  0  0  0  0  0  0  0  0  0  0  0
   -2.9146   25.8181  -24.9816 H   0  0  0  0  0  0  0  0  0  0  0  0
  1  2  1  0
  2  3  2  0
  3  4  1  0
  3  5  1  0
  5  6  1  0
  5  7  2  0
  7  8  1  0
  8  9  2  0
  9 10  1  0
 10 11  2  0
 11 12  1  0
 12 13  2  0
 13 14  1  0
 13 15  1  0
 15 16  1  0
 15 17  1  0
 17 18  2  0
 18 19  1  0
 18 20  1  0
 20 21  1  0
 20 22  2  0
 22 23  1  0
 22 24  1  0
 24 25  1  0
 24 26  2  0
 11 27  1  0
 27 28  1  0
 27 29  2  0
 29 30  1  0
 29 31  1  0
 31 32  1  0
  7 33  1  0
 33 34  1  0
 33 35  2  0
 35 36  1  0
 35  2  1  0
 31  9  1  0
 26 12  1  0
 26 17  1  0
M  END
>  <UniqueID>  (45) 
42

>  <SMILES>  (45) 
c1ccc(/N=c2/nc(-c3c[nH]c4ccccc34)cc[nH]2)cc1

>  <Energy>  (45) 
87.16297077571672

>  <Genealogy>  (45) 
c1ccc(/N=c2/nc(-c3c[nH]c4ccccc34)cc[nH]2)cc1 (cis-trans isomerization)
c1ccc(/N=c2/nc(-c3c[nH]c4ccccc34)cc[nH]2)cc1 (3D coordinates assigned)
c1ccc(/N=c2/nc(-c3c[nH]c4ccccc34)cc[nH]2)cc1 (optimized conformer: 87.16297077571672 kcal/mol)

>  <smiles>  (45) 
c1ccc(N=c2nc(-c3c[nH]c4ccccc34)cc[nH]2)cc1

>  <score_type>  (45) 
oracle

>  <origin>  (45) 
adgpu

>  <m_score__min__energy>  (45) 
-8.3900000000000006

>  <m_primary>  (45) 
energy

$$$$
45:0
     RDKit          3D

 35 37  0  0  0  0  0  0  0  0999 V2000
   -6.0072   17.4893  -34.3112 H   0  0  0  0  0  0  0  0  0  0  0  0
   -6.4520   18.3570  -33.8020 C   0  0  0  0  0  0  0  0  0  0  0  0
   -6.4330   19.5960  -34.2420 O   0  0  0  0  0  0  0  0  0  0  0  0
   -7.0400   20.4030  -33.4210 N   0  0  0  0  0  0  0  0  0  0  0  0
   -7.4720   19.6390  -32.3990 C   0  0  0  0  0  0  0  0  0  0  0  0
   -8.1200   20.0860  -31.3670 N   0  0  0  0  0  0  0  0  0  0  0  0
   -8.5220   21.7590  -31.1560 S   0  0  0  0  0  0  0  0  0  0  0  0
   -9.3120   22.2260  -32.3480 O   0  0  0  0  0  0  0  0  0  0  0  0
   -9.3600   21.9150  -29.9190 O   0  0  0  0  0  0  0  0  0  0  0  0
   -7.0520   22.7120  -30.9780 C   0  0  0  0  0  0  0  0  0  0  0  0
   -5.8060   22.1690  -31.3220 C   0  0  0  0  0  0  0  0  0  0  0  0
   -5.7454   21.1524  -31.7377 H   0  0  0  0  0  0  0  0  0  0  0  0
   -4.6400   22.9190  -31.1370 C   0  0  0  0  0  0  0  0  0  0  0  0
   -3.6660   22.4944  -31.4217 H   0  0  0  0  0  0  0  0  0  0  0  0
   -4.7050   24.2060  -30.5920 C   0  0  0  0  0  0  0  0  0  0  0  0
   -3.4870   24.9380  -30.3880 N   0  0  0  0  0  0  0  0  0  0  0  0
   -2.5200   24.6900  -29.3580 C   0  0  0  0  0  0  0  0  0  0  0  0
   -1.8170   25.6500  -28.9470 O   0  0  0  0  0  0  0  0  0  0  0  0
   -2.3040   23.3390  -28.7890 C   0  0  0  0  0  0  0  0  0  0  0  0
   -3.3120   22.7420  -28.0120 C   0  0  0  0  0  0  0  0  0  0  0  0
   -4.2469   23.2878  -27.8169 H   0  0  0  0  0  0  0  0  0  0  0  0
   -3.1340   21.4600  -27.4860 C   0  0  0  0  0  0  0  0  0  0  0  0
   -3.9324   20.9962  -26.8881 H   0  0  0  0  0  0  0  0  0  0  0  0
   -1.9440   20.7660  -27.7180 C   0  0  0  0  0  0  0  0  0  0  0  0
   -1.8082   19.7546  -27.3074 H   0  0  0  0  0  0  0  0  0  0  0  0
   -0.9270   21.3560  -28.4710 C   0  0  0  0  0  0  0  0  0  0  0  0
    0.0109   20.8095  -28.6489 H   0  0  0  0  0  0  0  0  0  0  0  0
   -1.0970   22.6400  -29.0000 C   0  0  0  0  0  0  0  0  0  0  0  0
   -0.0730   23.2080  -29.6850 F   0  0  0  0  0  0  0  0  0  0  0  0
   -5.9590   24.7640  -30.2880 C   0  0  0  0  0  0  0  0  0  0  0  0
   -6.0226   25.7917  -29.9010 H   0  0  0  0  0  0  0  0  0  0  0  0
   -7.1250   24.0170  -30.4760 C   0  0  0  0  0  0  0  0  0  0  0  0
   -8.1030   24.4556  -30.2289 H   0  0  0  0  0  0  0  0  0  0  0  0
   -7.1220   18.3250  -32.5960 C   0  0  0  0  0  0  0  0  0  0  0  0
   -7.3261   17.4586  -31.9498 H   0  0  0  0  0  0  0  0  0  0  0  0
  1  2  1  0
  2  3  1  0
  3  4  1  0
  4  5  1  0
  5  6  2  0
  6  7  1  0
  7  8  2  0
  7  9  2  0
  7 10  1  0
 10 11  2  0
 11 12  1  0
 11 13  1  0
 13 14  1  0
 13 15  2  0
 15 16  1  0
 16 17  1  0
 17 18  2  0
 17 19  1  0
 19 20  2  0
 20 21  1  0
 20 22  1  0
 22 23  1  0
 22 24  2  0
 24 25  1  0
 24 26  1  0
 26 27  1  0
 26 28  2  0
 28 29  1  0
 15 30  1  0
 30 31  1  0
 30 32  2  0
 32 33  1  0
  5 34  1  0
 34 35  1  0
 34  2  2  0
 32 10  1  0
 28 19  1  0
M  CHG  2   4  -1  16  -1
M  END
>  <UniqueID>  (46) 
43

>  <SMILES>  (46) 
O=C([N-]c1ccc(S(=O)(=O)/N=c2/cco[n-]2)cc1)c1ccccc1F

>  <Energy>  (46) 
79.08308108766884

>  <Genealogy>  (46) 
O=C([N-]c1ccc(S(=O)(=O)N=c2cco[n-]2)cc1)c1ccccc1F (protonated)
O=C([N-]c1ccc(S(=O)(=O)/N=c2/cco[n-]2)cc1)c1ccccc1F (cis-trans isomerization)
O=C([N-]c1ccc(S(=O)(=O)/N=c2/cco[n-]2)cc1)c1ccccc1F (3D coordinates assigned)
O=C([N-]c1ccc(S(=O)(=O)/N=c2/cco[n-]2)cc1)c1ccccc1F (optimized conformer: 79.08308108766884 kcal/mol)

>  <smiles>  (46) 
O=C(Nc1ccc(S(=O)(=O)N=c2cco[nH]2)cc1)c1ccccc1F

>  <score_type>  (46) 
oracle

>  <origin>  (46) 
adgpu

>  <m_score__min__energy>  (46) 
-10.710000000000001

>  <m_primary>  (46) 
energy

$$$$
46:0
     RDKit          3D

 45 48  0  0  0  0  0  0  0  0999 V2000
   -6.0480   12.4570  -34.6360 C   0  0  0  0  0  0  0  0  0  0  0  0
   -5.0640   13.4290  -34.2970 O   0  0  0  0  0  0  0  0  0  0  0  0
   -5.3520   14.6990  -33.7790 C   0  0  0  0  0  0  0  0  0  0  0  0
   -6.5080   15.3520  -34.2220 C   0  0  0  0  0  0  0  0  0  0  0  0
   -6.8400   16.6200  -33.7350 C   0  0  0  0  0  0  0  0  0  0  0  0
   -6.0240   17.2500  -32.7800 C   0  0  0  0  0  0  0  0  0  0  0  0
   -6.3260   18.5650  -32.2820 N   0  0  0  0  0  0  0  0  0  0  0  0
   -7.6580   19.0700  -32.0850 C   0  0  0  0  0  0  0  0  0  0  0  0
   -8.6250   18.2690  -31.9670 O   0  0  0  0  0  0  0  0  0  0  0  0
   -7.8950   20.5270  -31.9510 C   0  0  0  0  0  0  0  0  0  0  0  0
   -9.1830   21.0600  -32.1310 C   0  0  0  0  0  0  0  0  0  0  0  0
   -9.4070   22.4310  -31.9720 C   0  0  0  0  0  0  0  0  0  0  0  0
   -8.3560   23.2790  -31.6210 C   0  0  0  0  0  0  0  0  0  0  0  0
   -7.0640   22.7640  -31.4290 C   0  0  0  0  0  0  0  0  0  0  0  0
   -5.9580   23.6730  -31.0520 C   0  0  0  0  0  0  0  0  0  0  0  0
   -6.1490   24.9020  -30.5340 N   0  0  0  0  0  0  0  0  0  0  0  0
   -4.9350   25.4240  -30.4180 N   0  0  0  0  0  0  0  0  0  0  0  0
   -4.0250   24.5600  -30.8410 N   0  0  0  0  0  0  0  0  0  0  0  0
   -4.6360   23.4580  -31.2380 N   0  0  0  0  0  0  0  0  0  0  0  0
   -3.9510   22.2760  -31.6820 C   0  0  0  0  0  0  0  0  0  0  0  0
   -3.9980   21.8800  -33.0300 C   0  0  0  0  0  0  0  0  0  0  0  0
   -3.2950   20.7500  -33.4570 C   0  0  0  0  0  0  0  0  0  0  0  0
   -2.5510   19.9990  -32.5410 C   0  0  0  0  0  0  0  0  0  0  0  0
   -1.6510   18.5950  -33.0820 Cl  0  0  0  0  0  0  0  0  0  0  0  0
   -2.5280   20.3690  -31.1920 C   0  0  0  0  0  0  0  0  0  0  0  0
   -3.2320   21.4990  -30.7620 C   0  0  0  0  0  0  0  0  0  0  0  0
   -6.8360   21.3950  -31.6380 C   0  0  0  0  0  0  0  0  0  0  0  0
   -4.8550   16.6050  -32.3510 C   0  0  0  0  0  0  0  0  0  0  0  0
   -4.5230   15.3380  -32.8380 C   0  0  0  0  0  0  0  0  0  0  0  0
   -6.4770   12.0332  -33.7160 H   0  0  0  0  0  0  0  0  0  0  0  0
   -6.8447   12.9324  -35.2269 H   0  0  0  0  0  0  0  0  0  0  0  0
   -5.5824   11.6545  -35.2269 H   0  0  0  0  0  0  0  0  0  0  0  0
   -7.1612   14.8633  -34.9599 H   0  0  0  0  0  0  0  0  0  0  0  0
   -7.7448   17.1271  -34.1014 H   0  0  0  0  0  0  0  0  0  0  0  0
   -5.5280   19.1500  -31.9440 H   0  0  0  0  0  0  0  0  0  0  0  0
  -10.0182   20.3959  -32.3981 H   0  0  0  0  0  0  0  0  0  0  0  0
  -10.4157   22.8426  -32.1242 H   0  0  0  0  0  0  0  0  0  0  0  0
   -8.5405   24.3560  -31.4941 H   0  0  0  0  0  0  0  0  0  0  0  0
   -4.5904   22.4617  -33.7516 H   0  0  0  0  0  0  0  0  0  0  0  0
   -3.3268   20.4508  -34.5150 H   0  0  0  0  0  0  0  0  0  0  0  0
   -1.9554   19.7705  -30.4682 H   0  0  0  0  0  0  0  0  0  0  0  0
   -3.2216   21.7791  -29.6983 H   0  0  0  0  0  0  0  0  0  0  0  0
   -5.8141   20.9964  -31.5556 H   0  0  0  0  0  0  0  0  0  0  0  0
   -4.1938   17.1006  -31.6250 H   0  0  0  0  0  0  0  0  0  0  0  0
   -3.6095   14.8377  -32.4843 H   0  0  0  0  0  0  0  0  0  0  0  0
  1  2  1  0
  2  3  1  0
  3  4  2  0
  4  5  1  0
  5  6  2  0
  6  7  1  0
  7  8  1  0
  8  9  2  0
  8 10  1  0
 10 11  2  0
 11 12  1  0
 12 13  2  0
 13 14  1  0
 14 15  1  0
 15 16  2  0
 16 17  1  0
 17 18  2  0
 18 19  1  0
 19 20  1  0
 20 21  2  0
 21 22  1  0
 22 23  2  0
 23 24  1  0
 23 25  1  0
 25 26  2  0
 14 27  2  0
  6 28  1  0
 28 29  2  0
 29  3  1  0
 27 10  1  0
 19 15  1  0
 26 20  1  0
  1 30  1  0
  1 31  1  0
  1 32  1  0
  4 33  1  0
  5 34  1  0
  7 35  1  0
 11 36  1  0
 12 37  1  0
 13 38  1  0
 21 39  1  0
 22 40  1  0
 25 41  1  0
 26 42  1  0
 27 43  1  0
 28 44  1  0
 29 45  1  0
M  END
>  <UniqueID>  (47) 
44

>  <SMILES>  (47) 
COc1ccc(NC(=O)c2cccc(-c3nnnn3-c3ccc(Cl)cc3)c2)cc1

>  <Energy>  (47) 
101.4967089656669

>  <Genealogy>  (47) 
COc1ccc(NC(=O)c2cccc(-c3nnnn3-c3ccc(Cl)cc3)c2)cc1 (3D coordinates assigned)
COc1ccc(NC(=O)c2cccc(-c3nnnn3-c3ccc(Cl)cc3)c2)cc1 (optimized conformer: 101.4967089656669 kcal/mol)

>  <smiles>  (47) 
COc1ccc(NC(=O)c2cccc(-c3nnnn3-c3ccc(Cl)cc3)c2)cc1

>  <score_type>  (47) 
oracle

>  <origin>  (47) 
adgpu

>  <m_score__min__energy>  (47) 
-10.31

>  <m_primary>  (47) 
energy

$$$$
47:0
     RDKit          3D

 81 86  0  0  0  0  0  0  0  0999 V2000
   -9.7290   22.2650  -32.2060 C   0  0  0  0  0  0  0  0  0  0  0  0
   -8.5200   22.7870  -32.0080 C   0  0  0  0  0  0  0  0  0  0  0  0
   -7.9180   22.8330  -30.6700 C   0  0  0  0  0  0  0  0  0  0  0  0
   -8.2880   21.9990  -29.8010 O   0  0  0  0  0  0  0  0  0  0  0  0
   -6.9330   23.8200  -30.3440 N   0  0  0  0  0  0  0  0  0  0  0  0
   -5.7530   23.4940  -29.5860 C   0  0  0  0  0  0  0  0  0  0  0  0
   -5.7120   22.3380  -28.7810 C   0  0  0  0  0  0  0  0  0  0  0  0
   -4.5410   21.9720  -28.1300 C   0  0  0  0  0  0  0  0  0  0  0  0
   -3.3840   22.7730  -28.2360 C   0  0  0  0  0  0  0  0  0  0  0  0
   -2.1990   22.4050  -27.6060 O   0  0  0  0  0  0  0  0  0  0  0  0
   -1.2650   21.5330  -28.1810 C   0  0  0  0  0  0  0  0  0  0  0  0
   -0.7040   20.4820  -27.4320 C   0  0  0  0  0  0  0  0  0  0  0  0
   -1.0820   20.2610  -25.9970 C   0  0  0  0  0  0  0  0  0  0  0  0
    0.2060   19.6130  -28.0520 C   0  0  0  0  0  0  0  0  0  0  0  0
    0.5960   19.8020  -29.3730 C   0  0  0  0  0  0  0  0  0  0  0  0
    1.5830   18.8900  -29.8910 N   0  0  0  0  0  0  0  0  0  0  0  0
    2.6470   18.3640  -29.3690 C   0  0  0  0  0  0  0  0  0  0  0  0
    3.0510   18.6450  -28.0930 N   0  0  0  0  0  0  0  0  0  0  0  0
    4.1480   18.0640  -27.5260 C   0  0  0  0  0  0  0  0  0  0  0  0
    4.8920   17.1120  -28.2250 C   0  0  0  0  0  0  0  0  0  0  0  0
    4.4710   16.7970  -29.5230 C   0  0  0  0  0  0  0  0  0  0  0  0
    5.0950   15.6530  -30.5860 S   0  0  0  0  0  0  0  0  0  0  0  0
    3.9590   15.9330  -31.8040 C   0  0  0  0  0  0  0  0  0  0  0  0
    3.8330   15.1930  -33.0710 C   0  0  0  0  0  0  0  0  0  0  0  0
    3.0810   15.7050  -34.1360 C   0  0  0  0  0  0  0  0  0  0  0  0
    3.0100   15.0300  -35.3510 C   0  0  0  0  0  0  0  0  0  0  0  0
    3.6790   13.8080  -35.5290 C   0  0  0  0  0  0  0  0  0  0  0  0
    3.7450   13.2080  -36.8930 C   0  0  0  0  0  0  0  0  0  0  0  0
    2.4040   12.7150  -37.2250 N   0  0  0  0  0  0  0  0  0  0  0  0
    2.4210   11.7050  -38.3010 C   0  0  0  0  0  0  0  0  0  0  0  0
    0.9870   11.4540  -38.8120 C   0  0  0  0  0  0  0  0  0  0  0  0
   -0.0340   11.9220  -37.8520 N   0  0  0  0  0  0  0  0  0  0  0  0
   -0.6210   13.2790  -38.0500 C   0  0  0  0  0  0  0  0  0  0  0  0
   -0.8320   14.1540  -36.7740 C   0  0  0  0  0  0  0  0  0  0  0  0
    0.3340   14.8750  -36.4590 O   0  0  0  0  0  0  0  0  0  0  0  0
    0.3230   11.6000  -36.4560 C   0  0  0  0  0  0  0  0  0  0  0  0
    1.6660   12.2180  -36.0480 C   0  0  0  0  0  0  0  0  0  0  0  0
    4.3870   13.2580  -34.4450 C   0  0  0  0  0  0  0  0  0  0  0  0
    4.4560   13.9320  -33.2280 C   0  0  0  0  0  0  0  0  0  0  0  0
    3.0860   16.9540  -31.3940 C   0  0  0  0  0  0  0  0  0  0  0  0
    3.3860   17.4240  -30.0990 C   0  0  0  0  0  0  0  0  0  0  0  0
    0.0230   20.8420  -30.1290 C   0  0  0  0  0  0  0  0  0  0  0  0
   -0.8890   21.7170  -29.5230 C   0  0  0  0  0  0  0  0  0  0  0  0
   -1.5870   23.0350  -30.4570 Cl  0  0  0  0  0  0  0  0  0  0  0  0
   -3.4150   23.9250  -29.0410 C   0  0  0  0  0  0  0  0  0  0  0  0
   -4.5900   24.2920  -29.7050 C   0  0  0  0  0  0  0  0  0  0  0  0
   -4.6010   25.7630  -30.6690 Cl  0  0  0  0  0  0  0  0  0  0  0  0
  -10.1591   22.2419  -33.2182 H   0  0  0  0  0  0  0  0  0  0  0  0
  -10.2976   21.8569  -31.3574 H   0  0  0  0  0  0  0  0  0  0  0  0
   -7.9611   23.1920  -32.8645 H   0  0  0  0  0  0  0  0  0  0  0  0
   -6.9910   24.7580  -30.8040 H   0  0  0  0  0  0  0  0  0  0  0  0
   -6.6151   21.7203  -28.6673 H   0  0  0  0  0  0  0  0  0  0  0  0
   -4.5153   21.0518  -27.5279 H   0  0  0  0  0  0  0  0  0  0  0  0
   -0.3181   20.7076  -25.3436 H   0  0  0  0  0  0  0  0  0  0  0  0
   -2.0559   20.7320  -25.7976 H   0  0  0  0  0  0  0  0  0  0  0  0
   -1.1492   19.1813  -25.7976 H   0  0  0  0  0  0  0  0  0  0  0  0
    0.6184   18.7669  -27.4828 H   0  0  0  0  0  0  0  0  0  0  0  0
    4.4492   18.3490  -26.5071 H   0  0  0  0  0  0  0  0  0  0  0  0
    5.7722   16.6294  -27.7751 H   0  0  0  0  0  0  0  0  0  0  0  0
    2.5390   16.6539  -34.0103 H   0  0  0  0  0  0  0  0  0  0  0  0
    2.4250   15.4572  -36.1788 H   0  0  0  0  0  0  0  0  0  0  0  0
    4.0563   13.9695  -37.6233 H   0  0  0  0  0  0  0  0  0  0  0  0
    4.4764   12.3868  -36.9193 H   0  0  0  0  0  0  0  0  0  0  0  0
    3.0452   12.0675  -39.1310 H   0  0  0  0  0  0  0  0  0  0  0  0
    2.8336   10.7646  -37.9069 H   0  0  0  0  0  0  0  0  0  0  0  0
    0.8507   11.9885  -39.7637 H   0  0  0  0  0  0  0  0  0  0  0  0
    0.8583   10.3693  -38.9421 H   0  0  0  0  0  0  0  0  0  0  0  0
    0.0464   13.8337  -38.7259 H   0  0  0  0  0  0  0  0  0  0  0  0
   -1.6326   13.0978  -38.4422 H   0  0  0  0  0  0  0  0  0  0  0  0
   -1.6546   14.8615  -36.9549 H   0  0  0  0  0  0  0  0  0  0  0  0
   -1.0728   13.4908  -35.9301 H   0  0  0  0  0  0  0  0  0  0  0  0
    1.0950   14.3830  -36.8600 H   0  0  0  0  0  0  0  0  0  0  0  0
   -0.4626   11.9871  -35.7904 H   0  0  0  0  0  0  0  0  0  0  0  0
    0.4132   10.5069  -36.3724 H   0  0  0  0  0  0  0  0  0  0  0  0
    1.4811   13.0563  -35.3602 H   0  0  0  0  0  0  0  0  0  0  0  0
    2.2725   11.4416  -35.5588 H   0  0  0  0  0  0  0  0  0  0  0  0
    4.8907   12.2868  -34.5595 H   0  0  0  0  0  0  0  0  0  0  0  0
    4.9981   13.4813  -32.3836 H   0  0  0  0  0  0  0  0  0  0  0  0
    2.2630   17.3422  -32.0120 H   0  0  0  0  0  0  0  0  0  0  0  0
    0.2893   20.9672  -31.1889 H   0  0  0  0  0  0  0  0  0  0  0  0
   -2.5102   24.5412  -29.1493 H   0  0  0  0  0  0  0  0  0  0  0  0
  1  2  2  0
  2  3  1  0
  3  4  2  0
  3  5  1  0
  5  6  1  0
  6  7  2  0
  7  8  1  0
  8  9  2  0
  9 10  1  0
 10 11  1  0
 11 12  2  0
 12 13  1  0
 12 14  1  0
 14 15  2  0
 15 16  1  0
 16 17  2  3
 17 18  1  0
 18 19  1  0
 19 20  2  0
 20 21  1  0
 21 22  1  0
 22 23  1  0
 23 24  1  0
 24 25  2  0
 25 26  1  0
 26 27  2  0
 27 28  1  0
 28 29  1  0
 29 30  1  0
 30 31  1  0
 31 32  1  0
 32 33  1  0
 33 34  1  0
 34 35  1  0
 32 36  1  0
 36 37  1  0
 27 38  1  0
 38 39  2  0
 23 40  2  0
 40 41  1  0
 15 42  1  0
 42 43  2  0
 43 44  1  0
  9 45  1  0
 45 46  2  0
 46 47  1  0
 46  6  1  0
 43 11  1  0
 41 17  1  0
 41 21  2  0
 39 24  1  0
 37 29  1  0
  1 48  1  0
  1 49  1  0
  2 50  1  0
  5 51  1  0
  7 52  1  0
  8 53  1  0
 13 54  1  0
 13 55  1  0
 13 56  1  0
 14 57  1  0
 19 58  1  0
 20 59  1  0
 25 60  1  0
 26 61  1  0
 28 62  1  0
 28 63  1  0
 30 64  1  0
 30 65  1  0
 31 66  1  0
 31 67  1  0
 33 68  1  0
 33 69  1  0
 34 70  1  0
 34 71  1  0
 35 72  1  0
 36 73  1  0
 36 74  1  0
 37 75  1  0
 37 76  1  0
 38 77  1  0
 39 78  1  0
 40 79  1  0
 42 80  1  0
 45 81  1  0
M  CHG  1  18  -1
M  END
>  <UniqueID>  (48) 
45

>  <SMILES>  (48) 
C=CC(=O)Nc1ccc(Oc2c(C)cc(N=c3[n-]ccc4sc(-c5ccc(CN6CCN(CCO)CC6)cc5)cc34)cc2Cl)cc1Cl

>  <Energy>  (48) 
171.21723287710523

>  <Genealogy>  (48) 
C=CC(=O)Nc1ccc(Oc2c(C)cc(N=c3[n-]ccc4sc(-c5ccc(CN6CCN(CCO)CC6)cc5)cc34)cc2Cl)cc1Cl (protonated)
C=CC(=O)Nc1ccc(Oc2c(C)cc(N=c3[n-]ccc4sc(-c5ccc(CN6CCN(CCO)CC6)cc5)cc34)cc2Cl)cc1Cl (3D coordinates assigned)
C=CC(=O)Nc1ccc(Oc2c(C)cc(N=c3[n-]ccc4sc(-c5ccc(CN6CCN(CCO)CC6)cc5)cc34)cc2Cl)cc1Cl (nonaromatic ring conformer: 171.21723287710523 kcal/mol)

>  <smiles>  (48) 
C=CC(=O)Nc1ccc(Oc2c(C)cc(N=c3[nH]ccc4sc(-c5ccc(CN6CCN(CCO)CC6)cc5)cc34)cc2Cl)cc1Cl

>  <score_type>  (48) 
oracle

>  <origin>  (48) 
adgpu

>  <m_score__min__energy>  (48) 
-9.8100000000000005

>  <m_primary>  (48) 
energy

$$$$
48:0
     RDKit          3D

 57 61  0  0  0  0  0  0  0  0999 V2000
  -10.6572   20.6188  -31.4920 H   0  0  0  0  0  0  0  0  0  0  0  0
   -9.6200   20.7900  -31.8160 C   0  0  0  0  0  0  0  0  0  0  0  0
   -9.0720   22.0270  -31.7040 N   0  0  0  0  0  0  0  0  0  0  0  0
   -7.7990   22.2870  -32.1010 C   0  0  0  0  0  0  0  0  0  0  0  0
   -7.2670   23.6070  -31.9140 N   0  0  0  0  0  0  0  0  0  0  0  0
   -6.1230   23.9370  -31.3780 C   0  0  0  0  0  0  0  0  0  0  0  0
   -5.8420   25.2940  -31.1890 C   0  0  0  0  0  0  0  0  0  0  0  0
   -6.5773   26.0556  -31.4878 H   0  0  0  0  0  0  0  0  0  0  0  0
   -4.6280   25.6800  -30.6210 C   0  0  0  0  0  0  0  0  0  0  0  0
   -4.4066   26.7470  -30.4709 H   0  0  0  0  0  0  0  0  0  0  0  0
   -3.7190   24.7410  -30.2530 N   0  0  0  0  0  0  0  0  0  0  0  0
   -3.9410   23.4090  -30.4270 C   0  0  0  0  0  0  0  0  0  0  0  0
   -2.9010   22.4350  -30.0070 C   0  0  0  0  0  0  0  0  0  0  0  0
   -2.5500   21.3460  -30.8260 C   0  0  0  0  0  0  0  0  0  0  0  0
   -3.0457   21.2127  -31.7989 H   0  0  0  0  0  0  0  0  0  0  0  0
   -1.5770   20.4330  -30.4130 C   0  0  0  0  0  0  0  0  0  0  0  0
   -1.3128   19.5860  -31.0632 H   0  0  0  0  0  0  0  0  0  0  0  0
   -0.9350   20.5870  -29.1780 C   0  0  0  0  0  0  0  0  0  0  0  0
    0.0950   19.6060  -28.7770 C   0  0  0  0  0  0  0  0  0  0  0  0
    1.3510   19.6510  -29.4010 C   0  0  0  0  0  0  0  0  0  0  0  0
    1.5548   20.4177  -30.1630 H   0  0  0  0  0  0  0  0  0  0  0  0
    2.3440   18.7300  -29.0620 C   0  0  0  0  0  0  0  0  0  0  0  0
    3.3258   18.7728  -29.5563 H   0  0  0  0  0  0  0  0  0  0  0  0
    2.0910   17.7550  -28.0960 C   0  0  0  0  0  0  0  0  0  0  0  0
    2.8721   17.0260  -27.8342 H   0  0  0  0  0  0  0  0  0  0  0  0
    0.8480   17.7030  -27.4610 C   0  0  0  0  0  0  0  0  0  0  0  0
    0.6537   16.9285  -26.7044 H   0  0  0  0  0  0  0  0  0  0  0  0
   -0.1560   18.6320  -27.7810 C   0  0  0  0  0  0  0  0  0  0  0  0
   -1.4870   18.5550  -27.0810 C   0  0  0  0  0  0  0  0  0  0  0  0
   -1.3298   18.5641  -25.9923 H   0  0  0  0  0  0  0  0  0  0  0  0
   -2.1036   19.4190  -27.3697 H   0  0  0  0  0  0  0  0  0  0  0  0
   -1.9999   17.6257  -27.3697 H   0  0  0  0  0  0  0  0  0  0  0  0
   -1.2940   21.6640  -28.3400 C   0  0  0  0  0  0  0  0  0  0  0  0
   -0.6820   21.8380  -27.0440 C   0  0  0  0  0  0  0  0  0  0  0  0
   -0.1910   21.9770  -26.0050 N   0  0  0  0  0  0  0  0  0  0  0  0
   -2.2730   22.5760  -28.7570 C   0  0  0  0  0  0  0  0  0  0  0  0
   -2.5533   23.4116  -28.0989 H   0  0  0  0  0  0  0  0  0  0  0  0
   -5.1450   22.9860  -31.0190 C   0  0  0  0  0  0  0  0  0  0  0  0
   -5.3234   21.9160  -31.2015 H   0  0  0  0  0  0  0  0  0  0  0  0
   -6.9990   21.2400  -32.5890 C   0  0  0  0  0  0  0  0  0  0  0  0
   -5.9490   21.4297  -32.8564 H   0  0  0  0  0  0  0  0  0  0  0  0
   -7.5390   19.9500  -32.7360 C   0  0  0  0  0  0  0  0  0  0  0  0
   -6.7440   18.8710  -33.2820 N   0  0  0  0  0  0  0  0  0  0  0  0
   -6.8640   17.4810  -32.8670 C   0  0  0  0  0  0  0  0  0  0  0  0
   -6.5463   17.3657  -31.8202 H   0  0  0  0  0  0  0  0  0  0  0  0
   -7.9041   17.1289  -32.9324 H   0  0  0  0  0  0  0  0  0  0  0  0
   -5.9470   16.6880  -33.7890 C   0  0  0  0  0  0  0  0  0  0  0  0
   -5.3781   15.9419  -33.2148 H   0  0  0  0  0  0  0  0  0  0  0  0
   -6.5164   16.1409  -34.5548 H   0  0  0  0  0  0  0  0  0  0  0  0
   -5.0040   17.7100  -34.4130 C   0  0  0  0  0  0  0  0  0  0  0  0
   -4.0454   17.7256  -33.8738 H   0  0  0  0  0  0  0  0  0  0  0  0
   -4.7821   17.4673  -35.4627 H   0  0  0  0  0  0  0  0  0  0  0  0
   -5.7050   19.0550  -34.2860 C   0  0  0  0  0  0  0  0  0  0  0  0
   -4.9929   19.8284  -33.9623 H   0  0  0  0  0  0  0  0  0  0  0  0
   -6.1265   19.3829  -35.2477 H   0  0  0  0  0  0  0  0  0  0  0  0
   -8.8720   19.7340  -32.3410 C   0  0  0  0  0  0  0  0  0  0  0  0
   -9.3236   18.7364  -32.4454 H   0  0  0  0  0  0  0  0  0  0  0  0
  1  2  1  0
  2  3  2  0
  3  4  1  0
  4  5  1  0
  5  6  2  0
  6  7  1  0
  7  8  1  0
  7  9  2  0
  9 10  1  0
  9 11  1  0
 11 12  1  0
 12 13  1  0
 13 14  2  0
 14 15  1  0
 14 16  1  0
 16 17  1  0
 16 18  2  0
 18 19  1  0
 19 20  2  0
 20 21  1  0
 20 22  1  0
 22 23  1  0
 22 24  2  0
 24 25  1  0
 24 26  1  0
 26 27  1  0
 26 28  2  0
 28 29  1  0
 29 30  1  0
 29 31  1  0
 29 32  1  0
 18 33  1  0
 33 34  1  0
 34 35  3  0
 33 36  2  0
 36 37  1  0
 12 38  2  0
 38 39  1  0
  4 40  2  0
 40 41  1  0
 40 42  1  0
 42 43  1  0
 43 44  1  0
 44 45  1  0
 44 46  1  0
 44 47  1  0
 47 48  1  0
 47 49  1  0
 47 50  1  0
 50 51  1  0
 50 52  1  0
 50 53  1  0
 53 54  1  0
 53 55  1  0
 42 56  2  0
 56 57  1  0
 56  2  1  0
 38  6  1  0
 53 43  1  0
 36 13  1  0
 28 19  1  0
M  CHG  1  11  -1
M  END
>  <UniqueID>  (49) 
46

>  <SMILES>  (49) 
Cc1ccccc1-c1ccc(-c2c/c(=N\c3cc(N4CCCC4)ccn3)cc[n-]2)cc1C#N

>  <Energy>  (49) 
85.93061447651709

>  <Genealogy>  (49) 
Cc1ccccc1-c1ccc(-c2cc(=Nc3cc(N4CCCC4)ccn3)cc[n-]2)cc1C#N (protonated)
Cc1ccccc1-c1ccc(-c2c/c(=N\c3cc(N4CCCC4)ccn3)cc[n-]2)cc1C#N (cis-trans isomerization)
Cc1ccccc1-c1ccc(-c2c/c(=N\c3cc(N4CCCC4)ccn3)cc[n-]2)cc1C#N (3D coordinates assigned)
Cc1ccccc1-c1ccc(-c2c/c(=N\c3cc(N4CCCC4)ccn3)cc[n-]2)cc1C#N (nonaromatic ring conformer: 85.93061447651709 kcal/mol)

>  <smiles>  (49) 
Cc1ccccc1-c1ccc(-c2cc(=Nc3cc(N4CCCC4)ccn3)cc[nH]2)cc1C#N

>  <score_type>  (49) 
oracle

>  <origin>  (49) 
adgpu

>  <m_score__min__energy>  (49) 
-11.76

>  <m_primary>  (49) 
energy

$$$$
