0:0
     RDKit          3D

 35 37  0  0  0  0  0  0  0  0999 V2000
   -7.6570   18.2150  -32.2660 C   0  0  0  0  0  0  0  0  0  0  0  0
   -7.0090   19.4640  -32.8600 C   0  0  0  0  0  0  0  0  0  0  0  0
   -7.6050   20.6860  -32.2970 N   0  0  0  0  0  0  0  0  0  0  0  0
   -9.0700   20.7720  -32.1730 C   0  0  0  0  0  0  0  0  0  0  0  0
   -9.4640   21.5610  -30.9290 C   0  0  0  0  0  0  0  0  0  0  0  0
   -6.7590   21.7800  -31.8700 C   0  0  0  0  0  0  0  0  0  0  0  0
   -7.0080   23.1050  -32.3320 C   0  0  0  0  0  0  0  0  0  0  0  0
   -6.2000   24.1800  -31.9170 C   0  0  0  0  0  0  0  0  0  0  0  0
   -5.1540   23.9030  -31.0440 C   0  0  0  0  0  0  0  0  0  0  0  0
   -4.2630   24.7640  -30.5250 N   0  0  0  0  0  0  0  0  0  0  0  0
   -3.4930   23.9420  -29.7620 C   0  0  0  0  0  0  0  0  0  0  0  0
   -2.3540   24.4110  -28.9680 C   0  0  0  0  0  0  0  0  0  0  0  0
   -1.5810   23.6390  -28.1230 C   0  0  0  0  0  0  0  0  0  0  0  0
   -0.6390   24.4970  -27.5990 C   0  0  0  0  0  0  0  0  0  0  0  0
   -0.8950   25.7350  -28.1540 C   0  0  0  0  0  0  0  0  0  0  0  0
   -1.9240   25.6510  -28.9660 O   0  0  0  0  0  0  0  0  0  0  0  0
   -3.8730   22.6750  -29.8020 O   0  0  0  0  0  0  0  0  0  0  0  0
   -4.9070   22.6430  -30.5990 C   0  0  0  0  0  0  0  0  0  0  0  0
   -5.6790   21.5520  -30.9820 C   0  0  0  0  0  0  0  0  0  0  0  0
   -7.6268   18.2732  -31.1680 H   0  0  0  0  0  0  0  0  0  0  0  0
   -8.7027   18.1498  -32.6011 H   0  0  0  0  0  0  0  0  0  0  0  0
   -7.1082   17.3225  -32.6011 H   0  0  0  0  0  0  0  0  0  0  0  0
   -5.9323   19.4523  -32.6350 H   0  0  0  0  0  0  0  0  0  0  0  0
   -7.1755   19.4618  -33.9473 H   0  0  0  0  0  0  0  0  0  0  0  0
   -9.4781   21.2742  -33.0625 H   0  0  0  0  0  0  0  0  0  0  0  0
   -9.4764   19.7534  -32.0873 H   0  0  0  0  0  0  0  0  0  0  0  0
   -9.1808   20.9938  -30.0301 H   0  0  0  0  0  0  0  0  0  0  0  0
   -8.9442   22.5304  -30.9298 H   0  0  0  0  0  0  0  0  0  0  0  0
  -10.5513   21.7279  -30.9298 H   0  0  0  0  0  0  0  0  0  0  0  0
   -7.8437   23.2901  -33.0229 H   0  0  0  0  0  0  0  0  0  0  0  0
   -6.3895   25.2040  -32.2711 H   0  0  0  0  0  0  0  0  0  0  0  0
   -1.6937   22.5652  -27.9127 H   0  0  0  0  0  0  0  0  0  0  0  0
    0.1570   24.2461  -26.8825 H   0  0  0  0  0  0  0  0  0  0  0  0
   -0.3240   26.6523  -27.9475 H   0  0  0  0  0  0  0  0  0  0  0  0
   -5.4578   20.5419  -30.6067 H   0  0  0  0  0  0  0  0  0  0  0  0
  1  2  1  0
  2  3  1  0
  3  4  1  0
  4  5  1  0
  3  6  1  0
  6  7  2  0
  7  8  1  0
  8  9  2  0
  9 10  1  0
 10 11  2  0
 11 12  1  0
 12 13  2  0
 13 14  1  0
 14 15  2  0
 15 16  1  0
 11 17  1  0
 17 18  1  0
 18 19  2  0
 19  6  1  0
 18  9  1  0
 16 12  1  0
  1 20  1  0
  1 21  1  0
  1 22  1  0
  2 23  1  0
  2 24  1  0
  4 25  1  0
  4 26  1  0
  5 27  1  0
  5 28  1  0
  5 29  1  0
  7 30  1  0
  8 31  1  0
 13 32  1  0
 14 33  1  0
 15 34  1  0
 19 35  1  0
M  END
>  <UniqueID>  (1) 
1

>  <SMILES>  (1) 
CCN(CC)c1ccc2nc(-c3ccco3)oc2c1

>  <Energy>  (1) 
96.49159832150282

>  <Genealogy>  (1) 
CCN(CC)c1ccc2nc(-c3ccco3)oc2c1 (3D coordinates assigned)
CCN(CC)c1ccc2nc(-c3ccco3)oc2c1 (optimized conformer: 96.49159832150282 kcal/mol)

>  <smiles>  (1) 
CCN(CC)c1ccc2nc(-c3ccco3)oc2c1

>  <score_type>  (1) 
oracle

>  <origin>  (1) 
adgpu

>  <m_score__min__energy>  (1) 
-7.1699999999999999

>  <m_primary>  (1) 
energy

$$$$
1:0
     RDKit          3D

 22 24  0  0  0  0  0  0  0  0999 V2000
   -0.6030   26.9470  -28.5950 H   0  0  0  0  0  0  0  0  0  0  0  0
   -1.2360   26.2050  -28.9680 N   0  0  0  0  0  0  0  0  0  0  0  0
   -0.9170   24.9540  -28.8900 C   0  0  0  0  0  0  0  0  0  0  0  0
    0.2180   24.4910  -28.3430 N   0  0  0  0  0  0  0  0  0  0  0  0
    0.1400   23.1940  -28.4700 O   0  0  0  0  0  0  0  0  0  0  0  0
   -0.9520   22.7810  -29.0570 N   0  0  0  0  0  0  0  0  0  0  0  0
   -1.6560   23.8920  -29.3400 C   0  0  0  0  0  0  0  0  0  0  0  0
   -2.9630   23.9090  -30.0070 C   0  0  0  0  0  0  0  0  0  0  0  0
   -3.7140   22.8110  -30.2170 N   0  0  0  0  0  0  0  0  0  0  0  0
   -4.7860   23.3400  -30.8440 C   0  0  0  0  0  0  0  0  0  0  0  0
   -5.9330   22.5390  -31.3020 C   0  0  0  0  0  0  0  0  0  0  0  0
   -5.7100   21.4020  -32.0200 N   0  0  0  0  0  0  0  0  0  0  0  0
   -6.7310   20.6230  -32.4700 C   0  0  0  0  0  0  0  0  0  0  0  0
   -6.5145   19.7126  -33.0482 H   0  0  0  0  0  0  0  0  0  0  0  0
   -8.0530   20.9790  -32.1980 C   0  0  0  0  0  0  0  0  0  0  0  0
   -8.8823   20.3525  -32.5582 H   0  0  0  0  0  0  0  0  0  0  0  0
   -8.3120   22.1370  -31.4650 C   0  0  0  0  0  0  0  0  0  0  0  0
   -9.3494   22.4292  -31.2448 H   0  0  0  0  0  0  0  0  0  0  0  0
   -7.2520   22.9250  -31.0110 C   0  0  0  0  0  0  0  0  0  0  0  0
   -7.4481   23.8390  -30.4312 H   0  0  0  0  0  0  0  0  0  0  0  0
   -4.6870   24.6750  -31.0000 N   0  0  0  0  0  0  0  0  0  0  0  0
   -3.5440   24.9890  -30.4700 O   0  0  0  0  0  0  0  0  0  0  0  0
  1  2  1  0
  2  3  2  0
  3  4  1  0
  4  5  1  0
  5  6  1  0
  6  7  2  0
  7  8  1  0
  8  9  2  0
  9 10  1  0
 10 11  1  0
 11 12  2  0
 12 13  1  0
 13 14  1  0
 13 15  2  0
 15 16  1  0
 15 17  1  0
 17 18  1  0
 17 19  2  0
 19 20  1  0
 10 21  2  0
 21 22  1  0
  7  3  1  0
 22  8  1  0
 19 11  1  0
M  CHG  1   4  -1
M  END
>  <UniqueID>  (2) 
2

>  <SMILES>  (2) 
[H]/N=c1\[n-]onc1-c1nc(-c2ccccn2)no1

>  <Energy>  (2) 
93.80800611587273

>  <Genealogy>  (2) 
N=c1[n-]onc1-c1nc(-c2ccccn2)no1 (protonated)
[H]/N=c1\[n-]onc1-c1nc(-c2ccccn2)no1 (cis-trans isomerization)
[H]/N=c1\[n-]onc1-c1nc(-c2ccccn2)no1 (3D coordinates assigned)
[H]/N=c1\[n-]onc1-c1nc(-c2ccccn2)no1 (optimized conformer: 93.80800611587273 kcal/mol)

>  <smiles>  (2) 
N=c1[nH]onc1-c1nc(-c2ccccn2)no1

>  <score_type>  (2) 
oracle

>  <origin>  (2) 
adgpu

>  <m_score__min__energy>  (2) 
-8.5600000000000005

>  <m_primary>  (2) 
energy

$$$$
2:0
     RDKit          3D

 33 34  0  0  0  0  0  0  0  0999 V2000
   -7.4710   19.1620  -32.2820 C   0  0  0  0  0  0  0  0  0  0  0  0
   -7.2790   20.3810  -32.9910 O   0  0  0  0  0  0  0  0  0  0  0  0
   -6.6780   21.5290  -32.4520 C   0  0  0  0  0  0  0  0  0  0  0  0
   -5.2800   21.6710  -32.3670 C   0  0  0  0  0  0  0  0  0  0  0  0
   -4.7180   22.8270  -31.8260 C   0  0  0  0  0  0  0  0  0  0  0  0
   -5.5370   23.8710  -31.3680 C   0  0  0  0  0  0  0  0  0  0  0  0
   -4.9460   25.1010  -30.7920 C   0  0  0  0  0  0  0  0  0  0  0  0
   -5.6910   26.0840  -30.5350 O   0  0  0  0  0  0  0  0  0  0  0  0
   -3.5520   25.1960  -30.4650 N   0  0  0  0  0  0  0  0  0  0  0  0
   -2.8950   24.5480  -29.3660 C   0  0  0  0  0  0  0  0  0  0  0  0
   -3.5910   23.5710  -28.6410 C   0  0  0  0  0  0  0  0  0  0  0  0
   -2.9850   22.9320  -27.5550 C   0  0  0  0  0  0  0  0  0  0  0  0
   -1.6840   23.2750  -27.1780 C   0  0  0  0  0  0  0  0  0  0  0  0
   -0.9900   24.2640  -27.8820 C   0  0  0  0  0  0  0  0  0  0  0  0
   -1.5940   24.9050  -28.9670 C   0  0  0  0  0  0  0  0  0  0  0  0
   -6.9320   23.7240  -31.4370 C   0  0  0  0  0  0  0  0  0  0  0  0
   -7.5070   22.5590  -31.9820 C   0  0  0  0  0  0  0  0  0  0  0  0
   -8.8970   22.3880  -32.0740 O   0  0  0  0  0  0  0  0  0  0  0  0
   -9.6670   21.5460  -31.2220 C   0  0  0  0  0  0  0  0  0  0  0  0
   -7.4401   19.3583  -31.2001 H   0  0  0  0  0  0  0  0  0  0  0  0
   -8.4479   18.7325  -32.5490 H   0  0  0  0  0  0  0  0  0  0  0  0
   -6.6735   18.4530  -32.5490 H   0  0  0  0  0  0  0  0  0  0  0  0
   -4.6262   20.8643  -32.7299 H   0  0  0  0  0  0  0  0  0  0  0  0
   -3.6242   22.9215  -31.7576 H   0  0  0  0  0  0  0  0  0  0  0  0
   -4.6192   23.3056  -28.9279 H   0  0  0  0  0  0  0  0  0  0  0  0
   -3.5330   22.1585  -26.9969 H   0  0  0  0  0  0  0  0  0  0  0  0
   -1.2058   22.7671  -26.3275 H   0  0  0  0  0  0  0  0  0  0  0  0
    0.0322   24.5377  -27.5815 H   0  0  0  0  0  0  0  0  0  0  0  0
   -1.0503   25.6914  -29.5110 H   0  0  0  0  0  0  0  0  0  0  0  0
   -7.5828   24.5273  -31.0614 H   0  0  0  0  0  0  0  0  0  0  0  0
   -9.4465   21.7871  -30.1716 H   0  0  0  0  0  0  0  0  0  0  0  0
  -10.7374   21.7064  -31.4181 H   0  0  0  0  0  0  0  0  0  0  0  0
   -9.4119   20.4941  -31.4181 H   0  0  0  0  0  0  0  0  0  0  0  0
  1  2  1  0
  2  3  1  0
  3  4  2  0
  4  5  1  0
  5  6  2  0
  6  7  1  0
  7  8  2  0
  7  9  1  0
  9 10  1  0
 10 11  2  0
 11 12  1  0
 12 13  2  0
 13 14  1  0
 14 15  2  0
  6 16  1  0
 16 17  2  0
 17 18  1  0
 18 19  1  0
 17  3  1  0
 15 10  1  0
  1 20  1  0
  1 21  1  0
  1 22  1  0
  4 23  1  0
  5 24  1  0
 11 25  1  0
 12 26  1  0
 13 27  1  0
 14 28  1  0
 15 29  1  0
 16 30  1  0
 19 31  1  0
 19 32  1  0
 19 33  1  0
M  CHG  1   9  -1
M  END
>  <UniqueID>  (3) 
3

>  <SMILES>  (3) 
COc1ccc(C(=O)[N-]c2ccccc2)cc1OC

>  <Energy>  (3) 
39.37362141388065

>  <Genealogy>  (3) 
COc1ccc(C(=O)[N-]c2ccccc2)cc1OC (protonated)
COc1ccc(C(=O)[N-]c2ccccc2)cc1OC (3D coordinates assigned)
COc1ccc(C(=O)[N-]c2ccccc2)cc1OC (optimized conformer: 39.37362141388065 kcal/mol)

>  <smiles>  (3) 
COc1ccc(C(=O)Nc2ccccc2)cc1OC

>  <score_type>  (3) 
oracle

>  <origin>  (3) 
adgpu

>  <m_score__min__energy>  (3) 
-7.8600000000000003

>  <m_primary>  (3) 
energy

$$$$
3:0
     RDKit          3D

 25 26  0  0  0  0  0  0  0  0999 V2000
   -2.6010   18.4080  -33.8080 C   0  0  0  0  0  0  0  0  0  0  0  0
   -2.1380   19.7340  -33.5750 O   0  0  0  0  0  0  0  0  0  0  0  0
   -2.8710   20.7200  -32.9000 C   0  0  0  0  0  0  0  0  0  0  0  0
   -2.2980   21.5480  -31.9160 C   0  0  0  0  0  0  0  0  0  0  0  0
   -3.0720   22.5170  -31.2710 C   0  0  0  0  0  0  0  0  0  0  0  0
   -4.4280   22.6780  -31.5960 C   0  0  0  0  0  0  0  0  0  0  0  0
   -5.2240   23.6770  -30.9330 N   0  0  0  0  0  0  0  0  0  0  0  0
   -4.7960   24.8490  -30.4150 C   0  0  0  0  0  0  0  0  0  0  0  0
   -3.4810   25.2940  -30.4660 O   0  0  0  0  0  0  0  0  0  0  0  0
   -5.8420   25.5550  -29.8540 C   0  0  0  0  0  0  0  0  0  0  0  0
   -6.9710   24.7800  -30.0380 C   0  0  0  0  0  0  0  0  0  0  0  0
   -6.5520   23.6400  -30.6990 C   0  0  0  0  0  0  0  0  0  0  0  0
   -7.3780   22.5770  -31.0570 O   0  0  0  0  0  0  0  0  0  0  0  0
   -4.9980   21.8520  -32.5790 C   0  0  0  0  0  0  0  0  0  0  0  0
   -4.2230   20.8830  -33.2230 C   0  0  0  0  0  0  0  0  0  0  0  0
   -2.7762   17.9063  -32.8449 H   0  0  0  0  0  0  0  0  0  0  0  0
   -3.5402   18.4427  -34.3796 H   0  0  0  0  0  0  0  0  0  0  0  0
   -1.8443   17.8505  -34.3796 H   0  0  0  0  0  0  0  0  0  0  0  0
   -1.2361   21.4318  -31.6535 H   0  0  0  0  0  0  0  0  0  0  0  0
   -2.6149   23.1582  -30.5029 H   0  0  0  0  0  0  0  0  0  0  0  0
   -5.7873   26.5364  -29.3602 H   0  0  0  0  0  0  0  0  0  0  0  0
   -7.9967   25.0213  -29.7222 H   0  0  0  0  0  0  0  0  0  0  0  0
   -8.3800   22.7040  -31.1470 H   0  0  0  0  0  0  0  0  0  0  0  0
   -6.0594   21.9683  -32.8433 H   0  0  0  0  0  0  0  0  0  0  0  0
   -4.6804   20.2422  -33.9913 H   0  0  0  0  0  0  0  0  0  0  0  0
  1  2  1  0
  2  3  1  0
  3  4  2  0
  4  5  1  0
  5  6  2  0
  6  7  1  0
  7  8  1  0
  8  9  1  0
  8 10  2  0
 10 11  1  0
 11 12  2  0
 12 13  1  0
  6 14  1  0
 14 15  2  0
 15  3  1  0
 12  7  1  0
  1 16  1  0
  1 17  1  0
  1 18  1  0
  4 19  1  0
  5 20  1  0
 10 21  1  0
 11 22  1  0
 13 23  1  0
 14 24  1  0
 15 25  1  0
M  CHG  1   9  -1
M  END
>  <UniqueID>  (4) 
4

>  <SMILES>  (4) 
COc1ccc(-n2c([O-])ccc2O)cc1

>  <Energy>  (4) 
57.37752961958936

>  <Genealogy>  (4) 
COc1ccc(-n2c([O-])ccc2O)cc1 (protonated)
COc1ccc(-n2c([O-])ccc2O)cc1 (3D coordinates assigned)
COc1ccc(-n2c([O-])ccc2O)cc1 (optimized conformer: 57.37752961958936 kcal/mol)

>  <smiles>  (4) 
COc1ccc(-n2c(O)ccc2O)cc1

>  <score_type>  (4) 
oracle

>  <origin>  (4) 
adgpu

>  <m_score__min__energy>  (4) 
-7.5599999999999996

>  <m_primary>  (4) 
energy

$$$$
4:0
     RDKit          3D

 31 33  0  0  0  0  0  0  0  0999 V2000
   -6.7000   25.2900  -29.7620 C   0  0  0  0  0  0  0  0  0  0  0  0
   -5.4190   25.7270  -30.1020 C   0  0  0  0  0  0  0  0  0  0  0  0
   -4.5990   24.9270  -30.8340 N   0  0  0  0  0  0  0  0  0  0  0  0
   -4.9920   23.6960  -31.2560 C   0  0  0  0  0  0  0  0  0  0  0  0
   -6.2740   23.2100  -30.9390 C   0  0  0  0  0  0  0  0  0  0  0  0
   -6.7130   21.8660  -31.3940 C   0  0  0  0  0  0  0  0  0  0  0  0
   -8.0320   21.4310  -31.1700 C   0  0  0  0  0  0  0  0  0  0  0  0
   -8.4440   20.1650  -31.5950 C   0  0  0  0  0  0  0  0  0  0  0  0
   -7.5500   19.3160  -32.2620 C   0  0  0  0  0  0  0  0  0  0  0  0
   -7.9820   17.9390  -32.6800 C   0  0  0  0  0  0  0  0  0  0  0  0
   -6.8120   17.1230  -32.9840 N   0  0  0  0  0  0  0  0  0  0  0  0
   -6.3680   16.8010  -34.2130 C   0  0  0  0  0  0  0  0  0  0  0  0
   -5.2020   16.0820  -34.0770 C   0  0  0  0  0  0  0  0  0  0  0  0
   -4.9890   16.0130  -32.7130 C   0  0  0  0  0  0  0  0  0  0  0  0
   -5.9770   16.6600  -32.0670 N   0  0  0  0  0  0  0  0  0  0  0  0
   -6.2300   19.7390  -32.4760 C   0  0  0  0  0  0  0  0  0  0  0  0
   -5.8160   21.0040  -32.0500 C   0  0  0  0  0  0  0  0  0  0  0  0
   -7.1270   24.0300  -30.1800 C   0  0  0  0  0  0  0  0  0  0  0  0
   -7.3669   25.9337  -29.1696 H   0  0  0  0  0  0  0  0  0  0  0  0
   -5.0726   26.7193  -29.7775 H   0  0  0  0  0  0  0  0  0  0  0  0
   -4.3036   23.0759  -31.8490 H   0  0  0  0  0  0  0  0  0  0  0  0
   -8.7448   22.0927  -30.6562 H   0  0  0  0  0  0  0  0  0  0  0  0
   -9.4754   19.8330  -31.4051 H   0  0  0  0  0  0  0  0  0  0  0  0
   -8.5506   17.4713  -31.8628 H   0  0  0  0  0  0  0  0  0  0  0  0
   -8.6142   18.0143  -33.5770 H   0  0  0  0  0  0  0  0  0  0  0  0
   -6.8537   17.0668  -35.1635 H   0  0  0  0  0  0  0  0  0  0  0  0
   -4.5780   15.6566  -34.8767 H   0  0  0  0  0  0  0  0  0  0  0  0
   -4.1410   15.5064  -32.2290 H   0  0  0  0  0  0  0  0  0  0  0  0
   -5.5168   19.0715  -32.9818 H   0  0  0  0  0  0  0  0  0  0  0  0
   -4.7802   21.3281  -32.2292 H   0  0  0  0  0  0  0  0  0  0  0  0
   -8.1344   23.6767  -29.9150 H   0  0  0  0  0  0  0  0  0  0  0  0
  1  2  2  0
  2  3  1  0
  3  4  2  0
  4  5  1  0
  5  6  1  0
  6  7  2  0
  7  8  1  0
  8  9  2  0
  9 10  1  0
 10 11  1  0
 11 12  1  0
 12 13  2  0
 13 14  1  0
 14 15  2  0
  9 16  1  0
 16 17  2  0
  5 18  2  0
 18  1  1  0
 17  6  1  0
 15 11  1  0
  1 19  1  0
  2 20  1  0
  4 21  1  0
  7 22  1  0
  8 23  1  0
 10 24  1  0
 10 25  1  0
 12 26  1  0
 13 27  1  0
 14 28  1  0
 16 29  1  0
 17 30  1  0
 18 31  1  0
M  END
>  <UniqueID>  (5) 
5

>  <SMILES>  (5) 
c1cncc(-c2ccc(Cn3cccn3)cc2)c1

>  <Energy>  (5) 
67.24690790544763

>  <Genealogy>  (5) 
c1cncc(-c2ccc(Cn3cccn3)cc2)c1 (3D coordinates assigned)
c1cncc(-c2ccc(Cn3cccn3)cc2)c1 (optimized conformer: 67.24690790544763 kcal/mol)

>  <smiles>  (5) 
c1cncc(-c2ccc(Cn3cccn3)cc2)c1

>  <score_type>  (5) 
oracle

>  <origin>  (5) 
adgpu

>  <m_score__min__energy>  (5) 
-7.2999999999999998

>  <m_primary>  (5) 
energy

$$$$
5:0
     RDKit          3D

 29 31  0  0  0  0  0  0  0  0999 V2000
   -1.6410   20.3720  -26.4360 Cl  0  0  0  0  0  0  0  0  0  0  0  0
   -2.2550   20.9110  -27.9880 C   0  0  0  0  0  0  0  0  0  0  0  0
   -1.6910   20.4230  -29.1730 C   0  0  0  0  0  0  0  0  0  0  0  0
   -2.1820   20.8520  -30.4100 C   0  0  0  0  0  0  0  0  0  0  0  0
   -3.2400   21.7680  -30.4660 C   0  0  0  0  0  0  0  0  0  0  0  0
   -3.8790   22.3080  -32.0520 S   0  0  0  0  0  0  0  0  0  0  0  0
   -4.9950   23.4880  -31.2940 C   0  0  0  0  0  0  0  0  0  0  0  0
   -4.6210   24.6590  -30.8450 O   0  0  0  0  0  0  0  0  0  0  0  0
   -5.7020   25.2740  -30.4220 C   0  0  0  0  0  0  0  0  0  0  0  0
   -6.8180   24.5310  -30.5830 N   0  0  0  0  0  0  0  0  0  0  0  0
   -6.3630   23.3850  -31.1270 C   0  0  0  0  0  0  0  0  0  0  0  0
   -7.2460   22.2660  -31.5190 C   0  0  0  0  0  0  0  0  0  0  0  0
   -6.7240   20.9930  -31.8090 C   0  0  0  0  0  0  0  0  0  0  0  0
   -7.5760   19.9500  -32.1840 C   0  0  0  0  0  0  0  0  0  0  0  0
   -8.9550   20.1640  -32.2620 C   0  0  0  0  0  0  0  0  0  0  0  0
   -9.4840   21.4200  -31.9560 C   0  0  0  0  0  0  0  0  0  0  0  0
   -8.6360   22.4650  -31.5800 C   0  0  0  0  0  0  0  0  0  0  0  0
   -3.7990   22.2610  -29.2810 C   0  0  0  0  0  0  0  0  0  0  0  0
   -3.3080   21.8310  -28.0440 C   0  0  0  0  0  0  0  0  0  0  0  0
   -0.8614   19.7019  -29.1308 H   0  0  0  0  0  0  0  0  0  0  0  0
   -1.7367   20.4696  -31.3403 H   0  0  0  0  0  0  0  0  0  0  0  0
   -5.6985   26.2833  -29.9847 H   0  0  0  0  0  0  0  0  0  0  0  0
   -5.6403   20.8170  -31.7405 H   0  0  0  0  0  0  0  0  0  0  0  0
   -7.1602   18.9589  -32.4182 H   0  0  0  0  0  0  0  0  0  0  0  0
   -9.6231   19.3440  -32.5641 H   0  0  0  0  0  0  0  0  0  0  0  0
  -10.5699   21.5867  -32.0111 H   0  0  0  0  0  0  0  0  0  0  0  0
   -9.0588   23.4493  -31.3303 H   0  0  0  0  0  0  0  0  0  0  0  0
   -4.6246   22.9867  -29.3228 H   0  0  0  0  0  0  0  0  0  0  0  0
   -3.7503   22.2166  -27.1136 H   0  0  0  0  0  0  0  0  0  0  0  0
  1  2  1  0
  2  3  2  0
  3  4  1  0
  4  5  2  0
  5  6  1  0
  6  7  1  0
  7  8  1  0
  8  9  1  0
  9 10  2  0
 10 11  1  0
 11 12  1  0
 12 13  2  0
 13 14  1  0
 14 15  2  0
 15 16  1  0
 16 17  2  0
  5 18  1  0
 18 19  2  0
 19  2  1  0
 11  7  2  0
 17 12  1  0
  3 20  1  0
  4 21  1  0
  9 22  1  0
 13 23  1  0
 14 24  1  0
 15 25  1  0
 16 26  1  0
 17 27  1  0
 18 28  1  0
 19 29  1  0
M  END
>  <UniqueID>  (6) 
6

>  <SMILES>  (6) 
Clc1ccc(Sc2ocnc2-c2ccccc2)cc1

>  <Energy>  (6) 
60.74332630383147

>  <Genealogy>  (6) 
Clc1ccc(Sc2ocnc2-c2ccccc2)cc1 (3D coordinates assigned)
Clc1ccc(Sc2ocnc2-c2ccccc2)cc1 (optimized conformer: 60.74332630383147 kcal/mol)

>  <smiles>  (6) 
Clc1ccc(Sc2ocnc2-c2ccccc2)cc1

>  <score_type>  (6) 
oracle

>  <origin>  (6) 
adgpu

>  <m_score__min__energy>  (6) 
-7.5700000000000003

>  <m_primary>  (6) 
energy

$$$$
6:0
     RDKit          3D

 27 28  0  0  0  0  0  0  0  0999 V2000
   -4.0860   25.6660  -31.6860 H   0  0  0  0  0  0  0  0  0  0  0  0
   -4.5960   25.3160  -30.8440 N   0  0  0  0  0  0  0  0  0  0  0  0
   -5.5430   24.4360  -30.9280 C   0  0  0  0  0  0  0  0  0  0  0  0
   -6.1900   24.0040  -29.7650 C   0  0  0  0  0  0  0  0  0  0  0  0
   -5.8964   24.4074  -28.7847 H   0  0  0  0  0  0  0  0  0  0  0  0
   -7.2110   23.0570  -29.8590 C   0  0  0  0  0  0  0  0  0  0  0  0
   -7.7237   22.7078  -28.9506 H   0  0  0  0  0  0  0  0  0  0  0  0
   -7.5810   22.5530  -31.1090 C   0  0  0  0  0  0  0  0  0  0  0  0
   -8.8730   21.3640  -31.2500 S   0  0  0  0  0  0  0  0  0  0  0  0
   -9.6160   21.5410  -32.5450 O   0  0  0  0  0  0  0  0  0  0  0  0
   -9.8300   21.5470  -30.1070 O   0  0  0  0  0  0  0  0  0  0  0  0
   -8.2170   19.7600  -31.1890 N   0  0  0  0  0  0  0  0  0  0  0  0
   -7.5010   19.1190  -32.2530 C   0  0  0  0  0  0  0  0  0  0  0  0
   -7.5400   17.7260  -32.4510 C   0  0  0  0  0  0  0  0  0  0  0  0
   -8.1304   17.0926  -31.7726 H   0  0  0  0  0  0  0  0  0  0  0  0
   -6.8310   17.1440  -33.5070 C   0  0  0  0  0  0  0  0  0  0  0  0
   -6.8667   16.0551  -33.6586 H   0  0  0  0  0  0  0  0  0  0  0  0
   -6.0770   17.9450  -34.3700 C   0  0  0  0  0  0  0  0  0  0  0  0
   -5.3900   17.3780  -35.3920 F   0  0  0  0  0  0  0  0  0  0  0  0
   -6.0310   19.3280  -34.1770 C   0  0  0  0  0  0  0  0  0  0  0  0
   -5.4373   19.9581  -34.8556 H   0  0  0  0  0  0  0  0  0  0  0  0
   -6.7390   19.9120  -33.1220 C   0  0  0  0  0  0  0  0  0  0  0  0
   -6.6977   21.0011  -32.9731 H   0  0  0  0  0  0  0  0  0  0  0  0
   -6.9080   23.0040  -32.2500 C   0  0  0  0  0  0  0  0  0  0  0  0
   -7.1829   22.6098  -33.2395 H   0  0  0  0  0  0  0  0  0  0  0  0
   -5.9150   23.9280  -32.1410 N   0  0  0  0  0  0  0  0  0  0  0  0
   -5.4340   24.2470  -33.0130 H   0  0  0  0  0  0  0  0  0  0  0  0
  1  2  1  0
  2  3  2  0
  3  4  1  0
  4  5  1  0
  4  6  2  0
  6  7  1  0
  6  8  1  0
  8  9  1  0
  9 10  2  0
  9 11  2  0
  9 12  1  0
 12 13  1  0
 13 14  2  0
 14 15  1  0
 14 16  1  0
 16 17  1  0
 16 18  2  0
 18 19  1  0
 18 20  1  0
 20 21  1  0
 20 22  2  0
 22 23  1  0
  8 24  2  0
 24 25  1  0
 24 26  1  0
 26 27  1  0
 26  3  1  0
 22 13  1  0
M  CHG  1  12  -1
M  END
>  <UniqueID>  (7) 
7

>  <SMILES>  (7) 
[H]/N=c1/ccc(S(=O)(=O)[N-]c2ccc(F)cc2)c[nH]1

>  <Energy>  (7) 
31.212184370983458

>  <Genealogy>  (7) 
N=c1ccc(S(=O)(=O)[N-]c2ccc(F)cc2)c[nH]1 (protonated)
[H]/N=c1/ccc(S(=O)(=O)[N-]c2ccc(F)cc2)c[nH]1 (cis-trans isomerization)
[H]/N=c1/ccc(S(=O)(=O)[N-]c2ccc(F)cc2)c[nH]1 (3D coordinates assigned)
[H]/N=c1/ccc(S(=O)(=O)[N-]c2ccc(F)cc2)c[nH]1 (optimized conformer: 31.212184370983458 kcal/mol)

>  <smiles>  (7) 
N=c1ccc(S(=O)(=O)Nc2ccc(F)cc2)c[nH]1

>  <score_type>  (7) 
oracle

>  <origin>  (7) 
adgpu

>  <m_score__min__energy>  (7) 
-8

>  <m_primary>  (7) 
energy

$$$$
7:0
     RDKit          3D

 26 27  0  0  0  0  0  0  0  0999 V2000
   -0.6872   25.5625  -27.0486 H   0  0  0  0  0  0  0  0  0  0  0  0
   -1.7040   25.2060  -27.2700 C   0  0  0  0  0  0  0  0  0  0  0  0
   -2.3350   24.9080  -28.8040 S   0  0  0  0  0  0  0  0  0  0  0  0
   -3.8380   24.4330  -28.2040 C   0  0  0  0  0  0  0  0  0  0  0  0
   -4.8570   24.0450  -28.9120 N   0  0  0  0  0  0  0  0  0  0  0  0
   -4.8600   23.9400  -30.6440 S   0  0  0  0  0  0  0  0  0  0  0  0
   -5.1500   25.2970  -31.2180 O   0  0  0  0  0  0  0  0  0  0  0  0
   -3.5050   23.4890  -31.1120 O   0  0  0  0  0  0  0  0  0  0  0  0
   -6.1070   22.8170  -31.1770 C   0  0  0  0  0  0  0  0  0  0  0  0
   -5.8510   21.9130  -32.2170 C   0  0  0  0  0  0  0  0  0  0  0  0
   -4.8675   21.9075  -32.7095 H   0  0  0  0  0  0  0  0  0  0  0  0
   -6.8430   21.0180  -32.6300 C   0  0  0  0  0  0  0  0  0  0  0  0
   -6.6328   20.3034  -33.4395 H   0  0  0  0  0  0  0  0  0  0  0  0
   -8.1050   21.0270  -32.0170 C   0  0  0  0  0  0  0  0  0  0  0  0
   -9.1550   20.0390  -32.4320 C   0  0  0  0  0  0  0  0  0  0  0  0
   -9.6205   19.6009  -31.5368 H   0  0  0  0  0  0  0  0  0  0  0  0
   -9.9226   20.5499  -33.0317 H   0  0  0  0  0  0  0  0  0  0  0  0
   -8.6917   19.2417  -33.0317 H   0  0  0  0  0  0  0  0  0  0  0  0
   -8.3540   21.9250  -30.9680 C   0  0  0  0  0  0  0  0  0  0  0  0
   -9.3338   21.9250  -30.4680 H   0  0  0  0  0  0  0  0  0  0  0  0
   -7.3630   22.8190  -30.5560 C   0  0  0  0  0  0  0  0  0  0  0  0
   -7.5695   23.5277  -29.7405 H   0  0  0  0  0  0  0  0  0  0  0  0
   -3.8700   24.4960  -26.8570 N   0  0  0  0  0  0  0  0  0  0  0  0
   -4.7030   24.2460  -26.2780 H   0  0  0  0  0  0  0  0  0  0  0  0
   -2.6920   24.9230  -26.3320 C   0  0  0  0  0  0  0  0  0  0  0  0
   -2.5317   25.0362  -25.2496 H   0  0  0  0  0  0  0  0  0  0  0  0
  1  2  1  0
  2  3  1  0
  3  4  1  0
  4  5  2  0
  5  6  1  0
  6  7  2  0
  6  8  2  0
  6  9  1  0
  9 10  2  0
 10 11  1  0
 10 12  1  0
 12 13  1  0
 12 14  2  0
 14 15  1  0
 15 16  1  0
 15 17  1  0
 15 18  1  0
 14 19  1  0
 19 20  1  0
 19 21  2  0
 21 22  1  0
  4 23  1  0
 23 24  1  0
 23 25  1  0
 25 26  1  0
 25  2  2  0
 21  9  1  0
M  END
>  <UniqueID>  (8) 
8

>  <SMILES>  (8) 
Cc1ccc(S(=O)(=O)/N=c2/[nH]ccs2)cc1

>  <Energy>  (8) 
58.64931903638881

>  <Genealogy>  (8) 
Cc1ccc(S(=O)(=O)/N=c2/[nH]ccs2)cc1 (cis-trans isomerization)
Cc1ccc(S(=O)(=O)/N=c2/[nH]ccs2)cc1 (3D coordinates assigned)
Cc1ccc(S(=O)(=O)/N=c2/[nH]ccs2)cc1 (optimized conformer: 58.64931903638881 kcal/mol)

>  <smiles>  (8) 
Cc1ccc(S(=O)(=O)N=c2[nH]ccs2)cc1

>  <score_type>  (8) 
oracle

>  <origin>  (8) 
adgpu

>  <m_score__min__energy>  (8) 
-7.0999999999999996

>  <m_primary>  (8) 
energy

$$$$
8:0
     RDKit          3D

 19 19  0  0  0  0  0  0  0  0999 V2000
   -8.7330   19.1010  -31.9270 C   0  0  0  0  0  0  0  0  0  0  0  0
   -8.2100   20.1310  -32.8180 N   0  0  0  0  0  0  0  0  0  0  0  0
   -7.4720   21.2800  -32.3600 C   0  0  0  0  0  0  0  0  0  0  0  0
   -8.0720   22.2810  -31.5760 C   0  0  0  0  0  0  0  0  0  0  0  0
   -7.3310   23.3850  -31.1460 C   0  0  0  0  0  0  0  0  0  0  0  0
   -5.9750   23.5140  -31.4910 C   0  0  0  0  0  0  0  0  0  0  0  0
   -5.2150   24.6530  -31.0470 N   0  0  0  0  0  0  0  0  0  0  0  0
   -5.7730   25.7500  -30.8410 O   0  0  0  0  0  0  0  0  0  0  0  0
   -3.8570   24.5510  -30.8430 O   0  0  0  0  0  0  0  0  0  0  0  0
   -5.3760   22.5120  -32.2760 C   0  0  0  0  0  0  0  0  0  0  0  0
   -6.1180   21.4090  -32.7050 C   0  0  0  0  0  0  0  0  0  0  0  0
   -8.5777   19.4069  -30.8819 H   0  0  0  0  0  0  0  0  0  0  0  0
   -9.8087   18.9664  -32.1137 H   0  0  0  0  0  0  0  0  0  0  0  0
   -8.2070   18.1531  -32.1137 H   0  0  0  0  0  0  0  0  0  0  0  0
   -8.3850   20.0190  -33.8430 H   0  0  0  0  0  0  0  0  0  0  0  0
   -9.1330   22.1945  -31.2989 H   0  0  0  0  0  0  0  0  0  0  0  0
   -7.8135   24.1598  -30.5321 H   0  0  0  0  0  0  0  0  0  0  0  0
   -4.3152   22.5978  -32.5541 H   0  0  0  0  0  0  0  0  0  0  0  0
   -5.6362   20.6340  -33.3192 H   0  0  0  0  0  0  0  0  0  0  0  0
  1  2  1  0
  2  3  1  0
  3  4  2  0
  4  5  1  0
  5  6  2  0
  6  7  1  0
  7  8  2  0
  7  9  1  0
  6 10  1  0
 10 11  2  0
 11  3  1  0
  1 12  1  0
  1 13  1  0
  1 14  1  0
  2 15  1  0
  4 16  1  0
  5 17  1  0
 10 18  1  0
 11 19  1  0
M  CHG  2   7   1   9  -1
M  END
>  <UniqueID>  (9) 
9

>  <SMILES>  (9) 
CNc1ccc([N+](=O)[O-])cc1

>  <Energy>  (9) 
17.154962541833044

>  <Genealogy>  (9) 
CNc1ccc([N+](=O)[O-])cc1 (3D coordinates assigned)
CNc1ccc([N+](=O)[O-])cc1 (optimized conformer: 17.154962541833044 kcal/mol)

>  <smiles>  (9) 
CNc1ccc([N+](=O)[O-])cc1

>  <score_type>  (9) 
oracle

>  <origin>  (9) 
adgpu

>  <m_score__min__energy>  (9) 
-5.79

>  <m_primary>  (9) 
energy

$$$$
9:0
     RDKit          3D

 33 34  0  0  0  0  0  0  0  0999 V2000
   -5.4910   25.5670  -30.4670 C   0  0  0  0  0  0  0  0  0  0  0  0
   -4.1060   25.3020  -30.6650 O   0  0  0  0  0  0  0  0  0  0  0  0
   -3.4950   24.0530  -30.4640 C   0  0  0  0  0  0  0  0  0  0  0  0
   -3.6870   22.9830  -31.3570 C   0  0  0  0  0  0  0  0  0  0  0  0
   -3.0260   21.7640  -31.1670 C   0  0  0  0  0  0  0  0  0  0  0  0
   -3.3070   20.4660  -32.3220 Cl  0  0  0  0  0  0  0  0  0  0  0  0
   -2.1510   21.6010  -30.0780 C   0  0  0  0  0  0  0  0  0  0  0  0
   -1.4220   20.3030  -29.8630 C   0  0  0  0  0  0  0  0  0  0  0  0
   -1.9650   22.6650  -29.1810 C   0  0  0  0  0  0  0  0  0  0  0  0
   -2.6460   23.8770  -29.3520 C   0  0  0  0  0  0  0  0  0  0  0  0
   -2.4210   24.9400  -28.4110 N   0  0  0  0  0  0  0  0  0  0  0  0
   -1.1150   25.2900  -27.9240 C   0  0  0  0  0  0  0  0  0  0  0  0
   -0.0920   24.8900  -28.5450 O   0  0  0  0  0  0  0  0  0  0  0  0
   -0.9530   26.1460  -26.7250 C   0  0  0  0  0  0  0  0  0  0  0  0
   -1.2890   25.6520  -25.4500 C   0  0  0  0  0  0  0  0  0  0  0  0
   -1.1450   26.4570  -24.3160 C   0  0  0  0  0  0  0  0  0  0  0  0
   -0.6710   27.7650  -24.4410 C   0  0  0  0  0  0  0  0  0  0  0  0
   -0.3440   28.2710  -25.7010 C   0  0  0  0  0  0  0  0  0  0  0  0
   -0.4860   27.4700  -26.8380 C   0  0  0  0  0  0  0  0  0  0  0  0
   -5.7060   25.6081  -29.3890 H   0  0  0  0  0  0  0  0  0  0  0  0
   -5.7497   26.5309  -30.9295 H   0  0  0  0  0  0  0  0  0  0  0  0
   -6.0872   24.7666  -30.9295 H   0  0  0  0  0  0  0  0  0  0  0  0
   -4.3647   23.1059  -32.2147 H   0  0  0  0  0  0  0  0  0  0  0  0
   -1.3169   20.1158  -28.7841 H   0  0  0  0  0  0  0  0  0  0  0  0
   -1.9911   19.4822  -30.3238 H   0  0  0  0  0  0  0  0  0  0  0  0
   -0.4249   20.3618  -30.3238 H   0  0  0  0  0  0  0  0  0  0  0  0
   -1.2752   22.5452  -28.3326 H   0  0  0  0  0  0  0  0  0  0  0  0
   -3.2110   25.5980  -28.2220 H   0  0  0  0  0  0  0  0  0  0  0  0
   -1.6678   24.6246  -25.3453 H   0  0  0  0  0  0  0  0  0  0  0  0
   -1.4054   26.0597  -23.3238 H   0  0  0  0  0  0  0  0  0  0  0  0
   -0.5553   28.3962  -23.5475 H   0  0  0  0  0  0  0  0  0  0  0  0
    0.0262   29.3022  -25.7990 H   0  0  0  0  0  0  0  0  0  0  0  0
   -0.2312   27.8766  -27.8278 H   0  0  0  0  0  0  0  0  0  0  0  0
  1  2  1  0
  2  3  1  0
  3  4  2  0
  4  5  1  0
  5  6  1  0
  5  7  2  0
  7  8  1  0
  7  9  1  0
  9 10  2  0
 10 11  1  0
 11 12  1  0
 12 13  2  0
 12 14  1  0
 14 15  2  0
 15 16  1  0
 16 17  2  0
 17 18  1  0
 18 19  2  0
 10  3  1  0
 19 14  1  0
  1 20  1  0
  1 21  1  0
  1 22  1  0
  4 23  1  0
  8 24  1  0
  8 25  1  0
  8 26  1  0
  9 27  1  0
 11 28  1  0
 15 29  1  0
 16 30  1  0
 17 31  1  0
 18 32  1  0
 19 33  1  0
M  END
>  <UniqueID>  (10) 
10

>  <SMILES>  (10) 
COc1cc(Cl)c(C)cc1NC(=O)c1ccccc1

>  <Energy>  (10) 
40.185165326333625

>  <Genealogy>  (10) 
COc1cc(Cl)c(C)cc1NC(=O)c1ccccc1 (3D coordinates assigned)
COc1cc(Cl)c(C)cc1NC(=O)c1ccccc1 (optimized conformer: 40.185165326333625 kcal/mol)

>  <smiles>  (10) 
COc1cc(Cl)c(C)cc1NC(=O)c1ccccc1

>  <score_type>  (10) 
oracle

>  <origin>  (10) 
adgpu

>  <m_score__min__energy>  (10) 
-7.3300000000000001

>  <m_primary>  (10) 
energy

$$$$
10:0
     RDKit          3D

 19 19  0  0  0  0  0  0  0  0999 V2000
   -3.3710   24.1010  -27.7870 C   0  0  0  0  0  0  0  0  0  0  0  0
   -2.5040   24.5480  -29.2730 S   0  0  0  0  0  0  0  0  0  0  0  0
   -1.5550   25.6730  -28.9690 O   0  0  0  0  0  0  0  0  0  0  0  0
   -1.7430   23.3540  -29.7750 O   0  0  0  0  0  0  0  0  0  0  0  0
   -3.6570   25.0550  -30.4650 N   0  0  0  0  0  0  0  0  0  0  0  0
   -4.8320   24.3240  -30.8390 C   0  0  0  0  0  0  0  0  0  0  0  0
   -6.0850   24.8320  -30.4670 C   0  0  0  0  0  0  0  0  0  0  0  0
   -7.2550   24.1510  -30.8120 C   0  0  0  0  0  0  0  0  0  0  0  0
   -7.1840   22.9560  -31.5330 C   0  0  0  0  0  0  0  0  0  0  0  0
   -8.3200   22.2960  -31.8670 F   0  0  0  0  0  0  0  0  0  0  0  0
   -5.9400   22.4410  -31.9090 C   0  0  0  0  0  0  0  0  0  0  0  0
   -4.7660   23.1200  -31.5640 C   0  0  0  0  0  0  0  0  0  0  0  0
   -2.7792   24.4061  -26.9114 H   0  0  0  0  0  0  0  0  0  0  0  0
   -4.3467   24.6084  -27.7650 H   0  0  0  0  0  0  0  0  0  0  0  0
   -3.5236   23.0119  -27.7650 H   0  0  0  0  0  0  0  0  0  0  0  0
   -6.1470   25.7726  -29.9000 H   0  0  0  0  0  0  0  0  0  0  0  0
   -8.2338   24.5561  -30.5156 H   0  0  0  0  0  0  0  0  0  0  0  0
   -5.8838   21.5006  -32.4769 H   0  0  0  0  0  0  0  0  0  0  0  0
   -3.7888   22.7112  -31.8605 H   0  0  0  0  0  0  0  0  0  0  0  0
  1  2  1  0
  2  3  2  0
  2  4  2  0
  2  5  1  0
  5  6  1  0
  6  7  2  0
  7  8  1  0
  8  9  2  0
  9 10  1  0
  9 11  1  0
 11 12  2  0
 12  6  1  0
  1 13  1  0
  1 14  1  0
  1 15  1  0
  7 16  1  0
  8 17  1  0
 11 18  1  0
 12 19  1  0
M  CHG  1   5  -1
M  END
>  <UniqueID>  (11) 
11

>  <SMILES>  (11) 
CS(=O)(=O)[N-]c1ccc(F)cc1

>  <Energy>  (11) 
16.295798588199467

>  <Genealogy>  (11) 
CS(=O)(=O)[N-]c1ccc(F)cc1 (protonated)
CS(=O)(=O)[N-]c1ccc(F)cc1 (3D coordinates assigned)
CS(=O)(=O)[N-]c1ccc(F)cc1 (optimized conformer: 16.295798588199467 kcal/mol)

>  <smiles>  (11) 
CS(=O)(=O)Nc1ccc(F)cc1

>  <score_type>  (11) 
oracle

>  <origin>  (11) 
adgpu

>  <m_score__min__energy>  (11) 
-6.8300000000000001

>  <m_primary>  (11) 
energy

$$$$
11:0
     RDKit          3D

 29 31  0  0  0  0  0  0  0  0999 V2000
   -3.5950   25.2930  -30.6680 N   0  0  0  0  0  0  0  0  0  0  0  0
   -4.8440   24.5870  -30.6120 C   0  0  0  0  0  0  0  0  0  0  0  0
   -5.9120   25.1820  -29.9200 C   0  0  0  0  0  0  0  0  0  0  0  0
   -7.1450   24.5370  -29.8120 C   0  0  0  0  0  0  0  0  0  0  0  0
   -7.3340   23.2850  -30.3940 C   0  0  0  0  0  0  0  0  0  0  0  0
   -6.2920   22.6720  -31.0950 C   0  0  0  0  0  0  0  0  0  0  0  0
   -6.4980   21.4530  -31.6600 N   0  0  0  0  0  0  0  0  0  0  0  0
   -5.5350   20.7960  -32.3590 C   0  0  0  0  0  0  0  0  0  0  0  0
   -5.8440   19.4680  -32.9490 C   0  0  0  0  0  0  0  0  0  0  0  0
   -5.1250   18.9690  -34.0550 C   0  0  0  0  0  0  0  0  0  0  0  0
   -5.4280   17.7120  -34.5880 C   0  0  0  0  0  0  0  0  0  0  0  0
   -6.4430   16.9370  -34.0250 C   0  0  0  0  0  0  0  0  0  0  0  0
   -7.1550   17.4130  -32.9230 C   0  0  0  0  0  0  0  0  0  0  0  0
   -6.8570   18.6690  -32.3850 C   0  0  0  0  0  0  0  0  0  0  0  0
   -4.2810   21.4040  -32.5260 C   0  0  0  0  0  0  0  0  0  0  0  0
   -4.0330   22.6540  -31.9580 C   0  0  0  0  0  0  0  0  0  0  0  0
   -5.0350   23.3150  -31.2180 C   0  0  0  0  0  0  0  0  0  0  0  0
   -3.1440   25.4900  -31.5890 H   0  0  0  0  0  0  0  0  0  0  0  0
   -3.1170   25.6840  -29.8290 H   0  0  0  0  0  0  0  0  0  0  0  0
   -5.7746   26.1702  -29.4567 H   0  0  0  0  0  0  0  0  0  0  0  0
   -7.9698   25.0182  -29.2660 H   0  0  0  0  0  0  0  0  0  0  0  0
   -8.3058   22.7780  -30.3014 H   0  0  0  0  0  0  0  0  0  0  0  0
   -4.3207   19.5724  -34.5012 H   0  0  0  0  0  0  0  0  0  0  0  0
   -4.8647   17.3331  -35.4535 H   0  0  0  0  0  0  0  0  0  0  0  0
   -6.6819   15.9509  -34.4499 H   0  0  0  0  0  0  0  0  0  0  0  0
   -7.9516   16.7994  -32.4770 H   0  0  0  0  0  0  0  0  0  0  0  0
   -7.4190   19.0360  -31.5135 H   0  0  0  0  0  0  0  0  0  0  0  0
   -3.4950   20.8958  -33.1038 H   0  0  0  0  0  0  0  0  0  0  0  0
   -3.0487   23.1274  -32.0884 H   0  0  0  0  0  0  0  0  0  0  0  0
  1  2  1  0
  2  3  2  0
  3  4  1  0
  4  5  2  0
  5  6  1  0
  6  7  2  0
  7  8  1  0
  8  9  1  0
  9 10  2  0
 10 11  1  0
 11 12  2  0
 12 13  1  0
 13 14  2  0
  8 15  2  0
 15 16  1  0
 16 17  2  0
 17  2  1  0
 17  6  1  0
 14  9  1  0
  1 18  1  0
  1 19  1  0
  3 20  1  0
  4 21  1  0
  5 22  1  0
 10 23  1  0
 11 24  1  0
 12 25  1  0
 13 26  1  0
 14 27  1  0
 15 28  1  0
 16 29  1  0
M  END
>  <UniqueID>  (12) 
12

>  <SMILES>  (12) 
Nc1cccc2nc(-c3ccccc3)ccc12

>  <Energy>  (12) 
41.62484692459413

>  <Genealogy>  (12) 
Nc1cccc2nc(-c3ccccc3)ccc12 (3D coordinates assigned)
Nc1cccc2nc(-c3ccccc3)ccc12 (optimized conformer: 41.62484692459413 kcal/mol)

>  <smiles>  (12) 
Nc1cccc2nc(-c3ccccc3)ccc12

>  <score_type>  (12) 
oracle

>  <origin>  (12) 
adgpu

>  <m_score__min__energy>  (12) 
-7.8700000000000001

>  <m_primary>  (12) 
energy

$$$$
12:0
     RDKit          3D

 27 28  0  0  0  0  0  0  0  0999 V2000
   -6.4840   25.6720  -29.3680 C   0  0  0  0  0  0  0  0  0  0  0  0
   -5.0810   25.3400  -30.4780 S   0  0  0  0  0  0  0  0  0  0  0  0
   -5.8450   23.8880  -31.2030 C   0  0  0  0  0  0  0  0  0  0  0  0
   -5.0490   22.8940  -31.7850 C   0  0  0  0  0  0  0  0  0  0  0  0
   -5.6440   21.7610  -32.3480 C   0  0  0  0  0  0  0  0  0  0  0  0
   -7.0360   21.6150  -32.3430 C   0  0  0  0  0  0  0  0  0  0  0  0
   -7.5940   20.4570  -32.9040 O   0  0  0  0  0  0  0  0  0  0  0  0
   -6.9140   19.2490  -33.1210 C   0  0  0  0  0  0  0  0  0  0  0  0
   -7.0010   18.2440  -32.1500 C   0  0  0  0  0  0  0  0  0  0  0  0
   -6.3240   17.0320  -32.3240 C   0  0  0  0  0  0  0  0  0  0  0  0
   -5.5440   16.8230  -33.4640 C   0  0  0  0  0  0  0  0  0  0  0  0
   -5.4350   17.8280  -34.4300 C   0  0  0  0  0  0  0  0  0  0  0  0
   -6.1110   19.0410  -34.2590 C   0  0  0  0  0  0  0  0  0  0  0  0
   -7.8310   22.6050  -31.7350 C   0  0  0  0  0  0  0  0  0  0  0  0
   -7.2350   23.7380  -31.1720 C   0  0  0  0  0  0  0  0  0  0  0  0
   -6.1511   25.5932  -28.3226 H   0  0  0  0  0  0  0  0  0  0  0  0
   -6.8677   26.6858  -29.5552 H   0  0  0  0  0  0  0  0  0  0  0  0
   -7.2814   24.9377  -29.5552 H   0  0  0  0  0  0  0  0  0  0  0  0
   -3.9547   23.0046  -31.7993 H   0  0  0  0  0  0  0  0  0  0  0  0
   -5.0141   20.9793  -32.7978 H   0  0  0  0  0  0  0  0  0  0  0  0
   -7.6049   18.4082  -31.2454 H   0  0  0  0  0  0  0  0  0  0  0  0
   -6.4060   16.2427  -31.5622 H   0  0  0  0  0  0  0  0  0  0  0  0
   -5.0157   15.8680  -33.6016 H   0  0  0  0  0  0  0  0  0  0  0  0
   -4.8171   17.6648  -35.3253 H   0  0  0  0  0  0  0  0  0  0  0  0
   -6.0150   19.8340  -35.0152 H   0  0  0  0  0  0  0  0  0  0  0  0
   -8.9242   22.4871  -31.7026 H   0  0  0  0  0  0  0  0  0  0  0  0
   -7.8606   24.5124  -30.7041 H   0  0  0  0  0  0  0  0  0  0  0  0
  1  2  1  0
  2  3  1  0
  3  4  2  0
  4  5  1  0
  5  6  2  0
  6  7  1  0
  7  8  1  0
  8  9  2  0
  9 10  1  0
 10 11  2  0
 11 12  1  0
 12 13  2  0
  6 14  1  0
 14 15  2  0
 15  3  1  0
 13  8  1  0
  1 16  1  0
  1 17  1  0
  1 18  1  0
  4 19  1  0
  5 20  1  0
  9 21  1  0
 10 22  1  0
 11 23  1  0
 12 24  1  0
 13 25  1  0
 14 26  1  0
 15 27  1  0
M  END
>  <UniqueID>  (13) 
13

>  <SMILES>  (13) 
CSc1ccc(Oc2ccccc2)cc1

>  <Energy>  (13) 
29.768099964608943

>  <Genealogy>  (13) 
CSc1ccc(Oc2ccccc2)cc1 (3D coordinates assigned)
CSc1ccc(Oc2ccccc2)cc1 (optimized conformer: 29.768099964608943 kcal/mol)

>  <smiles>  (13) 
CSc1ccc(Oc2ccccc2)cc1

>  <score_type>  (13) 
oracle

>  <origin>  (13) 
adgpu

>  <m_score__min__energy>  (13) 
-6.3600000000000003

>  <m_primary>  (13) 
energy

$$$$
13:0
     RDKit          3D

 23 24  0  0  0  0  0  0  0  0999 V2000
   -9.4880   21.9110  -31.6370 Cl  0  0  0  0  0  0  0  0  0  0  0  0
   -8.4170   20.5580  -31.9690 C   0  0  0  0  0  0  0  0  0  0  0  0
   -8.8600   19.2550  -31.7150 C   0  0  0  0  0  0  0  0  0  0  0  0
   -8.0200   18.1680  -31.9680 C   0  0  0  0  0  0  0  0  0  0  0  0
   -6.7400   18.3770  -32.4860 C   0  0  0  0  0  0  0  0  0  0  0  0
   -6.2880   19.6770  -32.7430 C   0  0  0  0  0  0  0  0  0  0  0  0
   -4.7000   19.8920  -33.4670 Cl  0  0  0  0  0  0  0  0  0  0  0  0
   -7.1240   20.7800  -32.4680 C   0  0  0  0  0  0  0  0  0  0  0  0
   -6.7010   22.0920  -32.7110 O   0  0  0  0  0  0  0  0  0  0  0  0
   -6.0850   22.9170  -31.7580 C   0  0  0  0  0  0  0  0  0  0  0  0
   -4.7250   22.7830  -31.4170 C   0  0  0  0  0  0  0  0  0  0  0  0
   -4.1550   23.6240  -30.4550 C   0  0  0  0  0  0  0  0  0  0  0  0
   -4.9340   24.5970  -29.8250 C   0  0  0  0  0  0  0  0  0  0  0  0
   -6.2870   24.7270  -30.1500 C   0  0  0  0  0  0  0  0  0  0  0  0
   -6.8610   23.8880  -31.1110 C   0  0  0  0  0  0  0  0  0  0  0  0
   -9.8710   19.0866  -31.3156 H   0  0  0  0  0  0  0  0  0  0  0  0
   -8.3674   17.1455  -31.7588 H   0  0  0  0  0  0  0  0  0  0  0  0
   -6.0850   17.5178  -32.6927 H   0  0  0  0  0  0  0  0  0  0  0  0
   -4.1094   22.0151  -31.9083 H   0  0  0  0  0  0  0  0  0  0  0  0
   -3.0915   23.5186  -30.1945 H   0  0  0  0  0  0  0  0  0  0  0  0
   -4.4827   25.2610  -29.0731 H   0  0  0  0  0  0  0  0  0  0  0  0
   -6.9013   25.4900  -29.6495 H   0  0  0  0  0  0  0  0  0  0  0  0
   -7.9274   23.9911  -31.3602 H   0  0  0  0  0  0  0  0  0  0  0  0
  1  2  1  0
  2  3  2  0
  3  4  1  0
  4  5  2  0
  5  6  1  0
  6  7  1  0
  6  8  2  0
  8  9  1  0
  9 10  1  0
 10 11  2  0
 11 12  1  0
 12 13  2  0
 13 14  1  0
 14 15  2  0
  8  2  1  0
 15 10  1  0
  3 16  1  0
  4 17  1  0
  5 18  1  0
 11 19  1  0
 12 20  1  0
 13 21  1  0
 14 22  1  0
 15 23  1  0
M  END
>  <UniqueID>  (14) 
14

>  <SMILES>  (14) 
Clc1cccc(Cl)c1Oc1ccccc1

>  <Energy>  (14) 
32.59556551585148

>  <Genealogy>  (14) 
Clc1cccc(Cl)c1Oc1ccccc1 (3D coordinates assigned)
Clc1cccc(Cl)c1Oc1ccccc1 (optimized conformer: 32.59556551585148 kcal/mol)

>  <smiles>  (14) 
Clc1cccc(Cl)c1Oc1ccccc1

>  <score_type>  (14) 
oracle

>  <origin>  (14) 
adgpu

>  <m_score__min__energy>  (14) 
-6.6299999999999999

>  <m_primary>  (14) 
energy

$$$$
14:0
     RDKit          3D

 38 40  0  0  0  0  0  0  0  0999 V2000
   -6.4170   25.4280  -31.3800 H   0  0  0  0  0  0  0  0  0  0  0  0
   -5.3880   25.4880  -31.2140 N   0  0  0  0  0  0  0  0  0  0  0  0
   -4.7270   24.7260  -30.3940 C   0  0  0  0  0  0  0  0  0  0  0  0
   -5.3660   23.7150  -29.6300 C   0  0  0  0  0  0  0  0  0  0  0  0
   -6.8520   23.4460  -29.7150 C   0  0  0  0  0  0  0  0  0  0  0  0
   -7.0796   22.5094  -29.1849 H   0  0  0  0  0  0  0  0  0  0  0  0
   -7.3891   24.2880  -29.2539 H   0  0  0  0  0  0  0  0  0  0  0  0
   -7.2810   23.3240  -31.1110 N   0  0  0  0  0  0  0  0  0  0  0  0
   -7.1430   24.1410  -31.7510 H   0  0  0  0  0  0  0  0  0  0  0  0
   -7.8810   22.1330  -31.6530 C   0  0  0  0  0  0  0  0  0  0  0  0
   -9.2780   21.9850  -31.7480 C   0  0  0  0  0  0  0  0  0  0  0  0
   -9.9391   22.7952  -31.4068 H   0  0  0  0  0  0  0  0  0  0  0  0
   -9.8280   20.8130  -32.2740 C   0  0  0  0  0  0  0  0  0  0  0  0
  -10.9205   20.7037  -32.3414 H   0  0  0  0  0  0  0  0  0  0  0  0
   -8.9990   19.7810  -32.7140 C   0  0  0  0  0  0  0  0  0  0  0  0
   -9.4419   18.8627  -33.1270 H   0  0  0  0  0  0  0  0  0  0  0  0
   -7.6010   19.9070  -32.6330 C   0  0  0  0  0  0  0  0  0  0  0  0
   -6.7170   18.8080  -33.0980 C   0  0  0  0  0  0  0  0  0  0  0  0
   -6.5860   17.6270  -32.3420 C   0  0  0  0  0  0  0  0  0  0  0  0
   -7.1406   17.5174  -31.3984 H   0  0  0  0  0  0  0  0  0  0  0  0
   -5.7550   16.5930  -32.7840 C   0  0  0  0  0  0  0  0  0  0  0  0
   -5.6582   15.6743  -32.1869 H   0  0  0  0  0  0  0  0  0  0  0  0
   -5.0470   16.7230  -33.9820 C   0  0  0  0  0  0  0  0  0  0  0  0
   -4.0060   15.4250  -34.5320 Cl  0  0  0  0  0  0  0  0  0  0  0  0
   -5.1700   17.8910  -34.7390 C   0  0  0  0  0  0  0  0  0  0  0  0
   -4.6136   17.9945  -35.6822 H   0  0  0  0  0  0  0  0  0  0  0  0
   -5.9980   18.9280  -34.3010 C   0  0  0  0  0  0  0  0  0  0  0  0
   -6.0882   19.8451  -34.9016 H   0  0  0  0  0  0  0  0  0  0  0  0
   -7.0530   21.0890  -32.1000 C   0  0  0  0  0  0  0  0  0  0  0  0
   -5.9604   21.1972  -32.0323 H   0  0  0  0  0  0  0  0  0  0  0  0
   -4.5870   22.9580  -28.7400 C   0  0  0  0  0  0  0  0  0  0  0  0
   -5.0618   22.1811  -28.1227 H   0  0  0  0  0  0  0  0  0  0  0  0
   -3.2160   23.1850  -28.6340 C   0  0  0  0  0  0  0  0  0  0  0  0
   -2.2440   22.2310  -27.5290 Cl  0  0  0  0  0  0  0  0  0  0  0  0
   -2.6260   24.1770  -29.4120 C   0  0  0  0  0  0  0  0  0  0  0  0
   -1.5438   24.3599  -29.3382 H   0  0  0  0  0  0  0  0  0  0  0  0
   -3.3820   24.9210  -30.2630 N   0  0  0  0  0  0  0  0  0  0  0  0
   -2.9090   25.6620  -30.8280 H   0  0  0  0  0  0  0  0  0  0  0  0
  1  2  1  0
  2  3  2  0
  3  4  1  0
  4  5  1  0
  5  6  1  0
  5  7  1  0
  5  8  1  0
  8  9  1  0
  8 10  1  0
 10 11  2  0
 11 12  1  0
 11 13  1  0
 13 14  1  0
 13 15  2  0
 15 16  1  0
 15 17  1  0
 17 18  1  0
 18 19  2  0
 19 20  1  0
 19 21  1  0
 21 22  1  0
 21 23  2  0
 23 24  1  0
 23 25  1  0
 25 26  1  0
 25 27  2  0
 27 28  1  0
 17 29  2  0
 29 30  1  0
  4 31  2  0
 31 32  1  0
 31 33  1  0
 33 34  1  0
 33 35  2  0
 35 36  1  0
 35 37  1  0
 37 38  1  0
 37  3  1  0
 29 10  1  0
 27 18  1  0
M  END
>  <UniqueID>  (15) 
15

>  <SMILES>  (15) 
[H]/N=c1/[nH]cc(Cl)cc1CNc1cccc(-c2ccc(Cl)cc2)c1

>  <Energy>  (15) 
48.544280128317794

>  <Genealogy>  (15) 
[H]/N=c1/[nH]cc(Cl)cc1CNc1cccc(-c2ccc(Cl)cc2)c1 (cis-trans isomerization)
[H]/N=c1/[nH]cc(Cl)cc1CNc1cccc(-c2ccc(Cl)cc2)c1 (3D coordinates assigned)
[H]/N=c1/[nH]cc(Cl)cc1CNc1cccc(-c2ccc(Cl)cc2)c1 (optimized conformer: 48.544280128317794 kcal/mol)

>  <smiles>  (15) 
N=c1[nH]cc(Cl)cc1CNc1cccc(-c2ccc(Cl)cc2)c1

>  <score_type>  (15) 
oracle

>  <origin>  (15) 
adgpu

>  <m_score__min__energy>  (15) 
-9.3900000000000006

>  <m_primary>  (15) 
energy

$$$$
15:0
     RDKit          3D

 45 48  0  0  0  0  0  0  0  0999 V2000
    0.0040   19.6130  -31.4080 C   0  0  0  0  0  0  0  0  0  0  0  0
   -0.1360   19.6120  -29.9910 O   0  0  0  0  0  0  0  0  0  0  0  0
   -1.1740   20.2520  -29.2990 C   0  0  0  0  0  0  0  0  0  0  0  0
   -1.6720   19.7740  -28.0730 C   0  0  0  0  0  0  0  0  0  0  0  0
   -2.7100   20.4480  -27.4240 C   0  0  0  0  0  0  0  0  0  0  0  0
   -3.2600   21.6000  -27.9890 C   0  0  0  0  0  0  0  0  0  0  0  0
   -2.7750   22.0880  -29.2110 C   0  0  0  0  0  0  0  0  0  0  0  0
   -3.3550   23.2630  -29.8060 N   0  0  0  0  0  0  0  0  0  0  0  0
   -4.4700   23.3620  -30.5740 C   0  0  0  0  0  0  0  0  0  0  0  0
   -5.2530   22.2280  -31.1140 C   0  0  0  0  0  0  0  0  0  0  0  0
   -6.6340   22.1700  -30.8950 C   0  0  0  0  0  0  0  0  0  0  0  0
   -7.3860   21.1010  -31.3850 C   0  0  0  0  0  0  0  0  0  0  0  0
   -6.7740   20.0660  -32.1200 C   0  0  0  0  0  0  0  0  0  0  0  0
   -5.3870   20.1510  -32.3850 C   0  0  0  0  0  0  0  0  0  0  0  0
   -4.6380   21.2230  -31.8750 C   0  0  0  0  0  0  0  0  0  0  0  0
   -4.6810   19.0620  -33.1490 C   0  0  0  0  0  0  0  0  0  0  0  0
   -5.6400   18.3320  -34.0880 C   0  0  0  0  0  0  0  0  0  0  0  0
   -6.8570   17.8320  -33.3130 C   0  0  0  0  0  0  0  0  0  0  0  0
   -7.5410   18.9430  -32.6330 N   0  0  0  0  0  0  0  0  0  0  0  0
   -8.9810   18.8250  -32.3770 C   0  0  0  0  0  0  0  0  0  0  0  0
   -4.7900   24.6520  -30.8140 N   0  0  0  0  0  0  0  0  0  0  0  0
   -3.8730   25.3850  -30.2020 N   0  0  0  0  0  0  0  0  0  0  0  0
   -3.0130   24.5510  -29.5970 C   0  0  0  0  0  0  0  0  0  0  0  0
   -1.7920   25.0600  -28.6270 S   0  0  0  0  0  0  0  0  0  0  0  0
   -1.7310   21.4090  -29.8590 C   0  0  0  0  0  0  0  0  0  0  0  0
    1.0721   19.6206  -31.6709 H   0  0  0  0  0  0  0  0  0  0  0  0
   -0.4695   18.7114  -31.8239 H   0  0  0  0  0  0  0  0  0  0  0  0
   -0.4824   20.5077  -31.8239 H   0  0  0  0  0  0  0  0  0  0  0  0
   -1.2427   18.8664  -27.6237 H   0  0  0  0  0  0  0  0  0  0  0  0
   -3.0947   20.0698  -26.4654 H   0  0  0  0  0  0  0  0  0  0  0  0
   -4.0767   22.1268  -27.4738 H   0  0  0  0  0  0  0  0  0  0  0  0
   -7.1311   22.9737  -30.3319 H   0  0  0  0  0  0  0  0  0  0  0  0
   -8.4689   21.0660  -31.1952 H   0  0  0  0  0  0  0  0  0  0  0  0
   -3.5575   21.2755  -32.0742 H   0  0  0  0  0  0  0  0  0  0  0  0
   -3.8693   19.5086  -33.7420 H   0  0  0  0  0  0  0  0  0  0  0  0
   -4.2807   18.3348  -32.4273 H   0  0  0  0  0  0  0  0  0  0  0  0
   -5.9706   19.0221  -34.8782 H   0  0  0  0  0  0  0  0  0  0  0  0
   -5.1201   17.4716  -34.5347 H   0  0  0  0  0  0  0  0  0  0  0  0
   -7.5573   17.3527  -34.0129 H   0  0  0  0  0  0  0  0  0  0  0  0
   -6.5178   17.1117  -32.5540 H   0  0  0  0  0  0  0  0  0  0  0  0
   -9.1605   18.8103  -31.2918 H   0  0  0  0  0  0  0  0  0  0  0  0
   -9.5044   19.6833  -32.8236 H   0  0  0  0  0  0  0  0  0  0  0  0
   -9.3577   17.8930  -32.8236 H   0  0  0  0  0  0  0  0  0  0  0  0
   -3.8610   26.4290  -30.1860 H   0  0  0  0  0  0  0  0  0  0  0  0
   -1.3462   21.7895  -30.8167 H   0  0  0  0  0  0  0  0  0  0  0  0
  1  2  1  0
  2  3  1  0
  3  4  2  0
  4  5  1  0
  5  6  2  0
  6  7  1  0
  7  8  1  0
  8  9  1  0
  9 10  1  0
 10 11  2  0
 11 12  1  0
 12 13  2  0
 13 14  1  0
 14 15  2  0
 14 16  1  0
 16 17  1  0
 17 18  1  0
 18 19  1  0
 19 20  1  0
  9 21  2  0
 21 22  1  0
 22 23  1  0
 23 24  2  0
  7 25  2  0
 25  3  1  0
 23  8  1  0
 15 10  1  0
 19 13  1  0
  1 26  1  0
  1 27  1  0
  1 28  1  0
  4 29  1  0
  5 30  1  0
  6 31  1  0
 11 32  1  0
 12 33  1  0
 15 34  1  0
 16 35  1  0
 16 36  1  0
 17 37  1  0
 17 38  1  0
 18 39  1  0
 18 40  1  0
 20 41  1  0
 20 42  1  0
 20 43  1  0
 22 44  1  0
 25 45  1  0
M  END
>  <UniqueID>  (16) 
16

>  <SMILES>  (16) 
COc1cccc(-n2c(-c3ccc4c(c3)CCCN4C)n[nH]c2=S)c1

>  <Energy>  (16) 
93.42564251382147

>  <Genealogy>  (16) 
COc1cccc(-n2c(-c3ccc4c(c3)CCCN4C)n[nH]c2=S)c1 (3D coordinates assigned)
COc1cccc(-n2c(-c3ccc4c(c3)CCCN4C)n[nH]c2=S)c1 (nonaromatic ring conformer: 93.42564251382147 kcal/mol)

>  <smiles>  (16) 
COc1cccc(-n2c(-c3ccc4c(c3)CCCN4C)n[nH]c2=S)c1

>  <score_type>  (16) 
oracle

>  <origin>  (16) 
adgpu

>  <m_score__min__energy>  (16) 
-8.9399999999999995

>  <m_primary>  (16) 
energy

$$$$
16:0
     RDKit          3D

 13 13  0  0  0  0  0  0  0  0999 V2000
   -7.5990   22.6220  -30.6570 C   0  0  0  0  0  0  0  0  0  0  0  0
   -6.3880   23.5000  -30.6520 C   0  0  0  0  0  0  0  0  0  0  0  0
   -6.5140   24.8810  -30.4640 C   0  0  0  0  0  0  0  0  0  0  0  0
   -5.3580   25.6610  -30.4660 C   0  0  0  0  0  0  0  0  0  0  0  0
   -4.1460   25.0770  -30.6490 N   0  0  0  0  0  0  0  0  0  0  0  0
   -4.0390   23.7340  -30.8310 C   0  0  0  0  0  0  0  0  0  0  0  0
   -5.1530   22.9570  -30.8320 N   0  0  0  0  0  0  0  0  0  0  0  0
   -7.8987   22.4047  -29.6211 H   0  0  0  0  0  0  0  0  0  0  0  0
   -8.4216   23.1349  -31.1768 H   0  0  0  0  0  0  0  0  0  0  0  0
   -7.3673   21.6807  -31.1768 H   0  0  0  0  0  0  0  0  0  0  0  0
   -7.5025   25.3409  -30.3180 H   0  0  0  0  0  0  0  0  0  0  0  0
   -5.4280   26.7489  -30.3194 H   0  0  0  0  0  0  0  0  0  0  0  0
   -3.0495   23.2763  -30.9775 H   0  0  0  0  0  0  0  0  0  0  0  0
  1  2  1  0
  2  3  2  0
  3  4  1  0
  4  5  2  0
  5  6  1  0
  6  7  2  0
  7  2  1  0
  1  8  1  0
  1  9  1  0
  1 10  1  0
  3 11  1  0
  4 12  1  0
  6 13  1  0
M  END
>  <UniqueID>  (17) 
17

>  <SMILES>  (17) 
Cc1ccncn1

>  <Energy>  (17) 
11.402221681464464

>  <Genealogy>  (17) 
Cc1ccncn1 (3D coordinates assigned)
Cc1ccncn1 (optimized conformer: 11.402221681464464 kcal/mol)

>  <smiles>  (17) 
Cc1ccncn1

>  <score_type>  (17) 
oracle

>  <origin>  (17) 
adgpu

>  <m_score__min__energy>  (17) 
-3.5699999999999998

>  <m_primary>  (17) 
energy

$$$$
17:0
     RDKit          3D

 17 17  0  0  0  0  0  0  0  0999 V2000
   -6.6200   25.7170  -29.3770 C   0  0  0  0  0  0  0  0  0  0  0  0
   -6.2040   24.5820  -30.2740 C   0  0  0  0  0  0  0  0  0  0  0  0
   -7.1830   23.7070  -30.7750 C   0  0  0  0  0  0  0  0  0  0  0  0
   -6.8250   22.6450  -31.6090 C   0  0  0  0  0  0  0  0  0  0  0  0
   -5.4880   22.4440  -31.9510 C   0  0  0  0  0  0  0  0  0  0  0  0
   -4.5030   23.3030  -31.4600 C   0  0  0  0  0  0  0  0  0  0  0  0
   -4.8470   24.3760  -30.6210 C   0  0  0  0  0  0  0  0  0  0  0  0
   -3.8080   25.2390  -30.1370 N   0  0  0  0  0  0  0  0  0  0  0  0
   -6.5087   25.4132  -28.3257 H   0  0  0  0  0  0  0  0  0  0  0  0
   -5.9844   26.5927  -29.5749 H   0  0  0  0  0  0  0  0  0  0  0  0
   -7.6710   25.9745  -29.5749 H   0  0  0  0  0  0  0  0  0  0  0  0
   -8.2392   23.8595  -30.5084 H   0  0  0  0  0  0  0  0  0  0  0  0
   -7.5989   21.9662  -31.9966 H   0  0  0  0  0  0  0  0  0  0  0  0
   -5.2091   21.6074  -32.6086 H   0  0  0  0  0  0  0  0  0  0  0  0
   -3.4500   23.1384  -31.7321 H   0  0  0  0  0  0  0  0  0  0  0  0
   -3.7320   25.4560  -29.1190 H   0  0  0  0  0  0  0  0  0  0  0  0
   -3.1040   25.6740  -30.7730 H   0  0  0  0  0  0  0  0  0  0  0  0
  1  2  1  0
  2  3  2  0
  3  4  1  0
  4  5  2  0
  5  6  1  0
  6  7  2  0
  7  8  1  0
  7  2  1  0
  1  9  1  0
  1 10  1  0
  1 11  1  0
  3 12  1  0
  4 13  1  0
  5 14  1  0
  6 15  1  0
  8 16  1  0
  8 17  1  0
M  END
>  <UniqueID>  (18) 
18

>  <SMILES>  (18) 
Cc1ccccc1N

>  <Energy>  (18) 
15.400857084299881

>  <Genealogy>  (18) 
Cc1ccccc1N (3D coordinates assigned)
Cc1ccccc1N (optimized conformer: 15.400857084299881 kcal/mol)

>  <smiles>  (18) 
Cc1ccccc1N

>  <score_type>  (18) 
oracle

>  <origin>  (18) 
adgpu

>  <m_score__min__energy>  (18) 
-4.79

>  <m_primary>  (18) 
energy

$$$$
18:0
     RDKit          3D

 26 27  0  0  0  0  0  0  0  0999 V2000
   -2.9620   22.8230  -30.5830 O   0  0  0  0  0  0  0  0  0  0  0  0
   -3.5940   23.9080  -30.4660 C   0  0  0  0  0  0  0  0  0  0  0  0
   -4.7930   24.1360  -31.2170 N   0  0  0  0  0  0  0  0  0  0  0  0
   -5.8370   23.1840  -31.4740 C   0  0  0  0  0  0  0  0  0  0  0  0
   -5.5460   22.0660  -32.2650 C   0  0  0  0  0  0  0  0  0  0  0  0
   -6.5290   21.1050  -32.5220 C   0  0  0  0  0  0  0  0  0  0  0  0
   -7.8080   21.2480  -31.9770 C   0  0  0  0  0  0  0  0  0  0  0  0
   -9.0390   20.0400  -32.2970 Cl  0  0  0  0  0  0  0  0  0  0  0  0
   -8.1000   22.3480  -31.1650 C   0  0  0  0  0  0  0  0  0  0  0  0
   -7.1190   23.3110  -30.9070 C   0  0  0  0  0  0  0  0  0  0  0  0
   -3.1280   24.9280  -29.5710 N   0  0  0  0  0  0  0  0  0  0  0  0
   -2.0640   24.7500  -28.6210 C   0  0  0  0  0  0  0  0  0  0  0  0
   -2.2840   24.8440  -27.2350 C   0  0  0  0  0  0  0  0  0  0  0  0
   -1.2180   24.6910  -26.3470 C   0  0  0  0  0  0  0  0  0  0  0  0
    0.0630   24.4580  -26.8490 C   0  0  0  0  0  0  0  0  0  0  0  0
    0.2670   24.3920  -28.1920 N   0  0  0  0  0  0  0  0  0  0  0  0
   -0.7550   24.5380  -29.0770 C   0  0  0  0  0  0  0  0  0  0  0  0
   -4.5377   21.9427  -32.6870 H   0  0  0  0  0  0  0  0  0  0  0  0
   -6.2952   20.2355  -33.1539 H   0  0  0  0  0  0  0  0  0  0  0  0
   -9.1036   22.4564  -30.7280 H   0  0  0  0  0  0  0  0  0  0  0  0
   -7.3499   24.1697  -30.2594 H   0  0  0  0  0  0  0  0  0  0  0  0
   -3.5320   25.8850  -29.6850 H   0  0  0  0  0  0  0  0  0  0  0  0
   -3.2963   25.0381  -26.8508 H   0  0  0  0  0  0  0  0  0  0  0  0
   -1.3861   24.7535  -25.2617 H   0  0  0  0  0  0  0  0  0  0  0  0
    0.9087   24.3276  -26.1578 H   0  0  0  0  0  0  0  0  0  0  0  0
   -0.5537   24.4895  -30.1573 H   0  0  0  0  0  0  0  0  0  0  0  0
  1  2  2  0
  2  3  1  0
  3  4  1  0
  4  5  2  0
  5  6  1  0
  6  7  2  0
  7  8  1  0
  7  9  1  0
  9 10  2  0
  2 11  1  0
 11 12  1  0
 12 13  2  0
 13 14  1  0
 14 15  2  0
 15 16  1  0
 16 17  2  0
 10  4  1  0
 17 12  1  0
  5 18  1  0
  6 19  1  0
  9 20  1  0
 10 21  1  0
 11 22  1  0
 13 23  1  0
 14 24  1  0
 15 25  1  0
 17 26  1  0
M  CHG  1   3  -1
M  END
>  <UniqueID>  (19) 
19

>  <SMILES>  (19) 
O=C([N-]c1ccc(Cl)cc1)Nc1cccnc1

>  <Energy>  (19) 
34.21932138504983

>  <Genealogy>  (19) 
O=C([N-]c1ccc(Cl)cc1)Nc1cccnc1 (protonated)
O=C([N-]c1ccc(Cl)cc1)Nc1cccnc1 (3D coordinates assigned)
O=C([N-]c1ccc(Cl)cc1)Nc1cccnc1 (optimized conformer: 34.21932138504983 kcal/mol)

>  <smiles>  (19) 
O=C(Nc1ccc(Cl)cc1)Nc1cccnc1

>  <score_type>  (19) 
oracle

>  <origin>  (19) 
adgpu

>  <m_score__min__energy>  (19) 
-8.3599999999999994

>  <m_primary>  (19) 
energy

$$$$
19:0
     RDKit          3D

 38 40  0  0  0  0  0  0  0  0999 V2000
   -0.4860   26.6080  -23.2900 C   0  0  0  0  0  0  0  0  0  0  0  0
   -1.5590   26.8280  -24.2000 O   0  0  0  0  0  0  0  0  0  0  0  0
   -1.6070   26.3140  -25.5040 C   0  0  0  0  0  0  0  0  0  0  0  0
   -0.7380   26.7500  -26.5220 C   0  0  0  0  0  0  0  0  0  0  0  0
   -0.8280   26.2080  -27.8070 C   0  0  0  0  0  0  0  0  0  0  0  0
   -1.7960   25.2330  -28.1030 C   0  0  0  0  0  0  0  0  0  0  0  0
   -1.8940   24.6440  -29.4100 N   0  0  0  0  0  0  0  0  0  0  0  0
   -3.1340   24.4050  -30.0910 C   0  0  0  0  0  0  0  0  0  0  0  0
   -3.7680   23.1860  -30.1700 C   0  0  0  0  0  0  0  0  0  0  0  0
   -4.9360   23.4670  -30.8580 C   0  0  0  0  0  0  0  0  0  0  0  0
   -6.0060   22.5100  -31.2310 C   0  0  0  0  0  0  0  0  0  0  0  0
   -5.7280   21.4640  -32.1290 C   0  0  0  0  0  0  0  0  0  0  0  0
   -6.7240   20.5530  -32.4920 C   0  0  0  0  0  0  0  0  0  0  0  0
   -8.0230   20.6720  -31.9630 C   0  0  0  0  0  0  0  0  0  0  0  0
   -9.0560   19.7850  -32.2960 O   0  0  0  0  0  0  0  0  0  0  0  0
   -9.0810   18.4070  -31.9350 C   0  0  0  0  0  0  0  0  0  0  0  0
   -8.3000   21.7120  -31.0700 C   0  0  0  0  0  0  0  0  0  0  0  0
   -7.3050   22.6240  -30.7050 C   0  0  0  0  0  0  0  0  0  0  0  0
   -4.9760   24.7850  -31.1480 N   0  0  0  0  0  0  0  0  0  0  0  0
   -3.8800   25.3590  -30.6760 N   0  0  0  0  0  0  0  0  0  0  0  0
   -2.6450   24.7850  -27.0810 C   0  0  0  0  0  0  0  0  0  0  0  0
   -2.5560   25.3270  -25.7960 C   0  0  0  0  0  0  0  0  0  0  0  0
   -0.8590   26.6845  -22.2580 H   0  0  0  0  0  0  0  0  0  0  0  0
   -0.0655   25.6050  -23.4545 H   0  0  0  0  0  0  0  0  0  0  0  0
    0.2953   27.3646  -23.4545 H   0  0  0  0  0  0  0  0  0  0  0  0
    0.0157   27.5212  -26.3050 H   0  0  0  0  0  0  0  0  0  0  0  0
   -0.1363   26.5469  -28.5923 H   0  0  0  0  0  0  0  0  0  0  0  0
   -1.0210   24.2850  -29.8570 H   0  0  0  0  0  0  0  0  0  0  0  0
   -3.4268   22.2163  -29.7785 H   0  0  0  0  0  0  0  0  0  0  0  0
   -4.7168   21.3618  -32.5498 H   0  0  0  0  0  0  0  0  0  0  0  0
   -6.4916   19.7391  -33.1945 H   0  0  0  0  0  0  0  0  0  0  0  0
   -9.0827   18.3151  -30.8388 H   0  0  0  0  0  0  0  0  0  0  0  0
   -9.9878   17.9373  -32.3437 H   0  0  0  0  0  0  0  0  0  0  0  0
   -8.1918   17.9047  -32.3437 H   0  0  0  0  0  0  0  0  0  0  0  0
   -9.3116   21.8136  -30.6502 H   0  0  0  0  0  0  0  0  0  0  0  0
   -7.5401   23.4363  -30.0015 H   0  0  0  0  0  0  0  0  0  0  0  0
   -3.3869   24.0008  -27.2923 H   0  0  0  0  0  0  0  0  0  0  0  0
   -3.2373   24.9752  -25.0073 H   0  0  0  0  0  0  0  0  0  0  0  0
  1  2  1  0
  2  3  1  0
  3  4  2  0
  4  5  1  0
  5  6  2  0
  6  7  1  0
  7  8  1  0
  8  9  2  0
  9 10  1  0
 10 11  1  0
 11 12  2  0
 12 13  1  0
 13 14  2  0
 14 15  1  0
 15 16  1  0
 14 17  1  0
 17 18  2  0
 10 19  2  0
 19 20  1  0
  6 21  1  0
 21 22  2  0
 22  3  1  0
 20  8  1  0
 18 11  1  0
  1 23  1  0
  1 24  1  0
  1 25  1  0
  4 26  1  0
  5 27  1  0
  7 28  1  0
  9 29  1  0
 12 30  1  0
 13 31  1  0
 16 32  1  0
 16 33  1  0
 16 34  1  0
 17 35  1  0
 18 36  1  0
 21 37  1  0
 22 38  1  0
M  CHG  1  20  -1
M  END
>  <UniqueID>  (20) 
20

>  <SMILES>  (20) 
COc1ccc(Nc2cc(-c3ccc(OC)cc3)n[n-]2)cc1

>  <Energy>  (20) 
73.73340877346034

>  <Genealogy>  (20) 
COc1ccc(Nc2cc(-c3ccc(OC)cc3)n[n-]2)cc1 (protonated)
COc1ccc(Nc2cc(-c3ccc(OC)cc3)n[n-]2)cc1 (3D coordinates assigned)
COc1ccc(Nc2cc(-c3ccc(OC)cc3)n[n-]2)cc1 (optimized conformer: 73.73340877346034 kcal/mol)

>  <smiles>  (20) 
COc1ccc(Nc2cc(-c3ccc(OC)cc3)n[nH]2)cc1

>  <score_type>  (20) 
oracle

>  <origin>  (20) 
adgpu

>  <m_score__min__energy>  (20) 
-9.8000000000000007

>  <m_primary>  (20) 
energy

$$$$
20:0
     RDKit          3D

 22 23  0  0  0  0  0  0  0  0999 V2000
   -8.7170   22.6640  -31.5930 C   0  0  0  0  0  0  0  0  0  0  0  0
   -7.3590   22.6560  -31.9160 C   0  0  0  0  0  0  0  0  0  0  0  0
   -6.7640   21.4960  -32.4210 C   0  0  0  0  0  0  0  0  0  0  0  0
   -7.5280   20.3280  -32.6120 C   0  0  0  0  0  0  0  0  0  0  0  0
   -6.8990   19.0940  -33.1490 C   0  0  0  0  0  0  0  0  0  0  0  0
   -5.9870   19.1630  -34.2190 C   0  0  0  0  0  0  0  0  0  0  0  0
   -5.3960   18.0000  -34.7230 C   0  0  0  0  0  0  0  0  0  0  0  0
   -5.7090   16.7570  -34.1660 C   0  0  0  0  0  0  0  0  0  0  0  0
   -6.6120   16.6760  -33.1050 C   0  0  0  0  0  0  0  0  0  0  0  0
   -7.2060   17.8360  -32.5970 C   0  0  0  0  0  0  0  0  0  0  0  0
   -8.8970   20.3490  -32.2830 C   0  0  0  0  0  0  0  0  0  0  0  0
   -9.4860   21.5130  -31.7770 C   0  0  0  0  0  0  0  0  0  0  0  0
   -9.1816   23.5774  -31.1933 H   0  0  0  0  0  0  0  0  0  0  0  0
   -6.7556   23.5645  -31.7729 H   0  0  0  0  0  0  0  0  0  0  0  0
   -5.6927   21.4954  -32.6707 H   0  0  0  0  0  0  0  0  0  0  0  0
   -5.7374   20.1385  -34.6618 H   0  0  0  0  0  0  0  0  0  0  0  0
   -4.6838   18.0637  -35.5589 H   0  0  0  0  0  0  0  0  0  0  0  0
   -5.2438   15.8430  -34.5637 H   0  0  0  0  0  0  0  0  0  0  0  0
   -6.8573   15.6972  -32.6670 H   0  0  0  0  0  0  0  0  0  0  0  0
   -7.9174   17.7648  -31.7610 H   0  0  0  0  0  0  0  0  0  0  0  0
   -9.5072   19.4448  -32.4247 H   0  0  0  0  0  0  0  0  0  0  0  0
  -10.5564   21.5214  -31.5238 H   0  0  0  0  0  0  0  0  0  0  0  0
  1  2  2  0
  2  3  1  0
  3  4  2  0
  4  5  1  0
  5  6  2  0
  6  7  1  0
  7  8  2  0
  8  9  1  0
  9 10  2  0
  4 11  1  0
 11 12  2  0
 12  1  1  0
 10  5  1  0
  1 13  1  0
  2 14  1  0
  3 15  1  0
  6 16  1  0
  7 17  1  0
  8 18  1  0
  9 19  1  0
 10 20  1  0
 11 21  1  0
 12 22  1  0
M  END
>  <UniqueID>  (21) 
21

>  <SMILES>  (21) 
c1ccc(-c2ccccc2)cc1

>  <Energy>  (21) 
28.083991414508947

>  <Genealogy>  (21) 
c1ccc(-c2ccccc2)cc1 (3D coordinates assigned)
c1ccc(-c2ccccc2)cc1 (optimized conformer: 28.083991414508947 kcal/mol)

>  <smiles>  (21) 
c1ccc(-c2ccccc2)cc1

>  <score_type>  (21) 
oracle

>  <origin>  (21) 
adgpu

>  <m_score__min__energy>  (21) 
-5.9800000000000004

>  <m_primary>  (21) 
energy

$$$$
21:0
     RDKit          3D

 22 23  0  0  0  0  0  0  0  0999 V2000
   -9.6660   19.2490  -32.4790 F   0  0  0  0  0  0  0  0  0  0  0  0
   -8.8950   20.3520  -32.3060 C   0  0  0  0  0  0  0  0  0  0  0  0
   -9.4870   21.5230  -31.8190 C   0  0  0  0  0  0  0  0  0  0  0  0
   -8.7110   22.6620  -31.5940 C   0  0  0  0  0  0  0  0  0  0  0  0
   -7.3400   22.6350  -31.8510 C   0  0  0  0  0  0  0  0  0  0  0  0
   -6.7410   21.4700  -32.3380 C   0  0  0  0  0  0  0  0  0  0  0  0
   -7.5110   20.3160  -32.5750 C   0  0  0  0  0  0  0  0  0  0  0  0
   -6.8650   19.0880  -33.0970 C   0  0  0  0  0  0  0  0  0  0  0  0
   -7.0860   17.8430  -32.4790 C   0  0  0  0  0  0  0  0  0  0  0  0
   -6.4800   16.6870  -32.9810 C   0  0  0  0  0  0  0  0  0  0  0  0
   -5.6510   16.7610  -34.1030 C   0  0  0  0  0  0  0  0  0  0  0  0
   -5.4290   17.9910  -34.7270 C   0  0  0  0  0  0  0  0  0  0  0  0
   -6.0330   19.1500  -34.2310 C   0  0  0  0  0  0  0  0  0  0  0  0
  -10.5672   21.5462  -31.6128 H   0  0  0  0  0  0  0  0  0  0  0  0
   -9.1810   23.5810  -31.2139 H   0  0  0  0  0  0  0  0  0  0  0  0
   -6.7296   23.5320  -31.6700 H   0  0  0  0  0  0  0  0  0  0  0  0
   -5.6594   21.4549  -32.5376 H   0  0  0  0  0  0  0  0  0  0  0  0
   -7.7391   17.7789  -31.5962 H   0  0  0  0  0  0  0  0  0  0  0  0
   -6.6564   15.7178  -32.4916 H   0  0  0  0  0  0  0  0  0  0  0  0
   -5.1732   15.8510  -34.4950 H   0  0  0  0  0  0  0  0  0  0  0  0
   -4.7771   18.0477  -35.6112 H   0  0  0  0  0  0  0  0  0  0  0  0
   -5.8574   20.1149  -34.7290 H   0  0  0  0  0  0  0  0  0  0  0  0
  1  2  1  0
  2  3  2  0
  3  4  1  0
  4  5  2  0
  5  6  1  0
  6  7  2  0
  7  8  1  0
  8  9  2  0
  9 10  1  0
 10 11  2  0
 11 12  1  0
 12 13  2  0
  7  2  1  0
 13  8  1  0
  3 14  1  0
  4 15  1  0
  5 16  1  0
  6 17  1  0
  9 18  1  0
 10 19  1  0
 11 20  1  0
 12 21  1  0
 13 22  1  0
M  END
>  <UniqueID>  (22) 
22

>  <SMILES>  (22) 
Fc1ccccc1-c1ccccc1

>  <Energy>  (22) 
29.081072983445722

>  <Genealogy>  (22) 
Fc1ccccc1-c1ccccc1 (3D coordinates assigned)
Fc1ccccc1-c1ccccc1 (optimized conformer: 29.081072983445722 kcal/mol)

>  <smiles>  (22) 
Fc1ccccc1-c1ccccc1

>  <score_type>  (22) 
oracle

>  <origin>  (22) 
adgpu

>  <m_score__min__energy>  (22) 
-6.0199999999999996

>  <m_primary>  (22) 
energy

$$$$
22:0
     RDKit          3D

 28 29  0  0  0  0  0  0  0  0999 V2000
   -5.3370   27.0610  -29.7320 H   0  0  0  0  0  0  0  0  0  0  0  0
   -5.3690   26.4790  -30.5610 O   0  0  0  0  0  0  0  0  0  0  0  0
   -5.2290   25.0940  -30.4980 C   0  0  0  0  0  0  0  0  0  0  0  0
   -6.3040   24.2820  -30.8780 C   0  0  0  0  0  0  0  0  0  0  0  0
   -7.2465   24.7440  -31.2070 H   0  0  0  0  0  0  0  0  0  0  0  0
   -6.1900   22.8840  -30.8430 C   0  0  0  0  0  0  0  0  0  0  0  0
   -7.3560   22.0560  -31.2290 C   0  0  0  0  0  0  0  0  0  0  0  0
   -8.3567   22.4422  -30.9851 H   0  0  0  0  0  0  0  0  0  0  0  0
   -7.2840   20.8660  -31.8560 C   0  0  0  0  0  0  0  0  0  0  0  0
   -8.5060   20.1290  -32.0730 C   0  0  0  0  0  0  0  0  0  0  0  0
   -9.4850   19.5380  -32.2470 N   0  0  0  0  0  0  0  0  0  0  0  0
   -6.0240   20.2980  -32.3930 C   0  0  0  0  0  0  0  0  0  0  0  0
   -5.7490   18.9270  -32.2420 C   0  0  0  0  0  0  0  0  0  0  0  0
   -6.4675   18.2793  -31.7184 H   0  0  0  0  0  0  0  0  0  0  0  0
   -4.5670   18.3830  -32.7540 C   0  0  0  0  0  0  0  0  0  0  0  0
   -4.3543   17.3115  -32.6251 H   0  0  0  0  0  0  0  0  0  0  0  0
   -3.6560   19.1990  -33.4290 C   0  0  0  0  0  0  0  0  0  0  0  0
   -2.7242   18.7708  -33.8268 H   0  0  0  0  0  0  0  0  0  0  0  0
   -3.9280   20.5590  -33.5990 C   0  0  0  0  0  0  0  0  0  0  0  0
   -3.2117   21.1993  -34.1346 H   0  0  0  0  0  0  0  0  0  0  0  0
   -5.1080   21.1070  -33.0900 C   0  0  0  0  0  0  0  0  0  0  0  0
   -5.3219   22.1762  -33.2349 H   0  0  0  0  0  0  0  0  0  0  0  0
   -4.9980   22.3030  -30.3750 C   0  0  0  0  0  0  0  0  0  0  0  0
   -4.9118   21.2085  -30.3063 H   0  0  0  0  0  0  0  0  0  0  0  0
   -3.9230   23.1110  -29.9970 C   0  0  0  0  0  0  0  0  0  0  0  0
   -2.9873   22.6496  -29.6482 H   0  0  0  0  0  0  0  0  0  0  0  0
   -4.0310   24.5030  -30.0600 C   0  0  0  0  0  0  0  0  0  0  0  0
   -2.9520   25.2930  -29.6810 O   0  0  0  0  0  0  0  0  0  0  0  0
  1  2  1  0
  2  3  1  0
  3  4  2  0
  4  5  1  0
  4  6  1  0
  6  7  1  0
  7  8  1  0
  7  9  2  0
  9 10  1  0
 10 11  3  0
  9 12  1  0
 12 13  2  0
 13 14  1  0
 13 15  1  0
 15 16  1  0
 15 17  2  0
 17 18  1  0
 17 19  1  0
 19 20  1  0
 19 21  2  0
 21 22  1  0
  6 23  2  0
 23 24  1  0
 23 25  1  0
 25 26  1  0
 25 27  2  0
 27 28  1  0
 27  3  1  0
 21 12  1  0
M  CHG  1  28  -1
M  END
>  <UniqueID>  (23) 
23

>  <SMILES>  (23) 
N#C/C(=C/c1ccc([O-])c(O)c1)c1ccccc1

>  <Energy>  (23) 
38.82433504218168

>  <Genealogy>  (23) 
N#CC(=Cc1ccc([O-])c(O)c1)c1ccccc1 (protonated)
N#C/C(=C/c1ccc([O-])c(O)c1)c1ccccc1 (cis-trans isomerization)
N#C/C(=C/c1ccc([O-])c(O)c1)c1ccccc1 (3D coordinates assigned)
N#C/C(=C/c1ccc([O-])c(O)c1)c1ccccc1 (optimized conformer: 38.82433504218168 kcal/mol)

>  <smiles>  (23) 
N#CC(=Cc1ccc(O)c(O)c1)c1ccccc1

>  <score_type>  (23) 
oracle

>  <origin>  (23) 
adgpu

>  <m_score__min__energy>  (23) 
-10.390000000000001

>  <m_primary>  (23) 
energy

$$$$
23:0
     RDKit          3D

 28 29  0  0  0  0  0  0  0  0999 V2000
   -8.8780   20.6870  -31.9530 C   0  0  0  0  0  0  0  0  0  0  0  0
   -8.6120   22.0850  -31.9820 O   0  0  0  0  0  0  0  0  0  0  0  0
   -7.3730   22.6630  -31.6710 C   0  0  0  0  0  0  0  0  0  0  0  0
   -7.3520   23.7960  -30.8490 C   0  0  0  0  0  0  0  0  0  0  0  0
   -6.1420   24.4050  -30.5090 C   0  0  0  0  0  0  0  0  0  0  0  0
   -4.9290   23.8790  -30.9670 C   0  0  0  0  0  0  0  0  0  0  0  0
   -3.7080   24.5570  -30.6210 N   0  0  0  0  0  0  0  0  0  0  0  0
   -3.1770   24.6550  -29.4370 C   0  0  0  0  0  0  0  0  0  0  0  0
   -1.9860   25.2950  -29.2990 N   0  0  0  0  0  0  0  0  0  0  0  0
   -1.4020   25.4410  -28.0800 C   0  0  0  0  0  0  0  0  0  0  0  0
   -2.0250   24.9260  -26.9390 C   0  0  0  0  0  0  0  0  0  0  0  0
   -1.4230   25.1140  -25.5800 C   0  0  0  0  0  0  0  0  0  0  0  0
   -3.2650   24.2970  -27.0960 C   0  0  0  0  0  0  0  0  0  0  0  0
   -3.8110   24.1730  -28.3330 N   0  0  0  0  0  0  0  0  0  0  0  0
   -4.9450   22.7590  -31.8190 C   0  0  0  0  0  0  0  0  0  0  0  0
   -6.1560   22.1500  -32.1600 C   0  0  0  0  0  0  0  0  0  0  0  0
   -8.9426   20.3476  -30.9087 H   0  0  0  0  0  0  0  0  0  0  0  0
   -9.8308   20.4844  -32.4640 H   0  0  0  0  0  0  0  0  0  0  0  0
   -8.0662   20.1486  -32.4640 H   0  0  0  0  0  0  0  0  0  0  0  0
   -8.2969   24.2103  -30.4675 H   0  0  0  0  0  0  0  0  0  0  0  0
   -6.1426   25.3049  -29.8764 H   0  0  0  0  0  0  0  0  0  0  0  0
   -0.4387   25.9646  -27.9912 H   0  0  0  0  0  0  0  0  0  0  0  0
   -2.1736   24.8796  -24.8108 H   0  0  0  0  0  0  0  0  0  0  0  0
   -0.5590   24.4429  -25.4657 H   0  0  0  0  0  0  0  0  0  0  0  0
   -1.0944   26.1575  -25.4657 H   0  0  0  0  0  0  0  0  0  0  0  0
   -3.7973   23.9031  -26.2176 H   0  0  0  0  0  0  0  0  0  0  0  0
   -4.0004   22.3611  -32.2183 H   0  0  0  0  0  0  0  0  0  0  0  0
   -6.1585   21.2654  -32.8138 H   0  0  0  0  0  0  0  0  0  0  0  0
  1  2  1  0
  2  3  1  0
  3  4  2  0
  4  5  1  0
  5  6  2  0
  6  7  1  0
  7  8  2  3
  8  9  1  0
  9 10  2  0
 10 11  1  0
 11 12  1  0
 11 13  2  0
 13 14  1  0
  6 15  1  0
 15 16  2  0
 16  3  1  0
 14  8  1  0
  1 17  1  0
  1 18  1  0
  1 19  1  0
  4 20  1  0
  5 21  1  0
 10 22  1  0
 12 23  1  0
 12 24  1  0
 12 25  1  0
 13 26  1  0
 15 27  1  0
 16 28  1  0
M  CHG  1  14  -1
M  END
>  <UniqueID>  (24) 
24

>  <SMILES>  (24) 
COc1ccc(N=c2ncc(C)c[n-]2)cc1

>  <Energy>  (24) 
34.39579223987904

>  <Genealogy>  (24) 
COc1ccc(N=c2ncc(C)c[n-]2)cc1 (protonated)
COc1ccc(N=c2ncc(C)c[n-]2)cc1 (3D coordinates assigned)
COc1ccc(N=c2ncc(C)c[n-]2)cc1 (optimized conformer: 34.39579223987904 kcal/mol)

>  <smiles>  (24) 
COc1ccc(N=c2ncc(C)c[nH]2)cc1

>  <score_type>  (24) 
oracle

>  <origin>  (24) 
adgpu

>  <m_score__min__energy>  (24) 
-7.3700000000000001

>  <m_primary>  (24) 
energy

$$$$
24:0
     RDKit          3D

 28 29  0  0  0  0  0  0  0  0999 V2000
   -8.6870   20.9980  -31.3120 C   0  0  0  0  0  0  0  0  0  0  0  0
   -8.2650   22.2470  -31.8490 O   0  0  0  0  0  0  0  0  0  0  0  0
   -7.0580   22.8830  -31.5210 C   0  0  0  0  0  0  0  0  0  0  0  0
   -5.8020   22.3290  -31.8370 C   0  0  0  0  0  0  0  0  0  0  0  0
   -4.6270   23.0020  -31.4910 C   0  0  0  0  0  0  0  0  0  0  0  0
   -4.6890   24.2460  -30.8400 C   0  0  0  0  0  0  0  0  0  0  0  0
   -3.5020   24.9570  -30.4590 N   0  0  0  0  0  0  0  0  0  0  0  0
   -2.5540   24.5500  -29.4610 C   0  0  0  0  0  0  0  0  0  0  0  0
   -1.7820   25.4190  -28.9760 O   0  0  0  0  0  0  0  0  0  0  0  0
   -2.4230   23.1380  -29.0300 C   0  0  0  0  0  0  0  0  0  0  0  0
   -3.2480   22.6050  -28.0260 C   0  0  0  0  0  0  0  0  0  0  0  0
   -3.1090   21.2710  -27.6420 C   0  0  0  0  0  0  0  0  0  0  0  0
   -2.1530   20.4730  -28.2710 C   0  0  0  0  0  0  0  0  0  0  0  0
   -1.3710   20.9950  -29.2520 N   0  0  0  0  0  0  0  0  0  0  0  0
   -1.4850   22.2910  -29.6450 C   0  0  0  0  0  0  0  0  0  0  0  0
   -5.9360   24.7840  -30.5070 C   0  0  0  0  0  0  0  0  0  0  0  0
   -7.1110   24.1100  -30.8520 C   0  0  0  0  0  0  0  0  0  0  0  0
   -8.6705   21.0469  -30.2132 H   0  0  0  0  0  0  0  0  0  0  0  0
   -9.7092   20.7785  -31.6539 H   0  0  0  0  0  0  0  0  0  0  0  0
   -8.0074   20.2035  -31.6539 H   0  0  0  0  0  0  0  0  0  0  0  0
   -5.7457   21.3621  -32.3585 H   0  0  0  0  0  0  0  0  0  0  0  0
   -3.6499   22.5563  -31.7291 H   0  0  0  0  0  0  0  0  0  0  0  0
   -4.0045   23.2401  -27.5419 H   0  0  0  0  0  0  0  0  0  0  0  0
   -3.7475   20.8521  -26.8503 H   0  0  0  0  0  0  0  0  0  0  0  0
   -2.0323   19.4211  -27.9728 H   0  0  0  0  0  0  0  0  0  0  0  0
   -0.8405   22.6787  -30.4477 H   0  0  0  0  0  0  0  0  0  0  0  0
   -5.9926   25.7427  -29.9707 H   0  0  0  0  0  0  0  0  0  0  0  0
   -8.0864   24.5488  -30.5949 H   0  0  0  0  0  0  0  0  0  0  0  0
  1  2  1  0
  2  3  1  0
  3  4  2  0
  4  5  1  0
  5  6  2  0
  6  7  1  0
  7  8  1  0
  8  9  2  0
  8 10  1  0
 10 11  2  0
 11 12  1  0
 12 13  2  0
 13 14  1  0
 14 15  2  0
  6 16  1  0
 16 17  2  0
 17  3  1  0
 15 10  1  0
  1 18  1  0
  1 19  1  0
  1 20  1  0
  4 21  1  0
  5 22  1  0
 11 23  1  0
 12 24  1  0
 13 25  1  0
 15 26  1  0
 16 27  1  0
 17 28  1  0
M  CHG  1   7  -1
M  END
>  <UniqueID>  (25) 
25

>  <SMILES>  (25) 
COc1ccc([N-]C(=O)c2cccnc2)cc1

>  <Energy>  (25) 
35.74637074008477

>  <Genealogy>  (25) 
COc1ccc([N-]C(=O)c2cccnc2)cc1 (protonated)
COc1ccc([N-]C(=O)c2cccnc2)cc1 (3D coordinates assigned)
COc1ccc([N-]C(=O)c2cccnc2)cc1 (optimized conformer: 35.74637074008477 kcal/mol)

>  <smiles>  (25) 
COc1ccc(NC(=O)c2cccnc2)cc1

>  <score_type>  (25) 
oracle

>  <origin>  (25) 
adgpu

>  <m_score__min__energy>  (25) 
-7.3200000000000003

>  <m_primary>  (25) 
energy

$$$$
25:0
     RDKit          3D

 31 32  0  0  0  0  0  0  0  0999 V2000
   -4.7070   18.5460  -34.3690 C   0  0  0  0  0  0  0  0  0  0  0  0
   -6.1150   18.8980  -34.5190 N   0  0  0  0  0  0  0  0  0  0  0  0
   -7.0060   19.1080  -33.4080 C   0  0  0  0  0  0  0  0  0  0  0  0
   -7.4470   18.0030  -32.6650 C   0  0  0  0  0  0  0  0  0  0  0  0
   -8.3110   18.1750  -31.5820 C   0  0  0  0  0  0  0  0  0  0  0  0
   -8.7490   19.4530  -31.2290 C   0  0  0  0  0  0  0  0  0  0  0  0
   -8.3290   20.5710  -31.9650 C   0  0  0  0  0  0  0  0  0  0  0  0
   -8.8010   21.9480  -31.5750 C   0  0  0  0  0  0  0  0  0  0  0  0
   -7.9460   22.9500  -32.1270 O   0  0  0  0  0  0  0  0  0  0  0  0
   -6.8070   23.4800  -31.5010 C   0  0  0  0  0  0  0  0  0  0  0  0
   -6.8700   24.5520  -30.5870 C   0  0  0  0  0  0  0  0  0  0  0  0
   -5.7020   25.0350  -29.9880 C   0  0  0  0  0  0  0  0  0  0  0  0
   -4.4650   24.4610  -30.2950 C   0  0  0  0  0  0  0  0  0  0  0  0
   -3.3350   24.9310  -29.7150 F   0  0  0  0  0  0  0  0  0  0  0  0
   -4.3950   23.4010  -31.2040 C   0  0  0  0  0  0  0  0  0  0  0  0
   -5.5610   22.9140  -31.8040 C   0  0  0  0  0  0  0  0  0  0  0  0
   -7.4480   20.3970  -33.0470 C   0  0  0  0  0  0  0  0  0  0  0  0
   -4.4566   18.4834  -33.2997 H   0  0  0  0  0  0  0  0  0  0  0  0
   -4.5193   17.5733  -34.8471 H   0  0  0  0  0  0  0  0  0  0  0  0
   -4.0836   19.3159  -34.8471 H   0  0  0  0  0  0  0  0  0  0  0  0
   -6.4840   19.0110  -35.4900 H   0  0  0  0  0  0  0  0  0  0  0  0
   -7.1092   16.9924  -32.9380 H   0  0  0  0  0  0  0  0  0  0  0  0
   -8.6477   17.3011  -31.0050 H   0  0  0  0  0  0  0  0  0  0  0  0
   -9.4253   19.5835  -30.3713 H   0  0  0  0  0  0  0  0  0  0  0  0
   -9.8237   22.0990  -31.9508 H   0  0  0  0  0  0  0  0  0  0  0  0
   -8.7811   22.0312  -30.4783 H   0  0  0  0  0  0  0  0  0  0  0  0
   -7.8404   25.0096  -30.3444 H   0  0  0  0  0  0  0  0  0  0  0  0
   -5.7570   25.8692  -29.2731 H   0  0  0  0  0  0  0  0  0  0  0  0
   -3.4220   22.9495  -31.4476 H   0  0  0  0  0  0  0  0  0  0  0  0
   -5.4996   22.0804  -32.5191 H   0  0  0  0  0  0  0  0  0  0  0  0
   -7.1014   21.2726  -33.6156 H   0  0  0  0  0  0  0  0  0  0  0  0
  1  2  1  0
  2  3  1  0
  3  4  2  0
  4  5  1  0
  5  6  2  0
  6  7  1  0
  7  8  1  0
  8  9  1  0
  9 10  1  0
 10 11  2  0
 11 12  1  0
 12 13  2  0
 13 14  1  0
 13 15  1  0
 15 16  2  0
  7 17  2  0
 17  3  1  0
 16 10  1  0
  1 18  1  0
  1 19  1  0
  1 20  1  0
  2 21  1  0
  4 22  1  0
  5 23  1  0
  6 24  1  0
  8 25  1  0
  8 26  1  0
 11 27  1  0
 12 28  1  0
 15 29  1  0
 16 30  1  0
 17 31  1  0
M  END
>  <UniqueID>  (26) 
26

>  <SMILES>  (26) 
CNc1cccc(COc2ccc(F)cc2)c1

>  <Energy>  (26) 
29.651223208822042

>  <Genealogy>  (26) 
CNc1cccc(COc2ccc(F)cc2)c1 (3D coordinates assigned)
CNc1cccc(COc2ccc(F)cc2)c1 (optimized conformer: 29.651223208822042 kcal/mol)

>  <smiles>  (26) 
CNc1cccc(COc2ccc(F)cc2)c1

>  <score_type>  (26) 
oracle

>  <origin>  (26) 
adgpu

>  <m_score__min__energy>  (26) 
-6.7400000000000002

>  <m_primary>  (26) 
energy

$$$$
26:0
     RDKit          3D

 27 28  0  0  0  0  0  0  0  0999 V2000
   -5.0810   24.7800  -31.5050 O   0  0  0  0  0  0  0  0  0  0  0  0
   -5.7540   23.9010  -30.9040 C   0  0  0  0  0  0  0  0  0  0  0  0
   -7.0990   23.6130  -31.3080 N   0  0  0  0  0  0  0  0  0  0  0  0
   -7.6110   22.3420  -31.7360 C   0  0  0  0  0  0  0  0  0  0  0  0
   -8.9580   21.9770  -31.5530 C   0  0  0  0  0  0  0  0  0  0  0  0
   -9.4180   20.7370  -32.0070 C   0  0  0  0  0  0  0  0  0  0  0  0
   -8.5460   19.8600  -32.6560 C   0  0  0  0  0  0  0  0  0  0  0  0
   -7.2130   20.2240  -32.8630 C   0  0  0  0  0  0  0  0  0  0  0  0
   -6.1210   19.1290  -33.6920 Cl  0  0  0  0  0  0  0  0  0  0  0  0
   -6.7500   21.4650  -32.4110 C   0  0  0  0  0  0  0  0  0  0  0  0
   -5.1890   23.1790  -29.8000 N   0  0  0  0  0  0  0  0  0  0  0  0
   -3.9360   23.5050  -29.1760 C   0  0  0  0  0  0  0  0  0  0  0  0
   -3.4820   22.7280  -28.0980 C   0  0  0  0  0  0  0  0  0  0  0  0
   -2.2770   23.0370  -27.4590 C   0  0  0  0  0  0  0  0  0  0  0  0
   -1.5230   24.1350  -27.8810 C   0  0  0  0  0  0  0  0  0  0  0  0
   -1.9770   24.9310  -28.9370 C   0  0  0  0  0  0  0  0  0  0  0  0
   -1.2350   26.0330  -29.3440 O   0  0  0  0  0  0  0  0  0  0  0  0
   -3.1810   24.6230  -29.5790 C   0  0  0  0  0  0  0  0  0  0  0  0
   -9.6506   22.6690  -31.0516 H   0  0  0  0  0  0  0  0  0  0  0  0
  -10.4691   20.4516  -31.8526 H   0  0  0  0  0  0  0  0  0  0  0  0
   -8.9090   18.8818  -33.0045 H   0  0  0  0  0  0  0  0  0  0  0  0
   -5.7034   21.7544  -32.5865 H   0  0  0  0  0  0  0  0  0  0  0  0
   -5.6800   22.3070  -29.4960 H   0  0  0  0  0  0  0  0  0  0  0  0
   -4.0784   21.8702  -27.7537 H   0  0  0  0  0  0  0  0  0  0  0  0
   -1.9226   22.4152  -26.6237 H   0  0  0  0  0  0  0  0  0  0  0  0
   -0.5719   24.3733  -27.3823 H   0  0  0  0  0  0  0  0  0  0  0  0
   -3.5398   25.2575  -30.4029 H   0  0  0  0  0  0  0  0  0  0  0  0
  1  2  2  0
  2  3  1  0
  3  4  1  0
  4  5  2  0
  5  6  1  0
  6  7  2  0
  7  8  1  0
  8  9  1  0
  8 10  2  0
  2 11  1  0
 11 12  1  0
 12 13  2  0
 13 14  1  0
 14 15  2  0
 15 16  1  0
 16 17  1  0
 16 18  2  0
 10  4  1  0
 18 12  1  0
  5 19  1  0
  6 20  1  0
  7 21  1  0
 10 22  1  0
 11 23  1  0
 13 24  1  0
 14 25  1  0
 15 26  1  0
 18 27  1  0
M  CHG  2   3  -1  17  -1
M  END
>  <UniqueID>  (27) 
27

>  <SMILES>  (27) 
O=C([N-]c1cccc(Cl)c1)Nc1cccc([O-])c1

>  <Energy>  (27) 
34.539578114869755

>  <Genealogy>  (27) 
O=C([N-]c1cccc(Cl)c1)Nc1cccc([O-])c1 (protonated)
O=C([N-]c1cccc(Cl)c1)Nc1cccc([O-])c1 (3D coordinates assigned)
O=C([N-]c1cccc(Cl)c1)Nc1cccc([O-])c1 (optimized conformer: 34.539578114869755 kcal/mol)

>  <smiles>  (27) 
O=C(Nc1cccc(O)c1)Nc1cccc(Cl)c1

>  <score_type>  (27) 
oracle

>  <origin>  (27) 
adgpu

>  <m_score__min__energy>  (27) 
-10.859999999999999

>  <m_primary>  (27) 
energy

$$$$
27:0
     RDKit          3D

 31 31  0  0  0  0  0  0  0  0999 V2000
   -7.0730   17.1280  -33.3600 C   0  0  0  0  0  0  0  0  0  0  0  0
   -7.0730   18.0330  -32.1940 N   0  0  0  0  0  0  0  0  0  0  0  0
   -6.1370   17.5240  -31.1770 C   0  0  0  0  0  0  0  0  0  0  0  0
   -8.4280   18.1700  -31.6060 C   0  0  0  0  0  0  0  0  0  0  0  0
   -9.1510   19.4440  -32.0810 C   0  0  0  0  0  0  0  0  0  0  0  0
   -8.2810   20.2460  -32.9470 N   0  0  0  0  0  0  0  0  0  0  0  0
   -7.4390   21.3040  -32.4450 C   0  0  0  0  0  0  0  0  0  0  0  0
   -8.0040   22.3970  -31.7550 C   0  0  0  0  0  0  0  0  0  0  0  0
   -7.2080   23.4690  -31.3470 C   0  0  0  0  0  0  0  0  0  0  0  0
   -5.8430   23.4710  -31.6220 C   0  0  0  0  0  0  0  0  0  0  0  0
   -5.2630   22.3950  -32.2930 C   0  0  0  0  0  0  0  0  0  0  0  0
   -6.0440   21.2960  -32.6960 C   0  0  0  0  0  0  0  0  0  0  0  0
   -5.4020   20.1680  -33.3140 N   0  0  0  0  0  0  0  0  0  0  0  0
   -4.4700   19.5790  -32.7290 O   0  0  0  0  0  0  0  0  0  0  0  0
   -5.9460   19.5930  -34.4400 O   0  0  0  0  0  0  0  0  0  0  0  0
   -6.0359   16.9032  -33.6497 H   0  0  0  0  0  0  0  0  0  0  0  0
   -7.5915   16.1937  -33.0990 H   0  0  0  0  0  0  0  0  0  0  0  0
   -7.5915   17.6127  -34.2003 H   0  0  0  0  0  0  0  0  0  0  0  0
   -6.7290   18.9740  -32.5010 H   0  0  0  0  0  0  0  0  0  0  0  0
   -6.5331   17.7394  -30.1736 H   0  0  0  0  0  0  0  0  0  0  0  0
   -6.0185   16.4372  -31.2989 H   0  0  0  0  0  0  0  0  0  0  0  0
   -5.1604   18.0153  -31.2989 H   0  0  0  0  0  0  0  0  0  0  0  0
   -9.0283   17.2949  -31.8956 H   0  0  0  0  0  0  0  0  0  0  0  0
   -8.3132   18.2383  -30.5141 H   0  0  0  0  0  0  0  0  0  0  0  0
  -10.0533   19.1585  -32.6417 H   0  0  0  0  0  0  0  0  0  0  0  0
   -9.4209   20.0447  -31.1999 H   0  0  0  0  0  0  0  0  0  0  0  0
   -8.2650   20.0360  -33.9700 H   0  0  0  0  0  0  0  0  0  0  0  0
   -9.0820   22.4048  -31.5363 H   0  0  0  0  0  0  0  0  0  0  0  0
   -7.6602   24.3140  -30.8071 H   0  0  0  0  0  0  0  0  0  0  0  0
   -5.2212   24.3228  -31.3094 H   0  0  0  0  0  0  0  0  0  0  0  0
   -4.1845   22.4054  -32.5094 H   0  0  0  0  0  0  0  0  0  0  0  0
  1  2  1  0
  2  3  1  0
  2  4  1  0
  4  5  1  0
  5  6  1  0
  6  7  1  0
  7  8  2  0
  8  9  1  0
  9 10  2  0
 10 11  1  0
 11 12  2  0
 12 13  1  0
 13 14  2  0
 13 15  1  0
 12  7  1  0
  1 16  1  0
  1 17  1  0
  1 18  1  0
  2 19  1  0
  3 20  1  0
  3 21  1  0
  3 22  1  0
  4 23  1  0
  4 24  1  0
  5 25  1  0
  5 26  1  0
  6 27  1  0
  8 28  1  0
  9 29  1  0
 10 30  1  0
 11 31  1  0
M  CHG  3   2   1  13   1  15  -1
M  END
>  <UniqueID>  (28) 
28

>  <SMILES>  (28) 
C[NH+](C)CCNc1ccccc1[N+](=O)[O-]

>  <Energy>  (28) 
34.23180223880238

>  <Genealogy>  (28) 
C[NH+](C)CCNc1ccccc1[N+](=O)[O-] (protonated)
C[NH+](C)CCNc1ccccc1[N+](=O)[O-] (3D coordinates assigned)
C[NH+](C)CCNc1ccccc1[N+](=O)[O-] (optimized conformer: 34.23180223880238 kcal/mol)

>  <smiles>  (28) 
CN(C)CCNc1ccccc1[N+](=O)[O-]

>  <score_type>  (28) 
oracle

>  <origin>  (28) 
adgpu

>  <m_score__min__energy>  (28) 
-4.3600000000000003

>  <m_primary>  (28) 
energy

$$$$
28:0
     RDKit          3D

 38 41  0  0  1  0  0  0  0  0999 V2000
    0.7760   19.1390  -30.2080 Cl  0  0  0  0  0  0  0  0  0  0  0  0
   -0.6010   19.8420  -31.0510 C   0  0  0  0  0  0  0  0  0  0  0  0
   -1.0210   19.2190  -32.1870 C   0  0  0  0  0  0  0  0  0  0  0  0
   -2.0990   19.7550  -32.8570 C   0  0  0  0  0  0  0  0  0  0  0  0
   -2.6620   20.8840  -32.3120 C   0  0  0  0  0  0  0  0  0  0  0  0
   -3.8940   21.3990  -33.1140 C   0  0  0  0  0  0  0  0  0  0  0  0
   -4.1620   22.5410  -32.3980 N   0  0  0  0  0  0  0  0  0  0  0  0
   -5.1320   22.9690  -31.8070 C   0  0  0  0  0  0  0  0  0  0  0  0
   -4.9830   24.1830  -31.2250 N   0  0  0  0  0  0  0  0  0  0  0  0
   -5.9780   24.8690  -30.6720 C   0  0  0  0  0  0  0  0  0  0  0  0
   -7.1830   24.3170  -30.7010 N   0  0  0  0  0  0  0  0  0  0  0  0
   -7.3530   23.1120  -31.2680 C   0  0  0  0  0  0  0  0  0  0  0  0
   -8.8650   22.2670  -31.3730 S   0  0  0  0  0  0  0  0  0  0  0  0
   -8.1870   20.8780  -32.1870 C   0  0  0  0  0  0  0  0  0  0  0  0
   -6.7160   21.1610  -32.3460 C   0  0  0  0  0  0  0  0  0  0  0  0
   -6.1510   19.8900  -32.8310 C   0  0  0  0  0  0  0  0  0  0  0  0
   -6.1390   19.5730  -34.1990 C   0  0  0  0  0  0  0  0  0  0  0  0
   -5.7600   18.3290  -34.6560 C   0  0  0  0  0  0  0  0  0  0  0  0
   -5.3860   17.3870  -33.7220 C   0  0  0  0  0  0  0  0  0  0  0  0
   -5.3750   17.6310  -32.3650 C   0  0  0  0  0  0  0  0  0  0  0  0
   -5.7600   18.8830  -31.9470 C   0  0  0  0  0  0  0  0  0  0  0  0
   -6.3840   22.3210  -31.8610 C   0  0  0  0  0  0  0  0  0  0  0  0
   -2.2470   21.5100  -31.1800 C   0  0  0  0  0  0  0  0  0  0  0  0
   -1.1530   20.9680  -30.4980 C   0  0  0  0  0  0  0  0  0  0  0  0
   -0.5150   18.3156  -32.5582 H   0  0  0  0  0  0  0  0  0  0  0  0
   -2.4890   19.3025  -33.7807 H   0  0  0  0  0  0  0  0  0  0  0  0
   -3.6400   21.6201  -34.1612 H   0  0  0  0  0  0  0  0  0  0  0  0
   -4.7304   20.6896  -33.1988 H   0  0  0  0  0  0  0  0  0  0  0  0
   -5.8089   25.8528  -30.2100 H   0  0  0  0  0  0  0  0  0  0  0  0
   -7.9700   24.8520  -30.2740 H   0  0  0  0  0  0  0  0  0  0  0  0
   -8.7259   19.9777  -32.5171 H   0  0  0  0  0  0  0  0  0  0  0  0
   -6.4409   20.3400  -34.9273 H   0  0  0  0  0  0  0  0  0  0  0  0
   -5.7562   18.0957  -35.7310 H   0  0  0  0  0  0  0  0  0  0  0  0
   -5.0812   16.3914  -34.0767 H   0  0  0  0  0  0  0  0  0  0  0  0
   -5.0707   16.8558  -31.6463 H   0  0  0  0  0  0  0  0  0  0  0  0
   -5.7599   19.1006  -30.8687 H   0  0  0  0  0  0  0  0  0  0  0  0
   -2.7549   22.4136  -30.8119 H   0  0  0  0  0  0  0  0  0  0  0  0
   -0.7597   21.4178  -29.5744 H   0  0  0  0  0  0  0  0  0  0  0  0
  1  2  1  0
  2  3  2  0
  3  4  1  0
  4  5  2  0
  5  6  1  0
  6  7  1  0
  7  8  2  0
  8  9  1  0
  9 10  2  0
 10 11  1  0
 11 12  1  0
 12 13  1  0
 13 14  1  0
 14 15  2  0
 15 16  1  0
 16 17  2  0
 17 18  1  0
 18 19  2  0
 19 20  1  0
 20 21  2  0
 15 22  1  0
  5 23  1  0
 23 24  2  0
 24  2  1  0
 22  8  1  0
 22 12  2  0
 21 16  1  0
  3 25  1  0
  4 26  1  0
  6 27  1  0
  6 28  1  0
 10 29  1  0
 11 30  1  0
 14 31  1  0
 17 32  1  0
 18 33  1  0
 19 34  1  0
 20 35  1  0
 21 36  1  0
 23 37  1  0
 24 38  1  0
M  END
>  <smiles>  (29) 
Clc1ccc(CN=c2nc[nH]c3scc(-c4ccccc4)c23)cc1

>  <score_type>  (29) 
oracle

>  <origin>  (29) 
adgpu

>  <m_score__min__energy>  (29) 
-8.4000000000000004

>  <m_primary>  (29) 
energy

$$$$
29:0
     RDKit          3D

 28 29  0  0  0  0  0  0  0  0999 V2000
   -2.8770   24.5140  -27.4010 C   0  0  0  0  0  0  0  0  0  0  0  0
   -2.0540   24.8800  -28.9800 S   0  0  0  0  0  0  0  0  0  0  0  0
   -3.4700   24.3990  -29.9600 C   0  0  0  0  0  0  0  0  0  0  0  0
   -4.4270   25.3120  -30.2640 N   0  0  0  0  0  0  0  0  0  0  0  0
   -5.5130   24.9630  -30.9990 C   0  0  0  0  0  0  0  0  0  0  0  0
   -5.6590   23.6530  -31.4600 C   0  0  0  0  0  0  0  0  0  0  0  0
   -7.1400   23.2220  -32.3100 Cl  0  0  0  0  0  0  0  0  0  0  0  0
   -4.6460   22.7200  -31.1550 C   0  0  0  0  0  0  0  0  0  0  0  0
   -4.6960   21.3140  -31.5990 C   0  0  0  0  0  0  0  0  0  0  0  0
   -4.1810   20.4250  -30.8680 O   0  0  0  0  0  0  0  0  0  0  0  0
   -5.2230   20.9640  -32.8890 N   0  0  0  0  0  0  0  0  0  0  0  0
   -5.6570   19.6400  -33.2460 C   0  0  0  0  0  0  0  0  0  0  0  0
   -4.9520   18.9250  -34.2270 C   0  0  0  0  0  0  0  0  0  0  0  0
   -5.3690   17.6450  -34.6060 C   0  0  0  0  0  0  0  0  0  0  0  0
   -6.5000   17.0730  -34.0190 C   0  0  0  0  0  0  0  0  0  0  0  0
   -6.9030   15.8330  -34.3890 F   0  0  0  0  0  0  0  0  0  0  0  0
   -7.2210   17.7840  -33.0560 C   0  0  0  0  0  0  0  0  0  0  0  0
   -6.8070   19.0650  -32.6720 C   0  0  0  0  0  0  0  0  0  0  0  0
   -3.5860   23.1200  -30.4020 N   0  0  0  0  0  0  0  0  0  0  0  0
   -2.2199   24.8062  -26.5686 H   0  0  0  0  0  0  0  0  0  0  0  0
   -3.8195   25.0778  -27.3394 H   0  0  0  0  0  0  0  0  0  0  0  0
   -3.0896   23.4365  -27.3394 H   0  0  0  0  0  0  0  0  0  0  0  0
   -6.2812   25.7149  -31.2325 H   0  0  0  0  0  0  0  0  0  0  0  0
   -5.1980   21.6940  -33.6370 H   0  0  0  0  0  0  0  0  0  0  0  0
   -4.0664   19.3741  -34.7004 H   0  0  0  0  0  0  0  0  0  0  0  0
   -4.8049   17.0874  -35.3682 H   0  0  0  0  0  0  0  0  0  0  0  0
   -8.1157   17.3362  -32.5988 H   0  0  0  0  0  0  0  0  0  0  0  0
   -7.3821   19.6242  -31.9193 H   0  0  0  0  0  0  0  0  0  0  0  0
  1  2  1  0
  2  3  1  0
  3  4  2  0
  4  5  1  0
  5  6  2  0
  6  7  1  0
  6  8  1  0
  8  9  1  0
  9 10  2  0
  9 11  1  0
 11 12  1  0
 12 13  2  0
 13 14  1  0
 14 15  2  0
 15 16  1  0
 15 17  1  0
 17 18  2  0
  8 19  2  0
 19  3  1  0
 18 12  1  0
  1 20  1  0
  1 21  1  0
  1 22  1  0
  5 23  1  0
 11 24  1  0
 13 25  1  0
 14 26  1  0
 17 27  1  0
 18 28  1  0
M  END
>  <UniqueID>  (30) 
29

>  <SMILES>  (30) 
CSc1ncc(Cl)c(C(=O)Nc2ccc(F)cc2)n1

>  <Energy>  (30) 
33.435137088740035

>  <Genealogy>  (30) 
CSc1ncc(Cl)c(C(=O)Nc2ccc(F)cc2)n1 (3D coordinates assigned)
CSc1ncc(Cl)c(C(=O)Nc2ccc(F)cc2)n1 (optimized conformer: 33.435137088740035 kcal/mol)

>  <smiles>  (30) 
CSc1ncc(Cl)c(C(=O)Nc2ccc(F)cc2)n1

>  <score_type>  (30) 
oracle

>  <origin>  (30) 
adgpu

>  <m_score__min__energy>  (30) 
-6.8499999999999996

>  <m_primary>  (30) 
energy

$$$$
30:0
     RDKit          3D

 13 13  0  0  0  0  0  0  0  0999 V2000
   -3.8750   25.3550  -30.5530 N   0  0  0  0  0  0  0  0  0  0  0  0
   -5.2820   25.1720  -30.4260 C   0  0  0  0  0  0  0  0  0  0  0  0
   -5.9600   25.9880  -29.7460 O   0  0  0  0  0  0  0  0  0  0  0  0
   -5.9360   24.0350  -31.0840 C   0  0  0  0  0  0  0  0  0  0  0  0
   -5.3250   23.1080  -31.9050 C   0  0  0  0  0  0  0  0  0  0  0  0
   -6.2740   22.2450  -32.2910 N   0  0  0  0  0  0  0  0  0  0  0  0
   -6.1130   21.1560  -33.1180 O   0  0  0  0  0  0  0  0  0  0  0  0
   -7.4220   22.6430  -31.7180 C   0  0  0  0  0  0  0  0  0  0  0  0
   -7.2530   23.7490  -30.9620 N   0  0  0  0  0  0  0  0  0  0  0  0
   -3.4830   26.0420  -31.2350 H   0  0  0  0  0  0  0  0  0  0  0  0
   -4.2623   23.0830  -32.1879 H   0  0  0  0  0  0  0  0  0  0  0  0
   -5.4840   21.1980  -33.9120 H   0  0  0  0  0  0  0  0  0  0  0  0
   -8.3856   22.1288  -31.8491 H   0  0  0  0  0  0  0  0  0  0  0  0
  1  2  1  0
  2  3  2  0
  2  4  1  0
  4  5  2  0
  5  6  1  0
  6  7  1  0
  6  8  1  0
  8  9  2  0
  9  4  1  0
  1 10  1  0
  5 11  1  0
  7 12  1  0
  8 13  1  0
M  CHG  1   1  -1
M  END
>  <UniqueID>  (31) 
30

>  <SMILES>  (31) 
[NH-]C(=O)c1cn(O)cn1

>  <Energy>  (31) 
39.61197384815213

>  <Genealogy>  (31) 
[NH-]C(=O)c1cn(O)cn1 (protonated)
[NH-]C(=O)c1cn(O)cn1 (3D coordinates assigned)
[NH-]C(=O)c1cn(O)cn1 (optimized conformer: 39.61197384815213 kcal/mol)

>  <smiles>  (31) 
NC(=O)c1cn(O)cn1

>  <score_type>  (31) 
oracle

>  <origin>  (31) 
adgpu

>  <m_score__min__energy>  (31) 
-6.0099999999999998

>  <m_primary>  (31) 
energy

$$$$
31:0
     RDKit          3D

 29 31  0  0  0  0  0  0  0  0999 V2000
   -5.3760   26.3710  -30.2460 O   0  0  0  0  0  0  0  0  0  0  0  0
   -5.1460   25.2100  -30.6750 C   0  0  0  0  0  0  0  0  0  0  0  0
   -6.1130   24.5410  -31.4290 C   0  0  0  0  0  0  0  0  0  0  0  0
   -5.8480   23.2480  -31.8980 C   0  0  0  0  0  0  0  0  0  0  0  0
   -6.8150   22.5700  -32.7190 N   0  0  0  0  0  0  0  0  0  0  0  0
   -7.4080   21.3040  -32.3800 C   0  0  0  0  0  0  0  0  0  0  0  0
   -6.9600   20.1040  -32.9650 C   0  0  0  0  0  0  0  0  0  0  0  0
   -7.5660   18.8880  -32.6330 C   0  0  0  0  0  0  0  0  0  0  0  0
   -8.6280   18.8590  -31.7250 C   0  0  0  0  0  0  0  0  0  0  0  0
   -9.0900   20.0470  -31.1530 C   0  0  0  0  0  0  0  0  0  0  0  0
   -8.4870   21.2650  -31.4820 C   0  0  0  0  0  0  0  0  0  0  0  0
   -4.6000   22.6620  -31.6030 C   0  0  0  0  0  0  0  0  0  0  0  0
   -4.2540   21.3620  -32.0220 C   0  0  0  0  0  0  0  0  0  0  0  0
   -3.0030   20.8290  -31.6950 C   0  0  0  0  0  0  0  0  0  0  0  0
   -2.0900   21.5770  -30.9490 C   0  0  0  0  0  0  0  0  0  0  0  0
   -2.4250   22.8630  -30.5170 C   0  0  0  0  0  0  0  0  0  0  0  0
   -3.6730   23.4090  -30.8350 C   0  0  0  0  0  0  0  0  0  0  0  0
   -3.9800   24.6310  -30.4100 O   0  0  0  0  0  0  0  0  0  0  0  0
   -7.0748   25.0256  -31.6527 H   0  0  0  0  0  0  0  0  0  0  0  0
   -7.1480   23.0550  -33.5840 H   0  0  0  0  0  0  0  0  0  0  0  0
   -6.1297   20.1231  -33.6863 H   0  0  0  0  0  0  0  0  0  0  0  0
   -7.2062   17.9530  -33.0873 H   0  0  0  0  0  0  0  0  0  0  0  0
   -9.1000   17.9012  -31.4608 H   0  0  0  0  0  0  0  0  0  0  0  0
   -9.9295   20.0242  -30.4426 H   0  0  0  0  0  0  0  0  0  0  0  0
   -8.8601   22.1982  -31.0347 H   0  0  0  0  0  0  0  0  0  0  0  0
   -4.9691   20.7653  -32.6073 H   0  0  0  0  0  0  0  0  0  0  0  0
   -2.7368   19.8148  -32.0274 H   0  0  0  0  0  0  0  0  0  0  0  0
   -1.1056   21.1533  -30.7010 H   0  0  0  0  0  0  0  0  0  0  0  0
   -1.7053   23.4476  -29.9252 H   0  0  0  0  0  0  0  0  0  0  0  0
  1  2  2  0
  2  3  1  0
  3  4  2  0
  4  5  1  0
  5  6  1  0
  6  7  2  0
  7  8  1  0
  8  9  2  0
  9 10  1  0
 10 11  2  0
  4 12  1  0
 12 13  2  0
 13 14  1  0
 14 15  2  0
 15 16  1  0
 16 17  2  0
 17 18  1  0
 18  2  1  0
 11  6  1  0
 17 12  1  0
  3 19  1  0
  5 20  1  0
  7 21  1  0
  8 22  1  0
  9 23  1  0
 10 24  1  0
 11 25  1  0
 13 26  1  0
 14 27  1  0
 15 28  1  0
 16 29  1  0
M  END
>  <UniqueID>  (32) 
31

>  <SMILES>  (32) 
O=c1cc(Nc2ccccc2)c2ccccc2o1

>  <Energy>  (32) 
43.136729373376774

>  <Genealogy>  (32) 
O=c1cc(Nc2ccccc2)c2ccccc2o1 (3D coordinates assigned)
O=c1cc(Nc2ccccc2)c2ccccc2o1 (optimized conformer: 43.136729373376774 kcal/mol)

>  <smiles>  (32) 
O=c1cc(Nc2ccccc2)c2ccccc2o1

>  <score_type>  (32) 
oracle

>  <origin>  (32) 
adgpu

>  <m_score__min__energy>  (32) 
-7.5800000000000001

>  <m_primary>  (32) 
energy

$$$$
32:0
     RDKit          3D

 23 24  0  0  0  0  0  0  0  0999 V2000
   -9.5569   23.6757  -32.0180 H   0  0  0  0  0  0  0  0  0  0  0  0
   -9.0650   22.6930  -31.9700 C   0  0  0  0  0  0  0  0  0  0  0  0
   -7.6710   22.6110  -31.9170 C   0  0  0  0  0  0  0  0  0  0  0  0
   -7.0664   23.5299  -31.9154 H   0  0  0  0  0  0  0  0  0  0  0  0
   -7.0440   21.3630  -31.8660 C   0  0  0  0  0  0  0  0  0  0  0  0
   -5.9474   21.3024  -31.8038 H   0  0  0  0  0  0  0  0  0  0  0  0
   -7.8110   20.1840  -31.8940 C   0  0  0  0  0  0  0  0  0  0  0  0
   -7.1960   18.8930  -31.7810 N   0  0  0  0  0  0  0  0  0  0  0  0
   -6.5250   18.2550  -32.7010 C   0  0  0  0  0  0  0  0  0  0  0  0
   -5.9060   17.0460  -32.3590 C   0  0  0  0  0  0  0  0  0  0  0  0
   -5.9873   16.6547  -31.3342 H   0  0  0  0  0  0  0  0  0  0  0  0
   -5.1860   16.3400  -33.3230 C   0  0  0  0  0  0  0  0  0  0  0  0
   -4.6900   15.3945  -33.0584 H   0  0  0  0  0  0  0  0  0  0  0  0
   -5.0970   16.8360  -34.6220 C   0  0  0  0  0  0  0  0  0  0  0  0
   -4.5242   16.2915  -35.3871 H   0  0  0  0  0  0  0  0  0  0  0  0
   -5.7430   18.0320  -34.9420 C   0  0  0  0  0  0  0  0  0  0  0  0
   -5.6863   18.4276  -35.9668 H   0  0  0  0  0  0  0  0  0  0  0  0
   -6.4430   18.7110  -33.9910 N   0  0  0  0  0  0  0  0  0  0  0  0
   -6.9440   19.5740  -34.2960 H   0  0  0  0  0  0  0  0  0  0  0  0
   -9.2090   20.2750  -31.9110 C   0  0  0  0  0  0  0  0  0  0  0  0
   -9.8178   19.3593  -31.8841 H   0  0  0  0  0  0  0  0  0  0  0  0
   -9.8340   21.5260  -31.9620 C   0  0  0  0  0  0  0  0  0  0  0  0
  -10.9316   21.5909  -31.9958 H   0  0  0  0  0  0  0  0  0  0  0  0
  1  2  1  0
  2  3  2  0
  3  4  1  0
  3  5  1  0
  5  6  1  0
  5  7  2  0
  7  8  1  0
  8  9  2  0
  9 10  1  0
 10 11  1  0
 10 12  2  0
 12 13  1  0
 12 14  1  0
 14 15  1  0
 14 16  2  0
 16 17  1  0
 16 18  1  0
 18 19  1  0
  7 20  1  0
 20 21  1  0
 20 22  2  0
 22 23  1  0
 22  2  1  0
 18  9  1  0
M  END
>  <UniqueID>  (33) 
32

>  <SMILES>  (33) 
c1ccc(/N=c2/cccc[nH]2)cc1

>  <Energy>  (33) 
32.971694507447424

>  <Genealogy>  (33) 
c1ccc(/N=c2/cccc[nH]2)cc1 (cis-trans isomerization)
c1ccc(/N=c2/cccc[nH]2)cc1 (3D coordinates assigned)
c1ccc(/N=c2/cccc[nH]2)cc1 (optimized conformer: 32.971694507447424 kcal/mol)

>  <smiles>  (33) 
c1ccc(N=c2cccc[nH]2)cc1

>  <score_type>  (33) 
oracle

>  <origin>  (33) 
adgpu

>  <m_score__min__energy>  (33) 
-5.5700000000000003

>  <m_primary>  (33) 
energy

$$$$
33:0
     RDKit          3D

 36 38  0  0  0  0  0  0  0  0999 V2000
   -5.7990   16.6920  -34.5200 C   0  0  0  0  0  0  0  0  0  0  0  0
   -5.4570   17.9910  -34.9030 C   0  0  0  0  0  0  0  0  0  0  0  0
   -5.9770   19.0870  -34.2050 C   0  0  0  0  0  0  0  0  0  0  0  0
   -6.8470   18.8930  -33.1150 C   0  0  0  0  0  0  0  0  0  0  0  0
   -7.3990   20.0550  -32.3730 C   0  0  0  0  0  0  0  0  0  0  0  0
   -8.7770   20.1580  -32.1280 C   0  0  0  0  0  0  0  0  0  0  0  0
   -9.2730   21.2510  -31.4170 C   0  0  0  0  0  0  0  0  0  0  0  0
   -8.4270   22.2160  -30.9720 N   0  0  0  0  0  0  0  0  0  0  0  0
   -7.0870   22.1650  -31.2030 C   0  0  0  0  0  0  0  0  0  0  0  0
   -6.2360   23.2070  -30.6890 N   0  0  0  0  0  0  0  0  0  0  0  0
   -6.6510   24.6070  -30.8360 C   0  0  0  0  0  0  0  0  0  0  0  0
   -5.7260   25.5390  -30.0410 C   0  0  0  0  0  0  0  0  0  0  0  0
   -5.3790   24.9260  -28.7520 N   0  0  0  0  0  0  0  0  0  0  0  0
   -4.5840   23.6880  -28.9040 C   0  0  0  0  0  0  0  0  0  0  0  0
   -4.8770   22.9210  -30.2100 C   0  0  0  0  0  0  0  0  0  0  0  0
   -6.5490   21.0690  -31.8990 C   0  0  0  0  0  0  0  0  0  0  0  0
   -7.1840   17.5770  -32.7410 C   0  0  0  0  0  0  0  0  0  0  0  0
   -6.6610   16.4850  -33.4410 C   0  0  0  0  0  0  0  0  0  0  0  0
   -5.3890   15.8313  -35.0688 H   0  0  0  0  0  0  0  0  0  0  0  0
   -4.7786   18.1527  -35.7537 H   0  0  0  0  0  0  0  0  0  0  0  0
   -5.7039   20.1079  -34.5103 H   0  0  0  0  0  0  0  0  0  0  0  0
   -9.4630   19.3803  -32.4950 H   0  0  0  0  0  0  0  0  0  0  0  0
  -10.3515   21.3315  -31.2163 H   0  0  0  0  0  0  0  0  0  0  0  0
   -6.6133   24.8840  -31.8999 H   0  0  0  0  0  0  0  0  0  0  0  0
   -7.6746   24.7127  -30.4474 H   0  0  0  0  0  0  0  0  0  0  0  0
   -4.8067   25.7181  -30.6180 H   0  0  0  0  0  0  0  0  0  0  0  0
   -6.2449   26.4916  -29.8587 H   0  0  0  0  0  0  0  0  0  0  0  0
   -4.8300   25.6160  -28.1880 H   0  0  0  0  0  0  0  0  0  0  0  0
   -6.2590   24.7130  -28.2250 H   0  0  0  0  0  0  0  0  0  0  0  0
   -3.5173   23.9561  -28.8903 H   0  0  0  0  0  0  0  0  0  0  0  0
   -4.8598   23.0239  -28.0716 H   0  0  0  0  0  0  0  0  0  0  0  0
   -4.1519   23.2270  -30.9784 H   0  0  0  0  0  0  0  0  0  0  0  0
   -4.7926   21.8423  -30.0120 H   0  0  0  0  0  0  0  0  0  0  0  0
   -5.4647   21.0049  -32.0725 H   0  0  0  0  0  0  0  0  0  0  0  0
   -7.8632   17.4073  -31.8925 H   0  0  0  0  0  0  0  0  0  0  0  0
   -6.9291   15.4612  -33.1411 H   0  0  0  0  0  0  0  0  0  0  0  0
  1  2  2  0
  2  3  1  0
  3  4  2  0
  4  5  1  0
  5  6  2  0
  6  7  1  0
  7  8  2  0
  8  9  1  0
  9 10  1  0
 10 11  1  0
 11 12  1  0
 12 13  1  0
 13 14  1  0
 14 15  1  0
  9 16  2  0
  4 17  1  0
 17 18  2  0
 18  1  1  0
 16  5  1  0
 15 10  1  0
  1 19  1  0
  2 20  1  0
  3 21  1  0
  6 22  1  0
  7 23  1  0
 11 24  1  0
 11 25  1  0
 12 26  1  0
 12 27  1  0
 13 28  1  0
 13 29  1  0
 14 30  1  0
 14 31  1  0
 15 32  1  0
 15 33  1  0
 16 34  1  0
 17 35  1  0
 18 36  1  0
M  CHG  1  13   1
M  END
>  <UniqueID>  (34) 
33

>  <SMILES>  (34) 
c1ccc(-c2ccnc(N3CC[NH2+]CC3)c2)cc1

>  <Energy>  (34) 
50.54274574937053

>  <Genealogy>  (34) 
c1ccc(-c2ccnc(N3CC[NH2+]CC3)c2)cc1 (protonated)
c1ccc(-c2ccnc(N3CC[NH2+]CC3)c2)cc1 (3D coordinates assigned)
c1ccc(-c2ccnc(N3CC[NH2+]CC3)c2)cc1 (nonaromatic ring conformer: 50.54274574937053 kcal/mol)

>  <smiles>  (34) 
c1ccc(-c2ccnc(N3CCNCC3)c2)cc1

>  <score_type>  (34) 
oracle

>  <origin>  (34) 
adgpu

>  <m_score__min__energy>  (34) 
-7.4000000000000004

>  <m_primary>  (34) 
energy

$$$$
34:0
     RDKit          3D

 33 35  0  0  0  0  0  0  0  0999 V2000
   -4.4740   21.3350  -33.3970 O   0  0  0  0  0  0  0  0  0  0  0  0
   -5.2900   21.9610  -32.6680 C   0  0  0  0  0  0  0  0  0  0  0  0
   -4.9170   23.1440  -32.1160 N   0  0  0  0  0  0  0  0  0  0  0  0
   -5.7630   23.8550  -31.3230 C   0  0  0  0  0  0  0  0  0  0  0  0
   -5.3220   25.1600  -30.7390 C   0  0  0  0  0  0  0  0  0  0  0  0
   -3.8640   25.2720  -30.7730 N   0  0  0  0  0  0  0  0  0  0  0  0
   -3.1480   24.5850  -29.3410 S   0  0  0  0  0  0  0  0  0  0  0  0
   -2.0430   25.4860  -28.8700 O   0  0  0  0  0  0  0  0  0  0  0  0
   -4.1910   24.4840  -28.2630 O   0  0  0  0  0  0  0  0  0  0  0  0
   -2.4720   22.9920  -29.6920 C   0  0  0  0  0  0  0  0  0  0  0  0
   -3.3320   21.9230  -29.9850 C   0  0  0  0  0  0  0  0  0  0  0  0
   -2.8110   20.6580  -30.2680 C   0  0  0  0  0  0  0  0  0  0  0  0
   -1.4290   20.4520  -30.2690 C   0  0  0  0  0  0  0  0  0  0  0  0
   -0.5660   21.5150  -29.9900 C   0  0  0  0  0  0  0  0  0  0  0  0
   -1.0810   22.7840  -29.7050 C   0  0  0  0  0  0  0  0  0  0  0  0
   -0.2220   23.8040  -29.4530 F   0  0  0  0  0  0  0  0  0  0  0  0
   -7.0120   23.3830  -31.0690 N   0  0  0  0  0  0  0  0  0  0  0  0
   -7.4390   22.2060  -31.5970 C   0  0  0  0  0  0  0  0  0  0  0  0
   -8.7300   21.7420  -31.3230 C   0  0  0  0  0  0  0  0  0  0  0  0
   -9.1680   20.5310  -31.8680 C   0  0  0  0  0  0  0  0  0  0  0  0
   -8.3190   19.7810  -32.6870 C   0  0  0  0  0  0  0  0  0  0  0  0
   -7.0260   20.2360  -32.9660 C   0  0  0  0  0  0  0  0  0  0  0  0
   -6.5780   21.4530  -32.4230 C   0  0  0  0  0  0  0  0  0  0  0  0
   -5.7616   25.9835  -31.3208 H   0  0  0  0  0  0  0  0  0  0  0  0
   -5.6577   25.2121  -29.6928 H   0  0  0  0  0  0  0  0  0  0  0  0
   -4.4205   22.0814  -29.9919 H   0  0  0  0  0  0  0  0  0  0  0  0
   -3.4905   19.8221  -30.4906 H   0  0  0  0  0  0  0  0  0  0  0  0
   -1.0210   19.4545  -30.4891 H   0  0  0  0  0  0  0  0  0  0  0  0
    0.5221   21.3534  -29.9945 H   0  0  0  0  0  0  0  0  0  0  0  0
   -9.4005   22.3298  -30.6789 H   0  0  0  0  0  0  0  0  0  0  0  0
  -10.1834   20.1676  -31.6516 H   0  0  0  0  0  0  0  0  0  0  0  0
   -8.6690   18.8295  -33.1137 H   0  0  0  0  0  0  0  0  0  0  0  0
   -6.3604   19.6422  -33.6096 H   0  0  0  0  0  0  0  0  0  0  0  0
  1  2  2  0
  2  3  1  0
  3  4  2  0
  4  5  1  0
  5  6  1  0
  6  7  1  0
  7  8  2  0
  7  9  2  0
  7 10  1  0
 10 11  2  0
 11 12  1  0
 12 13  2  0
 13 14  1  0
 14 15  2  0
 15 16  1  0
  4 17  1  0
 17 18  1  0
 18 19  2  0
 19 20  1  0
 20 21  2  0
 21 22  1  0
 22 23  2  0
 23  2  1  0
 15 10  1  0
 23 18  1  0
  5 24  1  0
  5 25  1  0
 11 26  1  0
 12 27  1  0
 13 28  1  0
 14 29  1  0
 19 30  1  0
 20 31  1  0
 21 32  1  0
 22 33  1  0
M  CHG  2   6  -1  17  -1
M  END
>  <UniqueID>  (35) 
34

>  <SMILES>  (35) 
O=c1nc(C[N-]S(=O)(=O)c2ccccc2F)[n-]c2ccccc12

>  <Energy>  (35) 
39.59354229707034

>  <Genealogy>  (35) 
O=c1nc(C[N-]S(=O)(=O)c2ccccc2F)[n-]c2ccccc12 (protonated)
O=c1nc(C[N-]S(=O)(=O)c2ccccc2F)[n-]c2ccccc12 (3D coordinates assigned)
O=c1nc(C[N-]S(=O)(=O)c2ccccc2F)[n-]c2ccccc12 (optimized conformer: 39.59354229707034 kcal/mol)

>  <smiles>  (35) 
O=c1nc(CNS(=O)(=O)c2ccccc2F)[nH]c2ccccc12

>  <score_type>  (35) 
oracle

>  <origin>  (35) 
adgpu

>  <m_score__min__energy>  (35) 
-10.07

>  <m_primary>  (35) 
energy

$$$$
35:0
     RDKit          3D

 18 19  0  0  0  0  0  0  0  0999 V2000
   -5.3664   26.7851  -30.1946 H   0  0  0  0  0  0  0  0  0  0  0  0
   -5.1020   25.7540  -30.4720 C   0  0  0  0  0  0  0  0  0  0  0  0
   -3.8630   25.3270  -30.7890 N   0  0  0  0  0  0  0  0  0  0  0  0
   -3.9220   24.0340  -31.0710 N   0  0  0  0  0  0  0  0  0  0  0  0
   -5.2040   23.6440  -30.9540 C   0  0  0  0  0  0  0  0  0  0  0  0
   -5.6700   22.2890  -31.0590 N   0  0  0  0  0  0  0  0  0  0  0  0
   -6.8530   21.8500  -31.3910 C   0  0  0  0  0  0  0  0  0  0  0  0
   -7.0250   20.5040  -31.5120 N   0  0  0  0  0  0  0  0  0  0  0  0
   -8.2190   19.9480  -31.8470 C   0  0  0  0  0  0  0  0  0  0  0  0
   -8.3560   18.2070  -31.9890 Cl  0  0  0  0  0  0  0  0  0  0  0  0
   -9.3290   20.7620  -32.0750 C   0  0  0  0  0  0  0  0  0  0  0  0
  -10.2965   20.3194  -32.3545 H   0  0  0  0  0  0  0  0  0  0  0  0
   -9.1960   22.1440  -31.9440 C   0  0  0  0  0  0  0  0  0  0  0  0
  -10.0638   22.7982  -32.1141 H   0  0  0  0  0  0  0  0  0  0  0  0
   -7.9620   22.6980  -31.5970 C   0  0  0  0  0  0  0  0  0  0  0  0
   -7.8552   23.7871  -31.4851 H   0  0  0  0  0  0  0  0  0  0  0  0
   -5.9860   24.7000  -30.5490 C   0  0  0  0  0  0  0  0  0  0  0  0
   -7.0652   24.7027  -30.3362 H   0  0  0  0  0  0  0  0  0  0  0  0
  1  2  1  0
  2  3  1  0
  3  4  1  0
  4  5  2  0
  5  6  1  0
  6  7  2  0
  7  8  1  0
  8  9  1  0
  9 10  1  0
  9 11  2  0
 11 12  1  0
 11 13  1  0
 13 14  1  0
 13 15  2  0
 15 16  1  0
  5 17  1  0
 17 18  1  0
 17  2  2  0
 15  7  1  0
M  CHG  2   3  -1   8  -1
M  END
>  <UniqueID>  (36) 
35

>  <SMILES>  (36) 
Clc1ccc/c(=N\c2cc[n-]n2)[n-]1

>  <Energy>  (36) 
56.16866331151309

>  <Genealogy>  (36) 
Clc1cccc(=Nc2cc[n-]n2)[n-]1 (protonated)
Clc1ccc/c(=N\c2cc[n-]n2)[n-]1 (cis-trans isomerization)
Clc1ccc/c(=N\c2cc[n-]n2)[n-]1 (3D coordinates assigned)
Clc1ccc/c(=N\c2cc[n-]n2)[n-]1 (optimized conformer: 56.16866331151309 kcal/mol)

>  <smiles>  (36) 
Clc1cccc(=Nc2cc[nH]n2)[nH]1

>  <score_type>  (36) 
oracle

>  <origin>  (36) 
adgpu

>  <m_score__min__energy>  (36) 
-8.4700000000000006

>  <m_primary>  (36) 
energy

$$$$
36:0
     RDKit          3D

 24 25  0  0  0  0  0  0  0  0999 V2000
   -5.9650   26.0310  -29.6940 N   0  0  0  0  0  0  0  0  0  0  0  0
   -5.9970   24.7990  -30.4250 C   0  0  0  0  0  0  0  0  0  0  0  0
   -7.2340   24.2200  -30.7460 C   0  0  0  0  0  0  0  0  0  0  0  0
   -7.2900   23.0190  -31.4560 C   0  0  0  0  0  0  0  0  0  0  0  0
   -6.1100   22.3790  -31.8440 C   0  0  0  0  0  0  0  0  0  0  0  0
   -6.1830   20.8600  -32.7180 Cl  0  0  0  0  0  0  0  0  0  0  0  0
   -4.8730   22.9470  -31.5280 C   0  0  0  0  0  0  0  0  0  0  0  0
   -4.8040   24.1710  -30.8390 C   0  0  0  0  0  0  0  0  0  0  0  0
   -3.5370   24.7470  -30.4870 N   0  0  0  0  0  0  0  0  0  0  0  0
   -2.5860   24.2010  -29.5640 C   0  0  0  0  0  0  0  0  0  0  0  0
   -2.4050   22.9550  -29.5450 O   0  0  0  0  0  0  0  0  0  0  0  0
   -1.8760   25.0500  -28.5920 C   0  0  0  0  0  0  0  0  0  0  0  0
   -1.7670   24.8090  -27.2360 C   0  0  0  0  0  0  0  0  0  0  0  0
   -1.0330   25.8590  -26.7290 C   0  0  0  0  0  0  0  0  0  0  0  0
   -0.7430   26.6780  -27.8010 C   0  0  0  0  0  0  0  0  0  0  0  0
   -1.2600   26.1710  -28.8960 O   0  0  0  0  0  0  0  0  0  0  0  0
   -6.8390   26.5560  -29.4660 H   0  0  0  0  0  0  0  0  0  0  0  0
   -5.0580   26.4340  -29.3690 H   0  0  0  0  0  0  0  0  0  0  0  0
   -8.1660   24.7155  -30.4363 H   0  0  0  0  0  0  0  0  0  0  0  0
   -8.2643   22.5761  -31.7102 H   0  0  0  0  0  0  0  0  0  0  0  0
   -3.9458   22.4326  -31.8205 H   0  0  0  0  0  0  0  0  0  0  0  0
   -2.1802   23.9563  -26.6774 H   0  0  0  0  0  0  0  0  0  0  0  0
   -0.7376   26.0133  -25.6807 H   0  0  0  0  0  0  0  0  0  0  0  0
   -0.1665   27.6132  -27.7464 H   0  0  0  0  0  0  0  0  0  0  0  0
  1  2  1  0
  2  3  2  0
  3  4  1  0
  4  5  2  0
  5  6  1  0
  5  7  1  0
  7  8  2  0
  8  9  1  0
  9 10  1  0
 10 11  2  0
 10 12  1  0
 12 13  2  0
 13 14  1  0
 14 15  2  0
 15 16  1  0
  8  2  1  0
 16 12  1  0
  1 17  1  0
  1 18  1  0
  3 19  1  0
  4 20  1  0
  7 21  1  0
 13 22  1  0
 14 23  1  0
 15 24  1  0
M  CHG  1   9  -1
M  END
>  <UniqueID>  (37) 
36

>  <SMILES>  (37) 
Nc1ccc(Cl)cc1[N-]C(=O)c1ccco1

>  <Energy>  (37) 
54.50657188467669

>  <Genealogy>  (37) 
Nc1ccc(Cl)cc1[N-]C(=O)c1ccco1 (protonated)
Nc1ccc(Cl)cc1[N-]C(=O)c1ccco1 (3D coordinates assigned)
Nc1ccc(Cl)cc1[N-]C(=O)c1ccco1 (optimized conformer: 54.50657188467669 kcal/mol)

>  <smiles>  (37) 
Nc1ccc(Cl)cc1NC(=O)c1ccco1

>  <score_type>  (37) 
oracle

>  <origin>  (37) 
adgpu

>  <m_score__min__energy>  (37) 
-8.2100000000000009

>  <m_primary>  (37) 
energy

$$$$
37:0
     RDKit          3D

 42 44  0  0  0  0  0  0  0  0999 V2000
   -0.1580   22.5370  -28.6860 C   0  0  0  0  0  0  0  0  0  0  0  0
   -1.5650   22.0240  -28.9660 C   0  0  0  0  0  0  0  0  0  0  0  0
   -2.3280   23.0200  -29.7250 N   0  0  0  0  0  0  0  0  0  0  0  0
   -2.9700   22.8360  -30.8980 C   0  0  0  0  0  0  0  0  0  0  0  0
   -2.8480   21.3660  -31.9200 S   0  0  0  0  0  0  0  0  0  0  0  0
   -4.1860   21.8590  -33.0630 C   0  0  0  0  0  0  0  0  0  0  0  0
   -5.4470   21.0710  -32.8010 C   0  0  0  0  0  0  0  0  0  0  0  0
   -5.4210   19.6770  -32.9870 C   0  0  0  0  0  0  0  0  0  0  0  0
   -6.5560   18.9050  -32.7300 C   0  0  0  0  0  0  0  0  0  0  0  0
   -7.7310   19.5120  -32.2840 C   0  0  0  0  0  0  0  0  0  0  0  0
   -9.1540   18.5390  -31.9600 Cl  0  0  0  0  0  0  0  0  0  0  0  0
   -7.7730   20.8960  -32.0940 C   0  0  0  0  0  0  0  0  0  0  0  0
   -6.6420   21.6830  -32.3490 C   0  0  0  0  0  0  0  0  0  0  0  0
   -6.7710   23.4190  -32.0850 Cl  0  0  0  0  0  0  0  0  0  0  0  0
   -3.7520   23.8870  -31.2080 N   0  0  0  0  0  0  0  0  0  0  0  0
   -3.6290   24.7620  -30.2220 N   0  0  0  0  0  0  0  0  0  0  0  0
   -2.7680   24.2350  -29.3290 C   0  0  0  0  0  0  0  0  0  0  0  0
   -2.4070   24.9110  -28.0700 C   0  0  0  0  0  0  0  0  0  0  0  0
   -3.1880   24.7470  -26.9180 C   0  0  0  0  0  0  0  0  0  0  0  0
   -2.8250   25.3780  -25.7240 C   0  0  0  0  0  0  0  0  0  0  0  0
   -1.6710   26.1690  -25.6610 C   0  0  0  0  0  0  0  0  0  0  0  0
   -1.3510   26.7830  -24.4410 O   0  0  0  0  0  0  0  0  0  0  0  0
   -0.2140   26.4540  -23.6500 C   0  0  0  0  0  0  0  0  0  0  0  0
   -0.8750   26.3150  -26.8120 C   0  0  0  0  0  0  0  0  0  0  0  0
   -1.2370   25.6830  -28.0050 C   0  0  0  0  0  0  0  0  0  0  0  0
    0.0015   22.5952  -27.5992 H   0  0  0  0  0  0  0  0  0  0  0  0
    0.5778   21.8493  -29.1283 H   0  0  0  0  0  0  0  0  0  0  0  0
   -0.0375   23.5369  -29.1283 H   0  0  0  0  0  0  0  0  0  0  0  0
   -1.5026   21.0933  -29.5490 H   0  0  0  0  0  0  0  0  0  0  0  0
   -2.0743   21.8359  -28.0093 H   0  0  0  0  0  0  0  0  0  0  0  0
   -4.3975   22.9299  -32.9270 H   0  0  0  0  0  0  0  0  0  0  0  0
   -3.8565   21.6560  -34.0927 H   0  0  0  0  0  0  0  0  0  0  0  0
   -4.4988   19.1908  -33.3379 H   0  0  0  0  0  0  0  0  0  0  0  0
   -6.5239   17.8157  -32.8795 H   0  0  0  0  0  0  0  0  0  0  0  0
   -8.7006   21.3709  -31.7418 H   0  0  0  0  0  0  0  0  0  0  0  0
   -4.0905   24.1192  -26.9531 H   0  0  0  0  0  0  0  0  0  0  0  0
   -3.4504   25.2522  -24.8278 H   0  0  0  0  0  0  0  0  0  0  0  0
   -0.4747   26.5294  -22.5840 H   0  0  0  0  0  0  0  0  0  0  0  0
    0.1060   25.4264  -23.8774 H   0  0  0  0  0  0  0  0  0  0  0  0
    0.6053   27.1519  -23.8774 H   0  0  0  0  0  0  0  0  0  0  0  0
    0.0365   26.9294  -26.7728 H   0  0  0  0  0  0  0  0  0  0  0  0
   -0.6020   25.7913  -28.8967 H   0  0  0  0  0  0  0  0  0  0  0  0
  1  2  1  0
  2  3  1  0
  3  4  1  0
  4  5  1  0
  5  6  1  0
  6  7  1  0
  7  8  2  0
  8  9  1  0
  9 10  2  0
 10 11  1  0
 10 12  1  0
 12 13  2  0
 13 14  1  0
  4 15  2  0
 15 16  1  0
 16 17  2  0
 17 18  1  0
 18 19  2  0
 19 20  1  0
 20 21  2  0
 21 22  1  0
 22 23  1  0
 21 24  1  0
 24 25  2  0
 17  3  1  0
 25 18  1  0
 13  7  1  0
  1 26  1  0
  1 27  1  0
  1 28  1  0
  2 29  1  0
  2 30  1  0
  6 31  1  0
  6 32  1  0
  8 33  1  0
  9 34  1  0
 12 35  1  0
 19 36  1  0
 20 37  1  0
 23 38  1  0
 23 39  1  0
 23 40  1  0
 24 41  1  0
 25 42  1  0
M  END
>  <UniqueID>  (38) 
37

>  <SMILES>  (38) 
CCn1c(SCc2ccc(Cl)cc2Cl)nnc1-c1ccc(OC)cc1

>  <Energy>  (38) 
76.68696200274283

>  <Genealogy>  (38) 
CCn1c(SCc2ccc(Cl)cc2Cl)nnc1-c1ccc(OC)cc1 (3D coordinates assigned)
CCn1c(SCc2ccc(Cl)cc2Cl)nnc1-c1ccc(OC)cc1 (optimized conformer: 76.68696200274283 kcal/mol)

>  <smiles>  (38) 
CCn1c(SCc2ccc(Cl)cc2Cl)nnc1-c1ccc(OC)cc1

>  <score_type>  (38) 
oracle

>  <origin>  (38) 
adgpu

>  <m_score__min__energy>  (38) 
-8.8000000000000007

>  <m_primary>  (38) 
energy

$$$$
38:0
     RDKit          3D

 37 39  0  0  0  0  0  0  0  0999 V2000
   -1.9090   25.3040  -29.1790 O   0  0  0  0  0  0  0  0  0  0  0  0
   -2.8600   24.6240  -29.6530 C   0  0  0  0  0  0  0  0  0  0  0  0
   -3.8690   25.2660  -30.4450 N   0  0  0  0  0  0  0  0  0  0  0  0
   -5.2960   24.9730  -30.3450 C   0  0  0  0  0  0  0  0  0  0  0  0
   -5.8390   24.4230  -31.6670 C   0  0  0  0  0  0  0  0  0  0  0  0
   -6.4490   23.0660  -31.4980 C   0  0  0  0  0  0  0  0  0  0  0  0
   -6.1390   22.0080  -32.2760 N   0  0  0  0  0  0  0  0  0  0  0  0
   -6.8730   20.9020  -31.9650 C   0  0  0  0  0  0  0  0  0  0  0  0
   -6.7030   19.6260  -32.7080 C   0  0  0  0  0  0  0  0  0  0  0  0
   -5.8930   19.5910  -33.8600 C   0  0  0  0  0  0  0  0  0  0  0  0
   -5.7220   18.4000  -34.5730 C   0  0  0  0  0  0  0  0  0  0  0  0
   -6.3510   17.2300  -34.1440 C   0  0  0  0  0  0  0  0  0  0  0  0
   -7.1510   17.2480  -33.0000 C   0  0  0  0  0  0  0  0  0  0  0  0
   -7.3270   18.4360  -32.2830 C   0  0  0  0  0  0  0  0  0  0  0  0
   -7.7910   21.0940  -30.9260 C   0  0  0  0  0  0  0  0  0  0  0  0
   -7.6620   22.6860  -30.4020 S   0  0  0  0  0  0  0  0  0  0  0  0
   -2.9330   23.1690  -29.3900 C   0  0  0  0  0  0  0  0  0  0  0  0
   -3.0580   22.2530  -30.4530 C   0  0  0  0  0  0  0  0  0  0  0  0
   -3.1330   20.8800  -30.1990 C   0  0  0  0  0  0  0  0  0  0  0  0
   -3.0860   20.4050  -28.8860 C   0  0  0  0  0  0  0  0  0  0  0  0
   -2.9630   21.3030  -27.8240 C   0  0  0  0  0  0  0  0  0  0  0  0
   -2.8870   22.6780  -28.0720 C   0  0  0  0  0  0  0  0  0  0  0  0
   -5.4550   24.2266  -29.5528 H   0  0  0  0  0  0  0  0  0  0  0  0
   -5.8289   25.9060  -30.1091 H   0  0  0  0  0  0  0  0  0  0  0  0
   -6.6055   25.1123  -32.0510 H   0  0  0  0  0  0  0  0  0  0  0  0
   -4.9981   24.3338  -32.3705 H   0  0  0  0  0  0  0  0  0  0  0  0
   -5.3908   20.5081  -34.2016 H   0  0  0  0  0  0  0  0  0  0  0  0
   -5.0906   18.3852  -35.4736 H   0  0  0  0  0  0  0  0  0  0  0  0
   -6.2164   16.2946  -34.7069 H   0  0  0  0  0  0  0  0  0  0  0  0
   -7.6445   16.3250  -32.6614 H   0  0  0  0  0  0  0  0  0  0  0  0
   -7.9568   18.4415  -31.3812 H   0  0  0  0  0  0  0  0  0  0  0  0
   -8.4775   20.3351  -30.5225 H   0  0  0  0  0  0  0  0  0  0  0  0
   -3.0968   22.6201  -31.4892 H   0  0  0  0  0  0  0  0  0  0  0  0
   -3.2293   20.1720  -31.0353 H   0  0  0  0  0  0  0  0  0  0  0  0
   -3.1458   19.3244  -28.6891 H   0  0  0  0  0  0  0  0  0  0  0  0
   -2.9258   20.9288  -26.7903 H   0  0  0  0  0  0  0  0  0  0  0  0
   -2.7906   23.3801  -27.2307 H   0  0  0  0  0  0  0  0  0  0  0  0
  1  2  2  0
  2  3  1  0
  3  4  1  0
  4  5  1  0
  5  6  1  0
  6  7  2  0
  7  8  1  0
  8  9  1  0
  9 10  2  0
 10 11  1  0
 11 12  2  0
 12 13  1  0
 13 14  2  0
  8 15  2  0
 15 16  1  0
  2 17  1  0
 17 18  2  0
 18 19  1  0
 19 20  2  0
 20 21  1  0
 21 22  2  0
 16  6  1  0
 22 17  1  0
 14  9  1  0
  4 23  1  0
  4 24  1  0
  5 25  1  0
  5 26  1  0
 10 27  1  0
 11 28  1  0
 12 29  1  0
 13 30  1  0
 14 31  1  0
 15 32  1  0
 18 33  1  0
 19 34  1  0
 20 35  1  0
 21 36  1  0
 22 37  1  0
M  CHG  1   3  -1
M  END
>  <UniqueID>  (39) 
38

>  <SMILES>  (39) 
O=C([N-]CCc1nc(-c2ccccc2)cs1)c1ccccc1

>  <Energy>  (39) 
66.97942908033448

>  <Genealogy>  (39) 
O=C([N-]CCc1nc(-c2ccccc2)cs1)c1ccccc1 (protonated)
O=C([N-]CCc1nc(-c2ccccc2)cs1)c1ccccc1 (3D coordinates assigned)
O=C([N-]CCc1nc(-c2ccccc2)cs1)c1ccccc1 (optimized conformer: 66.97942908033448 kcal/mol)

>  <smiles>  (39) 
O=C(NCCc1nc(-c2ccccc2)cs1)c1ccccc1

>  <score_type>  (39) 
oracle

>  <origin>  (39) 
adgpu

>  <m_score__min__energy>  (39) 
-9.7899999999999991

>  <m_primary>  (39) 
energy

$$$$
39:0
     RDKit          3D

 39 41  0  0  0  0  0  0  0  0999 V2000
    0.2330   23.1870  -24.4710 C   0  0  0  0  0  0  0  0  0  0  0  0
    0.5130   23.4200  -25.8480 O   0  0  0  0  0  0  0  0  0  0  0  0
   -0.4260   23.8950  -26.7760 C   0  0  0  0  0  0  0  0  0  0  0  0
   -1.6530   24.4650  -26.3860 C   0  0  0  0  0  0  0  0  0  0  0  0
   -2.5560   24.9220  -27.3510 C   0  0  0  0  0  0  0  0  0  0  0  0
   -2.2530   24.8040  -28.7190 C   0  0  0  0  0  0  0  0  0  0  0  0
   -3.1250   25.2650  -29.7160 O   0  0  0  0  0  0  0  0  0  0  0  0
   -4.1980   24.5400  -30.2550 C   0  0  0  0  0  0  0  0  0  0  0  0
   -5.5350   24.9350  -30.0640 C   0  0  0  0  0  0  0  0  0  0  0  0
   -6.5780   24.1750  -30.6010 C   0  0  0  0  0  0  0  0  0  0  0  0
   -6.3070   22.9960  -31.3170 C   0  0  0  0  0  0  0  0  0  0  0  0
   -7.4030   22.1910  -31.9080 C   0  0  0  0  0  0  0  0  0  0  0  0
   -8.5470   22.7120  -32.0210 O   0  0  0  0  0  0  0  0  0  0  0  0
   -7.2030   20.7970  -32.3720 C   0  0  0  0  0  0  0  0  0  0  0  0
   -7.8920   19.7270  -31.7720 C   0  0  0  0  0  0  0  0  0  0  0  0
   -7.6820   18.4160  -32.2060 C   0  0  0  0  0  0  0  0  0  0  0  0
   -6.7750   18.1560  -33.2380 C   0  0  0  0  0  0  0  0  0  0  0  0
   -6.4880   16.3640  -33.8300 Br  0  0  0  0  0  0  0  0  0  0  0  0
   -6.0720   19.2100  -33.8300 C   0  0  0  0  0  0  0  0  0  0  0  0
   -6.2800   20.5220  -33.3970 C   0  0  0  0  0  0  0  0  0  0  0  0
   -4.9690   22.6040  -31.5010 C   0  0  0  0  0  0  0  0  0  0  0  0
   -3.9270   23.3640  -30.9620 C   0  0  0  0  0  0  0  0  0  0  0  0
   -1.0230   24.2570  -29.1030 C   0  0  0  0  0  0  0  0  0  0  0  0
   -0.1200   23.7990  -28.1390 C   0  0  0  0  0  0  0  0  0  0  0  0
    0.9316   23.7683  -23.8513 H   0  0  0  0  0  0  0  0  0  0  0  0
   -0.7989   23.4967  -24.2491 H   0  0  0  0  0  0  0  0  0  0  0  0
    0.3501   22.1160  -24.2491 H   0  0  0  0  0  0  0  0  0  0  0  0
   -1.9022   24.5512  -25.3181 H   0  0  0  0  0  0  0  0  0  0  0  0
   -3.5079   25.3760  -27.0384 H   0  0  0  0  0  0  0  0  0  0  0  0
   -5.7603   25.8457  -29.4897 H   0  0  0  0  0  0  0  0  0  0  0  0
   -7.6190   24.5021  -30.4622 H   0  0  0  0  0  0  0  0  0  0  0  0
   -8.6015   19.9244  -30.9549 H   0  0  0  0  0  0  0  0  0  0  0  0
   -8.2309   17.5870  -31.7353 H   0  0  0  0  0  0  0  0  0  0  0  0
   -5.3540   19.0058  -34.6380 H   0  0  0  0  0  0  0  0  0  0  0  0
   -5.7178   21.3458  -33.8611 H   0  0  0  0  0  0  0  0  0  0  0  0
   -4.7408   21.6927  -32.0732 H   0  0  0  0  0  0  0  0  0  0  0  0
   -2.8859   23.0347  -31.0949 H   0  0  0  0  0  0  0  0  0  0  0  0
   -0.7653   24.1871  -30.1701 H   0  0  0  0  0  0  0  0  0  0  0  0
    0.8382   23.3599  -28.4537 H   0  0  0  0  0  0  0  0  0  0  0  0
  1  2  1  0
  2  3  1  0
  3  4  2  0
  4  5  1  0
  5  6  2  0
  6  7  1  0
  7  8  1  0
  8  9  2  0
  9 10  1  0
 10 11  2  0
 11 12  1  0
 12 13  2  0
 12 14  1  0
 14 15  2  0
 15 16  1  0
 16 17  2  0
 17 18  1  0
 17 19  1  0
 19 20  2  0
 11 21  1  0
 21 22  2  0
  6 23  1  0
 23 24  2  0
 24  3  1  0
 22  8  1  0
 20 14  1  0
  1 25  1  0
  1 26  1  0
  1 27  1  0
  4 28  1  0
  5 29  1  0
  9 30  1  0
 10 31  1  0
 15 32  1  0
 16 33  1  0
 19 34  1  0
 20 35  1  0
 21 36  1  0
 22 37  1  0
 23 38  1  0
 24 39  1  0
M  END
>  <UniqueID>  (40) 
39

>  <SMILES>  (40) 
COc1ccc(Oc2ccc(C(=O)c3ccc(Br)cc3)cc2)cc1

>  <Energy>  (40) 
53.80259032625499

>  <Genealogy>  (40) 
COc1ccc(Oc2ccc(C(=O)c3ccc(Br)cc3)cc2)cc1 (3D coordinates assigned)
COc1ccc(Oc2ccc(C(=O)c3ccc(Br)cc3)cc2)cc1 (optimized conformer: 53.80259032625499 kcal/mol)

>  <smiles>  (40) 
COc1ccc(Oc2ccc(C(=O)c3ccc(Br)cc3)cc2)cc1

>  <score_type>  (40) 
oracle

>  <origin>  (40) 
adgpu

>  <m_score__min__energy>  (40) 
-9.2100000000000009

>  <m_primary>  (40) 
energy

$$$$
40:0
     RDKit          3D

 20 20  0  0  0  0  0  0  0  0999 V2000
   -7.3590   21.0080  -32.1300 C   0  0  0  0  0  0  0  0  0  0  0  0
   -6.3150   21.9580  -32.3210 O   0  0  0  0  0  0  0  0  0  0  0  0
   -6.0870   23.0620  -31.4860 C   0  0  0  0  0  0  0  0  0  0  0  0
   -7.1360   23.8060  -30.9160 C   0  0  0  0  0  0  0  0  0  0  0  0
   -6.8560   24.8970  -30.0900 C   0  0  0  0  0  0  0  0  0  0  0  0
   -5.5320   25.2560  -29.8260 C   0  0  0  0  0  0  0  0  0  0  0  0
   -4.4750   24.5280  -30.3840 C   0  0  0  0  0  0  0  0  0  0  0  0
   -3.1630   24.9280  -30.0900 O   0  0  0  0  0  0  0  0  0  0  0  0
   -2.2620   24.1900  -29.2720 C   0  0  0  0  0  0  0  0  0  0  0  0
   -4.7620   23.4280  -31.2170 C   0  0  0  0  0  0  0  0  0  0  0  0
   -7.5249   20.8570  -31.0531 H   0  0  0  0  0  0  0  0  0  0  0  0
   -8.2836   21.3809  -32.5947 H   0  0  0  0  0  0  0  0  0  0  0  0
   -7.0747   20.0524  -32.5947 H   0  0  0  0  0  0  0  0  0  0  0  0
   -8.1802   23.5277  -31.1215 H   0  0  0  0  0  0  0  0  0  0  0  0
   -7.6801   25.4749  -29.6463 H   0  0  0  0  0  0  0  0  0  0  0  0
   -5.3188   26.1167  -29.1751 H   0  0  0  0  0  0  0  0  0  0  0  0
   -2.4910   24.3776  -28.2126 H   0  0  0  0  0  0  0  0  0  0  0  0
   -2.3684   23.1162  -29.4856 H   0  0  0  0  0  0  0  0  0  0  0  0
   -1.2302   24.5058  -29.4856 H   0  0  0  0  0  0  0  0  0  0  0  0
   -3.9371   22.8510  -31.6604 H   0  0  0  0  0  0  0  0  0  0  0  0
  1  2  1  0
  2  3  1  0
  3  4  2  0
  4  5  1  0
  5  6  2  0
  6  7  1  0
  7  8  1  0
  8  9  1  0
  7 10  2  0
 10  3  1  0
  1 11  1  0
  1 12  1  0
  1 13  1  0
  4 14  1  0
  5 15  1  0
  6 16  1  0
  9 17  1  0
  9 18  1  0
  9 19  1  0
 10 20  1  0
M  END
>  <UniqueID>  (41) 
40

>  <SMILES>  (41) 
COc1cccc(OC)c1

>  <Energy>  (41) 
16.97551544509975

>  <Genealogy>  (41) 
COc1cccc(OC)c1 (3D coordinates assigned)
COc1cccc(OC)c1 (optimized conformer: 16.97551544509975 kcal/mol)

>  <smiles>  (41) 
COc1cccc(OC)c1

>  <score_type>  (41) 
oracle

>  <origin>  (41) 
adgpu

>  <m_score__min__energy>  (41) 
-4.1500000000000004

>  <m_primary>  (41) 
energy

$$$$
41:0
     RDKit          3D

 16 16  0  0  0  0  0  0  0  0999 V2000
   -8.1490   22.7850  -31.9610 C   0  0  0  0  0  0  0  0  0  0  0  0
   -9.4810   21.5510  -31.8630 S   0  0  0  0  0  0  0  0  0  0  0  0
   -8.4150   20.1870  -32.3350 C   0  0  0  0  0  0  0  0  0  0  0  0
   -7.2620   20.4270  -33.0920 C   0  0  0  0  0  0  0  0  0  0  0  0
   -6.4300   19.3620  -33.4560 C   0  0  0  0  0  0  0  0  0  0  0  0
   -6.7470   18.0600  -33.0610 C   0  0  0  0  0  0  0  0  0  0  0  0
   -7.8950   17.8180  -32.3020 C   0  0  0  0  0  0  0  0  0  0  0  0
   -8.7290   18.8800  -31.9360 C   0  0  0  0  0  0  0  0  0  0  0  0
   -7.8394   23.0718  -30.9452 H   0  0  0  0  0  0  0  0  0  0  0  0
   -7.2905   22.3560  -32.4986 H   0  0  0  0  0  0  0  0  0  0  0  0
   -8.5113   23.6737  -32.4986 H   0  0  0  0  0  0  0  0  0  0  0  0
   -7.0100   21.4523  -33.4006 H   0  0  0  0  0  0  0  0  0  0  0  0
   -5.5258   19.5503  -34.0535 H   0  0  0  0  0  0  0  0  0  0  0  0
   -6.0920   17.2242  -33.3479 H   0  0  0  0  0  0  0  0  0  0  0  0
   -8.1431   16.7921  -31.9921 H   0  0  0  0  0  0  0  0  0  0  0  0
   -9.6307   18.6897  -31.3354 H   0  0  0  0  0  0  0  0  0  0  0  0
  1  2  1  0
  2  3  1  0
  3  4  2  0
  4  5  1  0
  5  6  2  0
  6  7  1  0
  7  8  2  0
  8  3  1  0
  1  9  1  0
  1 10  1  0
  1 11  1  0
  4 12  1  0
  5 13  1  0
  6 14  1  0
  7 15  1  0
  8 16  1  0
M  END
>  <UniqueID>  (42) 
41

>  <SMILES>  (42) 
CSc1ccccc1

>  <Energy>  (42) 
10.139111805883712

>  <Genealogy>  (42) 
CSc1ccccc1 (3D coordinates assigned)
CSc1ccccc1 (optimized conformer: 10.139111805883712 kcal/mol)

>  <smiles>  (42) 
CSc1ccccc1

>  <score_type>  (42) 
oracle

>  <origin>  (42) 
adgpu

>  <m_score__min__energy>  (42) 
-4.3399999999999999

>  <m_primary>  (42) 
energy

$$$$
42:0
     RDKit          3D

 33 34  0  0  0  0  0  0  0  0999 V2000
   -7.1480   17.2450  -33.3990 C   0  0  0  0  0  0  0  0  0  0  0  0
   -6.4880   18.4650  -32.8430 C   0  0  0  0  0  0  0  0  0  0  0  0
   -5.4660   18.3360  -32.1160 O   0  0  0  0  0  0  0  0  0  0  0  0
   -6.9610   19.7670  -33.2180 N   0  0  0  0  0  0  0  0  0  0  0  0
   -6.5270   20.9920  -32.6000 C   0  0  0  0  0  0  0  0  0  0  0  0
   -5.1760   21.3790  -32.6050 C   0  0  0  0  0  0  0  0  0  0  0  0
   -4.7770   22.5590  -31.9710 C   0  0  0  0  0  0  0  0  0  0  0  0
   -5.7200   23.3600  -31.3130 C   0  0  0  0  0  0  0  0  0  0  0  0
   -5.2210   24.8360  -30.4930 S   0  0  0  0  0  0  0  0  0  0  0  0
   -5.7670   24.8230  -29.0930 O   0  0  0  0  0  0  0  0  0  0  0  0
   -5.7440   26.0490  -31.2130 O   0  0  0  0  0  0  0  0  0  0  0  0
   -3.4900   24.9220  -30.4260 N   0  0  0  0  0  0  0  0  0  0  0  0
   -2.6670   24.2440  -29.4670 C   0  0  0  0  0  0  0  0  0  0  0  0
   -1.5610   24.9200  -28.9360 C   0  0  0  0  0  0  0  0  0  0  0  0
   -0.7390   24.3010  -27.9890 C   0  0  0  0  0  0  0  0  0  0  0  0
   -1.0170   22.9990  -27.5650 C   0  0  0  0  0  0  0  0  0  0  0  0
   -2.1150   22.3120  -28.0930 C   0  0  0  0  0  0  0  0  0  0  0  0
   -2.4680   20.6800  -27.5550 Cl  0  0  0  0  0  0  0  0  0  0  0  0
   -2.9380   22.9290  -29.0430 C   0  0  0  0  0  0  0  0  0  0  0  0
   -7.0650   22.9720  -31.2960 C   0  0  0  0  0  0  0  0  0  0  0  0
   -7.4640   21.7910  -31.9270 C   0  0  0  0  0  0  0  0  0  0  0  0
   -7.4935   16.6063  -32.5728 H   0  0  0  0  0  0  0  0  0  0  0  0
   -8.0081   17.5427  -34.0167 H   0  0  0  0  0  0  0  0  0  0  0  0
   -6.4282   16.6880  -34.0167 H   0  0  0  0  0  0  0  0  0  0  0  0
   -7.6060   19.8320  -34.0370 H   0  0  0  0  0  0  0  0  0  0  0  0
   -4.4286   20.7499  -33.1106 H   0  0  0  0  0  0  0  0  0  0  0  0
   -3.7191   22.8600  -31.9886 H   0  0  0  0  0  0  0  0  0  0  0  0
   -1.3374   25.9451  -29.2663 H   0  0  0  0  0  0  0  0  0  0  0  0
    0.1273   24.8397  -27.5775 H   0  0  0  0  0  0  0  0  0  0  0  0
   -0.3728   22.5146  -26.8165 H   0  0  0  0  0  0  0  0  0  0  0  0
   -3.7986   22.3849  -29.4592 H   0  0  0  0  0  0  0  0  0  0  0  0
   -7.8100   23.5989  -30.7842 H   0  0  0  0  0  0  0  0  0  0  0  0
   -8.5202   21.4853  -31.8960 H   0  0  0  0  0  0  0  0  0  0  0  0
  1  2  1  0
  2  3  2  0
  2  4  1  0
  4  5  1  0
  5  6  2  0
  6  7  1  0
  7  8  2  0
  8  9  1  0
  9 10  2  0
  9 11  2  0
  9 12  1  0
 12 13  1  0
 13 14  2  0
 14 15  1  0
 15 16  2  0
 16 17  1  0
 17 18  1  0
 17 19  2  0
  8 20  1  0
 20 21  2  0
 21  5  1  0
 19 13  1  0
  1 22  1  0
  1 23  1  0
  1 24  1  0
  4 25  1  0
  6 26  1  0
  7 27  1  0
 14 28  1  0
 15 29  1  0
 16 30  1  0
 19 31  1  0
 20 32  1  0
 21 33  1  0
M  CHG  1  12  -1
M  END
>  <UniqueID>  (43) 
42

>  <SMILES>  (43) 
CC(=O)Nc1ccc(S(=O)(=O)[N-]c2cccc(Cl)c2)cc1

>  <Energy>  (43) 
37.76095753229909

>  <Genealogy>  (43) 
CC(=O)Nc1ccc(S(=O)(=O)[N-]c2cccc(Cl)c2)cc1 (protonated)
CC(=O)Nc1ccc(S(=O)(=O)[N-]c2cccc(Cl)c2)cc1 (3D coordinates assigned)
CC(=O)Nc1ccc(S(=O)(=O)[N-]c2cccc(Cl)c2)cc1 (optimized conformer: 37.76095753229909 kcal/mol)

>  <smiles>  (43) 
CC(=O)Nc1ccc(S(=O)(=O)Nc2cccc(Cl)c2)cc1

>  <score_type>  (43) 
oracle

>  <origin>  (43) 
adgpu

>  <m_score__min__energy>  (43) 
-9.3000000000000007

>  <m_primary>  (43) 
energy

$$$$
43:0
     RDKit          3D

 29 29  0  0  0  0  0  0  0  0999 V2000
   -6.7100   24.8170  -30.0640 C   0  0  0  0  0  0  0  0  0  0  0  0
   -5.4870   25.6340  -30.4650 C   0  0  0  0  0  0  0  0  0  0  0  0
   -4.5160   24.8050  -31.1030 O   0  0  0  0  0  0  0  0  0  0  0  0
   -4.6470   23.4170  -31.2200 C   0  0  0  0  0  0  0  0  0  0  0  0
   -4.3650   22.6630  -30.2500 O   0  0  0  0  0  0  0  0  0  0  0  0
   -5.1010   22.8620  -32.4600 N   0  0  0  0  0  0  0  0  0  0  0  0
   -5.3020   21.4270  -32.6540 C   0  0  0  0  0  0  0  0  0  0  0  0
   -6.7590   21.0620  -32.4590 C   0  0  0  0  0  0  0  0  0  0  0  0
   -7.6160   22.0350  -31.9130 C   0  0  0  0  0  0  0  0  0  0  0  0
   -8.9680   21.7580  -31.7040 C   0  0  0  0  0  0  0  0  0  0  0  0
   -9.4860   20.5100  -32.0430 C   0  0  0  0  0  0  0  0  0  0  0  0
   -8.6560   19.5360  -32.5980 C   0  0  0  0  0  0  0  0  0  0  0  0
   -7.2900   19.7950  -32.8180 C   0  0  0  0  0  0  0  0  0  0  0  0
   -6.4380   18.7190  -33.4380 C   0  0  0  0  0  0  0  0  0  0  0  0
   -6.7773   24.7720  -28.9670 H   0  0  0  0  0  0  0  0  0  0  0  0
   -7.6165   25.2916  -30.4678 H   0  0  0  0  0  0  0  0  0  0  0  0
   -6.6187   23.7979  -30.4678 H   0  0  0  0  0  0  0  0  0  0  0  0
   -5.7955   26.4294  -31.1594 H   0  0  0  0  0  0  0  0  0  0  0  0
   -5.0402   26.0711  -29.5598 H   0  0  0  0  0  0  0  0  0  0  0  0
   -5.2980   23.5100  -33.2550 H   0  0  0  0  0  0  0  0  0  0  0  0
   -4.9941   21.1534  -33.6740 H   0  0  0  0  0  0  0  0  0  0  0  0
   -4.6975   20.8809  -31.9148 H   0  0  0  0  0  0  0  0  0  0  0  0
   -7.2162   23.0249  -31.6479 H   0  0  0  0  0  0  0  0  0  0  0  0
   -9.6254   22.5263  -31.2710 H   0  0  0  0  0  0  0  0  0  0  0  0
  -10.5508   20.2924  -31.8728 H   0  0  0  0  0  0  0  0  0  0  0  0
   -9.0736   18.5545  -32.8668 H   0  0  0  0  0  0  0  0  0  0  0  0
   -5.9655   18.1223  -32.6438 H   0  0  0  0  0  0  0  0  0  0  0  0
   -7.0672   18.0668  -34.0615 H   0  0  0  0  0  0  0  0  0  0  0  0
   -5.6590   19.1819  -34.0615 H   0  0  0  0  0  0  0  0  0  0  0  0
  1  2  1  0
  2  3  1  0
  3  4  1  0
  4  5  2  0
  4  6  1  0
  6  7  1  0
  7  8  1  0
  8  9  2  0
  9 10  1  0
 10 11  2  0
 11 12  1  0
 12 13  2  0
 13 14  1  0
 13  8  1  0
  1 15  1  0
  1 16  1  0
  1 17  1  0
  2 18  1  0
  2 19  1  0
  6 20  1  0
  7 21  1  0
  7 22  1  0
  9 23  1  0
 10 24  1  0
 11 25  1  0
 12 26  1  0
 14 27  1  0
 14 28  1  0
 14 29  1  0
M  END
>  <UniqueID>  (44) 
43

>  <SMILES>  (44) 
CCOC(=O)NCc1ccccc1C

>  <Energy>  (44) 
21.710936922602453

>  <Genealogy>  (44) 
CCOC(=O)NCc1ccccc1C (3D coordinates assigned)
CCOC(=O)NCc1ccccc1C (optimized conformer: 21.710936922602453 kcal/mol)

>  <smiles>  (44) 
CCOC(=O)NCc1ccccc1C

>  <score_type>  (44) 
oracle

>  <origin>  (44) 
adgpu

>  <m_score__min__energy>  (44) 
-6.2800000000000002

>  <m_primary>  (44) 
energy

$$$$
44:0
     RDKit          3D

 34 35  0  0  0  0  0  0  0  0999 V2000
   -5.3730   26.4490  -29.0850 H   0  0  0  0  0  0  0  0  0  0  0  0
   -6.0360   26.1210  -29.7770 O   0  0  0  0  0  0  0  0  0  0  0  0
   -5.9320   24.8640  -30.3700 C   0  0  0  0  0  0  0  0  0  0  0  0
   -7.1030   24.1830  -30.7170 C   0  0  0  0  0  0  0  0  0  0  0  0
   -8.0816   24.6452  -30.5204 H   0  0  0  0  0  0  0  0  0  0  0  0
   -7.0400   22.9210  -31.3110 C   0  0  0  0  0  0  0  0  0  0  0  0
   -7.9685   22.3991  -31.5859 H   0  0  0  0  0  0  0  0  0  0  0  0
   -5.7960   22.3130  -31.5600 C   0  0  0  0  0  0  0  0  0  0  0  0
   -5.6750   20.9800  -32.2000 C   0  0  0  0  0  0  0  0  0  0  0  0
   -4.7045   20.4651  -32.1450 H   0  0  0  0  0  0  0  0  0  0  0  0
   -6.6790   20.3670  -32.8410 C   0  0  0  0  0  0  0  0  0  0  0  0
   -7.6571   20.8642  -32.9199 H   0  0  0  0  0  0  0  0  0  0  0  0
   -6.4890   19.0340  -33.4420 C   0  0  0  0  0  0  0  0  0  0  0  0
   -6.5127   18.9223  -34.5361 H   0  0  0  0  0  0  0  0  0  0  0  0
   -6.2880   17.9580  -32.6710 C   0  0  0  0  0  0  0  0  0  0  0  0
   -6.2609   18.1044  -31.5811 H   0  0  0  0  0  0  0  0  0  0  0  0
   -6.1000   16.5850  -33.1890 C   0  0  0  0  0  0  0  0  0  0  0  0
   -7.1050   16.0400  -33.9320 N   0  0  0  0  0  0  0  0  0  0  0  0
   -7.0310   14.7830  -34.4440 C   0  0  0  0  0  0  0  0  0  0  0  0
   -7.8626   14.3837  -35.0432 H   0  0  0  0  0  0  0  0  0  0  0  0
   -5.9010   13.9990  -34.2100 C   0  0  0  0  0  0  0  0  0  0  0  0
   -5.8331   12.9826  -34.6251 H   0  0  0  0  0  0  0  0  0  0  0  0
   -4.8590   14.5190  -33.4440 C   0  0  0  0  0  0  0  0  0  0  0  0
   -3.9639   13.9104  -33.2480 H   0  0  0  0  0  0  0  0  0  0  0  0
   -4.9510   15.8130  -32.9250 C   0  0  0  0  0  0  0  0  0  0  0  0
   -4.1335   16.2256  -32.3155 H   0  0  0  0  0  0  0  0  0  0  0  0
   -4.6210   23.0080  -31.2250 C   0  0  0  0  0  0  0  0  0  0  0  0
   -3.6426   22.5510  -31.4345 H   0  0  0  0  0  0  0  0  0  0  0  0
   -4.6780   24.2810  -30.6250 C   0  0  0  0  0  0  0  0  0  0  0  0
   -3.5190   24.9900  -30.2720 O   0  0  0  0  0  0  0  0  0  0  0  0
   -2.5580   24.5460  -29.3200 C   0  0  0  0  0  0  0  0  0  0  0  0
   -2.9400   24.7225  -28.3037 H   0  0  0  0  0  0  0  0  0  0  0  0
   -2.3724   23.4709  -29.4604 H   0  0  0  0  0  0  0  0  0  0  0  0
   -1.6190   25.1016  -29.4604 H   0  0  0  0  0  0  0  0  0  0  0  0
  1  2  1  0
  2  3  1  0
  3  4  2  0
  4  5  1  0
  4  6  1  0
  6  7  1  0
  6  8  2  0
  8  9  1  0
  9 10  1  0
  9 11  2  0
 11 12  1  0
 11 13  1  0
 13 14  1  0
 13 15  2  0
 15 16  1  0
 15 17  1  0
 17 18  2  0
 18 19  1  0
 19 20  1  0
 19 21  2  0
 21 22  1  0
 21 23  1  0
 23 24  1  0
 23 25  2  0
 25 26  1  0
  8 27  1  0
 27 28  1  0
 27 29  2  0
 29 30  1  0
 30 31  1  0
 31 32  1  0
 31 33  1  0
 31 34  1  0
 29  3  1  0
 25 17  1  0
M  END
>  <UniqueID>  (45) 
44

>  <SMILES>  (45) 
COc1cc(/C=C/C=C/c2ccccn2)ccc1O

>  <Energy>  (45) 
36.9651350987879

>  <Genealogy>  (45) 
COc1cc(/C=C/C=C/c2ccccn2)ccc1O (cis-trans isomerization)
COc1cc(/C=C/C=C/c2ccccn2)ccc1O (3D coordinates assigned)
COc1cc(/C=C/C=C/c2ccccn2)ccc1O (optimized conformer: 36.9651350987879 kcal/mol)

>  <smiles>  (45) 
COc1cc(C=CC=Cc2ccccn2)ccc1O

>  <score_type>  (45) 
oracle

>  <origin>  (45) 
adgpu

>  <m_score__min__energy>  (45) 
-7.0899999999999999

>  <m_primary>  (45) 
energy

$$$$
45:0
     RDKit          3D

 28 29  0  0  0  0  0  0  0  0999 V2000
   -9.0110   22.1950  -31.6200 C   0  0  0  0  0  0  0  0  0  0  0  0
   -7.5270   22.3980  -31.6880 C   0  0  0  0  0  0  0  0  0  0  0  0
   -6.7070   21.4240  -32.2770 C   0  0  0  0  0  0  0  0  0  0  0  0
   -5.3290   21.6320  -32.3780 C   0  0  0  0  0  0  0  0  0  0  0  0
   -4.7610   22.8140  -31.8990 C   0  0  0  0  0  0  0  0  0  0  0  0
   -5.5660   23.8030  -31.3080 C   0  0  0  0  0  0  0  0  0  0  0  0
   -4.9730   25.0670  -30.8090 C   0  0  0  0  0  0  0  0  0  0  0  0
   -5.6950   26.0960  -30.7250 O   0  0  0  0  0  0  0  0  0  0  0  0
   -3.5850   25.1730  -30.4670 N   0  0  0  0  0  0  0  0  0  0  0  0
   -2.9400   24.5540  -29.3450 C   0  0  0  0  0  0  0  0  0  0  0  0
   -3.6220   23.5530  -28.6400 C   0  0  0  0  0  0  0  0  0  0  0  0
   -3.0160   22.9190  -27.5500 C   0  0  0  0  0  0  0  0  0  0  0  0
   -1.7190   23.2710  -27.1670 C   0  0  0  0  0  0  0  0  0  0  0  0
   -1.0230   24.2520  -27.8800 C   0  0  0  0  0  0  0  0  0  0  0  0
   -1.6260   24.8880  -28.9690 C   0  0  0  0  0  0  0  0  0  0  0  0
   -6.9550   23.5940  -31.2250 C   0  0  0  0  0  0  0  0  0  0  0  0
   -9.3273   22.1517  -30.5673 H   0  0  0  0  0  0  0  0  0  0  0  0
   -9.5189   23.0320  -32.1214 H   0  0  0  0  0  0  0  0  0  0  0  0
   -9.2755   21.2523  -32.1214 H   0  0  0  0  0  0  0  0  0  0  0  0
   -7.1504   20.4933  -32.6607 H   0  0  0  0  0  0  0  0  0  0  0  0
   -4.6901   20.8626  -32.8360 H   0  0  0  0  0  0  0  0  0  0  0  0
   -3.6758   22.9724  -31.9847 H   0  0  0  0  0  0  0  0  0  0  0  0
   -4.6387   23.2644  -28.9451 H   0  0  0  0  0  0  0  0  0  0  0  0
   -3.5612   22.1423  -26.9937 H   0  0  0  0  0  0  0  0  0  0  0  0
   -1.2461   22.7769  -26.3055 H   0  0  0  0  0  0  0  0  0  0  0  0
    0.0008   24.5237  -27.5834 H   0  0  0  0  0  0  0  0  0  0  0  0
   -1.0715   25.6519  -29.5337 H   0  0  0  0  0  0  0  0  0  0  0  0
   -7.5987   24.3746  -30.7935 H   0  0  0  0  0  0  0  0  0  0  0  0
  1  2  1  0
  2  3  2  0
  3  4  1  0
  4  5  2  0
  5  6  1  0
  6  7  1  0
  7  8  2  0
  7  9  1  0
  9 10  1  0
 10 11  2  0
 11 12  1  0
 12 13  2  0
 13 14  1  0
 14 15  2  0
  6 16  2  0
 16  2  1  0
 15 10  1  0
  1 17  1  0
  1 18  1  0
  1 19  1  0
  3 20  1  0
  4 21  1  0
  5 22  1  0
 11 23  1  0
 12 24  1  0
 13 25  1  0
 14 26  1  0
 15 27  1  0
 16 28  1  0
M  CHG  1   9  -1
M  END
>  <UniqueID>  (46) 
45

>  <SMILES>  (46) 
Cc1cccc(C(=O)[N-]c2ccccc2)c1

>  <Energy>  (46) 
34.72496663959673

>  <Genealogy>  (46) 
Cc1cccc(C(=O)[N-]c2ccccc2)c1 (protonated)
Cc1cccc(C(=O)[N-]c2ccccc2)c1 (3D coordinates assigned)
Cc1cccc(C(=O)[N-]c2ccccc2)c1 (optimized conformer: 34.72496663959673 kcal/mol)

>  <smiles>  (46) 
Cc1cccc(C(=O)Nc2ccccc2)c1

>  <score_type>  (46) 
oracle

>  <origin>  (46) 
adgpu

>  <m_score__min__energy>  (46) 
-8.3100000000000005

>  <m_primary>  (46) 
energy

$$$$
46:0
     RDKit          3D

 39 41  0  0  0  0  0  0  0  0999 V2000
   -3.9690   24.5430  -27.6290 C   0  0  0  0  0  0  0  0  0  0  0  0
   -2.8010   24.7050  -28.9650 S   0  0  0  0  0  0  0  0  0  0  0  0
   -1.7180   25.6680  -28.5660 O   0  0  0  0  0  0  0  0  0  0  0  0
   -2.1830   23.3610  -29.2200 O   0  0  0  0  0  0  0  0  0  0  0  0
   -3.5670   25.2500  -30.4320 N   0  0  0  0  0  0  0  0  0  0  0  0
   -4.9550   24.7940  -30.5300 C   0  0  0  0  0  0  0  0  0  0  0  0
   -5.0390   23.4310  -31.1440 C   0  0  0  0  0  0  0  0  0  0  0  0
   -4.0390   22.8670  -31.8490 N   0  0  0  0  0  0  0  0  0  0  0  0
   -4.4090   21.6330  -32.1550 N   0  0  0  0  0  0  0  0  0  0  0  0
   -3.5470   20.7060  -32.8300 C   0  0  0  0  0  0  0  0  0  0  0  0
   -4.0950   19.8200  -33.7680 C   0  0  0  0  0  0  0  0  0  0  0  0
   -3.2740   18.9260  -34.4600 C   0  0  0  0  0  0  0  0  0  0  0  0
   -1.8980   18.9030  -34.2110 C   0  0  0  0  0  0  0  0  0  0  0  0
   -0.8690   17.7790  -35.0800 Cl  0  0  0  0  0  0  0  0  0  0  0  0
   -1.3460   19.7660  -33.2600 C   0  0  0  0  0  0  0  0  0  0  0  0
   -2.1630   20.6650  -32.5630 C   0  0  0  0  0  0  0  0  0  0  0  0
   -1.4370   21.6710  -31.3180 Cl  0  0  0  0  0  0  0  0  0  0  0  0
   -5.6340   21.3820  -31.6380 C   0  0  0  0  0  0  0  0  0  0  0  0
   -6.2950   20.0590  -31.6120 C   0  0  0  0  0  0  0  0  0  0  0  0
   -5.5320   18.9180  -31.3090 C   0  0  0  0  0  0  0  0  0  0  0  0
   -6.1300   17.6570  -31.2760 C   0  0  0  0  0  0  0  0  0  0  0  0
   -7.4920   17.5200  -31.5440 C   0  0  0  0  0  0  0  0  0  0  0  0
   -8.2610   18.6460  -31.8510 C   0  0  0  0  0  0  0  0  0  0  0  0
   -7.6720   19.9160  -31.8880 C   0  0  0  0  0  0  0  0  0  0  0  0
   -8.6730   21.2880  -32.3520 Cl  0  0  0  0  0  0  0  0  0  0  0  0
   -6.0660   22.5180  -30.9800 C   0  0  0  0  0  0  0  0  0  0  0  0
   -7.4890   22.7000  -29.9670 Cl  0  0  0  0  0  0  0  0  0  0  0  0
   -3.4392   24.6165  -26.6678 H   0  0  0  0  0  0  0  0  0  0  0  0
   -4.7178   25.3459  -27.6972 H   0  0  0  0  0  0  0  0  0  0  0  0
   -4.4710   23.5666  -27.6972 H   0  0  0  0  0  0  0  0  0  0  0  0
   -5.3928   24.7600  -29.5215 H   0  0  0  0  0  0  0  0  0  0  0  0
   -5.5066   25.4975  -31.1709 H   0  0  0  0  0  0  0  0  0  0  0  0
   -5.1780   19.8287  -33.9604 H   0  0  0  0  0  0  0  0  0  0  0  0
   -3.7101   18.2399  -35.2010 H   0  0  0  0  0  0  0  0  0  0  0  0
   -0.2650   19.7389  -33.0581 H   0  0  0  0  0  0  0  0  0  0  0  0
   -4.4575   19.0193  -31.0967 H   0  0  0  0  0  0  0  0  0  0  0  0
   -5.5256   16.7692  -31.0381 H   0  0  0  0  0  0  0  0  0  0  0  0
   -7.9610   16.5255  -31.5137 H   0  0  0  0  0  0  0  0  0  0  0  0
   -9.3342   18.5341  -32.0646 H   0  0  0  0  0  0  0  0  0  0  0  0
  1  2  1  0
  2  3  2  0
  2  4  2  0
  2  5  1  0
  5  6  1  0
  6  7  1  0
  7  8  2  0
  8  9  1  0
  9 10  1  0
 10 11  2  0
 11 12  1  0
 12 13  2  0
 13 14  1  0
 13 15  1  0
 15 16  2  0
 16 17  1  0
  9 18  1  0
 18 19  1  0
 19 20  2  0
 20 21  1  0
 21 22  2  0
 22 23  1  0
 23 24  2  0
 24 25  1  0
 18 26  2  0
 26 27  1  0
 26  7  1  0
 16 10  1  0
 24 19  1  0
  1 28  1  0
  1 29  1  0
  1 30  1  0
  6 31  1  0
  6 32  1  0
 11 33  1  0
 12 34  1  0
 15 35  1  0
 20 36  1  0
 21 37  1  0
 22 38  1  0
 23 39  1  0
M  CHG  1   5  -1
M  END
>  <UniqueID>  (47) 
46

>  <SMILES>  (47) 
CS(=O)(=O)[N-]Cc1nn(-c2ccc(Cl)cc2Cl)c(-c2ccccc2Cl)c1Cl

>  <Energy>  (47) 
78.88656778853125

>  <Genealogy>  (47) 
CS(=O)(=O)[N-]Cc1nn(-c2ccc(Cl)cc2Cl)c(-c2ccccc2Cl)c1Cl (protonated)
CS(=O)(=O)[N-]Cc1nn(-c2ccc(Cl)cc2Cl)c(-c2ccccc2Cl)c1Cl (3D coordinates assigned)
CS(=O)(=O)[N-]Cc1nn(-c2ccc(Cl)cc2Cl)c(-c2ccccc2Cl)c1Cl (optimized conformer: 78.88656778853125 kcal/mol)

>  <smiles>  (47) 
CS(=O)(=O)NCc1nn(-c2ccc(Cl)cc2Cl)c(-c2ccccc2Cl)c1Cl

>  <score_type>  (47) 
oracle

>  <origin>  (47) 
adgpu

>  <m_score__min__energy>  (47) 
-10.380000000000001

>  <m_primary>  (47) 
energy

$$$$
47:0
     RDKit          3D

 34 35  0  0  0  0  0  0  0  0999 V2000
   -3.6310   21.6970  -32.8390 C   0  0  0  0  0  0  0  0  0  0  0  0
   -5.0600   21.2260  -32.7880 C   0  0  0  0  0  0  0  0  0  0  0  0
   -5.4030   19.9820  -33.3390 C   0  0  0  0  0  0  0  0  0  0  0  0
   -6.7260   19.5440  -33.3210 C   0  0  0  0  0  0  0  0  0  0  0  0
   -7.7180   20.3330  -32.7410 C   0  0  0  0  0  0  0  0  0  0  0  0
   -7.4000   21.5760  -32.1720 C   0  0  0  0  0  0  0  0  0  0  0  0
   -8.4950   22.3740  -31.5140 C   0  0  0  0  0  0  0  0  0  0  0  0
   -6.0650   22.0470  -32.2350 C   0  0  0  0  0  0  0  0  0  0  0  0
   -5.7020   23.3310  -31.7060 N   0  0  0  0  0  0  0  0  0  0  0  0
   -5.3790   23.5660  -30.3310 C   0  0  0  0  0  0  0  0  0  0  0  0
   -6.1870   23.2270  -29.4250 O   0  0  0  0  0  0  0  0  0  0  0  0
   -4.1220   24.2560  -29.9880 C   0  0  0  0  0  0  0  0  0  0  0  0
   -3.8690   25.3620  -30.5360 O   0  0  0  0  0  0  0  0  0  0  0  0
   -3.1530   23.6850  -29.0210 C   0  0  0  0  0  0  0  0  0  0  0  0
   -3.2780   22.3480  -28.5990 C   0  0  0  0  0  0  0  0  0  0  0  0
   -2.3570   21.7960  -27.7030 C   0  0  0  0  0  0  0  0  0  0  0  0
   -2.5260   20.1280  -27.1890 Cl  0  0  0  0  0  0  0  0  0  0  0  0
   -1.2990   22.5710  -27.2240 C   0  0  0  0  0  0  0  0  0  0  0  0
   -1.1570   23.8950  -27.6400 C   0  0  0  0  0  0  0  0  0  0  0  0
   -2.0760   24.4590  -28.5370 C   0  0  0  0  0  0  0  0  0  0  0  0
   -1.9270   25.7880  -28.9360 O   0  0  0  0  0  0  0  0  0  0  0  0
   -3.2496   21.8227  -31.8149 H   0  0  0  0  0  0  0  0  0  0  0  0
   -3.0185   20.9532  -33.3697 H   0  0  0  0  0  0  0  0  0  0  0  0
   -3.5808   22.6592  -33.3697 H   0  0  0  0  0  0  0  0  0  0  0  0
   -4.6234   19.3489  -33.7877 H   0  0  0  0  0  0  0  0  0  0  0  0
   -6.9881   18.5727  -33.7658 H   0  0  0  0  0  0  0  0  0  0  0  0
   -8.7592   19.9783  -32.7291 H   0  0  0  0  0  0  0  0  0  0  0  0
   -8.3954   22.3014  -30.4209 H   0  0  0  0  0  0  0  0  0  0  0  0
   -8.4157   23.4275  -31.8203 H   0  0  0  0  0  0  0  0  0  0  0  0
   -9.4736   21.9758  -31.8203 H   0  0  0  0  0  0  0  0  0  0  0  0
   -4.1072   21.7321  -28.9772 H   0  0  0  0  0  0  0  0  0  0  0  0
   -0.5763   22.1369  -26.5175 H   0  0  0  0  0  0  0  0  0  0  0  0
   -0.3196   24.5001  -27.2624 H   0  0  0  0  0  0  0  0  0  0  0  0
   -2.7160   26.4240  -28.9690 H   0  0  0  0  0  0  0  0  0  0  0  0
  1  2  1  0
  2  3  2  0
  3  4  1  0
  4  5  2  0
  5  6  1  0
  6  7  1  0
  6  8  2  0
  8  9  1  0
  9 10  1  0
 10 11  2  0
 10 12  1  0
 12 13  2  0
 12 14  1  0
 14 15  2  0
 15 16  1  0
 16 17  1  0
 16 18  2  0
 18 19  1  0
 19 20  2  0
 20 21  1  0
  8  2  1  0
 20 14  1  0
  1 22  1  0
  1 23  1  0
  1 24  1  0
  3 25  1  0
  4 26  1  0
  5 27  1  0
  7 28  1  0
  7 29  1  0
  7 30  1  0
 15 31  1  0
 18 32  1  0
 19 33  1  0
 21 34  1  0
M  CHG  1   9  -1
M  END
>  <UniqueID>  (48) 
47

>  <SMILES>  (48) 
Cc1cccc(C)c1[N-]C(=O)C(=O)c1cc(Cl)ccc1O

>  <Energy>  (48) 
45.06152465532401

>  <Genealogy>  (48) 
Cc1cccc(C)c1[N-]C(=O)C(=O)c1cc(Cl)ccc1O (protonated)
Cc1cccc(C)c1[N-]C(=O)C(=O)c1cc(Cl)ccc1O (3D coordinates assigned)
Cc1cccc(C)c1[N-]C(=O)C(=O)c1cc(Cl)ccc1O (optimized conformer: 45.06152465532401 kcal/mol)

>  <smiles>  (48) 
Cc1cccc(C)c1NC(=O)C(=O)c1cc(Cl)ccc1O

>  <score_type>  (48) 
oracle

>  <origin>  (48) 
adgpu

>  <m_score__min__energy>  (48) 
-9.1199999999999992

>  <m_primary>  (48) 
energy

$$$$
