0:0
     RDKit          3D

 51 54  0  0  0  0  0  0  0  0999 V2000
   -0.5770   23.4360  -24.4280 C   0  0  0  0  0  0  0  0  0  0  0  0
   -0.7840   24.3260  -25.6190 C   0  0  0  0  0  0  0  0  0  0  0  0
   -0.3310   25.6500  -25.5950 C   0  0  0  0  0  0  0  0  0  0  0  0
   -0.4960   26.4670  -26.7140 C   0  0  0  0  0  0  0  0  0  0  0  0
   -1.0990   25.9700  -27.8720 C   0  0  0  0  0  0  0  0  0  0  0  0
   -1.2340   26.8170  -28.9680 O   0  0  0  0  0  0  0  0  0  0  0  0
   -1.5460   24.6310  -27.9240 C   0  0  0  0  0  0  0  0  0  0  0  0
   -2.1900   24.0810  -29.1470 C   0  0  0  0  0  0  0  0  0  0  0  0
   -1.8850   22.8850  -29.7780 C   0  0  0  0  0  0  0  0  0  0  0  0
   -2.7530   22.8400  -30.8500 C   0  0  0  0  0  0  0  0  0  0  0  0
   -2.8400   21.7800  -31.8690 C   0  0  0  0  0  0  0  0  0  0  0  0
   -2.3130   21.9740  -32.9980 O   0  0  0  0  0  0  0  0  0  0  0  0
   -3.5490   20.5580  -31.6030 N   0  0  0  0  0  0  0  0  0  0  0  0
   -3.4120   19.3640  -32.3910 C   0  0  0  0  0  0  0  0  0  0  0  0
   -4.5150   18.7830  -33.0420 C   0  0  0  0  0  0  0  0  0  0  0  0
   -4.3510   17.6360  -33.8240 C   0  0  0  0  0  0  0  0  0  0  0  0
   -3.0810   17.0620  -33.9800 C   0  0  0  0  0  0  0  0  0  0  0  0
   -2.8710   15.6240  -34.9850 S   0  0  0  0  0  0  0  0  0  0  0  0
   -1.4420   15.5460  -35.4450 O   0  0  0  0  0  0  0  0  0  0  0  0
   -3.7460   15.7400  -36.2020 O   0  0  0  0  0  0  0  0  0  0  0  0
   -3.2820   14.1630  -34.1160 N   0  0  0  0  0  0  0  0  0  0  0  0
   -2.2630   13.8690  -33.0900 C   0  0  0  0  0  0  0  0  0  0  0  0
   -2.8340   12.9300  -32.0140 C   0  0  0  0  0  0  0  0  0  0  0  0
   -3.9590   13.4590  -31.3220 O   0  0  0  0  0  0  0  0  0  0  0  0
   -4.6650   14.4550  -32.0490 C   0  0  0  0  0  0  0  0  0  0  0  0
   -4.6560   14.2180  -33.5700 C   0  0  0  0  0  0  0  0  0  0  0  0
   -1.9790   17.6450  -33.3420 C   0  0  0  0  0  0  0  0  0  0  0  0
   -2.1420   18.7930  -32.5610 C   0  0  0  0  0  0  0  0  0  0  0  0
   -3.5220   23.9440  -30.8570 N   0  0  0  0  0  0  0  0  0  0  0  0
   -3.1820   24.6960  -29.8220 N   0  0  0  0  0  0  0  0  0  0  0  0
   -1.3750   23.8170  -26.7850 C   0  0  0  0  0  0  0  0  0  0  0  0
   -0.7128   24.0200  -23.5058 H   0  0  0  0  0  0  0  0  0  0  0  0
   -1.3080   22.6144  -24.4527 H   0  0  0  0  0  0  0  0  0  0  0  0
    0.4416   23.0214  -24.4527 H   0  0  0  0  0  0  0  0  0  0  0  0
    0.1560   26.0473  -24.6923 H   0  0  0  0  0  0  0  0  0  0  0  0
   -0.1487   27.5103  -26.6841 H   0  0  0  0  0  0  0  0  0  0  0  0
   -1.1259   22.1427  -29.4905 H   0  0  0  0  0  0  0  0  0  0  0  0
   -4.2790   20.5650  -30.8560 H   0  0  0  0  0  0  0  0  0  0  0  0
   -5.5127   19.2338  -32.9352 H   0  0  0  0  0  0  0  0  0  0  0  0
   -5.2219   17.1817  -34.3192 H   0  0  0  0  0  0  0  0  0  0  0  0
   -1.3972   13.3872  -33.5679 H   0  0  0  0  0  0  0  0  0  0  0  0
   -1.9580   14.8118  -32.6125 H   0  0  0  0  0  0  0  0  0  0  0  0
   -3.1371   11.9909  -32.5000 H   0  0  0  0  0  0  0  0  0  0  0  0
   -2.0407   12.7832  -31.2663 H   0  0  0  0  0  0  0  0  0  0  0  0
   -5.7092   14.4657  -31.7032 H   0  0  0  0  0  0  0  0  0  0  0  0
   -4.1584   15.4139  -31.8651 H   0  0  0  0  0  0  0  0  0  0  0  0
   -5.1611   13.2644  -33.7835 H   0  0  0  0  0  0  0  0  0  0  0  0
   -5.1770   15.0609  -34.0475 H   0  0  0  0  0  0  0  0  0  0  0  0
   -0.9806   17.1976  -33.4559 H   0  0  0  0  0  0  0  0  0  0  0  0
   -1.2678   19.2520  -32.0761 H   0  0  0  0  0  0  0  0  0  0  0  0
   -1.7094   22.7694  -26.8113 H   0  0  0  0  0  0  0  0  0  0  0  0
  1  2  1  0
  2  3  2  0
  3  4  1  0
  4  5  2  0
  5  6  1  0
  5  7  1  0
  7  8  1  0
  8  9  2  0
  9 10  1  0
 10 11  1  0
 11 12  2  0
 11 13  1  0
 13 14  1  0
 14 15  2  0
 15 16  1  0
 16 17  2  0
 17 18  1  0
 18 19  2  0
 18 20  2  0
 18 21  1  0
 21 22  1  0
 22 23  1  0
 23 24  1  0
 24 25  1  0
 25 26  1  0
 17 27  1  0
 27 28  2  0
 10 29  2  0
 29 30  1  0
  7 31  2  0
 31  2  1  0
 30  8  1  0
 28 14  1  0
 26 21  1  0
  1 32  1  0
  1 33  1  0
  1 34  1  0
  3 35  1  0
  4 36  1  0
  9 37  1  0
 13 38  1  0
 15 39  1  0
 16 40  1  0
 22 41  1  0
 22 42  1  0
 23 43  1  0
 23 44  1  0
 25 45  1  0
 25 46  1  0
 26 47  1  0
 26 48  1  0
 27 49  1  0
 28 50  1  0
 31 51  1  0
M  CHG  2   6  -1  30  -1
M  END
>  <UniqueID>  (1) 
1

>  <SMILES>  (1) 
Cc1ccc([O-])c(-c2cc(C(=O)Nc3ccc(S(=O)(=O)N4CCOCC4)cc3)n[n-]2)c1

>  <Energy>  (1) 
101.12305384399706

>  <Genealogy>  (1) 
Cc1ccc([O-])c(-c2cc(C(=O)Nc3ccc(S(=O)(=O)N4CCOCC4)cc3)n[n-]2)c1 (protonated)
Cc1ccc([O-])c(-c2cc(C(=O)Nc3ccc(S(=O)(=O)N4CCOCC4)cc3)n[n-]2)c1 (3D coordinates assigned)
Cc1ccc([O-])c(-c2cc(C(=O)Nc3ccc(S(=O)(=O)N4CCOCC4)cc3)n[n-]2)c1 (nonaromatic ring conformer: 101.12305384399706 kcal/mol)

>  <smiles>  (1) 
Cc1ccc(O)c(-c2cc(C(=O)Nc3ccc(S(=O)(=O)N4CCOCC4)cc3)n[nH]2)c1

>  <score_type>  (1) 
oracle

>  <origin>  (1) 
adgpu

>  <m_score__min__energy>  (1) 
-12.23

>  <m_primary>  (1) 
energy

$$$$
1:0
     RDKit          3D

 61 64  0  0  0  0  0  0  0  0999 V2000
   -5.7194   15.6759  -34.7831 H   0  0  0  0  0  0  0  0  0  0  0  0
   -5.5370   16.5900  -34.1990 C   0  0  0  0  0  0  0  0  0  0  0  0
   -6.5720   17.1590  -33.4540 C   0  0  0  0  0  0  0  0  0  0  0  0
   -7.5647   16.6852  -33.4468 H   0  0  0  0  0  0  0  0  0  0  0  0
   -6.3540   18.3290  -32.7160 C   0  0  0  0  0  0  0  0  0  0  0  0
   -7.4410   18.8720  -31.9530 N   0  0  0  0  0  0  0  0  0  0  0  0
   -8.0470   20.1610  -32.1250 C   0  0  0  0  0  0  0  0  0  0  0  0
   -9.2650   20.2480  -32.4440 O   0  0  0  0  0  0  0  0  0  0  0  0
   -7.2600   21.3920  -31.8740 C   0  0  0  0  0  0  0  0  0  0  0  0
   -7.7400   22.6430  -32.2910 C   0  0  0  0  0  0  0  0  0  0  0  0
   -8.7130   22.7119  -32.7994 H   0  0  0  0  0  0  0  0  0  0  0  0
   -6.9930   23.8010  -32.0660 C   0  0  0  0  0  0  0  0  0  0  0  0
   -7.3818   24.7737  -32.4018 H   0  0  0  0  0  0  0  0  0  0  0  0
   -5.7480   23.7360  -31.4140 C   0  0  0  0  0  0  0  0  0  0  0  0
   -4.9710   24.8850  -31.1950 O   0  0  0  0  0  0  0  0  0  0  0  0
   -5.3850   26.0090  -30.4250 C   0  0  0  0  0  0  0  0  0  0  0  0
   -5.2978   25.7722  -29.3543 H   0  0  0  0  0  0  0  0  0  0  0  0
   -4.7457   26.8720  -30.6629 H   0  0  0  0  0  0  0  0  0  0  0  0
   -6.4313   26.2511  -30.6629 H   0  0  0  0  0  0  0  0  0  0  0  0
   -5.2670   22.4840  -30.9790 C   0  0  0  0  0  0  0  0  0  0  0  0
   -3.7020   22.3220  -30.1650 S   0  0  0  0  0  0  0  0  0  0  0  0
   -2.6210   22.5460  -31.1860 O   0  0  0  0  0  0  0  0  0  0  0  0
   -3.5350   20.9360  -29.6080 O   0  0  0  0  0  0  0  0  0  0  0  0
   -3.5520   23.5220  -28.8960 N   0  0  0  0  0  0  0  0  0  0  0  0
   -3.4840   22.9080  -27.5570 C   0  0  0  0  0  0  0  0  0  0  0  0
   -3.6868   23.6827  -26.8029 H   0  0  0  0  0  0  0  0  0  0  0  0
   -4.2320   22.1023  -27.5202 H   0  0  0  0  0  0  0  0  0  0  0  0
   -2.1000   22.2790  -27.2630 C   0  0  0  0  0  0  0  0  0  0  0  0
   -1.7995   22.5594  -26.2427 H   0  0  0  0  0  0  0  0  0  0  0  0
   -2.2068   21.1906  -27.3815 H   0  0  0  0  0  0  0  0  0  0  0  0
   -1.0880   22.6990  -28.1600 O   0  0  0  0  0  0  0  0  0  0  0  0
   -1.1630   24.0930  -28.3540 C   0  0  0  0  0  0  0  0  0  0  0  0
   -1.1911   24.5945  -27.3754 H   0  0  0  0  0  0  0  0  0  0  0  0
   -0.2805   24.4230  -28.9217 H   0  0  0  0  0  0  0  0  0  0  0  0
   -2.4310   24.4550  -29.1460 C   0  0  0  0  0  0  0  0  0  0  0  0
   -2.7471   25.4686  -28.8583 H   0  0  0  0  0  0  0  0  0  0  0  0
   -2.1814   24.3921  -30.2155 H   0  0  0  0  0  0  0  0  0  0  0  0
   -6.0190   21.3260  -31.2190 C   0  0  0  0  0  0  0  0  0  0  0  0
   -5.6316   20.3506  -30.8895 H   0  0  0  0  0  0  0  0  0  0  0  0
   -5.0690   18.9020  -32.6980 C   0  0  0  0  0  0  0  0  0  0  0  0
   -4.8786   19.7988  -32.0901 H   0  0  0  0  0  0  0  0  0  0  0  0
   -4.0290   18.3360  -33.4510 C   0  0  0  0  0  0  0  0  0  0  0  0
   -2.4180   19.0500  -33.4370 S   0  0  0  0  0  0  0  0  0  0  0  0
   -1.3890   17.9710  -33.6220 O   0  0  0  0  0  0  0  0  0  0  0  0
   -2.2780   20.0210  -34.5750 O   0  0  0  0  0  0  0  0  0  0  0  0
   -2.1850   19.9160  -31.9450 N   0  0  0  0  0  0  0  0  0  0  0  0
   -2.9790   20.5170  -31.6340 H   0  0  0  0  0  0  0  0  0  0  0  0
   -1.1240   19.8470  -31.1900 C   0  0  0  0  0  0  0  0  0  0  0  0
   -1.0190   20.5720  -29.9820 N   0  0  0  0  0  0  0  0  0  0  0  0
   -1.7380   21.2360  -29.6170 H   0  0  0  0  0  0  0  0  0  0  0  0
    0.2700   20.3450  -29.3650 C   0  0  0  0  0  0  0  0  0  0  0  0
    0.1422   19.9947  -28.3301 H   0  0  0  0  0  0  0  0  0  0  0  0
    0.8662   21.2686  -29.3250 H   0  0  0  0  0  0  0  0  0  0  0  0
    0.9610   19.2640  -30.2140 C   0  0  0  0  0  0  0  0  0  0  0  0
    1.0239   18.3229  -29.6479 H   0  0  0  0  0  0  0  0  0  0  0  0
    1.9840   19.5695  -30.4789 H   0  0  0  0  0  0  0  0  0  0  0  0
    0.1070   19.0640  -31.4750 C   0  0  0  0  0  0  0  0  0  0  0  0
   -0.1298   18.0002  -31.6246 H   0  0  0  0  0  0  0  0  0  0  0  0
    0.6176   19.3889  -32.3935 H   0  0  0  0  0  0  0  0  0  0  0  0
   -4.2710   17.1790  -34.2040 C   0  0  0  0  0  0  0  0  0  0  0  0
   -3.4613   16.7336  -34.8007 H   0  0  0  0  0  0  0  0  0  0  0  0
  1  2  1  0
  2  3  2  0
  3  4  1  0
  3  5  1  0
  5  6  1  0
  6  7  1  0
  7  8  2  0
  7  9  1  0
  9 10  2  0
 10 11  1  0
 10 12  1  0
 12 13  1  0
 12 14  2  0
 14 15  1  0
 15 16  1  0
 16 17  1  0
 16 18  1  0
 16 19  1  0
 14 20  1  0
 20 21  1  0
 21 22  2  0
 21 23  2  0
 21 24  1  0
 24 25  1  0
 25 26  1  0
 25 27  1  0
 25 28  1  0
 28 29  1  0
 28 30  1  0
 28 31  1  0
 31 32  1  0
 32 33  1  0
 32 34  1  0
 32 35  1  0
 35 36  1  0
 35 37  1  0
 20 38  2  0
 38 39  1  0
  5 40  2  0
 40 41  1  0
 40 42  1  0
 42 43  1  0
 43 44  2  0
 43 45  2  0
 43 46  1  0
 46 47  1  0
 46 48  2  0
 48 49  1  0
 49 50  1  0
 49 51  1  0
 51 52  1  0
 51 53  1  0
 51 54  1  0
 54 55  1  0
 54 56  1  0
 54 57  1  0
 57 58  1  0
 57 59  1  0
 42 60  2  0
 60 61  1  0
 60  2  1  0
 38  9  1  0
 57 48  1  0
 35 24  1  0
M  CHG  2   6  -1  46   1
M  END
>  <UniqueID>  (2) 
2

>  <SMILES>  (2) 
COc1ccc(C(=O)[N-]c2cccc(S(=O)(=O)/[NH+]=C3\CCCN3)c2)cc1S(=O)(=O)N1CCOCC1

>  <Energy>  (2) 
88.50050410854345

>  <Genealogy>  (2) 
COc1ccc(C(=O)[N-]c2cccc(S(=O)(=O)[NH+]=C3CCCN3)c2)cc1S(=O)(=O)N1CCOCC1 (protonated)
COc1ccc(C(=O)[N-]c2cccc(S(=O)(=O)/[NH+]=C3\CCCN3)c2)cc1S(=O)(=O)N1CCOCC1 (cis-trans isomerization)
COc1ccc(C(=O)[N-]c2cccc(S(=O)(=O)/[NH+]=C3\CCCN3)c2)cc1S(=O)(=O)N1CCOCC1 (3D coordinates assigned)
COc1ccc(C(=O)[N-]c2cccc(S(=O)(=O)/[NH+]=C3\CCCN3)c2)cc1S(=O)(=O)N1CCOCC1 (nonaromatic ring conformer: 88.50050410854345 kcal/mol)

>  <smiles>  (2) 
COc1ccc(C(=O)Nc2cccc(S(=O)(=O)N=C3CCCN3)c2)cc1S(=O)(=O)N1CCOCC1

>  <score_type>  (2) 
oracle

>  <origin>  (2) 
adgpu

>  <m_score__min__energy>  (2) 
-13.1

>  <m_primary>  (2) 
energy

$$$$
2:0
     RDKit          3D

 62 66  0  0  0  0  0  0  0  0999 V2000
   -1.9134   20.0997  -29.8251 H   0  0  0  0  0  0  0  0  0  0  0  0
   -1.0640   20.5960  -29.3330 C   0  0  0  0  0  0  0  0  0  0  0  0
    0.0490   19.9460  -29.1780 N   0  0  0  0  0  0  0  0  0  0  0  0
    0.2480   18.6180  -29.6020 N   0  0  0  0  0  0  0  0  0  0  0  0
    0.5000   17.5680  -28.8090 C   0  0  0  0  0  0  0  0  0  0  0  0
    0.5862   17.6162  -27.7134 H   0  0  0  0  0  0  0  0  0  0  0  0
    0.6330   16.4450  -29.5410 N   0  0  0  0  0  0  0  0  0  0  0  0
    0.4700   16.7860  -30.8140 N   0  0  0  0  0  0  0  0  0  0  0  0
    0.2440   18.1130  -30.8470 C   0  0  0  0  0  0  0  0  0  0  0  0
    0.0796   18.6999  -31.7627 H   0  0  0  0  0  0  0  0  0  0  0  0
   -1.2140   21.9920  -28.8610 C   0  0  0  0  0  0  0  0  0  0  0  0
   -0.6780   22.3160  -27.6040 C   0  0  0  0  0  0  0  0  0  0  0  0
   -0.1761   21.5377  -27.0104 H   0  0  0  0  0  0  0  0  0  0  0  0
   -0.7740   23.6100  -27.1000 C   0  0  0  0  0  0  0  0  0  0  0  0
   -0.0770   23.9960  -25.5370 Cl  0  0  0  0  0  0  0  0  0  0  0  0
   -1.4410   24.5930  -27.8280 C   0  0  0  0  0  0  0  0  0  0  0  0
   -1.5145   25.6144  -27.4264 H   0  0  0  0  0  0  0  0  0  0  0  0
   -2.0170   24.2910  -29.0640 C   0  0  0  0  0  0  0  0  0  0  0  0
   -2.7330   25.2940  -29.7070 O   0  0  0  0  0  0  0  0  0  0  0  0
   -1.8910   22.9860  -29.6130 C   0  0  0  0  0  0  0  0  0  0  0  0
   -2.4290   22.6180  -30.8640 O   0  0  0  0  0  0  0  0  0  0  0  0
   -1.7850   21.9120  -31.9230 C   0  0  0  0  0  0  0  0  0  0  0  0
   -0.7430   21.7076  -31.6360 H   0  0  0  0  0  0  0  0  0  0  0  0
   -1.8234   22.5340  -32.8295 H   0  0  0  0  0  0  0  0  0  0  0  0
   -2.4800   20.6070  -32.2110 C   0  0  0  0  0  0  0  0  0  0  0  0
   -1.8540   19.6390  -33.0100 C   0  0  0  0  0  0  0  0  0  0  0  0
   -0.8502   19.8301  -33.4172 H   0  0  0  0  0  0  0  0  0  0  0  0
   -2.5000   18.4350  -33.2900 C   0  0  0  0  0  0  0  0  0  0  0  0
   -1.9971   17.6766  -33.9080 H   0  0  0  0  0  0  0  0  0  0  0  0
   -3.7850   18.1840  -32.7900 C   0  0  0  0  0  0  0  0  0  0  0  0
   -4.4450   16.9050  -33.1180 C   0  0  0  0  0  0  0  0  0  0  0  0
   -4.1990   15.9230  -32.3650 O   0  0  0  0  0  0  0  0  0  0  0  0
   -5.3510   16.7260  -34.2470 N   0  0  0  0  0  0  0  0  0  0  0  0
   -5.0040   15.8990  -34.7890 H   0  0  0  0  0  0  0  0  0  0  0  0
   -6.7160   16.4130  -33.7930 C   0  0  0  0  0  0  0  0  0  0  0  0
   -7.3569   16.2547  -34.6729 H   0  0  0  0  0  0  0  0  0  0  0  0
   -6.6710   15.5075  -33.1701 H   0  0  0  0  0  0  0  0  0  0  0  0
   -7.3060   17.5470  -32.9460 C   0  0  0  0  0  0  0  0  0  0  0  0
   -8.3973   17.4160  -32.9032 H   0  0  0  0  0  0  0  0  0  0  0  0
   -6.8348   17.4841  -31.9540 H   0  0  0  0  0  0  0  0  0  0  0  0
   -7.0190   18.8990  -33.4740 N   0  0  0  0  0  0  0  0  0  0  0  0
   -7.6090   20.0550  -32.8060 C   0  0  0  0  0  0  0  0  0  0  0  0
   -8.9250   20.0070  -32.2870 C   0  0  0  0  0  0  0  0  0  0  0  0
   -9.5164   19.0858  -32.3952 H   0  0  0  0  0  0  0  0  0  0  0  0
   -9.4850   21.1120  -31.6390 C   0  0  0  0  0  0  0  0  0  0  0  0
  -10.5077   21.0525  -31.2385 H   0  0  0  0  0  0  0  0  0  0  0  0
   -8.7520   22.2880  -31.4990 C   0  0  0  0  0  0  0  0  0  0  0  0
   -9.1972   23.1578  -30.9937 H   0  0  0  0  0  0  0  0  0  0  0  0
   -7.4540   22.3610  -32.0000 C   0  0  0  0  0  0  0  0  0  0  0  0
   -6.8726   23.2874  -31.8826 H   0  0  0  0  0  0  0  0  0  0  0  0
   -6.8880   21.2620  -32.6510 C   0  0  0  0  0  0  0  0  0  0  0  0
   -5.8654   21.3366  -33.0494 H   0  0  0  0  0  0  0  0  0  0  0  0
   -6.0730   19.1270  -34.5900 C   0  0  0  0  0  0  0  0  0  0  0  0
   -6.6137   19.6517  -35.3915 H   0  0  0  0  0  0  0  0  0  0  0  0
   -5.2390   19.7062  -34.1670 H   0  0  0  0  0  0  0  0  0  0  0  0
   -5.4440   17.8550  -35.1940 C   0  0  0  0  0  0  0  0  0  0  0  0
   -6.0571   17.5388  -36.0508 H   0  0  0  0  0  0  0  0  0  0  0  0
   -4.4150   18.1143  -35.4838 H   0  0  0  0  0  0  0  0  0  0  0  0
   -4.4470   19.1810  -32.0560 C   0  0  0  0  0  0  0  0  0  0  0  0
   -5.4804   19.0192  -31.7154 H   0  0  0  0  0  0  0  0  0  0  0  0
   -3.7910   20.3810  -31.7580 C   0  0  0  0  0  0  0  0  0  0  0  0
   -4.3049   21.1522  -31.1654 H   0  0  0  0  0  0  0  0  0  0  0  0
  1  2  1  0
  2  3  2  0
  3  4  1  0
  4  5  1  0
  5  6  1  0
  5  7  2  0
  7  8  1  0
  8  9  2  0
  9 10  1  0
  2 11  1  0
 11 12  2  0
 12 13  1  0
 12 14  1  0
 14 15  1  0
 14 16  2  0
 16 17  1  0
 16 18  1  0
 18 19  1  0
 18 20  2  0
 20 21  1  0
 21 22  1  0
 22 23  1  0
 22 24  1  0
 22 25  1  0
 25 26  2  0
 26 27  1  0
 26 28  1  0
 28 29  1  0
 28 30  2  0
 30 31  1  0
 31 32  2  0
 31 33  1  0
 33 34  1  0
 33 35  1  0
 35 36  1  0
 35 37  1  0
 35 38  1  0
 38 39  1  0
 38 40  1  0
 38 41  1  0
 41 42  1  0
 42 43  2  0
 43 44  1  0
 43 45  1  0
 45 46  1  0
 45 47  2  0
 47 48  1  0
 47 49  1  0
 49 50  1  0
 49 51  2  0
 51 52  1  0
 41 53  1  0
 53 54  1  0
 53 55  1  0
 53 56  1  0
 56 57  1  0
 56 58  1  0
 30 59  1  0
 59 60  1  0
 59 61  2  0
 61 62  1  0
  9  4  1  0
 20 11  1  0
 61 25  1  0
 56 33  1  0
 51 42  1  0
M  CHG  2  19  -1  33   1
M  END
>  <UniqueID>  (3) 
3

>  <SMILES>  (3) 
O=C(c1ccc(COc2c([O-])cc(Cl)cc2/C=N/n2cnnc2)cc1)[NH+]1CCN(c2ccccc2)CC1

>  <Energy>  (3) 
130.30782838882385

>  <Genealogy>  (3) 
O=C(c1ccc(COc2c([O-])cc(Cl)cc2C=Nn2cnnc2)cc1)[NH+]1CCN(c2ccccc2)CC1 (protonated)
O=C(c1ccc(COc2c([O-])cc(Cl)cc2/C=N/n2cnnc2)cc1)[NH+]1CCN(c2ccccc2)CC1 (cis-trans isomerization)
O=C(c1ccc(COc2c([O-])cc(Cl)cc2/C=N/n2cnnc2)cc1)[NH+]1CCN(c2ccccc2)CC1 (3D coordinates assigned)
O=C(c1ccc(COc2c([O-])cc(Cl)cc2/C=N/n2cnnc2)cc1)[NH+]1CCN(c2ccccc2)CC1 (nonaromatic ring conformer: 130.30782838882385 kcal/mol)

>  <smiles>  (3) 
O=C(c1ccc(COc2c(O)cc(Cl)cc2C=Nn2cnnc2)cc1)N1CCN(c2ccccc2)CC1

>  <score_type>  (3) 
oracle

>  <origin>  (3) 
adgpu

>  <m_score__min__energy>  (3) 
-11.789999999999999

>  <m_primary>  (3) 
energy

$$$$
3:0
     RDKit          3D

 48 51  0  0  0  0  0  0  0  0999 V2000
   -3.8750   25.2900  -30.5530 O   0  0  0  0  0  0  0  0  0  0  0  0
   -4.4190   24.3490  -29.9130 C   0  0  0  0  0  0  0  0  0  0  0  0
   -3.9020   23.9670  -28.5320 C   0  0  0  0  0  0  0  0  0  0  0  0
   -2.4770   24.5120  -28.2470 C   0  0  0  0  0  0  0  0  0  0  0  0
   -1.3950   23.8320  -29.1150 C   0  0  0  0  0  0  0  0  0  0  0  0
   -1.8250   22.4890  -29.5270 N   0  0  0  0  0  0  0  0  0  0  0  0
   -1.6510   22.0560  -30.8900 C   0  0  0  0  0  0  0  0  0  0  0  0
   -2.6570   22.0150  -31.7910 N   0  0  0  0  0  0  0  0  0  0  0  0
   -2.2850   21.5350  -32.9760 N   0  0  0  0  0  0  0  0  0  0  0  0
   -0.9810   21.1840  -33.0260 C   0  0  0  0  0  0  0  0  0  0  0  0
   -0.3610   20.6400  -34.2020 N   0  0  0  0  0  0  0  0  0  0  0  0
   -0.4190   19.2350  -34.5640 C   0  0  0  0  0  0  0  0  0  0  0  0
    0.3300   19.1010  -35.9040 C   0  0  0  0  0  0  0  0  0  0  0  0
    0.8840   20.4890  -36.2630 C   0  0  0  0  0  0  0  0  0  0  0  0
    0.3900   21.3490  -35.1720 C   0  0  0  0  0  0  0  0  0  0  0  0
    0.6190   22.5860  -35.1080 O   0  0  0  0  0  0  0  0  0  0  0  0
   -0.2130   21.4650  -31.5490 S   0  0  0  0  0  0  0  0  0  0  0  0
   -2.6270   21.7170  -28.5770 C   0  0  0  0  0  0  0  0  0  0  0  0
   -3.9660   22.4270  -28.3200 C   0  0  0  0  0  0  0  0  0  0  0  0
   -5.4970   23.6210  -30.5310 N   0  0  0  0  0  0  0  0  0  0  0  0
   -5.3430   23.1830  -31.9240 C   0  0  0  0  0  0  0  0  0  0  0  0
   -6.7140   22.9950  -32.5760 C   0  0  0  0  0  0  0  0  0  0  0  0
   -7.5400   22.1720  -31.7770 O   0  0  0  0  0  0  0  0  0  0  0  0
   -7.8280   22.8310  -30.5580 C   0  0  0  0  0  0  0  0  0  0  0  0
   -6.5570   23.0100  -29.7210 C   0  0  0  0  0  0  0  0  0  0  0  0
   -4.5700   24.4490  -27.8030 H   0  0  0  0  0  0  0  0  0  0  0  0
   -2.4656   25.5925  -28.4527 H   0  0  0  0  0  0  0  0  0  0  0  0
   -2.2428   24.2964  -27.1941 H   0  0  0  0  0  0  0  0  0  0  0  0
   -1.2146   24.4437  -30.0112 H   0  0  0  0  0  0  0  0  0  0  0  0
   -0.4731   23.7407  -28.5219 H   0  0  0  0  0  0  0  0  0  0  0  0
    0.0696   18.6225  -33.7919 H   0  0  0  0  0  0  0  0  0  0  0  0
   -1.4591   18.8878  -34.6515 H   0  0  0  0  0  0  0  0  0  0  0  0
    1.1558   18.3815  -35.8026 H   0  0  0  0  0  0  0  0  0  0  0  0
   -0.3463   18.7376  -36.6918 H   0  0  0  0  0  0  0  0  0  0  0  0
    1.9837   20.4789  -36.2886 H   0  0  0  0  0  0  0  0  0  0  0  0
    0.5655   20.8334  -37.2580 H   0  0  0  0  0  0  0  0  0  0  0  0
   -2.8190   20.7163  -28.9913 H   0  0  0  0  0  0  0  0  0  0  0  0
   -2.0772   21.6290  -27.6283 H   0  0  0  0  0  0  0  0  0  0  0  0
   -4.7179   22.0118  -29.0072 H   0  0  0  0  0  0  0  0  0  0  0  0
   -4.2259   22.2559  -27.2649 H   0  0  0  0  0  0  0  0  0  0  0  0
   -4.7765   23.9426  -32.4827 H   0  0  0  0  0  0  0  0  0  0  0  0
   -4.8045   22.2239  -31.9401 H   0  0  0  0  0  0  0  0  0  0  0  0
   -7.1934   23.9775  -32.6979 H   0  0  0  0  0  0  0  0  0  0  0  0
   -6.5762   22.5127  -33.5550 H   0  0  0  0  0  0  0  0  0  0  0  0
   -8.2583   23.8196  -30.7757 H   0  0  0  0  0  0  0  0  0  0  0  0
   -8.5420   22.2191  -29.9872 H   0  0  0  0  0  0  0  0  0  0  0  0
   -6.7770   23.6598  -28.8611 H   0  0  0  0  0  0  0  0  0  0  0  0
   -6.2170   22.0243  -29.3705 H   0  0  0  0  0  0  0  0  0  0  0  0
  1  2  2  0
  2  3  1  0
  3  4  1  0
  4  5  1  0
  5  6  1  0
  6  7  1  0
  7  8  2  0
  8  9  1  0
  9 10  2  0
 10 11  1  0
 11 12  1  0
 12 13  1  0
 13 14  1  0
 14 15  1  0
 15 16  2  0
 10 17  1  0
  6 18  1  0
 18 19  1  0
  2 20  1  0
 20 21  1  0
 21 22  1  0
 22 23  1  0
 23 24  1  0
 24 25  1  0
 19  3  1  0
 25 20  1  0
 17  7  1  0
 15 11  1  0
  3 26  1  0
  4 27  1  0
  4 28  1  0
  5 29  1  0
  5 30  1  0
 12 31  1  0
 12 32  1  0
 13 33  1  0
 13 34  1  0
 14 35  1  0
 14 36  1  0
 18 37  1  0
 18 38  1  0
 19 39  1  0
 19 40  1  0
 21 41  1  0
 21 42  1  0
 22 43  1  0
 22 44  1  0
 24 45  1  0
 24 46  1  0
 25 47  1  0
 25 48  1  0
M  END
>  <UniqueID>  (4) 
4

>  <SMILES>  (4) 
O=C(C1CCN(c2nnc(N3CCCC3=O)s2)CC1)N1CCOCC1

>  <Energy>  (4) 
99.91269466593727

>  <Genealogy>  (4) 
O=C(C1CCN(c2nnc(N3CCCC3=O)s2)CC1)N1CCOCC1 (3D coordinates assigned)
O=C(C1CCN(c2nnc(N3CCCC3=O)s2)CC1)N1CCOCC1 (nonaromatic ring conformer: 99.91269466593727 kcal/mol)

>  <smiles>  (4) 
O=C(C1CCN(c2nnc(N3CCCC3=O)s2)CC1)N1CCOCC1

>  <score_type>  (4) 
oracle

>  <origin>  (4) 
adgpu

>  <m_score__min__energy>  (4) 
-8.3300000000000001

>  <m_primary>  (4) 
energy

$$$$
4:0
     RDKit          3D

 39 42  0  0  0  0  0  0  0  0999 V2000
   -2.4726   22.9552  -26.8419 H   0  0  0  0  0  0  0  0  0  0  0  0
   -2.7380   23.5400  -27.7350 C   0  0  0  0  0  0  0  0  0  0  0  0
   -4.0220   23.2230  -28.7740 S   0  0  0  0  0  0  0  0  0  0  0  0
   -3.6650   24.5240  -29.7800 C   0  0  0  0  0  0  0  0  0  0  0  0
   -4.3410   24.8980  -30.8250 N   0  0  0  0  0  0  0  0  0  0  0  0
   -5.4640   24.2120  -31.3950 C   0  0  0  0  0  0  0  0  0  0  0  0
   -5.3850   23.8110  -32.5860 O   0  0  0  0  0  0  0  0  0  0  0  0
   -6.6330   23.7820  -30.5460 C   0  0  0  0  0  0  0  0  0  0  0  0
   -6.3049   23.6943  -29.4998 H   0  0  0  0  0  0  0  0  0  0  0  0
   -7.4292   24.5354  -30.6380 H   0  0  0  0  0  0  0  0  0  0  0  0
   -7.1620   22.4820  -30.9960 N   0  0  0  0  0  0  0  0  0  0  0  0
   -8.5020   22.3620  -31.2400 C   0  0  0  0  0  0  0  0  0  0  0  0
   -9.1634   23.2265  -31.0812 H   0  0  0  0  0  0  0  0  0  0  0  0
   -9.0250   21.1880  -31.6760 N   0  0  0  0  0  0  0  0  0  0  0  0
   -8.2410   20.1040  -31.8890 C   0  0  0  0  0  0  0  0  0  0  0  0
   -8.8070   18.9070  -32.3400 C   0  0  0  0  0  0  0  0  0  0  0  0
   -9.8903   18.8452  -32.5209 H   0  0  0  0  0  0  0  0  0  0  0  0
   -7.9970   17.7890  -32.5610 C   0  0  0  0  0  0  0  0  0  0  0  0
   -8.4449   16.8480  -32.9129 H   0  0  0  0  0  0  0  0  0  0  0  0
   -6.6200   17.8640  -32.3360 C   0  0  0  0  0  0  0  0  0  0  0  0
   -5.9860   16.9827  -32.5130 H   0  0  0  0  0  0  0  0  0  0  0  0
   -6.0460   19.0580  -31.8860 C   0  0  0  0  0  0  0  0  0  0  0  0
   -4.9616   19.1138  -31.7101 H   0  0  0  0  0  0  0  0  0  0  0  0
   -6.8540   20.1880  -31.6580 C   0  0  0  0  0  0  0  0  0  0  0  0
   -6.3280   21.4120  -31.2070 C   0  0  0  0  0  0  0  0  0  0  0  0
   -5.0870   21.5230  -30.9990 O   0  0  0  0  0  0  0  0  0  0  0  0
   -2.5940   25.2130  -29.3370 N   0  0  0  0  0  0  0  0  0  0  0  0
   -2.0650   24.6750  -28.2010 C   0  0  0  0  0  0  0  0  0  0  0  0
   -0.8700   25.2700  -27.5480 C   0  0  0  0  0  0  0  0  0  0  0  0
   -0.9270   26.5220  -26.9020 C   0  0  0  0  0  0  0  0  0  0  0  0
   -1.8753   27.0788  -26.8744 H   0  0  0  0  0  0  0  0  0  0  0  0
    0.2120   27.0620  -26.2960 C   0  0  0  0  0  0  0  0  0  0  0  0
    0.1550   28.0382  -25.7922 H   0  0  0  0  0  0  0  0  0  0  0  0
    1.4210   26.3650  -26.3290 C   0  0  0  0  0  0  0  0  0  0  0  0
    2.3150   26.7910  -25.8502 H   0  0  0  0  0  0  0  0  0  0  0  0
    1.4950   25.1270  -26.9700 C   0  0  0  0  0  0  0  0  0  0  0  0
    2.4482   24.5786  -26.9969 H   0  0  0  0  0  0  0  0  0  0  0  0
    0.3590   24.5830  -27.5780 C   0  0  0  0  0  0  0  0  0  0  0  0
    0.4262   23.6089  -28.0846 H   0  0  0  0  0  0  0  0  0  0  0  0
  1  2  1  0
  2  3  1  0
  3  4  1  0
  4  5  2  0
  5  6  1  0
  6  7  2  0
  6  8  1  0
  8  9  1  0
  8 10  1  0
  8 11  1  0
 11 12  1  0
 12 13  1  0
 12 14  2  0
 14 15  1  0
 15 16  2  0
 16 17  1  0
 16 18  1  0
 18 19  1  0
 18 20  2  0
 20 21  1  0
 20 22  1  0
 22 23  1  0
 22 24  2  0
 24 25  1  0
 25 26  2  0
  4 27  1  0
 27 28  1  0
 28 29  1  0
 29 30  2  0
 30 31  1  0
 30 32  1  0
 32 33  1  0
 32 34  2  0
 34 35  1  0
 34 36  1  0
 36 37  1  0
 36 38  2  0
 38 39  1  0
 28  2  2  0
 38 29  1  0
 25 11  1  0
 24 15  1  0
M  CHG  1  27  -1
M  END
>  <UniqueID>  (5) 
5

>  <SMILES>  (5) 
O=C(Cn1cnc2ccccc2c1=O)/N=c1/[n-]c(-c2ccccc2)cs1

>  <Energy>  (5) 
90.08886115184437

>  <Genealogy>  (5) 
O=C(Cn1cnc2ccccc2c1=O)N=c1[n-]c(-c2ccccc2)cs1 (protonated)
O=C(Cn1cnc2ccccc2c1=O)/N=c1/[n-]c(-c2ccccc2)cs1 (cis-trans isomerization)
O=C(Cn1cnc2ccccc2c1=O)/N=c1/[n-]c(-c2ccccc2)cs1 (3D coordinates assigned)
O=C(Cn1cnc2ccccc2c1=O)/N=c1/[n-]c(-c2ccccc2)cs1 (optimized conformer: 90.08886115184437 kcal/mol)

>  <smiles>  (5) 
O=C(Cn1cnc2ccccc2c1=O)N=c1[nH]c(-c2ccccc2)cs1

>  <score_type>  (5) 
oracle

>  <origin>  (5) 
adgpu

>  <m_score__min__energy>  (5) 
-10.35

>  <m_primary>  (5) 
energy

$$$$
5:0
     RDKit          3D

 53 55  0  0  0  0  0  0  0  0999 V2000
   -1.6160   25.6920  -29.0070 O   0  0  0  0  0  0  0  0  0  0  0  0
   -2.4900   24.8450  -29.3350 C   0  0  0  0  0  0  0  0  0  0  0  0
   -2.4740   23.5340  -28.7600 N   0  0  0  0  0  0  0  0  0  0  0  0
   -1.5700   22.4650  -29.1690 C   0  0  0  0  0  0  0  0  0  0  0  0
   -1.5890   22.3080  -30.6900 C   0  0  0  0  0  0  0  0  0  0  0  0
   -0.3970   21.4790  -31.1880 C   0  0  0  0  0  0  0  0  0  0  0  0
   -0.8520   20.5140  -32.2160 N   0  0  0  0  0  0  0  0  0  0  0  0
    0.2290   19.6070  -32.6490 C   0  0  0  0  0  0  0  0  0  0  0  0
    1.2860   20.3470  -33.5030 C   0  0  0  0  0  0  0  0  0  0  0  0
    0.8280   21.5930  -34.0020 O   0  0  0  0  0  0  0  0  0  0  0  0
   -0.4800   21.4570  -34.5170 C   0  0  0  0  0  0  0  0  0  0  0  0
   -1.4840   21.1810  -33.3800 C   0  0  0  0  0  0  0  0  0  0  0  0
   -3.5170   25.2290  -30.2570 N   0  0  0  0  0  0  0  0  0  0  0  0
   -4.6290   24.4250  -30.6780 C   0  0  0  0  0  0  0  0  0  0  0  0
   -5.9280   24.8960  -30.4440 C   0  0  0  0  0  0  0  0  0  0  0  0
   -7.0360   24.1240  -30.8030 C   0  0  0  0  0  0  0  0  0  0  0  0
   -6.8550   22.8750  -31.4030 C   0  0  0  0  0  0  0  0  0  0  0  0
   -5.5630   22.4070  -31.6760 C   0  0  0  0  0  0  0  0  0  0  0  0
   -5.3330   20.8080  -32.3780 S   0  0  0  0  0  0  0  0  0  0  0  0
   -4.8470   19.8520  -31.3220 O   0  0  0  0  0  0  0  0  0  0  0  0
   -4.2880   20.9010  -33.4540 O   0  0  0  0  0  0  0  0  0  0  0  0
   -6.8380   20.2400  -33.0680 N   0  0  0  0  0  0  0  0  0  0  0  0
   -7.7910   19.8710  -32.0140 C   0  0  0  0  0  0  0  0  0  0  0  0
   -7.6080   18.3930  -31.7130 C   0  0  0  0  0  0  0  0  0  0  0  0
   -6.8690   17.8240  -32.9090 C   0  0  0  0  0  0  0  0  0  0  0  0
   -6.6120   19.0080  -33.8310 C   0  0  0  0  0  0  0  0  0  0  0  0
   -4.4540   23.1940  -31.3360 C   0  0  0  0  0  0  0  0  0  0  0  0
   -0.5484   22.7085  -28.8419 H   0  0  0  0  0  0  0  0  0  0  0  0
   -1.8983   21.5220  -28.7074 H   0  0  0  0  0  0  0  0  0  0  0  0
   -2.5217   21.8050  -30.9852 H   0  0  0  0  0  0  0  0  0  0  0  0
   -1.5231   23.3096  -31.1399 H   0  0  0  0  0  0  0  0  0  0  0  0
    0.3573   22.1498  -31.6251 H   0  0  0  0  0  0  0  0  0  0  0  0
    0.0419   20.9292  -30.3424 H   0  0  0  0  0  0  0  0  0  0  0  0
    0.7200   19.1865  -31.7590 H   0  0  0  0  0  0  0  0  0  0  0  0
   -0.2156   18.8117  -33.2653 H   0  0  0  0  0  0  0  0  0  0  0  0
    2.1756   20.5251  -32.8811 H   0  0  0  0  0  0  0  0  0  0  0  0
    1.5097   19.7094  -34.3710 H   0  0  0  0  0  0  0  0  0  0  0  0
   -0.7641   22.3862  -35.0327 H   0  0  0  0  0  0  0  0  0  0  0  0
   -0.4985   20.6112  -35.2200 H   0  0  0  0  0  0  0  0  0  0  0  0
   -1.9136   22.1378  -33.0483 H   0  0  0  0  0  0  0  0  0  0  0  0
   -2.2582   20.5058  -33.7733 H   0  0  0  0  0  0  0  0  0  0  0  0
   -6.0763   25.8797  -29.9747 H   0  0  0  0  0  0  0  0  0  0  0  0
   -8.0521   24.5000  -30.6130 H   0  0  0  0  0  0  0  0  0  0  0  0
   -7.7284   22.2582  -31.6614 H   0  0  0  0  0  0  0  0  0  0  0  0
   -7.5942   20.4637  -31.1084 H   0  0  0  0  0  0  0  0  0  0  0  0
   -8.8215   20.0694  -32.3436 H   0  0  0  0  0  0  0  0  0  0  0  0
   -7.0162   18.2580  -30.7957 H   0  0  0  0  0  0  0  0  0  0  0  0
   -8.5713   17.8875  -31.5504 H   0  0  0  0  0  0  0  0  0  0  0  0
   -5.9183   17.3699  -32.5928 H   0  0  0  0  0  0  0  0  0  0  0  0
   -7.4503   17.0359  -33.4101 H   0  0  0  0  0  0  0  0  0  0  0  0
   -5.5738   18.9794  -34.1933 H   0  0  0  0  0  0  0  0  0  0  0  0
   -7.2879   18.9684  -34.6979 H   0  0  0  0  0  0  0  0  0  0  0  0
   -3.4404   22.8468  -31.5853 H   0  0  0  0  0  0  0  0  0  0  0  0
  1  2  2  0
  2  3  1  0
  3  4  1  0
  4  5  1  0
  5  6  1  0
  6  7  1  0
  7  8  1  0
  8  9  1  0
  9 10  1  0
 10 11  1  0
 11 12  1  0
  2 13  1  0
 13 14  1  0
 14 15  2  0
 15 16  1  0
 16 17  2  0
 17 18  1  0
 18 19  1  0
 19 20  2  0
 19 21  2  0
 19 22  1  0
 22 23  1  0
 23 24  1  0
 24 25  1  0
 25 26  1  0
 18 27  2  0
 12  7  1  0
 27 14  1  0
 26 22  1  0
  4 28  1  0
  4 29  1  0
  5 30  1  0
  5 31  1  0
  6 32  1  0
  6 33  1  0
  8 34  1  0
  8 35  1  0
  9 36  1  0
  9 37  1  0
 11 38  1  0
 11 39  1  0
 12 40  1  0
 12 41  1  0
 15 42  1  0
 16 43  1  0
 17 44  1  0
 23 45  1  0
 23 46  1  0
 24 47  1  0
 24 48  1  0
 25 49  1  0
 25 50  1  0
 26 51  1  0
 26 52  1  0
 27 53  1  0
M  CHG  2   3  -1  13  -1
M  END
>  <UniqueID>  (6) 
6

>  <SMILES>  (6) 
O=C([N-]CCCN1CCOCC1)[N-]c1cccc(S(=O)(=O)N2CCCC2)c1

>  <Energy>  (6) 
61.8511374816765

>  <Genealogy>  (6) 
O=C([N-]CCCN1CCOCC1)[N-]c1cccc(S(=O)(=O)N2CCCC2)c1 (protonated)
O=C([N-]CCCN1CCOCC1)[N-]c1cccc(S(=O)(=O)N2CCCC2)c1 (3D coordinates assigned)
O=C([N-]CCCN1CCOCC1)[N-]c1cccc(S(=O)(=O)N2CCCC2)c1 (nonaromatic ring conformer: 61.8511374816765 kcal/mol)

>  <smiles>  (6) 
O=C(NCCCN1CCOCC1)Nc1cccc(S(=O)(=O)N2CCCC2)c1

>  <score_type>  (6) 
oracle

>  <origin>  (6) 
adgpu

>  <m_score__min__energy>  (6) 
-11.369999999999999

>  <m_primary>  (6) 
energy

$$$$
6:0
     RDKit          3D

 26 27  0  0  0  0  0  0  0  0999 V2000
   -8.5020   20.4310  -32.9500 N   0  0  0  0  0  0  0  0  0  0  0  0
   -7.1760   20.9380  -32.7460 C   0  0  0  0  0  0  0  0  0  0  0  0
   -7.0040   22.0600  -31.9190 C   0  0  0  0  0  0  0  0  0  0  0  0
   -5.7310   22.6010  -31.6990 C   0  0  0  0  0  0  0  0  0  0  0  0
   -5.5340   24.0240  -30.6820 S   0  0  0  0  0  0  0  0  0  0  0  0
   -5.5140   25.2700  -31.5230 O   0  0  0  0  0  0  0  0  0  0  0  0
   -6.6890   24.1170  -29.7240 O   0  0  0  0  0  0  0  0  0  0  0  0
   -4.0310   23.8950  -29.7860 C   0  0  0  0  0  0  0  0  0  0  0  0
   -3.7010   22.7070  -29.1280 C   0  0  0  0  0  0  0  0  0  0  0  0
   -2.5000   22.6520  -28.4190 C   0  0  0  0  0  0  0  0  0  0  0  0
   -2.1700   21.5990  -27.8140 O   0  0  0  0  0  0  0  0  0  0  0  0
   -1.6850   23.7380  -28.3820 N   0  0  0  0  0  0  0  0  0  0  0  0
   -2.0220   24.8850  -29.0270 C   0  0  0  0  0  0  0  0  0  0  0  0
   -1.2550   25.8810  -28.9810 O   0  0  0  0  0  0  0  0  0  0  0  0
   -3.1870   24.9580  -29.7220 N   0  0  0  0  0  0  0  0  0  0  0  0
   -4.6190   22.0250  -32.3200 C   0  0  0  0  0  0  0  0  0  0  0  0
   -4.7740   20.9070  -33.1400 C   0  0  0  0  0  0  0  0  0  0  0  0
   -6.0400   20.3510  -33.3590 C   0  0  0  0  0  0  0  0  0  0  0  0
   -6.1200   19.2240  -34.1800 O   0  0  0  0  0  0  0  0  0  0  0  0
   -9.2540   20.4930  -32.2330 H   0  0  0  0  0  0  0  0  0  0  0  0
   -8.7470   19.9430  -33.8410 H   0  0  0  0  0  0  0  0  0  0  0  0
   -7.8800   22.5196  -31.4380 H   0  0  0  0  0  0  0  0  0  0  0  0
   -4.3718   21.8361  -29.1679 H   0  0  0  0  0  0  0  0  0  0  0  0
   -3.6188   22.4545  -32.1617 H   0  0  0  0  0  0  0  0  0  0  0  0
   -3.8920   20.4575  -33.6196 H   0  0  0  0  0  0  0  0  0  0  0  0
   -6.8490   19.0690  -34.8620 H   0  0  0  0  0  0  0  0  0  0  0  0
  1  2  1  0
  2  3  2  0
  3  4  1  0
  4  5  1  0
  5  6  2  0
  5  7  2  0
  5  8  1  0
  8  9  2  0
  9 10  1  0
 10 11  2  0
 10 12  1  0
 12 13  1  0
 13 14  2  0
 13 15  1  0
  4 16  2  0
 16 17  1  0
 17 18  2  0
 18 19  1  0
 18  2  1  0
 15  8  1  0
  1 20  1  0
  1 21  1  0
  3 22  1  0
  9 23  1  0
 16 24  1  0
 17 25  1  0
 19 26  1  0
M  CHG  2  12  -1  15  -1
M  END
>  <UniqueID>  (7) 
7

>  <SMILES>  (7) 
Nc1cc(S(=O)(=O)c2cc(=O)[n-]c(=O)[n-]2)ccc1O

>  <Energy>  (7) 
31.425742703228924

>  <Genealogy>  (7) 
Nc1cc(S(=O)(=O)c2cc(=O)[n-]c(=O)[n-]2)ccc1O (protonated)
Nc1cc(S(=O)(=O)c2cc(=O)[n-]c(=O)[n-]2)ccc1O (3D coordinates assigned)
Nc1cc(S(=O)(=O)c2cc(=O)[n-]c(=O)[n-]2)ccc1O (optimized conformer: 31.425742703228924 kcal/mol)

>  <smiles>  (7) 
Nc1cc(S(=O)(=O)c2cc(=O)[nH]c(=O)[nH]2)ccc1O

>  <score_type>  (7) 
oracle

>  <origin>  (7) 
adgpu

>  <m_score__min__energy>  (7) 
-9.4199999999999999

>  <m_primary>  (7) 
energy

$$$$
7:0
     RDKit          3D

 54 58  0  0  0  0  0  0  0  0999 V2000
   -4.2370   22.8300  -27.7000 C   0  0  0  0  0  0  0  0  0  0  0  0
   -2.8360   22.4940  -28.1140 C   0  0  0  0  0  0  0  0  0  0  0  0
   -1.9420   23.2960  -28.8340 C   0  0  0  0  0  0  0  0  0  0  0  0
   -2.2040   24.6560  -29.3500 C   0  0  0  0  0  0  0  0  0  0  0  0
   -1.5790   25.6380  -28.8700 O   0  0  0  0  0  0  0  0  0  0  0  0
   -3.1650   24.8980  -30.3890 N   0  0  0  0  0  0  0  0  0  0  0  0
   -4.5320   24.4560  -30.4090 C   0  0  0  0  0  0  0  0  0  0  0  0
   -5.4920   25.2870  -29.8200 C   0  0  0  0  0  0  0  0  0  0  0  0
   -6.8330   24.9080  -29.7590 C   0  0  0  0  0  0  0  0  0  0  0  0
   -7.2300   23.6810  -30.2930 C   0  0  0  0  0  0  0  0  0  0  0  0
   -6.2970   22.8530  -30.9190 C   0  0  0  0  0  0  0  0  0  0  0  0
   -4.9430   23.2320  -31.0100 C   0  0  0  0  0  0  0  0  0  0  0  0
   -4.0100   22.3870  -31.8000 C   0  0  0  0  0  0  0  0  0  0  0  0
   -4.1650   22.1230  -33.1660 C   0  0  0  0  0  0  0  0  0  0  0  0
   -2.9050   21.1210  -33.6510 S   0  0  0  0  0  0  0  0  0  0  0  0
   -2.2130   21.0630  -32.1170 C   0  0  0  0  0  0  0  0  0  0  0  0
   -1.0480   20.2970  -31.7520 N   0  0  0  0  0  0  0  0  0  0  0  0
   -1.1340   18.8370  -31.5850 C   0  0  0  0  0  0  0  0  0  0  0  0
    0.0900   18.3050  -30.8290 C   0  0  0  0  0  0  0  0  0  0  0  0
    1.3690   18.7030  -31.4660 N   0  0  0  0  0  0  0  0  0  0  0  0
    2.4730   18.5860  -30.5010 C   0  0  0  0  0  0  0  0  0  0  0  0
    1.3580   20.0440  -32.1060 C   0  0  0  0  0  0  0  0  0  0  0  0
    0.2510   20.9560  -31.5710 C   0  0  0  0  0  0  0  0  0  0  0  0
   -2.9190   21.8020  -31.2330 N   0  0  0  0  0  0  0  0  0  0  0  0
   -0.7870   22.6710  -28.9850 O   0  0  0  0  0  0  0  0  0  0  0  0
   -0.8820   21.5010  -28.3980 C   0  0  0  0  0  0  0  0  0  0  0  0
    0.1030   20.5210  -28.3000 C   0  0  0  0  0  0  0  0  0  0  0  0
   -0.2140   19.3380  -27.6050 C   0  0  0  0  0  0  0  0  0  0  0  0
   -1.4950   19.1630  -27.0370 C   0  0  0  0  0  0  0  0  0  0  0  0
   -2.4730   20.1700  -27.1570 C   0  0  0  0  0  0  0  0  0  0  0  0
   -2.1250   21.3340  -27.8450 C   0  0  0  0  0  0  0  0  0  0  0  0
   -4.3012   22.8454  -26.6020 H   0  0  0  0  0  0  0  0  0  0  0  0
   -4.5095   23.8190  -28.0971 H   0  0  0  0  0  0  0  0  0  0  0  0
   -4.9284   22.0722  -28.0971 H   0  0  0  0  0  0  0  0  0  0  0  0
   -5.1838   26.2550  -29.3982 H   0  0  0  0  0  0  0  0  0  0  0  0
   -7.5744   25.5731  -29.2921 H   0  0  0  0  0  0  0  0  0  0  0  0
   -8.2813   23.3657  -30.2202 H   0  0  0  0  0  0  0  0  0  0  0  0
   -6.6226   21.8932  -31.3464 H   0  0  0  0  0  0  0  0  0  0  0  0
   -4.9709   22.5047  -33.8100 H   0  0  0  0  0  0  0  0  0  0  0  0
   -2.0438   18.5914  -31.0176 H   0  0  0  0  0  0  0  0  0  0  0  0
   -1.1666   18.3685  -32.5797 H   0  0  0  0  0  0  0  0  0  0  0  0
    0.0695   18.6998  -29.8025 H   0  0  0  0  0  0  0  0  0  0  0  0
    0.0385   17.2063  -30.8413 H   0  0  0  0  0  0  0  0  0  0  0  0
    2.0716   18.6285  -29.4777 H   0  0  0  0  0  0  0  0  0  0  0  0
    2.9918   17.6278  -30.6518 H   0  0  0  0  0  0  0  0  0  0  0  0
    3.1811   19.4141  -30.6518 H   0  0  0  0  0  0  0  0  0  0  0  0
    2.3289   20.5274  -31.9225 H   0  0  0  0  0  0  0  0  0  0  0  0
    1.1688   19.8936  -33.1791 H   0  0  0  0  0  0  0  0  0  0  0  0
    0.4191   21.1499  -30.5014 H   0  0  0  0  0  0  0  0  0  0  0  0
    0.2609   21.9094  -32.1195 H   0  0  0  0  0  0  0  0  0  0  0  0
    1.0958   20.6664  -28.7507 H   0  0  0  0  0  0  0  0  0  0  0  0
    0.5414   18.5448  -27.5039 H   0  0  0  0  0  0  0  0  0  0  0  0
   -1.7309   18.2341  -26.4972 H   0  0  0  0  0  0  0  0  0  0  0  0
   -3.4761   20.0435  -26.7236 H   0  0  0  0  0  0  0  0  0  0  0  0
  1  2  1  0
  2  3  2  0
  3  4  1  0
  4  5  2  0
  4  6  1  0
  6  7  1  0
  7  8  2  0
  8  9  1  0
  9 10  2  0
 10 11  1  0
 11 12  2  0
 12 13  1  0
 13 14  2  0
 14 15  1  0
 15 16  1  0
 16 17  1  0
 17 18  1  0
 18 19  1  0
 19 20  1  0
 20 21  1  0
 20 22  1  0
 22 23  1  0
 16 24  2  0
  3 25  1  0
 25 26  1  0
 26 27  2  0
 27 28  1  0
 28 29  2  0
 29 30  1  0
 30 31  2  0
 31  2  1  0
 12  7  1  0
 24 13  1  0
 31 26  1  0
 23 17  1  0
  1 32  1  0
  1 33  1  0
  1 34  1  0
  8 35  1  0
  9 36  1  0
 10 37  1  0
 11 38  1  0
 14 39  1  0
 18 40  1  0
 18 41  1  0
 19 42  1  0
 19 43  1  0
 21 44  1  0
 21 45  1  0
 21 46  1  0
 22 47  1  0
 22 48  1  0
 23 49  1  0
 23 50  1  0
 27 51  1  0
 28 52  1  0
 29 53  1  0
 30 54  1  0
M  CHG  1   6  -1
M  END
>  <UniqueID>  (8) 
8

>  <SMILES>  (8) 
Cc1c(C(=O)[N-]c2ccccc2-c2csc(N3CCN(C)CC3)n2)oc2ccccc12

>  <Energy>  (8) 
137.01891509176536

>  <Genealogy>  (8) 
Cc1c(C(=O)[N-]c2ccccc2-c2csc(N3CCN(C)CC3)n2)oc2ccccc12 (protonated)
Cc1c(C(=O)[N-]c2ccccc2-c2csc(N3CCN(C)CC3)n2)oc2ccccc12 (3D coordinates assigned)
Cc1c(C(=O)[N-]c2ccccc2-c2csc(N3CCN(C)CC3)n2)oc2ccccc12 (nonaromatic ring conformer: 137.01891509176536 kcal/mol)

>  <smiles>  (8) 
Cc1c(C(=O)Nc2ccccc2-c2csc(N3CCN(C)CC3)n2)oc2ccccc12

>  <score_type>  (8) 
oracle

>  <origin>  (8) 
adgpu

>  <m_score__min__energy>  (8) 
-10.6

>  <m_primary>  (8) 
energy

$$$$
8:0
     RDKit          3D

 64 68  0  0  0  0  0  0  0  0999 V2000
    0.3740   19.2530  -33.9520 C   0  0  0  0  0  0  0  0  0  0  0  0
   -0.8180   20.1230  -33.7020 C   0  0  0  0  0  0  0  0  0  0  0  0
   -0.7760   21.4660  -33.6790 N   0  0  0  0  0  0  0  0  0  0  0  0
   -1.9790   21.9050  -33.4720 O   0  0  0  0  0  0  0  0  0  0  0  0
   -2.8260   20.9100  -33.3520 C   0  0  0  0  0  0  0  0  0  0  0  0
   -4.0990   21.1250  -33.1760 N   0  0  0  0  0  0  0  0  0  0  0  0
   -5.4170   20.0050  -33.0190 S   0  0  0  0  0  0  0  0  0  0  0  0
   -4.9780   18.8920  -32.1110 O   0  0  0  0  0  0  0  0  0  0  0  0
   -5.7170   19.4120  -34.3680 O   0  0  0  0  0  0  0  0  0  0  0  0
   -6.8670   20.7370  -32.3070 C   0  0  0  0  0  0  0  0  0  0  0  0
   -8.1200   20.2330  -32.6920 C   0  0  0  0  0  0  0  0  0  0  0  0
   -9.2970   20.7990  -32.2000 C   0  0  0  0  0  0  0  0  0  0  0  0
   -9.2390   21.8740  -31.3160 C   0  0  0  0  0  0  0  0  0  0  0  0
   -8.0050   22.3800  -30.9100 C   0  0  0  0  0  0  0  0  0  0  0  0
   -6.8090   21.8150  -31.3850 C   0  0  0  0  0  0  0  0  0  0  0  0
   -5.5310   22.3870  -30.9160 C   0  0  0  0  0  0  0  0  0  0  0  0
   -4.5500   21.5650  -30.3490 C   0  0  0  0  0  0  0  0  0  0  0  0
   -3.3310   22.1050  -29.9320 C   0  0  0  0  0  0  0  0  0  0  0  0
   -3.0740   23.4830  -30.0700 C   0  0  0  0  0  0  0  0  0  0  0  0
   -1.8160   24.0560  -29.6590 N   0  0  0  0  0  0  0  0  0  0  0  0
   -0.7420   23.2720  -29.0460 C   0  0  0  0  0  0  0  0  0  0  0  0
   -0.6170   23.5920  -27.5750 C   0  0  0  0  0  0  0  0  0  0  0  0
   -0.4830   24.9340  -27.1800 C   0  0  0  0  0  0  0  0  0  0  0  0
   -0.3720   25.2690  -25.8290 C   0  0  0  0  0  0  0  0  0  0  0  0
   -0.3890   24.2710  -24.8560 C   0  0  0  0  0  0  0  0  0  0  0  0
   -0.5040   22.9300  -25.2310 C   0  0  0  0  0  0  0  0  0  0  0  0
   -0.6030   22.5770  -26.5860 C   0  0  0  0  0  0  0  0  0  0  0  0
   -0.7000   21.1470  -26.9380 C   0  0  0  0  0  0  0  0  0  0  0  0
   -1.7610   20.3720  -26.4450 C   0  0  0  0  0  0  0  0  0  0  0  0
   -1.8550   19.0170  -26.7760 C   0  0  0  0  0  0  0  0  0  0  0  0
   -0.8850   18.4270  -27.5920 C   0  0  0  0  0  0  0  0  0  0  0  0
    0.1810   19.1910  -28.0750 C   0  0  0  0  0  0  0  0  0  0  0  0
    0.2730   20.5490  -27.7530 C   0  0  0  0  0  0  0  0  0  0  0  0
   -4.0750   24.3100  -30.6190 C   0  0  0  0  0  0  0  0  0  0  0  0
   -3.8610   25.6750  -30.7730 O   0  0  0  0  0  0  0  0  0  0  0  0
   -5.2950   23.7640  -31.0280 C   0  0  0  0  0  0  0  0  0  0  0  0
   -2.1240   19.7040  -33.4760 C   0  0  0  0  0  0  0  0  0  0  0  0
   -2.5910   18.2800  -33.5040 C   0  0  0  0  0  0  0  0  0  0  0  0
    0.8059   18.9378  -32.9907 H   0  0  0  0  0  0  0  0  0  0  0  0
    0.0666   18.3655  -34.5245 H   0  0  0  0  0  0  0  0  0  0  0  0
    1.1255   19.8164  -34.5245 H   0  0  0  0  0  0  0  0  0  0  0  0
    0.0640   22.0710  -33.8170 H   0  0  0  0  0  0  0  0  0  0  0  0
   -8.1743   19.3834  -33.3885 H   0  0  0  0  0  0  0  0  0  0  0  0
  -10.2720   20.3956  -32.5108 H   0  0  0  0  0  0  0  0  0  0  0  0
  -10.1685   22.3244  -30.9376 H   0  0  0  0  0  0  0  0  0  0  0  0
   -7.9671   23.2290  -30.2116 H   0  0  0  0  0  0  0  0  0  0  0  0
   -4.7400   20.4880  -30.2312 H   0  0  0  0  0  0  0  0  0  0  0  0
   -2.5656   21.4487  -29.4923 H   0  0  0  0  0  0  0  0  0  0  0  0
   -1.6550   25.0770  -29.8200 H   0  0  0  0  0  0  0  0  0  0  0  0
   -0.9643   22.2012  -29.1646 H   0  0  0  0  0  0  0  0  0  0  0  0
    0.2063   23.5235  -29.5435 H   0  0  0  0  0  0  0  0  0  0  0  0
   -0.4654   25.7274  -27.9417 H   0  0  0  0  0  0  0  0  0  0  0  0
   -0.2709   26.3232  -25.5318 H   0  0  0  0  0  0  0  0  0  0  0  0
   -0.3118   24.5394  -23.7921 H   0  0  0  0  0  0  0  0  0  0  0  0
   -0.5170   22.1459  -24.4596 H   0  0  0  0  0  0  0  0  0  0  0  0
   -2.5209   20.8320  -25.7962 H   0  0  0  0  0  0  0  0  0  0  0  0
   -2.6926   18.4147  -26.3943 H   0  0  0  0  0  0  0  0  0  0  0  0
   -0.9609   17.3613  -27.8539 H   0  0  0  0  0  0  0  0  0  0  0  0
    0.9487   18.7237  -28.7092 H   0  0  0  0  0  0  0  0  0  0  0  0
    1.1098   21.1493  -28.1395 H   0  0  0  0  0  0  0  0  0  0  0  0
   -6.0756   24.4199  -31.4408 H   0  0  0  0  0  0  0  0  0  0  0  0
   -2.7113   17.9132  -32.4739 H   0  0  0  0  0  0  0  0  0  0  0  0
   -3.5556   18.2207  -34.0293 H   0  0  0  0  0  0  0  0  0  0  0  0
   -1.8488   17.6610  -34.0293 H   0  0  0  0  0  0  0  0  0  0  0  0
  1  2  1  0
  2  3  1  0
  3  4  1  0
  4  5  1  0
  5  6  2  3
  6  7  1  0
  7  8  2  0
  7  9  2  0
  7 10  1  0
 10 11  2  0
 11 12  1  0
 12 13  2  0
 13 14  1  0
 14 15  2  0
 15 16  1  0
 16 17  2  0
 17 18  1  0
 18 19  2  0
 19 20  1  0
 20 21  1  0
 21 22  1  0
 22 23  2  0
 23 24  1  0
 24 25  2  0
 25 26  1  0
 26 27  2  0
 27 28  1  0
 28 29  2  0
 29 30  1  0
 30 31  2  0
 31 32  1  0
 32 33  2  0
 19 34  1  0
 34 35  1  0
 34 36  2  0
  5 37  1  0
 37 38  1  0
 37  2  2  0
 15 10  1  0
 36 16  1  0
 27 22  1  0
 33 28  1  0
  1 39  1  0
  1 40  1  0
  1 41  1  0
  3 42  1  0
 11 43  1  0
 12 44  1  0
 13 45  1  0
 14 46  1  0
 17 47  1  0
 18 48  1  0
 20 49  1  0
 21 50  1  0
 21 51  1  0
 23 52  1  0
 24 53  1  0
 25 54  1  0
 26 55  1  0
 29 56  1  0
 30 57  1  0
 31 58  1  0
 32 59  1  0
 33 60  1  0
 36 61  1  0
 38 62  1  0
 38 63  1  0
 38 64  1  0
M  CHG  1  35  -1
M  END
>  <UniqueID>  (9) 
9

>  <SMILES>  (9) 
Cc1[nH]oc(=NS(=O)(=O)c2ccccc2-c2ccc(NCc3ccccc3-c3ccccc3)c([O-])c2)c1C

>  <Energy>  (9) 
122.87636670055915

>  <Genealogy>  (9) 
Cc1[nH]oc(=NS(=O)(=O)c2ccccc2-c2ccc(NCc3ccccc3-c3ccccc3)c([O-])c2)c1C (protonated)
Cc1[nH]oc(=NS(=O)(=O)c2ccccc2-c2ccc(NCc3ccccc3-c3ccccc3)c([O-])c2)c1C (3D coordinates assigned)
Cc1[nH]oc(=NS(=O)(=O)c2ccccc2-c2ccc(NCc3ccccc3-c3ccccc3)c([O-])c2)c1C (optimized conformer: 122.87636670055915 kcal/mol)

>  <smiles>  (9) 
Cc1[nH]oc(=NS(=O)(=O)c2ccccc2-c2ccc(NCc3ccccc3-c3ccccc3)c(O)c2)c1C

>  <score_type>  (9) 
oracle

>  <origin>  (9) 
adgpu

>  <m_score__min__energy>  (9) 
-14.84

>  <m_primary>  (9) 
energy

$$$$
9:0
     RDKit          3D

 54 55  0  0  0  0  0  0  0  0999 V2000
   -1.2910   26.3020  -25.7470 C   0  0  0  0  0  0  0  0  0  0  0  0
   -0.5650   27.0400  -26.8620 C   0  0  0  0  0  0  0  0  0  0  0  0
   -0.1020   26.1250  -27.8530 O   0  0  0  0  0  0  0  0  0  0  0  0
   -0.8770   25.0780  -28.3630 C   0  0  0  0  0  0  0  0  0  0  0  0
   -1.7050   25.3040  -29.2850 O   0  0  0  0  0  0  0  0  0  0  0  0
   -0.7160   23.7100  -27.8150 C   0  0  0  0  0  0  0  0  0  0  0  0
    0.4360   23.1850  -27.2390 C   0  0  0  0  0  0  0  0  0  0  0  0
    1.7510   23.8830  -27.0660 C   0  0  0  0  0  0  0  0  0  0  0  0
    0.2250   21.9170  -26.8370 N   0  0  0  0  0  0  0  0  0  0  0  0
   -1.0490   21.6080  -27.1380 C   0  0  0  0  0  0  0  0  0  0  0  0
   -1.6540   20.2700  -26.8480 C   0  0  0  0  0  0  0  0  0  0  0  0
   -1.6710   22.6890  -27.7530 C   0  0  0  0  0  0  0  0  0  0  0  0
   -3.3540   22.7510  -28.3070 S   0  0  0  0  0  0  0  0  0  0  0  0
   -4.2060   21.8320  -27.4700 O   0  0  0  0  0  0  0  0  0  0  0  0
   -3.4050   22.2590  -29.7310 O   0  0  0  0  0  0  0  0  0  0  0  0
   -3.9750   24.3890  -28.2050 N   0  0  2  0  0  0  0  0  0  0  0  0
   -4.2310   24.7340  -26.8030 C   0  0  0  0  0  0  0  0  0  0  0  0
   -5.2190   24.5460  -28.9880 C   0  0  0  0  0  0  0  0  0  0  0  0
   -4.9500   24.9110  -30.4190 C   0  0  0  0  0  0  0  0  0  0  0  0
   -3.8820   25.5150  -30.7130 O   0  0  0  0  0  0  0  0  0  0  0  0
   -5.9260   24.5780  -31.4160 N   0  0  0  0  0  0  0  0  0  0  0  0
   -6.5470   23.3180  -31.7310 C   0  0  0  0  0  0  0  0  0  0  0  0
   -7.9240   23.0720  -31.5460 C   0  0  0  0  0  0  0  0  0  0  0  0
   -8.4640   21.8170  -31.8480 C   0  0  0  0  0  0  0  0  0  0  0  0
   -7.6430   20.7960  -32.3230 C   0  0  0  0  0  0  0  0  0  0  0  0
   -6.2770   21.0160  -32.4940 C   0  0  0  0  0  0  0  0  0  0  0  0
   -5.7200   22.2810  -32.2030 C   0  0  0  0  0  0  0  0  0  0  0  0
   -4.3490   22.5470  -32.3690 O   0  0  0  0  0  0  0  0  0  0  0  0
   -3.4020   21.6070  -32.8690 C   0  0  0  0  0  0  0  0  0  0  0  0
   -0.9330   26.6659  -24.7727 H   0  0  0  0  0  0  0  0  0  0  0  0
   -2.3727   26.4831  -25.8311 H   0  0  0  0  0  0  0  0  0  0  0  0
   -1.0922   25.2234  -25.8311 H   0  0  0  0  0  0  0  0  0  0  0  0
   -1.2548   27.7589  -27.3282 H   0  0  0  0  0  0  0  0  0  0  0  0
    0.3010   27.5656  -26.4333 H   0  0  0  0  0  0  0  0  0  0  0  0
    1.9670   23.9976  -25.9935 H   0  0  0  0  0  0  0  0  0  0  0  0
    2.5467   23.2885  -27.5388 H   0  0  0  0  0  0  0  0  0  0  0  0
    1.7045   24.8751  -27.5388 H   0  0  0  0  0  0  0  0  0  0  0  0
    0.9200   21.2890  -26.3780 H   0  0  0  0  0  0  0  0  0  0  0  0
   -1.7194   20.1253  -25.7595 H   0  0  0  0  0  0  0  0  0  0  0  0
   -2.6620   20.2207  -27.2857 H   0  0  0  0  0  0  0  0  0  0  0  0
   -1.0252   19.4806  -27.2857 H   0  0  0  0  0  0  0  0  0  0  0  0
   -3.2540   25.0450  -28.5700 H   0  0  0  0  0  0  0  0  0  0  0  0
   -3.7041   24.0240  -26.1486 H   0  0  0  0  0  0  0  0  0  0  0  0
   -3.8692   25.7536  -26.6043 H   0  0  0  0  0  0  0  0  0  0  0  0
   -5.3117   24.6832  -26.6043 H   0  0  0  0  0  0  0  0  0  0  0  0
   -5.7744   23.5968  -28.9636 H   0  0  0  0  0  0  0  0  0  0  0  0
   -5.7999   25.3635  -28.5360 H   0  0  0  0  0  0  0  0  0  0  0  0
   -8.5761   23.8706  -31.1625 H   0  0  0  0  0  0  0  0  0  0  0  0
   -9.5401   21.6357  -31.7100 H   0  0  0  0  0  0  0  0  0  0  0  0
   -8.0743   19.8131  -32.5638 H   0  0  0  0  0  0  0  0  0  0  0  0
   -5.6314   20.2025  -32.8564 H   0  0  0  0  0  0  0  0  0  0  0  0
   -2.9000   21.1088  -32.0265 H   0  0  0  0  0  0  0  0  0  0  0  0
   -3.9202   20.8559  -33.4832 H   0  0  0  0  0  0  0  0  0  0  0  0
   -2.6547   22.1307  -33.4832 H   0  0  0  0  0  0  0  0  0  0  0  0
  1  2  1  0
  2  3  1  0
  3  4  1  0
  4  5  2  0
  4  6  1  0
  6  7  2  0
  7  8  1  0
  7  9  1  0
  9 10  1  0
 10 11  1  0
 10 12  2  0
 12 13  1  0
 13 14  2  0
 13 15  2  0
 13 16  1  0
 16 17  1  0
 16 18  1  0
 18 19  1  0
 19 20  2  0
 19 21  1  0
 21 22  1  0
 22 23  2  0
 23 24  1  0
 24 25  2  0
 25 26  1  0
 26 27  2  0
 27 28  1  0
 28 29  1  0
 12  6  1  0
 27 22  1  0
  1 30  1  0
  1 31  1  0
  1 32  1  0
  2 33  1  0
  2 34  1  0
  8 35  1  0
  8 36  1  0
  8 37  1  0
  9 38  1  0
 11 39  1  0
 11 40  1  0
 11 41  1  0
 16 42  1  6
 17 43  1  0
 17 44  1  0
 17 45  1  0
 18 46  1  0
 18 47  1  0
 23 48  1  0
 24 49  1  0
 25 50  1  0
 26 51  1  0
 29 52  1  0
 29 53  1  0
 29 54  1  0
M  CHG  2  16   1  21  -1
M  END
>  <UniqueID>  (10) 
10

>  <SMILES>  (10) 
CCOC(=O)c1c(C)[nH]c(C)c1S(=O)(=O)[N@H+](C)CC(=O)[N-]c1ccccc1OC

>  <Energy>  (10) 
78.47157210449197

>  <Genealogy>  (10) 
CCOC(=O)c1c(C)[nH]c(C)c1S(=O)(=O)[NH+](C)CC(=O)[N-]c1ccccc1OC (protonated)
CCOC(=O)c1c(C)[nH]c(C)c1S(=O)(=O)[N@H+](C)CC(=O)[N-]c1ccccc1OC (chirality)
CCOC(=O)c1c(C)[nH]c(C)c1S(=O)(=O)[N@H+](C)CC(=O)[N-]c1ccccc1OC (3D coordinates assigned)
CCOC(=O)c1c(C)[nH]c(C)c1S(=O)(=O)[N@H+](C)CC(=O)[N-]c1ccccc1OC (optimized conformer: 78.47157210449197 kcal/mol)

>  <smiles>  (10) 
CCOC(=O)c1c(C)[nH]c(C)c1S(=O)(=O)N(C)CC(=O)Nc1ccccc1OC

>  <score_type>  (10) 
oracle

>  <origin>  (10) 
adgpu

>  <m_score__min__energy>  (10) 
-9.8300000000000001

>  <m_primary>  (10) 
energy

$$$$
10:0
     RDKit          3D

 55 57  0  0  0  0  0  0  0  0999 V2000
   -4.1260   16.0700  -33.0420 C   0  0  0  0  0  0  0  0  0  0  0  0
   -3.9210   17.4430  -32.7240 O   0  0  0  0  0  0  0  0  0  0  0  0
   -4.9410   18.4070  -32.6610 C   0  0  0  0  0  0  0  0  0  0  0  0
   -6.2200   18.1030  -32.1520 C   0  0  0  0  0  0  0  0  0  0  0  0
   -7.2130   19.0840  -32.1070 C   0  0  0  0  0  0  0  0  0  0  0  0
   -6.9470   20.3730  -32.5680 C   0  0  0  0  0  0  0  0  0  0  0  0
   -5.6850   20.6880  -33.0740 C   0  0  0  0  0  0  0  0  0  0  0  0
   -4.6740   19.7140  -33.1190 C   0  0  0  0  0  0  0  0  0  0  0  0
   -3.3260   20.0610  -33.6970 C   0  0  0  0  0  0  0  0  0  0  0  0
   -2.2870   19.8780  -32.6860 N   0  0  0  0  0  0  0  0  0  0  0  0
   -1.1910   20.7900  -32.5340 C   0  0  0  0  0  0  0  0  0  0  0  0
   -1.1130   21.8200  -33.2580 O   0  0  0  0  0  0  0  0  0  0  0  0
   -0.1430   20.5400  -31.4900 C   0  0  0  0  0  0  0  0  0  0  0  0
   -0.7170   19.8470  -30.3330 N   0  0  0  0  0  0  0  0  0  0  0  0
   -0.0960   18.6670  -29.8020 C   0  0  0  0  0  0  0  0  0  0  0  0
    0.2210   18.6230  -28.4370 C   0  0  0  0  0  0  0  0  0  0  0  0
    0.8330   17.4950  -27.8900 C   0  0  0  0  0  0  0  0  0  0  0  0
    1.1310   16.3990  -28.7020 C   0  0  0  0  0  0  0  0  0  0  0  0
    0.8110   16.4270  -30.0620 C   0  0  0  0  0  0  0  0  0  0  0  0
    0.1810   17.5510  -30.6240 C   0  0  0  0  0  0  0  0  0  0  0  0
   -0.1390   17.5500  -32.0950 C   0  0  0  0  0  0  0  0  0  0  0  0
   -1.4460   17.0860  -32.2830 O   0  0  0  0  0  0  0  0  0  0  0  0
   -2.1600   20.4550  -29.5840 S   0  0  0  0  0  0  0  0  0  0  0  0
   -3.3470   20.1380  -30.4500 O   0  0  0  0  0  0  0  0  0  0  0  0
   -2.3610   19.7930  -28.2480 O   0  0  0  0  0  0  0  0  0  0  0  0
   -2.0140   22.1920  -29.3560 C   0  0  0  0  0  0  0  0  0  0  0  0
   -3.0960   23.0380  -29.6460 C   0  0  0  0  0  0  0  0  0  0  0  0
   -2.9590   24.4220  -29.5120 C   0  0  0  0  0  0  0  0  0  0  0  0
   -1.7420   24.9690  -29.0940 C   0  0  0  0  0  0  0  0  0  0  0  0
   -1.6060   26.3460  -28.9630 O   0  0  0  0  0  0  0  0  0  0  0  0
   -0.6600   24.1290  -28.8090 C   0  0  0  0  0  0  0  0  0  0  0  0
   -0.7940   22.7440  -28.9410 C   0  0  0  0  0  0  0  0  0  0  0  0
   -4.2130   15.4875  -32.1130 H   0  0  0  0  0  0  0  0  0  0  0  0
   -5.0500   15.9637  -33.6293 H   0  0  0  0  0  0  0  0  0  0  0  0
   -3.2734   15.6984  -33.6293 H   0  0  0  0  0  0  0  0  0  0  0  0
   -6.4370   17.0878  -31.7884 H   0  0  0  0  0  0  0  0  0  0  0  0
   -8.2079   18.8392  -31.7067 H   0  0  0  0  0  0  0  0  0  0  0  0
   -7.7326   21.1422  -32.5328 H   0  0  0  0  0  0  0  0  0  0  0  0
   -5.4809   21.7051  -33.4398 H   0  0  0  0  0  0  0  0  0  0  0  0
   -3.1182   19.4058  -34.5558 H   0  0  0  0  0  0  0  0  0  0  0  0
   -3.3322   21.1117  -34.0225 H   0  0  0  0  0  0  0  0  0  0  0  0
   -2.3480   19.0460  -32.0620 H   0  0  0  0  0  0  0  0  0  0  0  0
    0.6560   19.9197  -31.9222 H   0  0  0  0  0  0  0  0  0  0  0  0
    0.2614   21.5073  -31.1571 H   0  0  0  0  0  0  0  0  0  0  0  0
   -0.0143   19.4834  -27.7933 H   0  0  0  0  0  0  0  0  0  0  0  0
    1.0809   17.4690  -26.8186 H   0  0  0  0  0  0  0  0  0  0  0  0
    1.6184   15.5122  -28.2706 H   0  0  0  0  0  0  0  0  0  0  0  0
    1.0540   15.5628  -30.6977 H   0  0  0  0  0  0  0  0  0  0  0  0
   -0.0514   18.5725  -32.4909 H   0  0  0  0  0  0  0  0  0  0  0  0
    0.5656   16.8925  -32.6253 H   0  0  0  0  0  0  0  0  0  0  0  0
   -1.7850   17.5390  -33.0980 H   0  0  0  0  0  0  0  0  0  0  0  0
   -4.0532   22.6107  -29.9793 H   0  0  0  0  0  0  0  0  0  0  0  0
   -3.8099   25.0823  -29.7357 H   0  0  0  0  0  0  0  0  0  0  0  0
    0.2976   24.5592  -28.4805 H   0  0  0  0  0  0  0  0  0  0  0  0
    0.0591   22.0861  -28.7189 H   0  0  0  0  0  0  0  0  0  0  0  0
  1  2  1  0
  2  3  1  0
  3  4  2  0
  4  5  1  0
  5  6  2  0
  6  7  1  0
  7  8  2  0
  8  9  1  0
  9 10  1  0
 10 11  1  0
 11 12  2  0
 11 13  1  0
 13 14  1  0
 14 15  1  0
 15 16  2  0
 16 17  1  0
 17 18  2  0
 18 19  1  0
 19 20  2  0
 20 21  1  0
 21 22  1  0
 14 23  1  0
 23 24  2  0
 23 25  2  0
 23 26  1  0
 26 27  2  0
 27 28  1  0
 28 29  2  0
 29 30  1  0
 29 31  1  0
 31 32  2  0
  8  3  1  0
 20 15  1  0
 32 26  1  0
  1 33  1  0
  1 34  1  0
  1 35  1  0
  4 36  1  0
  5 37  1  0
  6 38  1  0
  7 39  1  0
  9 40  1  0
  9 41  1  0
 10 42  1  0
 13 43  1  0
 13 44  1  0
 16 45  1  0
 17 46  1  0
 18 47  1  0
 19 48  1  0
 21 49  1  0
 21 50  1  0
 22 51  1  0
 27 52  1  0
 28 53  1  0
 31 54  1  0
 32 55  1  0
M  CHG  1  30  -1
M  END
>  <UniqueID>  (11) 
11

>  <SMILES>  (11) 
COc1ccccc1CNC(=O)CN(c1ccccc1CO)S(=O)(=O)c1ccc([O-])cc1

>  <Energy>  (11) 
55.5020852017779

>  <Genealogy>  (11) 
COc1ccccc1CNC(=O)CN(c1ccccc1CO)S(=O)(=O)c1ccc([O-])cc1 (protonated)
COc1ccccc1CNC(=O)CN(c1ccccc1CO)S(=O)(=O)c1ccc([O-])cc1 (3D coordinates assigned)
COc1ccccc1CNC(=O)CN(c1ccccc1CO)S(=O)(=O)c1ccc([O-])cc1 (optimized conformer: 55.5020852017779 kcal/mol)

>  <smiles>  (11) 
COc1ccccc1CNC(=O)CN(c1ccccc1CO)S(=O)(=O)c1ccc(O)cc1

>  <score_type>  (11) 
oracle

>  <origin>  (11) 
adgpu

>  <m_score__min__energy>  (11) 
-10.4

>  <m_primary>  (11) 
energy

$$$$
11:0
     RDKit          3D

 47 49  0  0  0  0  0  0  0  0999 V2000
   -2.6460   19.2370  -26.0070 C   0  0  0  0  0  0  0  0  0  0  0  0
   -2.6810   20.1170  -27.2180 C   0  0  0  0  0  0  0  0  0  0  0  0
   -3.2520   19.6960  -28.2600 O   0  0  0  0  0  0  0  0  0  0  0  0
   -2.0110   21.3950  -27.2260 N   0  0  0  0  0  0  0  0  0  0  0  0
   -0.6830   21.4700  -26.5860 C   0  0  0  0  0  0  0  0  0  0  0  0
   -0.0890   22.8830  -26.6200 C   0  0  0  0  0  0  0  0  0  0  0  0
   -0.1870   23.4700  -28.0260 C   0  0  0  0  0  0  0  0  0  0  0  0
   -1.6230   23.5080  -28.4590 C   0  0  0  0  0  0  0  0  0  0  0  0
   -2.0820   24.5420  -29.2880 C   0  0  0  0  0  0  0  0  0  0  0  0
   -3.4250   24.6030  -29.6620 C   0  0  0  0  0  0  0  0  0  0  0  0
   -3.8610   25.6470  -30.4730 O   0  0  0  0  0  0  0  0  0  0  0  0
   -4.3290   23.6330  -29.2050 C   0  0  0  0  0  0  0  0  0  0  0  0
   -5.7120   23.7190  -29.5720 N   0  0  0  0  0  0  0  0  0  0  0  0
   -6.2650   23.4390  -31.1930 S   0  0  0  0  0  0  0  0  0  0  0  0
   -5.3350   24.0520  -32.2010 O   0  0  0  0  0  0  0  0  0  0  0  0
   -7.6110   24.0890  -31.3600 O   0  0  0  0  0  0  0  0  0  0  0  0
   -6.4060   21.6930  -31.4640 C   0  0  0  0  0  0  0  0  0  0  0  0
   -5.2430   20.9800  -31.7960 C   0  0  0  0  0  0  0  0  0  0  0  0
   -5.2880   19.6050  -32.0270 C   0  0  0  0  0  0  0  0  0  0  0  0
   -6.4990   18.9110  -31.9190 C   0  0  0  0  0  0  0  0  0  0  0  0
   -6.5580   17.4370  -32.1930 C   0  0  0  0  0  0  0  0  0  0  0  0
   -7.6730   19.6160  -31.6180 C   0  0  0  0  0  0  0  0  0  0  0  0
   -7.6450   21.0050  -31.3990 C   0  0  0  0  0  0  0  0  0  0  0  0
   -8.9340   21.7070  -31.0610 C   0  0  0  0  0  0  0  0  0  0  0  0
   -3.8630   22.5740  -28.4130 C   0  0  0  0  0  0  0  0  0  0  0  0
   -2.5030   22.4840  -28.0520 C   0  0  0  0  0  0  0  0  0  0  0  0
   -2.6708   19.8596  -25.1005 H   0  0  0  0  0  0  0  0  0  0  0  0
   -3.5182   18.5668  -26.0154 H   0  0  0  0  0  0  0  0  0  0  0  0
   -1.7233   18.6382  -26.0154 H   0  0  0  0  0  0  0  0  0  0  0  0
   -0.7796   21.1540  -25.5368 H   0  0  0  0  0  0  0  0  0  0  0  0
   -0.0053   20.8110  -27.1485 H   0  0  0  0  0  0  0  0  0  0  0  0
   -0.6430   23.5256  -25.9199 H   0  0  0  0  0  0  0  0  0  0  0  0
    0.9706   22.8308  -26.3291 H   0  0  0  0  0  0  0  0  0  0  0  0
    0.2218   24.4912  -28.0252 H   0  0  0  0  0  0  0  0  0  0  0  0
    0.3874   22.8427  -28.7236 H   0  0  0  0  0  0  0  0  0  0  0  0
   -1.3794   25.3092  -29.6454 H   0  0  0  0  0  0  0  0  0  0  0  0
   -6.4340   23.6530  -28.8200 H   0  0  0  0  0  0  0  0  0  0  0  0
   -4.2838   21.5126  -31.8750 H   0  0  0  0  0  0  0  0  0  0  0  0
   -4.3685   19.0640  -32.2950 H   0  0  0  0  0  0  0  0  0  0  0  0
   -6.5800   16.8876  -31.2403 H   0  0  0  0  0  0  0  0  0  0  0  0
   -7.4661   17.2073  -32.7698 H   0  0  0  0  0  0  0  0  0  0  0  0
   -5.6712   17.1355  -32.7698 H   0  0  0  0  0  0  0  0  0  0  0  0
   -8.6288   19.0755  -31.5523 H   0  0  0  0  0  0  0  0  0  0  0  0
   -9.0434   21.7666  -29.9681 H   0  0  0  0  0  0  0  0  0  0  0  0
   -8.9204   22.7223  -31.4840 H   0  0  0  0  0  0  0  0  0  0  0  0
   -9.7796   21.1448  -31.4840 H   0  0  0  0  0  0  0  0  0  0  0  0
   -4.5679   21.8030  -28.0686 H   0  0  0  0  0  0  0  0  0  0  0  0
  1  2  1  0
  2  3  2  0
  2  4  1  0
  4  5  1  0
  5  6  1  0
  6  7  1  0
  7  8  1  0
  8  9  2  0
  9 10  1  0
 10 11  1  0
 10 12  2  0
 12 13  1  0
 13 14  1  0
 14 15  2  0
 14 16  2  0
 14 17  1  0
 17 18  2  0
 18 19  1  0
 19 20  2  0
 20 21  1  0
 20 22  1  0
 22 23  2  0
 23 24  1  0
 12 25  1  0
 25 26  2  0
 26  4  1  0
 26  8  1  0
 23 17  1  0
  1 27  1  0
  1 28  1  0
  1 29  1  0
  5 30  1  0
  5 31  1  0
  6 32  1  0
  6 33  1  0
  7 34  1  0
  7 35  1  0
  9 36  1  0
 13 37  1  0
 18 38  1  0
 19 39  1  0
 21 40  1  0
 21 41  1  0
 21 42  1  0
 22 43  1  0
 24 44  1  0
 24 45  1  0
 24 46  1  0
 25 47  1  0
M  CHG  1  11  -1
M  END
>  <UniqueID>  (12) 
12

>  <SMILES>  (12) 
CC(=O)N1CCCc2cc([O-])c(NS(=O)(=O)c3ccc(C)cc3C)cc21

>  <Energy>  (12) 
60.50131588129289

>  <Genealogy>  (12) 
CC(=O)N1CCCc2cc([O-])c(NS(=O)(=O)c3ccc(C)cc3C)cc21 (protonated)
CC(=O)N1CCCc2cc([O-])c(NS(=O)(=O)c3ccc(C)cc3C)cc21 (3D coordinates assigned)
CC(=O)N1CCCc2cc([O-])c(NS(=O)(=O)c3ccc(C)cc3C)cc21 (nonaromatic ring conformer: 60.50131588129289 kcal/mol)

>  <smiles>  (12) 
CC(=O)N1CCCc2cc(O)c(NS(=O)(=O)c3ccc(C)cc3C)cc21

>  <score_type>  (12) 
oracle

>  <origin>  (12) 
adgpu

>  <m_score__min__energy>  (12) 
-12.390000000000001

>  <m_primary>  (12) 
energy

$$$$
12:0
     RDKit          3D

 56 59  0  0  0  0  0  0  0  0999 V2000
   -1.5810   20.8410  -26.3650 C   0  0  0  0  0  0  0  0  0  0  0  0
   -1.5700   22.1140  -27.1460 C   0  0  0  0  0  0  0  0  0  0  0  0
   -0.4060   22.8840  -27.2310 C   0  0  0  0  0  0  0  0  0  0  0  0
   -0.4240   24.0700  -27.9620 C   0  0  0  0  0  0  0  0  0  0  0  0
   -1.6010   24.4860  -28.5900 C   0  0  0  0  0  0  0  0  0  0  0  0
   -1.6090   25.6670  -29.3260 O   0  0  0  0  0  0  0  0  0  0  0  0
   -2.7590   23.7030  -28.4650 C   0  0  0  0  0  0  0  0  0  0  0  0
   -4.0400   24.1010  -29.1470 C   0  0  0  0  0  0  0  0  0  0  0  0
   -4.2430   23.3240  -30.3740 N   0  0  0  0  0  0  0  0  0  0  0  0
   -3.1760   22.7600  -30.9470 N   0  0  0  0  0  0  0  0  0  0  0  0
   -3.2600   21.9990  -32.0710 C   0  0  0  0  0  0  0  0  0  0  0  0
   -2.0250   21.4090  -32.6480 C   0  0  0  0  0  0  0  0  0  0  0  0
   -2.0180   20.8270  -33.9290 C   0  0  0  0  0  0  0  0  0  0  0  0
   -0.8440   20.2810  -34.4570 C   0  0  0  0  0  0  0  0  0  0  0  0
    0.3540   20.3150  -33.7230 C   0  0  0  0  0  0  0  0  0  0  0  0
    1.5880   19.7190  -34.2920 C   0  0  0  0  0  0  0  0  0  0  0  0
    2.7510   19.5070  -33.4880 N   0  0  0  0  0  0  0  0  0  0  0  0
    1.6250   19.4070  -35.5140 O   0  0  0  0  0  0  0  0  0  0  0  0
    0.3500   20.8990  -32.4450 C   0  0  0  0  0  0  0  0  0  0  0  0
   -0.8240   21.4450  -31.9170 C   0  0  0  0  0  0  0  0  0  0  0  0
   -4.5200   21.7820  -32.6380 C   0  0  0  0  0  0  0  0  0  0  0  0
   -5.6550   22.3590  -32.0570 C   0  0  0  0  0  0  0  0  0  0  0  0
   -7.0160   22.1340  -32.6760 C   0  0  0  0  0  0  0  0  0  0  0  0
   -7.4800   20.7030  -32.4820 C   0  0  0  0  0  0  0  0  0  0  0  0
   -8.5420   20.3730  -31.6080 C   0  0  0  0  0  0  0  0  0  0  0  0
   -9.3880   21.5800  -30.6450 Cl  0  0  0  0  0  0  0  0  0  0  0  0
   -8.9440   19.0400  -31.4710 C   0  0  0  0  0  0  0  0  0  0  0  0
   -8.3040   18.0290  -32.1850 C   0  0  0  0  0  0  0  0  0  0  0  0
   -7.2410   18.3360  -33.0430 C   0  0  0  0  0  0  0  0  0  0  0  0
   -6.5360   17.2460  -33.8010 C   0  0  0  0  0  0  0  0  0  0  0  0
   -6.8320   19.6710  -33.1910 C   0  0  0  0  0  0  0  0  0  0  0  0
   -5.7950   19.9630  -34.0200 F   0  0  0  0  0  0  0  0  0  0  0  0
   -5.4940   23.1380  -30.9000 C   0  0  0  0  0  0  0  0  0  0  0  0
   -6.4990   23.6580  -30.3410 O   0  0  0  0  0  0  0  0  0  0  0  0
   -2.7050   22.5380  -27.7620 N   0  0  0  0  0  0  0  0  0  0  0  0
   -1.5790   21.0708  -25.2893 H   0  0  0  0  0  0  0  0  0  0  0  0
   -2.4842   20.2651  -26.6153 H   0  0  0  0  0  0  0  0  0  0  0  0
   -0.6879   20.2496  -26.6153 H   0  0  0  0  0  0  0  0  0  0  0  0
    0.5147   22.5567  -26.7258 H   0  0  0  0  0  0  0  0  0  0  0  0
    0.4883   24.6789  -28.0448 H   0  0  0  0  0  0  0  0  0  0  0  0
   -4.8828   23.9213  -28.4634 H   0  0  0  0  0  0  0  0  0  0  0  0
   -3.9806   25.1670  -29.4119 H   0  0  0  0  0  0  0  0  0  0  0  0
   -2.9449   20.8013  -34.5207 H   0  0  0  0  0  0  0  0  0  0  0  0
   -0.8582   19.8207  -35.4559 H   0  0  0  0  0  0  0  0  0  0  0  0
    3.5720   19.0030  -33.8900 H   0  0  0  0  0  0  0  0  0  0  0  0
    2.8280   19.8840  -32.5190 H   0  0  0  0  0  0  0  0  0  0  0  0
    1.2780   20.9269  -31.8551 H   0  0  0  0  0  0  0  0  0  0  0  0
   -0.8081   21.9077  -30.9192 H   0  0  0  0  0  0  0  0  0  0  0  0
   -4.6187   21.1589  -33.5391 H   0  0  0  0  0  0  0  0  0  0  0  0
   -7.7412   22.8130  -32.2036 H   0  0  0  0  0  0  0  0  0  0  0  0
   -6.9434   22.3321  -33.7556 H   0  0  0  0  0  0  0  0  0  0  0  0
   -9.7730   18.7877  -30.7934 H   0  0  0  0  0  0  0  0  0  0  0  0
   -8.6351   16.9859  -32.0742 H   0  0  0  0  0  0  0  0  0  0  0  0
   -6.0800   16.5410  -33.0903 H   0  0  0  0  0  0  0  0  0  0  0  0
   -7.2602   16.7119  -34.4337 H   0  0  0  0  0  0  0  0  0  0  0  0
   -5.7519   17.6875  -34.4337 H   0  0  0  0  0  0  0  0  0  0  0  0
  1  2  1  0
  2  3  2  0
  3  4  1  0
  4  5  2  0
  5  6  1  0
  5  7  1  0
  7  8  1  0
  8  9  1  0
  9 10  1  0
 10 11  2  0
 11 12  1  0
 12 13  2  0
 13 14  1  0
 14 15  2  0
 15 16  1  0
 16 17  1  0
 16 18  2  0
 15 19  1  0
 19 20  2  0
 11 21  1  0
 21 22  2  0
 22 23  1  0
 23 24  1  0
 24 25  2  0
 25 26  1  0
 25 27  1  0
 27 28  2  0
 28 29  1  0
 29 30  1  0
 29 31  2  0
 31 32  1  0
 22 33  1  0
 33 34  2  0
  7 35  2  0
 35  2  1  0
 33  9  1  0
 20 12  1  0
 31 24  1  0
  1 36  1  0
  1 37  1  0
  1 38  1  0
  3 39  1  0
  4 40  1  0
  8 41  1  0
  8 42  1  0
 13 43  1  0
 14 44  1  0
 17 45  1  0
 17 46  1  0
 19 47  1  0
 20 48  1  0
 21 49  1  0
 23 50  1  0
 23 51  1  0
 27 52  1  0
 28 53  1  0
 30 54  1  0
 30 55  1  0
 30 56  1  0
M  CHG  1   6  -1
M  END
>  <UniqueID>  (13) 
13

>  <SMILES>  (13) 
Cc1ccc([O-])c(Cn2nc(-c3ccc(C(N)=O)cc3)cc(Cc3c(Cl)ccc(C)c3F)c2=O)n1

>  <Energy>  (13) 
68.76242858064268

>  <Genealogy>  (13) 
Cc1ccc([O-])c(Cn2nc(-c3ccc(C(N)=O)cc3)cc(Cc3c(Cl)ccc(C)c3F)c2=O)n1 (protonated)
Cc1ccc([O-])c(Cn2nc(-c3ccc(C(N)=O)cc3)cc(Cc3c(Cl)ccc(C)c3F)c2=O)n1 (3D coordinates assigned)
Cc1ccc([O-])c(Cn2nc(-c3ccc(C(N)=O)cc3)cc(Cc3c(Cl)ccc(C)c3F)c2=O)n1 (optimized conformer: 68.76242858064268 kcal/mol)

>  <smiles>  (13) 
Cc1ccc(O)c(Cn2nc(-c3ccc(C(N)=O)cc3)cc(Cc3c(Cl)ccc(C)c3F)c2=O)n1

>  <score_type>  (13) 
oracle

>  <origin>  (13) 
adgpu

>  <m_score__min__energy>  (13) 
-13.91

>  <m_primary>  (13) 
energy

$$$$
13:0
     RDKit          3D

 32 33  0  0  0  0  0  0  0  0999 V2000
   -9.5980   21.7110  -31.9900 N   0  0  0  0  0  0  0  0  0  0  0  0
   -8.4510   20.9350  -32.3320 C   0  0  0  0  0  0  0  0  0  0  0  0
   -8.6070   19.7560  -32.7510 O   0  0  0  0  0  0  0  0  0  0  0  0
   -7.0990   21.5330  -32.2510 C   0  0  0  0  0  0  0  0  0  0  0  0
   -6.0330   20.8610  -32.8700 C   0  0  0  0  0  0  0  0  0  0  0  0
   -4.7180   21.3380  -32.7690 C   0  0  0  0  0  0  0  0  0  0  0  0
   -3.6360   20.6300  -33.4050 N   0  0  0  0  0  0  0  0  0  0  0  0
   -2.5150   21.1650  -33.5360 O   0  0  0  0  0  0  0  0  0  0  0  0
   -3.8190   19.3530  -33.8820 O   0  0  0  0  0  0  0  0  0  0  0  0
   -4.4720   22.5060  -32.0300 C   0  0  0  0  0  0  0  0  0  0  0  0
   -5.5220   23.2000  -31.4170 C   0  0  0  0  0  0  0  0  0  0  0  0
   -5.1870   24.6830  -30.5180 S   0  0  0  0  0  0  0  0  0  0  0  0
   -5.8040   25.8440  -31.2470 O   0  0  0  0  0  0  0  0  0  0  0  0
   -5.7760   24.5670  -29.1400 O   0  0  0  0  0  0  0  0  0  0  0  0
   -3.4750   24.9290  -30.3850 N   0  0  0  0  0  0  0  0  0  0  0  0
   -2.6080   24.2460  -29.4690 C   0  0  0  0  0  0  0  0  0  0  0  0
   -2.8470   22.9170  -29.0670 C   0  0  0  0  0  0  0  0  0  0  0  0
   -1.9780   22.2850  -28.1720 C   0  0  0  0  0  0  0  0  0  0  0  0
   -0.8670   22.9700  -27.6720 C   0  0  0  0  0  0  0  0  0  0  0  0
   -0.6230   24.2870  -28.0660 C   0  0  0  0  0  0  0  0  0  0  0  0
   -1.4890   24.9240  -28.9610 C   0  0  0  0  0  0  0  0  0  0  0  0
   -1.2340   26.2370  -29.3440 O   0  0  0  0  0  0  0  0  0  0  0  0
   -6.8430   22.7340  -31.5460 C   0  0  0  0  0  0  0  0  0  0  0  0
   -7.8760   23.5020  -30.9960 O   0  0  0  0  0  0  0  0  0  0  0  0
   -9.5870   22.7510  -32.0710 H   0  0  0  0  0  0  0  0  0  0  0  0
   -6.2327   19.9443  -33.4443 H   0  0  0  0  0  0  0  0  0  0  0  0
   -3.4423   22.8802  -31.9315 H   0  0  0  0  0  0  0  0  0  0  0  0
   -3.7202   22.3746  -29.4585 H   0  0  0  0  0  0  0  0  0  0  0  0
   -2.1691   21.2473  -27.8611 H   0  0  0  0  0  0  0  0  0  0  0  0
   -0.1847   22.4713  -26.9679 H   0  0  0  0  0  0  0  0  0  0  0  0
    0.2519   24.8248  -27.6719 H   0  0  0  0  0  0  0  0  0  0  0  0
   -8.8560   23.2760  -31.0980 H   0  0  0  0  0  0  0  0  0  0  0  0
  1  2  1  0
  2  3  2  0
  2  4  1  0
  4  5  2  0
  5  6  1  0
  6  7  1  0
  7  8  2  0
  7  9  1  0
  6 10  2  0
 10 11  1  0
 11 12  1  0
 12 13  2  0
 12 14  2  0
 12 15  1  0
 15 16  1  0
 16 17  2  0
 17 18  1  0
 18 19  2  0
 19 20  1  0
 20 21  2  0
 21 22  1  0
 11 23  2  0
 23 24  1  0
 23  4  1  0
 21 16  1  0
  1 25  1  0
  5 26  1  0
 10 27  1  0
 17 28  1  0
 18 29  1  0
 19 30  1  0
 20 31  1  0
 24 32  1  0
M  CHG  5   1  -1   7   1   9  -1  15  -1  22  -1
M  END
>  <UniqueID>  (14) 
14

>  <SMILES>  (14) 
[NH-]C(=O)c1cc([N+](=O)[O-])cc(S(=O)(=O)[N-]c2ccccc2[O-])c1O

>  <Energy>  (14) 
44.7327222933621

>  <Genealogy>  (14) 
[NH-]C(=O)c1cc([N+](=O)[O-])cc(S(=O)(=O)[N-]c2ccccc2[O-])c1O (protonated)
[NH-]C(=O)c1cc([N+](=O)[O-])cc(S(=O)(=O)[N-]c2ccccc2[O-])c1O (3D coordinates assigned)
[NH-]C(=O)c1cc([N+](=O)[O-])cc(S(=O)(=O)[N-]c2ccccc2[O-])c1O (optimized conformer: 44.7327222933621 kcal/mol)

>  <smiles>  (14) 
NC(=O)c1cc([N+](=O)[O-])cc(S(=O)(=O)Nc2ccccc2O)c1O

>  <score_type>  (14) 
oracle

>  <origin>  (14) 
adgpu

>  <m_score__min__energy>  (14) 
-12.31

>  <m_primary>  (14) 
energy

$$$$
14:0
     RDKit          3D

 56 59  0  0  0  0  0  0  0  0999 V2000
   -6.1720   18.3470  -31.5360 C   0  0  0  0  0  0  0  0  0  0  0  0
   -5.8740   19.6760  -32.1580 C   0  0  0  0  0  0  0  0  0  0  0  0
   -4.9470   19.7540  -33.0080 O   0  0  0  0  0  0  0  0  0  0  0  0
   -6.5770   20.8680  -31.7570 N   0  0  0  0  0  0  0  0  0  0  0  0
   -8.0350   20.8680  -31.9530 C   0  0  0  0  0  0  0  0  0  0  0  0
   -8.7070   22.0670  -31.2800 C   0  0  0  0  0  0  0  0  0  0  0  0
   -8.0280   23.3660  -31.7110 C   0  0  0  0  0  0  0  0  0  0  0  0
   -6.5620   23.3190  -31.3850 C   0  0  0  0  0  0  0  0  0  0  0  0
   -5.8750   24.5030  -31.0880 C   0  0  0  0  0  0  0  0  0  0  0  0
   -4.5160   24.4740  -30.7600 C   0  0  0  0  0  0  0  0  0  0  0  0
   -3.8640   25.6680  -30.4750 O   0  0  0  0  0  0  0  0  0  0  0  0
   -3.8200   23.2520  -30.7200 C   0  0  0  0  0  0  0  0  0  0  0  0
   -2.4180   23.2400  -30.3750 N   0  0  0  0  0  0  0  0  0  0  0  0
   -1.5650   21.8340  -29.8120 S   0  0  0  0  0  0  0  0  0  0  0  0
   -2.2770   21.2690  -28.6150 O   0  0  0  0  0  0  0  0  0  0  0  0
   -0.1770   22.2380  -29.4060 O   0  0  0  0  0  0  0  0  0  0  0  0
   -1.4430   20.6140  -31.0800 C   0  0  0  0  0  0  0  0  0  0  0  0
   -1.9540   20.8850  -32.3570 C   0  0  0  0  0  0  0  0  0  0  0  0
   -1.8920   19.9130  -33.3620 C   0  0  0  0  0  0  0  0  0  0  0  0
   -1.3170   18.6610  -33.1020 C   0  0  0  0  0  0  0  0  0  0  0  0
   -1.3220   17.4020  -34.3440 S   0  0  0  0  0  0  0  0  0  0  0  0
   -0.3810   16.3030  -33.9290 O   0  0  0  0  0  0  0  0  0  0  0  0
   -0.8090   17.9880  -35.6310 O   0  0  0  0  0  0  0  0  0  0  0  0
   -2.9020   16.7160  -34.6270 N   0  0  0  0  0  0  0  0  0  0  0  0
   -3.4090   15.9840  -33.4690 C   0  0  0  0  0  0  0  0  0  0  0  0
   -4.9210   15.9450  -33.6310 C   0  0  0  0  0  0  0  0  0  0  0  0
   -5.2520   17.1170  -34.5510 C   0  0  0  0  0  0  0  0  0  0  0  0
   -3.9070   17.7390  -34.9050 C   0  0  0  0  0  0  0  0  0  0  0  0
   -0.8030   18.3910  -31.8240 C   0  0  0  0  0  0  0  0  0  0  0  0
   -0.8710   19.3610  -30.8190 C   0  0  0  0  0  0  0  0  0  0  0  0
   -4.5120   22.0670  -31.0280 C   0  0  0  0  0  0  0  0  0  0  0  0
   -5.8700   22.0890  -31.4070 C   0  0  0  0  0  0  0  0  0  0  0  0
   -6.1507   18.4419  -30.4403 H   0  0  0  0  0  0  0  0  0  0  0  0
   -7.1685   18.0079  -31.8554 H   0  0  0  0  0  0  0  0  0  0  0  0
   -5.4157   17.6148  -31.8554 H   0  0  0  0  0  0  0  0  0  0  0  0
   -8.2477   20.9017  -33.0317 H   0  0  0  0  0  0  0  0  0  0  0  0
   -8.4381   19.9529  -31.4947 H   0  0  0  0  0  0  0  0  0  0  0  0
   -9.7677   22.0984  -31.5698 H   0  0  0  0  0  0  0  0  0  0  0  0
   -8.6176   21.9614  -30.1887 H   0  0  0  0  0  0  0  0  0  0  0  0
   -8.1548   23.4997  -32.7955 H   0  0  0  0  0  0  0  0  0  0  0  0
   -8.4884   24.2072  -31.1722 H   0  0  0  0  0  0  0  0  0  0  0  0
   -6.4093   25.4642  -31.1130 H   0  0  0  0  0  0  0  0  0  0  0  0
   -1.8430   24.0970  -30.5340 H   0  0  0  0  0  0  0  0  0  0  0  0
   -2.4054   21.8653  -32.5699 H   0  0  0  0  0  0  0  0  0  0  0  0
   -2.2965   20.1324  -34.3611 H   0  0  0  0  0  0  0  0  0  0  0  0
   -2.9994   14.9633  -33.4520 H   0  0  0  0  0  0  0  0  0  0  0  0
   -3.1159   16.4672  -32.5253 H   0  0  0  0  0  0  0  0  0  0  0  0
   -5.2363   14.9949  -34.0870 H   0  0  0  0  0  0  0  0  0  0  0  0
   -5.4414   16.0195  -32.6647 H   0  0  0  0  0  0  0  0  0  0  0  0
   -5.7639   16.7629  -35.4579 H   0  0  0  0  0  0  0  0  0  0  0  0
   -5.9256   17.8408  -34.0688 H   0  0  0  0  0  0  0  0  0  0  0  0
   -3.8836   18.0181  -35.9687 H   0  0  0  0  0  0  0  0  0  0  0  0
   -3.7214   18.6535  -34.3226 H   0  0  0  0  0  0  0  0  0  0  0  0
   -0.3453   17.4134  -31.6124 H   0  0  0  0  0  0  0  0  0  0  0  0
   -0.4733   19.1395  -29.8176 H   0  0  0  0  0  0  0  0  0  0  0  0
   -3.9834   21.1040  -30.9721 H   0  0  0  0  0  0  0  0  0  0  0  0
  1  2  1  0
  2  3  2  0
  2  4  1  0
  4  5  1  0
  5  6  1  0
  6  7  1  0
  7  8  1  0
  8  9  2  0
  9 10  1  0
 10 11  1  0
 10 12  2  0
 12 13  1  0
 13 14  1  0
 14 15  2  0
 14 16  2  0
 14 17  1  0
 17 18  2  0
 18 19  1  0
 19 20  2  0
 20 21  1  0
 21 22  2  0
 21 23  2  0
 21 24  1  0
 24 25  1  0
 25 26  1  0
 26 27  1  0
 27 28  1  0
 20 29  1  0
 29 30  2  0
 12 31  1  0
 31 32  2  0
 32  4  1  0
 32  8  1  0
 30 17  1  0
 28 24  1  0
  1 33  1  0
  1 34  1  0
  1 35  1  0
  5 36  1  0
  5 37  1  0
  6 38  1  0
  6 39  1  0
  7 40  1  0
  7 41  1  0
  9 42  1  0
 13 43  1  0
 18 44  1  0
 19 45  1  0
 25 46  1  0
 25 47  1  0
 26 48  1  0
 26 49  1  0
 27 50  1  0
 27 51  1  0
 28 52  1  0
 28 53  1  0
 29 54  1  0
 30 55  1  0
 31 56  1  0
M  CHG  1  11  -1
M  END
>  <UniqueID>  (15) 
15

>  <SMILES>  (15) 
CC(=O)N1CCCc2cc([O-])c(NS(=O)(=O)c3ccc(S(=O)(=O)N4CCCC4)cc3)cc21

>  <Energy>  (15) 
64.40922363746742

>  <Genealogy>  (15) 
CC(=O)N1CCCc2cc([O-])c(NS(=O)(=O)c3ccc(S(=O)(=O)N4CCCC4)cc3)cc21 (protonated)
CC(=O)N1CCCc2cc([O-])c(NS(=O)(=O)c3ccc(S(=O)(=O)N4CCCC4)cc3)cc21 (3D coordinates assigned)
CC(=O)N1CCCc2cc([O-])c(NS(=O)(=O)c3ccc(S(=O)(=O)N4CCCC4)cc3)cc21 (nonaromatic ring conformer: 64.40922363746742 kcal/mol)

>  <smiles>  (15) 
CC(=O)N1CCCc2cc(O)c(NS(=O)(=O)c3ccc(S(=O)(=O)N4CCCC4)cc3)cc21

>  <score_type>  (15) 
oracle

>  <origin>  (15) 
adgpu

>  <m_score__min__energy>  (15) 
-14.57

>  <m_primary>  (15) 
energy

$$$$
15:0
     RDKit          3D

 56 59  0  0  0  0  0  0  0  0999 V2000
   -0.3840   18.9580  -28.8580 C   0  0  0  0  0  0  0  0  0  0  0  0
   -0.8830   20.3750  -28.9520 C   0  0  0  0  0  0  0  0  0  0  0  0
   -1.0040   21.1170  -27.7640 C   0  0  0  0  0  0  0  0  0  0  0  0
   -1.5250   22.4090  -27.7780 C   0  0  0  0  0  0  0  0  0  0  0  0
   -1.9320   22.9910  -28.9790 C   0  0  0  0  0  0  0  0  0  0  0  0
   -2.7340   24.5610  -28.9530 S   0  0  0  0  0  0  0  0  0  0  0  0
   -3.7330   24.5770  -27.8320 O   0  0  0  0  0  0  0  0  0  0  0  0
   -1.7390   25.6690  -28.7390 O   0  0  0  0  0  0  0  0  0  0  0  0
   -3.5560   24.8010  -30.4600 N   0  0  0  0  0  0  0  0  0  0  0  0
   -4.7700   24.1230  -30.8190 C   0  0  0  0  0  0  0  0  0  0  0  0
   -4.7580   23.0420  -31.7220 C   0  0  0  0  0  0  0  0  0  0  0  0
   -5.9190   22.2910  -31.9430 C   0  0  0  0  0  0  0  0  0  0  0  0
   -7.1170   22.6540  -31.3140 C   0  0  0  0  0  0  0  0  0  0  0  0
   -7.1570   23.7810  -30.4880 C   0  0  0  0  0  0  0  0  0  0  0  0
   -5.9880   24.5070  -30.2230 C   0  0  0  0  0  0  0  0  0  0  0  0
   -6.0560   25.5900  -29.3480 O   0  0  0  0  0  0  0  0  0  0  0  0
   -8.3410   21.8160  -31.5650 C   0  0  0  0  0  0  0  0  0  0  0  0
   -8.0140   20.3060  -31.4950 C   0  0  0  0  0  0  0  0  0  0  0  0
   -6.6240   19.9120  -32.0660 C   0  0  0  0  0  0  0  0  0  0  0  0
   -5.9070   21.0560  -32.8040 C   0  0  0  0  0  0  0  0  0  0  0  0
   -1.8040   22.2720  -30.1730 C   0  0  0  0  0  0  0  0  0  0  0  0
   -1.2950   20.9630  -30.1790 C   0  0  0  0  0  0  0  0  0  0  0  0
   -1.2410   20.1170  -31.7450 S   0  0  0  0  0  0  0  0  0  0  0  0
   -0.7410   18.7090  -31.5810 O   0  0  0  0  0  0  0  0  0  0  0  0
   -2.6420   20.0310  -32.2850 O   0  0  0  0  0  0  0  0  0  0  0  0
   -0.2400   20.9530  -32.9090 N   0  0  0  0  0  0  0  0  0  0  0  0
   -0.9970   21.2460  -34.1360 C   0  0  0  0  0  0  0  0  0  0  0  0
   -0.0610   21.8100  -35.2270 C   0  0  0  0  0  0  0  0  0  0  0  0
    1.2130   22.1200  -34.7010 O   0  0  0  0  0  0  0  0  0  0  0  0
    1.8410   20.9390  -34.2300 C   0  0  0  0  0  0  0  0  0  0  0  0
    0.9550   20.1630  -33.2340 C   0  0  0  0  0  0  0  0  0  0  0  0
   -0.2840   18.6739  -27.8000 H   0  0  0  0  0  0  0  0  0  0  0  0
   -1.0988   18.2840  -29.3526 H   0  0  0  0  0  0  0  0  0  0  0  0
    0.5955   18.8806  -29.3526 H   0  0  0  0  0  0  0  0  0  0  0  0
   -0.6831   20.6715  -26.8108 H   0  0  0  0  0  0  0  0  0  0  0  0
   -1.6159   22.9729  -26.8379 H   0  0  0  0  0  0  0  0  0  0  0  0
   -3.8313   22.7863  -32.2566 H   0  0  0  0  0  0  0  0  0  0  0  0
   -8.1114   24.0998  -30.0435 H   0  0  0  0  0  0  0  0  0  0  0  0
   -5.3260   25.7910  -28.6810 H   0  0  0  0  0  0  0  0  0  0  0  0
   -9.0997   22.0537  -30.8048 H   0  0  0  0  0  0  0  0  0  0  0  0
   -8.7156   22.0431  -32.5740 H   0  0  0  0  0  0  0  0  0  0  0  0
   -8.0504   19.9968  -30.4400 H   0  0  0  0  0  0  0  0  0  0  0  0
   -8.7612   19.7985  -32.1228 H   0  0  0  0  0  0  0  0  0  0  0  0
   -5.9866   19.5849  -31.2313 H   0  0  0  0  0  0  0  0  0  0  0  0
   -6.7959   19.1141  -32.8034 H   0  0  0  0  0  0  0  0  0  0  0  0
   -4.8672   20.7637  -33.0121 H   0  0  0  0  0  0  0  0  0  0  0  0
   -6.4251   21.2637  -33.7519 H   0  0  0  0  0  0  0  0  0  0  0  0
   -2.1068   22.7395  -31.1216 H   0  0  0  0  0  0  0  0  0  0  0  0
   -1.4641   20.3202  -34.5030 H   0  0  0  0  0  0  0  0  0  0  0  0
   -1.7691   21.9954  -33.9074 H   0  0  0  0  0  0  0  0  0  0  0  0
    0.0532   21.0602  -36.0237 H   0  0  0  0  0  0  0  0  0  0  0  0
   -0.5071   22.7342  -35.6230 H   0  0  0  0  0  0  0  0  0  0  0  0
    2.0610   20.2884  -35.0892 H   0  0  0  0  0  0  0  0  0  0  0  0
    2.7609   21.2336  -33.7037 H   0  0  0  0  0  0  0  0  0  0  0  0
    0.6492   19.2075  -33.6852 H   0  0  0  0  0  0  0  0  0  0  0  0
    1.5256   19.9729  -32.3130 H   0  0  0  0  0  0  0  0  0  0  0  0
  1  2  1  0
  2  3  2  0
  3  4  1  0
  4  5  2  0
  5  6  1  0
  6  7  2  0
  6  8  2  0
  6  9  1  0
  9 10  1  0
 10 11  2  0
 11 12  1  0
 12 13  2  0
 13 14  1  0
 14 15  2  0
 15 16  1  0
 13 17  1  0
 17 18  1  0
 18 19  1  0
 19 20  1  0
  5 21  1  0
 21 22  2  0
 22 23  1  0
 23 24  2  0
 23 25  2  0
 23 26  1  0
 26 27  1  0
 27 28  1  0
 28 29  1  0
 29 30  1  0
 30 31  1  0
 22  2  1  0
 31 26  1  0
 15 10  1  0
 20 12  1  0
  1 32  1  0
  1 33  1  0
  1 34  1  0
  3 35  1  0
  4 36  1  0
 11 37  1  0
 14 38  1  0
 16 39  1  0
 17 40  1  0
 17 41  1  0
 18 42  1  0
 18 43  1  0
 19 44  1  0
 19 45  1  0
 20 46  1  0
 20 47  1  0
 21 48  1  0
 27 49  1  0
 27 50  1  0
 28 51  1  0
 28 52  1  0
 30 53  1  0
 30 54  1  0
 31 55  1  0
 31 56  1  0
M  CHG  1   9  -1
M  END
>  <UniqueID>  (16) 
16

>  <SMILES>  (16) 
Cc1ccc(S(=O)(=O)[N-]c2cc3c(cc2O)CCCC3)cc1S(=O)(=O)N1CCOCC1

>  <Energy>  (16) 
75.63992359619104

>  <Genealogy>  (16) 
Cc1ccc(S(=O)(=O)[N-]c2cc3c(cc2O)CCCC3)cc1S(=O)(=O)N1CCOCC1 (protonated)
Cc1ccc(S(=O)(=O)[N-]c2cc3c(cc2O)CCCC3)cc1S(=O)(=O)N1CCOCC1 (3D coordinates assigned)
Cc1ccc(S(=O)(=O)[N-]c2cc3c(cc2O)CCCC3)cc1S(=O)(=O)N1CCOCC1 (nonaromatic ring conformer: 75.63992359619104 kcal/mol)

>  <smiles>  (16) 
Cc1ccc(S(=O)(=O)Nc2cc3c(cc2O)CCCC3)cc1S(=O)(=O)N1CCOCC1

>  <score_type>  (16) 
oracle

>  <origin>  (16) 
adgpu

>  <m_score__min__energy>  (16) 
-12.93

>  <m_primary>  (16) 
energy

$$$$
16:0
     RDKit          3D

 32 34  0  0  0  0  0  0  0  0999 V2000
   -6.1210   26.0450  -30.3340 O   0  0  0  0  0  0  0  0  0  0  0  0
   -5.1650   24.8930  -30.2050 S   0  0  0  0  0  0  0  0  0  0  0  0
   -3.8560   25.2710  -30.8360 O   0  0  0  0  0  0  0  0  0  0  0  0
   -4.9120   24.5540  -28.5220 N   0  0  0  0  0  0  0  0  0  0  0  0
   -3.7550   23.8730  -28.0030 C   0  0  0  0  0  0  0  0  0  0  0  0
   -3.5540   22.5210  -28.3170 C   0  0  0  0  0  0  0  0  0  0  0  0
   -2.4410   21.8410  -27.8210 C   0  0  0  0  0  0  0  0  0  0  0  0
   -1.5300   22.5200  -27.0120 C   0  0  0  0  0  0  0  0  0  0  0  0
   -1.7300   23.8320  -26.7170 N   0  0  0  0  0  0  0  0  0  0  0  0
   -2.8060   24.5170  -27.1870 C   0  0  0  0  0  0  0  0  0  0  0  0
   -5.7960   23.4640  -31.0200 C   0  0  0  0  0  0  0  0  0  0  0  0
   -4.9450   22.6850  -31.8150 C   0  0  0  0  0  0  0  0  0  0  0  0
   -5.4280   21.5430  -32.4580 C   0  0  0  0  0  0  0  0  0  0  0  0
   -6.7720   21.1680  -32.3150 C   0  0  0  0  0  0  0  0  0  0  0  0
   -7.2690   20.0230  -32.9550 C   0  0  0  0  0  0  0  0  0  0  0  0
   -8.6100   19.6610  -32.8050 C   0  0  0  0  0  0  0  0  0  0  0  0
   -9.4650   20.4380  -32.0170 C   0  0  0  0  0  0  0  0  0  0  0  0
   -8.9820   21.5820  -31.3740 C   0  0  0  0  0  0  0  0  0  0  0  0
   -7.6370   21.9570  -31.5160 C   0  0  0  0  0  0  0  0  0  0  0  0
   -7.1410   23.1010  -30.8750 C   0  0  0  0  0  0  0  0  0  0  0  0
   -5.6230   24.9260  -27.8530 H   0  0  0  0  0  0  0  0  0  0  0  0
   -4.2770   21.9942  -28.9572 H   0  0  0  0  0  0  0  0  0  0  0  0
   -2.2837   20.7801  -28.0656 H   0  0  0  0  0  0  0  0  0  0  0  0
   -0.6501   21.9942  -26.6128 H   0  0  0  0  0  0  0  0  0  0  0  0
   -2.9355   25.5784  -26.9287 H   0  0  0  0  0  0  0  0  0  0  0  0
   -3.8904   22.9745  -31.9334 H   0  0  0  0  0  0  0  0  0  0  0  0
   -4.7523   20.9359  -33.0784 H   0  0  0  0  0  0  0  0  0  0  0  0
   -6.6012   19.4085  -33.5766 H   0  0  0  0  0  0  0  0  0  0  0  0
   -8.9946   18.7618  -33.3084 H   0  0  0  0  0  0  0  0  0  0  0  0
  -10.5201   20.1486  -31.9027 H   0  0  0  0  0  0  0  0  0  0  0  0
   -9.6583   22.1899  -30.7550 H   0  0  0  0  0  0  0  0  0  0  0  0
   -7.8107   23.7159  -30.2558 H   0  0  0  0  0  0  0  0  0  0  0  0
  1  2  2  0
  2  3  2  0
  2  4  1  0
  4  5  1  0
  5  6  2  0
  6  7  1  0
  7  8  2  0
  8  9  1  0
  9 10  2  0
  2 11  1  0
 11 12  2  0
 12 13  1  0
 13 14  2  0
 14 15  1  0
 15 16  2  0
 16 17  1  0
 17 18  2  0
 18 19  1  0
 19 20  2  0
 10  5  1  0
 20 11  1  0
 19 14  1  0
  4 21  1  0
  6 22  1  0
  7 23  1  0
  8 24  1  0
 10 25  1  0
 12 26  1  0
 13 27  1  0
 15 28  1  0
 16 29  1  0
 17 30  1  0
 18 31  1  0
 20 32  1  0
M  END
>  <UniqueID>  (17) 
17

>  <SMILES>  (17) 
O=S(=O)(Nc1cccnc1)c1ccc2ccccc2c1

>  <Energy>  (17) 
41.23906081421333

>  <Genealogy>  (17) 
O=S(=O)(Nc1cccnc1)c1ccc2ccccc2c1 (3D coordinates assigned)
O=S(=O)(Nc1cccnc1)c1ccc2ccccc2c1 (optimized conformer: 41.23906081421333 kcal/mol)

>  <smiles>  (17) 
O=S(=O)(Nc1cccnc1)c1ccc2ccccc2c1

>  <score_type>  (17) 
oracle

>  <origin>  (17) 
adgpu

>  <m_score__min__energy>  (17) 
-9.1300000000000008

>  <m_primary>  (17) 
energy

$$$$
17:0
     RDKit          3D

 47 49  0  0  0  0  0  0  0  0999 V2000
   -5.1740   17.0860  -34.2820 C   0  0  0  0  0  0  0  0  0  0  0  0
   -6.1330   17.9890  -33.5650 C   0  0  0  0  0  0  0  0  0  0  0  0
   -7.1130   17.4510  -32.7180 C   0  0  0  0  0  0  0  0  0  0  0  0
   -8.0320   18.2890  -32.0780 C   0  0  0  0  0  0  0  0  0  0  0  0
   -7.9820   19.6780  -32.2780 C   0  0  0  0  0  0  0  0  0  0  0  0
   -8.9910   20.5700  -31.6090 C   0  0  0  0  0  0  0  0  0  0  0  0
   -8.3130   21.5690  -30.7900 N   0  0  0  0  0  0  0  0  0  0  0  0
   -7.8960   22.8490  -31.2800 C   0  0  0  0  0  0  0  0  0  0  0  0
   -8.6550   23.5020  -32.0470 O   0  0  0  0  0  0  0  0  0  0  0  0
   -6.5770   23.4010  -30.8950 C   0  0  0  0  0  0  0  0  0  0  0  0
   -6.4870   24.5680  -30.1160 C   0  0  0  0  0  0  0  0  0  0  0  0
   -5.2400   25.0860  -29.7540 C   0  0  0  0  0  0  0  0  0  0  0  0
   -4.0580   24.4400  -30.1580 C   0  0  0  0  0  0  0  0  0  0  0  0
   -2.7600   24.9230  -29.7900 N   0  0  0  0  0  0  0  0  0  0  0  0
   -1.7360   24.2170  -28.5820 S   0  0  0  0  0  0  0  0  0  0  0  0
   -2.1840   22.8070  -28.3180 O   0  0  0  0  0  0  0  0  0  0  0  0
   -0.3230   24.1940  -29.0930 O   0  0  0  0  0  0  0  0  0  0  0  0
   -1.8500   25.1360  -27.0810 C   0  0  0  0  0  0  0  0  0  0  0  0
   -2.9480   25.3050  -26.2590 C   0  0  0  0  0  0  0  0  0  0  0  0
   -4.3120   24.7260  -26.4470 C   0  0  0  0  0  0  0  0  0  0  0  0
   -2.5940   26.0550  -25.1960 N   0  0  0  0  0  0  0  0  0  0  0  0
   -1.3350   26.3570  -25.3430 O   0  0  0  0  0  0  0  0  0  0  0  0
   -0.8470   25.8390  -26.4470 C   0  0  0  0  0  0  0  0  0  0  0  0
    0.5730   25.9830  -26.8870 C   0  0  0  0  0  0  0  0  0  0  0  0
   -4.1460   23.2800  -30.9350 C   0  0  0  0  0  0  0  0  0  0  0  0
   -5.3910   22.7650  -31.3050 C   0  0  0  0  0  0  0  0  0  0  0  0
   -7.0190   20.2150  -33.1470 C   0  0  0  0  0  0  0  0  0  0  0  0
   -6.1020   19.3750  -33.7890 C   0  0  0  0  0  0  0  0  0  0  0  0
   -4.5786   16.5253  -33.5464 H   0  0  0  0  0  0  0  0  0  0  0  0
   -5.7357   16.3813  -34.9127 H   0  0  0  0  0  0  0  0  0  0  0  0
   -4.5043   17.6891  -34.9127 H   0  0  0  0  0  0  0  0  0  0  0  0
   -7.1591   16.3640  -32.5561 H   0  0  0  0  0  0  0  0  0  0  0  0
   -8.7970   17.8582  -31.4153 H   0  0  0  0  0  0  0  0  0  0  0  0
   -9.5936   21.0773  -32.3768 H   0  0  0  0  0  0  0  0  0  0  0  0
   -9.6412   19.9587  -30.9659 H   0  0  0  0  0  0  0  0  0  0  0  0
   -7.4053   25.0776  -29.7887 H   0  0  0  0  0  0  0  0  0  0  0  0
   -5.1831   26.0036  -29.1500 H   0  0  0  0  0  0  0  0  0  0  0  0
   -4.7670   24.5329  -25.4643 H   0  0  0  0  0  0  0  0  0  0  0  0
   -4.9377   25.4361  -27.0076 H   0  0  0  0  0  0  0  0  0  0  0  0
   -4.2358   23.7826  -27.0076 H   0  0  0  0  0  0  0  0  0  0  0  0
    1.2256   26.0492  -26.0039 H   0  0  0  0  0  0  0  0  0  0  0  0
    0.8602   25.1094  -27.4906 H   0  0  0  0  0  0  0  0  0  0  0  0
    0.6790   26.8965  -27.4906 H   0  0  0  0  0  0  0  0  0  0  0  0
   -3.2269   22.7688  -31.2575 H   0  0  0  0  0  0  0  0  0  0  0  0
   -5.4442   21.8555  -31.9214 H   0  0  0  0  0  0  0  0  0  0  0  0
   -6.9851   21.3001  -33.3240 H   0  0  0  0  0  0  0  0  0  0  0  0
   -5.3534   19.8024  -34.4723 H   0  0  0  0  0  0  0  0  0  0  0  0
  1  2  1  0
  2  3  2  0
  3  4  1  0
  4  5  2  0
  5  6  1  0
  6  7  1  0
  7  8  1  0
  8  9  2  0
  8 10  1  0
 10 11  2  0
 11 12  1  0
 12 13  2  0
 13 14  1  0
 14 15  1  0
 15 16  2  0
 15 17  2  0
 15 18  1  0
 18 19  1  0
 19 20  1  0
 19 21  2  0
 21 22  1  0
 22 23  1  0
 23 24  1  0
 13 25  1  0
 25 26  2  0
  5 27  1  0
 27 28  2  0
 28  2  1  0
 26 10  1  0
 23 18  2  0
  1 29  1  0
  1 30  1  0
  1 31  1  0
  3 32  1  0
  4 33  1  0
  6 34  1  0
  6 35  1  0
 11 36  1  0
 12 37  1  0
 20 38  1  0
 20 39  1  0
 20 40  1  0
 24 41  1  0
 24 42  1  0
 24 43  1  0
 25 44  1  0
 26 45  1  0
 27 46  1  0
 28 47  1  0
M  CHG  2   7  -1  14  -1
M  END
>  <UniqueID>  (18) 
18

>  <SMILES>  (18) 
Cc1ccc(C[N-]C(=O)c2ccc([N-]S(=O)(=O)c3c(C)noc3C)cc2)cc1

>  <Energy>  (18) 
78.23135664376777

>  <Genealogy>  (18) 
Cc1ccc(C[N-]C(=O)c2ccc([N-]S(=O)(=O)c3c(C)noc3C)cc2)cc1 (protonated)
Cc1ccc(C[N-]C(=O)c2ccc([N-]S(=O)(=O)c3c(C)noc3C)cc2)cc1 (3D coordinates assigned)
Cc1ccc(C[N-]C(=O)c2ccc([N-]S(=O)(=O)c3c(C)noc3C)cc2)cc1 (optimized conformer: 78.23135664376777 kcal/mol)

>  <smiles>  (18) 
Cc1ccc(CNC(=O)c2ccc(NS(=O)(=O)c3c(C)noc3C)cc2)cc1

>  <score_type>  (18) 
oracle

>  <origin>  (18) 
adgpu

>  <m_score__min__energy>  (18) 
-11

>  <m_primary>  (18) 
energy

$$$$
18:0
     RDKit          3D

 36 38  0  0  0  0  0  0  0  0999 V2000
   -2.4680   24.3340  -28.0140 O   0  0  0  0  0  0  0  0  0  0  0  0
   -1.6500   23.4030  -28.8650 S   0  0  0  0  0  0  0  0  0  0  0  0
   -0.2470   23.9350  -28.9590 O   0  0  0  0  0  0  0  0  0  0  0  0
   -2.3400   23.3310  -30.4540 N   0  0  0  0  0  0  0  0  0  0  0  0
   -3.7460   23.2700  -30.7420 C   0  0  0  0  0  0  0  0  0  0  0  0
   -4.3960   22.0530  -31.0180 C   0  0  0  0  0  0  0  0  0  0  0  0
   -5.7660   22.0300  -31.3190 C   0  0  0  0  0  0  0  0  0  0  0  0
   -6.5060   23.2290  -31.3080 C   0  0  0  0  0  0  0  0  0  0  0  0
   -5.8540   24.4410  -31.0400 C   0  0  0  0  0  0  0  0  0  0  0  0
   -4.4850   24.4620  -30.7560 C   0  0  0  0  0  0  0  0  0  0  0  0
   -3.8590   25.6760  -30.4910 O   0  0  0  0  0  0  0  0  0  0  0  0
   -7.9730   23.2250  -31.6690 C   0  0  0  0  0  0  0  0  0  0  0  0
   -8.6190   21.8590  -31.4100 C   0  0  0  0  0  0  0  0  0  0  0  0
   -7.8060   20.7410  -32.0680 C   0  0  0  0  0  0  0  0  0  0  0  0
   -6.4180   20.7850  -31.6100 N   0  0  0  0  0  0  0  0  0  0  0  0
   -1.6010   21.7880  -28.1650 C   0  0  0  0  0  0  0  0  0  0  0  0
   -2.7760   21.1740  -27.7020 C   0  0  0  0  0  0  0  0  0  0  0  0
   -2.7280   19.8840  -27.1700 C   0  0  0  0  0  0  0  0  0  0  0  0
   -1.5130   19.1950  -27.0920 C   0  0  0  0  0  0  0  0  0  0  0  0
   -1.4950   17.9070  -26.5590 O   0  0  0  0  0  0  0  0  0  0  0  0
   -0.3340   19.8080  -27.5530 C   0  0  0  0  0  0  0  0  0  0  0  0
    0.8840   19.1380  -27.4910 O   0  0  0  0  0  0  0  0  0  0  0  0
   -0.3820   21.1010  -28.0850 C   0  0  0  0  0  0  0  0  0  0  0  0
   -3.8257   21.1126  -30.9976 H   0  0  0  0  0  0  0  0  0  0  0  0
   -6.4235   25.3820  -31.0533 H   0  0  0  0  0  0  0  0  0  0  0  0
   -8.4906   23.9841  -31.0642 H   0  0  0  0  0  0  0  0  0  0  0  0
   -8.0617   23.4472  -32.7427 H   0  0  0  0  0  0  0  0  0  0  0  0
   -8.6650   21.6814  -30.3254 H   0  0  0  0  0  0  0  0  0  0  0  0
   -9.6313   21.8598  -31.8405 H   0  0  0  0  0  0  0  0  0  0  0  0
   -8.2452   19.7682  -31.8018 H   0  0  0  0  0  0  0  0  0  0  0  0
   -7.8270   20.8784  -33.1592 H   0  0  0  0  0  0  0  0  0  0  0  0
   -5.8720   19.8940  -31.5890 H   0  0  0  0  0  0  0  0  0  0  0  0
   -3.7350   21.7098  -27.7585 H   0  0  0  0  0  0  0  0  0  0  0  0
   -3.6512   19.4065  -26.8100 H   0  0  0  0  0  0  0  0  0  0  0  0
   -0.6300   17.4250  -26.3470 H   0  0  0  0  0  0  0  0  0  0  0  0
    0.5412   21.5807  -28.4422 H   0  0  0  0  0  0  0  0  0  0  0  0
  1  2  2  0
  2  3  2  0
  2  4  1  0
  4  5  1  0
  5  6  2  0
  6  7  1  0
  7  8  2  0
  8  9  1  0
  9 10  2  0
 10 11  1  0
  8 12  1  0
 12 13  1  0
 13 14  1  0
 14 15  1  0
  2 16  1  0
 16 17  2  0
 17 18  1  0
 18 19  2  0
 19 20  1  0
 19 21  1  0
 21 22  1  0
 21 23  2  0
 10  5  1  0
 23 16  1  0
 15  7  1  0
  6 24  1  0
  9 25  1  0
 12 26  1  0
 12 27  1  0
 13 28  1  0
 13 29  1  0
 14 30  1  0
 14 31  1  0
 15 32  1  0
 17 33  1  0
 18 34  1  0
 20 35  1  0
 23 36  1  0
M  CHG  3   4  -1  11  -1  22  -1
M  END
>  <UniqueID>  (19) 
19

>  <SMILES>  (19) 
O=S(=O)([N-]c1cc2c(cc1[O-])CCCN2)c1ccc(O)c([O-])c1

>  <Energy>  (19) 
39.839082353517924

>  <Genealogy>  (19) 
O=S(=O)([N-]c1cc2c(cc1[O-])CCCN2)c1ccc(O)c([O-])c1 (protonated)
O=S(=O)([N-]c1cc2c(cc1[O-])CCCN2)c1ccc(O)c([O-])c1 (3D coordinates assigned)
O=S(=O)([N-]c1cc2c(cc1[O-])CCCN2)c1ccc(O)c([O-])c1 (nonaromatic ring conformer: 39.839082353517924 kcal/mol)

>  <smiles>  (19) 
O=S(=O)(Nc1cc2c(cc1O)CCCN2)c1ccc(O)c(O)c1

>  <score_type>  (19) 
oracle

>  <origin>  (19) 
adgpu

>  <m_score__min__energy>  (19) 
-12.02

>  <m_primary>  (19) 
energy

$$$$
19:0
     RDKit          3D

 38 39  0  0  0  0  0  0  0  0999 V2000
   -0.9540   26.4290  -28.0220 C   0  0  0  0  0  0  0  0  0  0  0  0
   -1.7150   25.6750  -28.9600 O   0  0  0  0  0  0  0  0  0  0  0  0
   -1.8190   24.2740  -28.9600 C   0  0  0  0  0  0  0  0  0  0  0  0
   -0.7470   23.4510  -29.3580 C   0  0  0  0  0  0  0  0  0  0  0  0
   -0.8800   22.0600  -29.3430 C   0  0  0  0  0  0  0  0  0  0  0  0
   -2.0780   21.4750  -28.9320 C   0  0  0  0  0  0  0  0  0  0  0  0
   -3.1480   22.2790  -28.5340 C   0  0  0  0  0  0  0  0  0  0  0  0
   -3.0300   23.6790  -28.5450 C   0  0  0  0  0  0  0  0  0  0  0  0
   -4.1920   24.5340  -28.0990 C   0  0  0  0  0  0  0  0  0  0  0  0
   -5.2500   24.5210  -29.1050 N   0  0  0  0  0  0  0  0  0  0  0  0
   -5.0100   24.8710  -30.4780 C   0  0  0  0  0  0  0  0  0  0  0  0
   -3.8820   25.3090  -30.8300 O   0  0  0  0  0  0  0  0  0  0  0  0
   -6.0130   24.6590  -31.4760 N   0  0  0  0  0  0  0  0  0  0  0  0
   -6.6860   23.4170  -31.7140 C   0  0  0  0  0  0  0  0  0  0  0  0
   -8.0860   23.3300  -31.6160 C   0  0  0  0  0  0  0  0  0  0  0  0
   -8.7350   22.1190  -31.8700 C   0  0  0  0  0  0  0  0  0  0  0  0
   -7.9960   20.9900  -32.2310 C   0  0  0  0  0  0  0  0  0  0  0  0
   -6.6050   21.0710  -32.3420 C   0  0  0  0  0  0  0  0  0  0  0  0
   -5.9470   22.2810  -32.0880 C   0  0  0  0  0  0  0  0  0  0  0  0
   -4.1540   22.3500  -32.2080 S   0  0  0  0  0  0  0  0  0  0  0  0
   -4.0340   20.7640  -33.0950 C   0  0  0  0  0  0  0  0  0  0  0  0
   -1.2434   26.1423  -27.0002 H   0  0  0  0  0  0  0  0  0  0  0  0
    0.1168   26.2256  -28.1706 H   0  0  0  0  0  0  0  0  0  0  0  0
   -1.1475   27.5016  -28.1706 H   0  0  0  0  0  0  0  0  0  0  0  0
    0.2004   23.9061  -29.6825 H   0  0  0  0  0  0  0  0  0  0  0  0
   -0.0382   21.4249  -29.6560 H   0  0  0  0  0  0  0  0  0  0  0  0
   -2.1797   20.3798  -28.9215 H   0  0  0  0  0  0  0  0  0  0  0  0
   -4.0901   21.8129  -28.2095 H   0  0  0  0  0  0  0  0  0  0  0  0
   -4.5884   24.1408  -27.1512 H   0  0  0  0  0  0  0  0  0  0  0  0
   -3.8422   25.5680  -27.9629 H   0  0  0  0  0  0  0  0  0  0  0  0
   -6.1820   24.1440  -28.8240 H   0  0  0  0  0  0  0  0  0  0  0  0
   -8.6723   24.2184  -31.3384 H   0  0  0  0  0  0  0  0  0  0  0  0
   -9.8299   22.0546  -31.7855 H   0  0  0  0  0  0  0  0  0  0  0  0
   -8.5088   20.0370  -32.4280 H   0  0  0  0  0  0  0  0  0  0  0  0
   -6.0253   20.1816  -32.6298 H   0  0  0  0  0  0  0  0  0  0  0  0
   -3.9717   19.9410  -32.3678 H   0  0  0  0  0  0  0  0  0  0  0  0
   -4.9245   20.6288  -33.7265 H   0  0  0  0  0  0  0  0  0  0  0  0
   -3.1333   20.7643  -33.7265 H   0  0  0  0  0  0  0  0  0  0  0  0
  1  2  1  0
  2  3  1  0
  3  4  2  0
  4  5  1  0
  5  6  2  0
  6  7  1  0
  7  8  2  0
  8  9  1  0
  9 10  1  0
 10 11  1  0
 11 12  2  0
 11 13  1  0
 13 14  1  0
 14 15  2  0
 15 16  1  0
 16 17  2  0
 17 18  1  0
 18 19  2  0
 19 20  1  0
 20 21  1  0
  8  3  1  0
 19 14  1  0
  1 22  1  0
  1 23  1  0
  1 24  1  0
  4 25  1  0
  5 26  1  0
  6 27  1  0
  7 28  1  0
  9 29  1  0
  9 30  1  0
 10 31  1  0
 15 32  1  0
 16 33  1  0
 17 34  1  0
 18 35  1  0
 21 36  1  0
 21 37  1  0
 21 38  1  0
M  CHG  1  13  -1
M  END
>  <UniqueID>  (20) 
20

>  <SMILES>  (20) 
COc1ccccc1CNC(=O)[N-]c1ccccc1SC

>  <Energy>  (20) 
35.33464116756353

>  <Genealogy>  (20) 
COc1ccccc1CNC(=O)[N-]c1ccccc1SC (protonated)
COc1ccccc1CNC(=O)[N-]c1ccccc1SC (3D coordinates assigned)
COc1ccccc1CNC(=O)[N-]c1ccccc1SC (optimized conformer: 35.33464116756353 kcal/mol)

>  <smiles>  (20) 
COc1ccccc1CNC(=O)Nc1ccccc1SC

>  <score_type>  (20) 
oracle

>  <origin>  (20) 
adgpu

>  <m_score__min__energy>  (20) 
-9.25

>  <m_primary>  (20) 
energy

$$$$
20:0
     RDKit          3D

 61 64  0  0  0  0  0  0  0  0999 V2000
   -3.7870   23.9350  -27.4210 C   0  0  0  0  0  0  0  0  0  0  0  0
   -2.6040   24.6290  -26.8280 C   0  0  0  0  0  0  0  0  0  0  0  0
   -2.7100   25.6510  -25.9540 N   0  0  0  0  0  0  0  0  0  0  0  0
   -1.4870   25.9840  -25.5660 N   0  0  0  0  0  0  0  0  0  0  0  0
   -1.2100   27.0250  -24.5820 C   0  0  0  0  0  0  0  0  0  0  0  0
   -0.5830   25.1720  -26.1540 C   0  0  0  0  0  0  0  0  0  0  0  0
    0.9010   25.2340  -25.9500 C   0  0  0  0  0  0  0  0  0  0  0  0
   -1.2600   24.3250  -27.0030 C   0  0  0  0  0  0  0  0  0  0  0  0
   -0.6650   23.2930  -27.8000 N   0  0  0  0  0  0  0  0  0  0  0  0
   -1.0270   22.9310  -29.1370 C   0  0  0  0  0  0  0  0  0  0  0  0
   -0.6100   21.8390  -29.6010 O   0  0  0  0  0  0  0  0  0  0  0  0
   -1.8450   23.7660  -29.9690 N   0  0  0  0  0  0  0  0  0  0  0  0
   -3.0620   23.4130  -30.6460 C   0  0  0  0  0  0  0  0  0  0  0  0
   -3.3020   22.1100  -31.1140 C   0  0  0  0  0  0  0  0  0  0  0  0
   -4.5050   21.8010  -31.7690 C   0  0  0  0  0  0  0  0  0  0  0  0
   -4.7090   20.4510  -32.3140 C   0  0  0  0  0  0  0  0  0  0  0  0
   -3.8610   19.9700  -33.3190 C   0  0  0  0  0  0  0  0  0  0  0  0
   -4.0410   18.6840  -33.8350 C   0  0  0  0  0  0  0  0  0  0  0  0
   -5.0760   17.8710  -33.3520 C   0  0  0  0  0  0  0  0  0  0  0  0
   -5.2920   16.2540  -34.0140 S   0  0  0  0  0  0  0  0  0  0  0  0
   -4.5820   16.1370  -35.3360 O   0  0  0  0  0  0  0  0  0  0  0  0
   -6.7610   16.0130  -34.2230 O   0  0  0  0  0  0  0  0  0  0  0  0
   -4.6500   15.0760  -32.8960 N   0  0  0  0  0  0  0  0  0  0  0  0
   -3.2070   14.8990  -33.1280 C   0  0  0  0  0  0  0  0  0  0  0  0
   -2.5850   14.0360  -32.0140 C   0  0  0  0  0  0  0  0  0  0  0  0
   -3.6200   13.1290  -31.3280 C   0  0  0  0  0  0  0  0  0  0  0  0
   -4.6620   12.6260  -32.3310 C   0  0  0  0  0  0  0  0  0  0  0  0
   -5.3700   13.7950  -33.0540 C   0  0  0  0  0  0  0  0  0  0  0  0
   -5.9290   18.3540  -32.3490 C   0  0  0  0  0  0  0  0  0  0  0  0
   -5.7470   19.6430  -31.8340 C   0  0  0  0  0  0  0  0  0  0  0  0
   -5.4920   22.7880  -31.9210 C   0  0  0  0  0  0  0  0  0  0  0  0
   -6.6890   22.4860  -32.5700 O   0  0  0  0  0  0  0  0  0  0  0  0
   -5.2670   24.0770  -31.4210 C   0  0  0  0  0  0  0  0  0  0  0  0
   -4.0620   24.3880  -30.7860 C   0  0  0  0  0  0  0  0  0  0  0  0
   -3.8580   25.6740  -30.2970 O   0  0  0  0  0  0  0  0  0  0  0  0
   -4.4323   23.5564  -26.6146 H   0  0  0  0  0  0  0  0  0  0  0  0
   -4.3543   24.6435  -28.0425 H   0  0  0  0  0  0  0  0  0  0  0  0
   -3.4453   23.0941  -28.0425 H   0  0  0  0  0  0  0  0  0  0  0  0
   -1.3202   26.6107  -23.5690 H   0  0  0  0  0  0  0  0  0  0  0  0
   -0.1825   27.3936  -24.7176 H   0  0  0  0  0  0  0  0  0  0  0  0
   -1.9184   27.8555  -24.7176 H   0  0  0  0  0  0  0  0  0  0  0  0
    1.1229   25.2433  -24.8727 H   0  0  0  0  0  0  0  0  0  0  0  0
    1.3719   24.3547  -26.4138 H   0  0  0  0  0  0  0  0  0  0  0  0
    1.2969   26.1495  -26.4138 H   0  0  0  0  0  0  0  0  0  0  0  0
   -2.5431   21.3275  -30.9664 H   0  0  0  0  0  0  0  0  0  0  0  0
   -3.0505   20.6065  -33.7036 H   0  0  0  0  0  0  0  0  0  0  0  0
   -3.3696   18.3089  -34.6214 H   0  0  0  0  0  0  0  0  0  0  0  0
   -3.0541   14.4035  -34.0981 H   0  0  0  0  0  0  0  0  0  0  0  0
   -2.7220   15.8863  -33.1267 H   0  0  0  0  0  0  0  0  0  0  0  0
   -1.7986   13.4049  -32.4536 H   0  0  0  0  0  0  0  0  0  0  0  0
   -2.1771   14.7158  -31.2514 H   0  0  0  0  0  0  0  0  0  0  0  0
   -3.1029   12.2658  -30.8836 H   0  0  0  0  0  0  0  0  0  0  0  0
   -4.1357   13.7123  -30.5510 H   0  0  0  0  0  0  0  0  0  0  0  0
   -4.1607   11.9949  -33.0797 H   0  0  0  0  0  0  0  0  0  0  0  0
   -5.4218   12.0537  -31.7785 H   0  0  0  0  0  0  0  0  0  0  0  0
   -5.4375   13.5579  -34.1260 H   0  0  0  0  0  0  0  0  0  0  0  0
   -6.3663   13.9132  -32.6030 H   0  0  0  0  0  0  0  0  0  0  0  0
   -6.7419   17.7193  -31.9665 H   0  0  0  0  0  0  0  0  0  0  0  0
   -6.4205   20.0217  -31.0510 H   0  0  0  0  0  0  0  0  0  0  0  0
   -6.9320   22.9080  -33.4590 H   0  0  0  0  0  0  0  0  0  0  0  0
   -6.0434   24.8487  -31.5289 H   0  0  0  0  0  0  0  0  0  0  0  0
  1  2  1  0
  2  3  2  0
  3  4  1  0
  4  5  1  0
  4  6  1  0
  6  7  1  0
  6  8  2  0
  8  9  1  0
  9 10  1  0
 10 11  2  0
 10 12  1  0
 12 13  1  0
 13 14  2  0
 14 15  1  0
 15 16  1  0
 16 17  2  0
 17 18  1  0
 18 19  2  0
 19 20  1  0
 20 21  2  0
 20 22  2  0
 20 23  1  0
 23 24  1  0
 24 25  1  0
 25 26  1  0
 26 27  1  0
 27 28  1  0
 19 29  1  0
 29 30  2  0
 15 31  2  0
 31 32  1  0
 31 33  1  0
 33 34  2  0
 34 35  1  0
  8  2  1  0
 34 13  1  0
 30 16  1  0
 28 23  1  0
  1 36  1  0
  1 37  1  0
  1 38  1  0
  5 39  1  0
  5 40  1  0
  5 41  1  0
  7 42  1  0
  7 43  1  0
  7 44  1  0
 14 45  1  0
 17 46  1  0
 18 47  1  0
 24 48  1  0
 24 49  1  0
 25 50  1  0
 25 51  1  0
 26 52  1  0
 26 53  1  0
 27 54  1  0
 27 55  1  0
 28 56  1  0
 28 57  1  0
 29 58  1  0
 30 59  1  0
 32 60  1  0
 33 61  1  0
M  CHG  3   9  -1  12  -1  35  -1
M  END
>  <UniqueID>  (21) 
21

>  <SMILES>  (21) 
Cc1nn(C)c(C)c1[N-]C(=O)[N-]c1cc(-c2ccc(S(=O)(=O)N3CCCCC3)cc2)c(O)cc1[O-]

>  <Energy>  (21) 
108.6744006918001

>  <Genealogy>  (21) 
Cc1nn(C)c(C)c1[N-]C(=O)[N-]c1cc(-c2ccc(S(=O)(=O)N3CCCCC3)cc2)c(O)cc1[O-] (protonated)
Cc1nn(C)c(C)c1[N-]C(=O)[N-]c1cc(-c2ccc(S(=O)(=O)N3CCCCC3)cc2)c(O)cc1[O-] (3D coordinates assigned)
Cc1nn(C)c(C)c1[N-]C(=O)[N-]c1cc(-c2ccc(S(=O)(=O)N3CCCCC3)cc2)c(O)cc1[O-] (nonaromatic ring conformer: 108.6744006918001 kcal/mol)

>  <smiles>  (21) 
Cc1nn(C)c(C)c1NC(=O)Nc1cc(-c2ccc(S(=O)(=O)N3CCCCC3)cc2)c(O)cc1O

>  <score_type>  (21) 
oracle

>  <origin>  (21) 
adgpu

>  <m_score__min__energy>  (21) 
-12.470000000000001

>  <m_primary>  (21) 
energy

$$$$
21:0
     RDKit          3D

 68 72  0  0  0  0  0  0  0  0999 V2000
    1.1010   13.9180  -38.1970 C   0  0  0  0  0  0  0  0  0  0  0  0
    2.1220   14.9720  -38.3310 N   0  0  0  0  0  0  0  0  0  0  0  0
    2.8570   15.1860  -37.0670 C   0  0  0  0  0  0  0  0  0  0  0  0
    1.9730   15.8400  -35.9950 C   0  0  0  0  0  0  0  0  0  0  0  0
    1.1550   16.9130  -36.5730 N   0  0  0  0  0  0  0  0  0  0  0  0
    0.2830   17.6750  -35.7230 C   0  0  0  0  0  0  0  0  0  0  0  0
    0.6440   18.9780  -35.3490 C   0  0  0  0  0  0  0  0  0  0  0  0
   -0.2050   19.7500  -34.5560 C   0  0  0  0  0  0  0  0  0  0  0  0
   -1.4380   19.2370  -34.1240 C   0  0  0  0  0  0  0  0  0  0  0  0
   -2.3500   20.0650  -33.2970 C   0  0  0  0  0  0  0  0  0  0  0  0
   -3.2300   19.4590  -32.3820 C   0  0  0  0  0  0  0  0  0  0  0  0
   -4.0940   20.2390  -31.6100 C   0  0  0  0  0  0  0  0  0  0  0  0
   -4.0910   21.6360  -31.7370 C   0  0  0  0  0  0  0  0  0  0  0  0
   -4.9630   22.4440  -30.9330 N   0  0  0  0  0  0  0  0  0  0  0  0
   -6.0670   23.1500  -31.5950 C   0  0  0  0  0  0  0  0  0  0  0  0
   -7.2060   22.2010  -31.8480 C   0  0  0  0  0  0  0  0  0  0  0  0
   -7.0120   21.0570  -32.6410 C   0  0  0  0  0  0  0  0  0  0  0  0
   -8.0590   20.1490  -32.8350 C   0  0  0  0  0  0  0  0  0  0  0  0
   -9.3010   20.3730  -32.2340 C   0  0  0  0  0  0  0  0  0  0  0  0
   -9.4980   21.5050  -31.4380 C   0  0  0  0  0  0  0  0  0  0  0  0
   -8.4540   22.4140  -31.2410 C   0  0  0  0  0  0  0  0  0  0  0  0
   -4.5900   22.7600  -29.5760 C   0  0  0  0  0  0  0  0  0  0  0  0
   -5.4460   22.6760  -28.6520 O   0  0  0  0  0  0  0  0  0  0  0  0
   -3.2150   23.1840  -29.2330 C   0  0  0  0  0  0  0  0  0  0  0  0
   -2.4100   22.3470  -28.4430 C   0  0  0  0  0  0  0  0  0  0  0  0
   -1.1080   22.7310  -28.1080 C   0  0  0  0  0  0  0  0  0  0  0  0
   -0.6050   23.9600  -28.5450 C   0  0  0  0  0  0  0  0  0  0  0  0
    0.6890   24.3400  -28.2140 O   0  0  0  0  0  0  0  0  0  0  0  0
   -1.4070   24.8080  -29.3140 C   0  0  0  0  0  0  0  0  0  0  0  0
   -2.7110   24.4300  -29.6540 C   0  0  0  0  0  0  0  0  0  0  0  0
   -3.5020   25.3040  -30.3940 O   0  0  0  0  0  0  0  0  0  0  0  0
   -3.2100   22.2450  -32.6370 C   0  0  0  0  0  0  0  0  0  0  0  0
   -2.3500   21.4670  -33.4170 C   0  0  0  0  0  0  0  0  0  0  0  0
   -1.8000   17.9300  -34.4920 C   0  0  0  0  0  0  0  0  0  0  0  0
   -0.9490   17.1430  -35.2830 C   0  0  0  0  0  0  0  0  0  0  0  0
   -1.3390   15.8040  -35.6120 N   0  0  0  0  0  0  0  0  0  0  0  0
    1.4490   17.3950  -37.9260 C   0  0  0  0  0  0  0  0  0  0  0  0
    1.5640   16.2190  -38.9170 C   0  0  0  0  0  0  0  0  0  0  0  0
    0.9126   13.7235  -37.1309 H   0  0  0  0  0  0  0  0  0  0  0  0
    0.1690   14.2468  -38.6801 H   0  0  0  0  0  0  0  0  0  0  0  0
    1.4592   12.9970  -38.6801 H   0  0  0  0  0  0  0  0  0  0  0  0
    3.2106   14.2142  -36.6922 H   0  0  0  0  0  0  0  0  0  0  0  0
    3.7001   15.8618  -37.2728 H   0  0  0  0  0  0  0  0  0  0  0  0
    1.3108   15.0770  -35.5598 H   0  0  0  0  0  0  0  0  0  0  0  0
    2.6228   16.2725  -35.2199 H   0  0  0  0  0  0  0  0  0  0  0  0
    1.6053   19.3947  -35.6841 H   0  0  0  0  0  0  0  0  0  0  0  0
    0.0940   20.7684  -34.2671 H   0  0  0  0  0  0  0  0  0  0  0  0
   -3.2377   18.3644  -32.2739 H   0  0  0  0  0  0  0  0  0  0  0  0
   -4.7801   19.7555  -30.8990 H   0  0  0  0  0  0  0  0  0  0  0  0
   -6.4133   23.9710  -30.9499 H   0  0  0  0  0  0  0  0  0  0  0  0
   -5.7133   23.5538  -32.5551 H   0  0  0  0  0  0  0  0  0  0  0  0
   -6.0341   20.8748  -33.1106 H   0  0  0  0  0  0  0  0  0  0  0  0
   -7.9044   19.2579  -33.4612 H   0  0  0  0  0  0  0  0  0  0  0  0
  -10.1232   19.6586  -32.3874 H   0  0  0  0  0  0  0  0  0  0  0  0
  -10.4758   21.6810  -30.9659 H   0  0  0  0  0  0  0  0  0  0  0  0
   -8.6111   23.2997  -30.6078 H   0  0  0  0  0  0  0  0  0  0  0  0
   -2.8058   21.3847  -28.0861 H   0  0  0  0  0  0  0  0  0  0  0  0
   -0.4784   22.0650  -27.4996 H   0  0  0  0  0  0  0  0  0  0  0  0
   -1.0116   25.7767  -29.6535 H   0  0  0  0  0  0  0  0  0  0  0  0
   -3.1941   23.3408  -32.7312 H   0  0  0  0  0  0  0  0  0  0  0  0
   -1.6683   21.9541  -34.1298 H   0  0  0  0  0  0  0  0  0  0  0  0
   -2.7630   17.5184  -34.1556 H   0  0  0  0  0  0  0  0  0  0  0  0
   -1.2800   15.0290  -34.9190 H   0  0  0  0  0  0  0  0  0  0  0  0
   -1.7190   15.5820  -36.5600 H   0  0  0  0  0  0  0  0  0  0  0  0
    0.6397   18.0641  -38.2536 H   0  0  0  0  0  0  0  0  0  0  0  0
    2.4084   17.9328  -37.9064 H   0  0  0  0  0  0  0  0  0  0  0  0
    0.5589   15.9967  -39.3047 H   0  0  0  0  0  0  0  0  0  0  0  0
    2.2664   16.5380  -39.7012 H   0  0  0  0  0  0  0  0  0  0  0  0
  1  2  1  0
  2  3  1  0
  3  4  1  0
  4  5  1  0
  5  6  1  0
  6  7  2  0
  7  8  1  0
  8  9  2  0
  9 10  1  0
 10 11  2  0
 11 12  1  0
 12 13  2  0
 13 14  1  0
 14 15  1  0
 15 16  1  0
 16 17  2  0
 17 18  1  0
 18 19  2  0
 19 20  1  0
 20 21  2  0
 14 22  1  0
 22 23  2  0
 22 24  1  0
 24 25  2  0
 25 26  1  0
 26 27  2  0
 27 28  1  0
 27 29  1  0
 29 30  2  0
 30 31  1  0
 13 32  1  0
 32 33  2  0
  9 34  1  0
 34 35  2  0
 35 36  1  0
  5 37  1  0
 37 38  1  0
 38  2  1  0
 35  6  1  0
 33 10  1  0
 21 16  1  0
 30 24  1  0
  1 39  1  0
  1 40  1  0
  1 41  1  0
  3 42  1  0
  3 43  1  0
  4 44  1  0
  4 45  1  0
  7 46  1  0
  8 47  1  0
 11 48  1  0
 12 49  1  0
 15 50  1  0
 15 51  1  0
 17 52  1  0
 18 53  1  0
 19 54  1  0
 20 55  1  0
 21 56  1  0
 25 57  1  0
 26 58  1  0
 29 59  1  0
 32 60  1  0
 33 61  1  0
 34 62  1  0
 36 63  1  0
 36 64  1  0
 37 65  1  0
 37 66  1  0
 38 67  1  0
 38 68  1  0
M  CHG  2  28  -1  31  -1
M  END
>  <UniqueID>  (22) 
22

>  <SMILES>  (22) 
CN1CCN(c2ccc(-c3ccc(N(Cc4ccccc4)C(=O)c4ccc([O-])cc4[O-])cc3)cc2N)CC1

>  <Energy>  (22) 
102.23772293185242

>  <Genealogy>  (22) 
CN1CCN(c2ccc(-c3ccc(N(Cc4ccccc4)C(=O)c4ccc([O-])cc4[O-])cc3)cc2N)CC1 (protonated)
CN1CCN(c2ccc(-c3ccc(N(Cc4ccccc4)C(=O)c4ccc([O-])cc4[O-])cc3)cc2N)CC1 (3D coordinates assigned)
CN1CCN(c2ccc(-c3ccc(N(Cc4ccccc4)C(=O)c4ccc([O-])cc4[O-])cc3)cc2N)CC1 (nonaromatic ring conformer: 102.23772293185242 kcal/mol)

>  <smiles>  (22) 
CN1CCN(c2ccc(-c3ccc(N(Cc4ccccc4)C(=O)c4ccc(O)cc4O)cc3)cc2N)CC1

>  <score_type>  (22) 
oracle

>  <origin>  (22) 
adgpu

>  <m_score__min__energy>  (22) 
-11.859999999999999

>  <m_primary>  (22) 
energy

$$$$
22:0
     RDKit          3D

 34 35  0  0  0  0  0  0  0  0999 V2000
   -4.9370   23.5100  -29.0480 C   0  0  0  0  0  0  0  0  0  0  0  0
   -5.1940   24.5490  -30.4700 S   0  0  0  0  0  0  0  0  0  0  0  0
   -6.2210   25.5900  -30.1200 O   0  0  0  0  0  0  0  0  0  0  0  0
   -3.9170   25.2420  -30.8540 O   0  0  0  0  0  0  0  0  0  0  0  0
   -5.7850   23.6090  -31.8040 N   0  0  0  0  0  0  0  0  0  0  0  0
   -6.9610   22.7780  -31.7600 C   0  0  0  0  0  0  0  0  0  0  0  0
   -8.2170   23.3660  -31.9760 C   0  0  0  0  0  0  0  0  0  0  0  0
   -9.3790   22.5910  -31.9410 C   0  0  0  0  0  0  0  0  0  0  0  0
   -9.3000   21.2200  -31.6920 C   0  0  0  0  0  0  0  0  0  0  0  0
   -8.0590   20.6090  -31.4810 C   0  0  0  0  0  0  0  0  0  0  0  0
   -8.0340   19.2280  -31.2360 O   0  0  0  0  0  0  0  0  0  0  0  0
   -8.3070   18.2280  -32.2150 C   0  0  0  0  0  0  0  0  0  0  0  0
   -7.0440   17.9060  -32.9560 C   0  0  0  0  0  0  0  0  0  0  0  0
   -6.4840   18.8420  -33.8420 C   0  0  0  0  0  0  0  0  0  0  0  0
   -5.2860   18.5550  -34.5040 C   0  0  0  0  0  0  0  0  0  0  0  0
   -4.6330   17.3400  -34.2750 C   0  0  0  0  0  0  0  0  0  0  0  0
   -5.1740   16.4120  -33.3820 C   0  0  0  0  0  0  0  0  0  0  0  0
   -6.3730   16.6950  -32.7180 C   0  0  0  0  0  0  0  0  0  0  0  0
   -6.8890   21.3920  -31.5190 C   0  0  0  0  0  0  0  0  0  0  0  0
   -5.0830   24.1003  -28.1314 H   0  0  0  0  0  0  0  0  0  0  0  0
   -5.6564   22.6781  -29.0669 H   0  0  0  0  0  0  0  0  0  0  0  0
   -3.9127   23.1094  -29.0669 H   0  0  0  0  0  0  0  0  0  0  0  0
   -5.2850   23.7240  -32.7140 H   0  0  0  0  0  0  0  0  0  0  0  0
   -8.2871   24.4457  -32.1744 H   0  0  0  0  0  0  0  0  0  0  0  0
  -10.3583   23.0625  -32.1101 H   0  0  0  0  0  0  0  0  0  0  0  0
  -10.2189   20.6161  -31.6614 H   0  0  0  0  0  0  0  0  0  0  0  0
   -8.6842   17.3213  -31.7195 H   0  0  0  0  0  0  0  0  0  0  0  0
   -9.0652   18.5986  -32.9205 H   0  0  0  0  0  0  0  0  0  0  0  0
   -6.9895   19.8034  -34.0154 H   0  0  0  0  0  0  0  0  0  0  0  0
   -4.8571   19.2857  -35.2055 H   0  0  0  0  0  0  0  0  0  0  0  0
   -3.6922   17.1147  -34.7986 H   0  0  0  0  0  0  0  0  0  0  0  0
   -4.6572   15.4581  -33.2006 H   0  0  0  0  0  0  0  0  0  0  0  0
   -6.7913   15.9669  -32.0075 H   0  0  0  0  0  0  0  0  0  0  0  0
   -5.9099   20.9169  -31.3590 H   0  0  0  0  0  0  0  0  0  0  0  0
  1  2  1  0
  2  3  2  0
  2  4  2  0
  2  5  1  0
  5  6  1  0
  6  7  2  0
  7  8  1  0
  8  9  2  0
  9 10  1  0
 10 11  1  0
 11 12  1  0
 12 13  1  0
 13 14  2  0
 14 15  1  0
 15 16  2  0
 16 17  1  0
 17 18  2  0
 10 19  2  0
 19  6  1  0
 18 13  1  0
  1 20  1  0
  1 21  1  0
  1 22  1  0
  5 23  1  0
  7 24  1  0
  8 25  1  0
  9 26  1  0
 12 27  1  0
 12 28  1  0
 14 29  1  0
 15 30  1  0
 16 31  1  0
 17 32  1  0
 18 33  1  0
 19 34  1  0
M  END
>  <UniqueID>  (23) 
23

>  <SMILES>  (23) 
CS(=O)(=O)Nc1cccc(OCc2ccccc2)c1

>  <Energy>  (23) 
32.05189777194119

>  <Genealogy>  (23) 
CS(=O)(=O)Nc1cccc(OCc2ccccc2)c1 (3D coordinates assigned)
CS(=O)(=O)Nc1cccc(OCc2ccccc2)c1 (optimized conformer: 32.05189777194119 kcal/mol)

>  <smiles>  (23) 
CS(=O)(=O)Nc1cccc(OCc2ccccc2)c1

>  <score_type>  (23) 
oracle

>  <origin>  (23) 
adgpu

>  <m_score__min__energy>  (23) 
-8.0099999999999998

>  <m_primary>  (23) 
energy

$$$$
23:0
     RDKit          3D

 58 61  0  0  0  0  0  0  0  0999 V2000
   -6.8720   18.0880  -32.4230 C   0  0  0  0  0  0  0  0  0  0  0  0
   -5.8400   19.5420  -32.5170 S   0  0  0  0  0  0  0  0  0  0  0  0
   -5.4280   19.7190  -33.9510 O   0  0  0  0  0  0  0  0  0  0  0  0
   -4.6240   19.3190  -31.6600 O   0  0  0  0  0  0  0  0  0  0  0  0
   -6.6800   20.9770  -31.9780 N   0  0  0  0  0  0  0  0  0  0  0  0
   -8.1360   21.0210  -32.1800 C   0  0  0  0  0  0  0  0  0  0  0  0
   -8.7810   22.2240  -31.4860 C   0  0  0  0  0  0  0  0  0  0  0  0
   -8.0620   23.5100  -31.8810 C   0  0  0  0  0  0  0  0  0  0  0  0
   -6.6050   23.4140  -31.5270 C   0  0  0  0  0  0  0  0  0  0  0  0
   -5.8990   24.5720  -31.1740 C   0  0  0  0  0  0  0  0  0  0  0  0
   -4.5470   24.5020  -30.8360 C   0  0  0  0  0  0  0  0  0  0  0  0
   -3.8760   25.6720  -30.4860 O   0  0  0  0  0  0  0  0  0  0  0  0
   -3.8730   23.2690  -30.8530 C   0  0  0  0  0  0  0  0  0  0  0  0
   -2.4830   23.2120  -30.4780 N   0  0  0  0  0  0  0  0  0  0  0  0
   -1.6750   21.7490  -30.0090 S   0  0  0  0  0  0  0  0  0  0  0  0
   -0.5350   22.0840  -29.0890 O   0  0  0  0  0  0  0  0  0  0  0  0
   -2.6470   20.8610  -29.2820 O   0  0  0  0  0  0  0  0  0  0  0  0
   -1.0310   20.9380  -31.4330 C   0  0  0  0  0  0  0  0  0  0  0  0
    0.3240   20.5870  -31.4790 C   0  0  0  0  0  0  0  0  0  0  0  0
    0.8520   19.9770  -32.6200 C   0  0  0  0  0  0  0  0  0  0  0  0
    0.0320   19.7160  -33.7260 C   0  0  0  0  0  0  0  0  0  0  0  0
    0.7140   18.9700  -35.1690 S   0  0  0  0  0  0  0  0  0  0  0  0
   -0.2320   17.9010  -35.6500 O   0  0  0  0  0  0  0  0  0  0  0  0
    2.0270   18.3190  -34.8240 O   0  0  0  0  0  0  0  0  0  0  0  0
    0.9230   20.1950  -36.4070 N   0  0  0  0  0  0  0  0  0  0  0  0
   -0.1030   21.2550  -36.3130 C   0  0  0  0  0  0  0  0  0  0  0  0
    0.3820   22.4870  -35.5250 C   0  0  0  0  0  0  0  0  0  0  0  0
    1.3390   22.1120  -34.5600 O   0  0  0  0  0  0  0  0  0  0  0  0
    2.5330   21.6880  -35.1970 C   0  0  0  0  0  0  0  0  0  0  0  0
    2.2870   20.7510  -36.4020 C   0  0  0  0  0  0  0  0  0  0  0  0
   -1.3280   20.0510  -33.6730 C   0  0  0  0  0  0  0  0  0  0  0  0
   -1.8580   20.6590  -32.5300 C   0  0  0  0  0  0  0  0  0  0  0  0
   -4.5800   22.1100  -31.2240 C   0  0  0  0  0  0  0  0  0  0  0  0
   -5.9420   22.1690  -31.5880 C   0  0  0  0  0  0  0  0  0  0  0  0
   -7.0523   17.8339  -31.3680 H   0  0  0  0  0  0  0  0  0  0  0  0
   -7.8321   18.2870  -32.9215 H   0  0  0  0  0  0  0  0  0  0  0  0
   -6.3673   17.2473  -32.9215 H   0  0  0  0  0  0  0  0  0  0  0  0
   -8.3421   21.0821  -33.2588 H   0  0  0  0  0  0  0  0  0  0  0  0
   -8.5652   20.1083  -31.7410 H   0  0  0  0  0  0  0  0  0  0  0  0
   -9.8374   22.2922  -31.7849 H   0  0  0  0  0  0  0  0  0  0  0  0
   -8.7059   22.0917  -30.3966 H   0  0  0  0  0  0  0  0  0  0  0  0
   -8.1639   23.6660  -32.9651 H   0  0  0  0  0  0  0  0  0  0  0  0
   -8.5103   24.3554  -31.3385 H   0  0  0  0  0  0  0  0  0  0  0  0
   -6.4146   25.5436  -31.1633 H   0  0  0  0  0  0  0  0  0  0  0  0
   -1.8830   24.0570  -30.6000 H   0  0  0  0  0  0  0  0  0  0  0  0
    0.9738   20.7919  -30.6154 H   0  0  0  0  0  0  0  0  0  0  0  0
    1.9162   19.7004  -32.6501 H   0  0  0  0  0  0  0  0  0  0  0  0
   -0.3741   21.5730  -37.3305 H   0  0  0  0  0  0  0  0  0  0  0  0
   -0.9648   20.8350  -35.7736 H   0  0  0  0  0  0  0  0  0  0  0  0
    0.8345   23.2073  -36.2224 H   0  0  0  0  0  0  0  0  0  0  0  0
   -0.4785   22.9428  -35.0134 H   0  0  0  0  0  0  0  0  0  0  0  0
    3.0737   22.5778  -35.5519 H   0  0  0  0  0  0  0  0  0  0  0  0
    3.1118   21.1179  -34.4554 H   0  0  0  0  0  0  0  0  0  0  0  0
    2.4405   21.3206  -37.3304 H   0  0  0  0  0  0  0  0  0  0  0  0
    2.9931   19.9110  -36.3254 H   0  0  0  0  0  0  0  0  0  0  0  0
   -1.9801   19.8353  -34.5322 H   0  0  0  0  0  0  0  0  0  0  0  0
   -2.9262   20.9188  -32.4919 H   0  0  0  0  0  0  0  0  0  0  0  0
   -4.0611   21.1401  -31.2303 H   0  0  0  0  0  0  0  0  0  0  0  0
  1  2  1  0
  2  3  2  0
  2  4  2  0
  2  5  1  0
  5  6  1  0
  6  7  1  0
  7  8  1  0
  8  9  1  0
  9 10  2  0
 10 11  1  0
 11 12  1  0
 11 13  2  0
 13 14  1  0
 14 15  1  0
 15 16  2  0
 15 17  2  0
 15 18  1  0
 18 19  2  0
 19 20  1  0
 20 21  2  0
 21 22  1  0
 22 23  2  0
 22 24  2  0
 22 25  1  0
 25 26  1  0
 26 27  1  0
 27 28  1  0
 28 29  1  0
 29 30  1  0
 21 31  1  0
 31 32  2  0
 13 33  1  0
 33 34  2  0
 34  5  1  0
 34  9  1  0
 32 18  1  0
 30 25  1  0
  1 35  1  0
  1 36  1  0
  1 37  1  0
  6 38  1  0
  6 39  1  0
  7 40  1  0
  7 41  1  0
  8 42  1  0
  8 43  1  0
 10 44  1  0
 14 45  1  0
 19 46  1  0
 20 47  1  0
 26 48  1  0
 26 49  1  0
 27 50  1  0
 27 51  1  0
 29 52  1  0
 29 53  1  0
 30 54  1  0
 30 55  1  0
 31 56  1  0
 32 57  1  0
 33 58  1  0
M  CHG  1  12  -1
M  END
>  <UniqueID>  (24) 
24

>  <SMILES>  (24) 
CS(=O)(=O)N1CCCc2cc([O-])c(NS(=O)(=O)c3ccc(S(=O)(=O)N4CCOCC4)cc3)cc21

>  <Energy>  (24) 
73.1513997384543

>  <Genealogy>  (24) 
CS(=O)(=O)N1CCCc2cc([O-])c(NS(=O)(=O)c3ccc(S(=O)(=O)N4CCOCC4)cc3)cc21 (protonated)
CS(=O)(=O)N1CCCc2cc([O-])c(NS(=O)(=O)c3ccc(S(=O)(=O)N4CCOCC4)cc3)cc21 (3D coordinates assigned)
CS(=O)(=O)N1CCCc2cc([O-])c(NS(=O)(=O)c3ccc(S(=O)(=O)N4CCOCC4)cc3)cc21 (nonaromatic ring conformer: 73.1513997384543 kcal/mol)

>  <smiles>  (24) 
CS(=O)(=O)N1CCCc2cc(O)c(NS(=O)(=O)c3ccc(S(=O)(=O)N4CCOCC4)cc3)cc21

>  <score_type>  (24) 
oracle

>  <origin>  (24) 
adgpu

>  <m_score__min__energy>  (24) 
-12.359999999999999

>  <m_primary>  (24) 
energy

$$$$
24:0
     RDKit          3D

 41 43  0  0  0  0  0  0  0  0999 V2000
   -4.6235   19.1240  -31.9749 H   0  0  0  0  0  0  0  0  0  0  0  0
   -5.2260   19.9940  -32.2750 C   0  0  0  0  0  0  0  0  0  0  0  0
   -4.5990   21.1230  -32.6230 C   0  0  0  0  0  0  0  0  0  0  0  0
   -5.1764   21.9454  -33.0705 H   0  0  0  0  0  0  0  0  0  0  0  0
   -3.1430   21.2860  -32.4170 C   0  0  0  0  0  0  0  0  0  0  0  0
   -2.3280   21.1270  -33.4920 N   0  0  0  0  0  0  0  0  0  0  0  0
   -0.9870   21.2560  -33.3940 C   0  0  0  0  0  0  0  0  0  0  0  0
   -0.2660   21.1100  -34.4160 O   0  0  0  0  0  0  0  0  0  0  0  0
   -0.4120   21.5500  -32.1680 C   0  0  0  0  0  0  0  0  0  0  0  0
    0.6784   21.6635  -32.0772 H   0  0  0  0  0  0  0  0  0  0  0  0
   -1.2370   21.7010  -31.0450 C   0  0  0  0  0  0  0  0  0  0  0  0
   -0.5710   22.0060  -29.7240 C   0  0  0  0  0  0  0  0  0  0  0  0
   -1.2340   21.7024  -28.9004 H   0  0  0  0  0  0  0  0  0  0  0  0
    0.3769   21.4523  -29.6548 H   0  0  0  0  0  0  0  0  0  0  0  0
   -0.3710   23.0854  -29.6548 H   0  0  0  0  0  0  0  0  0  0  0  0
   -2.6090   21.5680  -31.1710 N   0  0  0  0  0  0  0  0  0  0  0  0
   -3.5070   21.6790  -29.9910 C   0  0  0  0  0  0  0  0  0  0  0  0
   -4.1403   20.7813  -29.9364 H   0  0  0  0  0  0  0  0  0  0  0  0
   -2.8857   21.7709  -29.0879 H   0  0  0  0  0  0  0  0  0  0  0  0
   -4.3920   22.9020  -30.0900 C   0  0  0  0  0  0  0  0  0  0  0  0
   -3.8280   24.1700  -30.3020 C   0  0  0  0  0  0  0  0  0  0  0  0
   -2.7344   24.2835  -30.3368 H   0  0  0  0  0  0  0  0  0  0  0  0
   -4.6480   25.2880  -30.4690 C   0  0  0  0  0  0  0  0  0  0  0  0
   -4.1996   26.2749  -30.6560 H   0  0  0  0  0  0  0  0  0  0  0  0
   -6.0360   25.1550  -30.3990 C   0  0  0  0  0  0  0  0  0  0  0  0
   -6.6808   26.0349  -30.5406 H   0  0  0  0  0  0  0  0  0  0  0  0
   -6.6060   23.9040  -30.1490 C   0  0  0  0  0  0  0  0  0  0  0  0
   -7.6989   23.8039  -30.0740 H   0  0  0  0  0  0  0  0  0  0  0  0
   -5.7900   22.7790  -29.9940 C   0  0  0  0  0  0  0  0  0  0  0  0
   -6.2422   21.7959  -29.7966 H   0  0  0  0  0  0  0  0  0  0  0  0
   -6.6980   19.8730  -32.2790 C   0  0  0  0  0  0  0  0  0  0  0  0
   -7.4780   21.0410  -32.2910 C   0  0  0  0  0  0  0  0  0  0  0  0
   -6.9882   22.0256  -32.2680 H   0  0  0  0  0  0  0  0  0  0  0  0
   -8.8720   20.9600  -32.3320 C   0  0  0  0  0  0  0  0  0  0  0  0
   -9.4747   21.8799  -32.3580 H   0  0  0  0  0  0  0  0  0  0  0  0
   -9.5020   19.7140  -32.3400 C   0  0  0  0  0  0  0  0  0  0  0  0
  -10.5998   19.6531  -32.3723 H   0  0  0  0  0  0  0  0  0  0  0  0
   -8.7380   18.5440  -32.3070 C   0  0  0  0  0  0  0  0  0  0  0  0
   -9.2352   17.5628  -32.3038 H   0  0  0  0  0  0  0  0  0  0  0  0
   -7.3420   18.6200  -32.2780 C   0  0  0  0  0  0  0  0  0  0  0  0
   -6.7439   17.6971  -32.2543 H   0  0  0  0  0  0  0  0  0  0  0  0
  1  2  1  0
  2  3  2  0
  3  4  1  0
  3  5  1  0
  5  6  2  0
  6  7  1  0
  7  8  2  0
  7  9  1  0
  9 10  1  0
  9 11  2  0
 11 12  1  0
 12 13  1  0
 12 14  1  0
 12 15  1  0
 11 16  1  0
 16 17  1  0
 17 18  1  0
 17 19  1  0
 17 20  1  0
 20 21  2  0
 21 22  1  0
 21 23  1  0
 23 24  1  0
 23 25  2  0
 25 26  1  0
 25 27  1  0
 27 28  1  0
 27 29  2  0
 29 30  1  0
  2 31  1  0
 31 32  2  0
 32 33  1  0
 32 34  1  0
 34 35  1  0
 34 36  2  0
 36 37  1  0
 36 38  1  0
 38 39  1  0
 38 40  2  0
 40 41  1  0
 16  5  1  0
 29 20  1  0
 40 31  1  0
M  END
>  <UniqueID>  (25) 
25

>  <SMILES>  (25) 
Cc1cc(=O)nc(/C=C/c2ccccc2)n1Cc1ccccc1

>  <Energy>  (25) 
54.60963909598364

>  <Genealogy>  (25) 
Cc1cc(=O)nc(/C=C/c2ccccc2)n1Cc1ccccc1 (cis-trans isomerization)
Cc1cc(=O)nc(/C=C/c2ccccc2)n1Cc1ccccc1 (3D coordinates assigned)
Cc1cc(=O)nc(/C=C/c2ccccc2)n1Cc1ccccc1 (optimized conformer: 54.60963909598364 kcal/mol)

>  <smiles>  (25) 
Cc1cc(=O)nc(C=Cc2ccccc2)n1Cc1ccccc1

>  <score_type>  (25) 
oracle

>  <origin>  (25) 
adgpu

>  <m_score__min__energy>  (25) 
-7.9000000000000004

>  <m_primary>  (25) 
energy

$$$$
25:0
     RDKit          3D

 37 39  0  0  0  0  0  0  0  0999 V2000
   -6.1280   18.1020  -34.2130 C   0  0  0  0  0  0  0  0  0  0  0  0
   -6.4410   19.2670  -33.3210 C   0  0  0  0  0  0  0  0  0  0  0  0
   -7.7030   19.3750  -32.7190 C   0  0  0  0  0  0  0  0  0  0  0  0
   -8.0130   20.4810  -31.9220 C   0  0  0  0  0  0  0  0  0  0  0  0
   -7.0700   21.5040  -31.7360 C   0  0  0  0  0  0  0  0  0  0  0  0
   -7.3730   22.6600  -30.8190 C   0  0  0  0  0  0  0  0  0  0  0  0
   -6.6710   23.8490  -31.2890 N   0  0  0  0  0  0  0  0  0  0  0  0
   -6.5130   24.9990  -30.4490 C   0  0  0  0  0  0  0  0  0  0  0  0
   -7.4170   25.3140  -29.6280 O   0  0  0  0  0  0  0  0  0  0  0  0
   -5.2310   25.7670  -30.4740 C   0  0  0  0  0  0  0  0  0  0  0  0
   -4.0910   24.8030  -30.4270 C   0  0  0  0  0  0  0  0  0  0  0  0
   -4.0550   23.6770  -31.1880 N   0  0  0  0  0  0  0  0  0  0  0  0
   -2.9480   23.0640  -30.7460 C   0  0  0  0  0  0  0  0  0  0  0  0
   -2.4230   21.8450  -31.1670 C   0  0  0  0  0  0  0  0  0  0  0  0
   -1.2510   21.3860  -30.5350 C   0  0  0  0  0  0  0  0  0  0  0  0
   -0.6490   22.1480  -29.5070 C   0  0  0  0  0  0  0  0  0  0  0  0
   -1.2140   23.3710  -29.1020 C   0  0  0  0  0  0  0  0  0  0  0  0
   -2.3690   23.7960  -29.7550 C   0  0  0  0  0  0  0  0  0  0  0  0
   -3.0820   24.9080  -29.5230 N   0  0  0  0  0  0  0  0  0  0  0  0
   -5.8070   21.3940  -32.3360 C   0  0  0  0  0  0  0  0  0  0  0  0
   -5.4990   20.2890  -33.1340 C   0  0  0  0  0  0  0  0  0  0  0  0
   -5.8915   17.2218  -33.5971 H   0  0  0  0  0  0  0  0  0  0  0  0
   -6.9989   17.8820  -34.8479 H   0  0  0  0  0  0  0  0  0  0  0  0
   -5.2641   18.3481  -34.8479 H   0  0  0  0  0  0  0  0  0  0  0  0
   -8.4529   18.5854  -32.8747 H   0  0  0  0  0  0  0  0  0  0  0  0
   -8.9990   20.5498  -31.4392 H   0  0  0  0  0  0  0  0  0  0  0  0
   -8.4563   22.8511  -30.8152 H   0  0  0  0  0  0  0  0  0  0  0  0
   -7.0405   22.4165  -29.7991 H   0  0  0  0  0  0  0  0  0  0  0  0
   -6.0280   23.7390  -32.1050 H   0  0  0  0  0  0  0  0  0  0  0  0
   -5.1743   26.3617  -31.3976 H   0  0  0  0  0  0  0  0  0  0  0  0
   -5.1840   26.4437  -29.6081 H   0  0  0  0  0  0  0  0  0  0  0  0
   -2.9062   21.2615  -31.9645 H   0  0  0  0  0  0  0  0  0  0  0  0
   -0.8018   20.4302  -30.8425 H   0  0  0  0  0  0  0  0  0  0  0  0
    0.2673   21.7819  -29.0208 H   0  0  0  0  0  0  0  0  0  0  0  0
   -0.7603   23.9701  -28.2988 H   0  0  0  0  0  0  0  0  0  0  0  0
   -5.0553   22.1813  -32.1776 H   0  0  0  0  0  0  0  0  0  0  0  0
   -4.5134   20.2205  -33.6176 H   0  0  0  0  0  0  0  0  0  0  0  0
  1  2  1  0
  2  3  2  0
  3  4  1  0
  4  5  2  0
  5  6  1  0
  6  7  1  0
  7  8  1  0
  8  9  2  0
  8 10  1  0
 10 11  1  0
 11 12  2  0
 12 13  1  0
 13 14  2  0
 14 15  1  0
 15 16  2  0
 16 17  1  0
 17 18  2  0
 18 19  1  0
  5 20  1  0
 20 21  2  0
 21  2  1  0
 19 11  1  0
 18 13  1  0
  1 22  1  0
  1 23  1  0
  1 24  1  0
  3 25  1  0
  4 26  1  0
  6 27  1  0
  6 28  1  0
  7 29  1  0
 10 30  1  0
 10 31  1  0
 14 32  1  0
 15 33  1  0
 16 34  1  0
 17 35  1  0
 20 36  1  0
 21 37  1  0
M  CHG  1  19  -1
M  END
>  <UniqueID>  (26) 
26

>  <SMILES>  (26) 
Cc1ccc(CNC(=O)Cc2nc3ccccc3[n-]2)cc1

>  <Energy>  (26) 
63.62724105714708

>  <Genealogy>  (26) 
Cc1ccc(CNC(=O)Cc2nc3ccccc3[n-]2)cc1 (protonated)
Cc1ccc(CNC(=O)Cc2nc3ccccc3[n-]2)cc1 (3D coordinates assigned)
Cc1ccc(CNC(=O)Cc2nc3ccccc3[n-]2)cc1 (optimized conformer: 63.62724105714708 kcal/mol)

>  <smiles>  (26) 
Cc1ccc(CNC(=O)Cc2nc3ccccc3[nH]2)cc1

>  <score_type>  (26) 
oracle

>  <origin>  (26) 
adgpu

>  <m_score__min__energy>  (26) 
-8.8499999999999996

>  <m_primary>  (26) 
energy

$$$$
26:0
     RDKit          3D

 36 38  0  0  0  0  0  0  0  0999 V2000
   -1.5890   20.8560  -30.4370 H   0  0  0  0  0  0  0  0  0  0  0  0
   -2.4210   21.4500  -30.6550 N   0  0  0  0  0  0  0  0  0  0  0  0
   -2.5330   22.6770  -30.2430 C   0  0  0  0  0  0  0  0  0  0  0  0
   -1.5130   23.2550  -29.4720 C   0  0  0  0  0  0  0  0  0  0  0  0
   -0.6172   22.6704  -29.2156 H   0  0  0  0  0  0  0  0  0  0  0  0
   -1.6380   24.5770  -29.0300 C   0  0  0  0  0  0  0  0  0  0  0  0
   -0.5560   25.2020  -28.2070 C   0  0  0  0  0  0  0  0  0  0  0  0
   -0.7848   25.0698  -27.1392 H   0  0  0  0  0  0  0  0  0  0  0  0
    0.4054   24.7201  -28.4384 H   0  0  0  0  0  0  0  0  0  0  0  0
   -0.4931   26.2756  -28.4384 H   0  0  0  0  0  0  0  0  0  0  0  0
   -2.7460   25.2950  -29.3470 N   0  0  0  0  0  0  0  0  0  0  0  0
   -3.7570   24.7720  -30.0910 C   0  0  0  0  0  0  0  0  0  0  0  0
   -4.8750   25.5550  -30.3870 C   0  0  0  0  0  0  0  0  0  0  0  0
   -4.9325   26.5891  -30.0163 H   0  0  0  0  0  0  0  0  0  0  0  0
   -5.9200   25.0320  -31.1510 C   0  0  0  0  0  0  0  0  0  0  0  0
   -6.7975   25.6561  -31.3756 H   0  0  0  0  0  0  0  0  0  0  0  0
   -5.8590   23.7120  -31.6360 C   0  0  0  0  0  0  0  0  0  0  0  0
   -6.9170   23.1470  -32.4320 N   0  0  0  0  0  0  0  0  0  0  0  0
   -6.9690   23.3840  -33.4480 H   0  0  0  0  0  0  0  0  0  0  0  0
   -8.2100   22.1860  -31.7850 S   0  0  0  0  0  0  0  0  0  0  0  0
   -8.2480   22.3460  -30.2920 O   0  0  0  0  0  0  0  0  0  0  0  0
   -9.5130   22.6640  -32.3630 O   0  0  0  0  0  0  0  0  0  0  0  0
   -7.9460   20.4870  -32.1640 C   0  0  0  0  0  0  0  0  0  0  0  0
   -8.7890   19.5010  -31.6310 C   0  0  0  0  0  0  0  0  0  0  0  0
   -9.6165   19.7872  -30.9651 H   0  0  0  0  0  0  0  0  0  0  0  0
   -8.5790   18.1540  -31.9450 C   0  0  0  0  0  0  0  0  0  0  0  0
   -9.2424   17.3827  -31.5267 H   0  0  0  0  0  0  0  0  0  0  0  0
   -7.5280   17.7870  -32.7890 C   0  0  0  0  0  0  0  0  0  0  0  0
   -7.3660   16.7276  -33.0367 H   0  0  0  0  0  0  0  0  0  0  0  0
   -6.6820   18.7660  -33.3190 C   0  0  0  0  0  0  0  0  0  0  0  0
   -5.8535   18.4765  -33.9822 H   0  0  0  0  0  0  0  0  0  0  0  0
   -6.8890   20.1130  -33.0060 C   0  0  0  0  0  0  0  0  0  0  0  0
   -6.2206   20.8815  -33.4215 H   0  0  0  0  0  0  0  0  0  0  0  0
   -4.7380   22.9230  -31.3320 C   0  0  0  0  0  0  0  0  0  0  0  0
   -4.6868   21.8876  -31.7000 H   0  0  0  0  0  0  0  0  0  0  0  0
   -3.6770   23.4410  -30.5610 C   0  0  0  0  0  0  0  0  0  0  0  0
  1  2  1  0
  2  3  2  0
  3  4  1  0
  4  5  1  0
  4  6  2  0
  6  7  1  0
  7  8  1  0
  7  9  1  0
  7 10  1  0
  6 11  1  0
 11 12  1  0
 12 13  2  0
 13 14  1  0
 13 15  1  0
 15 16  1  0
 15 17  2  0
 17 18  1  0
 18 19  1  0
 18 20  1  0
 20 21  2  0
 20 22  2  0
 20 23  1  0
 23 24  2  0
 24 25  1  0
 24 26  1  0
 26 27  1  0
 26 28  2  0
 28 29  1  0
 28 30  1  0
 30 31  1  0
 30 32  2  0
 32 33  1  0
 17 34  1  0
 34 35  1  0
 34 36  2  0
 36  3  1  0
 36 12  1  0
 32 23  1  0
M  CHG  1  11  -1
M  END
>  <UniqueID>  (27) 
27

>  <SMILES>  (27) 
[H]/N=c1\cc(C)[n-]c2ccc(NS(=O)(=O)c3ccccc3)cc12

>  <Energy>  (27) 
45.31531535780196

>  <Genealogy>  (27) 
Cc1cc(=N)c2cc(NS(=O)(=O)c3ccccc3)ccc2[n-]1 (protonated)
[H]/N=c1\cc(C)[n-]c2ccc(NS(=O)(=O)c3ccccc3)cc12 (cis-trans isomerization)
[H]/N=c1\cc(C)[n-]c2ccc(NS(=O)(=O)c3ccccc3)cc12 (3D coordinates assigned)
[H]/N=c1\cc(C)[n-]c2ccc(NS(=O)(=O)c3ccccc3)cc12 (optimized conformer: 45.31531535780196 kcal/mol)

>  <smiles>  (27) 
Cc1cc(=N)c2cc(NS(=O)(=O)c3ccccc3)ccc2[nH]1

>  <score_type>  (27) 
oracle

>  <origin>  (27) 
adgpu

>  <m_score__min__energy>  (27) 
-10.699999999999999

>  <m_primary>  (27) 
energy

$$$$
27:0
     RDKit          3D

 42 44  0  0  0  0  0  0  0  0999 V2000
   -4.1630   26.0490  -30.1830 H   0  0  0  0  0  0  0  0  0  0  0  0
   -3.8580   25.0980  -30.4910 N   0  0  0  0  0  0  0  0  0  0  0  0
   -2.8380   24.5070  -29.9570 C   0  0  0  0  0  0  0  0  0  0  0  0
   -2.1500   25.1190  -28.9540 N   0  0  0  0  0  0  0  0  0  0  0  0
   -1.1070   24.5070  -28.3340 C   0  0  0  0  0  0  0  0  0  0  0  0
   -0.5555   25.0244  -27.5352 H   0  0  0  0  0  0  0  0  0  0  0  0
   -0.7420   23.2180  -28.7190 C   0  0  0  0  0  0  0  0  0  0  0  0
    0.0897   22.7033  -28.2156 H   0  0  0  0  0  0  0  0  0  0  0  0
   -1.4220   22.6030  -29.7210 N   0  0  0  0  0  0  0  0  0  0  0  0
   -2.4490   23.2150  -30.3680 C   0  0  0  0  0  0  0  0  0  0  0  0
   -3.1080   22.5220  -31.3910 O   0  0  0  0  0  0  0  0  0  0  0  0
   -2.4660   21.7260  -32.3500 C   0  0  0  0  0  0  0  0  0  0  0  0
   -1.1390   21.8930  -32.6000 N   0  0  0  0  0  0  0  0  0  0  0  0
   -0.4820   21.1110  -33.4940 C   0  0  0  0  0  0  0  0  0  0  0  0
    0.9660   21.3590  -33.7810 C   0  0  0  0  0  0  0  0  0  0  0  0
    1.3486   22.1172  -33.0819 H   0  0  0  0  0  0  0  0  0  0  0  0
    1.5189   20.4160  -33.6586 H   0  0  0  0  0  0  0  0  0  0  0  0
    1.1510   21.8560  -35.2100 C   0  0  0  0  0  0  0  0  0  0  0  0
    1.5347   22.8868  -35.1929 H   0  0  0  0  0  0  0  0  0  0  0  0
    1.8676   21.2066  -35.7342 H   0  0  0  0  0  0  0  0  0  0  0  0
    0.1842   21.8333  -35.7342 H   0  0  0  0  0  0  0  0  0  0  0  0
   -1.1540   20.1380  -34.1630 N   0  0  0  0  0  0  0  0  0  0  0  0
   -2.4750   19.9230  -33.9420 C   0  0  0  0  0  0  0  0  0  0  0  0
   -2.9973   19.1204  -34.4833 H   0  0  0  0  0  0  0  0  0  0  0  0
   -3.1780   20.7200  -33.0260 C   0  0  0  0  0  0  0  0  0  0  0  0
   -4.6260   20.4980  -32.7990 C   0  0  0  0  0  0  0  0  0  0  0  0
   -5.4630   21.5730  -32.4560 C   0  0  0  0  0  0  0  0  0  0  0  0
   -5.0414   22.5844  -32.3591 H   0  0  0  0  0  0  0  0  0  0  0  0
   -6.8280   21.3660  -32.2370 C   0  0  0  0  0  0  0  0  0  0  0  0
   -7.4766   22.2161  -31.9789 H   0  0  0  0  0  0  0  0  0  0  0  0
   -7.3730   20.0800  -32.3450 C   0  0  0  0  0  0  0  0  0  0  0  0
   -9.0950   19.8220  -32.0850 S   0  0  0  0  0  0  0  0  0  0  0  0
   -9.7420   19.3710  -33.3650 O   0  0  0  0  0  0  0  0  0  0  0  0
   -9.3000   18.7610  -31.0400 O   0  0  0  0  0  0  0  0  0  0  0  0
   -9.8430   21.3420  -31.5430 C   0  0  0  0  0  0  0  0  0  0  0  0
   -9.8577   21.3718  -30.4435 H   0  0  0  0  0  0  0  0  0  0  0  0
   -9.2611   22.1937  -31.9252 H   0  0  0  0  0  0  0  0  0  0  0  0
  -10.8728   21.4006  -31.9252 H   0  0  0  0  0  0  0  0  0  0  0  0
   -6.5430   19.0040  -32.6840 C   0  0  0  0  0  0  0  0  0  0  0  0
   -6.9670   17.9932  -32.7766 H   0  0  0  0  0  0  0  0  0  0  0  0
   -5.1790   19.2090  -32.9050 C   0  0  0  0  0  0  0  0  0  0  0  0
   -4.5332   18.3569  -33.1636 H   0  0  0  0  0  0  0  0  0  0  0  0
  1  2  1  0
  2  3  2  0
  3  4  1  0
  4  5  1  0
  5  6  1  0
  5  7  2  0
  7  8  1  0
  7  9  1  0
  9 10  2  0
 10 11  1  0
 11 12  1  0
 12 13  2  0
 13 14  1  0
 14 15  1  0
 15 16  1  0
 15 17  1  0
 15 18  1  0
 18 19  1  0
 18 20  1  0
 18 21  1  0
 14 22  2  0
 22 23  1  0
 23 24  1  0
 23 25  2  0
 25 26  1  0
 26 27  2  0
 27 28  1  0
 27 29  1  0
 29 30  1  0
 29 31  2  0
 31 32  1  0
 32 33  2  0
 32 34  2  0
 32 35  1  0
 35 36  1  0
 35 37  1  0
 35 38  1  0
 31 39  1  0
 39 40  1  0
 39 41  2  0
 41 42  1  0
 10  3  1  0
 25 12  1  0
 41 26  1  0
M  CHG  1   4  -1
M  END
>  <UniqueID>  (28) 
28

>  <SMILES>  (28) 
[H]/N=c1\[n-]ccnc1Oc1nc(CC)ncc1-c1ccc(S(C)(=O)=O)cc1

>  <Energy>  (28) 
52.92717927987523

>  <Genealogy>  (28) 
CCc1ncc(-c2ccc(S(C)(=O)=O)cc2)c(Oc2ncc[n-]c2=N)n1 (protonated)
[H]/N=c1\[n-]ccnc1Oc1nc(CC)ncc1-c1ccc(S(C)(=O)=O)cc1 (cis-trans isomerization)
[H]/N=c1\[n-]ccnc1Oc1nc(CC)ncc1-c1ccc(S(C)(=O)=O)cc1 (3D coordinates assigned)
[H]/N=c1\[n-]ccnc1Oc1nc(CC)ncc1-c1ccc(S(C)(=O)=O)cc1 (optimized conformer: 52.92717927987523 kcal/mol)

>  <smiles>  (28) 
CCc1ncc(-c2ccc(S(C)(=O)=O)cc2)c(Oc2ncc[nH]c2=N)n1

>  <score_type>  (28) 
oracle

>  <origin>  (28) 
adgpu

>  <m_score__min__energy>  (28) 
-9.7300000000000004

>  <m_primary>  (28) 
energy

$$$$
28:0
     RDKit          3D

 39 40  0  0  0  0  0  0  0  0999 V2000
   -5.6700   18.2070  -34.9850 C   0  0  0  0  0  0  0  0  0  0  0  0
   -5.7800   18.3000  -33.5350 N   0  0  0  0  0  0  0  0  0  0  0  0
   -7.0150   18.3810  -32.8100 C   0  0  0  0  0  0  0  0  0  0  0  0
   -7.6020   17.3120  -32.4940 O   0  0  0  0  0  0  0  0  0  0  0  0
   -7.6400   19.6710  -32.4590 C   0  0  0  0  0  0  0  0  0  0  0  0
   -8.8950   19.6910  -31.8340 C   0  0  0  0  0  0  0  0  0  0  0  0
   -9.4900   20.9070  -31.4850 C   0  0  0  0  0  0  0  0  0  0  0  0
   -8.8310   22.1100  -31.7450 C   0  0  0  0  0  0  0  0  0  0  0  0
   -7.5630   22.1060  -32.3460 C   0  0  0  0  0  0  0  0  0  0  0  0
   -6.8250   23.4030  -32.5800 C   0  0  0  0  0  0  0  0  0  0  0  0
   -6.4720   24.0880  -31.3220 N   0  0  0  0  0  0  0  0  0  0  0  0
   -6.0620   23.1600  -30.2540 C   0  0  0  0  0  0  0  0  0  0  0  0
   -4.6980   22.5550  -30.5270 C   0  0  0  0  0  0  0  0  0  0  0  0
   -4.6190   21.1720  -30.7820 C   0  0  0  0  0  0  0  0  0  0  0  0
   -3.4040   20.5760  -31.1200 C   0  0  0  0  0  0  0  0  0  0  0  0
   -2.2470   21.3470  -31.2000 C   0  0  0  0  0  0  0  0  0  0  0  0
   -2.2940   22.7120  -30.9140 C   0  0  0  0  0  0  0  0  0  0  0  0
   -3.5040   23.3280  -30.5480 C   0  0  0  0  0  0  0  0  0  0  0  0
   -3.4650   24.7570  -30.1670 C   0  0  0  0  0  0  0  0  0  0  0  0
   -2.4100   25.2620  -29.3520 N   0  0  0  0  0  0  0  0  0  0  0  0
   -4.3350   25.5510  -30.6150 O   0  0  0  0  0  0  0  0  0  0  0  0
   -6.9670   20.8820  -32.6940 C   0  0  0  0  0  0  0  0  0  0  0  0
   -4.8542   17.5173  -35.2473 H   0  0  0  0  0  0  0  0  0  0  0  0
   -6.6162   17.8309  -35.4011 H   0  0  0  0  0  0  0  0  0  0  0  0
   -5.4565   19.2026  -35.4011 H   0  0  0  0  0  0  0  0  0  0  0  0
   -9.4138   18.7455  -31.6173 H   0  0  0  0  0  0  0  0  0  0  0  0
  -10.4795   20.9159  -31.0045 H   0  0  0  0  0  0  0  0  0  0  0  0
   -9.3076   23.0647  -31.4777 H   0  0  0  0  0  0  0  0  0  0  0  0
   -5.9004   23.1873  -33.1355 H   0  0  0  0  0  0  0  0  0  0  0  0
   -7.4920   24.0690  -33.1470 H   0  0  0  0  0  0  0  0  0  0  0  0
   -5.6840   24.7500  -31.5060 H   0  0  0  0  0  0  0  0  0  0  0  0
   -6.0242   23.7081  -29.3010 H   0  0  0  0  0  0  0  0  0  0  0  0
   -6.7965   22.3423  -30.2107 H   0  0  0  0  0  0  0  0  0  0  0  0
   -5.5266   20.5543  -30.7138 H   0  0  0  0  0  0  0  0  0  0  0  0
   -3.3597   19.4959  -31.3236 H   0  0  0  0  0  0  0  0  0  0  0  0
   -1.2944   20.8791  -31.4892 H   0  0  0  0  0  0  0  0  0  0  0  0
   -1.3746   23.3127  -30.9755 H   0  0  0  0  0  0  0  0  0  0  0  0
   -1.5480   25.6680  -29.7800 H   0  0  0  0  0  0  0  0  0  0  0  0
   -5.9675   20.8717  -33.1532 H   0  0  0  0  0  0  0  0  0  0  0  0
  1  2  1  0
  2  3  1  0
  3  4  2  0
  3  5  1  0
  5  6  2  0
  6  7  1  0
  7  8  2  0
  8  9  1  0
  9 10  1  0
 10 11  1  0
 11 12  1  0
 12 13  1  0
 13 14  2  0
 14 15  1  0
 15 16  2  0
 16 17  1  0
 17 18  2  0
 18 19  1  0
 19 20  1  0
 19 21  2  0
  9 22  2  0
 22  5  1  0
 18 13  1  0
  1 23  1  0
  1 24  1  0
  1 25  1  0
  6 26  1  0
  7 27  1  0
  8 28  1  0
 10 29  1  0
 10 30  1  0
 11 31  1  0
 12 32  1  0
 12 33  1  0
 14 34  1  0
 15 35  1  0
 16 36  1  0
 17 37  1  0
 20 38  1  0
 22 39  1  0
M  CHG  2   2  -1  20  -1
M  END
>  <UniqueID>  (29) 
29

>  <SMILES>  (29) 
C[N-]C(=O)c1cccc(CNCc2ccccc2C([NH-])=O)c1

>  <Energy>  (29) 
48.954966939737346

>  <Genealogy>  (29) 
C[N-]C(=O)c1cccc(CNCc2ccccc2C([NH-])=O)c1 (protonated)
C[N-]C(=O)c1cccc(CNCc2ccccc2C([NH-])=O)c1 (3D coordinates assigned)
C[N-]C(=O)c1cccc(CNCc2ccccc2C([NH-])=O)c1 (optimized conformer: 48.954966939737346 kcal/mol)

>  <smiles>  (29) 
CNC(=O)c1cccc(CNCc2ccccc2C(N)=O)c1

>  <score_type>  (29) 
oracle

>  <origin>  (29) 
adgpu

>  <m_score__min__energy>  (29) 
-10.970000000000001

>  <m_primary>  (29) 
energy

$$$$
29:0
     RDKit          3D

 54 56  0  0  0  0  0  0  0  0999 V2000
   -6.1170   19.2990  -33.1840 C   0  0  0  0  0  0  0  0  0  0  0  0
   -7.1340   20.4350  -33.2180 C   0  0  0  0  0  0  0  0  0  0  0  0
   -7.9880   20.4070  -32.0150 N   0  0  0  0  0  0  0  0  0  0  0  0
   -9.1940   19.5670  -32.1720 C   0  0  0  0  0  0  0  0  0  0  0  0
   -9.0650   18.1690  -31.5580 C   0  0  0  0  0  0  0  0  0  0  0  0
   -8.3330   22.0000  -31.3540 S   0  0  0  0  0  0  0  0  0  0  0  0
   -9.0880   21.8340  -30.0650 O   0  0  0  0  0  0  0  0  0  0  0  0
   -9.2210   22.7580  -32.3000 O   0  0  0  0  0  0  0  0  0  0  0  0
   -6.8890   22.9710  -31.0250 C   0  0  0  0  0  0  0  0  0  0  0  0
   -6.9820   24.1590  -30.2870 C   0  0  0  0  0  0  0  0  0  0  0  0
   -5.8400   24.9190  -30.0280 C   0  0  0  0  0  0  0  0  0  0  0  0
   -4.5890   24.4900  -30.4790 C   0  0  0  0  0  0  0  0  0  0  0  0
   -3.4770   25.2960  -30.2590 O   0  0  0  0  0  0  0  0  0  0  0  0
   -4.4710   23.2650  -31.1670 C   0  0  0  0  0  0  0  0  0  0  0  0
   -3.2040   22.7880  -31.6470 N   0  0  0  0  0  0  0  0  0  0  0  0
   -3.0690   21.8230  -32.7000 C   0  0  0  0  0  0  0  0  0  0  0  0
   -4.0220   21.6320  -33.5030 O   0  0  0  0  0  0  0  0  0  0  0  0
   -1.7990   21.1000  -32.9070 C   0  0  0  0  0  0  0  0  0  0  0  0
   -1.1750   21.0520  -34.1000 N   0  0  0  0  0  0  0  0  0  0  0  0
   -0.0300   20.3660  -33.9280 C   0  0  0  0  0  0  0  0  0  0  0  0
    0.9600   20.1440  -35.0300 C   0  0  0  0  0  0  0  0  0  0  0  0
    0.0890   19.9500  -32.6060 C   0  0  0  0  0  0  0  0  0  0  0  0
    1.2260   19.2220  -31.9960 C   0  0  0  0  0  0  0  0  0  0  0  0
    1.0060   18.0320  -31.2430 N   0  0  0  0  0  0  0  0  0  0  0  0
    2.4030   19.6440  -32.1450 O   0  0  0  0  0  0  0  0  0  0  0  0
   -1.0620   20.3960  -31.9580 C   0  0  0  0  0  0  0  0  0  0  0  0
   -1.4330   20.1520  -30.5170 C   0  0  0  0  0  0  0  0  0  0  0  0
   -0.3320   20.4490  -29.5050 C   0  0  0  0  0  0  0  0  0  0  0  0
   -1.4970   21.4060  -29.6520 C   0  0  0  0  0  0  0  0  0  0  0  0
   -5.6280   22.5220  -31.4440 C   0  0  0  0  0  0  0  0  0  0  0  0
   -5.8879   19.0431  -32.1390 H   0  0  0  0  0  0  0  0  0  0  0  0
   -6.5339   18.4182  -33.6942 H   0  0  0  0  0  0  0  0  0  0  0  0
   -5.1956   19.6163  -33.6942 H   0  0  0  0  0  0  0  0  0  0  0  0
   -6.6005   21.3961  -33.2598 H   0  0  0  0  0  0  0  0  0  0  0  0
   -7.7708   20.3129  -34.1066 H   0  0  0  0  0  0  0  0  0  0  0  0
  -10.0383   20.0804  -31.6886 H   0  0  0  0  0  0  0  0  0  0  0  0
   -9.3454   19.4269  -33.2525 H   0  0  0  0  0  0  0  0  0  0  0  0
   -9.0723   18.2483  -30.4609 H   0  0  0  0  0  0  0  0  0  0  0  0
   -9.9094   17.5450  -31.8862 H   0  0  0  0  0  0  0  0  0  0  0  0
   -8.1207   17.7101  -31.8862 H   0  0  0  0  0  0  0  0  0  0  0  0
   -7.9596   24.4941  -29.9101 H   0  0  0  0  0  0  0  0  0  0  0  0
   -5.9254   25.8606  -29.4658 H   0  0  0  0  0  0  0  0  0  0  0  0
   -2.3420   23.2860  -31.3290 H   0  0  0  0  0  0  0  0  0  0  0  0
   -1.5020   21.4970  -34.9880 H   0  0  0  0  0  0  0  0  0  0  0  0
    1.9468   19.9227  -34.5973 H   0  0  0  0  0  0  0  0  0  0  0  0
    0.6336   19.2967  -35.6510 H   0  0  0  0  0  0  0  0  0  0  0  0
    1.0266   21.0495  -35.6510 H   0  0  0  0  0  0  0  0  0  0  0  0
    1.2340   17.9920  -30.2250 H   0  0  0  0  0  0  0  0  0  0  0  0
   -2.1013   19.3012  -30.7157 H   0  0  0  0  0  0  0  0  0  0  0  0
   -0.2381   19.8329  -28.5986 H   0  0  0  0  0  0  0  0  0  0  0  0
    0.7627   20.5449  -29.5542 H   0  0  0  0  0  0  0  0  0  0  0  0
   -2.2482   21.4840  -28.8522 H   0  0  0  0  0  0  0  0  0  0  0  0
   -1.5968   22.4831  -29.8519 H   0  0  0  0  0  0  0  0  0  0  0  0
   -5.5453   21.5748  -31.9971 H   0  0  0  0  0  0  0  0  0  0  0  0
  1  2  1  0
  2  3  1  0
  3  4  1  0
  4  5  1  0
  3  6  1  0
  6  7  2  0
  6  8  2  0
  6  9  1  0
  9 10  2  0
 10 11  1  0
 11 12  2  0
 12 13  1  0
 12 14  1  0
 14 15  1  0
 15 16  1  0
 16 17  2  0
 16 18  1  0
 18 19  1  0
 19 20  1  0
 20 21  1  0
 20 22  2  0
 22 23  1  0
 23 24  1  0
 23 25  2  0
 22 26  1  0
 26 27  1  0
 27 28  1  0
 28 29  1  0
 14 30  2  0
 30  9  1  0
 26 18  2  0
 29 27  1  0
  1 31  1  0
  1 32  1  0
  1 33  1  0
  2 34  1  0
  2 35  1  0
  4 36  1  0
  4 37  1  0
  5 38  1  0
  5 39  1  0
  5 40  1  0
 10 41  1  0
 11 42  1  0
 15 43  1  0
 19 44  1  0
 21 45  1  0
 21 46  1  0
 21 47  1  0
 24 48  1  0
 27 49  1  0
 28 50  1  0
 28 51  1  0
 29 52  1  0
 29 53  1  0
 30 54  1  0
M  CHG  2  13  -1  24  -1
M  END
>  <UniqueID>  (30) 
30

>  <SMILES>  (30) 
CCN(CC)S(=O)(=O)c1ccc([O-])c(NC(=O)c2[nH]c(C)c(C([NH-])=O)c2C2CC2)c1

>  <Energy>  (30) 
350.9006827112703

>  <Genealogy>  (30) 
CCN(CC)S(=O)(=O)c1ccc([O-])c(NC(=O)c2[nH]c(C)c(C([NH-])=O)c2C2CC2)c1 (protonated)
CCN(CC)S(=O)(=O)c1ccc([O-])c(NC(=O)c2[nH]c(C)c(C([NH-])=O)c2C2CC2)c1 (3D coordinates assigned)
CCN(CC)S(=O)(=O)c1ccc([O-])c(NC(=O)c2[nH]c(C)c(C([NH-])=O)c2C2CC2)c1 (nonaromatic ring conformer: 350.9006827112703 kcal/mol)

>  <smiles>  (30) 
CCN(CC)S(=O)(=O)c1ccc(O)c(NC(=O)c2[nH]c(C)c(C(N)=O)c2C2CC2)c1

>  <score_type>  (30) 
oracle

>  <origin>  (30) 
adgpu

>  <m_score__min__energy>  (30) 
-11.970000000000001

>  <m_primary>  (30) 
energy

$$$$
30:0
     RDKit          3D

 43 45  0  0  0  0  0  0  0  0999 V2000
   -4.8270   24.6380  -28.3700 N   0  0  0  0  0  0  0  0  0  0  0  0
   -5.1730   24.9410  -30.0370 S   0  0  0  0  0  0  0  0  0  0  0  0
   -5.7320   26.3270  -30.1890 O   0  0  0  0  0  0  0  0  0  0  0  0
   -3.9050   24.8410  -30.8370 O   0  0  0  0  0  0  0  0  0  0  0  0
   -6.3430   23.7610  -30.6180 C   0  0  0  0  0  0  0  0  0  0  0  0
   -7.2330   23.1550  -29.7200 C   0  0  0  0  0  0  0  0  0  0  0  0
   -8.1280   22.1800  -30.1700 C   0  0  0  0  0  0  0  0  0  0  0  0
   -8.1320   21.7970  -31.5160 C   0  0  0  0  0  0  0  0  0  0  0  0
   -9.1920   20.4590  -32.0670 S   0  0  0  0  0  0  0  0  0  0  0  0
   -7.7830   19.5350  -32.6660 C   0  0  0  0  0  0  0  0  0  0  0  0
   -7.1960   18.5500  -31.8670 C   0  0  0  0  0  0  0  0  0  0  0  0
   -6.0100   17.9480  -32.2890 C   0  0  0  0  0  0  0  0  0  0  0  0
   -5.4250   18.3310  -33.5020 C   0  0  0  0  0  0  0  0  0  0  0  0
   -3.8460   17.6990  -33.9730 S   0  0  0  0  0  0  0  0  0  0  0  0
   -3.9600   17.0150  -35.3070 O   0  0  0  0  0  0  0  0  0  0  0  0
   -3.3970   16.6820  -32.9610 O   0  0  0  0  0  0  0  0  0  0  0  0
   -2.6550   18.9800  -34.0680 N   0  0  0  0  0  0  0  0  0  0  0  0
   -1.3620   18.5680  -33.4780 C   0  0  0  0  0  0  0  0  0  0  0  0
   -1.1390   19.1880  -32.0850 C   0  0  0  0  0  0  0  0  0  0  0  0
   -1.1640   20.6080  -32.0910 O   0  0  0  0  0  0  0  0  0  0  0  0
   -2.0400   21.1640  -33.0660 C   0  0  0  0  0  0  0  0  0  0  0  0
   -3.1860   20.2260  -33.4820 C   0  0  0  0  0  0  0  0  0  0  0  0
   -6.0790   19.2790  -34.2990 C   0  0  0  0  0  0  0  0  0  0  0  0
   -7.2240   19.8640  -33.8610 N   0  0  0  0  0  0  0  0  0  0  0  0
   -7.2540   22.4110  -32.4170 C   0  0  0  0  0  0  0  0  0  0  0  0
   -6.3590   23.3870  -31.9680 C   0  0  0  0  0  0  0  0  0  0  0  0
   -5.7030   24.2620  -27.9400 H   0  0  0  0  0  0  0  0  0  0  0  0
   -4.6480   25.5640  -27.9220 H   0  0  0  0  0  0  0  0  0  0  0  0
   -7.2270   23.4473  -28.6596 H   0  0  0  0  0  0  0  0  0  0  0  0
   -8.8308   21.7127  -29.4645 H   0  0  0  0  0  0  0  0  0  0  0  0
   -7.6634   18.2528  -30.9166 H   0  0  0  0  0  0  0  0  0  0  0  0
   -5.5351   17.1732  -31.6692 H   0  0  0  0  0  0  0  0  0  0  0  0
   -1.3471   17.4720  -33.3854 H   0  0  0  0  0  0  0  0  0  0  0  0
   -0.5583   18.9225  -34.1401 H   0  0  0  0  0  0  0  0  0  0  0  0
   -1.9309   18.8278  -31.4118 H   0  0  0  0  0  0  0  0  0  0  0  0
   -0.1375   18.8814  -31.7487 H   0  0  0  0  0  0  0  0  0  0  0  0
   -2.4785   22.0843  -32.6529 H   0  0  0  0  0  0  0  0  0  0  0  0
   -1.4373   21.3506  -33.9671 H   0  0  0  0  0  0  0  0  0  0  0  0
   -3.7901   19.9795  -32.5964 H   0  0  0  0  0  0  0  0  0  0  0  0
   -3.8036   20.7358  -34.2361 H   0  0  0  0  0  0  0  0  0  0  0  0
   -5.6647   19.5502  -35.2812 H   0  0  0  0  0  0  0  0  0  0  0  0
   -7.2682   22.1254  -33.4792 H   0  0  0  0  0  0  0  0  0  0  0  0
   -5.6653   23.8626  -32.6770 H   0  0  0  0  0  0  0  0  0  0  0  0
  1  2  1  0
  2  3  2  0
  2  4  2  0
  2  5  1  0
  5  6  2  0
  6  7  1  0
  7  8  2  0
  8  9  1  0
  9 10  1  0
 10 11  2  0
 11 12  1  0
 12 13  2  0
 13 14  1  0
 14 15  2  0
 14 16  2  0
 14 17  1  0
 17 18  1  0
 18 19  1  0
 19 20  1  0
 20 21  1  0
 21 22  1  0
 13 23  1  0
 23 24  2  0
  8 25  1  0
 25 26  2  0
 26  5  1  0
 24 10  1  0
 22 17  1  0
  1 27  1  0
  1 28  1  0
  6 29  1  0
  7 30  1  0
 11 31  1  0
 12 32  1  0
 18 33  1  0
 18 34  1  0
 19 35  1  0
 19 36  1  0
 21 37  1  0
 21 38  1  0
 22 39  1  0
 22 40  1  0
 23 41  1  0
 25 42  1  0
 26 43  1  0
M  END
>  <UniqueID>  (31) 
31

>  <SMILES>  (31) 
NS(=O)(=O)c1ccc(Sc2ccc(S(=O)(=O)N3CCOCC3)cn2)cc1

>  <Energy>  (31) 
49.77387208376239

>  <Genealogy>  (31) 
NS(=O)(=O)c1ccc(Sc2ccc(S(=O)(=O)N3CCOCC3)cn2)cc1 (3D coordinates assigned)
NS(=O)(=O)c1ccc(Sc2ccc(S(=O)(=O)N3CCOCC3)cn2)cc1 (nonaromatic ring conformer: 49.77387208376239 kcal/mol)

>  <smiles>  (31) 
NS(=O)(=O)c1ccc(Sc2ccc(S(=O)(=O)N3CCOCC3)cn2)cc1

>  <score_type>  (31) 
oracle

>  <origin>  (31) 
adgpu

>  <m_score__min__energy>  (31) 
-10.380000000000001

>  <m_primary>  (31) 
energy

$$$$
31:0
     RDKit          3D

 49 51  0  0  1  0  0  0  0  0999 V2000
   -9.0800   22.6370  -31.9180 C   0  0  0  0  0  0  0  0  0  0  0  0
   -9.4940   21.5420  -31.0630 N   0  0  0  0  0  0  0  0  0  0  0  0
   -8.9150   20.0950  -31.7990 S   0  0  0  0  0  0  0  0  0  0  0  0
   -9.0800   18.8920  -30.9000 O   0  0  0  0  0  0  0  0  0  0  0  0
   -9.6940   19.7880  -33.0440 O   0  0  0  0  0  0  0  0  0  0  0  0
   -7.2320   20.1800  -32.2430 C   0  0  0  0  0  0  0  0  0  0  0  0
   -6.8480   19.5910  -33.4330 C   0  0  0  0  0  0  0  0  0  0  0  0
   -5.5160   19.6470  -33.8050 C   0  0  0  0  0  0  0  0  0  0  0  0
   -4.5650   20.2720  -33.0230 C   0  0  0  0  0  0  0  0  0  0  0  0
   -4.9910   20.8570  -31.8260 C   0  0  0  0  0  0  0  0  0  0  0  0
   -3.9770   21.4890  -31.0530 N   0  0  0  0  0  0  0  0  0  0  0  0
   -3.9640   22.7460  -30.7720 C   0  0  0  0  0  0  0  0  0  0  0  0
   -4.9470   23.5310  -31.2190 N   0  0  0  0  0  0  0  0  0  0  0  0
   -4.9080   24.8420  -30.9110 C   0  0  0  0  0  0  0  0  0  0  0  0
   -3.8920   25.3590  -30.1620 N   0  0  0  0  0  0  0  0  0  0  0  0
   -2.8910   24.5490  -29.7090 C   0  0  0  0  0  0  0  0  0  0  0  0
   -1.8320   25.1150  -28.9210 N   0  0  0  0  0  0  0  0  0  0  0  0
   -2.9040   23.2010  -30.0090 C   0  0  0  0  0  0  0  0  0  0  0  0
   -1.8700   22.3140  -29.5520 C   0  0  0  0  0  0  0  0  0  0  0  0
   -1.3510   21.3590  -30.2500 N   0  0  0  0  0  0  0  0  0  0  0  0
   -0.3170   20.5310  -29.6860 C   0  0  0  0  0  0  0  0  0  0  0  0
    0.2460   20.8030  -28.4570 C   0  0  0  0  0  0  0  0  0  0  0  0
    1.2450   19.9650  -27.9630 C   0  0  0  0  0  0  0  0  0  0  0  0
    1.6600   18.8740  -28.7050 C   0  0  0  0  0  0  0  0  0  0  0  0
    2.6470   17.9990  -28.2770 O   0  0  0  0  0  0  0  0  0  0  0  0
    2.3570   16.8590  -27.4900 C   0  0  0  0  0  0  0  0  0  0  0  0
    1.0790   18.6210  -29.9390 C   0  0  0  0  0  0  0  0  0  0  0  0
    0.0820   19.4510  -30.4410 C   0  0  0  0  0  0  0  0  0  0  0  0
   -6.3140   20.8170  -31.4280 C   0  0  0  0  0  0  0  0  0  0  0  0
   -8.7590   23.4861  -31.2968 H   0  0  0  0  0  0  0  0  0  0  0  0
   -8.2433   22.3103  -32.5530 H   0  0  0  0  0  0  0  0  0  0  0  0
   -9.9235   22.9455  -32.5530 H   0  0  0  0  0  0  0  0  0  0  0  0
   -9.2040   21.6280  -30.0850 H   0  0  0  0  0  0  0  0  0  0  0  0
   -7.5874   19.0870  -34.0727 H   0  0  0  0  0  0  0  0  0  0  0  0
   -5.2059   19.1799  -34.7514 H   0  0  0  0  0  0  0  0  0  0  0  0
   -3.5095   20.3086  -33.3305 H   0  0  0  0  0  0  0  0  0  0  0  0
   -5.7083   25.5061  -31.2693 H   0  0  0  0  0  0  0  0  0  0  0  0
   -3.8700   26.3950  -29.9220 H   0  0  0  0  0  0  0  0  0  0  0  0
   -0.9330   25.2650  -29.4270 H   0  0  0  0  0  0  0  0  0  0  0  0
   -1.9680   25.3550  -27.9050 H   0  0  0  0  0  0  0  0  0  0  0  0
   -1.4914   22.4594  -28.5295 H   0  0  0  0  0  0  0  0  0  0  0  0
   -0.0895   21.6722  -27.8723 H   0  0  0  0  0  0  0  0  0  0  0  0
    1.7026   20.1714  -26.9842 H   0  0  0  0  0  0  0  0  0  0  0  0
    2.4240   17.1225  -26.4241 H   0  0  0  0  0  0  0  0  0  0  0  0
    1.3404   16.5056  -27.7171 H   0  0  0  0  0  0  0  0  0  0  0  0
    3.0812   16.0628  -27.7171 H   0  0  0  0  0  0  0  0  0  0  0  0
    1.4108   17.7532  -30.5279 H   0  0  0  0  0  0  0  0  0  0  0  0
   -0.3776   19.2489  -31.4198 H   0  0  0  0  0  0  0  0  0  0  0  0
   -6.6302   21.2821  -30.4827 H   0  0  0  0  0  0  0  0  0  0  0  0
  1  2  1  0
  2  3  1  0
  3  4  2  0
  3  5  2  0
  3  6  1  0
  6  7  2  0
  7  8  1  0
  8  9  2  0
  9 10  1  0
 10 11  1  0
 11 12  2  0
 12 13  1  0
 13 14  2  0
 14 15  1  0
 15 16  1  0
 16 17  1  0
 16 18  2  0
 18 19  1  0
 19 20  2  0
 20 21  1  0
 21 22  2  0
 22 23  1  0
 23 24  2  0
 24 25  1  0
 25 26  1  0
 24 27  1  0
 27 28  2  0
 10 29  2  0
 29  6  1  0
 18 12  1  0
 28 21  1  0
  1 30  1  0
  1 31  1  0
  1 32  1  0
  2 33  1  0
  7 34  1  0
  8 35  1  0
  9 36  1  0
 14 37  1  0
 15 38  1  0
 17 39  1  0
 17 40  1  0
 19 41  1  0
 22 42  1  0
 23 43  1  0
 26 44  1  0
 26 45  1  0
 26 46  1  0
 27 47  1  0
 28 48  1  0
 29 49  1  0
M  END
>  <smiles>  (32) 
CNS(=O)(=O)c1cccc(N=c2nc[nH]c(N)c2C=Nc2ccc(OC)cc2)c1

>  <score_type>  (32) 
oracle

>  <origin>  (32) 
adgpu

>  <m_score__min__energy>  (32) 
-8.4100000000000001

>  <m_primary>  (32) 
energy

$$$$
32:0
     RDKit          3D

 45 48  0  0  0  0  0  0  0  0999 V2000
   -0.3399   28.4854  -23.3886 H   0  0  0  0  0  0  0  0  0  0  0  0
   -0.3870   28.5610  -24.4850 C   0  0  0  0  0  0  0  0  0  0  0  0
   -0.5750   27.4090  -25.2570 C   0  0  0  0  0  0  0  0  0  0  0  0
   -0.6629   26.4286  -24.7659 H   0  0  0  0  0  0  0  0  0  0  0  0
   -0.6520   27.5000  -26.6590 C   0  0  0  0  0  0  0  0  0  0  0  0
   -0.8180   26.3320  -27.4800 N   0  0  0  0  0  0  0  0  0  0  0  0
   -1.7810   26.1300  -27.8280 H   0  0  0  0  0  0  0  0  0  0  0  0
    0.2370   25.3970  -27.7760 C   0  0  0  0  0  0  0  0  0  0  0  0
    1.4160   25.6250  -27.3930 O   0  0  0  0  0  0  0  0  0  0  0  0
   -0.0150   24.2110  -28.5420 N   0  0  0  0  0  0  0  0  0  0  0  0
   -1.1170   23.9290  -29.1680 C   0  0  0  0  0  0  0  0  0  0  0  0
   -2.2430   24.6850  -29.1040 N   0  0  0  0  0  0  0  0  0  0  0  0
   -3.2420   24.1150  -29.8250 C   0  0  0  0  0  0  0  0  0  0  0  0
   -4.5210   24.6540  -29.9600 C   0  0  0  0  0  0  0  0  0  0  0  0
   -4.7845   25.6023  -29.4688 H   0  0  0  0  0  0  0  0  0  0  0  0
   -5.4670   23.9620  -30.7360 C   0  0  0  0  0  0  0  0  0  0  0  0
   -6.4818   24.3709  -30.8501 H   0  0  0  0  0  0  0  0  0  0  0  0
   -5.1270   22.7460  -31.3710 C   0  0  0  0  0  0  0  0  0  0  0  0
   -6.3190   21.9000  -32.3620 S   0  0  0  0  0  0  0  0  0  0  0  0
   -7.2540   22.9050  -32.9770 O   0  0  0  0  0  0  0  0  0  0  0  0
   -5.6150   21.1780  -33.4750 O   0  0  0  0  0  0  0  0  0  0  0  0
   -7.2400   20.7490  -31.4200 N   0  0  0  0  0  0  0  0  0  0  0  0
   -8.6860   21.0620  -31.4360 C   0  0  0  0  0  0  0  0  0  0  0  0
   -9.0785   20.9800  -30.4117 H   0  0  0  0  0  0  0  0  0  0  0  0
   -8.8086   22.0823  -31.8284 H   0  0  0  0  0  0  0  0  0  0  0  0
   -9.4730   20.1040  -32.3480 C   0  0  0  0  0  0  0  0  0  0  0  0
  -10.5380   20.3756  -32.3033 H   0  0  0  0  0  0  0  0  0  0  0  0
   -9.0607   20.2080  -33.3625 H   0  0  0  0  0  0  0  0  0  0  0  0
   -9.3400   18.7390  -31.9780 O   0  0  0  0  0  0  0  0  0  0  0  0
   -8.0670   18.4140  -31.4310 C   0  0  0  0  0  0  0  0  0  0  0  0
   -8.1461   18.4366  -30.3341 H   0  0  0  0  0  0  0  0  0  0  0  0
   -7.8000   17.4190  -31.8165 H   0  0  0  0  0  0  0  0  0  0  0  0
   -6.9410   19.3710  -31.8540 C   0  0  0  0  0  0  0  0  0  0  0  0
   -5.9968   19.0440  -31.3940 H   0  0  0  0  0  0  0  0  0  0  0  0
   -6.8556   19.3553  -32.9506 H   0  0  0  0  0  0  0  0  0  0  0  0
   -3.8340   22.2110  -31.2140 C   0  0  0  0  0  0  0  0  0  0  0  0
   -3.5561   21.2585  -31.6888 H   0  0  0  0  0  0  0  0  0  0  0  0
   -2.9170   22.9180  -30.4430 C   0  0  0  0  0  0  0  0  0  0  0  0
   -1.3210   22.5260  -30.0920 S   0  0  0  0  0  0  0  0  0  0  0  0
   -0.4970   28.7530  -27.2730 C   0  0  0  0  0  0  0  0  0  0  0  0
   -0.5228   28.8314  -28.3699 H   0  0  0  0  0  0  0  0  0  0  0  0
   -0.3100   29.9020  -26.4980 C   0  0  0  0  0  0  0  0  0  0  0  0
   -0.2029   30.8820  -26.9859 H   0  0  0  0  0  0  0  0  0  0  0  0
   -0.2590   29.8070  -25.1040 C   0  0  0  0  0  0  0  0  0  0  0  0
   -0.0740   30.9210  -24.3550 F   0  0  0  0  0  0  0  0  0  0  0  0
  1  2  1  0
  2  3  2  0
  3  4  1  0
  3  5  1  0
  5  6  1  0
  6  7  1  0
  6  8  1  0
  8  9  2  0
  8 10  1  0
 10 11  2  0
 11 12  1  0
 12 13  1  0
 13 14  2  0
 14 15  1  0
 14 16  1  0
 16 17  1  0
 16 18  2  0
 18 19  1  0
 19 20  2  0
 19 21  2  0
 19 22  1  0
 22 23  1  0
 23 24  1  0
 23 25  1  0
 23 26  1  0
 26 27  1  0
 26 28  1  0
 26 29  1  0
 29 30  1  0
 30 31  1  0
 30 32  1  0
 30 33  1  0
 33 34  1  0
 33 35  1  0
 18 36  1  0
 36 37  1  0
 36 38  2  0
 38 39  1  0
  5 40  2  0
 40 41  1  0
 40 42  1  0
 42 43  1  0
 42 44  2  0
 44 45  1  0
 44  2  1  0
 39 11  1  0
 38 13  1  0
 33 22  1  0
M  CHG  1  12  -1
M  END
>  <UniqueID>  (33) 
32

>  <SMILES>  (33) 
O=C(/N=c1\[n-]c2ccc(S(=O)(=O)N3CCOCC3)cc2s1)Nc1ccc(F)cc1

>  <Energy>  (33) 
103.56297537579862

>  <Genealogy>  (33) 
O=C(N=c1[n-]c2ccc(S(=O)(=O)N3CCOCC3)cc2s1)Nc1ccc(F)cc1 (protonated)
O=C(/N=c1\[n-]c2ccc(S(=O)(=O)N3CCOCC3)cc2s1)Nc1ccc(F)cc1 (cis-trans isomerization)
O=C(/N=c1\[n-]c2ccc(S(=O)(=O)N3CCOCC3)cc2s1)Nc1ccc(F)cc1 (3D coordinates assigned)
O=C(/N=c1\[n-]c2ccc(S(=O)(=O)N3CCOCC3)cc2s1)Nc1ccc(F)cc1 (nonaromatic ring conformer: 103.56297537579862 kcal/mol)

>  <smiles>  (33) 
O=C(N=c1[nH]c2ccc(S(=O)(=O)N3CCOCC3)cc2s1)Nc1ccc(F)cc1

>  <score_type>  (33) 
oracle

>  <origin>  (33) 
adgpu

>  <m_score__min__energy>  (33) 
-9.6500000000000004

>  <m_primary>  (33) 
energy

$$$$
33:0
     RDKit          3D

 44 46  0  0  0  0  0  0  0  0999 V2000
   -5.6990   26.4710  -30.9180 O   0  0  0  0  0  0  0  0  0  0  0  0
   -5.3740   25.2670  -30.0810 S   0  0  0  0  0  0  0  0  0  0  0  0
   -5.6960   25.5810  -28.6460 O   0  0  0  0  0  0  0  0  0  0  0  0
   -3.6800   24.8960  -30.2520 N   0  0  0  0  0  0  0  0  0  0  0  0
   -3.3620   23.5690  -29.7190 C   0  0  0  0  0  0  0  0  0  0  0  0
   -3.0030   22.6080  -30.8220 C   0  0  0  0  0  0  0  0  0  0  0  0
   -1.7830   21.9110  -30.7820 C   0  0  0  0  0  0  0  0  0  0  0  0
   -1.4370   21.0380  -31.8160 C   0  0  0  0  0  0  0  0  0  0  0  0
   -2.3050   20.8520  -32.8960 C   0  0  0  0  0  0  0  0  0  0  0  0
   -3.5230   21.5340  -32.9390 C   0  0  0  0  0  0  0  0  0  0  0  0
   -3.8750   22.4070  -31.9040 C   0  0  0  0  0  0  0  0  0  0  0  0
   -6.3420   23.9090  -30.6480 C   0  0  0  0  0  0  0  0  0  0  0  0
   -6.8220   22.9710  -29.7250 C   0  0  0  0  0  0  0  0  0  0  0  0
   -7.6200   21.9060  -30.1530 C   0  0  0  0  0  0  0  0  0  0  0  0
   -7.9470   21.7720  -31.5090 C   0  0  0  0  0  0  0  0  0  0  0  0
   -8.9660   20.4380  -32.0490 S   0  0  0  0  0  0  0  0  0  0  0  0
  -10.3500   20.9460  -32.3460 O   0  0  0  0  0  0  0  0  0  0  0  0
   -9.0650   19.4160  -30.9520 O   0  0  0  0  0  0  0  0  0  0  0  0
   -8.2850   19.6870  -33.4600 N   0  0  0  0  0  0  0  0  0  0  0  0
   -6.8280   19.8170  -33.4420 C   0  0  0  0  0  0  0  0  0  0  0  0
   -6.1950   18.4890  -33.7070 C   0  0  0  0  0  0  0  0  0  0  0  0
   -4.9120   18.2860  -34.1730 C   0  0  0  0  0  0  0  0  0  0  0  0
   -4.7690   16.9190  -34.2770 C   0  0  0  0  0  0  0  0  0  0  0  0
   -5.9710   16.3760  -33.8700 C   0  0  0  0  0  0  0  0  0  0  0  0
   -6.8010   17.3370  -33.5370 O   0  0  0  0  0  0  0  0  0  0  0  0
   -7.4690   22.7120  -32.4330 C   0  0  0  0  0  0  0  0  0  0  0  0
   -6.6630   23.7700  -32.0050 C   0  0  0  0  0  0  0  0  0  0  0  0
   -2.5108   23.6551  -29.0276 H   0  0  0  0  0  0  0  0  0  0  0  0
   -4.2498   23.1825  -29.1970 H   0  0  0  0  0  0  0  0  0  0  0  0
   -1.0981   22.0536  -29.9331 H   0  0  0  0  0  0  0  0  0  0  0  0
   -0.4804   20.4962  -31.7805 H   0  0  0  0  0  0  0  0  0  0  0  0
   -2.0286   20.1683  -33.7122 H   0  0  0  0  0  0  0  0  0  0  0  0
   -4.2065   21.3845  -33.7878 H   0  0  0  0  0  0  0  0  0  0  0  0
   -4.8380   22.9376  -31.9380 H   0  0  0  0  0  0  0  0  0  0  0  0
   -6.5700   23.0728  -28.6591 H   0  0  0  0  0  0  0  0  0  0  0  0
   -7.9921   21.1715  -29.4236 H   0  0  0  0  0  0  0  0  0  0  0  0
   -8.5250   18.6690  -33.4050 H   0  0  0  0  0  0  0  0  0  0  0  0
   -6.5160   20.5311  -34.2183 H   0  0  0  0  0  0  0  0  0  0  0  0
   -6.5091   20.1792  -32.4535 H   0  0  0  0  0  0  0  0  0  0  0  0
   -4.1612   19.0538  -34.4114 H   0  0  0  0  0  0  0  0  0  0  0  0
   -3.8772   16.3714  -34.6159 H   0  0  0  0  0  0  0  0  0  0  0  0
   -6.1989   15.3006  -33.8306 H   0  0  0  0  0  0  0  0  0  0  0  0
   -7.7292   22.6163  -33.4975 H   0  0  0  0  0  0  0  0  0  0  0  0
   -6.2789   24.4967  -32.7361 H   0  0  0  0  0  0  0  0  0  0  0  0
  1  2  2  0
  2  3  2  0
  2  4  1  0
  4  5  1  0
  5  6  1  0
  6  7  2  0
  7  8  1  0
  8  9  2  0
  9 10  1  0
 10 11  2  0
  2 12  1  0
 12 13  2  0
 13 14  1  0
 14 15  2  0
 15 16  1  0
 16 17  2  0
 16 18  2  0
 16 19  1  0
 19 20  1  0
 20 21  1  0
 21 22  2  0
 22 23  1  0
 23 24  2  0
 24 25  1  0
 15 26  1  0
 26 27  2  0
 11  6  1  0
 27 12  1  0
 25 21  1  0
  5 28  1  0
  5 29  1  0
  7 30  1  0
  8 31  1  0
  9 32  1  0
 10 33  1  0
 11 34  1  0
 13 35  1  0
 14 36  1  0
 19 37  1  0
 20 38  1  0
 20 39  1  0
 22 40  1  0
 23 41  1  0
 24 42  1  0
 26 43  1  0
 27 44  1  0
M  CHG  1   4  -1
M  END
>  <UniqueID>  (34) 
33

>  <SMILES>  (34) 
O=S(=O)([N-]Cc1ccccc1)c1ccc(S(=O)(=O)NCc2ccco2)cc1

>  <Energy>  (34) 
62.37451571640261

>  <Genealogy>  (34) 
O=S(=O)([N-]Cc1ccccc1)c1ccc(S(=O)(=O)NCc2ccco2)cc1 (protonated)
O=S(=O)([N-]Cc1ccccc1)c1ccc(S(=O)(=O)NCc2ccco2)cc1 (3D coordinates assigned)
O=S(=O)([N-]Cc1ccccc1)c1ccc(S(=O)(=O)NCc2ccco2)cc1 (optimized conformer: 62.37451571640261 kcal/mol)

>  <smiles>  (34) 
O=S(=O)(NCc1ccccc1)c1ccc(S(=O)(=O)NCc2ccco2)cc1

>  <score_type>  (34) 
oracle

>  <origin>  (34) 
adgpu

>  <m_score__min__energy>  (34) 
-10.390000000000001

>  <m_primary>  (34) 
energy

$$$$
34:0
     RDKit          3D

 46 49  0  0  0  0  0  0  0  0999 V2000
   -1.3040   27.0710  -25.1310 C   0  0  0  0  0  0  0  0  0  0  0  0
   -0.8410   26.0770  -26.1540 C   0  0  0  0  0  0  0  0  0  0  0  0
    0.5200   25.9700  -26.4710 C   0  0  0  0  0  0  0  0  0  0  0  0
    0.9280   25.0810  -27.4700 C   0  0  0  0  0  0  0  0  0  0  0  0
    2.3810   24.9430  -27.8140 C   0  0  0  0  0  0  0  0  0  0  0  0
    0.0010   24.3180  -28.1140 N   0  0  0  0  0  0  0  0  0  0  0  0
   -1.3320   24.3900  -27.8300 C   0  0  0  0  0  0  0  0  0  0  0  0
   -2.2600   23.5420  -28.5410 N   0  0  0  0  0  0  0  0  0  0  0  0
   -1.8000   22.3830  -29.3230 C   0  0  0  0  0  0  0  0  0  0  0  0
   -2.5960   22.3150  -30.6310 C   0  0  0  0  0  0  0  0  0  0  0  0
   -4.0600   22.1920  -30.4020 N   0  0  0  0  0  0  0  0  0  0  0  0
   -4.9710   22.9000  -31.7250 S   0  0  0  0  0  0  0  0  0  0  0  0
   -5.0630   24.3900  -31.5120 O   0  0  0  0  0  0  0  0  0  0  0  0
   -4.2610   22.6670  -33.0350 O   0  0  0  0  0  0  0  0  0  0  0  0
   -6.6190   22.2480  -31.8130 C   0  0  0  0  0  0  0  0  0  0  0  0
   -7.7120   23.1340  -31.8920 C   0  0  0  0  0  0  0  0  0  0  0  0
   -9.0310   22.6500  -31.9390 C   0  0  0  0  0  0  0  0  0  0  0  0
   -9.2870   21.2710  -31.9000 C   0  0  0  0  0  0  0  0  0  0  0  0
   -8.2140   20.3810  -31.8060 C   0  0  0  0  0  0  0  0  0  0  0  0
   -8.3810   19.0340  -31.7370 N   0  0  0  0  0  0  0  0  0  0  0  0
   -6.8010   18.5470  -31.6290 S   0  0  0  0  0  0  0  0  0  0  0  0
   -5.8940   19.9290  -31.6640 N   0  0  0  0  0  0  0  0  0  0  0  0
   -6.8730   20.8670  -31.7680 C   0  0  0  0  0  0  0  0  0  0  0  0
   -4.5290   22.7230  -29.0940 C   0  0  0  0  0  0  0  0  0  0  0  0
   -3.6840   23.9020  -28.5820 C   0  0  0  0  0  0  0  0  0  0  0  0
   -1.7750   25.2920  -26.8480 C   0  0  0  0  0  0  0  0  0  0  0  0
   -1.1185   26.6727  -24.1226 H   0  0  0  0  0  0  0  0  0  0  0  0
   -0.7524   28.0139  -25.2600 H   0  0  0  0  0  0  0  0  0  0  0  0
   -2.3807   27.2555  -25.2600 H   0  0  0  0  0  0  0  0  0  0  0  0
    1.2624   26.5815  -25.9373 H   0  0  0  0  0  0  0  0  0  0  0  0
    2.9731   24.8868  -26.8887 H   0  0  0  0  0  0  0  0  0  0  0  0
    2.5329   24.0264  -28.4028 H   0  0  0  0  0  0  0  0  0  0  0  0
    2.7028   25.8146  -28.4028 H   0  0  0  0  0  0  0  0  0  0  0  0
   -0.7289   22.4921  -29.5485 H   0  0  0  0  0  0  0  0  0  0  0  0
   -1.9555   21.4599  -28.7453 H   0  0  0  0  0  0  0  0  0  0  0  0
   -2.4052   23.2319  -31.2079 H   0  0  0  0  0  0  0  0  0  0  0  0
   -2.2668   21.4179  -31.1758 H   0  0  0  0  0  0  0  0  0  0  0  0
   -4.2900   21.1690  -30.4160 H   0  0  0  0  0  0  0  0  0  0  0  0
   -7.5307   24.2187  -31.9172 H   0  0  0  0  0  0  0  0  0  0  0  0
   -9.8697   23.3585  -32.0069 H   0  0  0  0  0  0  0  0  0  0  0  0
  -10.3199   20.8951  -31.9429 H   0  0  0  0  0  0  0  0  0  0  0  0
   -5.5696   23.0613  -29.2066 H   0  0  0  0  0  0  0  0  0  0  0  0
   -4.4367   21.9102  -28.3585 H   0  0  0  0  0  0  0  0  0  0  0  0
   -3.8197   24.7621  -29.2542 H   0  0  0  0  0  0  0  0  0  0  0  0
   -4.0135   24.1571  -27.5640 H   0  0  0  0  0  0  0  0  0  0  0  0
   -2.8482   25.3825  -26.6242 H   0  0  0  0  0  0  0  0  0  0  0  0
  1  2  1  0
  2  3  2  0
  3  4  1  0
  4  5  1  0
  4  6  2  0
  6  7  1  0
  7  8  1  0
  8  9  1  0
  9 10  1  0
 10 11  1  0
 11 12  1  0
 12 13  2  0
 12 14  2  0
 12 15  1  0
 15 16  2  0
 16 17  1  0
 17 18  2  0
 18 19  1  0
 19 20  2  0
 20 21  1  0
 21 22  1  0
 22 23  2  0
 11 24  1  0
 24 25  1  0
  7 26  2  0
 26  2  1  0
 25  8  1  0
 23 15  1  0
 23 19  1  0
  1 27  1  0
  1 28  1  0
  1 29  1  0
  3 30  1  0
  5 31  1  0
  5 32  1  0
  5 33  1  0
  9 34  1  0
  9 35  1  0
 10 36  1  0
 10 37  1  0
 11 38  1  0
 16 39  1  0
 17 40  1  0
 18 41  1  0
 24 42  1  0
 24 43  1  0
 25 44  1  0
 25 45  1  0
 26 46  1  0
M  CHG  1  11   1
M  END
>  <UniqueID>  (35) 
34

>  <SMILES>  (35) 
Cc1cc(C)nc(N2CC[NH+](S(=O)(=O)c3cccc4nsnc34)CC2)c1

>  <Energy>  (35) 
95.50492154146914

>  <Genealogy>  (35) 
Cc1cc(C)nc(N2CC[NH+](S(=O)(=O)c3cccc4nsnc34)CC2)c1 (protonated)
Cc1cc(C)nc(N2CC[NH+](S(=O)(=O)c3cccc4nsnc34)CC2)c1 (3D coordinates assigned)
Cc1cc(C)nc(N2CC[NH+](S(=O)(=O)c3cccc4nsnc34)CC2)c1 (nonaromatic ring conformer: 95.50492154146914 kcal/mol)

>  <smiles>  (35) 
Cc1cc(C)nc(N2CCN(S(=O)(=O)c3cccc4nsnc34)CC2)c1

>  <score_type>  (35) 
oracle

>  <origin>  (35) 
adgpu

>  <m_score__min__energy>  (35) 
-8.6099999999999994

>  <m_primary>  (35) 
energy

$$$$
35:0
     RDKit          3D

 57 60  0  0  0  0  0  0  0  0999 V2000
   -5.3930   24.9740  -28.8010 O   0  0  0  0  0  0  0  0  0  0  0  0
   -4.3670   24.2870  -29.6580 S   0  0  0  0  0  0  0  0  0  0  0  0
   -3.8280   25.2930  -30.6330 O   0  0  0  0  0  0  0  0  0  0  0  0
   -5.1490   22.9920  -30.5690 C   0  0  0  0  0  0  0  0  0  0  0  0
   -6.4810   22.6580  -30.2960 C   0  0  0  0  0  0  0  0  0  0  0  0
   -7.1070   21.6250  -30.9950 C   0  0  0  0  0  0  0  0  0  0  0  0
   -6.4010   20.8940  -31.9560 C   0  0  0  0  0  0  0  0  0  0  0  0
   -7.2470   19.6350  -32.8520 S   0  0  0  0  0  0  0  0  0  0  0  0
   -8.5080   19.2210  -32.1370 O   0  0  0  0  0  0  0  0  0  0  0  0
   -7.6090   20.1820  -34.2090 O   0  0  0  0  0  0  0  0  0  0  0  0
   -6.1230   18.3090  -32.9910 N   0  0  0  0  0  0  0  0  0  0  0  0
   -6.4680   17.2030  -32.0800 C   0  0  0  0  0  0  0  0  0  0  0  0
   -5.2610   16.2480  -31.9800 C   0  0  0  0  0  0  0  0  0  0  0  0
   -4.4460   16.3130  -33.2110 N   0  0  0  0  0  0  0  0  0  0  0  0
   -3.0710   16.7200  -33.1120 C   0  0  0  0  0  0  0  0  0  0  0  0
   -2.7860   18.0550  -33.1330 N   0  0  0  0  0  0  0  0  0  0  0  0
   -1.5170   18.5250  -33.0770 C   0  0  0  0  0  0  0  0  0  0  0  0
   -0.4510   17.6360  -32.9880 C   0  0  0  0  0  0  0  0  0  0  0  0
   -0.7030   16.2680  -32.9380 C   0  0  0  0  0  0  0  0  0  0  0  0
   -2.0190   15.7770  -33.0120 C   0  0  0  0  0  0  0  0  0  0  0  0
   -2.2390   14.2890  -32.8310 C   0  0  0  0  0  0  0  0  0  0  0  0
   -1.1210   13.6410  -32.3540 F   0  0  0  0  0  0  0  0  0  0  0  0
   -3.2660   14.0730  -31.9240 F   0  0  0  0  0  0  0  0  0  0  0  0
   -2.5810   13.7290  -34.0450 F   0  0  0  0  0  0  0  0  0  0  0  0
   -5.1520   16.5510  -34.4760 C   0  0  0  0  0  0  0  0  0  0  0  0
   -5.9980   17.8410  -34.3870 C   0  0  0  0  0  0  0  0  0  0  0  0
   -5.0680   21.2270  -32.2330 C   0  0  0  0  0  0  0  0  0  0  0  0
   -4.4440   22.2720  -31.5460 C   0  0  0  0  0  0  0  0  0  0  0  0
   -3.0590   23.6960  -28.6640 N   0  0  0  0  0  0  0  0  0  0  0  0
   -2.8890   24.5320  -27.4590 C   0  0  0  0  0  0  0  0  0  0  0  0
   -1.6790   24.0530  -26.6320 C   0  0  0  0  0  0  0  0  0  0  0  0
   -1.1180   22.8790  -27.1840 O   0  0  0  0  0  0  0  0  0  0  0  0
   -0.6630   23.1350  -28.5060 C   0  0  0  0  0  0  0  0  0  0  0  0
   -1.8060   23.6300  -29.4280 C   0  0  0  0  0  0  0  0  0  0  0  0
   -7.0372   23.2130  -29.5262 H   0  0  0  0  0  0  0  0  0  0  0  0
   -8.1605   21.3846  -30.7892 H   0  0  0  0  0  0  0  0  0  0  0  0
   -6.7054   17.6047  -31.0839 H   0  0  0  0  0  0  0  0  0  0  0  0
   -7.3437   16.6602  -32.4653 H   0  0  0  0  0  0  0  0  0  0  0  0
   -4.6404   16.5379  -31.1193 H   0  0  0  0  0  0  0  0  0  0  0  0
   -5.6306   15.2199  -31.8520 H   0  0  0  0  0  0  0  0  0  0  0  0
   -1.3296   19.6086  -33.1019 H   0  0  0  0  0  0  0  0  0  0  0  0
    0.5827   18.0109  -32.9574 H   0  0  0  0  0  0  0  0  0  0  0  0
    0.1360   15.5634  -32.8396 H   0  0  0  0  0  0  0  0  0  0  0  0
   -4.4166   16.6553  -35.2873 H   0  0  0  0  0  0  0  0  0  0  0  0
   -5.8194   15.7001  -34.6774 H   0  0  0  0  0  0  0  0  0  0  0  0
   -5.5156   18.6273  -34.9862 H   0  0  0  0  0  0  0  0  0  0  0  0
   -7.0055   17.6211  -34.7698 H   0  0  0  0  0  0  0  0  0  0  0  0
   -4.5101   20.6630  -32.9950 H   0  0  0  0  0  0  0  0  0  0  0  0
   -3.3988   22.5306  -31.7713 H   0  0  0  0  0  0  0  0  0  0  0  0
   -2.7279   25.5766  -27.7636 H   0  0  0  0  0  0  0  0  0  0  0  0
   -3.7952   24.4512  -26.8408 H   0  0  0  0  0  0  0  0  0  0  0  0
   -0.9156   24.8449  -26.6205 H   0  0  0  0  0  0  0  0  0  0  0  0
   -2.0203   23.8301  -25.6103 H   0  0  0  0  0  0  0  0  0  0  0  0
    0.1217   23.9050  -28.4686 H   0  0  0  0  0  0  0  0  0  0  0  0
   -0.2763   22.1924  -28.9206 H   0  0  0  0  0  0  0  0  0  0  0  0
   -1.5587   24.6301  -29.8136 H   0  0  0  0  0  0  0  0  0  0  0  0
   -1.9264   22.9316  -30.2693 H   0  0  0  0  0  0  0  0  0  0  0  0
  1  2  2  0
  2  3  2  0
  2  4  1  0
  4  5  2  0
  5  6  1  0
  6  7  2  0
  7  8  1  0
  8  9  2  0
  8 10  2  0
  8 11  1  0
 11 12  1  0
 12 13  1  0
 13 14  1  0
 14 15  1  0
 15 16  2  0
 16 17  1  0
 17 18  2  0
 18 19  1  0
 19 20  2  0
 20 21  1  0
 21 22  1  0
 21 23  1  0
 21 24  1  0
 14 25  1  0
 25 26  1  0
  7 27  1  0
 27 28  2  0
  2 29  1  0
 29 30  1  0
 30 31  1  0
 31 32  1  0
 32 33  1  0
 33 34  1  0
 28  4  1  0
 34 29  1  0
 26 11  1  0
 20 15  1  0
  5 35  1  0
  6 36  1  0
 12 37  1  0
 12 38  1  0
 13 39  1  0
 13 40  1  0
 17 41  1  0
 18 42  1  0
 19 43  1  0
 25 44  1  0
 25 45  1  0
 26 46  1  0
 26 47  1  0
 27 48  1  0
 28 49  1  0
 30 50  1  0
 30 51  1  0
 31 52  1  0
 31 53  1  0
 33 54  1  0
 33 55  1  0
 34 56  1  0
 34 57  1  0
M  END
>  <UniqueID>  (36) 
35

>  <SMILES>  (36) 
O=S(=O)(c1ccc(S(=O)(=O)N2CCN(c3ncccc3C(F)(F)F)CC2)cc1)N1CCOCC1

>  <Energy>  (36) 
84.2811986644339

>  <Genealogy>  (36) 
O=S(=O)(c1ccc(S(=O)(=O)N2CCN(c3ncccc3C(F)(F)F)CC2)cc1)N1CCOCC1 (3D coordinates assigned)
O=S(=O)(c1ccc(S(=O)(=O)N2CCN(c3ncccc3C(F)(F)F)CC2)cc1)N1CCOCC1 (nonaromatic ring conformer: 84.2811986644339 kcal/mol)

>  <smiles>  (36) 
O=S(=O)(c1ccc(S(=O)(=O)N2CCN(c3ncccc3C(F)(F)F)CC2)cc1)N1CCOCC1

>  <score_type>  (36) 
oracle

>  <origin>  (36) 
adgpu

>  <m_score__min__energy>  (36) 
-10.42

>  <m_primary>  (36) 
energy

$$$$
36:0
     RDKit          3D

 56 59  0  0  0  0  0  0  0  0999 V2000
   -6.7030   17.8390  -33.2520 C   0  0  0  0  0  0  0  0  0  0  0  0
   -7.7520   18.7860  -33.0710 O   0  0  0  0  0  0  0  0  0  0  0  0
   -7.5950   20.0340  -32.4520 C   0  0  0  0  0  0  0  0  0  0  0  0
   -6.4940   20.8720  -32.7130 C   0  0  0  0  0  0  0  0  0  0  0  0
   -6.3800   22.1070  -32.0650 C   0  0  0  0  0  0  0  0  0  0  0  0
   -7.3610   22.5240  -31.1530 C   0  0  0  0  0  0  0  0  0  0  0  0
   -7.2140   23.8280  -30.4130 C   0  0  0  0  0  0  0  0  0  0  0  0
   -5.7740   24.2350  -30.2730 C   0  0  0  0  0  0  0  0  0  0  0  0
   -5.1510   25.0380  -31.1650 N   0  0  0  0  0  0  0  0  0  0  0  0
   -3.8790   25.2910  -30.8590 N   0  0  0  0  0  0  0  0  0  0  0  0
   -3.4710   24.6760  -29.7290 C   0  0  0  0  0  0  0  0  0  0  0  0
   -2.2960   24.8820  -29.2120 N   0  0  0  0  0  0  0  0  0  0  0  0
   -1.8200   24.2850  -28.0000 C   0  0  0  0  0  0  0  0  0  0  0  0
   -1.6010   25.0240  -27.0030 O   0  0  0  0  0  0  0  0  0  0  0  0
   -1.5330   22.8380  -27.9110 C   0  0  0  0  0  0  0  0  0  0  0  0
   -1.4860   22.2030  -26.6620 C   0  0  0  0  0  0  0  0  0  0  0  0
   -1.1990   20.8410  -26.5770 C   0  0  0  0  0  0  0  0  0  0  0  0
   -0.9290   20.0970  -27.7330 C   0  0  0  0  0  0  0  0  0  0  0  0
   -0.6320   18.7390  -27.6250 O   0  0  0  0  0  0  0  0  0  0  0  0
   -0.9560   20.7270  -28.9930 C   0  0  0  0  0  0  0  0  0  0  0  0
   -0.5780   19.8420  -30.4820 S   0  0  0  0  0  0  0  0  0  0  0  0
   -0.1140   18.4520  -30.1470 O   0  0  0  0  0  0  0  0  0  0  0  0
    0.5500   20.5410  -31.1890 O   0  0  0  0  0  0  0  0  0  0  0  0
   -1.9600   19.7360  -31.5490 N   0  0  0  0  0  0  0  0  0  0  0  0
   -3.0640   20.6250  -31.1090 C   0  0  0  0  0  0  0  0  0  0  0  0
   -3.1480   21.9210  -31.9300 C   0  0  0  0  0  0  0  0  0  0  0  0
   -3.3360   21.6220  -33.4280 C   0  0  0  0  0  0  0  0  0  0  0  0
   -2.7310   20.2750  -33.8510 C   0  0  0  0  0  0  0  0  0  0  0  0
   -1.5430   19.9120  -32.9580 C   0  0  0  0  0  0  0  0  0  0  0  0
   -1.2650   22.0950  -29.0710 C   0  0  0  0  0  0  0  0  0  0  0  0
   -4.7140   23.7600  -29.0420 S   0  0  0  0  0  0  0  0  0  0  0  0
   -8.4560   21.6850  -30.8910 C   0  0  0  0  0  0  0  0  0  0  0  0
   -8.5700   20.4520  -31.5400 C   0  0  0  0  0  0  0  0  0  0  0  0
   -6.3352   17.5070  -32.2699 H   0  0  0  0  0  0  0  0  0  0  0  0
   -7.0838   16.9728  -33.8129 H   0  0  0  0  0  0  0  0  0  0  0  0
   -5.8801   18.3061  -33.8129 H   0  0  0  0  0  0  0  0  0  0  0  0
   -5.7211   20.5549  -33.4285 H   0  0  0  0  0  0  0  0  0  0  0  0
   -5.5156   22.7550  -32.2721 H   0  0  0  0  0  0  0  0  0  0  0  0
   -7.7530   24.6124  -30.9646 H   0  0  0  0  0  0  0  0  0  0  0  0
   -7.6299   23.6952  -29.4034 H   0  0  0  0  0  0  0  0  0  0  0  0
   -1.6762   22.7812  -25.7458 H   0  0  0  0  0  0  0  0  0  0  0  0
   -1.1845   20.3468  -25.5944 H   0  0  0  0  0  0  0  0  0  0  0  0
   -0.3010   18.2020  -28.4180 H   0  0  0  0  0  0  0  0  0  0  0  0
   -4.0149   20.0817  -31.2117 H   0  0  0  0  0  0  0  0  0  0  0  0
   -2.8659   20.9070  -30.0644 H   0  0  0  0  0  0  0  0  0  0  0  0
   -4.0014   22.5165  -31.5735 H   0  0  0  0  0  0  0  0  0  0  0  0
   -2.2065   22.4752  -31.8018 H   0  0  0  0  0  0  0  0  0  0  0  0
   -4.4132   21.6078  -33.6502 H   0  0  0  0  0  0  0  0  0  0  0  0
   -2.8116   22.4093  -33.9893 H   0  0  0  0  0  0  0  0  0  0  0  0
   -3.4988   19.4918  -33.7667 H   0  0  0  0  0  0  0  0  0  0  0  0
   -2.3807   20.3553  -34.8906 H   0  0  0  0  0  0  0  0  0  0  0  0
   -1.0975   18.9734  -33.3192 H   0  0  0  0  0  0  0  0  0  0  0  0
   -0.8128   20.7335  -33.0027 H   0  0  0  0  0  0  0  0  0  0  0  0
   -1.2973   22.5898  -30.0529 H   0  0  0  0  0  0  0  0  0  0  0  0
   -9.2272   21.9991  -30.1723 H   0  0  0  0  0  0  0  0  0  0  0  0
   -9.4344   19.8045  -31.3316 H   0  0  0  0  0  0  0  0  0  0  0  0
  1  2  1  0
  2  3  1  0
  3  4  2  0
  4  5  1  0
  5  6  2  0
  6  7  1  0
  7  8  1  0
  8  9  2  0
  9 10  1  0
 10 11  1  0
 11 12  2  3
 12 13  1  0
 13 14  2  0
 13 15  1  0
 15 16  2  0
 16 17  1  0
 17 18  2  0
 18 19  1  0
 18 20  1  0
 20 21  1  0
 21 22  2  0
 21 23  2  0
 21 24  1  0
 24 25  1  0
 25 26  1  0
 26 27  1  0
 27 28  1  0
 28 29  1  0
 20 30  2  0
 11 31  1  0
  6 32  1  0
 32 33  2  0
 33  3  1  0
 31  8  1  0
 30 15  1  0
 29 24  1  0
  1 34  1  0
  1 35  1  0
  1 36  1  0
  4 37  1  0
  5 38  1  0
  7 39  1  0
  7 40  1  0
 16 41  1  0
 17 42  1  0
 19 43  1  0
 25 44  1  0
 25 45  1  0
 26 46  1  0
 26 47  1  0
 27 48  1  0
 27 49  1  0
 28 50  1  0
 28 51  1  0
 29 52  1  0
 29 53  1  0
 30 54  1  0
 32 55  1  0
 33 56  1  0
M  CHG  1  10  -1
M  END
>  <UniqueID>  (37) 
36

>  <SMILES>  (37) 
COc1ccc(Cc2n[n-]c(=NC(=O)c3ccc(O)c(S(=O)(=O)N4CCCCC4)c3)s2)cc1

>  <Energy>  (37) 
103.01725997903445

>  <Genealogy>  (37) 
COc1ccc(Cc2n[n-]c(=NC(=O)c3ccc(O)c(S(=O)(=O)N4CCCCC4)c3)s2)cc1 (protonated)
COc1ccc(Cc2n[n-]c(=NC(=O)c3ccc(O)c(S(=O)(=O)N4CCCCC4)c3)s2)cc1 (3D coordinates assigned)
COc1ccc(Cc2n[n-]c(=NC(=O)c3ccc(O)c(S(=O)(=O)N4CCCCC4)c3)s2)cc1 (nonaromatic ring conformer: 103.01725997903445 kcal/mol)

>  <smiles>  (37) 
COc1ccc(Cc2n[nH]c(=NC(=O)c3ccc(O)c(S(=O)(=O)N4CCCCC4)c3)s2)cc1

>  <score_type>  (37) 
oracle

>  <origin>  (37) 
adgpu

>  <m_score__min__energy>  (37) 
-11.42

>  <m_primary>  (37) 
energy

$$$$
37:0
     RDKit          3D

 40 42  0  0  0  0  0  0  0  0999 V2000
   -8.8670   18.6050  -31.5370 O   0  0  0  0  0  0  0  0  0  0  0  0
   -7.9980   19.0940  -32.3050 C   0  0  0  0  0  0  0  0  0  0  0  0
   -8.1460   20.4560  -32.7330 N   0  0  0  0  0  0  0  0  0  0  0  0
   -7.4170   21.5820  -32.2250 C   0  0  0  0  0  0  0  0  0  0  0  0
   -8.1210   22.7240  -31.8300 C   0  0  0  0  0  0  0  0  0  0  0  0
   -7.4460   23.8060  -31.2540 C   0  0  0  0  0  0  0  0  0  0  0  0
   -6.0570   23.7590  -31.0850 C   0  0  0  0  0  0  0  0  0  0  0  0
   -5.2220   25.0470  -30.2240 S   0  0  0  0  0  0  0  0  0  0  0  0
   -5.4780   24.9450  -28.7480 O   0  0  0  0  0  0  0  0  0  0  0  0
   -5.7170   26.3740  -30.7230 O   0  0  0  0  0  0  0  0  0  0  0  0
   -3.5150   24.9260  -30.5120 N   0  0  0  0  0  0  0  0  0  0  0  0
   -2.6000   24.1570  -29.7170 C   0  0  0  0  0  0  0  0  0  0  0  0
   -2.6370   22.7480  -29.6870 C   0  0  0  0  0  0  0  0  0  0  0  0
   -1.7020   22.0340  -28.9320 C   0  0  0  0  0  0  0  0  0  0  0  0
   -0.7230   22.7150  -28.2050 C   0  0  0  0  0  0  0  0  0  0  0  0
   -0.6840   24.1120  -28.2220 C   0  0  0  0  0  0  0  0  0  0  0  0
   -1.6280   24.8310  -28.9640 C   0  0  0  0  0  0  0  0  0  0  0  0
   -1.5910   26.2210  -28.9580 O   0  0  0  0  0  0  0  0  0  0  0  0
   -5.3430   22.6460  -31.5440 C   0  0  0  0  0  0  0  0  0  0  0  0
   -6.0170   21.5640  -32.1150 C   0  0  0  0  0  0  0  0  0  0  0  0
   -6.8430   18.2560  -32.7140 C   0  0  0  0  0  0  0  0  0  0  0  0
   -6.4370   17.2000  -31.8800 C   0  0  0  0  0  0  0  0  0  0  0  0
   -5.3730   16.3740  -32.2500 C   0  0  0  0  0  0  0  0  0  0  0  0
   -4.6960   16.5970  -33.4490 C   0  0  0  0  0  0  0  0  0  0  0  0
   -5.0700   17.6570  -34.2750 C   0  0  0  0  0  0  0  0  0  0  0  0
   -6.1330   18.4970  -33.9100 C   0  0  0  0  0  0  0  0  0  0  0  0
   -6.4670   19.5770  -34.7280 O   0  0  0  0  0  0  0  0  0  0  0  0
   -9.2106   22.7719  -31.9728 H   0  0  0  0  0  0  0  0  0  0  0  0
   -8.0080   24.6955  -30.9333 H   0  0  0  0  0  0  0  0  0  0  0  0
   -3.4050   22.2081  -30.2603 H   0  0  0  0  0  0  0  0  0  0  0  0
   -1.7373   20.9348  -28.9104 H   0  0  0  0  0  0  0  0  0  0  0  0
    0.0178   22.1515  -27.6187 H   0  0  0  0  0  0  0  0  0  0  0  0
    0.0895   24.6470  -27.6515 H   0  0  0  0  0  0  0  0  0  0  0  0
   -4.2469   22.6233  -31.4547 H   0  0  0  0  0  0  0  0  0  0  0  0
   -5.4495   20.6951  -32.4797 H   0  0  0  0  0  0  0  0  0  0  0  0
   -6.9609   17.0227  -30.9291 H   0  0  0  0  0  0  0  0  0  0  0  0
   -5.0682   15.5453  -31.5940 H   0  0  0  0  0  0  0  0  0  0  0  0
   -3.8669   15.9367  -33.7433 H   0  0  0  0  0  0  0  0  0  0  0  0
   -4.5294   17.8351  -35.2163 H   0  0  0  0  0  0  0  0  0  0  0  0
   -7.3720   20.0280  -34.6690 H   0  0  0  0  0  0  0  0  0  0  0  0
  1  2  2  0
  2  3  1  0
  3  4  1  0
  4  5  2  0
  5  6  1  0
  6  7  2  0
  7  8  1  0
  8  9  2  0
  8 10  2  0
  8 11  1  0
 11 12  1  0
 12 13  2  0
 13 14  1  0
 14 15  2  0
 15 16  1  0
 16 17  2  0
 17 18  1  0
  7 19  1  0
 19 20  2  0
  2 21  1  0
 21 22  2  0
 22 23  1  0
 23 24  2  0
 24 25  1  0
 25 26  2  0
 26 27  1  0
 20  4  1  0
 26 21  1  0
 17 12  1  0
  5 28  1  0
  6 29  1  0
 13 30  1  0
 14 31  1  0
 15 32  1  0
 16 33  1  0
 19 34  1  0
 20 35  1  0
 22 36  1  0
 23 37  1  0
 24 38  1  0
 25 39  1  0
 27 40  1  0
M  CHG  3   3  -1  11  -1  18  -1
M  END
>  <UniqueID>  (38) 
37

>  <SMILES>  (38) 
O=C([N-]c1ccc(S(=O)(=O)[N-]c2ccccc2[O-])cc1)c1ccccc1O

>  <Energy>  (38) 
52.88265421484396

>  <Genealogy>  (38) 
O=C([N-]c1ccc(S(=O)(=O)[N-]c2ccccc2[O-])cc1)c1ccccc1O (protonated)
O=C([N-]c1ccc(S(=O)(=O)[N-]c2ccccc2[O-])cc1)c1ccccc1O (3D coordinates assigned)
O=C([N-]c1ccc(S(=O)(=O)[N-]c2ccccc2[O-])cc1)c1ccccc1O (optimized conformer: 52.88265421484396 kcal/mol)

>  <smiles>  (38) 
O=C(Nc1ccc(S(=O)(=O)Nc2ccccc2O)cc1)c1ccccc1O

>  <score_type>  (38) 
oracle

>  <origin>  (38) 
adgpu

>  <m_score__min__energy>  (38) 
-13.960000000000001

>  <m_primary>  (38) 
energy

$$$$
38:0
     RDKit          3D

 62 66  0  0  0  0  0  0  0  0999 V2000
   -5.8650   24.4540  -29.4450 O   0  0  0  0  0  0  0  0  0  0  0  0
   -4.7130   24.5860  -30.4030 S   0  0  0  0  0  0  0  0  0  0  0  0
   -4.3220   26.0370  -30.4690 O   0  0  0  0  0  0  0  0  0  0  0  0
   -5.2070   24.0210  -31.9650 N   0  0  0  0  0  0  0  0  0  0  0  0
   -5.8310   22.7430  -32.1190 C   0  0  0  0  0  0  0  0  0  0  0  0
   -5.0700   21.6160  -32.4550 C   0  0  0  0  0  0  0  0  0  0  0  0
   -5.6570   20.3320  -32.5310 C   0  0  0  0  0  0  0  0  0  0  0  0
   -7.0520   20.2200  -32.3040 C   0  0  0  0  0  0  0  0  0  0  0  0
   -7.8080   21.3590  -31.9850 C   0  0  0  0  0  0  0  0  0  0  0  0
   -7.2060   22.6140  -31.9080 C   0  0  0  0  0  0  0  0  0  0  0  0
   -7.9750   23.7320  -31.6000 O   0  0  0  0  0  0  0  0  0  0  0  0
   -7.7300   18.8820  -32.2780 C   0  0  0  0  0  0  0  0  0  0  0  0
   -7.0370   17.8830  -33.2000 C   0  0  0  0  0  0  0  0  0  0  0  0
   -5.5500   17.7400  -32.8090 C   0  0  1  0  0  0  0  0  0  0  0  0
   -4.7940   16.6840  -33.5600 N   0  0  0  0  0  0  0  0  0  0  0  0
   -3.8930   15.8760  -32.7120 C   0  0  0  0  0  0  0  0  0  0  0  0
   -4.6370   14.6750  -32.1250 C   0  0  0  0  0  0  0  0  0  0  0  0
   -5.1200   13.8460  -33.1640 O   0  0  0  0  0  0  0  0  0  0  0  0
   -6.0800   14.5500  -33.9260 C   0  0  0  0  0  0  0  0  0  0  0  0
   -5.4880   15.8310  -34.5550 C   0  0  0  0  0  0  0  0  0  0  0  0
   -4.8300   19.1190  -32.9880 C   0  0  2  0  0  0  0  0  0  0  0  0
   -3.3790   19.0970  -32.4220 C   0  0  0  0  0  0  0  0  0  0  0  0
   -2.2410   19.6200  -33.2870 C   0  0  0  0  0  0  0  0  0  0  0  0
   -1.8790   20.9710  -33.1210 C   0  0  0  0  0  0  0  0  0  0  0  0
   -0.8470   21.5310  -33.8770 C   0  0  0  0  0  0  0  0  0  0  0  0
   -0.1580   20.7510  -34.8060 C   0  0  0  0  0  0  0  0  0  0  0  0
   -0.4820   19.4020  -34.9600 C   0  0  0  0  0  0  0  0  0  0  0  0
   -1.5160   18.8350  -34.2090 C   0  0  0  0  0  0  0  0  0  0  0  0
   -3.3380   23.6090  -29.8680 C   0  0  0  0  0  0  0  0  0  0  0  0
   -3.4640   22.2110  -29.8770 C   0  0  0  0  0  0  0  0  0  0  0  0
   -2.4260   21.4030  -29.4020 C   0  0  0  0  0  0  0  0  0  0  0  0
   -1.2580   21.9850  -28.9050 C   0  0  0  0  0  0  0  0  0  0  0  0
   -1.1190   23.3750  -28.8980 C   0  0  0  0  0  0  0  0  0  0  0  0
   -2.1570   24.1920  -29.3680 C   0  0  0  0  0  0  0  0  0  0  0  0
   -1.9980   25.5730  -29.3380 O   0  0  0  0  0  0  0  0  0  0  0  0
   -3.9962   21.7321  -32.6635 H   0  0  0  0  0  0  0  0  0  0  0  0
   -8.8867   21.2602  -31.7938 H   0  0  0  0  0  0  0  0  0  0  0  0
   -7.7104   18.4918  -31.2497 H   0  0  0  0  0  0  0  0  0  0  0  0
   -8.7643   19.0136  -32.6286 H   0  0  0  0  0  0  0  0  0  0  0  0
   -7.5315   16.9043  -33.1127 H   0  0  0  0  0  0  0  0  0  0  0  0
   -7.1026   18.2455  -34.2365 H   0  0  0  0  0  0  0  0  0  0  0  0
   -5.5509   17.4140  -31.7584 H   0  0  0  0  0  0  0  0  0  0  0  0
   -3.0501   15.5166  -33.3205 H   0  0  0  0  0  0  0  0  0  0  0  0
   -3.5267   16.5036  -31.8862 H   0  0  0  0  0  0  0  0  0  0  0  0
   -3.9504   14.0976  -31.4885 H   0  0  0  0  0  0  0  0  0  0  0  0
   -5.4876   15.0357  -31.5280 H   0  0  0  0  0  0  0  0  0  0  0  0
   -6.4458   13.8949  -34.7304 H   0  0  0  0  0  0  0  0  0  0  0  0
   -6.8986   14.8467  -33.2538 H   0  0  0  0  0  0  0  0  0  0  0  0
   -4.7679   15.5410  -35.3343 H   0  0  0  0  0  0  0  0  0  0  0  0
   -6.3220   16.4148  -34.9718 H   0  0  0  0  0  0  0  0  0  0  0  0
   -4.7373   19.2674  -34.0740 H   0  0  0  0  0  0  0  0  0  0  0  0
   -3.3839   19.6959  -31.4993 H   0  0  0  0  0  0  0  0  0  0  0  0
   -3.1553   18.0256  -32.3117 H   0  0  0  0  0  0  0  0  0  0  0  0
   -2.4150   21.5917  -32.3879 H   0  0  0  0  0  0  0  0  0  0  0  0
   -0.5770   22.5885  -33.7398 H   0  0  0  0  0  0  0  0  0  0  0  0
    0.6399   21.1987  -35.4167 H   0  0  0  0  0  0  0  0  0  0  0  0
    0.0787   18.7824  -35.6753 H   0  0  0  0  0  0  0  0  0  0  0  0
   -1.7658   17.7715  -34.3374 H   0  0  0  0  0  0  0  0  0  0  0  0
   -4.3853   21.7479  -30.2602 H   0  0  0  0  0  0  0  0  0  0  0  0
   -2.5297   20.3080  -29.4199 H   0  0  0  0  0  0  0  0  0  0  0  0
   -0.4476   21.3491  -28.5191 H   0  0  0  0  0  0  0  0  0  0  0  0
   -0.1910   23.8306  -28.5221 H   0  0  0  0  0  0  0  0  0  0  0  0
  1  2  2  0
  2  3  2  0
  2  4  1  0
  4  5  1  0
  5  6  2  0
  6  7  1  0
  7  8  2  0
  8  9  1  0
  9 10  2  0
 10 11  1  0
  8 12  1  0
 12 13  1  0
 13 14  1  0
 14 15  1  0
 15 16  1  0
 16 17  1  0
 17 18  1  0
 18 19  1  0
 19 20  1  0
 14 21  1  0
 21 22  1  0
 22 23  1  0
 23 24  2  0
 24 25  1  0
 25 26  2  0
 26 27  1  0
 27 28  2  0
  2 29  1  0
 29 30  2  0
 30 31  1  0
 31 32  2  0
 32 33  1  0
 33 34  2  0
 34 35  1  0
 10  5  1  0
 20 15  1  0
 28 23  1  0
 34 29  1  0
 21  7  1  0
  6 36  1  0
  9 37  1  0
 12 38  1  0
 12 39  1  0
 13 40  1  0
 13 41  1  0
 14 42  1  1
 16 43  1  0
 16 44  1  0
 17 45  1  0
 17 46  1  0
 19 47  1  0
 19 48  1  0
 20 49  1  0
 20 50  1  0
 21 51  1  6
 22 52  1  0
 22 53  1  0
 24 54  1  0
 25 55  1  0
 26 56  1  0
 27 57  1  0
 28 58  1  0
 30 59  1  0
 31 60  1  0
 32 61  1  0
 33 62  1  0
M  CHG  3   4  -1  11  -1  35  -1
M  END
>  <UniqueID>  (39) 
38

>  <SMILES>  (39) 
O=S(=O)([N-]c1cc2c(cc1[O-])CC[C@@H](N1CCOCC1)[C@@H]2Cc1ccccc1)c1ccccc1[O-]

>  <Energy>  (39) 
99.73719656155983

>  <Genealogy>  (39) 
O=S(=O)([N-]c1cc2c(cc1[O-])CCC(N1CCOCC1)C2Cc1ccccc1)c1ccccc1[O-] (protonated)
O=S(=O)([N-]c1cc2c(cc1[O-])CC[C@@H](N1CCOCC1)[C@@H]2Cc1ccccc1)c1ccccc1[O-] (chirality)
O=S(=O)([N-]c1cc2c(cc1[O-])CC[C@@H](N1CCOCC1)[C@@H]2Cc1ccccc1)c1ccccc1[O-] (3D coordinates assigned)
O=S(=O)([N-]c1cc2c(cc1[O-])CC[C@@H](N1CCOCC1)[C@@H]2Cc1ccccc1)c1ccccc1[O-] (nonaromatic ring conformer: 99.73719656155983 kcal/mol)

>  <smiles>  (39) 
O=S(=O)(Nc1cc2c(cc1O)CCC(N1CCOCC1)C2Cc1ccccc1)c1ccccc1O

>  <score_type>  (39) 
oracle

>  <origin>  (39) 
adgpu

>  <m_score__min__energy>  (39) 
-14.289999999999999

>  <m_primary>  (39) 
energy

$$$$
39:0
     RDKit          3D

 68 71  0  0  0  0  0  0  0  0999 V2000
   -0.5593   26.6254  -28.9650 H   0  0  0  0  0  0  0  0  0  0  0  0
   -0.9120   26.3260  -27.9670 C   0  0  0  0  0  0  0  0  0  0  0  0
   -0.2740   26.8210  -26.8270 C   0  0  0  0  0  0  0  0  0  0  0  0
    0.5937   27.4890  -26.9312 H   0  0  0  0  0  0  0  0  0  0  0  0
   -0.7350   26.4700  -25.5520 C   0  0  0  0  0  0  0  0  0  0  0  0
    0.1040   27.0690  -24.1220 S   0  0  0  0  0  0  0  0  0  0  0  0
    0.6460   28.4390  -24.4200 O   0  0  0  0  0  0  0  0  0  0  0  0
   -0.8610   27.1780  -22.9730 O   0  0  0  0  0  0  0  0  0  0  0  0
    1.4150   25.9870  -23.7100 N   0  0  0  0  0  0  0  0  0  0  0  0
    1.2870   25.7450  -22.6990 H   0  0  0  0  0  0  0  0  0  0  0  0
    1.3210   24.7240  -24.4910 C   0  0  0  0  0  0  0  0  0  0  0  0
    1.5980   23.8842  -23.8368 H   0  0  0  0  0  0  0  0  0  0  0  0
    0.2862   24.6334  -24.8530 H   0  0  0  0  0  0  0  0  0  0  0  0
    2.2440   24.7160  -25.7180 C   0  0  0  0  0  0  0  0  0  0  0  0
    2.1279   23.7594  -26.2486 H   0  0  0  0  0  0  0  0  0  0  0  0
    1.9650   25.5565  -26.3705 H   0  0  0  0  0  0  0  0  0  0  0  0
    3.7160   24.8860  -25.3050 C   0  0  0  0  0  0  0  0  0  0  0  0
    4.1511   23.8899  -25.1363 H   0  0  0  0  0  0  0  0  0  0  0  0
    4.2284   25.4224  -26.1172 H   0  0  0  0  0  0  0  0  0  0  0  0
    3.8820   25.7190  -24.0220 C   0  0  0  0  0  0  0  0  0  0  0  0
    3.9186   25.0420  -23.1558 H   0  0  0  0  0  0  0  0  0  0  0  0
    4.8142   26.2980  -24.0982 H   0  0  0  0  0  0  0  0  0  0  0  0
    2.7130   26.6960  -23.8460 C   0  0  0  0  0  0  0  0  0  0  0  0
    2.8858   27.2983  -22.9419 H   0  0  0  0  0  0  0  0  0  0  0  0
    2.6621   27.3320  -24.7421 H   0  0  0  0  0  0  0  0  0  0  0  0
   -1.8440   25.6240  -25.4270 C   0  0  0  0  0  0  0  0  0  0  0  0
   -2.2154   25.3510  -24.4282 H   0  0  0  0  0  0  0  0  0  0  0  0
   -2.4810   25.1250  -26.5680 C   0  0  0  0  0  0  0  0  0  0  0  0
   -3.3627   24.4760  -26.4615 H   0  0  0  0  0  0  0  0  0  0  0  0
   -2.0040   25.4460  -27.8450 C   0  0  0  0  0  0  0  0  0  0  0  0
   -2.6960   24.9220  -28.9920 N   0  0  0  0  0  0  0  0  0  0  0  0
   -2.4630   23.7890  -29.5940 C   0  0  0  0  0  0  0  0  0  0  0  0
   -1.5450   22.9110  -29.1100 N   0  0  0  0  0  0  0  0  0  0  0  0
   -1.3180   21.7250  -29.7230 C   0  0  0  0  0  0  0  0  0  0  0  0
   -0.4010   20.9310  -29.2510 N   0  0  0  0  0  0  0  0  0  0  0  0
   -0.0540   19.6290  -29.7490 C   0  0  0  0  0  0  0  0  0  0  0  0
   -0.0270   18.4960  -28.9150 C   0  0  0  0  0  0  0  0  0  0  0  0
   -0.3055   18.5887  -27.8549 H   0  0  0  0  0  0  0  0  0  0  0  0
    0.3530   17.2520  -29.4300 C   0  0  0  0  0  0  0  0  0  0  0  0
    0.3683   16.3692  -28.7740 H   0  0  0  0  0  0  0  0  0  0  0  0
    0.7140   17.1260  -30.7770 C   0  0  0  0  0  0  0  0  0  0  0  0
    1.1600   15.5540  -31.4360 S   0  0  0  0  0  0  0  0  0  0  0  0
    2.2100   15.7360  -32.4970 O   0  0  0  0  0  0  0  0  0  0  0  0
    1.7320   14.6860  -30.3480 O   0  0  0  0  0  0  0  0  0  0  0  0
   -0.2350   14.8030  -32.1500 N   0  0  0  0  0  0  0  0  0  0  0  0
   -0.6200   15.5120  -33.3700 C   0  0  0  0  0  0  0  0  0  0  0  0
   -0.8664   14.7815  -34.1547 H   0  0  0  0  0  0  0  0  0  0  0  0
    0.2165   16.1444  -33.7021 H   0  0  0  0  0  0  0  0  0  0  0  0
   -1.8360   16.3890  -33.0950 C   0  0  0  0  0  0  0  0  0  0  0  0
   -1.8875   16.6199  -32.0208 H   0  0  0  0  0  0  0  0  0  0  0  0
   -2.7505   15.8575  -33.3970 H   0  0  0  0  0  0  0  0  0  0  0  0
   -1.7200   17.5890  -33.8310 O   0  0  0  0  0  0  0  0  0  0  0  0
   -2.4410   18.6100  -33.1800 C   0  0  0  0  0  0  0  0  0  0  0  0
   -2.3522   18.4843  -32.0908 H   0  0  0  0  0  0  0  0  0  0  0  0
   -2.0331   19.5894  -33.4705 H   0  0  0  0  0  0  0  0  0  0  0  0
   -3.5004   18.5532  -33.4705 H   0  0  0  0  0  0  0  0  0  0  0  0
    0.7090   18.2580  -31.6030 C   0  0  0  0  0  0  0  0  0  0  0  0
    0.9945   18.1664  -32.6613 H   0  0  0  0  0  0  0  0  0  0  0  0
    0.3420   19.5030  -31.0850 C   0  0  0  0  0  0  0  0  0  0  0  0
    0.3647   20.3915  -31.7332 H   0  0  0  0  0  0  0  0  0  0  0  0
   -2.0190   21.4130  -30.8450 N   0  0  0  0  0  0  0  0  0  0  0  0
   -2.9400   22.2410  -31.3460 N   0  0  0  0  0  0  0  0  0  0  0  0
   -3.6680   21.8390  -32.5490 C   0  0  0  0  0  0  0  0  0  0  0  0
   -4.5973   21.3258  -32.2609 H   0  0  0  0  0  0  0  0  0  0  0  0
   -3.9113   22.7306  -33.1455 H   0  0  0  0  0  0  0  0  0  0  0  0
   -3.0430   21.1582  -33.1455 H   0  0  0  0  0  0  0  0  0  0  0  0
   -3.1920   23.4400  -30.7390 C   0  0  0  0  0  0  0  0  0  0  0  0
   -4.0640   24.2270  -31.2050 O   0  0  0  0  0  0  0  0  0  0  0  0
  1  2  1  0
  2  3  2  0
  3  4  1  0
  3  5  1  0
  5  6  1  0
  6  7  2  0
  6  8  2  0
  6  9  1  0
  9 10  1  0
  9 11  1  0
 11 12  1  0
 11 13  1  0
 11 14  1  0
 14 15  1  0
 14 16  1  0
 14 17  1  0
 17 18  1  0
 17 19  1  0
 17 20  1  0
 20 21  1  0
 20 22  1  0
 20 23  1  0
 23 24  1  0
 23 25  1  0
  5 26  2  0
 26 27  1  0
 26 28  1  0
 28 29  1  0
 28 30  2  0
 30 31  1  0
 31 32  2  3
 32 33  1  0
 33 34  1  0
 34 35  2  0
 35 36  1  0
 36 37  2  0
 37 38  1  0
 37 39  1  0
 39 40  1  0
 39 41  2  0
 41 42  1  0
 42 43  2  0
 42 44  2  0
 42 45  1  0
 45 46  1  0
 46 47  1  0
 46 48  1  0
 46 49  1  0
 49 50  1  0
 49 51  1  0
 49 52  1  0
 52 53  1  0
 53 54  1  0
 53 55  1  0
 53 56  1  0
 41 57  1  0
 57 58  1  0
 57 59  2  0
 59 60  1  0
 34 61  1  0
 61 62  1  0
 62 63  1  0
 63 64  1  0
 63 65  1  0
 63 66  1  0
 62 67  1  0
 67 68  2  0
 30  2  1  0
 67 32  1  0
 23  9  1  0
 59 36  1  0
M  CHG  4   9   1  33  -1  45  -1  61  -1
M  END
>  <UniqueID>  (40) 
39

>  <SMILES>  (40) 
COCC[N-]S(=O)(=O)c1ccc(/N=c2/[n-]c(=Nc3ccc(S(=O)(=O)[NH+]4CCCCC4)cc3)c(=O)n(C)[n-]2)cc1

>  <Energy>  (40) 
87.20174910702778

>  <Genealogy>  (40) 
COCC[N-]S(=O)(=O)c1ccc(N=c2[n-]c(=Nc3ccc(S(=O)(=O)[NH+]4CCCCC4)cc3)c(=O)n(C)[n-]2)cc1 (protonated)
COCC[N-]S(=O)(=O)c1ccc(/N=c2/[n-]c(=Nc3ccc(S(=O)(=O)[NH+]4CCCCC4)cc3)c(=O)n(C)[n-]2)cc1 (cis-trans isomerization)
COCC[N-]S(=O)(=O)c1ccc(/N=c2/[n-]c(=Nc3ccc(S(=O)(=O)[NH+]4CCCCC4)cc3)c(=O)n(C)[n-]2)cc1 (3D coordinates assigned)
COCC[N-]S(=O)(=O)c1ccc(/N=c2/[n-]c(=Nc3ccc(S(=O)(=O)[NH+]4CCCCC4)cc3)c(=O)n(C)[n-]2)cc1 (nonaromatic ring conformer: 87.20174910702778 kcal/mol)

>  <smiles>  (40) 
COCCNS(=O)(=O)c1ccc(N=c2[nH]c(=Nc3ccc(S(=O)(=O)N4CCCCC4)cc3)c(=O)n(C)[nH]2)cc1

>  <score_type>  (40) 
oracle

>  <origin>  (40) 
adgpu

>  <m_score__min__energy>  (40) 
-10.77

>  <m_primary>  (40) 
energy

$$$$
40:0
     RDKit          3D

 66 69  0  0  0  0  0  0  0  0999 V2000
   -1.4060   22.0160  -28.2160 O   0  0  0  0  0  0  0  0  0  0  0  0
   -2.1770   22.5830  -29.0350 C   0  0  0  0  0  0  0  0  0  0  0  0
   -1.6190   23.0680  -30.3500 C   0  0  0  0  0  0  0  0  0  0  0  0
   -2.4260   22.5760  -31.4670 N   0  0  0  0  0  0  0  0  0  0  0  0
   -2.2910   21.2300  -31.9470 C   0  0  0  0  0  0  0  0  0  0  0  0
   -1.1930   20.4730  -31.5160 C   0  0  0  0  0  0  0  0  0  0  0  0
   -0.9700   19.1930  -32.0210 C   0  0  0  0  0  0  0  0  0  0  0  0
   -1.8460   18.6460  -32.9640 C   0  0  0  0  0  0  0  0  0  0  0  0
   -1.5650   17.0200  -33.5950 S   0  0  0  0  0  0  0  0  0  0  0  0
   -0.8260   16.2080  -32.5670 O   0  0  0  0  0  0  0  0  0  0  0  0
   -0.7030   17.1090  -34.8240 O   0  0  0  0  0  0  0  0  0  0  0  0
   -3.0640   16.2150  -33.9890 N   0  0  0  0  0  0  0  0  0  0  0  0
   -3.9260   17.1000  -34.8020 C   0  0  0  0  0  0  0  0  0  0  0  0
   -5.3460   16.5380  -34.9230 C   0  0  0  0  0  0  0  0  0  0  0  0
   -6.0100   16.3480  -33.5450 C   0  0  0  0  0  0  0  0  0  0  0  0
   -5.0010   16.3760  -32.3880 C   0  0  0  0  0  0  0  0  0  0  0  0
   -3.7130   15.6430  -32.7820 C   0  0  0  0  0  0  0  0  0  0  0  0
   -2.9630   19.3820  -33.3780 C   0  0  0  0  0  0  0  0  0  0  0  0
   -3.2100   20.6690  -32.8650 C   0  0  0  0  0  0  0  0  0  0  0  0
   -4.4160   21.3600  -33.2360 N   0  0  0  0  0  0  0  0  0  0  0  0
   -5.3640   20.7380  -33.7590 O   0  0  0  0  0  0  0  0  0  0  0  0
   -4.6060   22.6730  -32.8750 O   0  0  0  0  0  0  0  0  0  0  0  0
   -3.5720   22.6840  -28.7190 N   0  0  0  0  0  0  0  0  0  0  0  0
   -4.5190   23.3470  -29.5610 C   0  0  0  0  0  0  0  0  0  0  0  0
   -5.7130   22.7000  -29.9030 C   0  0  0  0  0  0  0  0  0  0  0  0
   -6.6310   23.3160  -30.7660 C   0  0  0  0  0  0  0  0  0  0  0  0
   -8.1210   22.4840  -31.2200 S   0  0  0  0  0  0  0  0  0  0  0  0
   -8.8540   22.0770  -29.9720 O   0  0  0  0  0  0  0  0  0  0  0  0
   -8.9990   23.4350  -31.9850 O   0  0  0  0  0  0  0  0  0  0  0  0
   -7.8320   21.0630  -32.1960 N   0  0  0  0  0  0  0  0  0  0  0  0
   -6.9870   20.0890  -31.5090 C   0  0  0  0  0  0  0  0  0  0  0  0
   -7.2910   18.7460  -32.1460 C   0  0  0  0  0  0  0  0  0  0  0  0
   -8.7020   18.8830  -32.6940 C   0  0  0  0  0  0  0  0  0  0  0  0
   -9.0700   20.3520  -32.5180 C   0  0  0  0  0  0  0  0  0  0  0  0
   -6.3610   24.6020  -31.2560 C   0  0  0  0  0  0  0  0  0  0  0  0
   -5.1770   25.2570  -30.9020 C   0  0  0  0  0  0  0  0  0  0  0  0
   -4.2560   24.6330  -30.0570 C   0  0  0  0  0  0  0  0  0  0  0  0
   -3.0830   25.2910  -29.7100 O   0  0  0  0  0  0  0  0  0  0  0  0
   -1.6215   24.1680  -30.3596 H   0  0  0  0  0  0  0  0  0  0  0  0
   -0.5927   22.6878  -30.4606 H   0  0  0  0  0  0  0  0  0  0  0  0
   -3.3390   23.0580  -31.6310 H   0  0  0  0  0  0  0  0  0  0  0  0
   -0.5004   20.8931  -30.7719 H   0  0  0  0  0  0  0  0  0  0  0  0
   -0.1022   18.6113  -31.6767 H   0  0  0  0  0  0  0  0  0  0  0  0
   -3.9723   18.0906  -34.3260 H   0  0  0  0  0  0  0  0  0  0  0  0
   -3.4946   17.1723  -35.8113 H   0  0  0  0  0  0  0  0  0  0  0  0
   -5.9546   17.2352  -35.5176 H   0  0  0  0  0  0  0  0  0  0  0  0
   -5.2819   15.5530  -35.4085 H   0  0  0  0  0  0  0  0  0  0  0  0
   -6.7411   17.1557  -33.3931 H   0  0  0  0  0  0  0  0  0  0  0  0
   -6.4887   15.3576  -33.5424 H   0  0  0  0  0  0  0  0  0  0  0  0
   -4.7620   17.4210  -32.1411 H   0  0  0  0  0  0  0  0  0  0  0  0
   -5.4447   15.8728  -31.5163 H   0  0  0  0  0  0  0  0  0  0  0  0
   -3.0051   15.7028  -31.9422 H   0  0  0  0  0  0  0  0  0  0  0  0
   -3.9856   14.6036  -33.0172 H   0  0  0  0  0  0  0  0  0  0  0  0
   -3.6564   18.9486  -34.1137 H   0  0  0  0  0  0  0  0  0  0  0  0
   -3.9270   22.2130  -27.8570 H   0  0  0  0  0  0  0  0  0  0  0  0
   -5.9320   21.7032  -29.4925 H   0  0  0  0  0  0  0  0  0  0  0  0
   -5.9251   20.3433  -31.6423 H   0  0  0  0  0  0  0  0  0  0  0  0
   -7.1866   20.0755  -30.4273 H   0  0  0  0  0  0  0  0  0  0  0  0
   -6.5797   18.5328  -32.9576 H   0  0  0  0  0  0  0  0  0  0  0  0
   -7.2048   17.9179  -31.4271 H   0  0  0  0  0  0  0  0  0  0  0  0
   -8.7292   18.6053  -33.7580 H   0  0  0  0  0  0  0  0  0  0  0  0
   -9.4077   18.2213  -32.1705 H   0  0  0  0  0  0  0  0  0  0  0  0
   -9.5029   20.7479  -33.4485 H   0  0  0  0  0  0  0  0  0  0  0  0
   -9.8166   20.4788  -31.7202 H   0  0  0  0  0  0  0  0  0  0  0  0
   -7.0833   25.0975  -31.9214 H   0  0  0  0  0  0  0  0  0  0  0  0
   -4.9706   26.2655  -31.2897 H   0  0  0  0  0  0  0  0  0  0  0  0
  1  2  2  0
  2  3  1  0
  3  4  1  0
  4  5  1  0
  5  6  2  0
  6  7  1  0
  7  8  2  0
  8  9  1  0
  9 10  2  0
  9 11  2  0
  9 12  1  0
 12 13  1  0
 13 14  1  0
 14 15  1  0
 15 16  1  0
 16 17  1  0
  8 18  1  0
 18 19  2  0
 19 20  1  0
 20 21  2  0
 20 22  1  0
  2 23  1  0
 23 24  1  0
 24 25  2  0
 25 26  1  0
 26 27  1  0
 27 28  2  0
 27 29  2  0
 27 30  1  0
 30 31  1  0
 31 32  1  0
 32 33  1  0
 33 34  1  0
 26 35  2  0
 35 36  1  0
 36 37  2  0
 37 38  1  0
 19  5  1  0
 37 24  1  0
 17 12  1  0
 34 30  1  0
  3 39  1  0
  3 40  1  0
  4 41  1  0
  6 42  1  0
  7 43  1  0
 13 44  1  0
 13 45  1  0
 14 46  1  0
 14 47  1  0
 15 48  1  0
 15 49  1  0
 16 50  1  0
 16 51  1  0
 17 52  1  0
 17 53  1  0
 18 54  1  0
 23 55  1  0
 25 56  1  0
 31 57  1  0
 31 58  1  0
 32 59  1  0
 32 60  1  0
 33 61  1  0
 33 62  1  0
 34 63  1  0
 34 64  1  0
 35 65  1  0
 36 66  1  0
M  CHG  3  20   1  22  -1  38  -1
M  END
>  <UniqueID>  (41) 
40

>  <SMILES>  (41) 
O=C(CNc1ccc(S(=O)(=O)N2CCCCC2)cc1[N+](=O)[O-])Nc1cc(S(=O)(=O)N2CCCC2)ccc1[O-]

>  <Energy>  (41) 
85.51174209040161

>  <Genealogy>  (41) 
O=C(CNc1ccc(S(=O)(=O)N2CCCCC2)cc1[N+](=O)[O-])Nc1cc(S(=O)(=O)N2CCCC2)ccc1[O-] (protonated)
O=C(CNc1ccc(S(=O)(=O)N2CCCCC2)cc1[N+](=O)[O-])Nc1cc(S(=O)(=O)N2CCCC2)ccc1[O-] (3D coordinates assigned)
O=C(CNc1ccc(S(=O)(=O)N2CCCCC2)cc1[N+](=O)[O-])Nc1cc(S(=O)(=O)N2CCCC2)ccc1[O-] (nonaromatic ring conformer: 85.51174209040161 kcal/mol)

>  <smiles>  (41) 
O=C(CNc1ccc(S(=O)(=O)N2CCCCC2)cc1[N+](=O)[O-])Nc1cc(S(=O)(=O)N2CCCC2)ccc1O

>  <score_type>  (41) 
oracle

>  <origin>  (41) 
adgpu

>  <m_score__min__energy>  (41) 
-13.41

>  <m_primary>  (41) 
energy

$$$$
41:0
     RDKit          3D

 26 27  0  0  0  0  0  0  0  0999 V2000
   -5.3940   19.9900  -34.4920 H   0  0  0  0  0  0  0  0  0  0  0  0
   -5.9550   20.4800  -33.7580 N   0  0  0  0  0  0  0  0  0  0  0  0
   -5.3890   21.1760  -32.8250 C   0  0  0  0  0  0  0  0  0  0  0  0
   -4.0320   21.2770  -32.7830 N   0  0  0  0  0  0  0  0  0  0  0  0
   -3.3940   21.9980  -31.8230 C   0  0  0  0  0  0  0  0  0  0  0  0
   -2.2951   22.0467  -31.8153 H   0  0  0  0  0  0  0  0  0  0  0  0
   -4.1280   22.6790  -30.8440 C   0  0  0  0  0  0  0  0  0  0  0  0
   -3.4350   23.4140  -29.8220 N   0  0  0  0  0  0  0  0  0  0  0  0
   -3.7040   24.4150  -29.6880 H   0  0  0  0  0  0  0  0  0  0  0  0
   -2.4540   22.8390  -28.9400 C   0  0  0  0  0  0  0  0  0  0  0  0
   -2.1710   21.6130  -29.0150 O   0  0  0  0  0  0  0  0  0  0  0  0
   -1.7570   23.6730  -27.9380 C   0  0  0  0  0  0  0  0  0  0  0  0
   -1.3500   23.0890  -26.7260 C   0  0  0  0  0  0  0  0  0  0  0  0
   -1.5591   22.0261  -26.5351 H   0  0  0  0  0  0  0  0  0  0  0  0
   -0.6820   23.8480  -25.7620 C   0  0  0  0  0  0  0  0  0  0  0  0
   -0.1190   23.0350  -24.1280 Br  0  0  0  0  0  0  0  0  0  0  0  0
   -0.4210   25.2000  -25.9940 C   0  0  0  0  0  0  0  0  0  0  0  0
    0.1145   25.7933  -25.2382 H   0  0  0  0  0  0  0  0  0  0  0  0
   -0.8390   25.8010  -27.1850 C   0  0  0  0  0  0  0  0  0  0  0  0
   -0.4930   27.6620  -27.4640 Br  0  0  0  0  0  0  0  0  0  0  0  0
   -1.5170   25.0460  -28.1540 C   0  0  0  0  0  0  0  0  0  0  0  0
   -1.9730   25.6710  -29.3100 O   0  0  0  0  0  0  0  0  0  0  0  0
   -5.5270   22.5650  -30.8550 C   0  0  0  0  0  0  0  0  0  0  0  0
   -6.1235   23.0638  -30.0769 H   0  0  0  0  0  0  0  0  0  0  0  0
   -6.1650   21.8200  -31.8510 C   0  0  0  0  0  0  0  0  0  0  0  0
   -8.0770   21.6870  -31.8440 Br  0  0  0  0  0  0  0  0  0  0  0  0
  1  2  1  0
  2  3  2  0
  3  4  1  0
  4  5  1  0
  5  6  1  0
  5  7  2  0
  7  8  1  0
  8  9  1  0
  8 10  1  0
 10 11  2  0
 10 12  1  0
 12 13  2  0
 13 14  1  0
 13 15  1  0
 15 16  1  0
 15 17  2  0
 17 18  1  0
 17 19  1  0
 19 20  1  0
 19 21  2  0
 21 22  1  0
  7 23  1  0
 23 24  1  0
 23 25  2  0
 25 26  1  0
 25  3  1  0
 21 12  1  0
M  CHG  2   4  -1  22  -1
M  END
>  <UniqueID>  (42) 
41

>  <SMILES>  (42) 
[H]/N=c1\[n-]cc(NC(=O)c2cc(Br)cc(Br)c2[O-])cc1Br

>  <Energy>  (42) 
37.23535613426298

>  <Genealogy>  (42) 
N=c1[n-]cc(NC(=O)c2cc(Br)cc(Br)c2[O-])cc1Br (protonated)
[H]/N=c1\[n-]cc(NC(=O)c2cc(Br)cc(Br)c2[O-])cc1Br (cis-trans isomerization)
[H]/N=c1\[n-]cc(NC(=O)c2cc(Br)cc(Br)c2[O-])cc1Br (3D coordinates assigned)
[H]/N=c1\[n-]cc(NC(=O)c2cc(Br)cc(Br)c2[O-])cc1Br (optimized conformer: 37.23535613426298 kcal/mol)

>  <smiles>  (42) 
N=c1[nH]cc(NC(=O)c2cc(Br)cc(Br)c2O)cc1Br

>  <score_type>  (42) 
oracle

>  <origin>  (42) 
adgpu

>  <m_score__min__energy>  (42) 
-10.15

>  <m_primary>  (42) 
energy

$$$$
42:0
     RDKit          3D

 53 55  0  0  0  0  0  0  0  0999 V2000
   -6.5110   25.9570  -29.1160 N   0  0  0  0  0  0  0  0  0  0  0  0
   -5.5860   25.1270  -29.8920 C   0  0  0  0  0  0  0  0  0  0  0  0
   -6.3450   24.4510  -31.0480 C   0  0  0  0  0  0  0  0  0  0  0  0
   -5.4050   23.5360  -31.8410 C   0  0  0  0  0  0  0  0  0  0  0  0
   -4.6640   22.6320  -30.9510 N   0  0  0  0  0  0  0  0  0  0  0  0
   -3.6010   21.8400  -31.4970 C   0  0  0  0  0  0  0  0  0  0  0  0
   -2.4090   21.8310  -30.8450 N   0  0  0  0  0  0  0  0  0  0  0  0
   -1.3350   21.1700  -31.3350 C   0  0  0  0  0  0  0  0  0  0  0  0
   -1.4290   20.4980  -32.5540 C   0  0  0  0  0  0  0  0  0  0  0  0
   -0.2990   19.8450  -33.1540 N   0  0  0  0  0  0  0  0  0  0  0  0
    0.8560   20.4870  -33.7090 C   0  0  0  0  0  0  0  0  0  0  0  0
    2.0140   20.0810  -33.4190 O   0  0  0  0  0  0  0  0  0  0  0  0
    0.6780   21.5580  -34.6440 N   0  0  0  0  0  0  0  0  0  0  0  0
    1.7920   22.1820  -35.3560 C   0  0  0  0  0  0  0  0  0  0  0  0
    1.3060   23.3900  -36.1560 C   0  0  0  0  0  0  0  0  0  0  0  0
    0.0250   23.7820  -35.7430 O   0  0  0  0  0  0  0  0  0  0  0  0
   -2.6530   20.5280  -33.2330 C   0  0  0  0  0  0  0  0  0  0  0  0
   -2.7380   19.9680  -34.3620 O   0  0  0  0  0  0  0  0  0  0  0  0
   -3.7480   21.1510  -32.6800 N   0  0  0  0  0  0  0  0  0  0  0  0
   -5.0550   21.0920  -33.3760 C   0  0  0  0  0  0  0  0  0  0  0  0
   -5.8240   19.8420  -33.0030 C   0  0  0  0  0  0  0  0  0  0  0  0
   -6.7340   19.8650  -31.9300 C   0  0  0  0  0  0  0  0  0  0  0  0
   -6.9300   20.9980  -31.2140 F   0  0  0  0  0  0  0  0  0  0  0  0
   -7.4510   18.7130  -31.5870 C   0  0  0  0  0  0  0  0  0  0  0  0
   -7.2710   17.5330  -32.3100 C   0  0  0  0  0  0  0  0  0  0  0  0
   -6.3730   17.4990  -33.3790 C   0  0  0  0  0  0  0  0  0  0  0  0
   -5.6520   18.6450  -33.7290 C   0  0  0  0  0  0  0  0  0  0  0  0
   -4.7830   18.5800  -34.7710 F   0  0  0  0  0  0  0  0  0  0  0  0
   -4.8770   22.6670  -29.5010 C   0  0  0  0  0  0  0  0  0  0  0  0
   -4.8330   24.1110  -28.9820 C   0  0  0  0  0  0  0  0  0  0  0  0
   -6.8570   25.4100  -28.2940 H   0  0  0  0  0  0  0  0  0  0  0  0
   -5.9890   26.7830  -28.7450 H   0  0  0  0  0  0  0  0  0  0  0  0
   -4.8063   25.7653  -30.3332 H   0  0  0  0  0  0  0  0  0  0  0  0
   -7.1723   23.8531  -30.6379 H   0  0  0  0  0  0  0  0  0  0  0  0
   -6.7376   25.2282  -31.7201 H   0  0  0  0  0  0  0  0  0  0  0  0
   -5.9992   22.9367  -32.5466 H   0  0  0  0  0  0  0  0  0  0  0  0
   -4.6803   24.1649  -32.3789 H   0  0  0  0  0  0  0  0  0  0  0  0
   -0.3893   21.1624  -30.7732 H   0  0  0  0  0  0  0  0  0  0  0  0
   -0.2940   21.8290  -34.9120 H   0  0  0  0  0  0  0  0  0  0  0  0
    2.5485   22.5104  -34.6280 H   0  0  0  0  0  0  0  0  0  0  0  0
    2.2272   21.4475  -36.0496 H   0  0  0  0  0  0  0  0  0  0  0  0
    2.0045   24.2263  -36.0052 H   0  0  0  0  0  0  0  0  0  0  0  0
    1.2623   23.1123  -37.2195 H   0  0  0  0  0  0  0  0  0  0  0  0
   -0.5820   23.0210  -35.9420 H   0  0  0  0  0  0  0  0  0  0  0  0
   -5.6493   21.9745  -33.0967 H   0  0  0  0  0  0  0  0  0  0  0  0
   -4.8693   21.0735  -34.4600 H   0  0  0  0  0  0  0  0  0  0  0  0
   -8.1585   18.7378  -30.7451 H   0  0  0  0  0  0  0  0  0  0  0  0
   -7.8365   16.6296  -32.0379 H   0  0  0  0  0  0  0  0  0  0  0  0
   -6.2324   16.5679  -33.9475 H   0  0  0  0  0  0  0  0  0  0  0  0
   -5.8594   22.2296  -29.2695 H   0  0  0  0  0  0  0  0  0  0  0  0
   -4.0782   22.0903  -29.0117 H   0  0  0  0  0  0  0  0  0  0  0  0
   -5.2909   24.1347  -27.9821 H   0  0  0  0  0  0  0  0  0  0  0  0
   -3.7760   24.4150  -28.9670 H   0  0  0  0  0  0  0  0  0  0  0  0
  1  2  1  0
  2  3  1  0
  3  4  1  0
  4  5  1  0
  5  6  1  0
  6  7  2  0
  7  8  1  0
  8  9  2  0
  9 10  1  0
 10 11  1  0
 11 12  2  0
 11 13  1  0
 13 14  1  0
 14 15  1  0
 15 16  1  0
  9 17  1  0
 17 18  2  0
 17 19  1  0
 19 20  1  0
 20 21  1  0
 21 22  2  0
 22 23  1  0
 22 24  1  0
 24 25  2  0
 25 26  1  0
 26 27  2  0
 27 28  1  0
  5 29  1  0
 29 30  1  0
 30  2  1  0
 19  6  1  0
 27 21  1  0
  1 31  1  0
  1 32  1  0
  2 33  1  0
  3 34  1  0
  3 35  1  0
  4 36  1  0
  4 37  1  0
  8 38  1  0
 13 39  1  0
 14 40  1  0
 14 41  1  0
 15 42  1  0
 15 43  1  0
 16 44  1  0
 20 45  1  0
 20 46  1  0
 24 47  1  0
 25 48  1  0
 26 49  1  0
 29 50  1  0
 29 51  1  0
 30 52  1  0
 30 53  1  0
M  CHG  1  10  -1
M  END
>  <UniqueID>  (43) 
42

>  <SMILES>  (43) 
NC1CCN(c2ncc([N-]C(=O)NCCO)c(=O)n2Cc2c(F)cccc2F)CC1

>  <Energy>  (43) 
66.8395591339042

>  <Genealogy>  (43) 
NC1CCN(c2ncc([N-]C(=O)NCCO)c(=O)n2Cc2c(F)cccc2F)CC1 (protonated)
NC1CCN(c2ncc([N-]C(=O)NCCO)c(=O)n2Cc2c(F)cccc2F)CC1 (3D coordinates assigned)
NC1CCN(c2ncc([N-]C(=O)NCCO)c(=O)n2Cc2c(F)cccc2F)CC1 (nonaromatic ring conformer: 66.8395591339042 kcal/mol)

>  <smiles>  (43) 
NC1CCN(c2ncc(NC(=O)NCCO)c(=O)n2Cc2c(F)cccc2F)CC1

>  <score_type>  (43) 
oracle

>  <origin>  (43) 
adgpu

>  <m_score__min__energy>  (43) 
-8.2400000000000002

>  <m_primary>  (43) 
energy

$$$$
43:0
     RDKit          3D

 58 61  0  0  0  0  0  0  0  0999 V2000
   -3.7100   15.3290  -34.8360 C   0  0  0  0  0  0  0  0  0  0  0  0
   -4.9500   16.1030  -34.6660 N   0  0  0  0  0  0  0  0  0  0  0  0
   -5.4590   16.0120  -33.2730 C   0  0  0  0  0  0  0  0  0  0  0  0
   -5.0770   17.2290  -32.4180 C   0  0  0  0  0  0  0  0  0  0  0  0
   -5.6030   18.5490  -33.0310 C   0  0  0  0  0  0  0  0  0  0  0  0
   -7.1300   19.0770  -32.2430 S   0  0  0  0  0  0  0  0  0  0  0  0
   -8.2990   18.6710  -33.0960 O   0  0  0  0  0  0  0  0  0  0  0  0
   -7.2750   18.3990  -30.9090 O   0  0  0  0  0  0  0  0  0  0  0  0
   -7.0930   20.8400  -32.0160 C   0  0  0  0  0  0  0  0  0  0  0  0
   -8.2890   21.5960  -32.0500 C   0  0  0  0  0  0  0  0  0  0  0  0
   -9.8670   20.8560  -32.3010 Cl  0  0  0  0  0  0  0  0  0  0  0  0
   -8.2470   22.9800  -31.8660 C   0  0  0  0  0  0  0  0  0  0  0  0
   -7.0390   23.6240  -31.6120 C   0  0  0  0  0  0  0  0  0  0  0  0
   -5.8530   22.8900  -31.5200 C   0  0  0  0  0  0  0  0  0  0  0  0
   -4.6290   23.5780  -31.2270 N   0  0  0  0  0  0  0  0  0  0  0  0
   -4.3320   24.1160  -29.9270 C   0  0  0  0  0  0  0  0  0  0  0  0
   -5.0860   23.8690  -28.9490 O   0  0  0  0  0  0  0  0  0  0  0  0
   -3.1580   24.9080  -29.7090 N   0  0  0  0  0  0  0  0  0  0  0  0
   -2.2550   24.7890  -28.6040 C   0  0  0  0  0  0  0  0  0  0  0  0
   -2.7690   24.8210  -27.3020 C   0  0  0  0  0  0  0  0  0  0  0  0
   -1.9110   24.7440  -26.2000 C   0  0  0  0  0  0  0  0  0  0  0  0
   -0.5250   24.6540  -26.3900 C   0  0  0  0  0  0  0  0  0  0  0  0
    0.5520   24.5380  -25.0030 S   0  0  0  0  0  0  0  0  0  0  0  0
    1.9540   24.2730  -25.4770 O   0  0  0  0  0  0  0  0  0  0  0  0
    0.1200   23.3960  -24.1250 O   0  0  0  0  0  0  0  0  0  0  0  0
    0.5140   26.0950  -24.1190 C   0  0  0  0  0  0  0  0  0  0  0  0
   -0.3890   27.1470  -24.7390 C   0  0  0  0  0  0  0  0  0  0  0  0
   -0.8130   26.4370  -23.4630 C   0  0  0  0  0  0  0  0  0  0  0  0
   -0.0060   24.6390  -27.6910 C   0  0  0  0  0  0  0  0  0  0  0  0
   -0.8620   24.7190  -28.7930 C   0  0  0  0  0  0  0  0  0  0  0  0
   -5.8740   21.5020  -31.7470 C   0  0  0  0  0  0  0  0  0  0  0  0
   -4.6780   20.7920  -31.7200 O   0  0  0  0  0  0  0  0  0  0  0  0
   -5.7960   18.4470  -34.5590 C   0  0  0  0  0  0  0  0  0  0  0  0
   -4.7670   17.4890  -35.1640 C   0  0  0  0  0  0  0  0  0  0  0  0
   -3.2994   15.0727  -33.8482 H   0  0  0  0  0  0  0  0  0  0  0  0
   -3.9274   14.4060  -35.3934 H   0  0  0  0  0  0  0  0  0  0  0  0
   -2.9763   15.9298  -35.3934 H   0  0  0  0  0  0  0  0  0  0  0  0
   -6.5559   15.9350  -33.3042 H   0  0  0  0  0  0  0  0  0  0  0  0
   -5.0001   15.1257  -32.8105 H   0  0  0  0  0  0  0  0  0  0  0  0
   -5.5066   17.1070  -31.4127 H   0  0  0  0  0  0  0  0  0  0  0  0
   -3.9793   17.2855  -32.3742 H   0  0  0  0  0  0  0  0  0  0  0  0
   -4.8312   19.3096  -32.8419 H   0  0  0  0  0  0  0  0  0  0  0  0
   -9.1762   23.5661  -31.9222 H   0  0  0  0  0  0  0  0  0  0  0  0
   -7.0178   24.7162  -31.4830 H   0  0  0  0  0  0  0  0  0  0  0  0
   -3.9980   23.8020  -32.0270 H   0  0  0  0  0  0  0  0  0  0  0  0
   -3.8543   24.9072  -27.1448 H   0  0  0  0  0  0  0  0  0  0  0  0
   -2.3252   24.7541  -25.1810 H   0  0  0  0  0  0  0  0  0  0  0  0
    1.5596   26.0600  -23.7793 H   0  0  0  0  0  0  0  0  0  0  0  0
   -0.0995   28.2078  -24.7080 H   0  0  0  0  0  0  0  0  0  0  0  0
   -0.8392   27.2989  -25.7311 H   0  0  0  0  0  0  0  0  0  0  0  0
   -0.8302   26.9840  -22.5088 H   0  0  0  0  0  0  0  0  0  0  0  0
   -1.6969   25.8623  -23.1492 H   0  0  0  0  0  0  0  0  0  0  0  0
    1.0804   24.5639  -27.8461 H   0  0  0  0  0  0  0  0  0  0  0  0
   -0.4457   24.7273  -29.8112 H   0  0  0  0  0  0  0  0  0  0  0  0
   -6.8084   18.0734  -34.7723 H   0  0  0  0  0  0  0  0  0  0  0  0
   -5.6597   19.4440  -35.0032 H   0  0  0  0  0  0  0  0  0  0  0  0
   -4.8769   17.4922  -36.2585 H   0  0  0  0  0  0  0  0  0  0  0  0
   -3.7641   17.8306  -34.8682 H   0  0  0  0  0  0  0  0  0  0  0  0
  1  2  1  0
  2  3  1  0
  3  4  1  0
  4  5  1  0
  5  6  1  0
  6  7  2  0
  6  8  2  0
  6  9  1  0
  9 10  2  0
 10 11  1  0
 10 12  1  0
 12 13  2  0
 13 14  1  0
 14 15  1  0
 15 16  1  0
 16 17  2  0
 16 18  1  0
 18 19  1  0
 19 20  2  0
 20 21  1  0
 21 22  2  0
 22 23  1  0
 23 24  2  0
 23 25  2  0
 23 26  1  0
 26 27  1  0
 27 28  1  0
 22 29  1  0
 29 30  2  0
 14 31  2  0
 31 32  1  0
  5 33  1  0
 33 34  1  0
 34  2  1  0
 31  9  1  0
 30 19  1  0
 28 26  1  0
  1 35  1  0
  1 36  1  0
  1 37  1  0
  3 38  1  0
  3 39  1  0
  4 40  1  0
  4 41  1  0
  5 42  1  0
 12 43  1  0
 13 44  1  0
 15 45  1  0
 20 46  1  0
 21 47  1  0
 26 48  1  0
 27 49  1  0
 27 50  1  0
 28 51  1  0
 28 52  1  0
 29 53  1  0
 30 54  1  0
 33 55  1  0
 33 56  1  0
 34 57  1  0
 34 58  1  0
M  CHG  2  18  -1  32  -1
M  END
>  <UniqueID>  (44) 
43

>  <SMILES>  (44) 
CN1CCC(S(=O)(=O)c2c(Cl)ccc(NC(=O)[N-]c3ccc(S(=O)(=O)C4CC4)cc3)c2[O-])CC1

>  <Energy>  (44) 
340.21756152959466

>  <Genealogy>  (44) 
CN1CCC(S(=O)(=O)c2c(Cl)ccc(NC(=O)[N-]c3ccc(S(=O)(=O)C4CC4)cc3)c2[O-])CC1 (protonated)
CN1CCC(S(=O)(=O)c2c(Cl)ccc(NC(=O)[N-]c3ccc(S(=O)(=O)C4CC4)cc3)c2[O-])CC1 (3D coordinates assigned)
CN1CCC(S(=O)(=O)c2c(Cl)ccc(NC(=O)[N-]c3ccc(S(=O)(=O)C4CC4)cc3)c2[O-])CC1 (nonaromatic ring conformer: 340.21756152959466 kcal/mol)

>  <smiles>  (44) 
CN1CCC(S(=O)(=O)c2c(Cl)ccc(NC(=O)Nc3ccc(S(=O)(=O)C4CC4)cc3)c2O)CC1

>  <score_type>  (44) 
oracle

>  <origin>  (44) 
adgpu

>  <m_score__min__energy>  (44) 
-13.35

>  <m_primary>  (44) 
energy

$$$$
44:0
     RDKit          3D

 36 38  0  0  0  0  0  0  0  0999 V2000
   -1.9200   20.6520  -34.4000 H   0  0  0  0  0  0  0  0  0  0  0  0
   -2.6850   21.1460  -33.8910 N   0  0  0  0  0  0  0  0  0  0  0  0
   -3.7680   20.5700  -33.4670 C   0  0  0  0  0  0  0  0  0  0  0  0
   -4.6870   21.3270  -32.8150 N   0  0  0  0  0  0  0  0  0  0  0  0
   -5.8500   20.8190  -32.3330 C   0  0  0  0  0  0  0  0  0  0  0  0
   -6.9710   21.9290  -31.4710 S   0  0  0  0  0  0  0  0  0  0  0  0
   -5.6310   22.9380  -30.8350 C   0  0  0  0  0  0  0  0  0  0  0  0
   -5.6460   24.3260  -31.0320 C   0  0  0  0  0  0  0  0  0  0  0  0
   -6.4816   24.7959  -31.5714 H   0  0  0  0  0  0  0  0  0  0  0  0
   -4.5990   25.1130  -30.5430 C   0  0  0  0  0  0  0  0  0  0  0  0
   -4.6095   26.2014  -30.7018 H   0  0  0  0  0  0  0  0  0  0  0  0
   -3.5380   24.5180  -29.8520 C   0  0  0  0  0  0  0  0  0  0  0  0
   -2.4980   25.3010  -29.3670 O   0  0  0  0  0  0  0  0  0  0  0  0
   -3.5250   23.1340  -29.6500 C   0  0  0  0  0  0  0  0  0  0  0  0
   -2.6909   22.6657  -29.1070 H   0  0  0  0  0  0  0  0  0  0  0  0
   -4.5720   22.3450  -30.1380 C   0  0  0  0  0  0  0  0  0  0  0  0
   -4.5630   21.2574  -29.9738 H   0  0  0  0  0  0  0  0  0  0  0  0
   -6.1480   19.4570  -32.5110 C   0  0  0  0  0  0  0  0  0  0  0  0
   -7.3850   18.9130  -31.9950 C   0  0  0  0  0  0  0  0  0  0  0  0
   -8.3740   18.4760  -31.5820 N   0  0  0  0  0  0  0  0  0  0  0  0
   -5.2180   18.6320  -33.1810 C   0  0  0  0  0  0  0  0  0  0  0  0
   -5.5040   17.1870  -33.3730 C   0  0  0  0  0  0  0  0  0  0  0  0
   -4.7270   16.2190  -32.7170 C   0  0  0  0  0  0  0  0  0  0  0  0
   -3.9021   16.5311  -32.0597 H   0  0  0  0  0  0  0  0  0  0  0  0
   -4.9990   14.8590  -32.8970 C   0  0  0  0  0  0  0  0  0  0  0  0
   -4.3869   14.1045  -32.3811 H   0  0  0  0  0  0  0  0  0  0  0  0
   -6.0470   14.4550  -33.7310 C   0  0  0  0  0  0  0  0  0  0  0  0
   -6.3050   13.0970  -33.9010 O   0  0  0  0  0  0  0  0  0  0  0  0
   -6.1990   12.6460  -34.8020 H   0  0  0  0  0  0  0  0  0  0  0  0
   -6.8250   15.4190  -34.3860 C   0  0  0  0  0  0  0  0  0  0  0  0
   -7.6499   15.1045  -35.0422 H   0  0  0  0  0  0  0  0  0  0  0  0
   -6.5560   16.7790  -34.2080 C   0  0  0  0  0  0  0  0  0  0  0  0
   -7.1704   17.5317  -34.7237 H   0  0  0  0  0  0  0  0  0  0  0  0
   -4.0130   19.1920  -33.6640 C   0  0  0  0  0  0  0  0  0  0  0  0
   -3.0610   18.3660  -34.3790 C   0  0  0  0  0  0  0  0  0  0  0  0
   -2.3010   17.7040  -34.9490 N   0  0  0  0  0  0  0  0  0  0  0  0
  1  2  1  0
  2  3  2  0
  3  4  1  0
  4  5  1  0
  5  6  1  0
  6  7  1  0
  7  8  2  0
  8  9  1  0
  8 10  1  0
 10 11  1  0
 10 12  2  0
 12 13  1  0
 12 14  1  0
 14 15  1  0
 14 16  2  0
 16 17  1  0
  5 18  2  0
 18 19  1  0
 19 20  3  0
 18 21  1  0
 21 22  1  0
 22 23  2  0
 23 24  1  0
 23 25  1  0
 25 26  1  0
 25 27  2  0
 27 28  1  0
 28 29  1  0
 27 30  1  0
 30 31  1  0
 30 32  2  0
 32 33  1  0
 21 34  2  0
 34 35  1  0
 35 36  3  0
 34  3  1  0
 16  7  1  0
 32 22  1  0
M  CHG  2   4  -1  13  -1
M  END
>  <UniqueID>  (45) 
44

>  <SMILES>  (45) 
[H]/N=c1/[n-]c(Sc2ccc([O-])cc2)c(C#N)c(-c2ccc(O)cc2)c1C#N

>  <Energy>  (45) 
46.44804110324521

>  <Genealogy>  (45) 
N#Cc1c(Sc2ccc([O-])cc2)[n-]c(=N)c(C#N)c1-c1ccc(O)cc1 (protonated)
[H]/N=c1/[n-]c(Sc2ccc([O-])cc2)c(C#N)c(-c2ccc(O)cc2)c1C#N (cis-trans isomerization)
[H]/N=c1/[n-]c(Sc2ccc([O-])cc2)c(C#N)c(-c2ccc(O)cc2)c1C#N (3D coordinates assigned)
[H]/N=c1/[n-]c(Sc2ccc([O-])cc2)c(C#N)c(-c2ccc(O)cc2)c1C#N (optimized conformer: 46.44804110324521 kcal/mol)

>  <smiles>  (45) 
N#Cc1c(Sc2ccc(O)cc2)[nH]c(=N)c(C#N)c1-c1ccc(O)cc1

>  <score_type>  (45) 
oracle

>  <origin>  (45) 
adgpu

>  <m_score__min__energy>  (45) 
-10.98

>  <m_primary>  (45) 
energy

$$$$
45:0
     RDKit          3D

 32 34  0  0  0  0  0  0  0  0999 V2000
   -3.6560   25.2510  -30.4910 O   0  0  0  0  0  0  0  0  0  0  0  0
   -4.0080   24.0910  -30.1440 C   0  0  0  0  0  0  0  0  0  0  0  0
   -3.2910   23.3980  -29.1060 N   0  0  0  0  0  0  0  0  0  0  0  0
   -2.2760   24.0050  -28.2890 C   0  0  0  0  0  0  0  0  0  0  0  0
   -0.9160   23.9370  -28.6410 C   0  0  0  0  0  0  0  0  0  0  0  0
    0.0540   24.5560  -27.8470 C   0  0  0  0  0  0  0  0  0  0  0  0
   -0.3210   25.2630  -26.6970 C   0  0  0  0  0  0  0  0  0  0  0  0
    0.6450   25.8870  -25.8920 C   0  0  0  0  0  0  0  0  0  0  0  0
    0.2560   26.5950  -24.7520 C   0  0  0  0  0  0  0  0  0  0  0  0
   -1.0950   26.6870  -24.4060 C   0  0  0  0  0  0  0  0  0  0  0  0
   -2.0660   26.0710  -25.2000 C   0  0  0  0  0  0  0  0  0  0  0  0
   -1.6900   25.3550  -26.3470 C   0  0  0  0  0  0  0  0  0  0  0  0
   -2.6560   24.7320  -27.1520 C   0  0  0  0  0  0  0  0  0  0  0  0
   -5.1340   23.4350  -30.8470 C   0  0  0  0  0  0  0  0  0  0  0  0
   -4.8860   22.3100  -31.6550 C   0  0  0  0  0  0  0  0  0  0  0  0
   -5.9290   21.6850  -32.3430 C   0  0  0  0  0  0  0  0  0  0  0  0
   -7.2310   22.1740  -32.2330 C   0  0  0  0  0  0  0  0  0  0  0  0
   -7.4940   23.2880  -31.4360 C   0  0  0  0  0  0  0  0  0  0  0  0
   -6.4560   23.9240  -30.7430 C   0  0  0  0  0  0  0  0  0  0  0  0
   -6.8680   25.2940  -29.7140 Cl  0  0  0  0  0  0  0  0  0  0  0  0
   -3.4750   22.3800  -28.9660 H   0  0  0  0  0  0  0  0  0  0  0  0
   -0.6133   23.3928  -29.5477 H   0  0  0  0  0  0  0  0  0  0  0  0
    1.1158   24.4877  -28.1262 H   0  0  0  0  0  0  0  0  0  0  0  0
    1.7099   25.8185  -26.1591 H   0  0  0  0  0  0  0  0  0  0  0  0
    1.0164   27.0822  -24.1240 H   0  0  0  0  0  0  0  0  0  0  0  0
   -1.3945   27.2454  -23.5069 H   0  0  0  0  0  0  0  0  0  0  0  0
   -3.1284   26.1475  -24.9252 H   0  0  0  0  0  0  0  0  0  0  0  0
   -3.7208   24.8148  -26.8886 H   0  0  0  0  0  0  0  0  0  0  0  0
   -3.8618   21.9192  -31.7458 H   0  0  0  0  0  0  0  0  0  0  0  0
   -5.7234   20.8064  -32.9721 H   0  0  0  0  0  0  0  0  0  0  0  0
   -8.0509   21.6805  -32.7754 H   0  0  0  0  0  0  0  0  0  0  0  0
   -8.5223   23.6693  -31.3512 H   0  0  0  0  0  0  0  0  0  0  0  0
  1  2  2  0
  2  3  1  0
  3  4  1  0
  4  5  2  0
  5  6  1  0
  6  7  2  0
  7  8  1  0
  8  9  2  0
  9 10  1  0
 10 11  2  0
 11 12  1  0
 12 13  2  0
  2 14  1  0
 14 15  2  0
 15 16  1  0
 16 17  2  0
 17 18  1  0
 18 19  2  0
 19 20  1  0
 13  4  1  0
 19 14  1  0
 12  7  1  0
  3 21  1  0
  5 22  1  0
  6 23  1  0
  8 24  1  0
  9 25  1  0
 10 26  1  0
 11 27  1  0
 13 28  1  0
 15 29  1  0
 16 30  1  0
 17 31  1  0
 18 32  1  0
M  END
>  <UniqueID>  (46) 
45

>  <SMILES>  (46) 
O=C(Nc1ccc2ccccc2c1)c1ccccc1Cl

>  <Energy>  (46) 
47.158701017469966

>  <Genealogy>  (46) 
O=C(Nc1ccc2ccccc2c1)c1ccccc1Cl (3D coordinates assigned)
O=C(Nc1ccc2ccccc2c1)c1ccccc1Cl (optimized conformer: 47.158701017469966 kcal/mol)

>  <smiles>  (46) 
O=C(Nc1ccc2ccccc2c1)c1ccccc1Cl

>  <score_type>  (46) 
oracle

>  <origin>  (46) 
adgpu

>  <m_score__min__energy>  (46) 
-7.8399999999999999

>  <m_primary>  (46) 
energy

$$$$
46:0
     RDKit          3D

 53 56  0  0  0  0  0  0  0  0999 V2000
   -3.3900   18.7750  -34.2140 C   0  0  0  0  0  0  0  0  0  0  0  0
   -2.6190   19.3870  -33.1170 N   0  0  0  0  0  0  0  0  0  0  0  0
   -3.0130   20.5970  -32.6170 C   0  0  0  0  0  0  0  0  0  0  0  0
   -4.0260   21.1810  -33.0990 O   0  0  0  0  0  0  0  0  0  0  0  0
   -2.3040   21.1940  -31.5700 C   0  0  0  0  0  0  0  0  0  0  0  0
   -2.6860   22.4460  -31.0510 C   0  0  0  0  0  0  0  0  0  0  0  0
   -1.9760   23.0300  -30.0020 C   0  0  0  0  0  0  0  0  0  0  0  0
   -2.5320   24.5560  -29.3170 S   0  0  0  0  0  0  0  0  0  0  0  0
   -1.3890   25.5310  -29.3330 O   0  0  0  0  0  0  0  0  0  0  0  0
   -3.0070   24.3740  -27.8980 O   0  0  0  0  0  0  0  0  0  0  0  0
   -3.8320   25.1790  -30.2810 N   0  0  0  0  0  0  0  0  0  0  0  0
   -5.0420   24.4690  -30.5550 C   0  0  0  0  0  0  0  0  0  0  0  0
   -5.3790   24.1950  -31.8860 C   0  0  0  0  0  0  0  0  0  0  0  0
   -6.5110   23.4320  -32.1840 C   0  0  0  0  0  0  0  0  0  0  0  0
   -7.3370   22.9580  -31.1540 C   0  0  0  0  0  0  0  0  0  0  0  0
   -8.7290   21.9330  -31.5270 S   0  0  0  0  0  0  0  0  0  0  0  0
   -9.6950   22.7110  -32.3700 O   0  0  0  0  0  0  0  0  0  0  0  0
   -9.4220   21.5740  -30.2430 O   0  0  0  0  0  0  0  0  0  0  0  0
   -8.2990   20.4650  -32.3700 N   0  0  0  0  0  0  0  0  0  0  0  0
   -6.8540   20.3190  -32.5260 C   0  0  0  0  0  0  0  0  0  0  0  0
   -6.5960   18.8290  -32.6830 C   0  0  0  0  0  0  0  0  0  0  0  0
   -7.8210   18.1460  -32.0940 C   0  0  0  0  0  0  0  0  0  0  0  0
   -8.7370   19.2740  -31.6500 C   0  0  0  0  0  0  0  0  0  0  0  0
   -7.0220   23.2640  -29.8220 C   0  0  0  0  0  0  0  0  0  0  0  0
   -5.8840   24.0180  -29.5230 C   0  0  0  0  0  0  0  0  0  0  0  0
   -0.8620   22.3730  -29.4750 C   0  0  0  0  0  0  0  0  0  0  0  0
   -0.4720   21.1300  -29.9770 C   0  0  0  0  0  0  0  0  0  0  0  0
   -1.1930   20.5090  -31.0260 C   0  0  0  0  0  0  0  0  0  0  0  0
   -0.8520   19.2650  -31.5130 N   0  0  0  0  0  0  0  0  0  0  0  0
    0.2650   18.5080  -30.9090 C   0  0  0  0  0  0  0  0  0  0  0  0
   -1.5620   18.7170  -32.5550 C   0  0  0  0  0  0  0  0  0  0  0  0
   -1.2440   17.5790  -33.0010 O   0  0  0  0  0  0  0  0  0  0  0  0
   -4.1864   18.1429  -33.7943 H   0  0  0  0  0  0  0  0  0  0  0  0
   -3.8379   19.5662  -34.8332 H   0  0  0  0  0  0  0  0  0  0  0  0
   -2.7211   18.1592  -34.8332 H   0  0  0  0  0  0  0  0  0  0  0  0
   -3.5543   22.9695  -31.4777 H   0  0  0  0  0  0  0  0  0  0  0  0
   -4.7497   24.5822  -32.7009 H   0  0  0  0  0  0  0  0  0  0  0  0
   -6.7557   23.2019  -33.2315 H   0  0  0  0  0  0  0  0  0  0  0  0
   -6.5094   20.8623  -33.4182 H   0  0  0  0  0  0  0  0  0  0  0  0
   -6.3125   20.7321  -31.6622 H   0  0  0  0  0  0  0  0  0  0  0  0
   -6.4823   18.5674  -33.7454 H   0  0  0  0  0  0  0  0  0  0  0  0
   -5.6698   18.5174  -32.1779 H   0  0  0  0  0  0  0  0  0  0  0  0
   -8.3170   17.5236  -32.8533 H   0  0  0  0  0  0  0  0  0  0  0  0
   -7.5567   17.4807  -31.2588 H   0  0  0  0  0  0  0  0  0  0  0  0
   -9.7813   19.0386  -31.9030 H   0  0  0  0  0  0  0  0  0  0  0  0
   -8.6874   19.4242  -30.5614 H   0  0  0  0  0  0  0  0  0  0  0  0
   -7.6732   22.9091  -29.0096 H   0  0  0  0  0  0  0  0  0  0  0  0
   -5.6460   24.2596  -28.4766 H   0  0  0  0  0  0  0  0  0  0  0  0
   -0.2884   22.8377  -28.6595 H   0  0  0  0  0  0  0  0  0  0  0  0
    0.4081   20.6256  -29.5516 H   0  0  0  0  0  0  0  0  0  0  0  0
    0.1913   18.5580  -29.8126 H   0  0  0  0  0  0  0  0  0  0  0  0
    0.2135   17.4579  -31.2325 H   0  0  0  0  0  0  0  0  0  0  0  0
    1.2213   18.9449  -31.2325 H   0  0  0  0  0  0  0  0  0  0  0  0
  1  2  1  0
  2  3  1  0
  3  4  2  0
  3  5  1  0
  5  6  2  0
  6  7  1  0
  7  8  1  0
  8  9  2  0
  8 10  2  0
  8 11  1  0
 11 12  1  0
 12 13  2  0
 13 14  1  0
 14 15  2  0
 15 16  1  0
 16 17  2  0
 16 18  2  0
 16 19  1  0
 19 20  1  0
 20 21  1  0
 21 22  1  0
 22 23  1  0
 15 24  1  0
 24 25  2  0
  7 26  2  0
 26 27  1  0
 27 28  2  0
 28 29  1  0
 29 30  1  0
 29 31  1  0
 31 32  2  0
 31  2  1  0
 28  5  1  0
 25 12  1  0
 23 19  1  0
  1 33  1  0
  1 34  1  0
  1 35  1  0
  6 36  1  0
 13 37  1  0
 14 38  1  0
 20 39  1  0
 20 40  1  0
 21 41  1  0
 21 42  1  0
 22 43  1  0
 22 44  1  0
 23 45  1  0
 23 46  1  0
 24 47  1  0
 25 48  1  0
 26 49  1  0
 27 50  1  0
 30 51  1  0
 30 52  1  0
 30 53  1  0
M  CHG  1  11  -1
M  END
>  <UniqueID>  (47) 
46

>  <SMILES>  (47) 
Cn1c(=O)c2cc(S(=O)(=O)[N-]c3ccc(S(=O)(=O)N4CCCC4)cc3)ccc2n(C)c1=O

>  <Energy>  (47) 
75.99037277774244

>  <Genealogy>  (47) 
Cn1c(=O)c2cc(S(=O)(=O)[N-]c3ccc(S(=O)(=O)N4CCCC4)cc3)ccc2n(C)c1=O (protonated)
Cn1c(=O)c2cc(S(=O)(=O)[N-]c3ccc(S(=O)(=O)N4CCCC4)cc3)ccc2n(C)c1=O (3D coordinates assigned)
Cn1c(=O)c2cc(S(=O)(=O)[N-]c3ccc(S(=O)(=O)N4CCCC4)cc3)ccc2n(C)c1=O (nonaromatic ring conformer: 75.99037277774244 kcal/mol)

>  <smiles>  (47) 
Cn1c(=O)c2cc(S(=O)(=O)Nc3ccc(S(=O)(=O)N4CCCC4)cc3)ccc2n(C)c1=O

>  <score_type>  (47) 
oracle

>  <origin>  (47) 
adgpu

>  <m_score__min__energy>  (47) 
-11.94

>  <m_primary>  (47) 
energy

$$$$
47:0
     RDKit          3D

 55 58  0  0  0  0  0  0  0  0999 V2000
   -4.9420   21.9320  -32.5650 C   0  0  0  0  0  0  0  0  0  0  0  0
   -6.2890   21.3090  -32.3970 C   0  0  0  0  0  0  0  0  0  0  0  0
   -7.4320   22.0190  -32.3030 N   0  0  0  0  0  0  0  0  0  0  0  0
   -8.4270   21.1590  -32.1300 N   0  0  0  0  0  0  0  0  0  0  0  0
   -9.8180   21.5640  -31.9510 C   0  0  0  0  0  0  0  0  0  0  0  0
   -7.9500   19.8950  -32.1170 C   0  0  0  0  0  0  0  0  0  0  0  0
   -8.7560   18.6750  -31.7830 C   0  0  0  0  0  0  0  0  0  0  0  0
   -6.5800   19.9630  -32.2660 C   0  0  0  0  0  0  0  0  0  0  0  0
   -5.6560   18.8710  -32.2070 N   0  0  0  0  0  0  0  0  0  0  0  0
   -4.6740   18.4750  -33.5790 S   0  0  0  0  0  0  0  0  0  0  0  0
   -5.3490   18.9360  -34.8400 O   0  0  0  0  0  0  0  0  0  0  0  0
   -4.4900   16.9860  -33.6460 O   0  0  0  0  0  0  0  0  0  0  0  0
   -3.0960   19.2280  -33.3890 C   0  0  0  0  0  0  0  0  0  0  0  0
   -2.6810   20.2660  -34.2320 C   0  0  0  0  0  0  0  0  0  0  0  0
   -1.4390   20.8730  -34.0350 C   0  0  0  0  0  0  0  0  0  0  0  0
   -0.6010   20.4430  -33.0020 C   0  0  0  0  0  0  0  0  0  0  0  0
   -1.0020   19.3940  -32.1530 C   0  0  0  0  0  0  0  0  0  0  0  0
   -0.1500   18.9000  -31.1030 N   0  0  0  0  0  0  0  0  0  0  0  0
   -0.4480   19.0240  -29.6760 C   0  0  0  0  0  0  0  0  0  0  0  0
   -0.2620   20.4410  -29.1990 C   0  0  0  0  0  0  0  0  0  0  0  0
    0.7710   20.9270  -28.3950 C   0  0  0  0  0  0  0  0  0  0  0  0
    1.9050   20.1210  -27.8440 C   0  0  0  0  0  0  0  0  0  0  0  0
    0.6160   22.2520  -28.1620 N   0  0  0  0  0  0  0  0  0  0  0  0
   -0.4960   22.6140  -28.8220 C   0  0  0  0  0  0  0  0  0  0  0  0
   -1.0690   23.8840  -28.8700 C   0  0  0  0  0  0  0  0  0  0  0  0
   -2.2440   24.0500  -29.6250 C   0  0  0  0  0  0  0  0  0  0  0  0
   -2.8490   25.2980  -29.6970 O   0  0  0  0  0  0  0  0  0  0  0  0
   -2.8120   22.9520  -30.3110 C   0  0  0  0  0  0  0  0  0  0  0  0
   -2.2140   21.6810  -30.2430 C   0  0  0  0  0  0  0  0  0  0  0  0
   -1.0540   21.5440  -29.4770 C   0  0  0  0  0  0  0  0  0  0  0  0
   -2.2580   18.8020  -32.3500 C   0  0  0  0  0  0  0  0  0  0  0  0
   -4.5054   22.1339  -31.5757 H   0  0  0  0  0  0  0  0  0  0  0  0
   -4.2872   21.2453  -33.1215 H   0  0  0  0  0  0  0  0  0  0  0  0
   -5.0413   22.8756  -33.1215 H   0  0  0  0  0  0  0  0  0  0  0  0
  -10.0453   21.6302  -30.8768 H   0  0  0  0  0  0  0  0  0  0  0  0
   -9.9774   22.5458  -32.4207 H   0  0  0  0  0  0  0  0  0  0  0  0
  -10.4795   20.8212  -32.4207 H   0  0  0  0  0  0  0  0  0  0  0  0
   -8.8257   18.5694  -30.6903 H   0  0  0  0  0  0  0  0  0  0  0  0
   -9.7661   18.7755  -32.2069 H   0  0  0  0  0  0  0  0  0  0  0  0
   -8.2673   17.7853  -32.2069 H   0  0  0  0  0  0  0  0  0  0  0  0
   -5.3150   18.5580  -31.2730 H   0  0  0  0  0  0  0  0  0  0  0  0
   -3.3340   20.6037  -35.0503 H   0  0  0  0  0  0  0  0  0  0  0  0
   -1.1188   21.6926  -34.6951 H   0  0  0  0  0  0  0  0  0  0  0  0
    0.3757   20.9262  -32.8519 H   0  0  0  0  0  0  0  0  0  0  0  0
    0.7890   18.5200  -31.3630 H   0  0  0  0  0  0  0  0  0  0  0  0
   -1.4906   18.7206  -29.5000 H   0  0  0  0  0  0  0  0  0  0  0  0
    0.2451   18.3764  -29.1190 H   0  0  0  0  0  0  0  0  0  0  0  0
    1.8716   20.1447  -26.7448 H   0  0  0  0  0  0  0  0  0  0  0  0
    1.8182   19.0808  -28.1911 H   0  0  0  0  0  0  0  0  0  0  0  0
    2.8588   20.5450  -28.1911 H   0  0  0  0  0  0  0  0  0  0  0  0
    1.2360   22.8680  -27.5890 H   0  0  0  0  0  0  0  0  0  0  0  0
   -0.6158   24.7307  -28.3336 H   0  0  0  0  0  0  0  0  0  0  0  0
   -3.7287   23.0930  -30.9025 H   0  0  0  0  0  0  0  0  0  0  0  0
   -2.6463   20.8215  -30.7764 H   0  0  0  0  0  0  0  0  0  0  0  0
   -2.5891   17.9939  -31.6811 H   0  0  0  0  0  0  0  0  0  0  0  0
  1  2  1  0
  2  3  2  0
  3  4  1  0
  4  5  1  0
  4  6  1  0
  6  7  1  0
  6  8  2  0
  8  9  1  0
  9 10  1  0
 10 11  2  0
 10 12  2  0
 10 13  1  0
 13 14  2  0
 14 15  1  0
 15 16  2  0
 16 17  1  0
 17 18  1  0
 18 19  1  0
 19 20  1  0
 20 21  2  0
 21 22  1  0
 21 23  1  0
 23 24  1  0
 24 25  2  0
 25 26  1  0
 26 27  1  0
 26 28  2  0
 28 29  1  0
 29 30  2  0
 17 31  2  0
  8  2  1  0
 31 13  1  0
 30 20  1  0
 30 24  1  0
  1 32  1  0
  1 33  1  0
  1 34  1  0
  5 35  1  0
  5 36  1  0
  5 37  1  0
  7 38  1  0
  7 39  1  0
  7 40  1  0
  9 41  1  0
 14 42  1  0
 15 43  1  0
 16 44  1  0
 18 45  1  0
 19 46  1  0
 19 47  1  0
 22 48  1  0
 22 49  1  0
 22 50  1  0
 23 51  1  0
 25 52  1  0
 28 53  1  0
 29 54  1  0
 31 55  1  0
M  CHG  1  27  -1
M  END
>  <UniqueID>  (48) 
47

>  <SMILES>  (48) 
Cc1nn(C)c(C)c1NS(=O)(=O)c1cccc(NCc2c(C)[nH]c3cc([O-])ccc23)c1

>  <Energy>  (48) 
122.34117802397631

>  <Genealogy>  (48) 
Cc1nn(C)c(C)c1NS(=O)(=O)c1cccc(NCc2c(C)[nH]c3cc([O-])ccc23)c1 (protonated)
Cc1nn(C)c(C)c1NS(=O)(=O)c1cccc(NCc2c(C)[nH]c3cc([O-])ccc23)c1 (3D coordinates assigned)
Cc1nn(C)c(C)c1NS(=O)(=O)c1cccc(NCc2c(C)[nH]c3cc([O-])ccc23)c1 (optimized conformer: 122.34117802397631 kcal/mol)

>  <smiles>  (48) 
Cc1nn(C)c(C)c1NS(=O)(=O)c1cccc(NCc2c(C)[nH]c3cc(O)ccc23)c1

>  <score_type>  (48) 
oracle

>  <origin>  (48) 
adgpu

>  <m_score__min__energy>  (48) 
-12.01

>  <m_primary>  (48) 
energy

$$$$
48:0
     RDKit          3D

 48 51  0  0  0  0  0  0  0  0999 V2000
    0.0747   24.2395  -27.0650 H   0  0  0  0  0  0  0  0  0  0  0  0
   -0.8150   24.4060  -27.6900 C   0  0  0  0  0  0  0  0  0  0  0  0
   -0.8630   25.1550  -28.7720 O   0  0  0  0  0  0  0  0  0  0  0  0
   -2.0570   25.1500  -29.2840 N   0  0  0  0  0  0  0  0  0  0  0  0
   -2.3330   25.6720  -30.1460 H   0  0  0  0  0  0  0  0  0  0  0  0
   -2.8220   24.3640  -28.5050 C   0  0  0  0  0  0  0  0  0  0  0  0
   -4.0830   24.1140  -28.6900 N   0  0  0  0  0  0  0  0  0  0  0  0
   -5.0240   24.7650  -29.9940 S   0  0  0  0  0  0  0  0  0  0  0  0
   -6.1890   25.5280  -29.4250 O   0  0  0  0  0  0  0  0  0  0  0  0
   -4.1700   25.7050  -30.7960 O   0  0  0  0  0  0  0  0  0  0  0  0
   -5.5840   23.4670  -31.0430 C   0  0  0  0  0  0  0  0  0  0  0  0
   -4.6710   22.7810  -31.8520 C   0  0  0  0  0  0  0  0  0  0  0  0
   -3.6069   23.0590  -31.8336 H   0  0  0  0  0  0  0  0  0  0  0  0
   -5.1040   21.7460  -32.6820 C   0  0  0  0  0  0  0  0  0  0  0  0
   -4.3771   21.2037  -33.3046 H   0  0  0  0  0  0  0  0  0  0  0  0
   -6.4660   21.3920  -32.7270 C   0  0  0  0  0  0  0  0  0  0  0  0
   -6.9260   20.3500  -33.5500 O   0  0  0  0  0  0  0  0  0  0  0  0
   -6.4350   19.0370  -33.5380 C   0  0  0  0  0  0  0  0  0  0  0  0
   -5.5180   18.6620  -34.5220 C   0  0  0  0  0  0  0  0  0  0  0  0
   -5.1986   19.3956  -35.2769 H   0  0  0  0  0  0  0  0  0  0  0  0
   -5.0030   17.3660  -34.5570 C   0  0  0  0  0  0  0  0  0  0  0  0
   -4.2917   17.0837  -35.3471 H   0  0  0  0  0  0  0  0  0  0  0  0
   -5.3840   16.4180  -33.5930 C   0  0  0  0  0  0  0  0  0  0  0  0
   -4.8290   15.0400  -33.6540 C   0  0  0  0  0  0  0  0  0  0  0  0
   -4.9810   14.1700  -32.6160 N   0  0  0  0  0  0  0  0  0  0  0  0
   -4.4080   12.9730  -32.8630 C   0  0  0  0  0  0  0  0  0  0  0  0
   -4.4840   11.8140  -31.9280 C   0  0  0  0  0  0  0  0  0  0  0  0
   -4.4601   12.1779  -30.8902 H   0  0  0  0  0  0  0  0  0  0  0  0
   -5.4202   11.2633  -32.1020 H   0  0  0  0  0  0  0  0  0  0  0  0
   -3.6277   11.1458  -32.1020 H   0  0  0  0  0  0  0  0  0  0  0  0
   -3.7200   12.9250  -34.3930 S   0  0  0  0  0  0  0  0  0  0  0  0
   -4.1390   14.5140  -34.7510 C   0  0  0  0  0  0  0  0  0  0  0  0
   -3.9101   15.0470  -35.6856 H   0  0  0  0  0  0  0  0  0  0  0  0
   -6.2940   16.8020  -32.5890 C   0  0  0  0  0  0  0  0  0  0  0  0
   -6.6049   16.0691  -31.8299 H   0  0  0  0  0  0  0  0  0  0  0  0
   -6.8120   18.1120  -32.5430 C   0  0  0  0  0  0  0  0  0  0  0  0
   -7.6780   18.5310  -31.5210 O   0  0  0  0  0  0  0  0  0  0  0  0
   -9.0980   18.4530  -31.5770 C   0  0  0  0  0  0  0  0  0  0  0  0
   -9.5046   18.4307  -30.5551 H   0  0  0  0  0  0  0  0  0  0  0  0
   -9.4927   19.3308  -32.1096 H   0  0  0  0  0  0  0  0  0  0  0  0
   -9.3942   17.5372  -32.1096 H   0  0  0  0  0  0  0  0  0  0  0  0
   -7.3800   22.0730  -31.9040 C   0  0  0  0  0  0  0  0  0  0  0  0
   -8.7770   21.7220  -31.9190 C   0  0  0  0  0  0  0  0  0  0  0  0
   -9.9000   21.4390  -31.9300 N   0  0  0  0  0  0  0  0  0  0  0  0
   -6.9390   23.1110  -31.0720 C   0  0  0  0  0  0  0  0  0  0  0  0
   -7.6599   23.6488  -30.4387 H   0  0  0  0  0  0  0  0  0  0  0  0
   -2.0680   23.8630  -27.4690 C   0  0  0  0  0  0  0  0  0  0  0  0
   -2.3857   23.1909  -26.6582 H   0  0  0  0  0  0  0  0  0  0  0  0
  1  2  1  0
  2  3  1  0
  3  4  1  0
  4  5  1  0
  4  6  1  0
  6  7  2  0
  7  8  1  0
  8  9  2  0
  8 10  2  0
  8 11  1  0
 11 12  2  0
 12 13  1  0
 12 14  1  0
 14 15  1  0
 14 16  2  0
 16 17  1  0
 17 18  1  0
 18 19  2  0
 19 20  1  0
 19 21  1  0
 21 22  1  0
 21 23  2  0
 23 24  1  0
 24 25  1  0
 25 26  2  0
 26 27  1  0
 27 28  1  0
 27 29  1  0
 27 30  1  0
 26 31  1  0
 31 32  1  0
 32 33  1  0
 23 34  1  0
 34 35  1  0
 34 36  2  0
 36 37  1  0
 37 38  1  0
 38 39  1  0
 38 40  1  0
 38 41  1  0
 16 42  1  0
 42 43  1  0
 43 44  3  0
 42 45  2  0
 45 46  1  0
  6 47  1  0
 47 48  1  0
 47  2  2  0
 45 11  1  0
 36 18  1  0
 32 24  2  0
M  END
>  <UniqueID>  (49) 
48

>  <SMILES>  (49) 
COc1cc(-c2csc(C)n2)ccc1Oc1ccc(S(=O)(=O)/N=c2/cco[nH]2)cc1C#N

>  <Energy>  (49) 
123.99817375739704

>  <Genealogy>  (49) 
COc1cc(-c2csc(C)n2)ccc1Oc1ccc(S(=O)(=O)/N=c2/cco[nH]2)cc1C#N (cis-trans isomerization)
COc1cc(-c2csc(C)n2)ccc1Oc1ccc(S(=O)(=O)/N=c2/cco[nH]2)cc1C#N (3D coordinates assigned)
COc1cc(-c2csc(C)n2)ccc1Oc1ccc(S(=O)(=O)/N=c2/cco[nH]2)cc1C#N (optimized conformer: 123.99817375739704 kcal/mol)

>  <smiles>  (49) 
COc1cc(-c2csc(C)n2)ccc1Oc1ccc(S(=O)(=O)N=c2cco[nH]2)cc1C#N

>  <score_type>  (49) 
oracle

>  <origin>  (49) 
adgpu

>  <m_score__min__energy>  (49) 
-10.9

>  <m_primary>  (49) 
energy

$$$$
49:0
     RDKit          3D

 57 60  0  0  0  0  0  0  0  0999 V2000
   -1.9870   25.6580  -28.9650 N   0  0  0  0  0  0  0  0  0  0  0  0
   -1.2290   24.4520  -28.9570 C   0  0  0  0  0  0  0  0  0  0  0  0
   -0.0070   24.5030  -28.6410 O   0  0  0  0  0  0  0  0  0  0  0  0
   -1.8520   23.1590  -29.3310 C   0  0  0  0  0  0  0  0  0  0  0  0
   -2.1850   22.2120  -28.3470 C   0  0  0  0  0  0  0  0  0  0  0  0
   -2.8030   21.0060  -28.7000 C   0  0  0  0  0  0  0  0  0  0  0  0
   -3.0900   20.7300  -30.0400 C   0  0  0  0  0  0  0  0  0  0  0  0
   -2.7450   21.6570  -31.0400 C   0  0  0  0  0  0  0  0  0  0  0  0
   -2.9870   21.3940  -32.4300 N   0  0  0  0  0  0  0  0  0  0  0  0
   -3.6890   20.2710  -32.9700 C   0  0  0  0  0  0  0  0  0  0  0  0
   -3.0620   19.3650  -33.5830 O   0  0  0  0  0  0  0  0  0  0  0  0
   -5.1560   20.1770  -32.7900 C   0  0  0  0  0  0  0  0  0  0  0  0
   -5.8400   21.2680  -32.2270 C   0  0  0  0  0  0  0  0  0  0  0  0
   -7.2250   21.2190  -32.0140 C   0  0  0  0  0  0  0  0  0  0  0  0
   -8.0540   22.5630  -31.2200 S   0  0  0  0  0  0  0  0  0  0  0  0
   -8.8850   23.2990  -32.2330 O   0  0  0  0  0  0  0  0  0  0  0  0
   -8.9790   22.0220  -30.1640 O   0  0  0  0  0  0  0  0  0  0  0  0
   -6.9230   23.6670  -30.4750 N   0  0  0  0  0  0  0  0  0  0  0  0
   -6.1750   24.4130  -31.5000 C   0  0  0  0  0  0  0  0  0  0  0  0
   -5.0250   25.2190  -30.8630 C   0  0  0  0  0  0  0  0  0  0  0  0
   -5.1310   25.2320  -29.4530 O   0  0  0  0  0  0  0  0  0  0  0  0
   -4.9940   23.9180  -28.9490 C   0  0  0  0  0  0  0  0  0  0  0  0
   -5.9940   22.9380  -29.5960 C   0  0  0  0  0  0  0  0  0  0  0  0
   -7.9420   20.0810  -32.3970 C   0  0  0  0  0  0  0  0  0  0  0  0
   -7.2790   18.9940  -32.9670 C   0  0  0  0  0  0  0  0  0  0  0  0
   -5.8910   19.0270  -33.1650 C   0  0  0  0  0  0  0  0  0  0  0  0
   -5.2400   17.8500  -33.6660 N   0  0  0  0  0  0  0  0  0  0  0  0
   -4.7440   16.8650  -32.6940 C   0  0  0  0  0  0  0  0  0  0  0  0
   -3.8720   15.8130  -33.3600 C   0  0  0  0  0  0  0  0  0  0  0  0
   -3.0630   16.4180  -34.3400 O   0  0  0  0  0  0  0  0  0  0  0  0
   -3.8570   16.7480  -35.4580 C   0  0  0  0  0  0  0  0  0  0  0  0
   -4.9710   17.7660  -35.1130 C   0  0  0  0  0  0  0  0  0  0  0  0
   -2.1160   22.8580  -30.6810 C   0  0  0  0  0  0  0  0  0  0  0  0
   -2.9850   25.6640  -29.2720 H   0  0  0  0  0  0  0  0  0  0  0  0
   -1.9582   22.4200  -27.2909 H   0  0  0  0  0  0  0  0  0  0  0  0
   -3.0632   20.2742  -27.9211 H   0  0  0  0  0  0  0  0  0  0  0  0
   -3.5862   19.7869  -30.3127 H   0  0  0  0  0  0  0  0  0  0  0  0
   -5.2807   22.1736  -31.9494 H   0  0  0  0  0  0  0  0  0  0  0  0
   -5.7569   23.7032  -32.2289 H   0  0  0  0  0  0  0  0  0  0  0  0
   -6.8623   25.1134  -31.9971 H   0  0  0  0  0  0  0  0  0  0  0  0
   -4.0657   24.7615  -31.1467 H   0  0  0  0  0  0  0  0  0  0  0  0
   -5.0822   26.2556  -31.2267 H   0  0  0  0  0  0  0  0  0  0  0  0
   -3.9717   23.5659  -29.1514 H   0  0  0  0  0  0  0  0  0  0  0  0
   -5.2011   23.9475  -27.8691 H   0  0  0  0  0  0  0  0  0  0  0  0
   -5.4418   22.1936  -30.1883 H   0  0  0  0  0  0  0  0  0  0  0  0
   -6.5686   22.4359  -28.8037 H   0  0  0  0  0  0  0  0  0  0  0  0
   -9.0313   20.0429  -32.2484 H   0  0  0  0  0  0  0  0  0  0  0  0
   -7.8505   18.1023  -33.2641 H   0  0  0  0  0  0  0  0  0  0  0  0
   -4.1520   17.3865  -31.9275 H   0  0  0  0  0  0  0  0  0  0  0  0
   -5.6107   16.3591  -32.2435 H   0  0  0  0  0  0  0  0  0  0  0  0
   -3.2332   15.3349  -32.6028 H   0  0  0  0  0  0  0  0  0  0  0  0
   -4.5133   15.0555  -33.8342 H   0  0  0  0  0  0  0  0  0  0  0  0
   -3.2101   17.1823  -36.2345 H   0  0  0  0  0  0  0  0  0  0  0  0
   -4.3434   15.8252  -35.8071 H   0  0  0  0  0  0  0  0  0  0  0  0
   -4.6627   18.7592  -35.4714 H   0  0  0  0  0  0  0  0  0  0  0  0
   -5.8950   17.4243  -35.6023 H   0  0  0  0  0  0  0  0  0  0  0  0
   -1.8252   23.5739  -31.4639 H   0  0  0  0  0  0  0  0  0  0  0  0
  1  2  1  0
  2  3  2  0
  2  4  1  0
  4  5  2  0
  5  6  1  0
  6  7  2  0
  7  8  1  0
  8  9  1  0
  9 10  1  0
 10 11  2  0
 10 12  1  0
 12 13  2  0
 13 14  1  0
 14 15  1  0
 15 16  2  0
 15 17  2  0
 15 18  1  0
 18 19  1  0
 19 20  1  0
 20 21  1  0
 21 22  1  0
 22 23  1  0
 14 24  2  0
 24 25  1  0
 25 26  2  0
 26 27  1  0
 27 28  1  0
 28 29  1  0
 29 30  1  0
 30 31  1  0
 31 32  1  0
  8 33  2  0
 33  4  1  0
 26 12  1  0
 32 27  1  0
 23 18  1  0
  1 34  1  0
  5 35  1  0
  6 36  1  0
  7 37  1  0
 13 38  1  0
 19 39  1  0
 19 40  1  0
 20 41  1  0
 20 42  1  0
 22 43  1  0
 22 44  1  0
 23 45  1  0
 23 46  1  0
 24 47  1  0
 25 48  1  0
 28 49  1  0
 28 50  1  0
 29 51  1  0
 29 52  1  0
 31 53  1  0
 31 54  1  0
 32 55  1  0
 32 56  1  0
 33 57  1  0
M  CHG  2   1  -1   9  -1
M  END
>  <UniqueID>  (50) 
49

>  <SMILES>  (50) 
[NH-]C(=O)c1cccc([N-]C(=O)c2cc(S(=O)(=O)N3CCOCC3)ccc2N2CCOCC2)c1

>  <Energy>  (50) 
84.31098311864609

>  <Genealogy>  (50) 
[NH-]C(=O)c1cccc([N-]C(=O)c2cc(S(=O)(=O)N3CCOCC3)ccc2N2CCOCC2)c1 (protonated)
[NH-]C(=O)c1cccc([N-]C(=O)c2cc(S(=O)(=O)N3CCOCC3)ccc2N2CCOCC2)c1 (3D coordinates assigned)
[NH-]C(=O)c1cccc([N-]C(=O)c2cc(S(=O)(=O)N3CCOCC3)ccc2N2CCOCC2)c1 (nonaromatic ring conformer: 84.31098311864609 kcal/mol)

>  <smiles>  (50) 
NC(=O)c1cccc(NC(=O)c2cc(S(=O)(=O)N3CCOCC3)ccc2N2CCOCC2)c1

>  <score_type>  (50) 
oracle

>  <origin>  (50) 
adgpu

>  <m_score__min__energy>  (50) 
-12.48

>  <m_primary>  (50) 
energy

$$$$
