0:0
     RDKit          3D

 48 51  0  0  0  0  0  0  0  0999 V2000
    1.2550   24.9530  -27.8430 N   0  0  0  0  0  0  0  0  0  0  0  0
    0.1460   24.4820  -28.3150 C   0  0  0  0  0  0  0  0  0  0  0  0
   -0.0020   23.1130  -28.5790 C   0  0  0  0  0  0  0  0  0  0  0  0
   -1.2130   22.6390  -29.0860 C   0  0  0  0  0  0  0  0  0  0  0  0
   -2.2740   23.5270  -29.3260 C   0  0  0  0  0  0  0  0  0  0  0  0
   -3.5650   23.0440  -29.8730 C   0  0  0  0  0  0  0  0  0  0  0  0
   -4.7330   23.1270  -29.0940 C   0  0  0  0  0  0  0  0  0  0  0  0
   -5.9550   22.6780  -29.5980 C   0  0  0  0  0  0  0  0  0  0  0  0
   -6.0300   22.1240  -30.8830 C   0  0  0  0  0  0  0  0  0  0  0  0
   -7.3220   21.6490  -31.4190 C   0  0  0  0  0  0  0  0  0  0  0  0
   -8.3920   22.5580  -31.4820 C   0  0  0  0  0  0  0  0  0  0  0  0
   -9.6440   22.1480  -31.9420 C   0  0  0  0  0  0  0  0  0  0  0  0
   -9.8430   20.8280  -32.3440 C   0  0  0  0  0  0  0  0  0  0  0  0
   -8.7860   19.9170  -32.3000 C   0  0  0  0  0  0  0  0  0  0  0  0
   -7.5150   20.3140  -31.8570 C   0  0  0  0  0  0  0  0  0  0  0  0
   -6.1990   19.1280  -31.8930 S   0  0  0  0  0  0  0  0  0  0  0  0
   -5.1600   19.4660  -30.8580 O   0  0  0  0  0  0  0  0  0  0  0  0
   -6.7670   17.7660  -31.6050 O   0  0  0  0  0  0  0  0  0  0  0  0
   -5.4430   19.1240  -33.4700 N   0  0  0  0  0  0  0  0  0  0  0  0
   -3.9730   19.2730  -33.3580 C   0  0  0  0  0  0  0  0  0  0  0  0
   -3.2310   17.9530  -33.6370 C   0  0  0  0  0  0  0  0  0  0  0  0
   -3.5110   17.4180  -34.9220 O   0  0  0  0  0  0  0  0  0  0  0  0
   -4.8500   17.6270  -35.3520 C   0  0  0  0  0  0  0  0  0  0  0  0
   -5.8430   17.9150  -34.2140 C   0  0  0  0  0  0  0  0  0  0  0  0
   -4.8720   22.0460  -31.6690 C   0  0  0  0  0  0  0  0  0  0  0  0
   -3.6450   22.4960  -31.1690 C   0  0  0  0  0  0  0  0  0  0  0  0
   -2.5350   22.3610  -31.9370 F   0  0  0  0  0  0  0  0  0  0  0  0
   -2.0790   24.8920  -29.0540 C   0  0  0  0  0  0  0  0  0  0  0  0
   -0.8900   25.3290  -28.5570 N   0  0  0  0  0  0  0  0  0  0  0  0
    2.0810   24.3440  -27.6400 H   0  0  0  0  0  0  0  0  0  0  0  0
    0.8293   22.4183  -28.3882 H   0  0  0  0  0  0  0  0  0  0  0  0
   -1.3366   21.5668  -29.2982 H   0  0  0  0  0  0  0  0  0  0  0  0
   -4.6833   23.5491  -28.0794 H   0  0  0  0  0  0  0  0  0  0  0  0
   -6.8636   22.7595  -28.9833 H   0  0  0  0  0  0  0  0  0  0  0  0
   -8.2414   23.6009  -31.1662 H   0  0  0  0  0  0  0  0  0  0  0  0
  -10.4750   22.8673  -31.9875 H   0  0  0  0  0  0  0  0  0  0  0  0
  -10.8335   20.5041  -32.6961 H   0  0  0  0  0  0  0  0  0  0  0  0
   -8.9513   18.8764  -32.6161 H   0  0  0  0  0  0  0  0  0  0  0  0
   -3.6373   20.0282  -34.0839 H   0  0  0  0  0  0  0  0  0  0  0  0
   -3.7424   19.5782  -32.3267 H   0  0  0  0  0  0  0  0  0  0  0  0
   -2.1491   18.1370  -33.5624 H   0  0  0  0  0  0  0  0  0  0  0  0
   -3.5760   17.2192  -32.8937 H   0  0  0  0  0  0  0  0  0  0  0  0
   -4.8602   18.4830  -36.0428 H   0  0  0  0  0  0  0  0  0  0  0  0
   -5.1780   16.6903  -35.8264 H   0  0  0  0  0  0  0  0  0  0  0  0
   -6.8460   18.0674  -34.6392 H   0  0  0  0  0  0  0  0  0  0  0  0
   -5.8488   17.0590  -33.5232 H   0  0  0  0  0  0  0  0  0  0  0  0
   -4.9282   21.6285  -32.6851 H   0  0  0  0  0  0  0  0  0  0  0  0
   -2.8906   25.6098  -29.2436 H   0  0  0  0  0  0  0  0  0  0  0  0
  1  2  2  3
  2  3  1  0
  3  4  2  0
  4  5  1  0
  5  6  1  0
  6  7  2  0
  7  8  1  0
  8  9  2  0
  9 10  1  0
 10 11  2  0
 11 12  1  0
 12 13  2  0
 13 14  1  0
 14 15  2  0
 15 16  1  0
 16 17  2  0
 16 18  2  0
 16 19  1  0
 19 20  1  0
 20 21  1  0
 21 22  1  0
 22 23  1  0
 23 24  1  0
  9 25  1  0
 25 26  2  0
 26 27  1  0
  5 28  2  0
 28 29  1  0
 29  2  1  0
 26  6  1  0
 15 10  1  0
 24 19  1  0
  1 30  1  0
  3 31  1  0
  4 32  1  0
  7 33  1  0
  8 34  1  0
 11 35  1  0
 12 36  1  0
 13 37  1  0
 14 38  1  0
 20 39  1  0
 20 40  1  0
 21 41  1  0
 21 42  1  0
 23 43  1  0
 23 44  1  0
 24 45  1  0
 24 46  1  0
 25 47  1  0
 28 48  1  0
M  CHG  1  29  -1
M  END
>  <UniqueID>  (1) 
1

>  <SMILES>  (1) 
N=c1ccc(-c2ccc(-c3ccccc3S(=O)(=O)N3CCOCC3)cc2F)c[n-]1

>  <Energy>  (1) 
79.46835323988995

>  <Genealogy>  (1) 
N=c1ccc(-c2ccc(-c3ccccc3S(=O)(=O)N3CCOCC3)cc2F)c[n-]1 (protonated)
N=c1ccc(-c2ccc(-c3ccccc3S(=O)(=O)N3CCOCC3)cc2F)c[n-]1 (3D coordinates assigned)
N=c1ccc(-c2ccc(-c3ccccc3S(=O)(=O)N3CCOCC3)cc2F)c[n-]1 (nonaromatic ring conformer: 79.46835323988995 kcal/mol)

>  <smiles>  (1) 
N=c1ccc(-c2ccc(-c3ccccc3S(=O)(=O)N3CCOCC3)cc2F)c[nH]1

>  <score_type>  (1) 
oracle

>  <origin>  (1) 
adgpu

>  <m_score__min__energy>  (1) 
-9.8499999999999996

>  <m_primary>  (1) 
energy

$$$$
1:0
     RDKit          3D

 48 50  0  0  0  0  0  0  0  0999 V2000
   -1.3360   25.8750  -28.9590 N   0  0  0  0  0  0  0  0  0  0  0  0
   -0.9810   24.9630  -27.5310 S   0  0  0  0  0  0  0  0  0  0  0  0
    0.0910   25.6740  -26.7520 O   0  0  0  0  0  0  0  0  0  0  0  0
   -2.2320   24.8740  -26.7030 O   0  0  0  0  0  0  0  0  0  0  0  0
   -0.4290   23.3320  -27.9430 C   0  0  0  0  0  0  0  0  0  0  0  0
    0.6090   22.7490  -27.1970 C   0  0  0  0  0  0  0  0  0  0  0  0
    1.0830   21.4750  -27.5140 C   0  0  0  0  0  0  0  0  0  0  0  0
    0.5240   20.7650  -28.5770 C   0  0  0  0  0  0  0  0  0  0  0  0
   -0.5090   21.3280  -29.3270 C   0  0  0  0  0  0  0  0  0  0  0  0
   -0.9920   22.6160  -29.0290 C   0  0  0  0  0  0  0  0  0  0  0  0
   -2.0780   23.1680  -29.7960 N   0  0  0  0  0  0  0  0  0  0  0  0
   -3.2180   22.3940  -30.2020 C   0  0  0  0  0  0  0  0  0  0  0  0
   -3.1380   21.1340  -30.2360 O   0  0  0  0  0  0  0  0  0  0  0  0
   -4.4720   23.0530  -30.6400 C   0  0  0  0  0  0  0  0  0  0  0  0
   -5.6140   22.2690  -30.8780 C   0  0  0  0  0  0  0  0  0  0  0  0
   -6.8240   22.8610  -31.2650 C   0  0  0  0  0  0  0  0  0  0  0  0
   -8.2640   21.8660  -31.5010 S   0  0  0  0  0  0  0  0  0  0  0  0
   -9.3550   22.7100  -32.0980 O   0  0  0  0  0  0  0  0  0  0  0  0
   -8.7430   21.3620  -30.1680 O   0  0  0  0  0  0  0  0  0  0  0  0
   -7.9400   20.5120  -32.5590 N   0  0  0  0  0  0  0  0  0  0  0  0
   -8.2880   19.2400  -31.8880 C   0  0  0  0  0  0  0  0  0  0  0  0
   -7.6080   18.0430  -32.5630 C   0  0  0  0  0  0  0  0  0  0  0  0
   -6.0760   18.1590  -32.4840 C   0  0  0  0  0  0  0  0  0  0  0  0
   -5.5950   19.6150  -32.3930 C   0  0  0  0  0  0  0  0  0  0  0  0
   -6.5640   20.5670  -33.1100 C   0  0  0  0  0  0  0  0  0  0  0  0
   -6.8900   24.2490  -31.4360 C   0  0  0  0  0  0  0  0  0  0  0  0
   -5.7650   25.0380  -31.1980 C   0  0  0  0  0  0  0  0  0  0  0  0
   -4.5620   24.4530  -30.7880 C   0  0  0  0  0  0  0  0  0  0  0  0
   -3.4800   25.2770  -30.5030 O   0  0  0  0  0  0  0  0  0  0  0  0
   -2.3670   26.0420  -28.9680 H   0  0  0  0  0  0  0  0  0  0  0  0
    1.0522   23.3016  -26.3554 H   0  0  0  0  0  0  0  0  0  0  0  0
    1.8985   21.0301  -26.9249 H   0  0  0  0  0  0  0  0  0  0  0  0
    0.8980   19.7605  -28.8240 H   0  0  0  0  0  0  0  0  0  0  0  0
   -0.9502   20.7598  -30.1592 H   0  0  0  0  0  0  0  0  0  0  0  0
   -2.0050   24.1500  -30.1400 H   0  0  0  0  0  0  0  0  0  0  0  0
   -5.5574   21.1769  -30.7590 H   0  0  0  0  0  0  0  0  0  0  0  0
   -7.9638   19.2896  -30.8380 H   0  0  0  0  0  0  0  0  0  0  0  0
   -9.3771   19.1011  -31.9560 H   0  0  0  0  0  0  0  0  0  0  0  0
   -7.9247   17.1184  -32.0583 H   0  0  0  0  0  0  0  0  0  0  0  0
   -7.9028   18.0257  -33.6226 H   0  0  0  0  0  0  0  0  0  0  0  0
   -5.7277   17.6171  -31.5924 H   0  0  0  0  0  0  0  0  0  0  0  0
   -5.6625   17.7299  -33.4086 H   0  0  0  0  0  0  0  0  0  0  0  0
   -5.5259   19.9043  -31.3340 H   0  0  0  0  0  0  0  0  0  0  0  0
   -4.6116   19.6876  -32.8804 H   0  0  0  0  0  0  0  0  0  0  0  0
   -6.1859   21.5949  -33.0082 H   0  0  0  0  0  0  0  0  0  0  0  0
   -6.6170   20.2530  -34.1629 H   0  0  0  0  0  0  0  0  0  0  0  0
   -7.8311   24.7181  -31.7587 H   0  0  0  0  0  0  0  0  0  0  0  0
   -5.8238   26.1280  -31.3336 H   0  0  0  0  0  0  0  0  0  0  0  0
  1  2  1  0
  2  3  2  0
  2  4  2  0
  2  5  1  0
  5  6  2  0
  6  7  1  0
  7  8  2  0
  8  9  1  0
  9 10  2  0
 10 11  1  0
 11 12  1  0
 12 13  2  0
 12 14  1  0
 14 15  2  0
 15 16  1  0
 16 17  1  0
 17 18  2  0
 17 19  2  0
 17 20  1  0
 20 21  1  0
 21 22  1  0
 22 23  1  0
 23 24  1  0
 24 25  1  0
 16 26  2  0
 26 27  1  0
 27 28  2  0
 28 29  1  0
 10  5  1  0
 28 14  1  0
 25 20  1  0
  1 30  1  0
  6 31  1  0
  7 32  1  0
  8 33  1  0
  9 34  1  0
 11 35  1  0
 15 36  1  0
 21 37  1  0
 21 38  1  0
 22 39  1  0
 22 40  1  0
 23 41  1  0
 23 42  1  0
 24 43  1  0
 24 44  1  0
 25 45  1  0
 25 46  1  0
 26 47  1  0
 27 48  1  0
M  CHG  2   1  -1  29  -1
M  END
>  <UniqueID>  (2) 
2

>  <SMILES>  (2) 
[NH-]S(=O)(=O)c1ccccc1NC(=O)c1cc(S(=O)(=O)N2CCCCC2)ccc1[O-]

>  <Energy>  (2) 
63.073984032826004

>  <Genealogy>  (2) 
[NH-]S(=O)(=O)c1ccccc1NC(=O)c1cc(S(=O)(=O)N2CCCCC2)ccc1[O-] (protonated)
[NH-]S(=O)(=O)c1ccccc1NC(=O)c1cc(S(=O)(=O)N2CCCCC2)ccc1[O-] (3D coordinates assigned)
[NH-]S(=O)(=O)c1ccccc1NC(=O)c1cc(S(=O)(=O)N2CCCCC2)ccc1[O-] (nonaromatic ring conformer: 63.073984032826004 kcal/mol)

>  <smiles>  (2) 
NS(=O)(=O)c1ccccc1NC(=O)c1cc(S(=O)(=O)N2CCCCC2)ccc1O

>  <score_type>  (2) 
oracle

>  <origin>  (2) 
adgpu

>  <m_score__min__energy>  (2) 
-15

>  <m_primary>  (2) 
energy

$$$$
2:0
     RDKit          3D

 35 36  0  0  0  0  0  0  0  0999 V2000
   -9.0680   20.5400  -31.9360 C   0  0  0  0  0  0  0  0  0  0  0  0
   -7.8900   21.4050  -31.5700 C   0  0  0  0  0  0  0  0  0  0  0  0
   -8.1180   22.6440  -30.9480 C   0  0  0  0  0  0  0  0  0  0  0  0
   -7.0500   23.4660  -30.5880 C   0  0  0  0  0  0  0  0  0  0  0  0
   -5.7360   23.0660  -30.8460 C   0  0  0  0  0  0  0  0  0  0  0  0
   -4.3860   24.0830  -30.3530 S   0  0  0  0  0  0  0  0  0  0  0  0
   -4.5250   24.4860  -28.9110 O   0  0  0  0  0  0  0  0  0  0  0  0
   -4.3700   25.3180  -31.2090 O   0  0  0  0  0  0  0  0  0  0  0  0
   -2.8900   23.2310  -30.5600 N   0  0  0  0  0  0  0  0  0  0  0  0
   -1.8300   23.1650  -29.5930 C   0  0  0  0  0  0  0  0  0  0  0  0
   -1.2290   21.9410  -29.2420 C   0  0  0  0  0  0  0  0  0  0  0  0
   -0.1880   21.9070  -28.3100 C   0  0  0  0  0  0  0  0  0  0  0  0
    0.2590   23.0880  -27.7150 C   0  0  0  0  0  0  0  0  0  0  0  0
   -0.3350   24.3060  -28.0510 C   0  0  0  0  0  0  0  0  0  0  0  0
   -1.3770   24.3530  -28.9850 C   0  0  0  0  0  0  0  0  0  0  0  0
   -1.9440   25.5890  -29.2940 O   0  0  0  0  0  0  0  0  0  0  0  0
   -5.4960   21.8460  -31.4870 C   0  0  0  0  0  0  0  0  0  0  0  0
   -6.5610   21.0110  -31.8660 C   0  0  0  0  0  0  0  0  0  0  0  0
   -6.2450   19.6850  -32.5150 C   0  0  0  0  0  0  0  0  0  0  0  0
   -6.2880   19.8180  -33.9680 N   0  0  0  0  0  0  0  0  0  0  0  0
   -9.5578   20.1804  -31.0191 H   0  0  0  0  0  0  0  0  0  0  0  0
   -9.7847   21.1280  -32.5281 H   0  0  0  0  0  0  0  0  0  0  0  0
   -8.7216   19.6801  -32.5281 H   0  0  0  0  0  0  0  0  0  0  0  0
   -9.1487   22.9690  -30.7429 H   0  0  0  0  0  0  0  0  0  0  0  0
   -7.2427   24.4325  -30.0993 H   0  0  0  0  0  0  0  0  0  0  0  0
   -1.5806   21.0066  -29.7037 H   0  0  0  0  0  0  0  0  0  0  0  0
    0.2801   20.9475  -28.0448 H   0  0  0  0  0  0  0  0  0  0  0  0
    1.0786   23.0590  -26.9819 H   0  0  0  0  0  0  0  0  0  0  0  0
    0.0179   25.2347  -27.5789 H   0  0  0  0  0  0  0  0  0  0  0  0
   -2.8550   25.6750  -29.7320 H   0  0  0  0  0  0  0  0  0  0  0  0
   -4.4615   21.5366  -31.6969 H   0  0  0  0  0  0  0  0  0  0  0  0
   -5.2399   19.3597  -32.2085 H   0  0  0  0  0  0  0  0  0  0  0  0
   -6.9906   18.9409  -32.1981 H   0  0  0  0  0  0  0  0  0  0  0  0
   -5.9930   20.7920  -34.2150 H   0  0  0  0  0  0  0  0  0  0  0  0
   -7.2850   19.7250  -34.2670 H   0  0  0  0  0  0  0  0  0  0  0  0
  1  2  1  0
  2  3  2  0
  3  4  1  0
  4  5  2  0
  5  6  1  0
  6  7  2  0
  6  8  2  0
  6  9  1  0
  9 10  1  0
 10 11  2  0
 11 12  1  0
 12 13  2  0
 13 14  1  0
 14 15  2  0
 15 16  1  0
  5 17  1  0
 17 18  2  0
 18 19  1  0
 19 20  1  0
 18  2  1  0
 15 10  1  0
  1 21  1  0
  1 22  1  0
  1 23  1  0
  3 24  1  0
  4 25  1  0
 11 26  1  0
 12 27  1  0
 13 28  1  0
 14 29  1  0
 16 30  1  0
 17 31  1  0
 19 32  1  0
 19 33  1  0
 20 34  1  0
 20 35  1  0
M  CHG  1   9  -1
M  END
>  <UniqueID>  (3) 
3

>  <SMILES>  (3) 
Cc1ccc(S(=O)(=O)[N-]c2ccccc2O)cc1CN

>  <Energy>  (3) 
37.47558915404043

>  <Genealogy>  (3) 
Cc1ccc(S(=O)(=O)[N-]c2ccccc2O)cc1CN (protonated)
Cc1ccc(S(=O)(=O)[N-]c2ccccc2O)cc1CN (3D coordinates assigned)
Cc1ccc(S(=O)(=O)[N-]c2ccccc2O)cc1CN (optimized conformer: 37.47558915404043 kcal/mol)

>  <smiles>  (3) 
Cc1ccc(S(=O)(=O)Nc2ccccc2O)cc1CN

>  <score_type>  (3) 
oracle

>  <origin>  (3) 
adgpu

>  <m_score__min__energy>  (3) 
-10.609999999999999

>  <m_primary>  (3) 
energy

$$$$
3:0
     RDKit          3D

 76 79  0  0  0  0  0  0  0  0999 V2000
   -8.3250   19.8980  -32.6250 C   0  0  0  0  0  0  0  0  0  0  0  0
   -7.0680   19.7040  -33.0250 C   0  0  0  0  0  0  0  0  0  0  0  0
   -6.3150   18.4650  -32.7500 C   0  0  0  0  0  0  0  0  0  0  0  0
   -6.8500   17.5830  -32.0240 O   0  0  0  0  0  0  0  0  0  0  0  0
   -4.9790   18.2740  -33.2420 N   0  0  0  0  0  0  0  0  0  0  0  0
   -4.3910   16.9780  -33.4520 C   0  0  0  0  0  0  0  0  0  0  0  0
   -5.0950   15.9530  -34.1140 C   0  0  0  0  0  0  0  0  0  0  0  0
   -4.4800   14.7240  -34.3690 C   0  0  0  0  0  0  0  0  0  0  0  0
   -3.1570   14.5090  -33.9780 C   0  0  0  0  0  0  0  0  0  0  0  0
   -2.4410   15.5240  -33.3230 C   0  0  0  0  0  0  0  0  0  0  0  0
   -1.0790   15.3200  -32.9230 N   0  0  0  0  0  0  0  0  0  0  0  0
   -0.3240   16.2720  -32.1510 C   0  0  0  0  0  0  0  0  0  0  0  0
    0.0320   15.9460  -30.8340 C   0  0  0  0  0  0  0  0  0  0  0  0
    0.6630   16.8870  -30.0070 C   0  0  0  0  0  0  0  0  0  0  0  0
    1.0070   16.5250  -28.6160 C   0  0  0  0  0  0  0  0  0  0  0  0
    0.7550   17.3410  -27.6940 O   0  0  0  0  0  0  0  0  0  0  0  0
    1.6850   15.3070  -28.2840 N   0  0  0  0  0  0  0  0  0  0  0  0
    1.6520   14.6610  -26.9760 C   0  0  0  0  0  0  0  0  0  0  0  0
    0.9740   18.1550  -30.5220 C   0  0  0  0  0  0  0  0  0  0  0  0
    0.5960   18.5000  -31.8220 C   0  0  0  0  0  0  0  0  0  0  0  0
   -0.0680   17.5730  -32.6330 C   0  0  0  0  0  0  0  0  0  0  0  0
   -0.5460   17.9700  -33.9210 N   0  0  0  0  0  0  0  0  0  0  0  0
   -1.1160   19.2430  -34.2520 C   0  0  0  0  0  0  0  0  0  0  0  0
   -2.3050   19.4670  -33.8930 O   0  0  0  0  0  0  0  0  0  0  0  0
   -0.3150   20.3630  -34.8270 C   0  0  0  0  0  0  0  0  0  0  0  0
    0.5900   20.0960  -35.8710 C   0  0  0  0  0  0  0  0  0  0  0  0
    1.3070   21.1310  -36.4750 C   0  0  0  0  0  0  0  0  0  0  0  0
    1.1220   22.4430  -36.0360 C   0  0  0  0  0  0  0  0  0  0  0  0
    1.7940   23.4070  -36.5950 N   0  0  0  0  0  0  0  0  0  0  0  0
    1.7190   24.8140  -36.2930 C   0  0  0  0  0  0  0  0  0  0  0  0
    0.5410   25.5580  -36.5100 C   0  0  0  0  0  0  0  0  0  0  0  0
    0.4820   26.9140  -36.1660 C   0  0  0  0  0  0  0  0  0  0  0  0
   -1.0090   27.8190  -36.4130 S   0  0  0  0  0  0  0  0  0  0  0  0
   -0.6930   29.2110  -36.8830 O   0  0  0  0  0  0  0  0  0  0  0  0
   -1.7460   27.9190  -35.1080 O   0  0  0  0  0  0  0  0  0  0  0  0
   -2.0160   27.0130  -37.5780 N   0  0  0  0  0  0  0  0  0  0  0  0
   -1.7130   27.5070  -38.9170 C   0  0  0  0  0  0  0  0  0  0  0  0
    1.6160   27.5460  -35.6400 C   0  0  0  0  0  0  0  0  0  0  0  0
    2.8010   26.8290  -35.4680 C   0  0  0  0  0  0  0  0  0  0  0  0
    2.8660   25.4710  -35.8070 C   0  0  0  0  0  0  0  0  0  0  0  0
    4.1020   24.7580  -35.6420 N   0  0  0  0  0  0  0  0  0  0  0  0
    4.6470   24.0010  -36.7670 C   0  0  0  0  0  0  0  0  0  0  0  0
    4.8660   24.8800  -34.4020 C   0  0  0  0  0  0  0  0  0  0  0  0
    0.2730   22.6840  -35.0020 N   0  0  0  0  0  0  0  0  0  0  0  0
   -0.4410   21.6980  -34.4010 C   0  0  0  0  0  0  0  0  0  0  0  0
   -3.0640   16.7500  -33.0590 C   0  0  0  0  0  0  0  0  0  0  0  0
   -8.8370   20.8430  -32.8590 H   0  0  0  0  0  0  0  0  0  0  0  0
   -8.8501   19.1130  -32.0610 H   0  0  0  0  0  0  0  0  0  0  0  0
   -6.5680   20.5064  -33.5873 H   0  0  0  0  0  0  0  0  0  0  0  0
   -4.3720   19.1170  -33.3660 H   0  0  0  0  0  0  0  0  0  0  0  0
   -6.1346   16.1208  -34.4320 H   0  0  0  0  0  0  0  0  0  0  0  0
   -5.0390   13.9252  -34.8784 H   0  0  0  0  0  0  0  0  0  0  0  0
   -2.6744   13.5421  -34.1835 H   0  0  0  0  0  0  0  0  0  0  0  0
   -0.6180   14.4200  -33.1870 H   0  0  0  0  0  0  0  0  0  0  0  0
   -0.1862   14.9405  -30.4451 H   0  0  0  0  0  0  0  0  0  0  0  0
    1.6911   15.4271  -26.1876 H   0  0  0  0  0  0  0  0  0  0  0  0
    0.7230   14.0803  -26.8772 H   0  0  0  0  0  0  0  0  0  0  0  0
    2.5170   13.9886  -26.8772 H   0  0  0  0  0  0  0  0  0  0  0  0
    1.5179   18.8805  -29.8992 H   0  0  0  0  0  0  0  0  0  0  0  0
    0.8213   19.5045  -32.2096 H   0  0  0  0  0  0  0  0  0  0  0  0
    0.7342   19.0611  -36.2149 H   0  0  0  0  0  0  0  0  0  0  0  0
    2.0124   20.9139  -37.2907 H   0  0  0  0  0  0  0  0  0  0  0  0
   -0.3390   25.0690  -36.9533 H   0  0  0  0  0  0  0  0  0  0  0  0
   -1.1392   28.4425  -38.8416 H   0  0  0  0  0  0  0  0  0  0  0  0
   -1.1201   26.7559  -39.4595 H   0  0  0  0  0  0  0  0  0  0  0  0
   -2.6513   27.6951  -39.4595 H   0  0  0  0  0  0  0  0  0  0  0  0
    1.5725   28.6094  -35.3620 H   0  0  0  0  0  0  0  0  0  0  0  0
    3.6906   27.3338  -35.0633 H   0  0  0  0  0  0  0  0  0  0  0  0
    5.2502   23.1632  -36.3873 H   0  0  0  0  0  0  0  0  0  0  0  0
    3.8216   23.6103  -37.3802 H   0  0  0  0  0  0  0  0  0  0  0  0
    5.2794   24.6598  -37.3802 H   0  0  0  0  0  0  0  0  0  0  0  0
    4.1888   24.7719  -33.5419 H   0  0  0  0  0  0  0  0  0  0  0  0
    5.6337   24.0931  -34.3654 H   0  0  0  0  0  0  0  0  0  0  0  0
    5.3505   25.8669  -34.3654 H   0  0  0  0  0  0  0  0  0  0  0  0
   -1.1235   21.9448  -33.5744 H   0  0  0  0  0  0  0  0  0  0  0  0
   -2.5069   17.5425  -32.5380 H   0  0  0  0  0  0  0  0  0  0  0  0
  1  2  2  0
  2  3  1  0
  3  4  2  0
  3  5  1  0
  5  6  1  0
  6  7  2  0
  7  8  1  0
  8  9  2  0
  9 10  1  0
 10 11  1  0
 11 12  1  0
 12 13  2  0
 13 14  1  0
 14 15  1  0
 15 16  2  0
 15 17  1  0
 17 18  1  0
 14 19  2  0
 19 20  1  0
 20 21  2  0
 21 22  1  0
 22 23  1  0
 23 24  2  0
 23 25  1  0
 25 26  1  0
 26 27  2  0
 27 28  1  0
 28 29  2  3
 29 30  1  0
 30 31  2  0
 31 32  1  0
 32 33  1  0
 33 34  2  0
 33 35  2  0
 33 36  1  0
 36 37  1  0
 32 38  2  0
 38 39  1  0
 39 40  2  0
 40 41  1  0
 41 42  1  0
 41 43  1  0
 28 44  1  0
 44 45  1  0
 10 46  2  0
 46  6  1  0
 21 12  1  0
 45 25  2  0
 40 30  1  0
  1 47  1  0
  1 48  1  0
  2 49  1  0
  5 50  1  0
  7 51  1  0
  8 52  1  0
  9 53  1  0
 11 54  1  0
 13 55  1  0
 18 56  1  0
 18 57  1  0
 18 58  1  0
 19 59  1  0
 20 60  1  0
 26 61  1  0
 27 62  1  0
 31 63  1  0
 37 64  1  0
 37 65  1  0
 37 66  1  0
 38 67  1  0
 39 68  1  0
 42 69  1  0
 42 70  1  0
 42 71  1  0
 43 72  1  0
 43 73  1  0
 43 74  1  0
 45 75  1  0
 46 76  1  0
M  CHG  4  17  -1  22  -1  36  -1  44  -1
M  END
>  <UniqueID>  (4) 
4

>  <SMILES>  (4) 
C=CC(=O)Nc1cccc(Nc2cc(C(=O)[N-]C)ccc2[N-]C(=O)c2ccc(=Nc3cc(S(=O)(=O)[N-]C)ccc3N(C)C)[n-]c2)c1

>  <Energy>  (4) 
116.21371989620836

>  <Genealogy>  (4) 
C=CC(=O)Nc1cccc(Nc2cc(C(=O)[N-]C)ccc2[N-]C(=O)c2ccc(=Nc3cc(S(=O)(=O)[N-]C)ccc3N(C)C)[n-]c2)c1 (protonated)
C=CC(=O)Nc1cccc(Nc2cc(C(=O)[N-]C)ccc2[N-]C(=O)c2ccc(=Nc3cc(S(=O)(=O)[N-]C)ccc3N(C)C)[n-]c2)c1 (3D coordinates assigned)
C=CC(=O)Nc1cccc(Nc2cc(C(=O)[N-]C)ccc2[N-]C(=O)c2ccc(=Nc3cc(S(=O)(=O)[N-]C)ccc3N(C)C)[n-]c2)c1 (optimized conformer: 116.21371989620836 kcal/mol)

>  <smiles>  (4) 
C=CC(=O)Nc1cccc(Nc2cc(C(=O)NC)ccc2NC(=O)c2ccc(=Nc3cc(S(=O)(=O)NC)ccc3N(C)C)[nH]c2)c1

>  <score_type>  (4) 
oracle

>  <origin>  (4) 
adgpu

>  <m_score__min__energy>  (4) 
-13.789999999999999

>  <m_primary>  (4) 
energy

$$$$
4:0
     RDKit          3D

 54 57  0  0  0  0  0  0  0  0999 V2000
   -2.4410   20.6860  -33.2660 H   0  0  0  0  0  0  0  0  0  0  0  0
   -2.5780   19.8180  -33.8230 N   0  0  0  0  0  0  0  0  0  0  0  0
   -3.6990   19.1750  -33.9100 C   0  0  0  0  0  0  0  0  0  0  0  0
   -3.7820   18.0960  -34.7450 N   0  0  0  0  0  0  0  0  0  0  0  0
   -4.9540   17.4250  -34.9660 C   0  0  0  0  0  0  0  0  0  0  0  0
   -4.9652   16.5496  -35.6320 H   0  0  0  0  0  0  0  0  0  0  0  0
   -6.1410   17.8460  -34.3490 C   0  0  0  0  0  0  0  0  0  0  0  0
   -7.0968   17.3344  -34.5354 H   0  0  0  0  0  0  0  0  0  0  0  0
   -6.0580   18.9410  -33.4890 C   0  0  0  0  0  0  0  0  0  0  0  0
   -4.8680   19.5760  -33.2370 C   0  0  0  0  0  0  0  0  0  0  0  0
   -5.1900   20.5580  -32.3000 C   0  0  0  0  0  0  0  0  0  0  0  0
   -4.2830   21.4340  -31.5410 C   0  0  0  0  0  0  0  0  0  0  0  0
   -3.0570   20.9380  -31.0790 C   0  0  0  0  0  0  0  0  0  0  0  0
   -2.7907   19.8853  -31.2548 H   0  0  0  0  0  0  0  0  0  0  0  0
   -2.1700   21.7760  -30.3950 C   0  0  0  0  0  0  0  0  0  0  0  0
   -1.2207   21.3728  -30.0126 H   0  0  0  0  0  0  0  0  0  0  0  0
   -2.4860   23.1310  -30.1940 C   0  0  0  0  0  0  0  0  0  0  0  0
   -1.6060   24.0080  -29.4720 N   0  0  0  0  0  0  0  0  0  0  0  0
   -1.6720   25.0280  -29.6860 H   0  0  0  0  0  0  0  0  0  0  0  0
   -0.6050   23.5530  -28.5410 C   0  0  0  0  0  0  0  0  0  0  0  0
   -0.5130   22.3300  -28.2530 O   0  0  0  0  0  0  0  0  0  0  0  0
    0.2800   24.4740  -27.8880 N   0  0  0  0  0  0  0  0  0  0  0  0
    0.0520   25.7360  -27.6760 C   0  0  0  0  0  0  0  0  0  0  0  0
   -1.0230   26.4120  -28.1240 N   0  0  0  0  0  0  0  0  0  0  0  0
   -0.8580   27.6480  -27.7540 O   0  0  0  0  0  0  0  0  0  0  0  0
    0.2710   27.8080  -27.0940 C   0  0  0  0  0  0  0  0  0  0  0  0
    0.7470   29.1460  -26.5560 C   0  0  0  0  0  0  0  0  0  0  0  0
    2.2560   29.3570  -26.8060 C   0  0  0  0  0  0  0  0  0  0  0  0
    2.7806   29.4304  -25.8420 H   0  0  0  0  0  0  0  0  0  0  0  0
    2.6556   28.5060  -27.3771 H   0  0  0  0  0  0  0  0  0  0  0  0
    2.4068   30.2850  -27.3771 H   0  0  0  0  0  0  0  0  0  0  0  0
   -0.0430   30.2660  -27.2570 C   0  0  0  0  0  0  0  0  0  0  0  0
   -0.5034   30.9187  -26.5006 H   0  0  0  0  0  0  0  0  0  0  0  0
    0.6389   30.8575  -27.8856 H   0  0  0  0  0  0  0  0  0  0  0  0
   -0.8290   29.8221  -27.8856 H   0  0  0  0  0  0  0  0  0  0  0  0
    0.4780   29.1970  -25.0400 C   0  0  0  0  0  0  0  0  0  0  0  0
    1.4167   29.0190  -24.4949 H   0  0  0  0  0  0  0  0  0  0  0  0
    0.0799   30.1866  -24.7713 H   0  0  0  0  0  0  0  0  0  0  0  0
   -0.2547   28.4218  -24.7713 H   0  0  0  0  0  0  0  0  0  0  0  0
    0.9150   26.5830  -27.0220 C   0  0  0  0  0  0  0  0  0  0  0  0
    1.8822   26.3459  -26.5548 H   0  0  0  0  0  0  0  0  0  0  0  0
   -3.7140   23.6240  -30.6590 C   0  0  0  0  0  0  0  0  0  0  0  0
   -3.9820   24.6762  -30.4831 H   0  0  0  0  0  0  0  0  0  0  0  0
   -4.5990   22.7880  -31.3440 C   0  0  0  0  0  0  0  0  0  0  0  0
   -5.5465   23.1916  -31.7304 H   0  0  0  0  0  0  0  0  0  0  0  0
   -6.5180   20.4990  -32.0450 N   0  0  0  0  0  0  0  0  0  0  0  0
   -7.0420   19.5260  -32.7790 N   0  0  0  0  0  0  0  0  0  0  0  0
   -8.4480   19.1320  -32.7150 C   0  0  0  0  0  0  0  0  0  0  0  0
   -9.0805   20.0151  -32.8883 H   0  0  0  0  0  0  0  0  0  0  0  0
   -8.6419   18.3721  -33.4864 H   0  0  0  0  0  0  0  0  0  0  0  0
   -8.7710   18.5430  -31.3470 C   0  0  0  0  0  0  0  0  0  0  0  0
   -8.4011   19.2175  -30.5608 H   0  0  0  0  0  0  0  0  0  0  0  0
   -9.8600   18.4250  -31.2464 H   0  0  0  0  0  0  0  0  0  0  0  0
   -8.2850   17.5613  -31.2464 H   0  0  0  0  0  0  0  0  0  0  0  0
  1  2  1  0
  2  3  2  0
  3  4  1  0
  4  5  1  0
  5  6  1  0
  5  7  2  0
  7  8  1  0
  7  9  1  0
  9 10  2  0
 10 11  1  0
 11 12  1  0
 12 13  2  0
 13 14  1  0
 13 15  1  0
 15 16  1  0
 15 17  2  0
 17 18  1  0
 18 19  1  0
 18 20  1  0
 20 21  2  0
 20 22  1  0
 22 23  2  0
 23 24  1  0
 24 25  1  0
 25 26  1  0
 26 27  1  0
 27 28  1  0
 28 29  1  0
 28 30  1  0
 28 31  1  0
 27 32  1  0
 32 33  1  0
 32 34  1  0
 32 35  1  0
 27 36  1  0
 36 37  1  0
 36 38  1  0
 36 39  1  0
 26 40  2  0
 40 41  1  0
 17 42  1  0
 42 43  1  0
 42 44  2  0
 44 45  1  0
 11 46  2  0
 46 47  1  0
 47 48  1  0
 48 49  1  0
 48 50  1  0
 48 51  1  0
 51 52  1  0
 51 53  1  0
 51 54  1  0
 10  3  1  0
 44 12  1  0
 47  9  1  0
 40 23  1  0
M  CHG  2   4  -1  24  -1
M  END
>  <UniqueID>  (5) 
5

>  <SMILES>  (5) 
[H]/N=c1/[n-]ccc2c1c(-c1ccc(NC(=O)/N=c3/cc(C(C)(C)C)o[n-]3)cc1)nn2CC

>  <Energy>  (5) 
140.0203832256935

>  <Genealogy>  (5) 
CCn1nc(-c2ccc(NC(=O)N=c3cc(C(C)(C)C)o[n-]3)cc2)c2c(=N)[n-]ccc21 (protonated)
[H]/N=c1/[n-]ccc2c1c(-c1ccc(NC(=O)/N=c3/cc(C(C)(C)C)o[n-]3)cc1)nn2CC (cis-trans isomerization)
[H]/N=c1/[n-]ccc2c1c(-c1ccc(NC(=O)/N=c3/cc(C(C)(C)C)o[n-]3)cc1)nn2CC (3D coordinates assigned)
[H]/N=c1/[n-]ccc2c1c(-c1ccc(NC(=O)/N=c3/cc(C(C)(C)C)o[n-]3)cc1)nn2CC (optimized conformer: 140.0203832256935 kcal/mol)

>  <smiles>  (5) 
CCn1nc(-c2ccc(NC(=O)N=c3cc(C(C)(C)C)o[nH]3)cc2)c2c(=N)[nH]ccc21

>  <score_type>  (5) 
oracle

>  <origin>  (5) 
adgpu

>  <m_score__min__energy>  (5) 
-9.6899999999999995

>  <m_primary>  (5) 
energy

$$$$
5:0
     RDKit          3D

 37 39  0  0  0  0  0  0  0  0999 V2000
   -6.8310   23.8860  -29.7760 C   0  0  0  0  0  0  0  0  0  0  0  0
   -6.5180   23.1130  -30.9810 N   0  0  0  0  0  0  0  0  0  0  0  0
   -5.2150   23.2370  -31.6430 C   0  0  0  0  0  0  0  0  0  0  0  0
   -4.1220   23.2670  -30.6080 C   0  0  0  0  0  0  0  0  0  0  0  0
   -3.6780   22.0630  -30.0380 C   0  0  0  0  0  0  0  0  0  0  0  0
   -2.6210   22.0600  -29.1240 C   0  0  0  0  0  0  0  0  0  0  0  0
   -1.9890   23.2570  -28.7780 C   0  0  0  0  0  0  0  0  0  0  0  0
   -0.9370   23.2450  -27.8700 O   0  0  0  0  0  0  0  0  0  0  0  0
   -2.4140   24.4620  -29.3490 C   0  0  0  0  0  0  0  0  0  0  0  0
   -1.7790   25.6520  -29.0090 O   0  0  0  0  0  0  0  0  0  0  0  0
   -3.4730   24.4720  -30.2650 C   0  0  0  0  0  0  0  0  0  0  0  0
   -3.8740   25.6760  -30.8350 O   0  0  0  0  0  0  0  0  0  0  0  0
   -7.5290   22.2770  -31.5620 C   0  0  0  0  0  0  0  0  0  0  0  0
   -8.6880   22.7440  -31.7300 O   0  0  0  0  0  0  0  0  0  0  0  0
   -7.2250   20.8910  -31.9900 C   0  0  0  0  0  0  0  0  0  0  0  0
   -6.1310   20.6320  -32.8300 C   0  0  0  0  0  0  0  0  0  0  0  0
   -5.8270   19.3250  -33.2190 C   0  0  0  0  0  0  0  0  0  0  0  0
   -6.6060   18.2430  -32.7690 C   0  0  0  0  0  0  0  0  0  0  0  0
   -6.2780   16.9000  -33.1780 N   0  0  0  0  0  0  0  0  0  0  0  0
   -5.2950   16.0940  -32.7340 C   0  0  0  0  0  0  0  0  0  0  0  0
   -5.3420   14.9170  -33.3850 N   0  0  0  0  0  0  0  0  0  0  0  0
   -6.3620   15.0210  -34.2250 N   0  0  0  0  0  0  0  0  0  0  0  0
   -6.9260   16.2130  -34.1040 N   0  0  0  0  0  0  0  0  0  0  0  0
   -7.6960   18.5040  -31.9190 C   0  0  0  0  0  0  0  0  0  0  0  0
   -8.0000   19.8120  -31.5320 C   0  0  0  0  0  0  0  0  0  0  0  0
   -6.5893   23.2890  -28.8843 H   0  0  0  0  0  0  0  0  0  0  0  0
   -6.2369   24.8117  -29.7696 H   0  0  0  0  0  0  0  0  0  0  0  0
   -7.9018   24.1375  -29.7696 H   0  0  0  0  0  0  0  0  0  0  0  0
   -5.0615   22.3777  -32.3124 H   0  0  0  0  0  0  0  0  0  0  0  0
   -5.1899   24.1687  -32.2271 H   0  0  0  0  0  0  0  0  0  0  0  0
   -4.1654   21.1159  -30.3128 H   0  0  0  0  0  0  0  0  0  0  0  0
   -2.2858   21.1130  -28.6759 H   0  0  0  0  0  0  0  0  0  0  0  0
   -5.5073   21.4655  -33.1853 H   0  0  0  0  0  0  0  0  0  0  0  0
   -4.9702   19.1400  -33.8836 H   0  0  0  0  0  0  0  0  0  0  0  0
   -4.5634   16.3579  -31.9561 H   0  0  0  0  0  0  0  0  0  0  0  0
   -8.3150   17.6706  -31.5554 H   0  0  0  0  0  0  0  0  0  0  0  0
   -8.8532   19.9985  -30.8632 H   0  0  0  0  0  0  0  0  0  0  0  0
  1  2  1  0
  2  3  1  0
  3  4  1  0
  4  5  2  0
  5  6  1  0
  6  7  2  0
  7  8  1  0
  7  9  1  0
  9 10  1  0
  9 11  2  0
 11 12  1  0
  2 13  1  0
 13 14  2  0
 13 15  1  0
 15 16  2  0
 16 17  1  0
 17 18  2  0
 18 19  1  0
 19 20  1  0
 20 21  2  0
 21 22  1  0
 22 23  2  0
 18 24  1  0
 24 25  2  0
 11  4  1  0
 25 15  1  0
 23 19  1  0
  1 26  1  0
  1 27  1  0
  1 28  1  0
  3 29  1  0
  3 30  1  0
  5 31  1  0
  6 32  1  0
 16 33  1  0
 17 34  1  0
 20 35  1  0
 24 36  1  0
 25 37  1  0
M  CHG  3   8  -1  10  -1  12  -1
M  END
>  <UniqueID>  (6) 
6

>  <SMILES>  (6) 
CN(Cc1ccc([O-])c([O-])c1[O-])C(=O)c1ccc(-n2cnnn2)cc1

>  <Energy>  (6) 
84.98491807528333

>  <Genealogy>  (6) 
CN(Cc1ccc([O-])c([O-])c1[O-])C(=O)c1ccc(-n2cnnn2)cc1 (protonated)
CN(Cc1ccc([O-])c([O-])c1[O-])C(=O)c1ccc(-n2cnnn2)cc1 (3D coordinates assigned)
CN(Cc1ccc([O-])c([O-])c1[O-])C(=O)c1ccc(-n2cnnn2)cc1 (optimized conformer: 84.98491807528333 kcal/mol)

>  <smiles>  (6) 
CN(Cc1ccc(O)c(O)c1O)C(=O)c1ccc(-n2cnnn2)cc1

>  <score_type>  (6) 
oracle

>  <origin>  (6) 
adgpu

>  <m_score__min__energy>  (6) 
-14.4

>  <m_primary>  (6) 
energy

$$$$
6:0
     RDKit          3D

 60 63  0  0  0  0  0  0  0  0999 V2000
   -8.3780   18.2410  -31.5770 C   0  0  0  0  0  0  0  0  0  0  0  0
   -9.1210   19.2550  -32.4330 C   0  0  0  0  0  0  0  0  0  0  0  0
   -8.1720   20.1860  -33.0310 N   0  0  0  0  0  0  0  0  0  0  0  0
   -7.0920   20.7760  -32.2950 C   0  0  0  0  0  0  0  0  0  0  0  0
   -7.3440   21.4640  -31.2680 O   0  0  0  0  0  0  0  0  0  0  0  0
   -5.6880   20.5720  -32.7390 C   0  0  0  0  0  0  0  0  0  0  0  0
   -5.2350   19.2690  -33.0270 C   0  0  0  0  0  0  0  0  0  0  0  0
   -3.9080   19.0360  -33.4130 C   0  0  0  0  0  0  0  0  0  0  0  0
   -3.4670   17.6970  -33.6730 N   0  0  0  0  0  0  0  0  0  0  0  0
   -4.4470   16.5870  -34.5790 S   0  0  0  0  0  0  0  0  0  0  0  0
   -5.7730   17.2380  -34.8760 O   0  0  0  0  0  0  0  0  0  0  0  0
   -3.7680   16.2760  -35.8830 O   0  0  0  0  0  0  0  0  0  0  0  0
   -4.6750   15.0850  -33.6880 C   0  0  0  0  0  0  0  0  0  0  0  0
   -4.3590   15.0300  -32.3230 C   0  0  0  0  0  0  0  0  0  0  0  0
   -4.5680   13.8520  -31.6000 C   0  0  0  0  0  0  0  0  0  0  0  0
   -5.1010   12.7260  -32.2340 C   0  0  0  0  0  0  0  0  0  0  0  0
   -5.4220   12.7750  -33.5950 C   0  0  0  0  0  0  0  0  0  0  0  0
   -5.2090   13.9520  -34.3220 C   0  0  0  0  0  0  0  0  0  0  0  0
   -3.0370   20.1190  -33.5660 C   0  0  0  0  0  0  0  0  0  0  0  0
   -3.4700   21.4160  -33.2920 C   0  0  0  0  0  0  0  0  0  0  0  0
   -4.7830   21.6530  -32.8500 C   0  0  0  0  0  0  0  0  0  0  0  0
   -5.2060   22.9580  -32.5490 O   0  0  0  0  0  0  0  0  0  0  0  0
   -5.0180   23.6090  -31.3210 C   0  0  0  0  0  0  0  0  0  0  0  0
   -6.0990   24.0560  -30.5440 C   0  0  0  0  0  0  0  0  0  0  0  0
   -5.8310   24.7180  -29.3490 C   0  0  0  0  0  0  0  0  0  0  0  0
   -4.5450   24.9270  -28.9630 N   0  0  0  0  0  0  0  0  0  0  0  0
   -3.5020   24.4910  -29.7230 C   0  0  0  0  0  0  0  0  0  0  0  0
   -2.2700   24.7020  -29.3620 N   0  0  0  0  0  0  0  0  0  0  0  0
   -1.8330   25.3090  -28.1360 C   0  0  0  0  0  0  0  0  0  0  0  0
   -2.3060   24.8740  -26.8840 C   0  0  0  0  0  0  0  0  0  0  0  0
   -1.8370   25.4690  -25.7090 C   0  0  0  0  0  0  0  0  0  0  0  0
   -0.8860   26.4960  -25.7680 C   0  0  0  0  0  0  0  0  0  0  0  0
   -0.3060   27.2310  -24.2770 S   0  0  0  0  0  0  0  0  0  0  0  0
   -0.2440   28.9490  -24.4660 N   0  0  0  0  0  0  0  0  0  0  0  0
    1.0740   26.7280  -23.9520 O   0  0  0  0  0  0  0  0  0  0  0  0
   -1.2340   26.8780  -23.1490 O   0  0  0  0  0  0  0  0  0  0  0  0
   -0.3870   26.9050  -27.0130 C   0  0  0  0  0  0  0  0  0  0  0  0
   -0.8510   26.3060  -28.1880 C   0  0  0  0  0  0  0  0  0  0  0  0
   -3.7500   23.8520  -30.8970 N   0  0  0  0  0  0  0  0  0  0  0  0
   -8.5439   18.4674  -30.5134 H   0  0  0  0  0  0  0  0  0  0  0  0
   -8.7508   17.2303  -31.7992 H   0  0  0  0  0  0  0  0  0  0  0  0
   -7.3019   18.2920  -31.7992 H   0  0  0  0  0  0  0  0  0  0  0  0
   -9.6682   18.7294  -33.2294 H   0  0  0  0  0  0  0  0  0  0  0  0
   -9.8292   19.8129  -31.8028 H   0  0  0  0  0  0  0  0  0  0  0  0
   -5.9330   18.4226  -32.9477 H   0  0  0  0  0  0  0  0  0  0  0  0
   -2.4440   17.4910  -33.6200 H   0  0  0  0  0  0  0  0  0  0  0  0
   -3.9455   15.9164  -31.8197 H   0  0  0  0  0  0  0  0  0  0  0  0
   -4.3127   13.8111  -30.5308 H   0  0  0  0  0  0  0  0  0  0  0  0
   -5.2682   11.8010  -31.6627 H   0  0  0  0  0  0  0  0  0  0  0  0
   -5.8416   11.8888  -34.0935 H   0  0  0  0  0  0  0  0  0  0  0  0
   -5.4605   13.9893  -35.3922 H   0  0  0  0  0  0  0  0  0  0  0  0
   -2.0046   19.9470  -33.9044 H   0  0  0  0  0  0  0  0  0  0  0  0
   -2.7779   22.2609  -33.4229 H   0  0  0  0  0  0  0  0  0  0  0  0
   -7.1351   23.8867  -30.8725 H   0  0  0  0  0  0  0  0  0  0  0  0
   -6.6596   25.0716  -28.7178 H   0  0  0  0  0  0  0  0  0  0  0  0
   -3.0473   24.0631  -26.8297 H   0  0  0  0  0  0  0  0  0  0  0  0
   -2.2164   25.1293  -24.7340 H   0  0  0  0  0  0  0  0  0  0  0  0
    0.1780   29.3380  -23.5920 H   0  0  0  0  0  0  0  0  0  0  0  0
    0.3719   27.6996  -27.0653 H   0  0  0  0  0  0  0  0  0  0  0  0
   -0.4420   26.6199  -29.1597 H   0  0  0  0  0  0  0  0  0  0  0  0
  1  2  1  0
  2  3  1  0
  3  4  1  0
  4  5  2  0
  4  6  1  0
  6  7  2  0
  7  8  1  0
  8  9  1  0
  9 10  1  0
 10 11  2  0
 10 12  2  0
 10 13  1  0
 13 14  2  0
 14 15  1  0
 15 16  2  0
 16 17  1  0
 17 18  2  0
  8 19  2  0
 19 20  1  0
 20 21  2  0
 21 22  1  0
 22 23  1  0
 23 24  1  0
 24 25  2  0
 25 26  1  0
 26 27  1  0
 27 28  2  3
 28 29  1  0
 29 30  2  0
 30 31  1  0
 31 32  2  0
 32 33  1  0
 33 34  1  0
 33 35  2  0
 33 36  2  0
 32 37  1  0
 37 38  2  0
 27 39  1  0
 21  6  1  0
 39 23  2  0
 18 13  1  0
 38 29  1  0
  1 40  1  0
  1 41  1  0
  1 42  1  0
  2 43  1  0
  2 44  1  0
  7 45  1  0
  9 46  1  0
 14 47  1  0
 15 48  1  0
 16 49  1  0
 17 50  1  0
 18 51  1  0
 19 52  1  0
 20 53  1  0
 24 54  1  0
 25 55  1  0
 30 56  1  0
 31 57  1  0
 34 58  1  0
 37 59  1  0
 38 60  1  0
M  CHG  3   3  -1  26  -1  34  -1
M  END
>  <UniqueID>  (7) 
7

>  <SMILES>  (7) 
CC[N-]C(=O)c1cc(NS(=O)(=O)c2ccccc2)ccc1Oc1cc[n-]c(=Nc2ccc(S([NH-])(=O)=O)cc2)n1

>  <Energy>  (7) 
81.43183625074852

>  <Genealogy>  (7) 
CC[N-]C(=O)c1cc(NS(=O)(=O)c2ccccc2)ccc1Oc1cc[n-]c(=Nc2ccc(S([NH-])(=O)=O)cc2)n1 (protonated)
CC[N-]C(=O)c1cc(NS(=O)(=O)c2ccccc2)ccc1Oc1cc[n-]c(=Nc2ccc(S([NH-])(=O)=O)cc2)n1 (3D coordinates assigned)
CC[N-]C(=O)c1cc(NS(=O)(=O)c2ccccc2)ccc1Oc1cc[n-]c(=Nc2ccc(S([NH-])(=O)=O)cc2)n1 (optimized conformer: 81.43183625074852 kcal/mol)

>  <smiles>  (7) 
CCNC(=O)c1cc(NS(=O)(=O)c2ccccc2)ccc1Oc1cc[nH]c(=Nc2ccc(S(N)(=O)=O)cc2)n1

>  <score_type>  (7) 
oracle

>  <origin>  (7) 
adgpu

>  <m_score__min__energy>  (7) 
-12.369999999999999

>  <m_primary>  (7) 
energy

$$$$
7:0
     RDKit          3D

 61 64  0  0  0  0  0  0  0  0999 V2000
   -2.7750   19.6130  -26.7260 C   0  0  0  0  0  0  0  0  0  0  0  0
   -1.5870   20.4150  -27.0140 N   0  0  0  0  0  0  0  0  0  0  0  0
   -1.5800   21.8270  -26.7400 C   0  0  0  0  0  0  0  0  0  0  0  0
   -0.6700   22.3660  -25.8200 C   0  0  0  0  0  0  0  0  0  0  0  0
   -0.6700   23.7360  -25.5420 C   0  0  0  0  0  0  0  0  0  0  0  0
   -1.5810   24.5830  -26.1880 C   0  0  0  0  0  0  0  0  0  0  0  0
   -1.5780   25.9930  -25.8960 C   0  0  0  0  0  0  0  0  0  0  0  0
   -1.5720   27.1270  -25.6590 N   0  0  0  0  0  0  0  0  0  0  0  0
   -2.4900   24.0520  -27.1120 C   0  0  0  0  0  0  0  0  0  0  0  0
   -2.4950   22.6820  -27.3840 C   0  0  0  0  0  0  0  0  0  0  0  0
   -0.3470   19.7410  -28.0320 S   0  0  0  0  0  0  0  0  0  0  0  0
    0.9400   20.4840  -27.8070 O   0  0  0  0  0  0  0  0  0  0  0  0
   -0.1320   18.2930  -27.6930 O   0  0  0  0  0  0  0  0  0  0  0  0
   -0.8340   19.8580  -29.7180 C   0  0  0  0  0  0  0  0  0  0  0  0
   -0.2710   19.0080  -30.6790 C   0  0  0  0  0  0  0  0  0  0  0  0
   -0.7130   19.0570  -32.0060 C   0  0  0  0  0  0  0  0  0  0  0  0
   -1.7340   19.9470  -32.3820 C   0  0  0  0  0  0  0  0  0  0  0  0
   -2.3080   19.9090  -33.7440 C   0  0  0  0  0  0  0  0  0  0  0  0
   -1.6620   20.4240  -34.6960 O   0  0  0  0  0  0  0  0  0  0  0  0
   -3.5770   19.2940  -34.0240 N   0  0  0  0  0  0  0  0  0  0  0  0
   -4.8460   19.5910  -33.4160 C   0  0  0  0  0  0  0  0  0  0  0  0
   -5.7440   18.5400  -33.1920 C   0  0  0  0  0  0  0  0  0  0  0  0
   -6.9900   18.7860  -32.6090 C   0  0  0  0  0  0  0  0  0  0  0  0
   -7.3450   20.0860  -32.2340 C   0  0  0  0  0  0  0  0  0  0  0  0
   -6.4680   21.1530  -32.4710 C   0  0  0  0  0  0  0  0  0  0  0  0
   -6.8780   22.7720  -31.8910 S   0  0  0  0  0  0  0  0  0  0  0  0
   -6.2070   23.7950  -32.7670 O   0  0  0  0  0  0  0  0  0  0  0  0
   -8.3700   22.9310  -32.0160 O   0  0  0  0  0  0  0  0  0  0  0  0
   -6.4130   23.0180  -30.2140 N   0  0  0  0  0  0  0  0  0  0  0  0
   -5.0230   22.5860  -29.9560 C   0  0  0  0  0  0  0  0  0  0  0  0
   -3.9750   23.5760  -30.5210 C   0  0  0  0  0  0  0  0  0  0  0  0
   -4.5100   24.8480  -30.8360 O   0  0  0  0  0  0  0  0  0  0  0  0
   -5.3730   25.2790  -29.8100 C   0  0  0  0  0  0  0  0  0  0  0  0
   -6.6510   24.4180  -29.7810 C   0  0  0  0  0  0  0  0  0  0  0  0
   -5.2320   20.9040  -33.0860 C   0  0  0  0  0  0  0  0  0  0  0  0
   -2.2650   20.8260  -31.4240 C   0  0  0  0  0  0  0  0  0  0  0  0
   -1.8270   20.7700  -30.0980 C   0  0  0  0  0  0  0  0  0  0  0  0
   -2.9036   19.5262  -25.6370 H   0  0  0  0  0  0  0  0  0  0  0  0
   -3.6601   20.0991  -27.1622 H   0  0  0  0  0  0  0  0  0  0  0  0
   -2.6551   18.6103  -27.1622 H   0  0  0  0  0  0  0  0  0  0  0  0
    0.0494   21.7061  -25.3131 H   0  0  0  0  0  0  0  0  0  0  0  0
    0.0453   24.1495  -24.8159 H   0  0  0  0  0  0  0  0  0  0  0  0
   -3.2018   24.7157  -27.6248 H   0  0  0  0  0  0  0  0  0  0  0  0
   -3.2167   22.2692  -28.1043 H   0  0  0  0  0  0  0  0  0  0  0  0
    0.5202   18.3006  -30.3899 H   0  0  0  0  0  0  0  0  0  0  0  0
   -0.2591   18.3956  -32.7587 H   0  0  0  0  0  0  0  0  0  0  0  0
   -5.4668   17.5143  -33.4768 H   0  0  0  0  0  0  0  0  0  0  0  0
   -7.6928   17.9559  -32.4447 H   0  0  0  0  0  0  0  0  0  0  0  0
   -8.3159   20.2714  -31.7514 H   0  0  0  0  0  0  0  0  0  0  0  0
   -7.0470   22.4090  -29.6430 H   0  0  0  0  0  0  0  0  0  0  0  0
   -4.8768   22.5012  -28.8691 H   0  0  0  0  0  0  0  0  0  0  0  0
   -4.8755   21.6209  -30.4628 H   0  0  0  0  0  0  0  0  0  0  0  0
   -3.1816   23.7084  -29.7707 H   0  0  0  0  0  0  0  0  0  0  0  0
   -3.5956   23.1441  -31.4588 H   0  0  0  0  0  0  0  0  0  0  0  0
   -4.8565   25.1926  -28.8427 H   0  0  0  0  0  0  0  0  0  0  0  0
   -5.6539   26.3257  -29.9983 H   0  0  0  0  0  0  0  0  0  0  0  0
   -7.0431   24.4059  -28.7533 H   0  0  0  0  0  0  0  0  0  0  0  0
   -7.3669   24.8651  -30.4864 H   0  0  0  0  0  0  0  0  0  0  0  0
   -4.5577   21.7430  -33.3126 H   0  0  0  0  0  0  0  0  0  0  0  0
   -3.0284   21.5612  -31.7184 H   0  0  0  0  0  0  0  0  0  0  0  0
   -2.2645   21.4459  -29.3485 H   0  0  0  0  0  0  0  0  0  0  0  0
  1  2  1  0
  2  3  1  0
  3  4  2  0
  4  5  1  0
  5  6  2  0
  6  7  1  0
  7  8  3  0
  6  9  1  0
  9 10  2  0
  2 11  1  0
 11 12  2  0
 11 13  2  0
 11 14  1  0
 14 15  2  0
 15 16  1  0
 16 17  2  0
 17 18  1  0
 18 19  2  0
 18 20  1  0
 20 21  1  0
 21 22  2  0
 22 23  1  0
 23 24  2  0
 24 25  1  0
 25 26  1  0
 26 27  2  0
 26 28  2  0
 26 29  1  0
 29 30  1  0
 30 31  1  0
 31 32  1  0
 32 33  1  0
 33 34  1  0
 25 35  2  0
 17 36  1  0
 36 37  2  0
 10  3  1  0
 37 14  1  0
 35 21  1  0
 34 29  1  0
  1 38  1  0
  1 39  1  0
  1 40  1  0
  4 41  1  0
  5 42  1  0
  9 43  1  0
 10 44  1  0
 15 45  1  0
 16 46  1  0
 22 47  1  0
 23 48  1  0
 24 49  1  0
 29 50  1  0
 30 51  1  0
 30 52  1  0
 31 53  1  0
 31 54  1  0
 33 55  1  0
 33 56  1  0
 34 57  1  0
 34 58  1  0
 35 59  1  0
 36 60  1  0
 37 61  1  0
M  CHG  2  20  -1  29   1
M  END
>  <UniqueID>  (8) 
8

>  <SMILES>  (8) 
CN(c1ccc(C#N)cc1)S(=O)(=O)c1ccc(C(=O)[N-]c2cccc(S(=O)(=O)[NH+]3CCOCC3)c2)cc1

>  <Energy>  (8) 
86.60589135171568

>  <Genealogy>  (8) 
CN(c1ccc(C#N)cc1)S(=O)(=O)c1ccc(C(=O)[N-]c2cccc(S(=O)(=O)[NH+]3CCOCC3)c2)cc1 (protonated)
CN(c1ccc(C#N)cc1)S(=O)(=O)c1ccc(C(=O)[N-]c2cccc(S(=O)(=O)[NH+]3CCOCC3)c2)cc1 (3D coordinates assigned)
CN(c1ccc(C#N)cc1)S(=O)(=O)c1ccc(C(=O)[N-]c2cccc(S(=O)(=O)[NH+]3CCOCC3)c2)cc1 (nonaromatic ring conformer: 86.60589135171568 kcal/mol)

>  <smiles>  (8) 
CN(c1ccc(C#N)cc1)S(=O)(=O)c1ccc(C(=O)Nc2cccc(S(=O)(=O)N3CCOCC3)c2)cc1

>  <score_type>  (8) 
oracle

>  <origin>  (8) 
adgpu

>  <m_score__min__energy>  (8) 
-12.48

>  <m_primary>  (8) 
energy

$$$$
8:0
     RDKit          3D

 36 38  0  0  0  0  0  0  0  0999 V2000
    2.1460   19.7890  -32.7700 O   0  0  0  0  0  0  0  0  0  0  0  0
    1.1370   19.4650  -32.0870 C   0  0  0  0  0  0  0  0  0  0  0  0
    1.3060   18.7230  -30.8720 N   0  0  0  0  0  0  0  0  0  0  0  0
    0.6140   18.9380  -29.6360 C   0  0  0  0  0  0  0  0  0  0  0  0
    0.7940   18.2000  -28.4840 C   0  0  0  0  0  0  0  0  0  0  0  0
   -0.0520   18.6550  -27.5390 N   0  0  0  0  0  0  0  0  0  0  0  0
   -0.7480   19.6470  -28.0720 N   0  0  0  0  0  0  0  0  0  0  0  0
   -1.9850   20.5170  -27.2360 S   0  0  0  0  0  0  0  0  0  0  0  0
   -1.4810   20.9290  -25.8820 O   0  0  0  0  0  0  0  0  0  0  0  0
   -3.1850   19.6310  -27.0470 O   0  0  0  0  0  0  0  0  0  0  0  0
   -2.4380   21.9340  -28.1770 C   0  0  0  0  0  0  0  0  0  0  0  0
   -1.8610   23.1800  -27.9000 C   0  0  0  0  0  0  0  0  0  0  0  0
   -2.2060   24.3000  -28.6610 C   0  0  0  0  0  0  0  0  0  0  0  0
   -3.1250   24.1810  -29.7100 C   0  0  0  0  0  0  0  0  0  0  0  0
   -3.4620   25.3030  -30.4590 O   0  0  0  0  0  0  0  0  0  0  0  0
   -3.6980   22.9350  -29.9990 C   0  0  0  0  0  0  0  0  0  0  0  0
   -4.9510   22.7450  -31.4330 Br  0  0  0  0  0  0  0  0  0  0  0  0
   -3.3500   21.8140  -29.2360 C   0  0  0  0  0  0  0  0  0  0  0  0
   -0.3810   19.8510  -29.3500 C   0  0  0  0  0  0  0  0  0  0  0  0
   -0.2230   19.8300  -32.5690 C   0  0  0  0  0  0  0  0  0  0  0  0
   -0.4500   21.1280  -33.0740 C   0  0  0  0  0  0  0  0  0  0  0  0
   -1.7140   21.5050  -33.5350 C   0  0  0  0  0  0  0  0  0  0  0  0
   -2.7710   20.5980  -33.5000 C   0  0  0  0  0  0  0  0  0  0  0  0
   -2.5690   19.3110  -33.0030 C   0  0  0  0  0  0  0  0  0  0  0  0
   -1.3060   18.9170  -32.5340 C   0  0  0  0  0  0  0  0  0  0  0  0
   -1.1410   17.6270  -32.0310 O   0  0  0  0  0  0  0  0  0  0  0  0
    1.5108   17.3752  -28.3578 H   0  0  0  0  0  0  0  0  0  0  0  0
   -1.1337   23.2771  -27.0805 H   0  0  0  0  0  0  0  0  0  0  0  0
   -1.7544   25.2773  -28.4352 H   0  0  0  0  0  0  0  0  0  0  0  0
   -3.7938   20.8346  -29.4680 H   0  0  0  0  0  0  0  0  0  0  0  0
   -0.7955   20.6032  -30.0373 H   0  0  0  0  0  0  0  0  0  0  0  0
    0.3779   21.8516  -33.1051 H   0  0  0  0  0  0  0  0  0  0  0  0
   -1.8749   22.5203  -33.9265 H   0  0  0  0  0  0  0  0  0  0  0  0
   -3.7648   20.8972  -33.8644 H   0  0  0  0  0  0  0  0  0  0  0  0
   -3.4066   18.5983  -32.9782 H   0  0  0  0  0  0  0  0  0  0  0  0
   -0.3290   17.3670  -31.4830 H   0  0  0  0  0  0  0  0  0  0  0  0
  1  2  2  0
  2  3  1  0
  3  4  1  0
  4  5  1  0
  5  6  2  0
  6  7  1  0
  7  8  1  0
  8  9  2  0
  8 10  2  0
  8 11  1  0
 11 12  2  0
 12 13  1  0
 13 14  2  0
 14 15  1  0
 14 16  1  0
 16 17  1  0
 16 18  2  0
  7 19  1  0
  2 20  1  0
 20 21  2  0
 21 22  1  0
 22 23  2  0
 23 24  1  0
 24 25  2  0
 25 26  1  0
 19  4  2  0
 25 20  1  0
 18 11  1  0
  5 27  1  0
 12 28  1  0
 13 29  1  0
 18 30  1  0
 19 31  1  0
 21 32  1  0
 22 33  1  0
 23 34  1  0
 24 35  1  0
 26 36  1  0
M  CHG  2   3  -1  15  -1
M  END
>  <UniqueID>  (9) 
9

>  <SMILES>  (9) 
O=C([N-]c1cnn(S(=O)(=O)c2ccc([O-])c(Br)c2)c1)c1ccccc1O

>  <Energy>  (9) 
76.36071735882975

>  <Genealogy>  (9) 
O=C([N-]c1cnn(S(=O)(=O)c2ccc([O-])c(Br)c2)c1)c1ccccc1O (protonated)
O=C([N-]c1cnn(S(=O)(=O)c2ccc([O-])c(Br)c2)c1)c1ccccc1O (3D coordinates assigned)
O=C([N-]c1cnn(S(=O)(=O)c2ccc([O-])c(Br)c2)c1)c1ccccc1O (optimized conformer: 76.36071735882975 kcal/mol)

>  <smiles>  (9) 
O=C(Nc1cnn(S(=O)(=O)c2ccc(O)c(Br)c2)c1)c1ccccc1O

>  <score_type>  (9) 
oracle

>  <origin>  (9) 
adgpu

>  <m_score__min__energy>  (9) 
-11.550000000000001

>  <m_primary>  (9) 
energy

$$$$
9:0
     RDKit          3D

 37 39  0  0  0  0  0  0  0  0999 V2000
   -3.5540   24.9190  -27.8340 O   0  0  0  0  0  0  0  0  0  0  0  0
   -2.6350   24.6320  -28.9890 S   0  0  0  0  0  0  0  0  0  0  0  0
   -1.4890   25.6040  -28.9680 O   0  0  0  0  0  0  0  0  0  0  0  0
   -3.5280   24.8050  -30.4650 N   0  0  0  0  0  0  0  0  0  0  0  0
   -4.7120   24.0520  -30.7440 C   0  0  0  0  0  0  0  0  0  0  0  0
   -4.6080   22.9160  -31.5540 C   0  0  0  0  0  0  0  0  0  0  0  0
   -5.7450   22.1730  -31.9000 C   0  0  0  0  0  0  0  0  0  0  0  0
   -7.0060   22.5480  -31.3800 C   0  0  0  0  0  0  0  0  0  0  0  0
   -7.1030   23.6790  -30.5550 C   0  0  0  0  0  0  0  0  0  0  0  0
   -5.9650   24.4170  -30.2140 C   0  0  0  0  0  0  0  0  0  0  0  0
   -6.1090   25.4860  -29.3280 O   0  0  0  0  0  0  0  0  0  0  0  0
   -8.2700   21.8200  -31.7700 C   0  0  0  0  0  0  0  0  0  0  0  0
   -7.9980   20.4140  -32.3130 C   0  0  0  0  0  0  0  0  0  0  0  0
   -6.8900   20.4550  -33.3650 C   0  0  0  0  0  0  0  0  0  0  0  0
   -5.5750   20.9270  -32.7380 C   0  0  0  0  0  0  0  0  0  0  0  0
   -1.9950   22.9950  -28.8530 C   0  0  0  0  0  0  0  0  0  0  0  0
   -2.8560   21.9180  -28.5890 C   0  0  0  0  0  0  0  0  0  0  0  0
   -2.3490   20.6190  -28.4910 C   0  0  0  0  0  0  0  0  0  0  0  0
   -0.9810   20.3860  -28.6580 C   0  0  0  0  0  0  0  0  0  0  0  0
   -0.4910   19.1260  -28.5630 F   0  0  0  0  0  0  0  0  0  0  0  0
   -0.1190   21.4530  -28.9290 C   0  0  0  0  0  0  0  0  0  0  0  0
   -0.6220   22.7550  -29.0290 C   0  0  0  0  0  0  0  0  0  0  0  0
    0.2290   23.7760  -29.3020 F   0  0  0  0  0  0  0  0  0  0  0  0
   -3.6209   22.6018  -31.9242 H   0  0  0  0  0  0  0  0  0  0  0  0
   -8.0864   23.9890  -30.1717 H   0  0  0  0  0  0  0  0  0  0  0  0
   -5.3660   25.7840  -28.7090 H   0  0  0  0  0  0  0  0  0  0  0  0
   -8.9157   21.7361  -30.8834 H   0  0  0  0  0  0  0  0  0  0  0  0
   -8.7530   22.3983  -32.5714 H   0  0  0  0  0  0  0  0  0  0  0  0
   -7.6879   19.7593  -31.4852 H   0  0  0  0  0  0  0  0  0  0  0  0
   -8.9169   20.0265  -32.7771 H   0  0  0  0  0  0  0  0  0  0  0  0
   -6.7506   19.4475  -33.7839 H   0  0  0  0  0  0  0  0  0  0  0  0
   -7.1788   21.1585  -34.1598 H   0  0  0  0  0  0  0  0  0  0  0  0
   -5.1812   20.1233  -32.0984 H   0  0  0  0  0  0  0  0  0  0  0  0
   -4.8829   21.1689  -33.5580 H   0  0  0  0  0  0  0  0  0  0  0  0
   -3.9335   22.0970  -28.4588 H   0  0  0  0  0  0  0  0  0  0  0  0
   -3.0277   19.7789  -28.2821 H   0  0  0  0  0  0  0  0  0  0  0  0
    0.9570   21.2685  -29.0639 H   0  0  0  0  0  0  0  0  0  0  0  0
  1  2  2  0
  2  3  2  0
  2  4  1  0
  4  5  1  0
  5  6  2  0
  6  7  1  0
  7  8  2  0
  8  9  1  0
  9 10  2  0
 10 11  1  0
  8 12  1  0
 12 13  1  0
 13 14  1  0
 14 15  1  0
  2 16  1  0
 16 17  2  0
 17 18  1  0
 18 19  2  0
 19 20  1  0
 19 21  1  0
 21 22  2  0
 22 23  1  0
 10  5  1  0
 22 16  1  0
 15  7  1  0
  6 24  1  0
  9 25  1  0
 11 26  1  0
 12 27  1  0
 12 28  1  0
 13 29  1  0
 13 30  1  0
 14 31  1  0
 14 32  1  0
 15 33  1  0
 15 34  1  0
 17 35  1  0
 18 36  1  0
 21 37  1  0
M  CHG  1   4  -1
M  END
>  <UniqueID>  (10) 
10

>  <SMILES>  (10) 
O=S(=O)([N-]c1cc2c(cc1O)CCCC2)c1ccc(F)cc1F

>  <Energy>  (10) 
48.6923856782636

>  <Genealogy>  (10) 
O=S(=O)([N-]c1cc2c(cc1O)CCCC2)c1ccc(F)cc1F (protonated)
O=S(=O)([N-]c1cc2c(cc1O)CCCC2)c1ccc(F)cc1F (3D coordinates assigned)
O=S(=O)([N-]c1cc2c(cc1O)CCCC2)c1ccc(F)cc1F (nonaromatic ring conformer: 48.6923856782636 kcal/mol)

>  <smiles>  (10) 
O=S(=O)(Nc1cc2c(cc1O)CCCC2)c1ccc(F)cc1F

>  <score_type>  (10) 
oracle

>  <origin>  (10) 
adgpu

>  <m_score__min__energy>  (10) 
-9.8900000000000006

>  <m_primary>  (10) 
energy

$$$$
10:0
     RDKit          3D

 64 66  0  0  0  0  0  0  0  0999 V2000
   -0.1100   26.6750  -25.1340 C   0  0  0  0  0  0  0  0  0  0  0  0
    0.6390   26.7360  -26.3930 N   0  0  0  0  0  0  0  0  0  0  0  0
    1.5110   27.8730  -26.6960 C   0  0  0  0  0  0  0  0  0  0  0  0
    0.6260   25.6110  -27.2890 C   0  0  0  0  0  0  0  0  0  0  0  0
    1.6990   25.2460  -27.8430 O   0  0  0  0  0  0  0  0  0  0  0  0
   -0.6210   24.8710  -27.5860 C   0  0  0  0  0  0  0  0  0  0  0  0
   -0.8830   23.6700  -26.9090 C   0  0  0  0  0  0  0  0  0  0  0  0
   -2.0160   22.9180  -27.2230 C   0  0  0  0  0  0  0  0  0  0  0  0
   -2.8900   23.3490  -28.2210 C   0  0  0  0  0  0  0  0  0  0  0  0
   -2.6400   24.5480  -28.9130 C   0  0  0  0  0  0  0  0  0  0  0  0
   -3.4720   24.9920  -29.9540 O   0  0  0  0  0  0  0  0  0  0  0  0
   -4.6770   24.3930  -30.3520 C   0  0  0  0  0  0  0  0  0  0  0  0
   -5.9060   25.0400  -30.1710 C   0  0  0  0  0  0  0  0  0  0  0  0
   -7.0960   24.4260  -30.5620 C   0  0  0  0  0  0  0  0  0  0  0  0
   -7.0910   23.1420  -31.1540 C   0  0  0  0  0  0  0  0  0  0  0  0
   -8.3860   22.4050  -31.5580 C   0  0  0  0  0  0  0  0  0  0  0  0
   -9.3840   23.3070  -32.3250 C   0  0  0  0  0  0  0  0  0  0  0  0
   -8.0390   21.2090  -32.4730 C   0  0  0  0  0  0  0  0  0  0  0  0
   -9.0990   21.8920  -30.2890 C   0  0  0  0  0  0  0  0  0  0  0  0
   -5.8410   22.5180  -31.3600 C   0  0  0  0  0  0  0  0  0  0  0  0
   -4.6400   23.1460  -30.9930 C   0  0  0  0  0  0  0  0  0  0  0  0
   -3.3770   22.5000  -31.2220 N   0  0  0  0  0  0  0  0  0  0  0  0
   -3.1970   21.4340  -32.1630 C   0  0  0  0  0  0  0  0  0  0  0  0
   -4.1930   20.8610  -32.6820 O   0  0  0  0  0  0  0  0  0  0  0  0
   -1.8650   21.0190  -32.4970 N   0  0  0  0  0  0  0  0  0  0  0  0
   -0.8910   20.4380  -31.6160 C   0  0  0  0  0  0  0  0  0  0  0  0
   -0.1540   19.3380  -32.0690 C   0  0  0  0  0  0  0  0  0  0  0  0
    0.7610   18.6990  -31.2280 C   0  0  0  0  0  0  0  0  0  0  0  0
    0.9520   19.1550  -29.9090 C   0  0  0  0  0  0  0  0  0  0  0  0
    1.8550   18.5500  -29.0190 O   0  0  0  0  0  0  0  0  0  0  0  0
    1.5200   17.5460  -28.0610 C   0  0  0  0  0  0  0  0  0  0  0  0
    1.3870   16.3180  -28.6860 F   0  0  0  0  0  0  0  0  0  0  0  0
    0.3180   17.8760  -27.4690 F   0  0  0  0  0  0  0  0  0  0  0  0
    2.4960   17.4720  -27.0830 F   0  0  0  0  0  0  0  0  0  0  0  0
    0.2110   20.2520  -29.4560 C   0  0  0  0  0  0  0  0  0  0  0  0
   -0.7130   20.8830  -30.2930 C   0  0  0  0  0  0  0  0  0  0  0  0
   -1.4970   25.2980  -28.6010 C   0  0  0  0  0  0  0  0  0  0  0  0
   -1.2250   26.4530  -29.3270 O   0  0  0  0  0  0  0  0  0  0  0  0
    0.5903   26.7320  -24.2876 H   0  0  0  0  0  0  0  0  0  0  0  0
   -0.8140   27.5188  -25.0849 H   0  0  0  0  0  0  0  0  0  0  0  0
   -0.6682   25.7284  -25.0849 H   0  0  0  0  0  0  0  0  0  0  0  0
    1.8599   28.3279  -25.7572 H   0  0  0  0  0  0  0  0  0  0  0  0
    2.3767   27.5260  -27.2792 H   0  0  0  0  0  0  0  0  0  0  0  0
    0.9513   28.6191  -27.2792 H   0  0  0  0  0  0  0  0  0  0  0  0
   -0.1925   23.3199  -26.1276 H   0  0  0  0  0  0  0  0  0  0  0  0
   -2.2204   21.9824  -26.6817 H   0  0  0  0  0  0  0  0  0  0  0  0
   -3.7783   22.7490  -28.4679 H   0  0  0  0  0  0  0  0  0  0  0  0
   -5.9331   26.0413  -29.7164 H   0  0  0  0  0  0  0  0  0  0  0  0
   -8.0518   24.9482  -30.4076 H   0  0  0  0  0  0  0  0  0  0  0  0
  -10.0014   23.8650  -31.6057 H   0  0  0  0  0  0  0  0  0  0  0  0
   -8.8275   24.0147  -32.9571 H   0  0  0  0  0  0  0  0  0  0  0  0
  -10.0320   22.6820  -32.9571 H   0  0  0  0  0  0  0  0  0  0  0  0
   -7.7856   20.3355  -31.8544 H   0  0  0  0  0  0  0  0  0  0  0  0
   -8.9048   20.9698  -33.1080 H   0  0  0  0  0  0  0  0  0  0  0  0
   -7.1796   21.4704  -33.1080 H   0  0  0  0  0  0  0  0  0  0  0  0
   -8.5762   22.2682  -29.3973 H   0  0  0  0  0  0  0  0  0  0  0  0
  -10.1390   22.2502  -30.2826 H   0  0  0  0  0  0  0  0  0  0  0  0
   -9.0899   20.7921  -30.2826 H   0  0  0  0  0  0  0  0  0  0  0  0
   -5.8075   21.5184  -31.8179 H   0  0  0  0  0  0  0  0  0  0  0  0
   -2.5130   22.9540  -30.8440 H   0  0  0  0  0  0  0  0  0  0  0  0
   -0.2963   18.9729  -33.0968 H   0  0  0  0  0  0  0  0  0  0  0  0
    1.3346   17.8362  -31.5976 H   0  0  0  0  0  0  0  0  0  0  0  0
    0.3574   20.6215  -28.4303 H   0  0  0  0  0  0  0  0  0  0  0  0
   -1.3036   21.7310  -29.9162 H   0  0  0  0  0  0  0  0  0  0  0  0
  1  2  1  0
  2  3  1  0
  2  4  1  0
  4  5  2  0
  4  6  1  0
  6  7  2  0
  7  8  1  0
  8  9  2  0
  9 10  1  0
 10 11  1  0
 11 12  1  0
 12 13  2  0
 13 14  1  0
 14 15  2  0
 15 16  1  0
 16 17  1  0
 16 18  1  0
 16 19  1  0
 15 20  1  0
 20 21  2  0
 21 22  1  0
 22 23  1  0
 23 24  2  0
 23 25  1  0
 25 26  1  0
 26 27  2  0
 27 28  1  0
 28 29  2  0
 29 30  1  0
 30 31  1  0
 31 32  1  0
 31 33  1  0
 31 34  1  0
 29 35  1  0
 35 36  2  0
 10 37  2  0
 37 38  1  0
 37  6  1  0
 21 12  1  0
 36 26  1  0
  1 39  1  0
  1 40  1  0
  1 41  1  0
  3 42  1  0
  3 43  1  0
  3 44  1  0
  7 45  1  0
  8 46  1  0
  9 47  1  0
 13 48  1  0
 14 49  1  0
 17 50  1  0
 17 51  1  0
 17 52  1  0
 18 53  1  0
 18 54  1  0
 18 55  1  0
 19 56  1  0
 19 57  1  0
 19 58  1  0
 20 59  1  0
 22 60  1  0
 27 61  1  0
 28 62  1  0
 35 63  1  0
 36 64  1  0
M  CHG  2  25  -1  38  -1
M  END
>  <UniqueID>  (11) 
11

>  <SMILES>  (11) 
CN(C)C(=O)c1cccc(Oc2ccc(C(C)(C)C)cc2NC(=O)[N-]c2ccc(OC(F)(F)F)cc2)c1[O-]

>  <Energy>  (11) 
86.54130215512448

>  <Genealogy>  (11) 
CN(C)C(=O)c1cccc(Oc2ccc(C(C)(C)C)cc2NC(=O)[N-]c2ccc(OC(F)(F)F)cc2)c1[O-] (protonated)
CN(C)C(=O)c1cccc(Oc2ccc(C(C)(C)C)cc2NC(=O)[N-]c2ccc(OC(F)(F)F)cc2)c1[O-] (3D coordinates assigned)
CN(C)C(=O)c1cccc(Oc2ccc(C(C)(C)C)cc2NC(=O)[N-]c2ccc(OC(F)(F)F)cc2)c1[O-] (optimized conformer: 86.54130215512448 kcal/mol)

>  <smiles>  (11) 
CN(C)C(=O)c1cccc(Oc2ccc(C(C)(C)C)cc2NC(=O)Nc2ccc(OC(F)(F)F)cc2)c1O

>  <score_type>  (11) 
oracle

>  <origin>  (11) 
adgpu

>  <m_score__min__energy>  (11) 
-13.109999999999999

>  <m_primary>  (11) 
energy

$$$$
11:0
     RDKit          3D

 45 47  0  0  0  0  0  0  0  0999 V2000
   -5.7870   15.8240  -33.8930 C   0  0  0  0  0  0  0  0  0  0  0  0
   -4.4820   16.5460  -33.5560 C   0  0  0  0  0  0  0  0  0  0  0  0
   -4.7220   17.9360  -33.1080 N   0  0  0  0  0  0  0  0  0  0  0  0
   -5.7650   18.5670  -33.9450 C   0  0  0  0  0  0  0  0  0  0  0  0
   -6.9010   19.0790  -33.0990 C   0  0  0  0  0  0  0  0  0  0  0  0
   -7.2050   20.4510  -33.0650 C   0  0  0  0  0  0  0  0  0  0  0  0
   -8.2780   20.9160  -32.2980 C   0  0  0  0  0  0  0  0  0  0  0  0
   -9.0600   20.0170  -31.5670 C   0  0  0  0  0  0  0  0  0  0  0  0
   -8.7660   18.6520  -31.5980 C   0  0  0  0  0  0  0  0  0  0  0  0
   -7.6950   18.1820  -32.3650 C   0  0  0  0  0  0  0  0  0  0  0  0
   -3.2440   18.8880  -33.1580 S   0  0  0  0  0  0  0  0  0  0  0  0
   -2.1170   18.1110  -32.5330 O   0  0  0  0  0  0  0  0  0  0  0  0
   -2.8590   19.1590  -34.5850 O   0  0  0  0  0  0  0  0  0  0  0  0
   -3.4130   20.4220  -32.3020 C   0  0  0  0  0  0  0  0  0  0  0  0
   -2.7970   20.6070  -31.0570 C   0  0  0  0  0  0  0  0  0  0  0  0
   -2.9220   21.8240  -30.3810 C   0  0  0  0  0  0  0  0  0  0  0  0
   -3.6690   22.8780  -30.9390 C   0  0  0  0  0  0  0  0  0  0  0  0
   -3.8050   24.1690  -30.2240 C   0  0  0  0  0  0  0  0  0  0  0  0
   -4.1730   25.1970  -30.8560 O   0  0  0  0  0  0  0  0  0  0  0  0
   -3.5070   24.2440  -28.8200 N   0  0  0  0  0  0  0  0  0  0  0  0
   -2.5340   24.9130  -28.2760 C   0  0  0  0  0  0  0  0  0  0  0  0
   -1.6520   25.6740  -28.9620 N   0  0  0  0  0  0  0  0  0  0  0  0
   -0.7490   26.2580  -28.1310 C   0  0  0  0  0  0  0  0  0  0  0  0
   -0.9150   25.9670  -26.7810 C   0  0  0  0  0  0  0  0  0  0  0  0
   -2.2380   24.9370  -26.6260 S   0  0  0  0  0  0  0  0  0  0  0  0
   -4.2840   22.6860  -32.1910 C   0  0  0  0  0  0  0  0  0  0  0  0
   -4.1510   21.4700  -32.8670 C   0  0  0  0  0  0  0  0  0  0  0  0
   -6.3000   15.5402  -32.9622 H   0  0  0  0  0  0  0  0  0  0  0  0
   -6.4347   16.4921  -34.4796 H   0  0  0  0  0  0  0  0  0  0  0  0
   -5.5651   14.9203  -34.4796 H   0  0  0  0  0  0  0  0  0  0  0  0
   -3.9685   15.9969  -32.7530 H   0  0  0  0  0  0  0  0  0  0  0  0
   -3.8665   16.5821  -34.4669 H   0  0  0  0  0  0  0  0  0  0  0  0
   -5.3217   19.4078  -34.4986 H   0  0  0  0  0  0  0  0  0  0  0  0
   -6.1596   17.8119  -34.6408 H   0  0  0  0  0  0  0  0  0  0  0  0
   -6.5967   21.1615  -33.6438 H   0  0  0  0  0  0  0  0  0  0  0  0
   -8.5071   21.9915  -32.2699 H   0  0  0  0  0  0  0  0  0  0  0  0
   -9.9062   20.3843  -30.9679 H   0  0  0  0  0  0  0  0  0  0  0  0
   -9.3778   17.9453  -31.0182 H   0  0  0  0  0  0  0  0  0  0  0  0
   -7.4733   17.1050  -32.3937 H   0  0  0  0  0  0  0  0  0  0  0  0
   -2.2120   19.7901  -30.6093 H   0  0  0  0  0  0  0  0  0  0  0  0
   -2.4326   21.9589  -29.4051 H   0  0  0  0  0  0  0  0  0  0  0  0
    0.0544   26.9130  -28.4991 H   0  0  0  0  0  0  0  0  0  0  0  0
   -0.2905   26.3442  -25.9577 H   0  0  0  0  0  0  0  0  0  0  0  0
   -4.8734   23.4989  -32.6403 H   0  0  0  0  0  0  0  0  0  0  0  0
   -4.6287   21.3351  -33.8486 H   0  0  0  0  0  0  0  0  0  0  0  0
  1  2  1  0
  2  3  1  0
  3  4  1  0
  4  5  1  0
  5  6  2  0
  6  7  1  0
  7  8  2  0
  8  9  1  0
  9 10  2  0
  3 11  1  0
 11 12  2  0
 11 13  2  0
 11 14  1  0
 14 15  2  0
 15 16  1  0
 16 17  2  0
 17 18  1  0
 18 19  2  0
 18 20  1  0
 20 21  2  3
 21 22  1  0
 22 23  1  0
 23 24  2  0
 24 25  1  0
 17 26  1  0
 26 27  2  0
 10  5  1  0
 27 14  1  0
 25 21  1  0
  1 28  1  0
  1 29  1  0
  1 30  1  0
  2 31  1  0
  2 32  1  0
  4 33  1  0
  4 34  1  0
  6 35  1  0
  7 36  1  0
  8 37  1  0
  9 38  1  0
 10 39  1  0
 15 40  1  0
 16 41  1  0
 23 42  1  0
 24 43  1  0
 26 44  1  0
 27 45  1  0
M  CHG  1  22  -1
M  END
>  <UniqueID>  (12) 
12

>  <SMILES>  (12) 
CCN(Cc1ccccc1)S(=O)(=O)c1ccc(C(=O)N=c2[n-]ccs2)cc1

>  <Energy>  (12) 
79.44266475924096

>  <Genealogy>  (12) 
CCN(Cc1ccccc1)S(=O)(=O)c1ccc(C(=O)N=c2[n-]ccs2)cc1 (protonated)
CCN(Cc1ccccc1)S(=O)(=O)c1ccc(C(=O)N=c2[n-]ccs2)cc1 (3D coordinates assigned)
CCN(Cc1ccccc1)S(=O)(=O)c1ccc(C(=O)N=c2[n-]ccs2)cc1 (optimized conformer: 79.44266475924096 kcal/mol)

>  <smiles>  (12) 
CCN(Cc1ccccc1)S(=O)(=O)c1ccc(C(=O)N=c2[nH]ccs2)cc1

>  <score_type>  (12) 
oracle

>  <origin>  (12) 
adgpu

>  <m_score__min__energy>  (12) 
-10.970000000000001

>  <m_primary>  (12) 
energy

$$$$
12:0
     RDKit          3D

 39 40  0  0  0  0  0  0  0  0999 V2000
   -6.5640   17.6630  -31.1950 C   0  0  0  0  0  0  0  0  0  0  0  0
   -5.9380   17.9920  -32.4820 N   0  0  0  0  0  0  0  0  0  0  0  0
   -5.9730   16.8260  -33.3740 C   0  0  0  0  0  0  0  0  0  0  0  0
   -6.7790   19.3320  -33.2240 S   0  0  0  0  0  0  0  0  0  0  0  0
   -6.4380   19.3840  -34.6880 O   0  0  0  0  0  0  0  0  0  0  0  0
   -8.2630   19.1210  -33.1010 O   0  0  0  0  0  0  0  0  0  0  0  0
   -6.3450   20.8680  -32.4710 C   0  0  0  0  0  0  0  0  0  0  0  0
   -5.0860   21.4390  -32.7050 C   0  0  0  0  0  0  0  0  0  0  0  0
   -4.7360   22.6460  -32.0950 C   0  0  0  0  0  0  0  0  0  0  0  0
   -5.6440   23.2960  -31.2480 C   0  0  0  0  0  0  0  0  0  0  0  0
   -5.2070   24.8010  -30.4410 S   0  0  0  0  0  0  0  0  0  0  0  0
   -5.8060   24.8060  -29.0630 O   0  0  0  0  0  0  0  0  0  0  0  0
   -5.7410   25.9810  -31.2050 O   0  0  0  0  0  0  0  0  0  0  0  0
   -3.4790   24.9210  -30.3150 N   0  0  0  0  0  0  0  0  0  0  0  0
   -2.9630   23.8150  -29.5140 C   0  0  0  0  0  0  0  0  0  0  0  0
   -1.9900   24.3500  -28.5040 C   0  0  0  0  0  0  0  0  0  0  0  0
   -2.4440   24.8600  -27.2790 C   0  0  0  0  0  0  0  0  0  0  0  0
   -1.5320   25.3880  -26.3620 C   0  0  0  0  0  0  0  0  0  0  0  0
   -0.1740   25.4100  -26.6840 C   0  0  0  0  0  0  0  0  0  0  0  0
    0.2500   24.9270  -27.8830 N   0  0  0  0  0  0  0  0  0  0  0  0
   -0.6190   24.4080  -28.7920 C   0  0  0  0  0  0  0  0  0  0  0  0
   -6.9010   22.7270  -31.0140 C   0  0  0  0  0  0  0  0  0  0  0  0
   -7.2520   21.5190  -31.6240 C   0  0  0  0  0  0  0  0  0  0  0  0
   -5.9157   18.0037  -30.3742 H   0  0  0  0  0  0  0  0  0  0  0  0
   -7.5404   18.1645  -31.1234 H   0  0  0  0  0  0  0  0  0  0  0  0
   -6.7048   16.5744  -31.1234 H   0  0  0  0  0  0  0  0  0  0  0  0
   -6.0006   15.9052  -32.7729 H   0  0  0  0  0  0  0  0  0  0  0  0
   -6.8700   16.8766  -34.0086 H   0  0  0  0  0  0  0  0  0  0  0  0
   -5.0745   16.8228  -34.0086 H   0  0  0  0  0  0  0  0  0  0  0  0
   -4.3710   20.9345  -33.3716 H   0  0  0  0  0  0  0  0  0  0  0  0
   -3.7455   23.0873  -32.2798 H   0  0  0  0  0  0  0  0  0  0  0  0
   -3.7952   23.3166  -28.9953 H   0  0  0  0  0  0  0  0  0  0  0  0
   -2.4563   23.0898  -30.1677 H   0  0  0  0  0  0  0  0  0  0  0  0
   -3.5177   24.8443  -27.0404 H   0  0  0  0  0  0  0  0  0  0  0  0
   -1.8805   25.7824  -25.3961 H   0  0  0  0  0  0  0  0  0  0  0  0
    0.5540   25.8183  -25.9676 H   0  0  0  0  0  0  0  0  0  0  0  0
   -0.2449   24.0327  -29.7559 H   0  0  0  0  0  0  0  0  0  0  0  0
   -7.6156   23.2322  -30.3476 H   0  0  0  0  0  0  0  0  0  0  0  0
   -8.2427   21.0784  -31.4386 H   0  0  0  0  0  0  0  0  0  0  0  0
  1  2  1  0
  2  3  1  0
  2  4  1  0
  4  5  2  0
  4  6  2  0
  4  7  1  0
  7  8  2  0
  8  9  1  0
  9 10  2  0
 10 11  1  0
 11 12  2  0
 11 13  2  0
 11 14  1  0
 14 15  1  0
 15 16  1  0
 16 17  2  0
 17 18  1  0
 18 19  2  0
 19 20  1  0
 20 21  2  0
 10 22  1  0
 22 23  2  0
 23  7  1  0
 21 16  1  0
  1 24  1  0
  1 25  1  0
  1 26  1  0
  3 27  1  0
  3 28  1  0
  3 29  1  0
  8 30  1  0
  9 31  1  0
 15 32  1  0
 15 33  1  0
 17 34  1  0
 18 35  1  0
 19 36  1  0
 21 37  1  0
 22 38  1  0
 23 39  1  0
M  CHG  1  14  -1
M  END
>  <UniqueID>  (13) 
13

>  <SMILES>  (13) 
CN(C)S(=O)(=O)c1ccc(S(=O)(=O)[N-]Cc2cccnc2)cc1

>  <Energy>  (13) 
34.93985054267995

>  <Genealogy>  (13) 
CN(C)S(=O)(=O)c1ccc(S(=O)(=O)[N-]Cc2cccnc2)cc1 (protonated)
CN(C)S(=O)(=O)c1ccc(S(=O)(=O)[N-]Cc2cccnc2)cc1 (3D coordinates assigned)
CN(C)S(=O)(=O)c1ccc(S(=O)(=O)[N-]Cc2cccnc2)cc1 (optimized conformer: 34.93985054267995 kcal/mol)

>  <smiles>  (13) 
CN(C)S(=O)(=O)c1ccc(S(=O)(=O)NCc2cccnc2)cc1

>  <score_type>  (13) 
oracle

>  <origin>  (13) 
adgpu

>  <m_score__min__energy>  (13) 
-9.9800000000000004

>  <m_primary>  (13) 
energy

$$$$
13:0
     RDKit          3D

 46 48  0  0  0  0  0  0  0  0999 V2000
   -8.4600   18.5460  -31.0110 O   0  0  0  0  0  0  0  0  0  0  0  0
   -7.9750   19.2450  -31.9420 C   0  0  0  0  0  0  0  0  0  0  0  0
   -7.4550   18.5980  -33.1150 N   0  0  0  0  0  0  0  0  0  0  0  0
   -7.2260   17.1570  -33.1740 C   0  0  0  0  0  0  0  0  0  0  0  0
   -5.7870   16.8730  -33.5130 C   0  0  0  0  0  0  0  0  0  0  0  0
   -5.1660   17.5580  -34.5680 C   0  0  0  0  0  0  0  0  0  0  0  0
   -3.8230   17.3040  -34.8570 C   0  0  0  0  0  0  0  0  0  0  0  0
   -3.1250   16.4030  -34.1160 N   0  0  0  0  0  0  0  0  0  0  0  0
   -3.7000   15.7300  -33.0850 C   0  0  0  0  0  0  0  0  0  0  0  0
   -5.0420   15.9530  -32.7620 C   0  0  0  0  0  0  0  0  0  0  0  0
   -7.9610   20.7220  -31.8110 C   0  0  0  0  0  0  0  0  0  0  0  0
   -9.1140   21.4840  -32.0770 C   0  0  0  0  0  0  0  0  0  0  0  0
   -9.0850   22.8760  -31.9600 C   0  0  0  0  0  0  0  0  0  0  0  0
   -7.9080   23.5240  -31.5830 C   0  0  0  0  0  0  0  0  0  0  0  0
   -6.7490   22.7840  -31.3240 C   0  0  0  0  0  0  0  0  0  0  0  0
   -5.2720   23.6200  -30.8510 S   0  0  0  0  0  0  0  0  0  0  0  0
   -5.3320   25.0610  -31.2760 O   0  0  0  0  0  0  0  0  0  0  0  0
   -5.1420   23.5540  -29.3550 O   0  0  0  0  0  0  0  0  0  0  0  0
   -3.9000   22.8460  -31.6060 N   0  0  0  0  0  0  0  0  0  0  0  0
   -3.2590   21.8750  -30.6830 C   0  0  0  0  0  0  0  0  0  0  0  0
   -3.6250   20.4170  -30.9950 C   0  0  0  0  0  0  0  0  0  0  0  0
   -3.2260   20.0390  -32.4320 C   0  0  0  0  0  0  0  0  0  0  0  0
   -3.2980   21.2310  -33.4030 C   0  0  0  0  0  0  0  0  0  0  0  0
   -4.3020   22.2800  -32.9140 C   0  0  0  0  0  0  0  0  0  0  0  0
   -6.7750   21.3860  -31.4440 C   0  0  0  0  0  0  0  0  0  0  0  0
   -7.2740   19.1570  -33.9790 H   0  0  0  0  0  0  0  0  0  0  0  0
   -7.4641   16.7109  -32.1971 H   0  0  0  0  0  0  0  0  0  0  0  0
   -7.8707   16.7226  -33.9522 H   0  0  0  0  0  0  0  0  0  0  0  0
   -5.7322   18.2896  -35.1632 H   0  0  0  0  0  0  0  0  0  0  0  0
   -3.3297   17.8338  -35.6852 H   0  0  0  0  0  0  0  0  0  0  0  0
   -3.1083   15.0080  -32.5031 H   0  0  0  0  0  0  0  0  0  0  0  0
   -5.5090   15.4115  -31.9262 H   0  0  0  0  0  0  0  0  0  0  0  0
  -10.0441   20.9803  -32.3790 H   0  0  0  0  0  0  0  0  0  0  0  0
   -9.9925   23.4627  -32.1656 H   0  0  0  0  0  0  0  0  0  0  0  0
   -7.8913   24.6199  -31.4891 H   0  0  0  0  0  0  0  0  0  0  0  0
   -2.1674   21.9863  -30.7604 H   0  0  0  0  0  0  0  0  0  0  0  0
   -3.6242   22.0955  -29.6691 H   0  0  0  0  0  0  0  0  0  0  0  0
   -3.0984   19.7562  -30.2907 H   0  0  0  0  0  0  0  0  0  0  0  0
   -4.7143   20.3018  -30.8940 H   0  0  0  0  0  0  0  0  0  0  0  0
   -2.1949   19.6559  -32.4214 H   0  0  0  0  0  0  0  0  0  0  0  0
   -3.9393   19.2798  -32.7854 H   0  0  0  0  0  0  0  0  0  0  0  0
   -2.3029   21.6937  -33.4785 H   0  0  0  0  0  0  0  0  0  0  0  0
   -3.6281   20.8623  -34.3854 H   0  0  0  0  0  0  0  0  0  0  0  0
   -4.3587   23.0927  -33.6531 H   0  0  0  0  0  0  0  0  0  0  0  0
   -5.2805   21.7921  -32.7935 H   0  0  0  0  0  0  0  0  0  0  0  0
   -5.8617   20.8045  -31.2498 H   0  0  0  0  0  0  0  0  0  0  0  0
  1  2  2  0
  2  3  1  0
  3  4  1  0
  4  5  1  0
  5  6  2  0
  6  7  1  0
  7  8  2  0
  8  9  1  0
  9 10  2  0
  2 11  1  0
 11 12  2  0
 12 13  1  0
 13 14  2  0
 14 15  1  0
 15 16  1  0
 16 17  2  0
 16 18  2  0
 16 19  1  0
 19 20  1  0
 20 21  1  0
 21 22  1  0
 22 23  1  0
 23 24  1  0
 15 25  2  0
 10  5  1  0
 25 11  1  0
 24 19  1  0
  3 26  1  0
  4 27  1  0
  4 28  1  0
  6 29  1  0
  7 30  1  0
  9 31  1  0
 10 32  1  0
 12 33  1  0
 13 34  1  0
 14 35  1  0
 20 36  1  0
 20 37  1  0
 21 38  1  0
 21 39  1  0
 22 40  1  0
 22 41  1  0
 23 42  1  0
 23 43  1  0
 24 44  1  0
 24 45  1  0
 25 46  1  0
M  END
>  <UniqueID>  (14) 
14

>  <SMILES>  (14) 
O=C(NCc1ccncc1)c1cccc(S(=O)(=O)N2CCCCC2)c1

>  <Energy>  (14) 
53.10328013743275

>  <Genealogy>  (14) 
O=C(NCc1ccncc1)c1cccc(S(=O)(=O)N2CCCCC2)c1 (3D coordinates assigned)
O=C(NCc1ccncc1)c1cccc(S(=O)(=O)N2CCCCC2)c1 (nonaromatic ring conformer: 53.10328013743275 kcal/mol)

>  <smiles>  (14) 
O=C(NCc1ccncc1)c1cccc(S(=O)(=O)N2CCCCC2)c1

>  <score_type>  (14) 
oracle

>  <origin>  (14) 
adgpu

>  <m_score__min__energy>  (14) 
-9.0700000000000003

>  <m_primary>  (14) 
energy

$$$$
14:0
     RDKit          3D

 36 38  0  0  0  0  0  0  0  0999 V2000
   -3.5970   20.6690  -29.6910 H   0  0  0  0  0  0  0  0  0  0  0  0
   -3.2560   21.0670  -28.8260 O   0  0  0  0  0  0  0  0  0  0  0  0
   -2.5130   22.2460  -28.7990 C   0  0  0  0  0  0  0  0  0  0  0  0
   -1.1930   22.3210  -28.4010 C   0  0  0  0  0  0  0  0  0  0  0  0
   -0.5690   21.4959  -28.0271 H   0  0  0  0  0  0  0  0  0  0  0  0
   -0.8120   23.6390  -28.5660 C   0  0  0  0  0  0  0  0  0  0  0  0
    0.1759   24.0736  -28.3534 H   0  0  0  0  0  0  0  0  0  0  0  0
   -1.9230   24.3000  -29.0520 C   0  0  0  0  0  0  0  0  0  0  0  0
   -1.9730   25.6590  -29.3360 O   0  0  0  0  0  0  0  0  0  0  0  0
   -2.9660   23.4570  -29.1930 N   0  0  0  0  0  0  0  0  0  0  0  0
   -4.2860   23.8020  -29.6420 C   0  0  0  0  0  0  0  0  0  0  0  0
   -4.9510   24.9090  -29.0950 C   0  0  0  0  0  0  0  0  0  0  0  0
   -4.4555   25.5212  -28.3271 H   0  0  0  0  0  0  0  0  0  0  0  0
   -6.2390   25.2370  -29.5210 C   0  0  0  0  0  0  0  0  0  0  0  0
   -6.7528   26.1099  -29.0919 H   0  0  0  0  0  0  0  0  0  0  0  0
   -6.8780   24.4600  -30.4910 C   0  0  0  0  0  0  0  0  0  0  0  0
   -7.8928   24.7257  -30.8220 H   0  0  0  0  0  0  0  0  0  0  0  0
   -6.2330   23.3410  -31.0470 C   0  0  0  0  0  0  0  0  0  0  0  0
   -6.9130   22.5110  -32.0700 C   0  0  0  0  0  0  0  0  0  0  0  0
   -8.1180   22.7430  -32.3600 O   0  0  0  0  0  0  0  0  0  0  0  0
   -6.1700   21.5100  -32.7880 N   0  0  0  0  0  0  0  0  0  0  0  0
   -6.4390   20.2440  -32.9530 C   0  0  0  0  0  0  0  0  0  0  0  0
   -5.6210   19.5160  -33.7630 N   0  0  0  0  0  0  0  0  0  0  0  0
   -5.8100   18.1880  -33.9950 C   0  0  0  0  0  0  0  0  0  0  0  0
   -4.8720   17.4490  -34.8970 C   0  0  0  0  0  0  0  0  0  0  0  0
   -4.1512   16.8811  -34.2905 H   0  0  0  0  0  0  0  0  0  0  0  0
   -5.4435   16.7559  -35.5318 H   0  0  0  0  0  0  0  0  0  0  0  0
   -4.3319   18.1669  -35.5318 H   0  0  0  0  0  0  0  0  0  0  0  0
   -6.8710   17.5200  -33.3770 C   0  0  0  0  0  0  0  0  0  0  0  0
   -7.0359   16.4481  -33.5606 H   0  0  0  0  0  0  0  0  0  0  0  0
   -7.7180   18.2280  -32.5250 C   0  0  0  0  0  0  0  0  0  0  0  0
   -8.5528   17.7124  -32.0277 H   0  0  0  0  0  0  0  0  0  0  0  0
   -7.5080   19.5910  -32.3020 C   0  0  0  0  0  0  0  0  0  0  0  0
   -8.1700   20.1507  -31.6249 H   0  0  0  0  0  0  0  0  0  0  0  0
   -4.9350   23.0160  -30.6090 C   0  0  0  0  0  0  0  0  0  0  0  0
   -4.4234   22.1372  -31.0284 H   0  0  0  0  0  0  0  0  0  0  0  0
  1  2  1  0
  2  3  1  0
  3  4  2  0
  4  5  1  0
  4  6  1  0
  6  7  1  0
  6  8  2  0
  8  9  1  0
  8 10  1  0
 10 11  1  0
 11 12  2  0
 12 13  1  0
 12 14  1  0
 14 15  1  0
 14 16  2  0
 16 17  1  0
 16 18  1  0
 18 19  1  0
 19 20  2  0
 19 21  1  0
 21 22  2  0
 22 23  1  0
 23 24  1  0
 24 25  1  0
 25 26  1  0
 25 27  1  0
 25 28  1  0
 24 29  2  0
 29 30  1  0
 29 31  1  0
 31 32  1  0
 31 33  2  0
 33 34  1  0
 18 35  2  0
 35 36  1  0
 10  3  1  0
 35 11  1  0
 33 22  1  0
M  CHG  2   9  -1  23  -1
M  END
>  <UniqueID>  (15) 
15

>  <SMILES>  (15) 
Cc1ccc/c(=N\C(=O)c2cccc(-n3c([O-])ccc3O)c2)[n-]1

>  <Energy>  (15) 
79.8833311642894

>  <Genealogy>  (15) 
Cc1cccc(=NC(=O)c2cccc(-n3c([O-])ccc3O)c2)[n-]1 (protonated)
Cc1ccc/c(=N\C(=O)c2cccc(-n3c([O-])ccc3O)c2)[n-]1 (cis-trans isomerization)
Cc1ccc/c(=N\C(=O)c2cccc(-n3c([O-])ccc3O)c2)[n-]1 (3D coordinates assigned)
Cc1ccc/c(=N\C(=O)c2cccc(-n3c([O-])ccc3O)c2)[n-]1 (optimized conformer: 79.8833311642894 kcal/mol)

>  <smiles>  (15) 
Cc1cccc(=NC(=O)c2cccc(-n3c(O)ccc3O)c2)[nH]1

>  <score_type>  (15) 
oracle

>  <origin>  (15) 
adgpu

>  <m_score__min__energy>  (15) 
-10.460000000000001

>  <m_primary>  (15) 
energy

$$$$
15:0
     RDKit          3D

 54 57  0  0  0  0  0  0  0  0999 V2000
    0.5180   19.2230  -28.1680 C   0  0  0  0  0  0  0  0  0  0  0  0
    0.0650   19.5570  -29.5580 C   0  0  0  0  0  0  0  0  0  0  0  0
   -0.1460   20.8930  -29.9320 C   0  0  0  0  0  0  0  0  0  0  0  0
   -0.6050   21.2000  -31.2150 C   0  0  0  0  0  0  0  0  0  0  0  0
   -0.8700   20.1770  -32.1340 C   0  0  0  0  0  0  0  0  0  0  0  0
   -1.3890   20.5810  -33.7700 S   0  0  0  0  0  0  0  0  0  0  0  0
   -0.7020   21.8390  -34.2220 O   0  0  0  0  0  0  0  0  0  0  0  0
   -1.0200   19.4610  -34.7030 O   0  0  0  0  0  0  0  0  0  0  0  0
   -3.1020   20.8180  -33.8050 N   0  0  0  0  0  0  0  0  0  0  0  0
   -3.9950   19.7910  -33.3750 C   0  0  0  0  0  0  0  0  0  0  0  0
   -4.4530   18.8390  -34.2950 C   0  0  0  0  0  0  0  0  0  0  0  0
   -5.3650   17.8590  -33.8970 C   0  0  0  0  0  0  0  0  0  0  0  0
   -5.8270   17.8270  -32.5800 C   0  0  0  0  0  0  0  0  0  0  0  0
   -5.3720   18.7730  -31.6560 C   0  0  0  0  0  0  0  0  0  0  0  0
   -4.4490   19.7520  -32.0440 C   0  0  0  0  0  0  0  0  0  0  0  0
   -3.9050   20.9800  -30.8480 S   0  0  0  0  0  0  0  0  0  0  0  0
   -5.2830   22.0880  -31.1960 C   0  0  0  0  0  0  0  0  0  0  0  0
   -6.4800   21.5160  -31.6520 C   0  0  0  0  0  0  0  0  0  0  0  0
   -7.5620   22.3230  -32.0070 C   0  0  0  0  0  0  0  0  0  0  0  0
   -7.4590   23.7100  -31.9060 C   0  0  0  0  0  0  0  0  0  0  0  0
   -6.2810   24.2930  -31.4370 C   0  0  0  0  0  0  0  0  0  0  0  0
   -5.1820   23.4970  -31.0620 C   0  0  0  0  0  0  0  0  0  0  0  0
   -3.9680   24.1630  -30.5330 C   0  0  0  0  0  0  0  0  0  0  0  0
   -3.8860   25.4210  -30.5270 O   0  0  0  0  0  0  0  0  0  0  0  0
   -2.8530   23.3690  -30.1090 N   0  0  0  0  0  0  0  0  0  0  0  0
   -2.2470   23.3600  -28.8070 C   0  0  0  0  0  0  0  0  0  0  0  0
   -2.2270   22.2030  -28.0040 C   0  0  0  0  0  0  0  0  0  0  0  0
   -1.6070   22.2250  -26.7510 C   0  0  0  0  0  0  0  0  0  0  0  0
   -0.9980   23.3950  -26.2910 C   0  0  0  0  0  0  0  0  0  0  0  0
   -0.9950   24.5410  -27.0890 C   0  0  0  0  0  0  0  0  0  0  0  0
   -1.6100   24.5250  -28.3490 C   0  0  0  0  0  0  0  0  0  0  0  0
   -1.6000   25.6680  -29.1490 O   0  0  0  0  0  0  0  0  0  0  0  0
   -0.6710   18.8420  -31.7600 C   0  0  0  0  0  0  0  0  0  0  0  0
   -0.2160   18.5320  -30.4750 C   0  0  0  0  0  0  0  0  0  0  0  0
   -0.1450   19.7118  -27.4389 H   0  0  0  0  0  0  0  0  0  0  0  0
    0.4826   18.1332  -28.0227 H   0  0  0  0  0  0  0  0  0  0  0  0
    1.5486   19.5790  -28.0227 H   0  0  0  0  0  0  0  0  0  0  0  0
    0.0508   21.7013  -29.2123 H   0  0  0  0  0  0  0  0  0  0  0  0
   -0.7590   22.2499  -31.5048 H   0  0  0  0  0  0  0  0  0  0  0  0
   -4.0932   18.8634  -35.3342 H   0  0  0  0  0  0  0  0  0  0  0  0
   -5.7196   17.1116  -34.6220 H   0  0  0  0  0  0  0  0  0  0  0  0
   -6.5490   17.0576  -32.2690 H   0  0  0  0  0  0  0  0  0  0  0  0
   -5.7407   18.7480  -30.6200 H   0  0  0  0  0  0  0  0  0  0  0  0
   -6.5666   20.4222  -31.7304 H   0  0  0  0  0  0  0  0  0  0  0  0
   -8.4955   21.8652  -32.3662 H   0  0  0  0  0  0  0  0  0  0  0  0
   -8.3082   24.3460  -32.1966 H   0  0  0  0  0  0  0  0  0  0  0  0
   -6.2103   25.3880  -31.3594 H   0  0  0  0  0  0  0  0  0  0  0  0
   -2.7012   21.2781  -28.3642 H   0  0  0  0  0  0  0  0  0  0  0  0
   -1.5988   21.3195  -26.1264 H   0  0  0  0  0  0  0  0  0  0  0  0
   -0.5208   23.4136  -25.3001 H   0  0  0  0  0  0  0  0  0  0  0  0
   -0.5086   25.4592  -26.7280 H   0  0  0  0  0  0  0  0  0  0  0  0
   -2.0140   25.6730  -30.0740 H   0  0  0  0  0  0  0  0  0  0  0  0
   -0.8733   18.0350  -32.4796 H   0  0  0  0  0  0  0  0  0  0  0  0
   -0.0777   17.4810  -30.1814 H   0  0  0  0  0  0  0  0  0  0  0  0
  1  2  1  0
  2  3  2  0
  3  4  1  0
  4  5  2  0
  5  6  1  0
  6  7  2  0
  6  8  2  0
  6  9  1  0
  9 10  1  0
 10 11  2  0
 11 12  1  0
 12 13  2  0
 13 14  1  0
 14 15  2  0
 15 16  1  0
 16 17  1  0
 17 18  2  0
 18 19  1  0
 19 20  2  0
 20 21  1  0
 21 22  2  0
 22 23  1  0
 23 24  2  0
 23 25  1  0
 25 26  1  0
 26 27  2  0
 27 28  1  0
 28 29  2  0
 29 30  1  0
 30 31  2  0
 31 32  1  0
  5 33  1  0
 33 34  2  0
 34  2  1  0
 15 10  1  0
 22 17  1  0
 31 26  1  0
  1 35  1  0
  1 36  1  0
  1 37  1  0
  3 38  1  0
  4 39  1  0
 11 40  1  0
 12 41  1  0
 13 42  1  0
 14 43  1  0
 18 44  1  0
 19 45  1  0
 20 46  1  0
 21 47  1  0
 27 48  1  0
 28 49  1  0
 29 50  1  0
 30 51  1  0
 32 52  1  0
 33 53  1  0
 34 54  1  0
M  CHG  2   9  -1  25  -1
M  END
>  <UniqueID>  (16) 
16

>  <SMILES>  (16) 
Cc1ccc(S(=O)(=O)[N-]c2ccccc2Sc2ccccc2C(=O)[N-]c2ccccc2O)cc1

>  <Energy>  (16) 
69.58643920978535

>  <Genealogy>  (16) 
Cc1ccc(S(=O)(=O)[N-]c2ccccc2Sc2ccccc2C(=O)[N-]c2ccccc2O)cc1 (protonated)
Cc1ccc(S(=O)(=O)[N-]c2ccccc2Sc2ccccc2C(=O)[N-]c2ccccc2O)cc1 (3D coordinates assigned)
Cc1ccc(S(=O)(=O)[N-]c2ccccc2Sc2ccccc2C(=O)[N-]c2ccccc2O)cc1 (optimized conformer: 69.58643920978535 kcal/mol)

>  <smiles>  (16) 
Cc1ccc(S(=O)(=O)Nc2ccccc2Sc2ccccc2C(=O)Nc2ccccc2O)cc1

>  <score_type>  (16) 
oracle

>  <origin>  (16) 
adgpu

>  <m_score__min__energy>  (16) 
-11.85

>  <m_primary>  (16) 
energy

$$$$
16:0
     RDKit          3D

 40 42  0  0  0  0  0  0  0  0999 V2000
   -3.4870   25.2810  -30.4310 O   0  0  0  0  0  0  0  0  0  0  0  0
   -3.9300   24.2750  -29.8130 C   0  0  0  0  0  0  0  0  0  0  0  0
   -3.1850   23.7370  -28.7080 N   0  0  0  0  0  0  0  0  0  0  0  0
   -2.1620   24.4710  -28.0160 C   0  0  0  0  0  0  0  0  0  0  0  0
   -2.4650   25.0900  -26.7950 C   0  0  0  0  0  0  0  0  0  0  0  0
   -1.4860   25.8160  -26.1140 C   0  0  0  0  0  0  0  0  0  0  0  0
   -0.2120   25.9330  -26.6700 C   0  0  0  0  0  0  0  0  0  0  0  0
    0.0630   25.3550  -27.8680 N   0  0  0  0  0  0  0  0  0  0  0  0
   -0.8700   24.6420  -28.5550 C   0  0  0  0  0  0  0  0  0  0  0  0
   -0.5720   24.1620  -29.6800 O   0  0  0  0  0  0  0  0  0  0  0  0
   -5.1890   23.6350  -30.2660 C   0  0  0  0  0  0  0  0  0  0  0  0
   -5.2630   22.2450  -30.4690 C   0  0  0  0  0  0  0  0  0  0  0  0
   -6.4590   21.6530  -30.8870 C   0  0  0  0  0  0  0  0  0  0  0  0
   -7.6020   22.4350  -31.0960 C   0  0  0  0  0  0  0  0  0  0  0  0
   -9.1100   21.6840  -31.6300 S   0  0  0  0  0  0  0  0  0  0  0  0
  -10.0400   21.5640  -30.4550 O   0  0  0  0  0  0  0  0  0  0  0  0
   -9.7650   22.5740  -32.6510 O   0  0  0  0  0  0  0  0  0  0  0  0
   -8.8710   20.0990  -32.3290 N   0  0  0  0  0  0  0  0  0  0  0  0
   -7.6490   20.0300  -33.1280 C   0  0  0  0  0  0  0  0  0  0  0  0
   -7.2270   18.5680  -33.1370 C   0  0  0  0  0  0  0  0  0  0  0  0
   -7.9340   17.9360  -31.9460 C   0  0  0  0  0  0  0  0  0  0  0  0
   -8.7320   19.0640  -31.3070 C   0  0  0  0  0  0  0  0  0  0  0  0
   -7.5350   23.8190  -30.8960 C   0  0  0  0  0  0  0  0  0  0  0  0
   -6.3420   24.4150  -30.4770 C   0  0  0  0  0  0  0  0  0  0  0  0
   -3.2640   22.7130  -28.5140 H   0  0  0  0  0  0  0  0  0  0  0  0
   -3.4769   25.0034  -26.3724 H   0  0  0  0  0  0  0  0  0  0  0  0
   -1.7169   26.2908  -25.1490 H   0  0  0  0  0  0  0  0  0  0  0  0
    0.5705   26.4938  -26.1378 H   0  0  0  0  0  0  0  0  0  0  0  0
   -4.3744   21.6197  -30.2978 H   0  0  0  0  0  0  0  0  0  0  0  0
   -6.5023   20.5664  -31.0527 H   0  0  0  0  0  0  0  0  0  0  0  0
   -7.8444   20.3764  -34.1536 H   0  0  0  0  0  0  0  0  0  0  0  0
   -6.8600   20.6714  -32.7084 H   0  0  0  0  0  0  0  0  0  0  0  0
   -7.5408   18.0826  -34.0729 H   0  0  0  0  0  0  0  0  0  0  0  0
   -6.1346   18.4570  -33.0704 H   0  0  0  0  0  0  0  0  0  0  0  0
   -8.6048   17.1304  -32.2793 H   0  0  0  0  0  0  0  0  0  0  0  0
   -7.2222   17.4856  -31.2385 H   0  0  0  0  0  0  0  0  0  0  0  0
   -9.7226   18.7008  -30.9957 H   0  0  0  0  0  0  0  0  0  0  0  0
   -8.2267   19.4529  -30.4107 H   0  0  0  0  0  0  0  0  0  0  0  0
   -8.4258   24.4407  -31.0695 H   0  0  0  0  0  0  0  0  0  0  0  0
   -6.3037   25.5017  -30.3109 H   0  0  0  0  0  0  0  0  0  0  0  0
  1  2  2  0
  2  3  1  0
  3  4  1  0
  4  5  2  0
  5  6  1  0
  6  7  2  0
  7  8  1  0
  8  9  1  0
  9 10  2  0
  2 11  1  0
 11 12  2  0
 12 13  1  0
 13 14  2  0
 14 15  1  0
 15 16  2  0
 15 17  2  0
 15 18  1  0
 18 19  1  0
 19 20  1  0
 20 21  1  0
 21 22  1  0
 14 23  1  0
 23 24  2  0
  9  4  1  0
 24 11  1  0
 22 18  1  0
  3 25  1  0
  5 26  1  0
  6 27  1  0
  7 28  1  0
 12 29  1  0
 13 30  1  0
 19 31  1  0
 19 32  1  0
 20 33  1  0
 20 34  1  0
 21 35  1  0
 21 36  1  0
 22 37  1  0
 22 38  1  0
 23 39  1  0
 24 40  1  0
M  CHG  1   8  -1
M  END
>  <UniqueID>  (17) 
17

>  <SMILES>  (17) 
O=C(Nc1ccc[n-]c1=O)c1ccc(S(=O)(=O)N2CCCC2)cc1

>  <Energy>  (17) 
50.74096874658158

>  <Genealogy>  (17) 
O=C(Nc1ccc[n-]c1=O)c1ccc(S(=O)(=O)N2CCCC2)cc1 (protonated)
O=C(Nc1ccc[n-]c1=O)c1ccc(S(=O)(=O)N2CCCC2)cc1 (3D coordinates assigned)
O=C(Nc1ccc[n-]c1=O)c1ccc(S(=O)(=O)N2CCCC2)cc1 (nonaromatic ring conformer: 50.74096874658158 kcal/mol)

>  <smiles>  (17) 
O=C(Nc1ccc[nH]c1=O)c1ccc(S(=O)(=O)N2CCCC2)cc1

>  <score_type>  (17) 
oracle

>  <origin>  (17) 
adgpu

>  <m_score__min__energy>  (17) 
-9.9100000000000001

>  <m_primary>  (17) 
energy

$$$$
17:0
     RDKit          3D

 45 47  0  0  0  0  0  0  0  0999 V2000
   -0.4750   22.4070  -29.1510 C   0  0  0  0  0  0  0  0  0  0  0  0
   -0.1740   23.7320  -28.5320 C   0  0  0  0  0  0  0  0  0  0  0  0
    1.0720   24.2280  -28.4010 N   0  0  0  0  0  0  0  0  0  0  0  0
    0.9980   25.3850  -27.7580 N   0  0  0  0  0  0  0  0  0  0  0  0
   -0.2940   25.6330  -27.4690 C   0  0  0  0  0  0  0  0  0  0  0  0
   -0.7580   26.8410  -26.7250 C   0  0  0  0  0  0  0  0  0  0  0  0
   -1.0740   24.5930  -27.9360 C   0  0  0  0  0  0  0  0  0  0  0  0
   -2.8190   24.3830  -27.7890 S   0  0  0  0  0  0  0  0  0  0  0  0
   -3.1720   22.9400  -27.5570 O   0  0  0  0  0  0  0  0  0  0  0  0
   -3.3050   25.1950  -26.6220 O   0  0  0  0  0  0  0  0  0  0  0  0
   -3.6040   24.9310  -29.2360 N   0  0  0  0  0  0  0  0  0  0  0  0
   -4.7940   24.3280  -29.7740 C   0  0  0  0  0  0  0  0  0  0  0  0
   -5.3380   24.8340  -30.9650 C   0  0  0  0  0  0  0  0  0  0  0  0
   -6.4810   24.2560  -31.5270 C   0  0  0  0  0  0  0  0  0  0  0  0
   -7.0990   23.1670  -30.9010 C   0  0  0  0  0  0  0  0  0  0  0  0
   -8.5160   22.4000  -31.6130 S   0  0  0  0  0  0  0  0  0  0  0  0
   -9.2890   23.3990  -32.4310 O   0  0  0  0  0  0  0  0  0  0  0  0
   -9.3990   21.8960  -30.5040 O   0  0  0  0  0  0  0  0  0  0  0  0
   -8.0200   21.0640  -32.6240 N   0  0  0  0  0  0  0  0  0  0  0  0
   -8.6840   19.8240  -32.1810 C   0  0  0  0  0  0  0  0  0  0  0  0
   -7.9040   18.5900  -32.6640 C   0  0  0  0  0  0  0  0  0  0  0  0
   -6.5680   18.5220  -32.1800 O   0  0  0  0  0  0  0  0  0  0  0  0
   -6.0310   19.7810  -31.8010 C   0  0  0  0  0  0  0  0  0  0  0  0
   -6.5450   20.9480  -32.6660 C   0  0  0  0  0  0  0  0  0  0  0  0
   -6.5680   22.6640  -29.7060 C   0  0  0  0  0  0  0  0  0  0  0  0
   -5.4260   23.2400  -29.1430 C   0  0  0  0  0  0  0  0  0  0  0  0
   -0.6442   21.6624  -28.3592 H   0  0  0  0  0  0  0  0  0  0  0  0
   -1.3771   22.4902  -29.7749 H   0  0  0  0  0  0  0  0  0  0  0  0
    0.3745   22.0923  -29.7749 H   0  0  0  0  0  0  0  0  0  0  0  0
   -0.6866   26.6552  -25.6432 H   0  0  0  0  0  0  0  0  0  0  0  0
   -0.1262   27.7011  -26.9918 H   0  0  0  0  0  0  0  0  0  0  0  0
   -1.8031   27.0570  -26.9918 H   0  0  0  0  0  0  0  0  0  0  0  0
   -3.1100   25.6650  -29.7930 H   0  0  0  0  0  0  0  0  0  0  0  0
   -4.8613   25.6925  -31.4606 H   0  0  0  0  0  0  0  0  0  0  0  0
   -6.8954   24.6582  -32.4633 H   0  0  0  0  0  0  0  0  0  0  0  0
   -8.7334   19.8131  -31.0822 H   0  0  0  0  0  0  0  0  0  0  0  0
   -9.6973   19.7924  -32.6079 H   0  0  0  0  0  0  0  0  0  0  0  0
   -8.4394   17.6896  -32.3284 H   0  0  0  0  0  0  0  0  0  0  0  0
   -7.8414   18.6629  -33.7598 H   0  0  0  0  0  0  0  0  0  0  0  0
   -6.3042   19.9761  -30.7535 H   0  0  0  0  0  0  0  0  0  0  0  0
   -4.9414   19.7263  -31.9418 H   0  0  0  0  0  0  0  0  0  0  0  0
   -6.1047   21.8853  -32.2951 H   0  0  0  0  0  0  0  0  0  0  0  0
   -6.2498   20.7535  -33.7076 H   0  0  0  0  0  0  0  0  0  0  0  0
   -7.0526   21.8111  -29.2083 H   0  0  0  0  0  0  0  0  0  0  0  0
   -5.0190   22.8412  -28.2021 H   0  0  0  0  0  0  0  0  0  0  0  0
  1  2  1  0
  2  3  2  0
  3  4  1  0
  4  5  1  0
  5  6  1  0
  5  7  2  0
  7  8  1  0
  8  9  2  0
  8 10  2  0
  8 11  1  0
 11 12  1  0
 12 13  2  0
 13 14  1  0
 14 15  2  0
 15 16  1  0
 16 17  2  0
 16 18  2  0
 16 19  1  0
 19 20  1  0
 20 21  1  0
 21 22  1  0
 22 23  1  0
 23 24  1  0
 15 25  1  0
 25 26  2  0
  7  2  1  0
 26 12  1  0
 24 19  1  0
  1 27  1  0
  1 28  1  0
  1 29  1  0
  6 30  1  0
  6 31  1  0
  6 32  1  0
 11 33  1  0
 13 34  1  0
 14 35  1  0
 20 36  1  0
 20 37  1  0
 21 38  1  0
 21 39  1  0
 23 40  1  0
 23 41  1  0
 24 42  1  0
 24 43  1  0
 25 44  1  0
 26 45  1  0
M  CHG  1   4  -1
M  END
>  <UniqueID>  (18) 
18

>  <SMILES>  (18) 
Cc1n[n-]c(C)c1S(=O)(=O)Nc1ccc(S(=O)(=O)N2CCOCC2)cc1

>  <Energy>  (18) 
87.84996032430247

>  <Genealogy>  (18) 
Cc1n[n-]c(C)c1S(=O)(=O)Nc1ccc(S(=O)(=O)N2CCOCC2)cc1 (protonated)
Cc1n[n-]c(C)c1S(=O)(=O)Nc1ccc(S(=O)(=O)N2CCOCC2)cc1 (3D coordinates assigned)
Cc1n[n-]c(C)c1S(=O)(=O)Nc1ccc(S(=O)(=O)N2CCOCC2)cc1 (nonaromatic ring conformer: 87.84996032430247 kcal/mol)

>  <smiles>  (18) 
Cc1n[nH]c(C)c1S(=O)(=O)Nc1ccc(S(=O)(=O)N2CCOCC2)cc1

>  <score_type>  (18) 
oracle

>  <origin>  (18) 
adgpu

>  <m_score__min__energy>  (18) 
-9.7699999999999996

>  <m_primary>  (18) 
energy

$$$$
18:0
     RDKit          3D

 36 39  0  0  0  0  0  0  0  0999 V2000
   -9.1380   18.0420  -31.9330 C   0  0  0  0  0  0  0  0  0  0  0  0
   -8.4690   19.3780  -32.0580 C   0  0  0  0  0  0  0  0  0  0  0  0
   -7.2420   19.4940  -32.7250 C   0  0  0  0  0  0  0  0  0  0  0  0
   -6.6300   20.7430  -32.8660 C   0  0  0  0  0  0  0  0  0  0  0  0
   -7.2400   21.8960  -32.3380 C   0  0  0  0  0  0  0  0  0  0  0  0
   -6.6170   23.1880  -32.4400 N   0  0  0  0  0  0  0  0  0  0  0  0
   -5.9600   23.8480  -31.3500 C   0  0  0  0  0  0  0  0  0  0  0  0
   -6.6940   24.9270  -30.3110 S   0  0  0  0  0  0  0  0  0  0  0  0
   -5.3900   25.2940  -29.3530 N   0  0  0  0  0  0  0  0  0  0  0  0
   -4.3480   24.5600  -29.8190 C   0  0  0  0  0  0  0  0  0  0  0  0
   -3.2160   24.6140  -29.2710 O   0  0  0  0  0  0  0  0  0  0  0  0
   -4.6270   23.7260  -30.9320 C   0  0  0  0  0  0  0  0  0  0  0  0
   -3.6460   22.7870  -31.5160 C   0  0  0  0  0  0  0  0  0  0  0  0
   -3.8600   22.1060  -32.6740 N   0  0  0  0  0  0  0  0  0  0  0  0
   -2.7310   21.3870  -32.7900 C   0  0  0  0  0  0  0  0  0  0  0  0
   -2.3880   20.4820  -33.7920 C   0  0  0  0  0  0  0  0  0  0  0  0
   -1.1400   19.8360  -33.6880 C   0  0  0  0  0  0  0  0  0  0  0  0
   -0.2800   20.1100  -32.5980 C   0  0  0  0  0  0  0  0  0  0  0  0
   -0.6610   21.0320  -31.6050 C   0  0  0  0  0  0  0  0  0  0  0  0
   -1.9000   21.6490  -31.7440 C   0  0  0  0  0  0  0  0  0  0  0  0
   -2.4730   22.5220  -30.9640 O   0  0  0  0  0  0  0  0  0  0  0  0
   -8.4900   21.7820  -31.7110 C   0  0  0  0  0  0  0  0  0  0  0  0
   -9.1000   20.5330  -31.5710 C   0  0  0  0  0  0  0  0  0  0  0  0
   -9.2629   17.7926  -30.8690 H   0  0  0  0  0  0  0  0  0  0  0  0
  -10.1240   18.0788  -32.4192 H   0  0  0  0  0  0  0  0  0  0  0  0
   -8.5179   17.2745  -32.4192 H   0  0  0  0  0  0  0  0  0  0  0  0
   -6.7579   18.5976  -33.1398 H   0  0  0  0  0  0  0  0  0  0  0  0
   -5.6674   20.8248  -33.3920 H   0  0  0  0  0  0  0  0  0  0  0  0
   -6.5580   23.6360  -33.3810 H   0  0  0  0  0  0  0  0  0  0  0  0
   -5.3770   25.9510  -28.5420 H   0  0  0  0  0  0  0  0  0  0  0  0
   -3.0666   20.2791  -34.6336 H   0  0  0  0  0  0  0  0  0  0  0  0
   -0.8323   19.1142  -34.4589 H   0  0  0  0  0  0  0  0  0  0  0  0
    0.6917   19.5995  -32.5264 H   0  0  0  0  0  0  0  0  0  0  0  0
   -0.0041   21.2561  -30.7516 H   0  0  0  0  0  0  0  0  0  0  0  0
   -8.9929   22.6819  -31.3272 H   0  0  0  0  0  0  0  0  0  0  0  0
  -10.0795   20.4545  -31.0767 H   0  0  0  0  0  0  0  0  0  0  0  0
  1  2  1  0
  2  3  2  0
  3  4  1  0
  4  5  2  0
  5  6  1  0
  6  7  1  0
  7  8  1  0
  8  9  1  0
  9 10  1  0
 10 11  2  0
 10 12  1  0
 12 13  1  0
 13 14  2  0
 14 15  1  0
 15 16  2  0
 16 17  1  0
 17 18  2  0
 18 19  1  0
 19 20  2  0
 20 21  1  0
  5 22  1  0
 22 23  2  0
 23  2  1  0
 12  7  2  0
 21 13  1  0
 20 15  1  0
  1 24  1  0
  1 25  1  0
  1 26  1  0
  3 27  1  0
  4 28  1  0
  6 29  1  0
  9 30  1  0
 16 31  1  0
 17 32  1  0
 18 33  1  0
 19 34  1  0
 22 35  1  0
 23 36  1  0
M  END
>  <UniqueID>  (19) 
19

>  <SMILES>  (19) 
Cc1ccc(Nc2s[nH]c(=O)c2-c2nc3ccccc3o2)cc1

>  <Energy>  (19) 
117.20349514071755

>  <Genealogy>  (19) 
Cc1ccc(Nc2s[nH]c(=O)c2-c2nc3ccccc3o2)cc1 (3D coordinates assigned)
Cc1ccc(Nc2s[nH]c(=O)c2-c2nc3ccccc3o2)cc1 (optimized conformer: 117.20349514071755 kcal/mol)

>  <smiles>  (19) 
Cc1ccc(Nc2s[nH]c(=O)c2-c2nc3ccccc3o2)cc1

>  <score_type>  (19) 
oracle

>  <origin>  (19) 
adgpu

>  <m_score__min__energy>  (19) 
-8.5199999999999996

>  <m_primary>  (19) 
energy

$$$$
19:0
     RDKit          3D

 49 51  0  0  0  0  0  0  0  0999 V2000
   -9.0580   18.5790  -32.3410 C   0  0  0  0  0  0  0  0  0  0  0  0
   -7.7780   19.3140  -32.0430 C   0  0  0  0  0  0  0  0  0  0  0  0
   -7.8690   20.6470  -31.6010 C   0  0  0  0  0  0  0  0  0  0  0  0
   -6.7250   21.3950  -31.3130 C   0  0  0  0  0  0  0  0  0  0  0  0
   -6.8660   22.7710  -30.9360 N   0  0  0  0  0  0  0  0  0  0  0  0
   -5.8270   23.7580  -31.0070 C   0  0  0  0  0  0  0  0  0  0  0  0
   -5.8410   24.5850  -31.9580 O   0  0  0  0  0  0  0  0  0  0  0  0
   -4.7900   23.8650  -29.9560 C   0  0  0  0  0  0  0  0  0  0  0  0
   -4.8410   23.0390  -28.8220 C   0  0  0  0  0  0  0  0  0  0  0  0
   -3.8390   23.1100  -27.8500 C   0  0  0  0  0  0  0  0  0  0  0  0
   -2.7610   23.9850  -28.0090 C   0  0  0  0  0  0  0  0  0  0  0  0
   -1.7670   24.0270  -27.0290 O   0  0  0  0  0  0  0  0  0  0  0  0
   -2.6920   24.8020  -29.1500 C   0  0  0  0  0  0  0  0  0  0  0  0
   -1.6140   25.6600  -29.3420 O   0  0  0  0  0  0  0  0  0  0  0  0
   -3.7100   24.7520  -30.1090 C   0  0  0  0  0  0  0  0  0  0  0  0
   -5.4630   20.8110  -31.4830 C   0  0  0  0  0  0  0  0  0  0  0  0
   -5.3520   19.4990  -31.9450 C   0  0  0  0  0  0  0  0  0  0  0  0
   -6.4930   18.7310  -32.2330 C   0  0  0  0  0  0  0  0  0  0  0  0
   -6.2360   17.0880  -32.8730 S   0  0  0  0  0  0  0  0  0  0  0  0
   -7.5870   16.4890  -33.1570 O   0  0  0  0  0  0  0  0  0  0  0  0
   -5.5770   16.2040  -31.8470 O   0  0  0  0  0  0  0  0  0  0  0  0
   -5.2820   17.0540  -34.3480 N   0  0  0  0  0  0  0  0  0  0  0  0
   -4.6280   18.3500  -34.6530 C   0  0  0  0  0  0  0  0  0  0  0  0
   -3.1190   18.3550  -34.3490 C   0  0  0  0  0  0  0  0  0  0  0  0
   -2.8420   17.4530  -33.2190 N   0  0  0  0  0  0  0  0  0  0  0  0
   -1.4640   17.6270  -32.7400 C   0  0  0  0  0  0  0  0  0  0  0  0
   -3.0850   16.0480  -33.6080 C   0  0  0  0  0  0  0  0  0  0  0  0
   -4.3840   15.8830  -34.4350 C   0  0  0  0  0  0  0  0  0  0  0  0
   -9.5477   18.2978  -31.3970 H   0  0  0  0  0  0  0  0  0  0  0  0
   -9.7279   19.2300  -32.9219 H   0  0  0  0  0  0  0  0  0  0  0  0
   -8.8335   17.6723  -32.9219 H   0  0  0  0  0  0  0  0  0  0  0  0
   -8.8600   21.1087  -31.4800 H   0  0  0  0  0  0  0  0  0  0  0  0
   -5.6743   22.3318  -28.6977 H   0  0  0  0  0  0  0  0  0  0  0  0
   -3.8993   22.4735  -26.9549 H   0  0  0  0  0  0  0  0  0  0  0  0
   -0.9770   24.6580  -27.0930 H   0  0  0  0  0  0  0  0  0  0  0  0
   -3.6649   25.4112  -30.9885 H   0  0  0  0  0  0  0  0  0  0  0  0
   -4.5561   21.3889  -31.2514 H   0  0  0  0  0  0  0  0  0  0  0  0
   -4.3541   19.0583  -32.0862 H   0  0  0  0  0  0  0  0  0  0  0  0
   -4.7700   18.5702  -35.7213 H   0  0  0  0  0  0  0  0  0  0  0  0
   -5.0935   19.1103  -34.0086 H   0  0  0  0  0  0  0  0  0  0  0  0
   -2.5654   18.0124  -35.2356 H   0  0  0  0  0  0  0  0  0  0  0  0
   -2.8011   19.3756  -34.0894 H   0  0  0  0  0  0  0  0  0  0  0  0
   -1.4556   17.6281  -31.6400 H   0  0  0  0  0  0  0  0  0  0  0  0
   -0.8399   16.8005  -33.1107 H   0  0  0  0  0  0  0  0  0  0  0  0
   -1.0649   18.5827  -33.1107 H   0  0  0  0  0  0  0  0  0  0  0  0
   -2.2349   15.6958  -34.2107 H   0  0  0  0  0  0  0  0  0  0  0  0
   -3.1959   15.4581  -32.6862 H   0  0  0  0  0  0  0  0  0  0  0  0
   -4.1102   15.7299  -35.4893 H   0  0  0  0  0  0  0  0  0  0  0  0
   -4.9285   15.0218  -34.0204 H   0  0  0  0  0  0  0  0  0  0  0  0
  1  2  1  0
  2  3  2  0
  3  4  1  0
  4  5  1  0
  5  6  1  0
  6  7  2  0
  6  8  1  0
  8  9  2  0
  9 10  1  0
 10 11  2  0
 11 12  1  0
 11 13  1  0
 13 14  1  0
 13 15  2  0
  4 16  2  0
 16 17  1  0
 17 18  2  0
 18 19  1  0
 19 20  2  0
 19 21  2  0
 19 22  1  0
 22 23  1  0
 23 24  1  0
 24 25  1  0
 25 26  1  0
 25 27  1  0
 27 28  1  0
 18  2  1  0
 28 22  1  0
 15  8  1  0
  1 29  1  0
  1 30  1  0
  1 31  1  0
  3 32  1  0
  9 33  1  0
 10 34  1  0
 12 35  1  0
 15 36  1  0
 16 37  1  0
 17 38  1  0
 23 39  1  0
 23 40  1  0
 24 41  1  0
 24 42  1  0
 26 43  1  0
 26 44  1  0
 26 45  1  0
 27 46  1  0
 27 47  1  0
 28 48  1  0
 28 49  1  0
M  CHG  2   5  -1  14  -1
M  END
>  <UniqueID>  (20) 
20

>  <SMILES>  (20) 
Cc1cc([N-]C(=O)c2ccc(O)c([O-])c2)ccc1S(=O)(=O)N1CCN(C)CC1

>  <Energy>  (20) 
68.5095497398618

>  <Genealogy>  (20) 
Cc1cc([N-]C(=O)c2ccc(O)c([O-])c2)ccc1S(=O)(=O)N1CCN(C)CC1 (protonated)
Cc1cc([N-]C(=O)c2ccc(O)c([O-])c2)ccc1S(=O)(=O)N1CCN(C)CC1 (3D coordinates assigned)
Cc1cc([N-]C(=O)c2ccc(O)c([O-])c2)ccc1S(=O)(=O)N1CCN(C)CC1 (nonaromatic ring conformer: 68.5095497398618 kcal/mol)

>  <smiles>  (20) 
Cc1cc(NC(=O)c2ccc(O)c(O)c2)ccc1S(=O)(=O)N1CCN(C)CC1

>  <score_type>  (20) 
oracle

>  <origin>  (20) 
adgpu

>  <m_score__min__energy>  (20) 
-11.09

>  <m_primary>  (20) 
energy

$$$$
20:0
     RDKit          3D

 43 45  0  0  0  0  0  0  0  0999 V2000
   -4.3770   17.2030  -35.5120 N   0  0  0  0  0  0  0  0  0  0  0  0
   -5.2550   17.6940  -34.4950 C   0  0  0  0  0  0  0  0  0  0  0  0
   -6.3770   16.9480  -34.1140 C   0  0  0  0  0  0  0  0  0  0  0  0
   -7.2310   17.4240  -33.1170 C   0  0  0  0  0  0  0  0  0  0  0  0
   -6.9710   18.6480  -32.4950 C   0  0  0  0  0  0  0  0  0  0  0  0
   -5.8530   19.4140  -32.8700 C   0  0  0  0  0  0  0  0  0  0  0  0
   -5.5870   20.7250  -32.2260 C   0  0  0  0  0  0  0  0  0  0  0  0
   -6.6120   21.4120  -31.5530 C   0  0  0  0  0  0  0  0  0  0  0  0
   -6.3610   22.6490  -30.9530 C   0  0  0  0  0  0  0  0  0  0  0  0
   -5.0860   23.2200  -31.0210 C   0  0  0  0  0  0  0  0  0  0  0  0
   -4.7920   24.7810  -30.2620 S   0  0  0  0  0  0  0  0  0  0  0  0
   -5.1670   25.9100  -31.1810 O   0  0  0  0  0  0  0  0  0  0  0  0
   -5.6260   24.8760  -29.0160 O   0  0  0  0  0  0  0  0  0  0  0  0
   -3.1170   24.9230  -29.8390 N   0  0  0  0  0  0  0  0  0  0  0  0
   -2.4810   24.2610  -28.7370 C   0  0  0  0  0  0  0  0  0  0  0  0
   -2.2610   22.8720  -28.7240 C   0  0  0  0  0  0  0  0  0  0  0  0
   -1.6380   22.2690  -27.6280 C   0  0  0  0  0  0  0  0  0  0  0  0
   -1.2200   23.0450  -26.5440 C   0  0  0  0  0  0  0  0  0  0  0  0
   -1.4210   24.4290  -26.5520 C   0  0  0  0  0  0  0  0  0  0  0  0
   -0.8910   25.3910  -25.1750 S   0  0  0  0  0  0  0  0  0  0  0  0
   -0.6190   24.3490  -23.8240 N   0  0  0  0  0  0  0  0  0  0  0  0
   -1.9360   26.4090  -24.8150 O   0  0  0  0  0  0  0  0  0  0  0  0
    0.3830   26.1040  -25.5290 O   0  0  0  0  0  0  0  0  0  0  0  0
   -2.0540   25.0330  -27.6490 C   0  0  0  0  0  0  0  0  0  0  0  0
   -4.0600   22.5430  -31.6940 C   0  0  0  0  0  0  0  0  0  0  0  0
   -4.3060   21.3030  -32.2880 C   0  0  0  0  0  0  0  0  0  0  0  0
   -4.9950   18.9230  -33.8720 C   0  0  0  0  0  0  0  0  0  0  0  0
   -3.5840   16.5710  -35.2720 H   0  0  0  0  0  0  0  0  0  0  0  0
   -4.5260   17.4570  -36.5150 H   0  0  0  0  0  0  0  0  0  0  0  0
   -6.5863   15.9843  -34.6014 H   0  0  0  0  0  0  0  0  0  0  0  0
   -8.1107   16.8339  -32.8205 H   0  0  0  0  0  0  0  0  0  0  0  0
   -7.6452   19.0147  -31.7070 H   0  0  0  0  0  0  0  0  0  0  0  0
   -7.6190   20.9729  -31.4981 H   0  0  0  0  0  0  0  0  0  0  0  0
   -7.1696   23.1758  -30.4251 H   0  0  0  0  0  0  0  0  0  0  0  0
   -2.5803   22.2583  -29.5792 H   0  0  0  0  0  0  0  0  0  0  0  0
   -1.4764   21.1810  -27.6188 H   0  0  0  0  0  0  0  0  0  0  0  0
   -0.7317   22.5663  -25.6823 H   0  0  0  0  0  0  0  0  0  0  0  0
    0.4100   24.1630  -23.7840 H   0  0  0  0  0  0  0  0  0  0  0  0
   -0.8600   24.8900  -22.9640 H   0  0  0  0  0  0  0  0  0  0  0  0
   -2.2161   26.1210  -27.6546 H   0  0  0  0  0  0  0  0  0  0  0  0
   -3.0568   22.9900  -31.7547 H   0  0  0  0  0  0  0  0  0  0  0  0
   -3.4928   20.7750  -32.8076 H   0  0  0  0  0  0  0  0  0  0  0  0
   -4.1125   19.5087  -34.1690 H   0  0  0  0  0  0  0  0  0  0  0  0
  1  2  1  0
  2  3  2  0
  3  4  1  0
  4  5  2  0
  5  6  1  0
  6  7  1  0
  7  8  2  0
  8  9  1  0
  9 10  2  0
 10 11  1  0
 11 12  2  0
 11 13  2  0
 11 14  1  0
 14 15  1  0
 15 16  2  0
 16 17  1  0
 17 18  2  0
 18 19  1  0
 19 20  1  0
 20 21  1  0
 20 22  2  0
 20 23  2  0
 19 24  2  0
 10 25  1  0
 25 26  2  0
  6 27  2  0
 27  2  1  0
 26  7  1  0
 24 15  1  0
  1 28  1  0
  1 29  1  0
  3 30  1  0
  4 31  1  0
  5 32  1  0
  8 33  1  0
  9 34  1  0
 16 35  1  0
 17 36  1  0
 18 37  1  0
 21 38  1  0
 21 39  1  0
 24 40  1  0
 25 41  1  0
 26 42  1  0
 27 43  1  0
M  CHG  1  14  -1
M  END
>  <UniqueID>  (21) 
21

>  <SMILES>  (21) 
Nc1cccc(-c2ccc(S(=O)(=O)[N-]c3cccc(S(N)(=O)=O)c3)cc2)c1

>  <Energy>  (21) 
51.87555460064591

>  <Genealogy>  (21) 
Nc1cccc(-c2ccc(S(=O)(=O)[N-]c3cccc(S(N)(=O)=O)c3)cc2)c1 (protonated)
Nc1cccc(-c2ccc(S(=O)(=O)[N-]c3cccc(S(N)(=O)=O)c3)cc2)c1 (3D coordinates assigned)
Nc1cccc(-c2ccc(S(=O)(=O)[N-]c3cccc(S(N)(=O)=O)c3)cc2)c1 (optimized conformer: 51.87555460064591 kcal/mol)

>  <smiles>  (21) 
Nc1cccc(-c2ccc(S(=O)(=O)Nc3cccc(S(N)(=O)=O)c3)cc2)c1

>  <score_type>  (21) 
oracle

>  <origin>  (21) 
adgpu

>  <m_score__min__energy>  (21) 
-10.68

>  <m_primary>  (21) 
energy

$$$$
21:0
     RDKit          3D

 44 45  0  0  0  0  0  0  0  0999 V2000
   -1.3100   25.6050  -27.7670 C   0  0  0  0  0  0  0  0  0  0  0  0
   -1.9980   25.4210  -28.9990 O   0  0  0  0  0  0  0  0  0  0  0  0
   -2.3850   24.1740  -29.5160 C   0  0  0  0  0  0  0  0  0  0  0  0
   -1.7400   22.9790  -29.1420 C   0  0  0  0  0  0  0  0  0  0  0  0
   -2.1550   21.7560  -29.6720 C   0  0  0  0  0  0  0  0  0  0  0  0
   -3.2070   21.7060  -30.5970 C   0  0  0  0  0  0  0  0  0  0  0  0
   -3.6870   20.3860  -31.1390 C   0  0  0  0  0  0  0  0  0  0  0  0
   -3.0770   20.1210  -32.5150 C   0  0  0  0  0  0  0  0  0  0  0  0
   -2.9050   18.6820  -32.7050 N   0  0  0  0  0  0  0  0  0  0  0  0
   -4.3090   18.0250  -33.4910 S   0  0  0  0  0  0  0  0  0  0  0  0
   -4.4380   16.5660  -33.1470 O   0  0  0  0  0  0  0  0  0  0  0  0
   -4.1570   18.1600  -34.9790 O   0  0  0  0  0  0  0  0  0  0  0  0
   -5.7440   18.9080  -32.9750 C   0  0  0  0  0  0  0  0  0  0  0  0
   -6.6800   18.2780  -32.1420 C   0  0  0  0  0  0  0  0  0  0  0  0
   -7.8650   18.9330  -31.7950 C   0  0  0  0  0  0  0  0  0  0  0  0
   -8.1250   20.2190  -32.2830 C   0  0  0  0  0  0  0  0  0  0  0  0
   -9.6640   21.0410  -31.8700 S   0  0  0  0  0  0  0  0  0  0  0  0
   -8.9300   22.7060  -31.9400 C   0  0  0  0  0  0  0  0  0  0  0  0
   -7.1860   20.8560  -33.1030 C   0  0  0  0  0  0  0  0  0  0  0  0
   -6.0010   20.2030  -33.4500 C   0  0  0  0  0  0  0  0  0  0  0  0
   -3.8550   22.8940  -30.9660 C   0  0  0  0  0  0  0  0  0  0  0  0
   -3.4520   24.1310  -30.4270 C   0  0  0  0  0  0  0  0  0  0  0  0
   -4.0900   25.3340  -30.7650 O   0  0  0  0  0  0  0  0  0  0  0  0
   -5.4540   25.6310  -30.4820 C   0  0  0  0  0  0  0  0  0  0  0  0
   -2.0001   25.4204  -26.9305 H   0  0  0  0  0  0  0  0  0  0  0  0
   -0.4670   24.9007  -27.7091 H   0  0  0  0  0  0  0  0  0  0  0  0
   -0.9311   26.6360  -27.7091 H   0  0  0  0  0  0  0  0  0  0  0  0
   -0.9040   23.0096  -28.4278 H   0  0  0  0  0  0  0  0  0  0  0  0
   -1.6540   20.8270  -29.3622 H   0  0  0  0  0  0  0  0  0  0  0  0
   -3.3899   19.5817  -30.4499 H   0  0  0  0  0  0  0  0  0  0  0  0
   -4.7824   20.4168  -31.2345 H   0  0  0  0  0  0  0  0  0  0  0  0
   -3.7454   20.5160  -33.2942 H   0  0  0  0  0  0  0  0  0  0  0  0
   -2.0983   20.6185  -32.5832 H   0  0  0  0  0  0  0  0  0  0  0  0
   -6.4810   17.2656  -31.7607 H   0  0  0  0  0  0  0  0  0  0  0  0
   -8.5943   18.4372  -31.1375 H   0  0  0  0  0  0  0  0  0  0  0  0
   -8.7661   23.0777  -30.9178 H   0  0  0  0  0  0  0  0  0  0  0  0
   -7.9684   22.6607  -32.4723 H   0  0  0  0  0  0  0  0  0  0  0  0
   -9.6121   23.3853  -32.4723 H   0  0  0  0  0  0  0  0  0  0  0  0
   -7.3818   21.8726  -33.4747 H   0  0  0  0  0  0  0  0  0  0  0  0
   -5.2672   20.7054  -34.0975 H   0  0  0  0  0  0  0  0  0  0  0  0
   -4.6873   22.8590  -31.6844 H   0  0  0  0  0  0  0  0  0  0  0  0
   -5.6038   25.6636  -29.3927 H   0  0  0  0  0  0  0  0  0  0  0  0
   -5.7147   26.6070  -30.9174 H   0  0  0  0  0  0  0  0  0  0  0  0
   -6.0969   24.8518  -30.9174 H   0  0  0  0  0  0  0  0  0  0  0  0
  1  2  1  0
  2  3  1  0
  3  4  2  0
  4  5  1  0
  5  6  2  0
  6  7  1  0
  7  8  1  0
  8  9  1  0
  9 10  1  0
 10 11  2  0
 10 12  2  0
 10 13  1  0
 13 14  2  0
 14 15  1  0
 15 16  2  0
 16 17  1  0
 17 18  1  0
 16 19  1  0
 19 20  2  0
  6 21  1  0
 21 22  2  0
 22 23  1  0
 23 24  1  0
 22  3  1  0
 20 13  1  0
  1 25  1  0
  1 26  1  0
  1 27  1  0
  4 28  1  0
  5 29  1  0
  7 30  1  0
  7 31  1  0
  8 32  1  0
  8 33  1  0
 14 34  1  0
 15 35  1  0
 18 36  1  0
 18 37  1  0
 18 38  1  0
 19 39  1  0
 20 40  1  0
 21 41  1  0
 24 42  1  0
 24 43  1  0
 24 44  1  0
M  CHG  1   9  -1
M  END
>  <UniqueID>  (22) 
22

>  <SMILES>  (22) 
COc1ccc(CC[N-]S(=O)(=O)c2ccc(SC)cc2)cc1OC

>  <Energy>  (22) 
33.333364988701184

>  <Genealogy>  (22) 
COc1ccc(CC[N-]S(=O)(=O)c2ccc(SC)cc2)cc1OC (protonated)
COc1ccc(CC[N-]S(=O)(=O)c2ccc(SC)cc2)cc1OC (3D coordinates assigned)
COc1ccc(CC[N-]S(=O)(=O)c2ccc(SC)cc2)cc1OC (optimized conformer: 33.333364988701184 kcal/mol)

>  <smiles>  (22) 
COc1ccc(CCNS(=O)(=O)c2ccc(SC)cc2)cc1OC

>  <score_type>  (22) 
oracle

>  <origin>  (22) 
adgpu

>  <m_score__min__energy>  (22) 
-8.9399999999999995

>  <m_primary>  (22) 
energy

$$$$
22:0
     RDKit          3D

 23 24  0  0  0  0  0  0  0  0999 V2000
   -9.0130   18.7080  -31.9120 C   0  0  0  0  0  0  0  0  0  0  0  0
   -8.3240   20.0470  -31.9320 C   0  0  0  0  0  0  0  0  0  0  0  0
   -8.8700   21.1250  -31.2230 C   0  0  0  0  0  0  0  0  0  0  0  0
   -8.2310   22.3620  -31.2380 C   0  0  0  0  0  0  0  0  0  0  0  0
   -7.0480   22.5020  -31.9710 C   0  0  0  0  0  0  0  0  0  0  0  0
   -6.3110   23.8070  -31.9900 C   0  0  0  0  0  0  0  0  0  0  0  0
   -6.6440   24.7580  -30.4680 S   0  0  0  0  0  0  0  0  0  0  0  0
   -4.9640   24.6500  -29.8550 C   0  0  0  0  0  0  0  0  0  0  0  0
   -4.6200   23.9800  -28.7390 N   0  0  0  0  0  0  0  0  0  0  0  0
   -3.2880   24.1770  -28.7020 C   0  0  0  0  0  0  0  0  0  0  0  0
   -2.8530   24.9240  -29.7330 N   0  0  0  0  0  0  0  0  0  0  0  0
   -3.9120   25.2240  -30.4620 N   0  0  0  0  0  0  0  0  0  0  0  0
   -6.5490   21.4630  -32.6350 O   0  0  0  0  0  0  0  0  0  0  0  0
   -7.1240   20.2640  -32.6470 C   0  0  0  0  0  0  0  0  0  0  0  0
   -6.4010   19.0660  -33.5000 S   0  0  0  0  0  0  0  0  0  0  0  0
   -9.1744   18.3942  -30.8701 H   0  0  0  0  0  0  0  0  0  0  0  0
   -9.9825   18.7868  -32.4256 H   0  0  0  0  0  0  0  0  0  0  0  0
   -8.3853   17.9649  -32.4256 H   0  0  0  0  0  0  0  0  0  0  0  0
   -9.8028   20.9942  -30.6549 H   0  0  0  0  0  0  0  0  0  0  0  0
   -8.6494   23.2145  -30.6829 H   0  0  0  0  0  0  0  0  0  0  0  0
   -5.2312   23.6109  -32.0643 H   0  0  0  0  0  0  0  0  0  0  0  0
   -6.6527   24.3936  -32.8555 H   0  0  0  0  0  0  0  0  0  0  0  0
   -2.6306   23.7731  -27.9180 H   0  0  0  0  0  0  0  0  0  0  0  0
  1  2  1  0
  2  3  2  0
  3  4  1  0
  4  5  2  0
  5  6  1  0
  6  7  1  0
  7  8  1  0
  8  9  1  0
  9 10  2  0
 10 11  1  0
 11 12  1  0
  5 13  1  0
 13 14  1  0
 14 15  2  0
 14  2  1  0
 12  8  2  0
  1 16  1  0
  1 17  1  0
  1 18  1  0
  3 19  1  0
  4 20  1  0
  6 21  1  0
  6 22  1  0
 10 23  1  0
M  CHG  1  11  -1
M  END
>  <UniqueID>  (23) 
23

>  <SMILES>  (23) 
Cc1ccc(CSc2nc[n-]n2)oc1=S

>  <Energy>  (23) 
52.46599392562741

>  <Genealogy>  (23) 
Cc1ccc(CSc2nc[n-]n2)oc1=S (protonated)
Cc1ccc(CSc2nc[n-]n2)oc1=S (3D coordinates assigned)
Cc1ccc(CSc2nc[n-]n2)oc1=S (optimized conformer: 52.46599392562741 kcal/mol)

>  <smiles>  (23) 
Cc1ccc(CSc2nc[nH]n2)oc1=S

>  <score_type>  (23) 
oracle

>  <origin>  (23) 
adgpu

>  <m_score__min__energy>  (23) 
-8.0800000000000001

>  <m_primary>  (23) 
energy

$$$$
23:0
     RDKit          3D

 52 55  0  0  0  0  0  0  0  0999 V2000
   -4.2750   25.6510  -30.8410 O   0  0  0  0  0  0  0  0  0  0  0  0
   -5.3390   24.9830  -30.0160 S   0  0  0  0  0  0  0  0  0  0  0  0
   -6.3380   26.0310  -29.6140 O   0  0  0  0  0  0  0  0  0  0  0  0
   -4.6650   24.2890  -28.5720 N   0  0  0  0  0  0  0  0  0  0  0  0
   -3.4970   23.4580  -28.4890 C   0  0  0  0  0  0  0  0  0  0  0  0
   -3.5570   22.1250  -28.0470 C   0  0  0  0  0  0  0  0  0  0  0  0
   -2.3940   21.3430  -27.9640 C   0  0  0  0  0  0  0  0  0  0  0  0
   -1.1590   21.8820  -28.3870 C   0  0  0  0  0  0  0  0  0  0  0  0
   -1.1040   23.2120  -28.8290 C   0  0  0  0  0  0  0  0  0  0  0  0
   -2.2630   23.9910  -28.8860 C   0  0  0  0  0  0  0  0  0  0  0  0
   -2.1820   25.3050  -29.3340 O   0  0  0  0  0  0  0  0  0  0  0  0
    0.1250   21.0900  -28.2890 C   0  0  0  0  0  0  0  0  0  0  0  0
   -0.1230   19.5820  -28.2090 C   0  0  0  0  0  0  0  0  0  0  0  0
   -1.1750   19.2740  -27.1450 C   0  0  0  0  0  0  0  0  0  0  0  0
   -2.5210   19.9010  -27.5230 C   0  0  0  0  0  0  0  0  0  0  0  0
   -6.1540   23.7270  -30.9470 C   0  0  0  0  0  0  0  0  0  0  0  0
   -7.5460   23.7370  -31.0900 C   0  0  0  0  0  0  0  0  0  0  0  0
   -8.1900   22.7050  -31.7780 C   0  0  0  0  0  0  0  0  0  0  0  0
   -7.4520   21.6420  -32.3080 C   0  0  0  0  0  0  0  0  0  0  0  0
   -8.1230   20.6240  -32.9770 O   0  0  0  0  0  0  0  0  0  0  0  0
   -6.0520   21.6130  -32.1560 C   0  0  0  0  0  0  0  0  0  0  0  0
   -5.0790   20.2450  -32.7210 S   0  0  0  0  0  0  0  0  0  0  0  0
   -4.1260   20.7030  -33.7880 O   0  0  0  0  0  0  0  0  0  0  0  0
   -4.2630   19.7180  -31.5730 O   0  0  0  0  0  0  0  0  0  0  0  0
   -6.0820   18.9540  -33.3490 N   0  0  0  0  0  0  0  0  0  0  0  0
   -6.6260   18.1040  -32.2680 C   0  0  0  0  0  0  0  0  0  0  0  0
   -5.8980   16.7510  -32.1770 C   0  0  0  0  0  0  0  0  0  0  0  0
   -5.9690   15.9950  -33.3760 O   0  0  0  0  0  0  0  0  0  0  0  0
   -5.9790   16.7910  -34.5570 C   0  0  0  0  0  0  0  0  0  0  0  0
   -5.3550   18.1850  -34.3790 C   0  0  0  0  0  0  0  0  0  0  0  0
   -5.4130   22.6770  -31.5040 C   0  0  0  0  0  0  0  0  0  0  0  0
   -4.5264   21.6896  -27.7629 H   0  0  0  0  0  0  0  0  0  0  0  0
   -0.1401   23.6458  -29.1335 H   0  0  0  0  0  0  0  0  0  0  0  0
    0.7382   21.3003  -29.1777 H   0  0  0  0  0  0  0  0  0  0  0  0
    0.6367   21.3948  -27.3642 H   0  0  0  0  0  0  0  0  0  0  0  0
   -0.4775   19.2201  -29.1854 H   0  0  0  0  0  0  0  0  0  0  0  0
    0.8170   19.0783  -27.9394 H   0  0  0  0  0  0  0  0  0  0  0  0
   -1.2949   18.1839  -27.0595 H   0  0  0  0  0  0  0  0  0  0  0  0
   -0.8435   19.6958  -26.1847 H   0  0  0  0  0  0  0  0  0  0  0  0
   -2.9606   19.3192  -28.3466 H   0  0  0  0  0  0  0  0  0  0  0  0
   -3.1573   19.8843  -26.6259 H   0  0  0  0  0  0  0  0  0  0  0  0
   -8.1353   24.5600  -30.6594 H   0  0  0  0  0  0  0  0  0  0  0  0
   -9.2826   22.7290  -31.9032 H   0  0  0  0  0  0  0  0  0  0  0  0
   -6.5139   18.6328  -31.3100 H   0  0  0  0  0  0  0  0  0  0  0  0
   -7.6847   17.9059  -32.4916 H   0  0  0  0  0  0  0  0  0  0  0  0
   -4.8394   16.9388  -31.9445 H   0  0  0  0  0  0  0  0  0  0  0  0
   -6.3964   16.1644  -31.3912 H   0  0  0  0  0  0  0  0  0  0  0  0
   -5.4168   16.2579  -35.3378 H   0  0  0  0  0  0  0  0  0  0  0  0
   -7.0342   16.9474  -34.8255 H   0  0  0  0  0  0  0  0  0  0  0  0
   -4.3044   18.0740  -34.0725 H   0  0  0  0  0  0  0  0  0  0  0  0
   -5.4183   18.7258  -35.3348 H   0  0  0  0  0  0  0  0  0  0  0  0
   -4.3156   22.6873  -31.4289 H   0  0  0  0  0  0  0  0  0  0  0  0
  1  2  2  0
  2  3  2  0
  2  4  1  0
  4  5  1  0
  5  6  2  0
  6  7  1  0
  7  8  2  0
  8  9  1  0
  9 10  2  0
 10 11  1  0
  8 12  1  0
 12 13  1  0
 13 14  1  0
 14 15  1  0
  2 16  1  0
 16 17  2  0
 17 18  1  0
 18 19  2  0
 19 20  1  0
 19 21  1  0
 21 22  1  0
 22 23  2  0
 22 24  2  0
 22 25  1  0
 25 26  1  0
 26 27  1  0
 27 28  1  0
 28 29  1  0
 29 30  1  0
 21 31  2  0
 10  5  1  0
 31 16  1  0
 15  7  1  0
 30 25  1  0
  6 32  1  0
  9 33  1  0
 12 34  1  0
 12 35  1  0
 13 36  1  0
 13 37  1  0
 14 38  1  0
 14 39  1  0
 15 40  1  0
 15 41  1  0
 17 42  1  0
 18 43  1  0
 26 44  1  0
 26 45  1  0
 27 46  1  0
 27 47  1  0
 29 48  1  0
 29 49  1  0
 30 50  1  0
 30 51  1  0
 31 52  1  0
M  CHG  3   4  -1  11  -1  20  -1
M  END
>  <UniqueID>  (24) 
24

>  <SMILES>  (24) 
O=S(=O)([N-]c1cc2c(cc1[O-])CCCC2)c1ccc([O-])c(S(=O)(=O)N2CCOCC2)c1

>  <Energy>  (24) 
67.81508926590257

>  <Genealogy>  (24) 
O=S(=O)([N-]c1cc2c(cc1[O-])CCCC2)c1ccc([O-])c(S(=O)(=O)N2CCOCC2)c1 (protonated)
O=S(=O)([N-]c1cc2c(cc1[O-])CCCC2)c1ccc([O-])c(S(=O)(=O)N2CCOCC2)c1 (3D coordinates assigned)
O=S(=O)([N-]c1cc2c(cc1[O-])CCCC2)c1ccc([O-])c(S(=O)(=O)N2CCOCC2)c1 (nonaromatic ring conformer: 67.81508926590257 kcal/mol)

>  <smiles>  (24) 
O=S(=O)(Nc1cc2c(cc1O)CCCC2)c1ccc(O)c(S(=O)(=O)N2CCOCC2)c1

>  <score_type>  (24) 
oracle

>  <origin>  (24) 
adgpu

>  <m_score__min__energy>  (24) 
-14.640000000000001

>  <m_primary>  (24) 
energy

$$$$
24:0
     RDKit          3D

 54 57  0  0  0  0  0  0  0  0999 V2000
   -0.0480   20.0470  -30.3020 O   0  0  0  0  0  0  0  0  0  0  0  0
   -0.4610   21.0350  -30.9680 C   0  0  0  0  0  0  0  0  0  0  0  0
   -0.6280   20.9140  -32.4510 C   0  0  0  0  0  0  0  0  0  0  0  0
   -2.0760   20.6840  -32.8040 C   0  0  0  0  0  0  0  0  0  0  0  0
   -2.8910   21.7700  -32.8810 N   0  0  0  0  0  0  0  0  0  0  0  0
   -4.1770   21.6720  -33.2130 N   0  0  0  0  0  0  0  0  0  0  0  0
   -4.7510   20.4790  -33.5010 C   0  0  0  0  0  0  0  0  0  0  0  0
   -5.9730   20.4410  -33.8090 O   0  0  0  0  0  0  0  0  0  0  0  0
   -3.9770   19.3080  -33.4520 C   0  0  0  0  0  0  0  0  0  0  0  0
   -4.5330   18.0490  -33.7540 C   0  0  0  0  0  0  0  0  0  0  0  0
   -3.7440   16.9000  -33.7030 C   0  0  0  0  0  0  0  0  0  0  0  0
   -2.3990   16.9890  -33.3500 C   0  0  0  0  0  0  0  0  0  0  0  0
   -1.8310   18.2290  -33.0450 C   0  0  0  0  0  0  0  0  0  0  0  0
   -2.6100   19.4050  -33.0950 C   0  0  0  0  0  0  0  0  0  0  0  0
   -0.7190   22.2890  -30.3270 N   0  0  0  0  0  0  0  0  0  0  0  0
   -1.9110   22.6380  -29.6090 C   0  0  0  0  0  0  0  0  0  0  0  0
   -1.9710   22.5910  -28.2060 C   0  0  0  0  0  0  0  0  0  0  0  0
   -3.1620   22.9030  -27.5430 C   0  0  0  0  0  0  0  0  0  0  0  0
   -4.3000   23.2520  -28.2720 C   0  0  0  0  0  0  0  0  0  0  0  0
   -4.2570   23.2850  -29.6720 C   0  0  0  0  0  0  0  0  0  0  0  0
   -5.6940   23.7310  -30.5940 S   0  0  0  0  0  0  0  0  0  0  0  0
   -6.8130   24.0480  -29.6410 O   0  0  0  0  0  0  0  0  0  0  0  0
   -5.4020   24.9740  -31.3890 O   0  0  0  0  0  0  0  0  0  0  0  0
   -6.1890   22.4450  -31.6740 N   0  0  0  0  0  0  0  0  0  0  0  0
   -6.6790   21.3010  -30.8710 C   0  0  0  0  0  0  0  0  0  0  0  0
   -7.5840   20.3050  -31.6360 C   0  0  0  0  0  0  0  0  0  0  0  0
   -9.0050   20.8090  -31.9460 C   0  0  0  0  0  0  0  0  0  0  0  0
   -9.3550   22.2130  -31.3920 C   0  0  0  0  0  0  0  0  0  0  0  0
   -8.5410   23.3810  -31.9740 C   0  0  0  0  0  0  0  0  0  0  0  0
   -7.1980   22.9740  -32.6200 C   0  0  0  0  0  0  0  0  0  0  0  0
   -3.0630   22.9670  -30.3350 C   0  0  0  0  0  0  0  0  0  0  0  0
   -0.2816   21.8412  -32.9308 H   0  0  0  0  0  0  0  0  0  0  0  0
   -0.0356   20.0580  -32.8064 H   0  0  0  0  0  0  0  0  0  0  0  0
   -5.5947   17.9719  -34.0314 H   0  0  0  0  0  0  0  0  0  0  0  0
   -4.1847   15.9209  -33.9421 H   0  0  0  0  0  0  0  0  0  0  0  0
   -1.7816   16.0794  -33.3112 H   0  0  0  0  0  0  0  0  0  0  0  0
   -0.7692   18.2889  -32.7639 H   0  0  0  0  0  0  0  0  0  0  0  0
   -1.0790   22.3081  -27.6278 H   0  0  0  0  0  0  0  0  0  0  0  0
   -3.2022   22.8733  -26.4441 H   0  0  0  0  0  0  0  0  0  0  0  0
   -5.2332   23.5018  -27.7459 H   0  0  0  0  0  0  0  0  0  0  0  0
   -5.3190   22.1810  -32.1900 H   0  0  0  0  0  0  0  0  0  0  0  0
   -5.8051   20.7487  -30.4951 H   0  0  0  0  0  0  0  0  0  0  0  0
   -7.3010   21.7303  -30.0718 H   0  0  0  0  0  0  0  0  0  0  0  0
   -7.0932   20.0647  -32.5907 H   0  0  0  0  0  0  0  0  0  0  0  0
   -7.7082   19.4366  -30.9723 H   0  0  0  0  0  0  0  0  0  0  0  0
   -9.1224   20.8381  -33.0393 H   0  0  0  0  0  0  0  0  0  0  0  0
   -9.6882   20.1089  -31.4428 H   0  0  0  0  0  0  0  0  0  0  0  0
  -10.4178   22.4039  -31.6019 H   0  0  0  0  0  0  0  0  0  0  0  0
   -9.1109   22.1820  -30.3199 H   0  0  0  0  0  0  0  0  0  0  0  0
   -9.1538   23.8768  -32.7412 H   0  0  0  0  0  0  0  0  0  0  0  0
   -8.2919   24.0379  -31.1276 H   0  0  0  0  0  0  0  0  0  0  0  0
   -7.4015   22.1980  -33.3726 H   0  0  0  0  0  0  0  0  0  0  0  0
   -6.7696   23.8921  -33.0483 H   0  0  0  0  0  0  0  0  0  0  0  0
   -3.0307   22.9760  -31.4345 H   0  0  0  0  0  0  0  0  0  0  0  0
  1  2  2  0
  2  3  1  0
  3  4  1  0
  4  5  2  0
  5  6  1  0
  6  7  1  0
  7  8  2  0
  7  9  1  0
  9 10  2  0
 10 11  1  0
 11 12  2  0
 12 13  1  0
 13 14  2  0
  2 15  1  0
 15 16  1  0
 16 17  2  0
 17 18  1  0
 18 19  2  0
 19 20  1  0
 20 21  1  0
 21 22  2  0
 21 23  2  0
 21 24  1  0
 24 25  1  0
 25 26  1  0
 26 27  1  0
 27 28  1  0
 28 29  1  0
 29 30  1  0
 20 31  2  0
 14  4  1  0
 31 16  1  0
 14  9  1  0
 30 24  1  0
  3 32  1  0
  3 33  1  0
 10 34  1  0
 11 35  1  0
 12 36  1  0
 13 37  1  0
 17 38  1  0
 18 39  1  0
 19 40  1  0
 24 41  1  0
 25 42  1  0
 25 43  1  0
 26 44  1  0
 26 45  1  0
 27 46  1  0
 27 47  1  0
 28 48  1  0
 28 49  1  0
 29 50  1  0
 29 51  1  0
 30 52  1  0
 30 53  1  0
 31 54  1  0
M  CHG  3   6  -1  15  -1  24   1
M  END
>  <UniqueID>  (25) 
25

>  <SMILES>  (25) 
O=C(Cc1n[n-]c(=O)c2ccccc12)[N-]c1cccc(S(=O)(=O)[NH+]2CCCCCC2)c1

>  <Energy>  (25) 
76.71311817587511

>  <Genealogy>  (25) 
O=C(Cc1n[n-]c(=O)c2ccccc12)[N-]c1cccc(S(=O)(=O)[NH+]2CCCCCC2)c1 (protonated)
O=C(Cc1n[n-]c(=O)c2ccccc12)[N-]c1cccc(S(=O)(=O)[NH+]2CCCCCC2)c1 (3D coordinates assigned)
O=C(Cc1n[n-]c(=O)c2ccccc12)[N-]c1cccc(S(=O)(=O)[NH+]2CCCCCC2)c1 (nonaromatic ring conformer: 76.71311817587511 kcal/mol)

>  <smiles>  (25) 
O=C(Cc1n[nH]c(=O)c2ccccc12)Nc1cccc(S(=O)(=O)N2CCCCCC2)c1

>  <score_type>  (25) 
oracle

>  <origin>  (25) 
adgpu

>  <m_score__min__energy>  (25) 
-10.81

>  <m_primary>  (25) 
energy

$$$$
25:0
     RDKit          3D

 41 43  0  0  0  0  0  0  0  0999 V2000
   -2.1080   25.7130  -25.8520 C   0  0  0  0  0  0  0  0  0  0  0  0
   -0.8280   26.3720  -26.1330 N   0  0  0  0  0  0  0  0  0  0  0  0
    0.1890   25.9280  -25.1700 C   0  0  0  0  0  0  0  0  0  0  0  0
   -0.3070   26.0100  -27.7620 S   0  0  0  0  0  0  0  0  0  0  0  0
    1.1900   26.1250  -27.8320 O   0  0  0  0  0  0  0  0  0  0  0  0
   -0.8710   27.0380  -28.7020 O   0  0  0  0  0  0  0  0  0  0  0  0
   -0.7990   24.3700  -28.2690 C   0  0  0  0  0  0  0  0  0  0  0  0
   -0.0140   23.2320  -27.9630 C   0  0  0  0  0  0  0  0  0  0  0  0
    1.5040   23.3200  -27.0770 Cl  0  0  0  0  0  0  0  0  0  0  0  0
   -0.4350   21.9640  -28.3730 C   0  0  0  0  0  0  0  0  0  0  0  0
   -1.6180   21.8050  -29.0910 C   0  0  0  0  0  0  0  0  0  0  0  0
   -2.3980   22.9210  -29.4270 C   0  0  0  0  0  0  0  0  0  0  0  0
   -3.6320   22.7610  -30.1510 N   0  0  0  0  0  0  0  0  0  0  0  0
   -4.0380   21.5270  -30.7660 C   0  0  0  0  0  0  0  0  0  0  0  0
   -3.1920   20.6130  -30.9650 O   0  0  0  0  0  0  0  0  0  0  0  0
   -5.4300   21.3230  -31.2100 C   0  0  0  0  0  0  0  0  0  0  0  0
   -6.4720   22.2440  -31.0820 C   0  0  0  0  0  0  0  0  0  0  0  0
   -7.5730   21.6110  -31.6170 C   0  0  0  0  0  0  0  0  0  0  0  0
   -8.8900   22.0460  -31.7550 C   0  0  0  0  0  0  0  0  0  0  0  0
   -9.8130   21.1630  -32.3460 C   0  0  0  0  0  0  0  0  0  0  0  0
   -9.4020   19.8810  -32.7770 C   0  0  0  0  0  0  0  0  0  0  0  0
   -8.0650   19.4720  -32.6210 C   0  0  0  0  0  0  0  0  0  0  0  0
   -7.1740   20.3690  -32.0340 C   0  0  0  0  0  0  0  0  0  0  0  0
   -5.8670   20.1780  -31.7900 N   0  0  0  0  0  0  0  0  0  0  0  0
   -1.9930   24.1980  -29.0040 C   0  0  0  0  0  0  0  0  0  0  0  0
   -2.7770   25.3000  -29.3360 O   0  0  0  0  0  0  0  0  0  0  0  0
   -2.2513   25.6392  -24.7639 H   0  0  0  0  0  0  0  0  0  0  0  0
   -2.9274   26.3013  -26.2907 H   0  0  0  0  0  0  0  0  0  0  0  0
   -2.1052   24.7043  -26.2907 H   0  0  0  0  0  0  0  0  0  0  0  0
   -0.1802   26.0892  -24.1464 H   0  0  0  0  0  0  0  0  0  0  0  0
    0.3949   24.8581  -25.3213 H   0  0  0  0  0  0  0  0  0  0  0  0
    1.1136   26.5043  -25.3213 H   0  0  0  0  0  0  0  0  0  0  0  0
    0.1744   21.0821  -28.1261 H   0  0  0  0  0  0  0  0  0  0  0  0
   -1.9420   20.7990  -29.3960 H   0  0  0  0  0  0  0  0  0  0  0  0
   -4.2180   23.6110  -30.3150 H   0  0  0  0  0  0  0  0  0  0  0  0
   -6.4243   23.2540  -30.6488 H   0  0  0  0  0  0  0  0  0  0  0  0
   -9.1975   23.0454  -31.4136 H   0  0  0  0  0  0  0  0  0  0  0  0
  -10.8609   21.4725  -32.4733 H   0  0  0  0  0  0  0  0  0  0  0  0
  -10.1321   19.1990  -33.2372 H   0  0  0  0  0  0  0  0  0  0  0  0
   -7.7335   18.4766  -32.9515 H   0  0  0  0  0  0  0  0  0  0  0  0
   -5.3070   19.3220  -32.0030 H   0  0  0  0  0  0  0  0  0  0  0  0
  1  2  1  0
  2  3  1  0
  2  4  1  0
  4  5  2  0
  4  6  2  0
  4  7  1  0
  7  8  2  0
  8  9  1  0
  8 10  1  0
 10 11  2  0
 11 12  1  0
 12 13  1  0
 13 14  1  0
 14 15  2  0
 14 16  1  0
 16 17  2  0
 17 18  1  0
 18 19  2  0
 19 20  1  0
 20 21  2  0
 21 22  1  0
 22 23  2  0
 23 24  1  0
 12 25  2  0
 25 26  1  0
 25  7  1  0
 24 16  1  0
 23 18  1  0
  1 27  1  0
  1 28  1  0
  1 29  1  0
  3 30  1  0
  3 31  1  0
  3 32  1  0
 10 33  1  0
 11 34  1  0
 13 35  1  0
 17 36  1  0
 19 37  1  0
 20 38  1  0
 21 39  1  0
 22 40  1  0
 24 41  1  0
M  CHG  1  26  -1
M  END
>  <UniqueID>  (26) 
26

>  <SMILES>  (26) 
CN(C)S(=O)(=O)c1c(Cl)ccc(NC(=O)c2cc3ccccc3[nH]2)c1[O-]

>  <Energy>  (26) 
81.85850255101622

>  <Genealogy>  (26) 
CN(C)S(=O)(=O)c1c(Cl)ccc(NC(=O)c2cc3ccccc3[nH]2)c1[O-] (protonated)
CN(C)S(=O)(=O)c1c(Cl)ccc(NC(=O)c2cc3ccccc3[nH]2)c1[O-] (3D coordinates assigned)
CN(C)S(=O)(=O)c1c(Cl)ccc(NC(=O)c2cc3ccccc3[nH]2)c1[O-] (optimized conformer: 81.85850255101622 kcal/mol)

>  <smiles>  (26) 
CN(C)S(=O)(=O)c1c(Cl)ccc(NC(=O)c2cc3ccccc3[nH]2)c1O

>  <score_type>  (26) 
oracle

>  <origin>  (26) 
adgpu

>  <m_score__min__energy>  (26) 
-10.050000000000001

>  <m_primary>  (26) 
energy

$$$$
26:0
     RDKit          3D

 33 34  0  0  0  0  0  0  0  0999 V2000
   -9.4350   19.2440  -32.6020 C   0  0  0  0  0  0  0  0  0  0  0  0
   -8.0020   19.3840  -32.3150 N   0  0  0  0  0  0  0  0  0  0  0  0
   -7.1260   18.2180  -32.4880 C   0  0  0  0  0  0  0  0  0  0  0  0
   -7.4580   20.6560  -31.8710 C   0  0  0  0  0  0  0  0  0  0  0  0
   -6.2470   21.1500  -32.3970 C   0  0  0  0  0  0  0  0  0  0  0  0
   -5.7270   22.3740  -31.9660 C   0  0  0  0  0  0  0  0  0  0  0  0
   -6.3890   23.1250  -30.9920 C   0  0  0  0  0  0  0  0  0  0  0  0
   -5.8280   24.3860  -30.5970 N   0  0  0  0  0  0  0  0  0  0  0  0
   -4.4350   24.6920  -30.4370 C   0  0  0  0  0  0  0  0  0  0  0  0
   -3.9370   25.6750  -31.0490 O   0  0  0  0  0  0  0  0  0  0  0  0
   -3.5870   23.8970  -29.5060 C   0  0  0  0  0  0  0  0  0  0  0  0
   -3.9990   22.6020  -29.1300 C   0  0  0  0  0  0  0  0  0  0  0  0
   -3.2250   21.8310  -28.2600 C   0  0  0  0  0  0  0  0  0  0  0  0
   -2.0290   22.3370  -27.7510 C   0  0  0  0  0  0  0  0  0  0  0  0
   -1.6060   23.6170  -28.1080 C   0  0  0  0  0  0  0  0  0  0  0  0
   -2.3730   24.4020  -28.9780 C   0  0  0  0  0  0  0  0  0  0  0  0
   -1.9160   25.6750  -29.2980 O   0  0  0  0  0  0  0  0  0  0  0  0
   -7.6090   22.6570  -30.4790 C   0  0  0  0  0  0  0  0  0  0  0  0
   -8.1340   21.4350  -30.9080 C   0  0  0  0  0  0  0  0  0  0  0  0
   -9.9947   19.1893  -31.6566 H   0  0  0  0  0  0  0  0  0  0  0  0
   -9.7793   20.1128  -33.1822 H   0  0  0  0  0  0  0  0  0  0  0  0
   -9.6047   18.3250  -33.1822 H   0  0  0  0  0  0  0  0  0  0  0  0
   -6.8339   17.8292  -31.5013 H   0  0  0  0  0  0  0  0  0  0  0  0
   -7.6621   17.4362  -33.0461 H   0  0  0  0  0  0  0  0  0  0  0  0
   -6.2259   18.5152  -33.0461 H   0  0  0  0  0  0  0  0  0  0  0  0
   -5.7050   20.5657  -33.1552 H   0  0  0  0  0  0  0  0  0  0  0  0
   -4.7876   22.7492  -32.3980 H   0  0  0  0  0  0  0  0  0  0  0  0
   -4.9407   22.1944  -29.5264 H   0  0  0  0  0  0  0  0  0  0  0  0
   -3.5593   20.8224  -27.9755 H   0  0  0  0  0  0  0  0  0  0  0  0
   -1.4197   21.7266  -27.0682 H   0  0  0  0  0  0  0  0  0  0  0  0
   -0.6629   24.0130  -27.7033 H   0  0  0  0  0  0  0  0  0  0  0  0
   -8.1549   23.2557  -29.7350 H   0  0  0  0  0  0  0  0  0  0  0  0
   -9.0860   21.0760  -30.4898 H   0  0  0  0  0  0  0  0  0  0  0  0
  1  2  1  0
  2  3  1  0
  2  4  1  0
  4  5  2  0
  5  6  1  0
  6  7  2  0
  7  8  1  0
  8  9  1  0
  9 10  2  0
  9 11  1  0
 11 12  2  0
 12 13  1  0
 13 14  2  0
 14 15  1  0
 15 16  2  0
 16 17  1  0
  7 18  1  0
 18 19  2  0
 19  4  1  0
 16 11  1  0
  1 20  1  0
  1 21  1  0
  1 22  1  0
  3 23  1  0
  3 24  1  0
  3 25  1  0
  5 26  1  0
  6 27  1  0
 12 28  1  0
 13 29  1  0
 14 30  1  0
 15 31  1  0
 18 32  1  0
 19 33  1  0
M  CHG  2   8  -1  17  -1
M  END
>  <UniqueID>  (27) 
27

>  <SMILES>  (27) 
CN(C)c1ccc([N-]C(=O)c2ccccc2[O-])cc1

>  <Energy>  (27) 
41.37739652819393

>  <Genealogy>  (27) 
CN(C)c1ccc([N-]C(=O)c2ccccc2[O-])cc1 (protonated)
CN(C)c1ccc([N-]C(=O)c2ccccc2[O-])cc1 (3D coordinates assigned)
CN(C)c1ccc([N-]C(=O)c2ccccc2[O-])cc1 (optimized conformer: 41.37739652819393 kcal/mol)

>  <smiles>  (27) 
CN(C)c1ccc(NC(=O)c2ccccc2O)cc1

>  <score_type>  (27) 
oracle

>  <origin>  (27) 
adgpu

>  <m_score__min__energy>  (27) 
-11.07

>  <m_primary>  (27) 
energy

$$$$
27:0
     RDKit          3D

 57 60  0  0  0  0  0  0  0  0999 V2000
   -2.8880   25.1650  -26.5180 C   0  0  0  0  0  0  0  0  0  0  0  0
   -2.9100   23.7880  -27.1140 C   0  0  0  0  0  0  0  0  0  0  0  0
   -3.7430   23.3580  -28.1400 C   0  0  0  0  0  0  0  0  0  0  0  0
   -4.7820   24.1100  -28.7820 N   0  0  0  0  0  0  0  0  0  0  0  0
   -4.9070   24.2300  -30.5060 S   0  0  0  0  0  0  0  0  0  0  0  0
   -3.6140   23.8080  -31.1420 O   0  0  0  0  0  0  0  0  0  0  0  0
   -5.1780   25.6580  -30.8840 O   0  0  0  0  0  0  0  0  0  0  0  0
   -6.2470   23.2330  -31.0670 C   0  0  0  0  0  0  0  0  0  0  0  0
   -7.5460   23.7490  -31.1360 C   0  0  0  0  0  0  0  0  0  0  0  0
   -8.5870   22.9610  -31.6300 C   0  0  0  0  0  0  0  0  0  0  0  0
   -8.3450   21.6480  -32.0410 C   0  0  0  0  0  0  0  0  0  0  0  0
   -9.3730   20.8970  -32.5150 F   0  0  0  0  0  0  0  0  0  0  0  0
   -7.0490   21.1150  -31.9580 C   0  0  0  0  0  0  0  0  0  0  0  0
   -6.7440   19.4410  -32.4260 S   0  0  0  0  0  0  0  0  0  0  0  0
   -6.2550   18.6800  -31.2250 O   0  0  0  0  0  0  0  0  0  0  0  0
   -8.0140   18.8080  -32.9260 O   0  0  0  0  0  0  0  0  0  0  0  0
   -5.5410   19.4050  -33.6920 N   0  0  0  0  0  0  0  0  0  0  0  0
   -5.7700   18.2720  -34.6190 C   0  0  0  0  0  0  0  0  0  0  0  0
   -4.7250   17.1570  -34.4460 C   0  0  0  0  0  0  0  0  0  0  0  0
   -3.3960   17.6080  -34.6310 O   0  0  0  0  0  0  0  0  0  0  0  0
   -3.1600   18.9220  -34.1350 C   0  0  0  0  0  0  0  0  0  0  0  0
   -4.1910   19.4070  -33.1030 C   0  0  0  0  0  0  0  0  0  0  0  0
   -6.0010   21.9170  -31.4830 C   0  0  0  0  0  0  0  0  0  0  0  0
   -3.2970   22.0900  -28.4500 C   0  0  0  0  0  0  0  0  0  0  0  0
   -3.7470   21.3390  -29.3570 O   0  0  0  0  0  0  0  0  0  0  0  0
   -2.2630   21.7720  -27.6490 N   0  0  0  0  0  0  0  0  0  0  0  0
   -1.5170   20.5460  -27.7010 C   0  0  0  0  0  0  0  0  0  0  0  0
   -1.9640   19.4210  -26.9950 C   0  0  0  0  0  0  0  0  0  0  0  0
   -1.2370   18.2300  -27.0440 C   0  0  0  0  0  0  0  0  0  0  0  0
   -0.0560   18.1600  -27.7870 C   0  0  0  0  0  0  0  0  0  0  0  0
    0.4020   19.2830  -28.4800 C   0  0  0  0  0  0  0  0  0  0  0  0
   -0.3260   20.4760  -28.4370 C   0  0  0  0  0  0  0  0  0  0  0  0
   -2.0240   22.7990  -26.8330 N   0  0  0  0  0  0  0  0  0  0  0  0
   -0.8530   22.9220  -25.9580 C   0  0  0  0  0  0  0  0  0  0  0  0
   -2.8892   25.0896  -25.4206 H   0  0  0  0  0  0  0  0  0  0  0  0
   -1.9813   25.6930  -26.8483 H   0  0  0  0  0  0  0  0  0  0  0  0
   -3.7774   25.7217  -26.8483 H   0  0  0  0  0  0  0  0  0  0  0  0
   -5.5990   24.4330  -28.2210 H   0  0  0  0  0  0  0  0  0  0  0  0
   -7.7471   24.7771  -30.8005 H   0  0  0  0  0  0  0  0  0  0  0  0
   -9.6035   23.3762  -31.6960 H   0  0  0  0  0  0  0  0  0  0  0  0
   -6.7690   17.8537  -34.4266 H   0  0  0  0  0  0  0  0  0  0  0  0
   -5.6866   18.6554  -35.6466 H   0  0  0  0  0  0  0  0  0  0  0  0
   -4.8169   16.7457  -33.4299 H   0  0  0  0  0  0  0  0  0  0  0  0
   -4.9242   16.3982  -35.2171 H   0  0  0  0  0  0  0  0  0  0  0  0
   -2.1668   18.9379  -33.6624 H   0  0  0  0  0  0  0  0  0  0  0  0
   -3.2362   19.6009  -34.9971 H   0  0  0  0  0  0  0  0  0  0  0  0
   -4.1744   18.7372  -32.2306 H   0  0  0  0  0  0  0  0  0  0  0  0
   -3.9356   20.4317  -32.7952 H   0  0  0  0  0  0  0  0  0  0  0  0
   -4.9798   21.5109  -31.4366 H   0  0  0  0  0  0  0  0  0  0  0  0
   -2.8886   19.4763  -26.4016 H   0  0  0  0  0  0  0  0  0  0  0  0
   -1.5947   17.3454  -26.4967 H   0  0  0  0  0  0  0  0  0  0  0  0
    0.5137   17.2198  -27.8263 H   0  0  0  0  0  0  0  0  0  0  0  0
    1.3354   19.2288  -29.0595 H   0  0  0  0  0  0  0  0  0  0  0  0
    0.0363   21.3606  -28.9813 H   0  0  0  0  0  0  0  0  0  0  0  0
   -1.1755   22.8881  -24.9069 H   0  0  0  0  0  0  0  0  0  0  0  0
   -0.1589   22.0918  -26.1555 H   0  0  0  0  0  0  0  0  0  0  0  0
   -0.3465   23.8783  -26.1555 H   0  0  0  0  0  0  0  0  0  0  0  0
  1  2  1  0
  2  3  2  0
  3  4  1  0
  4  5  1  0
  5  6  2  0
  5  7  2  0
  5  8  1  0
  8  9  2  0
  9 10  1  0
 10 11  2  0
 11 12  1  0
 11 13  1  0
 13 14  1  0
 14 15  2  0
 14 16  2  0
 14 17  1  0
 17 18  1  0
 18 19  1  0
 19 20  1  0
 20 21  1  0
 21 22  1  0
 13 23  2  0
  3 24  1  0
 24 25  2  0
 24 26  1  0
 26 27  1  0
 27 28  2  0
 28 29  1  0
 29 30  2  0
 30 31  1  0
 31 32  2  0
 26 33  1  0
 33 34  1  0
 33  2  1  0
 23  8  1  0
 32 27  1  0
 22 17  1  0
  1 35  1  0
  1 36  1  0
  1 37  1  0
  4 38  1  0
  9 39  1  0
 10 40  1  0
 18 41  1  0
 18 42  1  0
 19 43  1  0
 19 44  1  0
 21 45  1  0
 21 46  1  0
 22 47  1  0
 22 48  1  0
 23 49  1  0
 28 50  1  0
 29 51  1  0
 30 52  1  0
 31 53  1  0
 32 54  1  0
 34 55  1  0
 34 56  1  0
 34 57  1  0
M  END
>  <UniqueID>  (28) 
28

>  <SMILES>  (28) 
Cc1c(NS(=O)(=O)c2ccc(F)c(S(=O)(=O)N3CCOCC3)c2)c(=O)n(-c2ccccc2)n1C

>  <Energy>  (28) 
117.89040244780065

>  <Genealogy>  (28) 
Cc1c(NS(=O)(=O)c2ccc(F)c(S(=O)(=O)N3CCOCC3)c2)c(=O)n(-c2ccccc2)n1C (3D coordinates assigned)
Cc1c(NS(=O)(=O)c2ccc(F)c(S(=O)(=O)N3CCOCC3)c2)c(=O)n(-c2ccccc2)n1C (nonaromatic ring conformer: 117.89040244780065 kcal/mol)

>  <smiles>  (28) 
Cc1c(NS(=O)(=O)c2ccc(F)c(S(=O)(=O)N3CCOCC3)c2)c(=O)n(-c2ccccc2)n1C

>  <score_type>  (28) 
oracle

>  <origin>  (28) 
adgpu

>  <m_score__min__energy>  (28) 
-11.42

>  <m_primary>  (28) 
energy

$$$$
28:0
     RDKit          3D

 48 50  0  0  0  0  0  0  0  0999 V2000
   -0.4540   26.8750  -23.2960 C   0  0  0  0  0  0  0  0  0  0  0  0
   -0.9680   27.3200  -24.6030 N   0  0  0  0  0  0  0  0  0  0  0  0
   -2.0030   26.4070  -25.1300 C   0  0  0  0  0  0  0  0  0  0  0  0
   -1.4280   25.0550  -25.5980 C   0  0  0  0  0  0  0  0  0  0  0  0
   -0.0200   25.1800  -26.2170 C   0  0  0  0  0  0  0  0  0  0  0  0
    0.2230   23.9830  -27.5330 S   0  0  0  0  0  0  0  0  0  0  0  0
    0.8390   22.7360  -26.9630 O   0  0  0  0  0  0  0  0  0  0  0  0
    1.1730   24.5380  -28.5560 O   0  0  0  0  0  0  0  0  0  0  0  0
   -1.3540   23.5710  -28.2460 C   0  0  0  0  0  0  0  0  0  0  0  0
   -1.9840   22.3200  -28.0340 C   0  0  0  0  0  0  0  0  0  0  0  0
   -1.2770   21.0350  -27.0610 Cl  0  0  0  0  0  0  0  0  0  0  0  0
   -3.2190   22.0520  -28.6320 C   0  0  0  0  0  0  0  0  0  0  0  0
   -3.8400   23.0040  -29.4370 C   0  0  0  0  0  0  0  0  0  0  0  0
   -3.2350   24.2490  -29.6520 C   0  0  0  0  0  0  0  0  0  0  0  0
   -3.8610   25.2490  -30.4700 N   0  0  0  0  0  0  0  0  0  0  0  0
   -5.2500   25.2840  -30.8290 C   0  0  0  0  0  0  0  0  0  0  0  0
   -6.0420   25.9730  -30.1350 O   0  0  0  0  0  0  0  0  0  0  0  0
   -5.7610   24.5580  -31.9540 N   0  0  0  0  0  0  0  0  0  0  0  0
   -6.4760   23.3160  -31.8960 C   0  0  0  0  0  0  0  0  0  0  0  0
   -7.8500   23.2680  -31.6000 C   0  0  0  0  0  0  0  0  0  0  0  0
   -8.5140   22.0400  -31.5290 C   0  0  0  0  0  0  0  0  0  0  0  0
   -7.8170   20.8510  -31.7720 C   0  0  0  0  0  0  0  0  0  0  0  0
   -8.4990   19.5860  -31.6950 C   0  0  0  0  0  0  0  0  0  0  0  0
   -9.0480   18.5690  -31.6320 N   0  0  0  0  0  0  0  0  0  0  0  0
   -6.4560   20.8960  -32.0980 C   0  0  0  0  0  0  0  0  0  0  0  0
   -5.7910   22.1250  -32.1670 C   0  0  0  0  0  0  0  0  0  0  0  0
   -1.9840   24.5190  -29.0810 C   0  0  0  0  0  0  0  0  0  0  0  0
   -1.3730   25.7430  -29.3410 O   0  0  0  0  0  0  0  0  0  0  0  0
    0.2350   26.6020  -26.7260 C   0  0  0  0  0  0  0  0  0  0  0  0
    0.1190   27.6190  -25.5730 C   0  0  0  0  0  0  0  0  0  0  0  0
   -1.0217   27.3665  -22.4921 H   0  0  0  0  0  0  0  0  0  0  0  0
   -0.5661   25.7841  -23.2100 H   0  0  0  0  0  0  0  0  0  0  0  0
    0.6096   27.1422  -23.2100 H   0  0  0  0  0  0  0  0  0  0  0  0
   -2.7417   26.2187  -24.3370 H   0  0  0  0  0  0  0  0  0  0  0  0
   -2.4576   26.8934  -26.0056 H   0  0  0  0  0  0  0  0  0  0  0  0
   -1.3713   24.3796  -24.7317 H   0  0  0  0  0  0  0  0  0  0  0  0
   -2.0974   24.6657  -26.3793 H   0  0  0  0  0  0  0  0  0  0  0  0
    0.7100   24.9640  -25.4230 H   0  0  0  0  0  0  0  0  0  0  0  0
   -3.7051   21.0795  -28.4651 H   0  0  0  0  0  0  0  0  0  0  0  0
   -4.8090   22.7774  -29.9056 H   0  0  0  0  0  0  0  0  0  0  0  0
   -8.4048   24.2013  -31.4235 H   0  0  0  0  0  0  0  0  0  0  0  0
   -9.5854   22.0082  -31.2819 H   0  0  0  0  0  0  0  0  0  0  0  0
   -5.9087   19.9635  -32.3002 H   0  0  0  0  0  0  0  0  0  0  0  0
   -4.7247   22.1559  -32.4355 H   0  0  0  0  0  0  0  0  0  0  0  0
    1.2460   26.6564  -27.1559 H   0  0  0  0  0  0  0  0  0  0  0  0
   -0.5169   26.8454  -27.4911 H   0  0  0  0  0  0  0  0  0  0  0  0
    1.0741   27.6323  -25.0274 H   0  0  0  0  0  0  0  0  0  0  0  0
   -0.1241   28.5892  -26.0308 H   0  0  0  0  0  0  0  0  0  0  0  0
  1  2  1  0
  2  3  1  0
  3  4  1  0
  4  5  1  0
  5  6  1  0
  6  7  2  0
  6  8  2  0
  6  9  1  0
  9 10  2  0
 10 11  1  0
 10 12  1  0
 12 13  2  0
 13 14  1  0
 14 15  1  0
 15 16  1  0
 16 17  2  0
 16 18  1  0
 18 19  1  0
 19 20  2  0
 20 21  1  0
 21 22  2  0
 22 23  1  0
 23 24  3  0
 22 25  1  0
 25 26  2  0
 14 27  2  0
 27 28  1  0
  5 29  1  0
 29 30  1  0
 30  2  1  0
 27  9  1  0
 26 19  1  0
  1 31  1  0
  1 32  1  0
  1 33  1  0
  3 34  1  0
  3 35  1  0
  4 36  1  0
  4 37  1  0
  5 38  1  0
 12 39  1  0
 13 40  1  0
 20 41  1  0
 21 42  1  0
 25 43  1  0
 26 44  1  0
 29 45  1  0
 29 46  1  0
 30 47  1  0
 30 48  1  0
M  CHG  3  15  -1  18  -1  28  -1
M  END
>  <UniqueID>  (29) 
29

>  <SMILES>  (29) 
CN1CCC(S(=O)(=O)c2c(Cl)ccc([N-]C(=O)[N-]c3ccc(C#N)cc3)c2[O-])CC1

>  <Energy>  (29) 
65.26271378661725

>  <Genealogy>  (29) 
CN1CCC(S(=O)(=O)c2c(Cl)ccc([N-]C(=O)[N-]c3ccc(C#N)cc3)c2[O-])CC1 (protonated)
CN1CCC(S(=O)(=O)c2c(Cl)ccc([N-]C(=O)[N-]c3ccc(C#N)cc3)c2[O-])CC1 (3D coordinates assigned)
CN1CCC(S(=O)(=O)c2c(Cl)ccc([N-]C(=O)[N-]c3ccc(C#N)cc3)c2[O-])CC1 (nonaromatic ring conformer: 65.26271378661725 kcal/mol)

>  <smiles>  (29) 
CN1CCC(S(=O)(=O)c2c(Cl)ccc(NC(=O)Nc3ccc(C#N)cc3)c2O)CC1

>  <score_type>  (29) 
oracle

>  <origin>  (29) 
adgpu

>  <m_score__min__energy>  (29) 
-16.02

>  <m_primary>  (29) 
energy

$$$$
29:0
     RDKit          3D

 62 65  0  0  0  0  0  0  0  0999 V2000
    0.6170   27.5010  -23.1180 C   0  0  0  0  0  0  0  0  0  0  0  0
   -0.5790   27.0390  -23.7390 O   0  0  0  0  0  0  0  0  0  0  0  0
   -0.6390   26.4650  -25.0200 C   0  0  0  0  0  0  0  0  0  0  0  0
   -0.5760   25.0710  -25.2140 C   0  0  0  0  0  0  0  0  0  0  0  0
   -0.6580   24.5300  -26.4980 C   0  0  0  0  0  0  0  0  0  0  0  0
   -0.7980   25.3670  -27.6140 C   0  0  0  0  0  0  0  0  0  0  0  0
   -0.9710   24.7710  -28.9860 C   0  0  0  0  0  0  0  0  0  0  0  0
   -2.1700   23.9230  -29.0140 N   0  0  0  0  0  0  0  0  0  0  0  0
   -3.2040   24.1390  -27.9970 C   0  0  0  0  0  0  0  0  0  0  0  0
   -4.4070   23.2120  -28.1970 C   0  0  0  0  0  0  0  0  0  0  0  0
   -4.7870   23.0990  -29.6270 N   0  0  0  0  0  0  0  0  0  0  0  0
   -5.2320   24.4200  -30.1360 C   0  0  0  0  0  0  0  0  0  0  0  0
   -3.7220   22.4280  -30.4510 C   0  0  0  0  0  0  0  0  0  0  0  0
   -3.9470   22.6770  -31.9900 C   0  0  0  0  0  0  0  0  0  0  0  0
   -3.4160   21.5330  -32.8710 C   0  0  0  0  0  0  0  0  0  0  0  0
   -4.0640   20.2350  -32.5590 N   0  0  0  0  0  0  0  0  0  0  0  0
   -4.9940   19.7560  -33.6060 C   0  0  0  0  0  0  0  0  0  0  0  0
   -6.4230   19.6570  -33.1350 C   0  0  0  0  0  0  0  0  0  0  0  0
   -7.1020   18.4460  -33.0100 C   0  0  0  0  0  0  0  0  0  0  0  0
   -8.6490   18.7790  -32.4390 S   0  0  0  0  0  0  0  0  0  0  0  0
   -8.3840   20.4370  -32.3680 C   0  0  0  0  0  0  0  0  0  0  0  0
   -9.4090   21.4460  -31.9770 C   0  0  0  0  0  0  0  0  0  0  0  0
   -7.1430   20.7590  -32.7900 N   0  0  0  0  0  0  0  0  0  0  0  0
   -4.6350   20.1390  -31.1960 C   0  0  0  0  0  0  0  0  0  0  0  0
   -3.7600   20.8800  -30.1820 C   0  0  0  0  0  0  0  0  0  0  0  0
   -2.3410   22.9600  -30.0740 C   0  0  0  0  0  0  0  0  0  0  0  0
   -1.3270   22.5490  -30.7020 O   0  0  0  0  0  0  0  0  0  0  0  0
   -0.8580   26.7570  -27.4270 C   0  0  0  0  0  0  0  0  0  0  0  0
   -0.7690   27.3100  -26.1390 C   0  0  0  0  0  0  0  0  0  0  0  0
   -0.8660   28.8000  -25.9550 C   0  0  0  0  0  0  0  0  0  0  0  0
    0.5031   27.4570  -22.0248 H   0  0  0  0  0  0  0  0  0  0  0  0
    1.4593   26.8636  -23.4249 H   0  0  0  0  0  0  0  0  0  0  0  0
    0.8120   28.5392  -23.4249 H   0  0  0  0  0  0  0  0  0  0  0  0
   -0.4613   24.4039  -24.3469 H   0  0  0  0  0  0  0  0  0  0  0  0
   -0.6125   23.4395  -26.6353 H   0  0  0  0  0  0  0  0  0  0  0  0
   -1.0785   25.5794  -29.7242 H   0  0  0  0  0  0  0  0  0  0  0  0
   -0.0892   24.1603  -29.2299 H   0  0  0  0  0  0  0  0  0  0  0  0
   -2.7706   23.9494  -27.0039 H   0  0  0  0  0  0  0  0  0  0  0  0
   -3.5563   25.1773  -28.0854 H   0  0  0  0  0  0  0  0  0  0  0  0
   -4.1523   22.2118  -27.8166 H   0  0  0  0  0  0  0  0  0  0  0  0
   -5.2607   23.6387  -27.6502 H   0  0  0  0  0  0  0  0  0  0  0  0
   -5.4555   25.0835  -29.2876 H   0  0  0  0  0  0  0  0  0  0  0  0
   -4.4340   24.8646  -30.7489 H   0  0  0  0  0  0  0  0  0  0  0  0
   -6.1363   24.2911  -30.7489 H   0  0  0  0  0  0  0  0  0  0  0  0
   -5.0261   22.7874  -32.1726 H   0  0  0  0  0  0  0  0  0  0  0  0
   -3.3883   23.5852  -32.2602 H   0  0  0  0  0  0  0  0  0  0  0  0
   -3.6083   21.7800  -33.9255 H   0  0  0  0  0  0  0  0  0  0  0  0
   -2.3391   21.4278  -32.6732 H   0  0  0  0  0  0  0  0  0  0  0  0
   -4.9538   20.4546  -34.4548 H   0  0  0  0  0  0  0  0  0  0  0  0
   -4.6730   18.7423  -33.8877 H   0  0  0  0  0  0  0  0  0  0  0  0
   -6.6981   17.4498  -33.2432 H   0  0  0  0  0  0  0  0  0  0  0  0
   -9.4673   21.5034  -30.8800 H   0  0  0  0  0  0  0  0  0  0  0  0
   -9.1280   22.4297  -32.3812 H   0  0  0  0  0  0  0  0  0  0  0  0
  -10.3882   21.1496  -32.3812 H   0  0  0  0  0  0  0  0  0  0  0  0
   -5.6414   20.5831  -31.1953 H   0  0  0  0  0  0  0  0  0  0  0  0
   -4.6822   19.0780  -30.9094 H   0  0  0  0  0  0  0  0  0  0  0  0
   -4.1616   20.7054  -29.1729 H   0  0  0  0  0  0  0  0  0  0  0  0
   -2.7338   20.4953  -30.2762 H   0  0  0  0  0  0  0  0  0  0  0  0
   -0.9758   27.4193  -28.2974 H   0  0  0  0  0  0  0  0  0  0  0  0
   -0.8814   29.0366  -24.8809 H   0  0  0  0  0  0  0  0  0  0  0  0
    0.0025   29.2848  -26.4248 H   0  0  0  0  0  0  0  0  0  0  0  0
   -1.7900   29.1681  -26.4248 H   0  0  0  0  0  0  0  0  0  0  0  0
  1  2  1  0
  2  3  1  0
  3  4  2  0
  4  5  1  0
  5  6  2  0
  6  7  1  0
  7  8  1  0
  8  9  1  0
  9 10  1  0
 10 11  1  0
 11 12  1  0
 11 13  1  0
 13 14  1  0
 14 15  1  0
 15 16  1  0
 16 17  1  0
 17 18  1  0
 18 19  2  0
 19 20  1  0
 20 21  1  0
 21 22  1  0
 21 23  2  0
 16 24  1  0
 24 25  1  0
 13 26  1  0
 26 27  2  0
  6 28  1  0
 28 29  2  0
 29 30  1  0
 29  3  1  0
 26  8  1  0
 25 13  1  0
 23 18  1  0
  1 31  1  0
  1 32  1  0
  1 33  1  0
  4 34  1  0
  5 35  1  0
  7 36  1  0
  7 37  1  0
  9 38  1  0
  9 39  1  0
 10 40  1  0
 10 41  1  0
 12 42  1  0
 12 43  1  0
 12 44  1  0
 14 45  1  0
 14 46  1  0
 15 47  1  0
 15 48  1  0
 17 49  1  0
 17 50  1  0
 19 51  1  0
 22 52  1  0
 22 53  1  0
 22 54  1  0
 24 55  1  0
 24 56  1  0
 25 57  1  0
 25 58  1  0
 28 59  1  0
 30 60  1  0
 30 61  1  0
 30 62  1  0
M  END
>  <UniqueID>  (30) 
30

>  <SMILES>  (30) 
COc1ccc(CN2CCN(C)C3(CCN(Cc4csc(C)n4)CC3)C2=O)cc1C

>  <Energy>  (30) 
113.44686916560566

>  <Genealogy>  (30) 
COc1ccc(CN2CCN(C)C3(CCN(Cc4csc(C)n4)CC3)C2=O)cc1C (3D coordinates assigned)
COc1ccc(CN2CCN(C)C3(CCN(Cc4csc(C)n4)CC3)C2=O)cc1C (nonaromatic ring conformer: 113.44686916560566 kcal/mol)

>  <smiles>  (30) 
COc1ccc(CN2CCN(C)C3(CCN(Cc4csc(C)n4)CC3)C2=O)cc1C

>  <score_type>  (30) 
oracle

>  <origin>  (30) 
adgpu

>  <m_score__min__energy>  (30) 
-8.5099999999999998

>  <m_primary>  (30) 
energy

$$$$
30:0
     RDKit          3D

 47 49  0  0  0  0  0  0  0  0999 V2000
   -2.9840   24.8810  -27.7990 O   0  0  0  0  0  0  0  0  0  0  0  0
   -2.5720   24.9230  -28.9900 C   0  0  0  0  0  0  0  0  0  0  0  0
   -1.1890   24.6920  -29.2800 N   0  0  0  0  0  0  0  0  0  0  0  0
   -0.5850   23.3670  -29.3430 C   0  0  0  0  0  0  0  0  0  0  0  0
   -1.6090   22.3470  -29.7600 C   0  0  0  0  0  0  0  0  0  0  0  0
   -2.1430   21.4470  -28.8280 C   0  0  0  0  0  0  0  0  0  0  0  0
   -3.0760   20.4960  -29.2480 C   0  0  0  0  0  0  0  0  0  0  0  0
   -3.4570   20.4440  -30.5510 N   0  0  0  0  0  0  0  0  0  0  0  0
   -2.9530   21.2980  -31.4840 C   0  0  0  0  0  0  0  0  0  0  0  0
   -3.4020   21.2040  -32.9140 C   0  0  0  0  0  0  0  0  0  0  0  0
   -3.8770   19.9330  -33.1910 F   0  0  0  0  0  0  0  0  0  0  0  0
   -4.4110   22.1210  -33.1440 F   0  0  0  0  0  0  0  0  0  0  0  0
   -2.3390   21.4760  -33.7540 F   0  0  0  0  0  0  0  0  0  0  0  0
   -2.0150   22.2680  -31.0990 C   0  0  0  0  0  0  0  0  0  0  0  0
   -3.4950   25.2560  -30.0330 N   0  0  0  0  0  0  0  0  0  0  0  0
   -4.6900   24.5410  -30.3730 C   0  0  0  0  0  0  0  0  0  0  0  0
   -5.0860   23.4680  -29.5630 C   0  0  0  0  0  0  0  0  0  0  0  0
   -6.2360   22.7370  -29.8670 C   0  0  0  0  0  0  0  0  0  0  0  0
   -6.9960   23.0570  -30.9980 C   0  0  0  0  0  0  0  0  0  0  0  0
   -8.4450   22.1250  -31.3690 S   0  0  0  0  0  0  0  0  0  0  0  0
   -9.4500   22.9950  -32.0730 O   0  0  0  0  0  0  0  0  0  0  0  0
   -9.0400   21.6270  -30.0810 O   0  0  0  0  0  0  0  0  0  0  0  0
   -8.0240   20.7740  -32.3930 N   0  0  0  0  0  0  0  0  0  0  0  0
   -9.0980   19.7550  -32.4030 C   0  0  0  0  0  0  0  0  0  0  0  0
   -8.7280   18.5110  -31.5770 C   0  0  0  0  0  0  0  0  0  0  0  0
   -7.5350   17.8800  -32.0180 O   0  0  0  0  0  0  0  0  0  0  0  0
   -6.5490   18.7870  -32.4990 C   0  0  0  0  0  0  0  0  0  0  0  0
   -6.7150   20.2280  -31.9880 C   0  0  0  0  0  0  0  0  0  0  0  0
   -6.5920   24.1110  -31.8270 C   0  0  0  0  0  0  0  0  0  0  0  0
   -5.4400   24.8430  -31.5230 C   0  0  0  0  0  0  0  0  0  0  0  0
    0.2365   23.3768  -30.0745 H   0  0  0  0  0  0  0  0  0  0  0  0
   -0.1993   23.1013  -28.3477 H   0  0  0  0  0  0  0  0  0  0  0  0
   -1.8300   21.4891  -27.7743 H   0  0  0  0  0  0  0  0  0  0  0  0
   -3.5030   19.7880  -28.5225 H   0  0  0  0  0  0  0  0  0  0  0  0
   -1.6005   22.9628  -31.8443 H   0  0  0  0  0  0  0  0  0  0  0  0
   -4.4861   23.1997  -28.6809 H   0  0  0  0  0  0  0  0  0  0  0  0
   -6.5459   21.9067  -29.2154 H   0  0  0  0  0  0  0  0  0  0  0  0
  -10.0121   20.1999  -31.9829 H   0  0  0  0  0  0  0  0  0  0  0  0
   -9.2498   19.4353  -33.4445 H   0  0  0  0  0  0  0  0  0  0  0  0
   -8.5954   18.8148  -30.5281 H   0  0  0  0  0  0  0  0  0  0  0  0
   -9.5451   17.7845  -31.6973 H   0  0  0  0  0  0  0  0  0  0  0  0
   -5.5607   18.4210  -32.1840 H   0  0  0  0  0  0  0  0  0  0  0  0
   -6.6609   18.8246  -33.5926 H   0  0  0  0  0  0  0  0  0  0  0  0
   -6.6451   20.2328  -30.8902 H   0  0  0  0  0  0  0  0  0  0  0  0
   -5.9202   20.8524  -32.4222 H   0  0  0  0  0  0  0  0  0  0  0  0
   -7.1826   24.3638  -32.7199 H   0  0  0  0  0  0  0  0  0  0  0  0
   -5.1191   25.6592  -32.1870 H   0  0  0  0  0  0  0  0  0  0  0  0
  1  2  2  0
  2  3  1  0
  3  4  1  0
  4  5  1  0
  5  6  2  0
  6  7  1  0
  7  8  2  0
  8  9  1  0
  9 10  1  0
 10 11  1  0
 10 12  1  0
 10 13  1  0
  9 14  2  0
  2 15  1  0
 15 16  1  0
 16 17  2  0
 17 18  1  0
 18 19  2  0
 19 20  1  0
 20 21  2  0
 20 22  2  0
 20 23  1  0
 23 24  1  0
 24 25  1  0
 25 26  1  0
 26 27  1  0
 27 28  1  0
 19 29  1  0
 29 30  2  0
 14  5  1  0
 30 16  1  0
 28 23  1  0
  4 31  1  0
  4 32  1  0
  6 33  1  0
  7 34  1  0
 14 35  1  0
 17 36  1  0
 18 37  1  0
 24 38  1  0
 24 39  1  0
 25 40  1  0
 25 41  1  0
 27 42  1  0
 27 43  1  0
 28 44  1  0
 28 45  1  0
 29 46  1  0
 30 47  1  0
M  CHG  2   3  -1  15  -1
M  END
>  <UniqueID>  (31) 
31

>  <SMILES>  (31) 
O=C([N-]Cc1ccnc(C(F)(F)F)c1)[N-]c1ccc(S(=O)(=O)N2CCOCC2)cc1

>  <Energy>  (31) 
61.71634621774683

>  <Genealogy>  (31) 
O=C([N-]Cc1ccnc(C(F)(F)F)c1)[N-]c1ccc(S(=O)(=O)N2CCOCC2)cc1 (protonated)
O=C([N-]Cc1ccnc(C(F)(F)F)c1)[N-]c1ccc(S(=O)(=O)N2CCOCC2)cc1 (3D coordinates assigned)
O=C([N-]Cc1ccnc(C(F)(F)F)c1)[N-]c1ccc(S(=O)(=O)N2CCOCC2)cc1 (nonaromatic ring conformer: 61.71634621774683 kcal/mol)

>  <smiles>  (31) 
O=C(NCc1ccnc(C(F)(F)F)c1)Nc1ccc(S(=O)(=O)N2CCOCC2)cc1

>  <score_type>  (31) 
oracle

>  <origin>  (31) 
adgpu

>  <m_score__min__energy>  (31) 
-11.77

>  <m_primary>  (31) 
energy

$$$$
31:0
     RDKit          3D

 31 34  0  0  0  0  0  0  0  0999 V2000
   -9.9160   21.5840  -30.5860 O   0  0  0  0  0  0  0  0  0  0  0  0
   -8.9400   21.0820  -31.2010 C   0  0  0  0  0  0  0  0  0  0  0  0
   -7.8700   21.8930  -31.5900 C   0  0  0  0  0  0  0  0  0  0  0  0
   -6.8010   21.3270  -32.2890 C   0  0  0  0  0  0  0  0  0  0  0  0
   -5.7200   22.1730  -32.7100 N   0  0  0  0  0  0  0  0  0  0  0  0
   -4.9620   23.0040  -31.8100 C   0  0  0  0  0  0  0  0  0  0  0  0
   -5.5010   24.2540  -31.4050 C   0  0  0  0  0  0  0  0  0  0  0  0
   -4.7900   25.0960  -30.5270 C   0  0  0  0  0  0  0  0  0  0  0  0
   -3.5470   24.6630  -30.0810 C   0  0  0  0  0  0  0  0  0  0  0  0
   -2.7010   25.2960  -29.2510 N   0  0  0  0  0  0  0  0  0  0  0  0
   -1.6340   24.5130  -29.1080 N   0  0  0  0  0  0  0  0  0  0  0  0
   -1.8010   23.3890  -29.8450 C   0  0  0  0  0  0  0  0  0  0  0  0
   -3.0200   23.4700  -30.4720 C   0  0  0  0  0  0  0  0  0  0  0  0
   -3.6860   22.6090  -31.3380 C   0  0  0  0  0  0  0  0  0  0  0  0
   -6.8080   19.9390  -32.5440 C   0  0  0  0  0  0  0  0  0  0  0  0
   -5.7400   19.2760  -33.1780 C   0  0  0  0  0  0  0  0  0  0  0  0
   -5.8080   17.9000  -33.4130 C   0  0  0  0  0  0  0  0  0  0  0  0
   -6.9310   17.1710  -33.0130 C   0  0  0  0  0  0  0  0  0  0  0  0
   -7.9880   17.8130  -32.3640 C   0  0  0  0  0  0  0  0  0  0  0  0
   -7.9320   19.1890  -32.1190 C   0  0  0  0  0  0  0  0  0  0  0  0
   -8.9350   19.7830  -31.4790 O   0  0  0  0  0  0  0  0  0  0  0  0
   -7.8697   22.9661  -31.3482 H   0  0  0  0  0  0  0  0  0  0  0  0
   -5.3800   22.0670  -33.6920 H   0  0  0  0  0  0  0  0  0  0  0  0
   -6.4856   24.5687  -31.7814 H   0  0  0  0  0  0  0  0  0  0  0  0
   -5.2045   26.0629  -30.2056 H   0  0  0  0  0  0  0  0  0  0  0  0
   -1.0858   22.5573  -29.9269 H   0  0  0  0  0  0  0  0  0  0  0  0
   -3.2369   21.6533  -31.6461 H   0  0  0  0  0  0  0  0  0  0  0  0
   -4.8498   19.8424  -33.4892 H   0  0  0  0  0  0  0  0  0  0  0  0
   -4.9736   17.3885  -33.9152 H   0  0  0  0  0  0  0  0  0  0  0  0
   -6.9826   16.0899  -33.2096 H   0  0  0  0  0  0  0  0  0  0  0  0
   -8.8674   17.2346  -32.0445 H   0  0  0  0  0  0  0  0  0  0  0  0
  1  2  2  0
  2  3  1  0
  3  4  2  0
  4  5  1  0
  5  6  1  0
  6  7  2  0
  7  8  1  0
  8  9  2  0
  9 10  1  0
 10 11  1  0
 11 12  2  0
 12 13  1  0
 13 14  2  0
  4 15  1  0
 15 16  2  0
 16 17  1  0
 17 18  2  0
 18 19  1  0
 19 20  2  0
 20 21  1  0
 21  2  1  0
 14  6  1  0
 20 15  1  0
 13  9  1  0
  3 22  1  0
  5 23  1  0
  7 24  1  0
  8 25  1  0
 12 26  1  0
 14 27  1  0
 16 28  1  0
 17 29  1  0
 18 30  1  0
 19 31  1  0
M  CHG  1  10  -1
M  END
>  <UniqueID>  (32) 
32

>  <SMILES>  (32) 
O=c1cc(Nc2ccc3[n-]ncc3c2)c2ccccc2o1

>  <Energy>  (32) 
85.49209764751546

>  <Genealogy>  (32) 
O=c1cc(Nc2ccc3[n-]ncc3c2)c2ccccc2o1 (protonated)
O=c1cc(Nc2ccc3[n-]ncc3c2)c2ccccc2o1 (3D coordinates assigned)
O=c1cc(Nc2ccc3[n-]ncc3c2)c2ccccc2o1 (optimized conformer: 85.49209764751546 kcal/mol)

>  <smiles>  (32) 
O=c1cc(Nc2ccc3[nH]ncc3c2)c2ccccc2o1

>  <score_type>  (32) 
oracle

>  <origin>  (32) 
adgpu

>  <m_score__min__energy>  (32) 
-9.6699999999999999

>  <m_primary>  (32) 
energy

$$$$
32:0
     RDKit          3D

 59 63  0  0  0  0  0  0  0  0999 V2000
   -0.4940   29.7660  -24.1000 H   0  0  0  0  0  0  0  0  0  0  0  0
   -0.8860   29.6500  -25.0270 O   0  0  0  0  0  0  0  0  0  0  0  0
   -0.8120   28.4340  -25.7030 C   0  0  0  0  0  0  0  0  0  0  0  0
   -0.4910   28.3930  -27.0670 C   0  0  0  0  0  0  0  0  0  0  0  0
   -0.2967   29.3281  -27.6127 H   0  0  0  0  0  0  0  0  0  0  0  0
   -0.4170   27.1680  -27.7360 C   0  0  0  0  0  0  0  0  0  0  0  0
   -0.1793   27.1428  -28.8097 H   0  0  0  0  0  0  0  0  0  0  0  0
   -0.6460   25.9660  -27.0390 C   0  0  0  0  0  0  0  0  0  0  0  0
   -0.6170   24.6870  -27.6960 N   0  0  0  0  0  0  0  0  0  0  0  0
   -1.5630   24.1540  -28.4170 C   0  0  0  0  0  0  0  0  0  0  0  0
   -2.7010   24.8470  -28.7030 N   0  0  0  0  0  0  0  0  0  0  0  0
   -3.6840   24.3170  -29.4760 C   0  0  0  0  0  0  0  0  0  0  0  0
   -4.8440   25.0440  -29.7520 C   0  0  0  0  0  0  0  0  0  0  0  0
   -4.9715   26.0556  -29.3391 H   0  0  0  0  0  0  0  0  0  0  0  0
   -5.8430   24.4840  -30.5540 C   0  0  0  0  0  0  0  0  0  0  0  0
   -6.7533   25.0611  -30.7735 H   0  0  0  0  0  0  0  0  0  0  0  0
   -5.6940   23.1880  -31.0830 C   0  0  0  0  0  0  0  0  0  0  0  0
   -6.7190   22.6200  -31.9210 N   0  0  0  0  0  0  0  0  0  0  0  0
   -7.6410   23.4710  -32.6770 C   0  0  0  0  0  0  0  0  0  0  0  0
   -7.4479   24.5251  -32.4288 H   0  0  0  0  0  0  0  0  0  0  0  0
   -7.4835   23.3017  -33.7524 H   0  0  0  0  0  0  0  0  0  0  0  0
   -9.1010   23.1250  -32.3240 C   0  0  0  0  0  0  0  0  0  0  0  0
   -9.4050   23.7415  -31.4652 H   0  0  0  0  0  0  0  0  0  0  0  0
   -9.7028   23.3260  -33.2226 H   0  0  0  0  0  0  0  0  0  0  0  0
   -9.3140   21.6960  -31.9730 N   0  0  0  0  0  0  0  0  0  0  0  0
   -9.4860   21.5080  -30.5230 C   0  0  0  0  0  0  0  0  0  0  0  0
   -8.8394   22.2148  -29.9824 H   0  0  0  0  0  0  0  0  0  0  0  0
  -10.5362   21.6906  -30.2516 H   0  0  0  0  0  0  0  0  0  0  0  0
   -9.2109   20.4781  -30.2516 H   0  0  0  0  0  0  0  0  0  0  0  0
   -8.2770   20.7970  -32.5240 C   0  0  0  0  0  0  0  0  0  0  0  0
   -8.5052   19.7640  -32.2228 H   0  0  0  0  0  0  0  0  0  0  0  0
   -8.2824   20.9009  -33.6191 H   0  0  0  0  0  0  0  0  0  0  0  0
   -6.8720   21.1640  -32.0170 C   0  0  0  0  0  0  0  0  0  0  0  0
   -6.7191   20.7186  -31.0229 H   0  0  0  0  0  0  0  0  0  0  0  0
   -6.1272   20.7763  -32.7277 H   0  0  0  0  0  0  0  0  0  0  0  0
   -4.5180   22.4660  -30.8090 C   0  0  0  0  0  0  0  0  0  0  0  0
   -4.3834   21.4578  -31.2279 H   0  0  0  0  0  0  0  0  0  0  0  0
   -3.5200   23.0260  -30.0060 C   0  0  0  0  0  0  0  0  0  0  0  0
   -2.3810   22.3380  -29.7380 N   0  0  0  0  0  0  0  0  0  0  0  0
   -1.3970   22.8600  -28.9520 C   0  0  0  0  0  0  0  0  0  0  0  0
   -0.2980   22.1970  -28.7250 N   0  0  0  0  0  0  0  0  0  0  0  0
    0.0060   20.8580  -29.1510 C   0  0  0  0  0  0  0  0  0  0  0  0
    0.2690   19.8860  -28.1780 C   0  0  0  0  0  0  0  0  0  0  0  0
    0.2624   20.1639  -27.1137 H   0  0  0  0  0  0  0  0  0  0  0  0
    0.5400   18.5650  -28.5480 C   0  0  0  0  0  0  0  0  0  0  0  0
    0.7721   17.8164  -27.7762 H   0  0  0  0  0  0  0  0  0  0  0  0
    0.5170   18.1910  -29.9000 C   0  0  0  0  0  0  0  0  0  0  0  0
    0.8450   16.7830  -30.3010 C   0  0  0  0  0  0  0  0  0  0  0  0
    0.9881   16.1689  -29.3996 H   0  0  0  0  0  0  0  0  0  0  0  0
    0.0190   16.3701  -30.8987 H   0  0  0  0  0  0  0  0  0  0  0  0
    1.7684   16.7776  -30.8987 H   0  0  0  0  0  0  0  0  0  0  0  0
    0.2390   19.1580  -30.8770 C   0  0  0  0  0  0  0  0  0  0  0  0
    0.2333   18.8756  -31.9401 H   0  0  0  0  0  0  0  0  0  0  0  0
   -0.0310   20.4790  -30.5070 C   0  0  0  0  0  0  0  0  0  0  0  0
   -0.2733   21.2252  -31.2780 H   0  0  0  0  0  0  0  0  0  0  0  0
   -0.9980   26.0170  -25.6840 C   0  0  0  0  0  0  0  0  0  0  0  0
   -1.2191   25.0861  -25.1413 H   0  0  0  0  0  0  0  0  0  0  0  0
   -1.0700   27.2440  -25.0170 C   0  0  0  0  0  0  0  0  0  0  0  0
   -1.3306   27.2726  -23.9487 H   0  0  0  0  0  0  0  0  0  0  0  0
  1  2  1  0
  2  3  1  0
  3  4  2  0
  4  5  1  0
  4  6  1  0
  6  7  1  0
  6  8  2  0
  8  9  1  0
  9 10  2  0
 10 11  1  0
 11 12  1  0
 12 13  2  0
 13 14  1  0
 13 15  1  0
 15 16  1  0
 15 17  2  0
 17 18  1  0
 18 19  1  0
 19 20  1  0
 19 21  1  0
 19 22  1  0
 22 23  1  0
 22 24  1  0
 22 25  1  0
 25 26  1  0
 26 27  1  0
 26 28  1  0
 26 29  1  0
 25 30  1  0
 30 31  1  0
 30 32  1  0
 30 33  1  0
 33 34  1  0
 33 35  1  0
 17 36  1  0
 36 37  1  0
 36 38  2  0
 38 39  1  0
 39 40  1  0
 40 41  2  0
 41 42  1  0
 42 43  2  0
 43 44  1  0
 43 45  1  0
 45 46  1  0
 45 47  2  0
 47 48  1  0
 48 49  1  0
 48 50  1  0
 48 51  1  0
 47 52  1  0
 52 53  1  0
 52 54  2  0
 54 55  1  0
  8 56  1  0
 56 57  1  0
 56 58  2  0
 58 59  1  0
 58  3  1  0
 40 10  1  0
 54 42  1  0
 38 12  1  0
 33 18  1  0
M  CHG  2  11  -1  39  -1
M  END
>  <UniqueID>  (33) 
33

>  <SMILES>  (33) 
Cc1ccc(/N=c2\[n-]c3cc(N4CCN(C)CC4)ccc3[n-]\c2=N/c2ccc(O)cc2)cc1

>  <Energy>  (33) 
91.43154020238546

>  <Genealogy>  (33) 
Cc1ccc(N=c2[n-]c3cc(N4CCN(C)CC4)ccc3[n-]c2=Nc2ccc(O)cc2)cc1 (protonated)
Cc1ccc(/N=c2\[n-]c3cc(N4CCN(C)CC4)ccc3[n-]\c2=N/c2ccc(O)cc2)cc1 (cis-trans isomerization)
Cc1ccc(/N=c2\[n-]c3cc(N4CCN(C)CC4)ccc3[n-]\c2=N/c2ccc(O)cc2)cc1 (3D coordinates assigned)
Cc1ccc(/N=c2\[n-]c3cc(N4CCN(C)CC4)ccc3[n-]\c2=N/c2ccc(O)cc2)cc1 (nonaromatic ring conformer: 91.43154020238546 kcal/mol)

>  <smiles>  (33) 
Cc1ccc(N=c2[nH]c3cc(N4CCN(C)CC4)ccc3[nH]c2=Nc2ccc(O)cc2)cc1

>  <score_type>  (33) 
oracle

>  <origin>  (33) 
adgpu

>  <m_score__min__energy>  (33) 
-9.6999999999999993

>  <m_primary>  (33) 
energy

$$$$
33:0
     RDKit          3D

 44 46  0  0  0  0  0  0  0  0999 V2000
   -3.5180   25.1980  -30.5840 N   0  0  0  0  0  0  0  0  0  0  0  0
   -5.1120   24.6190  -30.2510 S   0  0  0  0  0  0  0  0  0  0  0  0
   -6.1190   25.6670  -30.6400 O   0  0  0  0  0  0  0  0  0  0  0  0
   -5.2470   24.3450  -28.7790 O   0  0  0  0  0  0  0  0  0  0  0  0
   -5.4080   23.1460  -31.1700 C   0  0  0  0  0  0  0  0  0  0  0  0
   -6.5700   22.3930  -30.9510 C   0  0  0  0  0  0  0  0  0  0  0  0
   -6.7880   21.2150  -31.6710 C   0  0  0  0  0  0  0  0  0  0  0  0
   -5.8520   20.7840  -32.6160 C   0  0  0  0  0  0  0  0  0  0  0  0
   -4.6900   21.5410  -32.8550 C   0  0  0  0  0  0  0  0  0  0  0  0
   -3.6920   21.1230  -33.7980 N   0  0  0  0  0  0  0  0  0  0  0  0
   -2.9630   19.8880  -33.7780 C   0  0  0  0  0  0  0  0  0  0  0  0
   -3.3220   18.9370  -34.5250 O   0  0  0  0  0  0  0  0  0  0  0  0
   -1.7470   19.7390  -32.9340 C   0  0  0  0  0  0  0  0  0  0  0  0
   -1.5900   18.5790  -32.1520 C   0  0  0  0  0  0  0  0  0  0  0  0
   -0.4600   18.4030  -31.3500 C   0  0  0  0  0  0  0  0  0  0  0  0
    0.5370   19.3890  -31.3040 C   0  0  0  0  0  0  0  0  0  0  0  0
    1.7110   19.2510  -30.4910 N   0  0  0  0  0  0  0  0  0  0  0  0
    1.7210   19.1050  -28.7640 S   0  0  0  0  0  0  0  0  0  0  0  0
    2.1810   17.7250  -28.3890 O   0  0  0  0  0  0  0  0  0  0  0  0
    2.6760   20.1120  -28.1870 O   0  0  0  0  0  0  0  0  0  0  0  0
    0.1080   19.4220  -28.1280 C   0  0  0  0  0  0  0  0  0  0  0  0
   -0.4990   20.6730  -28.3180 C   0  0  0  0  0  0  0  0  0  0  0  0
   -1.7690   20.9230  -27.7850 C   0  0  0  0  0  0  0  0  0  0  0  0
   -2.4370   19.9240  -27.0680 C   0  0  0  0  0  0  0  0  0  0  0  0
   -1.8390   18.6740  -26.8820 C   0  0  0  0  0  0  0  0  0  0  0  0
   -0.5680   18.4220  -27.4120 C   0  0  0  0  0  0  0  0  0  0  0  0
    0.3890   20.5440  -32.0770 C   0  0  0  0  0  0  0  0  0  0  0  0
   -0.7420   20.7320  -32.8850 C   0  0  0  0  0  0  0  0  0  0  0  0
   -0.8660   21.9120  -33.6200 O   0  0  0  0  0  0  0  0  0  0  0  0
   -4.4670   22.7080  -32.1130 C   0  0  0  0  0  0  0  0  0  0  0  0
   -3.6210   26.0280  -31.2110 H   0  0  0  0  0  0  0  0  0  0  0  0
   -7.3113   22.7297  -30.2114 H   0  0  0  0  0  0  0  0  0  0  0  0
   -7.6992   20.6249  -31.4935 H   0  0  0  0  0  0  0  0  0  0  0  0
   -6.0242   19.8516  -33.1736 H   0  0  0  0  0  0  0  0  0  0  0  0
   -2.3674   17.8010  -32.1728 H   0  0  0  0  0  0  0  0  0  0  0  0
   -0.3513   17.4866  -30.7514 H   0  0  0  0  0  0  0  0  0  0  0  0
    0.0232   21.4571  -28.8858 H   0  0  0  0  0  0  0  0  0  0  0  0
   -2.2422   21.9054  -27.9299 H   0  0  0  0  0  0  0  0  0  0  0  0
   -3.4348   20.1227  -26.6498 H   0  0  0  0  0  0  0  0  0  0  0  0
   -2.3666   17.8894  -26.3198 H   0  0  0  0  0  0  0  0  0  0  0  0
   -0.0981   17.4380  -27.2669 H   0  0  0  0  0  0  0  0  0  0  0  0
    1.1711   21.3171  -32.0513 H   0  0  0  0  0  0  0  0  0  0  0  0
   -1.6720   22.0900  -34.2080 H   0  0  0  0  0  0  0  0  0  0  0  0
   -3.5449   23.2864  -32.2715 H   0  0  0  0  0  0  0  0  0  0  0  0
  1  2  1  0
  2  3  2  0
  2  4  2  0
  2  5  1  0
  5  6  2  0
  6  7  1  0
  7  8  2  0
  8  9  1  0
  9 10  1  0
 10 11  1  0
 11 12  2  0
 11 13  1  0
 13 14  2  0
 14 15  1  0
 15 16  2  0
 16 17  1  0
 17 18  1  0
 18 19  2  0
 18 20  2  0
 18 21  1  0
 21 22  2  0
 22 23  1  0
 23 24  2  0
 24 25  1  0
 25 26  2  0
 16 27  1  0
 27 28  2  0
 28 29  1  0
  9 30  2  0
 30  5  1  0
 28 13  1  0
 26 21  1  0
  1 31  1  0
  6 32  1  0
  7 33  1  0
  8 34  1  0
 14 35  1  0
 15 36  1  0
 22 37  1  0
 23 38  1  0
 24 39  1  0
 25 40  1  0
 26 41  1  0
 27 42  1  0
 29 43  1  0
 30 44  1  0
M  CHG  3   1  -1  10  -1  17  -1
M  END
>  <UniqueID>  (34) 
34

>  <SMILES>  (34) 
[NH-]S(=O)(=O)c1cccc([N-]C(=O)c2ccc([N-]S(=O)(=O)c3ccccc3)cc2O)c1

>  <Energy>  (34) 
55.827677459863835

>  <Genealogy>  (34) 
[NH-]S(=O)(=O)c1cccc([N-]C(=O)c2ccc([N-]S(=O)(=O)c3ccccc3)cc2O)c1 (protonated)
[NH-]S(=O)(=O)c1cccc([N-]C(=O)c2ccc([N-]S(=O)(=O)c3ccccc3)cc2O)c1 (3D coordinates assigned)
[NH-]S(=O)(=O)c1cccc([N-]C(=O)c2ccc([N-]S(=O)(=O)c3ccccc3)cc2O)c1 (optimized conformer: 55.827677459863835 kcal/mol)

>  <smiles>  (34) 
NS(=O)(=O)c1cccc(NC(=O)c2ccc(NS(=O)(=O)c3ccccc3)cc2O)c1

>  <score_type>  (34) 
oracle

>  <origin>  (34) 
adgpu

>  <m_score__min__energy>  (34) 
-12

>  <m_primary>  (34) 
energy

$$$$
34:0
     RDKit          3D

 44 46  0  0  0  0  0  0  0  0999 V2000
   -6.7800   24.9450  -29.7140 C   0  0  0  0  0  0  0  0  0  0  0  0
   -5.9810   23.8750  -30.3070 N   0  0  0  0  0  0  0  0  0  0  0  0
   -6.6290   22.7630  -30.9520 C   0  0  0  0  0  0  0  0  0  0  0  0
   -8.0280   22.6550  -30.9330 C   0  0  0  0  0  0  0  0  0  0  0  0
   -8.6600   21.5780  -31.5590 C   0  0  0  0  0  0  0  0  0  0  0  0
   -7.9030   20.6050  -32.2170 C   0  0  0  0  0  0  0  0  0  0  0  0
   -6.5070   20.7090  -32.2590 C   0  0  0  0  0  0  0  0  0  0  0  0
   -5.5730   19.4810  -33.1080 S   0  0  0  0  0  0  0  0  0  0  0  0
   -6.3690   18.8700  -34.2280 O   0  0  0  0  0  0  0  0  0  0  0  0
   -5.2110   18.3910  -32.1380 O   0  0  0  0  0  0  0  0  0  0  0  0
   -4.1160   20.1870  -33.7330 N   0  0  0  0  0  0  0  0  0  0  0  0
   -2.9450   20.5060  -32.9660 C   0  0  0  0  0  0  0  0  0  0  0  0
   -3.0110   20.4020  -31.5710 C   0  0  0  0  0  0  0  0  0  0  0  0
   -1.8920   20.6980  -30.7830 C   0  0  0  0  0  0  0  0  0  0  0  0
   -0.6960   21.0950  -31.3870 C   0  0  0  0  0  0  0  0  0  0  0  0
   -0.6140   21.1830  -32.7780 C   0  0  0  0  0  0  0  0  0  0  0  0
   -1.7330   20.8980  -33.5680 C   0  0  0  0  0  0  0  0  0  0  0  0
   -5.8710   21.7860  -31.6220 C   0  0  0  0  0  0  0  0  0  0  0  0
   -4.2970   24.1780  -30.6200 S   0  0  0  0  0  0  0  0  0  0  0  0
   -4.0680   25.6440  -30.8700 O   0  0  0  0  0  0  0  0  0  0  0  0
   -3.8620   23.4260  -31.8490 O   0  0  0  0  0  0  0  0  0  0  0  0
   -3.3440   23.6600  -29.2240 C   0  0  0  0  0  0  0  0  0  0  0  0
   -3.6300   22.4330  -28.6060 C   0  0  0  0  0  0  0  0  0  0  0  0
   -2.8890   22.0080  -27.4980 C   0  0  0  0  0  0  0  0  0  0  0  0
   -1.8460   22.8000  -27.0110 C   0  0  0  0  0  0  0  0  0  0  0  0
   -1.5470   24.0140  -27.6280 C   0  0  0  0  0  0  0  0  0  0  0  0
   -2.2880   24.4470  -28.7340 C   0  0  0  0  0  0  0  0  0  0  0  0
   -1.9610   25.6540  -29.3410 O   0  0  0  0  0  0  0  0  0  0  0  0
   -6.7287   24.8763  -28.6174 H   0  0  0  0  0  0  0  0  0  0  0  0
   -6.3868   25.9195  -30.0391 H   0  0  0  0  0  0  0  0  0  0  0  0
   -7.8261   24.8448  -30.0391 H   0  0  0  0  0  0  0  0  0  0  0  0
   -8.6296   23.4218  -30.4229 H   0  0  0  0  0  0  0  0  0  0  0  0
   -9.7566   21.4956  -31.5339 H   0  0  0  0  0  0  0  0  0  0  0  0
   -8.4048   19.7554  -32.7031 H   0  0  0  0  0  0  0  0  0  0  0  0
   -3.9487   20.0855  -31.0908 H   0  0  0  0  0  0  0  0  0  0  0  0
   -1.9544   20.6180  -29.6877 H   0  0  0  0  0  0  0  0  0  0  0  0
    0.1798   21.3379  -30.7673 H   0  0  0  0  0  0  0  0  0  0  0  0
    0.3330   21.4772  -33.2541 H   0  0  0  0  0  0  0  0  0  0  0  0
   -1.6663   20.9803  -34.6629 H   0  0  0  0  0  0  0  0  0  0  0  0
   -4.7742   21.8663  -31.6470 H   0  0  0  0  0  0  0  0  0  0  0  0
   -4.4420   21.8013  -28.9952 H   0  0  0  0  0  0  0  0  0  0  0  0
   -3.1273   21.0511  -27.0106 H   0  0  0  0  0  0  0  0  0  0  0  0
   -1.2611   22.4659  -26.1413 H   0  0  0  0  0  0  0  0  0  0  0  0
   -0.7244   24.6349  -27.2437 H   0  0  0  0  0  0  0  0  0  0  0  0
  1  2  1  0
  2  3  1  0
  3  4  2  0
  4  5  1  0
  5  6  2  0
  6  7  1  0
  7  8  1  0
  8  9  2  0
  8 10  2  0
  8 11  1  0
 11 12  1  0
 12 13  2  0
 13 14  1  0
 14 15  2  0
 15 16  1  0
 16 17  2  0
  7 18  2  0
  2 19  1  0
 19 20  2  0
 19 21  2  0
 19 22  1  0
 22 23  2  0
 23 24  1  0
 24 25  2  0
 25 26  1  0
 26 27  2  0
 27 28  1  0
 18  3  1  0
 27 22  1  0
 17 12  1  0
  1 29  1  0
  1 30  1  0
  1 31  1  0
  4 32  1  0
  5 33  1  0
  6 34  1  0
 13 35  1  0
 14 36  1  0
 15 37  1  0
 16 38  1  0
 17 39  1  0
 18 40  1  0
 23 41  1  0
 24 42  1  0
 25 43  1  0
 26 44  1  0
M  CHG  2  11  -1  28  -1
M  END
>  <UniqueID>  (35) 
35

>  <SMILES>  (35) 
CN(c1cccc(S(=O)(=O)[N-]c2ccccc2)c1)S(=O)(=O)c1ccccc1[O-]

>  <Energy>  (35) 
54.49162253904151

>  <Genealogy>  (35) 
CN(c1cccc(S(=O)(=O)[N-]c2ccccc2)c1)S(=O)(=O)c1ccccc1[O-] (protonated)
CN(c1cccc(S(=O)(=O)[N-]c2ccccc2)c1)S(=O)(=O)c1ccccc1[O-] (3D coordinates assigned)
CN(c1cccc(S(=O)(=O)[N-]c2ccccc2)c1)S(=O)(=O)c1ccccc1[O-] (optimized conformer: 54.49162253904151 kcal/mol)

>  <smiles>  (35) 
CN(c1cccc(S(=O)(=O)Nc2ccccc2)c1)S(=O)(=O)c1ccccc1O

>  <score_type>  (35) 
oracle

>  <origin>  (35) 
adgpu

>  <m_score__min__energy>  (35) 
-13.24

>  <m_primary>  (35) 
energy

$$$$
35:0
     RDKit          3D

 51 54  0  0  0  0  0  0  0  0999 V2000
   -3.8480   25.6720  -31.1680 O   0  0  0  0  0  0  0  0  0  0  0  0
   -4.7980   24.9320  -30.8050 C   0  0  0  0  0  0  0  0  0  0  0  0
   -5.8480   24.5900  -31.7190 N   0  0  0  0  0  0  0  0  0  0  0  0
   -6.5260   23.3300  -31.8250 C   0  0  0  0  0  0  0  0  0  0  0  0
   -7.9030   23.1970  -31.5720 C   0  0  0  0  0  0  0  0  0  0  0  0
   -8.5240   21.9510  -31.7010 C   0  0  0  0  0  0  0  0  0  0  0  0
   -7.7850   20.8320  -32.0920 C   0  0  0  0  0  0  0  0  0  0  0  0
   -8.4240   19.6030  -32.2130 O   0  0  0  0  0  0  0  0  0  0  0  0
   -6.4130   20.9560  -32.3640 C   0  0  0  0  0  0  0  0  0  0  0  0
   -5.4680   19.5450  -32.8470 S   0  0  0  0  0  0  0  0  0  0  0  0
   -5.9370   18.3520  -32.0640 O   0  0  0  0  0  0  0  0  0  0  0  0
   -5.6610   19.2720  -34.3150 O   0  0  0  0  0  0  0  0  0  0  0  0
   -3.7790   19.8400  -32.5130 N   0  0  0  0  0  0  0  0  0  0  0  0
   -3.5910   20.4130  -31.1790 C   0  0  0  0  0  0  0  0  0  0  0  0
   -2.3490   21.2940  -31.2450 C   0  0  0  0  0  0  0  0  0  0  0  0
   -2.0390   21.4520  -32.7270 C   0  0  0  0  0  0  0  0  0  0  0  0
   -3.2170   20.8170  -33.4430 C   0  0  0  0  0  0  0  0  0  0  0  0
   -5.7960   22.2110  -32.2420 C   0  0  0  0  0  0  0  0  0  0  0  0
   -4.8130   24.4360  -29.4620 N   0  0  0  0  0  0  0  0  0  0  0  0
   -3.7590   23.7120  -28.8110 C   0  0  0  0  0  0  0  0  0  0  0  0
   -3.9450   22.3980  -28.3560 C   0  0  0  0  0  0  0  0  0  0  0  0
   -2.9130   21.7290  -27.6990 C   0  0  0  0  0  0  0  0  0  0  0  0
   -1.6860   22.3590  -27.4760 C   0  0  0  0  0  0  0  0  0  0  0  0
   -0.4630   21.4570  -26.5840 Cl  0  0  0  0  0  0  0  0  0  0  0  0
   -1.4830   23.6880  -27.9150 C   0  0  0  0  0  0  0  0  0  0  0  0
    0.0680   24.5190  -27.6300 S   0  0  0  0  0  0  0  0  0  0  0  0
   -0.0740   25.9830  -27.9410 O   0  0  0  0  0  0  0  0  0  0  0  0
    1.1110   23.9670  -28.5610 O   0  0  0  0  0  0  0  0  0  0  0  0
    0.6680   24.3670  -25.9460 C   0  0  0  0  0  0  0  0  0  0  0  0
    0.4420   25.6040  -25.0920 C   0  0  0  0  0  0  0  0  0  0  0  0
   -0.3760   24.3480  -24.8400 C   0  0  0  0  0  0  0  0  0  0  0  0
   -2.5410   24.3610  -28.5640 C   0  0  0  0  0  0  0  0  0  0  0  0
   -2.3930   25.6840  -28.9700 O   0  0  0  0  0  0  0  0  0  0  0  0
   -8.4930   24.0755  -31.2718 H   0  0  0  0  0  0  0  0  0  0  0  0
   -9.5997   21.8514  -31.4936 H   0  0  0  0  0  0  0  0  0  0  0  0
   -4.4676   21.0158  -30.8995 H   0  0  0  0  0  0  0  0  0  0  0  0
   -3.4720   19.6216  -30.4244 H   0  0  0  0  0  0  0  0  0  0  0  0
   -2.5486   22.2743  -30.7876 H   0  0  0  0  0  0  0  0  0  0  0  0
   -1.5048   20.8500  -30.6971 H   0  0  0  0  0  0  0  0  0  0  0  0
   -1.9524   22.5159  -32.9929 H   0  0  0  0  0  0  0  0  0  0  0  0
   -1.0842   20.9805  -33.0026 H   0  0  0  0  0  0  0  0  0  0  0  0
   -3.9678   21.5807  -33.6939 H   0  0  0  0  0  0  0  0  0  0  0  0
   -2.9056   20.3417  -34.3849 H   0  0  0  0  0  0  0  0  0  0  0  0
   -4.7265   22.3162  -32.4768 H   0  0  0  0  0  0  0  0  0  0  0  0
   -4.9089   21.8934  -28.5182 H   0  0  0  0  0  0  0  0  0  0  0  0
   -3.0662   20.6961  -27.3532 H   0  0  0  0  0  0  0  0  0  0  0  0
    1.5208   23.7209  -26.2015 H   0  0  0  0  0  0  0  0  0  0  0  0
    1.2060   25.9176  -24.3654 H   0  0  0  0  0  0  0  0  0  0  0  0
    0.2047   26.6582  -25.2978 H   0  0  0  0  0  0  0  0  0  0  0  0
   -0.2038   23.7526  -23.9313 H   0  0  0  0  0  0  0  0  0  0  0  0
   -1.4501   24.1166  -24.7880 H   0  0  0  0  0  0  0  0  0  0  0  0
  1  2  2  0
  2  3  1  0
  3  4  1  0
  4  5  2  0
  5  6  1  0
  6  7  2  0
  7  8  1  0
  7  9  1  0
  9 10  1  0
 10 11  2  0
 10 12  2  0
 10 13  1  0
 13 14  1  0
 14 15  1  0
 15 16  1  0
 16 17  1  0
  9 18  2  0
  2 19  1  0
 19 20  1  0
 20 21  2  0
 21 22  1  0
 22 23  2  0
 23 24  1  0
 23 25  1  0
 25 26  1  0
 26 27  2  0
 26 28  2  0
 26 29  1  0
 29 30  1  0
 30 31  1  0
 25 32  2  0
 32 33  1  0
 18  4  1  0
 32 20  1  0
 17 13  1  0
 31 29  1  0
  5 34  1  0
  6 35  1  0
 14 36  1  0
 14 37  1  0
 15 38  1  0
 15 39  1  0
 16 40  1  0
 16 41  1  0
 17 42  1  0
 17 43  1  0
 18 44  1  0
 21 45  1  0
 22 46  1  0
 29 47  1  0
 30 48  1  0
 30 49  1  0
 31 50  1  0
 31 51  1  0
M  CHG  4   3  -1   8  -1  19  -1  33  -1
M  END
>  <UniqueID>  (36) 
36

>  <SMILES>  (36) 
O=C([N-]c1ccc([O-])c(S(=O)(=O)N2CCCC2)c1)[N-]c1ccc(Cl)c(S(=O)(=O)C2CC2)c1[O-]

>  <Energy>  (36) 
328.7028236483609

>  <Genealogy>  (36) 
O=C([N-]c1ccc([O-])c(S(=O)(=O)N2CCCC2)c1)[N-]c1ccc(Cl)c(S(=O)(=O)C2CC2)c1[O-] (protonated)
O=C([N-]c1ccc([O-])c(S(=O)(=O)N2CCCC2)c1)[N-]c1ccc(Cl)c(S(=O)(=O)C2CC2)c1[O-] (3D coordinates assigned)
O=C([N-]c1ccc([O-])c(S(=O)(=O)N2CCCC2)c1)[N-]c1ccc(Cl)c(S(=O)(=O)C2CC2)c1[O-] (nonaromatic ring conformer: 328.7028236483609 kcal/mol)

>  <smiles>  (36) 
O=C(Nc1ccc(O)c(S(=O)(=O)N2CCCC2)c1)Nc1ccc(Cl)c(S(=O)(=O)C2CC2)c1O

>  <score_type>  (36) 
oracle

>  <origin>  (36) 
adgpu

>  <m_score__min__energy>  (36) 
-16.300000000000001

>  <m_primary>  (36) 
energy

$$$$
36:0
     RDKit          3D

 43 45  0  0  0  0  0  0  0  0999 V2000
   -3.3840   22.4380  -27.1930 O   0  0  0  0  0  0  0  0  0  0  0  0
   -3.8640   23.2190  -28.0590 C   0  0  0  0  0  0  0  0  0  0  0  0
   -4.9720   22.7340  -28.9480 C   0  0  0  0  0  0  0  0  0  0  0  0
   -5.4610   23.8200  -29.8300 N   0  0  0  0  0  0  0  0  0  0  0  0
   -6.9440   23.9170  -29.8250 C   0  0  0  0  0  0  0  0  0  0  0  0
   -7.6230   23.2470  -31.0370 C   0  0  0  0  0  0  0  0  0  0  0  0
   -6.7730   22.1880  -31.5880 N   0  0  0  0  0  0  0  0  0  0  0  0
   -7.3020   20.8760  -31.8500 C   0  0  0  0  0  0  0  0  0  0  0  0
   -6.4510   19.7580  -31.8500 C   0  0  0  0  0  0  0  0  0  0  0  0
   -6.9630   18.4810  -32.0970 C   0  0  0  0  0  0  0  0  0  0  0  0
   -8.3270   18.3080  -32.3400 C   0  0  0  0  0  0  0  0  0  0  0  0
   -9.1840   19.4130  -32.3300 C   0  0  0  0  0  0  0  0  0  0  0  0
   -8.6780   20.6920  -32.0850 C   0  0  0  0  0  0  0  0  0  0  0  0
   -9.5310   21.7460  -32.0400 F   0  0  0  0  0  0  0  0  0  0  0  0
   -5.3960   22.5160  -31.9660 C   0  0  0  0  0  0  0  0  0  0  0  0
   -4.9050   23.7570  -31.2010 C   0  0  0  0  0  0  0  0  0  0  0  0
   -3.4000   24.5750  -28.1540 N   0  0  0  0  0  0  0  0  0  0  0  0
   -2.3070   25.0870  -27.3780 C   0  0  0  0  0  0  0  0  0  0  0  0
   -2.3180   24.9160  -25.9850 C   0  0  0  0  0  0  0  0  0  0  0  0
   -1.2710   25.4110  -25.2030 C   0  0  0  0  0  0  0  0  0  0  0  0
   -0.2110   26.0940  -25.8050 C   0  0  0  0  0  0  0  0  0  0  0  0
   -0.2040   26.2940  -27.1880 C   0  0  0  0  0  0  0  0  0  0  0  0
   -1.2510   25.8050  -27.9760 C   0  0  0  0  0  0  0  0  0  0  0  0
   -1.2510   26.0620  -29.3430 O   0  0  0  0  0  0  0  0  0  0  0  0
   -4.5983   21.9069  -29.5695 H   0  0  0  0  0  0  0  0  0  0  0  0
   -5.8055   22.3952  -28.3151 H   0  0  0  0  0  0  0  0  0  0  0  0
   -7.3186   23.4358  -28.9095 H   0  0  0  0  0  0  0  0  0  0  0  0
   -7.1920   24.9875  -29.8742 H   0  0  0  0  0  0  0  0  0  0  0  0
   -8.5815   22.8114  -30.7185 H   0  0  0  0  0  0  0  0  0  0  0  0
   -7.7884   24.0075  -31.8143 H   0  0  0  0  0  0  0  0  0  0  0  0
   -5.3764   19.8883  -31.6546 H   0  0  0  0  0  0  0  0  0  0  0  0
   -6.2901   17.6108  -32.0999 H   0  0  0  0  0  0  0  0  0  0  0  0
   -8.7273   17.3030  -32.5392 H   0  0  0  0  0  0  0  0  0  0  0  0
  -10.2594   19.2748  -32.5155 H   0  0  0  0  0  0  0  0  0  0  0  0
   -4.7431   21.6632  -31.7284 H   0  0  0  0  0  0  0  0  0  0  0  0
   -5.3659   22.7297  -33.0446 H   0  0  0  0  0  0  0  0  0  0  0  0
   -3.8073   23.7239  -31.1378 H   0  0  0  0  0  0  0  0  0  0  0  0
   -5.2456   24.6492  -31.7469 H   0  0  0  0  0  0  0  0  0  0  0  0
   -3.9830   25.2580  -28.6890 H   0  0  0  0  0  0  0  0  0  0  0  0
   -3.1562   24.3890  -25.5057 H   0  0  0  0  0  0  0  0  0  0  0  0
   -1.2813   25.2629  -24.1131 H   0  0  0  0  0  0  0  0  0  0  0  0
    0.6181   26.4743  -25.1902 H   0  0  0  0  0  0  0  0  0  0  0  0
    0.6281   26.8381  -27.6587 H   0  0  0  0  0  0  0  0  0  0  0  0
  1  2  2  0
  2  3  1  0
  3  4  1  0
  4  5  1  0
  5  6  1  0
  6  7  1  0
  7  8  1  0
  8  9  2  0
  9 10  1  0
 10 11  2  0
 11 12  1  0
 12 13  2  0
 13 14  1  0
  7 15  1  0
 15 16  1  0
  2 17  1  0
 17 18  1  0
 18 19  2  0
 19 20  1  0
 20 21  2  0
 21 22  1  0
 22 23  2  0
 23 24  1  0
 16  4  1  0
 23 18  1  0
 13  8  1  0
  3 25  1  0
  3 26  1  0
  5 27  1  0
  5 28  1  0
  6 29  1  0
  6 30  1  0
  9 31  1  0
 10 32  1  0
 11 33  1  0
 12 34  1  0
 15 35  1  0
 15 36  1  0
 16 37  1  0
 16 38  1  0
 17 39  1  0
 19 40  1  0
 20 41  1  0
 21 42  1  0
 22 43  1  0
M  CHG  1  24  -1
M  END
>  <UniqueID>  (37) 
37

>  <SMILES>  (37) 
O=C(CN1CCN(c2ccccc2F)CC1)Nc1ccccc1[O-]

>  <Energy>  (37) 
62.04166718058792

>  <Genealogy>  (37) 
O=C(CN1CCN(c2ccccc2F)CC1)Nc1ccccc1[O-] (protonated)
O=C(CN1CCN(c2ccccc2F)CC1)Nc1ccccc1[O-] (3D coordinates assigned)
O=C(CN1CCN(c2ccccc2F)CC1)Nc1ccccc1[O-] (nonaromatic ring conformer: 62.04166718058792 kcal/mol)

>  <smiles>  (37) 
O=C(CN1CCN(c2ccccc2F)CC1)Nc1ccccc1O

>  <score_type>  (37) 
oracle

>  <origin>  (37) 
adgpu

>  <m_score__min__energy>  (37) 
-11.109999999999999

>  <m_primary>  (37) 
energy

$$$$
37:0
     RDKit          3D

 41 43  0  0  0  0  0  0  0  0999 V2000
    1.2780   24.5760  -27.7090 O   0  0  0  0  0  0  0  0  0  0  0  0
    0.1550   24.7520  -27.1640 C   0  0  0  0  0  0  0  0  0  0  0  0
    0.0870   25.4740  -25.8690 C   0  0  0  0  0  0  0  0  0  0  0  0
    1.2540   25.7430  -25.1290 C   0  0  0  0  0  0  0  0  0  0  0  0
    1.1780   26.4330  -23.9150 C   0  0  0  0  0  0  0  0  0  0  0  0
   -0.0600   26.8650  -23.4290 C   0  0  0  0  0  0  0  0  0  0  0  0
   -1.2230   26.6140  -24.1610 C   0  0  0  0  0  0  0  0  0  0  0  0
   -1.1520   25.9240  -25.3760 C   0  0  0  0  0  0  0  0  0  0  0  0
   -1.0530   24.2160  -27.8340 C   0  0  0  0  0  0  0  0  0  0  0  0
   -1.5310   22.9450  -27.4760 C   0  0  0  0  0  0  0  0  0  0  0  0
   -2.6600   22.4100  -28.1020 C   0  0  0  0  0  0  0  0  0  0  0  0
   -3.3270   23.1280  -29.1000 C   0  0  0  0  0  0  0  0  0  0  0  0
   -4.4830   22.5380  -29.7120 N   0  0  0  0  0  0  0  0  0  0  0  0
   -5.7290   23.4120  -30.5440 S   0  0  0  0  0  0  0  0  0  0  0  0
   -5.1100   24.2190  -31.6520 O   0  0  0  0  0  0  0  0  0  0  0  0
   -6.4040   24.3490  -29.5800 O   0  0  0  0  0  0  0  0  0  0  0  0
   -6.8850   22.2800  -31.2410 C   0  0  0  0  0  0  0  0  0  0  0  0
   -8.2510   22.5660  -31.1780 C   0  0  0  0  0  0  0  0  0  0  0  0
   -9.1770   21.6860  -31.7380 C   0  0  0  0  0  0  0  0  0  0  0  0
   -8.7510   20.5070  -32.3670 C   0  0  0  0  0  0  0  0  0  0  0  0
   -9.6990   19.6450  -32.9180 O   0  0  0  0  0  0  0  0  0  0  0  0
   -7.3710   20.2050  -32.4380 C   0  0  0  0  0  0  0  0  0  0  0  0
   -6.8750   18.9680  -33.0990 C   0  0  0  0  0  0  0  0  0  0  0  0
   -5.7750   18.9690  -33.7120 O   0  0  0  0  0  0  0  0  0  0  0  0
   -7.6080   17.7870  -33.0560 O   0  0  0  0  0  0  0  0  0  0  0  0
   -6.4490   21.1050  -31.8670 C   0  0  0  0  0  0  0  0  0  0  0  0
   -2.8430   24.3920  -29.4760 C   0  0  0  0  0  0  0  0  0  0  0  0
   -1.7090   24.9300  -28.8580 C   0  0  0  0  0  0  0  0  0  0  0  0
   -1.2300   26.1650  -29.2860 O   0  0  0  0  0  0  0  0  0  0  0  0
    2.2311   25.4086  -25.5078 H   0  0  0  0  0  0  0  0  0  0  0  0
    2.0941   26.6364  -23.3411 H   0  0  0  0  0  0  0  0  0  0  0  0
   -0.1180   27.4022  -22.4708 H   0  0  0  0  0  0  0  0  0  0  0  0
   -2.1960   26.9594  -23.7816 H   0  0  0  0  0  0  0  0  0  0  0  0
   -2.0707   25.7319  -25.9497 H   0  0  0  0  0  0  0  0  0  0  0  0
   -1.0129   22.3663  -26.6971 H   0  0  0  0  0  0  0  0  0  0  0  0
   -3.0273   21.4158  -27.8074 H   0  0  0  0  0  0  0  0  0  0  0  0
   -8.5969   23.4869  -30.6858 H   0  0  0  0  0  0  0  0  0  0  0  0
  -10.2508   21.9187  -31.6859 H   0  0  0  0  0  0  0  0  0  0  0  0
   -9.4290   18.8620  -33.5050 H   0  0  0  0  0  0  0  0  0  0  0  0
   -5.3729   20.8819  -31.9135 H   0  0  0  0  0  0  0  0  0  0  0  0
   -3.3593   24.9628  -30.2619 H   0  0  0  0  0  0  0  0  0  0  0  0
  1  2  2  0
  2  3  1  0
  3  4  2  0
  4  5  1  0
  5  6  2  0
  6  7  1  0
  7  8  2  0
  2  9  1  0
  9 10  2  0
 10 11  1  0
 11 12  2  0
 12 13  1  0
 13 14  1  0
 14 15  2  0
 14 16  2  0
 14 17  1  0
 17 18  2  0
 18 19  1  0
 19 20  2  0
 20 21  1  0
 20 22  1  0
 22 23  1  0
 23 24  2  0
 23 25  1  0
 22 26  2  0
 12 27  1  0
 27 28  2  0
 28 29  1  0
  8  3  1  0
 28  9  1  0
 26 17  1  0
  4 30  1  0
  5 31  1  0
  6 32  1  0
  7 33  1  0
  8 34  1  0
 10 35  1  0
 11 36  1  0
 18 37  1  0
 19 38  1  0
 21 39  1  0
 26 40  1  0
 27 41  1  0
M  CHG  3  13  -1  25  -1  29  -1
M  END
>  <UniqueID>  (38) 
38

>  <SMILES>  (38) 
O=C(c1ccccc1)c1ccc([N-]S(=O)(=O)c2ccc(O)c(C(=O)[O-])c2)cc1[O-]

>  <Energy>  (38) 
56.87046267264949

>  <Genealogy>  (38) 
O=C(c1ccccc1)c1ccc([N-]S(=O)(=O)c2ccc(O)c(C(=O)[O-])c2)cc1[O-] (protonated)
O=C(c1ccccc1)c1ccc([N-]S(=O)(=O)c2ccc(O)c(C(=O)[O-])c2)cc1[O-] (3D coordinates assigned)
O=C(c1ccccc1)c1ccc([N-]S(=O)(=O)c2ccc(O)c(C(=O)[O-])c2)cc1[O-] (optimized conformer: 56.87046267264949 kcal/mol)

>  <smiles>  (38) 
O=C(O)c1cc(S(=O)(=O)Nc2ccc(C(=O)c3ccccc3)c(O)c2)ccc1O

>  <score_type>  (38) 
oracle

>  <origin>  (38) 
adgpu

>  <m_score__min__energy>  (38) 
-12.93

>  <m_primary>  (38) 
energy

$$$$
38:0
     RDKit          3D

 49 51  0  0  1  0  0  0  0  0999 V2000
   -8.2430   23.1390  -31.9400 C   0  0  0  0  0  0  0  0  0  0  0  0
   -7.7160   21.9830  -31.2870 N   0  0  0  0  0  0  0  0  0  0  0  0
   -8.4950   20.5100  -31.7400 S   0  0  0  0  0  0  0  0  0  0  0  0
   -9.1150   19.9390  -30.4720 O   0  0  0  0  0  0  0  0  0  0  0  0
   -9.5950   20.7180  -32.7110 O   0  0  0  0  0  0  0  0  0  0  0  0
   -7.3080   19.3700  -32.3910 C   0  0  0  0  0  0  0  0  0  0  0  0
   -6.8030   19.6160  -33.6720 C   0  0  0  0  0  0  0  0  0  0  0  0
   -5.8640   18.7170  -34.2030 C   0  0  0  0  0  0  0  0  0  0  0  0
   -5.4580   17.6080  -33.4480 C   0  0  0  0  0  0  0  0  0  0  0  0
   -4.5040   16.7510  -34.0630 N   0  0  0  0  0  0  0  0  0  0  0  0
   -3.2770   17.1280  -34.1120 C   0  0  0  0  0  0  0  0  0  0  0  0
   -2.8260   18.3330  -33.5950 C   0  0  0  0  0  0  0  0  0  0  0  0
   -1.4880   18.7050  -33.6590 C   0  0  0  0  0  0  0  0  0  0  0  0
   -1.0730   19.9560  -33.1420 N   0  0  0  0  0  0  0  0  0  0  0  0
   -1.8900   20.8660  -32.4370 C   0  0  0  0  0  0  0  0  0  0  0  0
   -1.5920   21.3520  -31.1760 C   0  0  0  0  0  0  0  0  0  0  0  0
   -2.4230   22.2670  -30.5490 C   0  0  0  0  0  0  0  0  0  0  0  0
   -3.5860   22.7320  -31.1560 C   0  0  0  0  0  0  0  0  0  0  0  0
   -4.5820   23.8760  -30.3230 S   0  0  0  0  0  0  0  0  0  0  0  0
   -6.0090   23.1420  -29.7020 N   0  0  0  0  0  0  0  0  0  0  0  0
   -3.8210   24.4340  -29.1490 O   0  0  0  0  0  0  0  0  0  0  0  0
   -5.0090   25.0310  -31.2090 O   0  0  0  0  0  0  0  0  0  0  0  0
   -3.8790   22.2420  -32.4170 C   0  0  0  0  0  0  0  0  0  0  0  0
   -3.0570   21.3300  -33.0510 C   0  0  0  0  0  0  0  0  0  0  0  0
   -0.6650   17.8260  -34.2530 N   0  0  0  0  0  0  0  0  0  0  0  0
   -1.1110   16.6400  -34.7610 C   0  0  0  0  0  0  0  0  0  0  0  0
   -2.4070   16.2840  -34.6970 N   0  0  0  0  0  0  0  0  0  0  0  0
   -5.9730   17.3870  -32.1830 C   0  0  0  0  0  0  0  0  0  0  0  0
   -5.5040   16.2390  -31.4960 N   0  0  0  0  0  0  0  0  0  0  0  0
   -6.8950   18.2680  -31.6620 C   0  0  0  0  0  0  0  0  0  0  0  0
   -8.5749   23.8671  -31.1852 H   0  0  0  0  0  0  0  0  0  0  0  0
   -7.4627   23.5926  -32.5688 H   0  0  0  0  0  0  0  0  0  0  0  0
   -9.0972   22.8475  -32.5688 H   0  0  0  0  0  0  0  0  0  0  0  0
   -7.8110   22.0920  -30.2630 H   0  0  0  0  0  0  0  0  0  0  0  0
   -7.1333   20.4922  -34.2493 H   0  0  0  0  0  0  0  0  0  0  0  0
   -5.4485   18.8825  -35.2080 H   0  0  0  0  0  0  0  0  0  0  0  0
   -3.5477   19.0142  -33.1206 H   0  0  0  0  0  0  0  0  0  0  0  0
   -0.0740   20.2400  -33.2900 H   0  0  0  0  0  0  0  0  0  0  0  0
   -0.6819   21.0069  -30.6636 H   0  0  0  0  0  0  0  0  0  0  0  0
   -2.1569   22.6347  -29.5470 H   0  0  0  0  0  0  0  0  0  0  0  0
   -6.0410   22.1300  -29.8910 H   0  0  0  0  0  0  0  0  0  0  0  0
   -6.8640   23.6010  -30.0670 H   0  0  0  0  0  0  0  0  0  0  0  0
   -4.7899   22.5876  -32.9277 H   0  0  0  0  0  0  0  0  0  0  0  0
   -3.3247   20.9639  -34.0531 H   0  0  0  0  0  0  0  0  0  0  0  0
    0.3380   18.0080  -34.3650 H   0  0  0  0  0  0  0  0  0  0  0  0
   -0.3913   15.9568  -35.2356 H   0  0  0  0  0  0  0  0  0  0  0  0
   -5.8250   16.1070  -30.4940 H   0  0  0  0  0  0  0  0  0  0  0  0
   -4.8740   15.5290  -31.9130 H   0  0  0  0  0  0  0  0  0  0  0  0
   -7.3070   18.0942  -30.6570 H   0  0  0  0  0  0  0  0  0  0  0  0
  1  2  1  0
  2  3  1  0
  3  4  2  0
  3  5  2  0
  3  6  1  0
  6  7  2  0
  7  8  1  0
  8  9  2  0
  9 10  1  0
 10 11  2  0
 11 12  1  0
 12 13  2  0
 13 14  1  0
 14 15  1  0
 15 16  2  0
 16 17  1  0
 17 18  2  0
 18 19  1  0
 19 20  1  0
 19 21  2  0
 19 22  2  0
 18 23  1  0
 23 24  2  0
 13 25  1  0
 25 26  1  0
 26 27  2  0
  9 28  1  0
 28 29  1  0
 28 30  2  0
 30  6  1  0
 27 11  1  0
 24 15  1  0
  1 31  1  0
  1 32  1  0
  1 33  1  0
  2 34  1  0
  7 35  1  0
  8 36  1  0
 12 37  1  0
 14 38  1  0
 16 39  1  0
 17 40  1  0
 20 41  1  0
 20 42  1  0
 23 43  1  0
 24 44  1  0
 25 45  1  0
 26 46  1  0
 29 47  1  0
 29 48  1  0
 30 49  1  0
M  END
>  <smiles>  (39) 
CNS(=O)(=O)c1ccc(N=c2cc(Nc3ccc(S(N)(=O)=O)cc3)[nH]cn2)c(N)c1

>  <score_type>  (39) 
oracle

>  <origin>  (39) 
adgpu

>  <m_score__min__energy>  (39) 
-9.1300000000000008

>  <m_primary>  (39) 
energy

$$$$
39:0
     RDKit          3D

 42 44  0  0  0  0  0  0  0  0999 V2000
   -3.1700   21.5070  -31.6140 O   0  0  0  0  0  0  0  0  0  0  0  0
   -3.8090   22.5690  -31.3900 C   0  0  0  0  0  0  0  0  0  0  0  0
   -3.0990   23.7020  -30.8720 N   0  0  0  0  0  0  0  0  0  0  0  0
   -3.0460   24.0960  -29.4940 C   0  0  0  0  0  0  0  0  0  0  0  0
   -4.1590   23.8620  -28.6770 C   0  0  0  0  0  0  0  0  0  0  0  0
   -4.1310   24.2210  -27.3250 C   0  0  0  0  0  0  0  0  0  0  0  0
   -2.9830   24.7980  -26.7780 C   0  0  0  0  0  0  0  0  0  0  0  0
   -1.8580   25.0130  -27.5800 C   0  0  0  0  0  0  0  0  0  0  0  0
   -1.8860   24.6620  -28.9330 C   0  0  0  0  0  0  0  0  0  0  0  0
   -5.2770   22.5980  -31.5960 C   0  0  0  0  0  0  0  0  0  0  0  0
   -5.9770   21.3940  -31.7860 C   0  0  0  0  0  0  0  0  0  0  0  0
   -7.3650   21.3960  -31.9790 C   0  0  0  0  0  0  0  0  0  0  0  0
   -8.2300   19.8740  -32.2120 S   0  0  0  0  0  0  0  0  0  0  0  0
   -9.4730   20.1290  -33.0170 O   0  0  0  0  0  0  0  0  0  0  0  0
   -8.6470   19.3360  -30.8710 O   0  0  0  0  0  0  0  0  0  0  0  0
   -7.2450   18.6830  -33.0250 N   0  0  0  0  0  0  0  0  0  0  0  0
   -6.3700   19.3280  -34.0200 C   0  0  0  0  0  0  0  0  0  0  0  0
   -5.3310   18.3250  -34.5610 C   0  0  0  0  0  0  0  0  0  0  0  0
   -5.6660   17.0000  -34.1980 O   0  0  0  0  0  0  0  0  0  0  0  0
   -5.6050   16.8580  -32.7890 C   0  0  0  0  0  0  0  0  0  0  0  0
   -6.4410   17.9290  -32.0560 C   0  0  0  0  0  0  0  0  0  0  0  0
   -8.0580   22.6100  -31.9900 C   0  0  0  0  0  0  0  0  0  0  0  0
   -7.3730   23.8140  -31.8130 C   0  0  0  0  0  0  0  0  0  0  0  0
   -5.9850   23.8170  -31.6160 C   0  0  0  0  0  0  0  0  0  0  0  0
   -5.3150   25.0250  -31.4240 O   0  0  0  0  0  0  0  0  0  0  0  0
   -5.0598   23.3936  -29.1003 H   0  0  0  0  0  0  0  0  0  0  0  0
   -5.0142   24.0486  -26.6923 H   0  0  0  0  0  0  0  0  0  0  0  0
   -2.9637   25.0835  -25.7159 H   0  0  0  0  0  0  0  0  0  0  0  0
   -0.9506   25.4585  -27.1462 H   0  0  0  0  0  0  0  0  0  0  0  0
   -0.9985   24.8288  -29.5611 H   0  0  0  0  0  0  0  0  0  0  0  0
   -5.4294   20.4400  -31.7832 H   0  0  0  0  0  0  0  0  0  0  0  0
   -6.9834   19.6985  -34.8546 H   0  0  0  0  0  0  0  0  0  0  0  0
   -5.8396   20.1623  -33.5377 H   0  0  0  0  0  0  0  0  0  0  0  0
   -5.2970   18.3994  -35.6580 H   0  0  0  0  0  0  0  0  0  0  0  0
   -4.3503   18.5691  -34.1266 H   0  0  0  0  0  0  0  0  0  0  0  0
   -5.9874   15.8632  -32.5167 H   0  0  0  0  0  0  0  0  0  0  0  0
   -4.5557   16.9823  -32.4831 H   0  0  0  0  0  0  0  0  0  0  0  0
   -7.1078   17.4387  -31.3315 H   0  0  0  0  0  0  0  0  0  0  0  0
   -5.7651   18.6195  -31.5303 H   0  0  0  0  0  0  0  0  0  0  0  0
   -9.1479   22.6169  -32.1388 H   0  0  0  0  0  0  0  0  0  0  0  0
   -7.9255   24.7651  -31.8282 H   0  0  0  0  0  0  0  0  0  0  0  0
   -4.3190   25.1130  -31.5840 H   0  0  0  0  0  0  0  0  0  0  0  0
  1  2  2  0
  2  3  1  0
  3  4  1  0
  4  5  2  0
  5  6  1  0
  6  7  2  0
  7  8  1  0
  8  9  2  0
  2 10  1  0
 10 11  2  0
 11 12  1  0
 12 13  1  0
 13 14  2  0
 13 15  2  0
 13 16  1  0
 16 17  1  0
 17 18  1  0
 18 19  1  0
 19 20  1  0
 20 21  1  0
 12 22  2  0
 22 23  1  0
 23 24  2  0
 24 25  1  0
  9  4  1  0
 24 10  1  0
 21 16  1  0
  5 26  1  0
  6 27  1  0
  7 28  1  0
  8 29  1  0
  9 30  1  0
 11 31  1  0
 17 32  1  0
 17 33  1  0
 18 34  1  0
 18 35  1  0
 20 36  1  0
 20 37  1  0
 21 38  1  0
 21 39  1  0
 22 40  1  0
 23 41  1  0
 25 42  1  0
M  CHG  1   3  -1
M  END
>  <UniqueID>  (40) 
39

>  <SMILES>  (40) 
O=C([N-]c1ccccc1)c1cc(S(=O)(=O)N2CCOCC2)ccc1O

>  <Energy>  (40) 
55.092990636947015

>  <Genealogy>  (40) 
O=C([N-]c1ccccc1)c1cc(S(=O)(=O)N2CCOCC2)ccc1O (protonated)
O=C([N-]c1ccccc1)c1cc(S(=O)(=O)N2CCOCC2)ccc1O (3D coordinates assigned)
O=C([N-]c1ccccc1)c1cc(S(=O)(=O)N2CCOCC2)ccc1O (nonaromatic ring conformer: 55.092990636947015 kcal/mol)

>  <smiles>  (40) 
O=C(Nc1ccccc1)c1cc(S(=O)(=O)N2CCOCC2)ccc1O

>  <score_type>  (40) 
oracle

>  <origin>  (40) 
adgpu

>  <m_score__min__energy>  (40) 
-10.529999999999999

>  <m_primary>  (40) 
energy

$$$$
40:0
     RDKit          3D

 50 53  0  0  0  0  0  0  0  0999 V2000
   -7.2160   25.3300  -29.7370 O   0  0  0  0  0  0  0  0  0  0  0  0
   -6.4150   24.6930  -30.4700 C   0  0  0  0  0  0  0  0  0  0  0  0
   -6.8760   24.1790  -31.7270 N   0  0  0  0  0  0  0  0  0  0  0  0
   -7.3500   22.8410  -31.9180 C   0  0  0  0  0  0  0  0  0  0  0  0
   -8.6630   22.4830  -31.5720 C   0  0  0  0  0  0  0  0  0  0  0  0
   -9.0970   21.1650  -31.7330 C   0  0  0  0  0  0  0  0  0  0  0  0
   -8.2210   20.1950  -32.2270 C   0  0  0  0  0  0  0  0  0  0  0  0
   -6.9080   20.5440  -32.5740 C   0  0  0  0  0  0  0  0  0  0  0  0
   -5.7600   19.3060  -33.0760 S   0  0  0  0  0  0  0  0  0  0  0  0
   -5.8260   19.1580  -34.5700 O   0  0  0  0  0  0  0  0  0  0  0  0
   -6.1190   17.9880  -32.4460 O   0  0  0  0  0  0  0  0  0  0  0  0
   -4.1530   19.7900  -32.5940 N   0  0  0  0  0  0  0  0  0  0  0  0
   -4.1630   20.2130  -31.1770 C   0  0  0  0  0  0  0  0  0  0  0  0
   -2.8450   20.9010  -30.7590 C   0  0  0  0  0  0  0  0  0  0  0  0
   -1.7390   20.6940  -31.7960 C   0  0  0  0  0  0  0  0  0  0  0  0
   -2.1890   21.1890  -33.1800 C   0  0  0  0  0  0  0  0  0  0  0  0
   -3.6730   20.8790  -33.4610 C   0  0  0  0  0  0  0  0  0  0  0  0
   -6.4830   21.8730  -32.4380 C   0  0  0  0  0  0  0  0  0  0  0  0
   -5.0110   24.5370  -30.0460 C   0  0  0  0  0  0  0  0  0  0  0  0
   -4.5190   23.5890  -29.1720 C   0  0  0  0  0  0  0  0  0  0  0  0
   -3.1620   23.8410  -29.1330 C   0  0  0  0  0  0  0  0  0  0  0  0
   -2.1510   23.1310  -28.3140 C   0  0  0  0  0  0  0  0  0  0  0  0
   -2.5540   22.0310  -27.5360 C   0  0  0  0  0  0  0  0  0  0  0  0
   -1.6240   21.3220  -26.7720 C   0  0  0  0  0  0  0  0  0  0  0  0
   -0.2820   21.7060  -26.7680 C   0  0  0  0  0  0  0  0  0  0  0  0
    0.1310   22.8060  -27.5200 C   0  0  0  0  0  0  0  0  0  0  0  0
   -0.7950   23.5320  -28.2850 C   0  0  0  0  0  0  0  0  0  0  0  0
   -0.3700   24.6590  -28.9880 O   0  0  0  0  0  0  0  0  0  0  0  0
   -2.8770   24.8840  -29.9380 N   0  0  0  0  0  0  0  0  0  0  0  0
   -4.0010   25.3010  -30.5030 N   0  0  0  0  0  0  0  0  0  0  0  0
   -9.3516   23.2424  -31.1731 H   0  0  0  0  0  0  0  0  0  0  0  0
  -10.1294   20.8905  -31.4706 H   0  0  0  0  0  0  0  0  0  0  0  0
   -8.5620   19.1557  -32.3439 H   0  0  0  0  0  0  0  0  0  0  0  0
   -4.9934   20.9181  -31.0246 H   0  0  0  0  0  0  0  0  0  0  0  0
   -4.2816   19.3111  -30.5584 H   0  0  0  0  0  0  0  0  0  0  0  0
   -3.0277   21.9797  -30.6446 H   0  0  0  0  0  0  0  0  0  0  0  0
   -2.5120   20.4523  -29.8115 H   0  0  0  0  0  0  0  0  0  0  0  0
   -0.8445   21.2541  -31.4859 H   0  0  0  0  0  0  0  0  0  0  0  0
   -1.5140   19.6193  -31.8619 H   0  0  0  0  0  0  0  0  0  0  0  0
   -2.0396   22.2776  -33.2316 H   0  0  0  0  0  0  0  0  0  0  0  0
   -1.5875   20.6633  -33.9362 H   0  0  0  0  0  0  0  0  0  0  0  0
   -4.2722   21.7818  -33.2712 H   0  0  0  0  0  0  0  0  0  0  0  0
   -3.7751   20.5652  -34.5103 H   0  0  0  0  0  0  0  0  0  0  0  0
   -5.4642   22.1561  -32.7411 H   0  0  0  0  0  0  0  0  0  0  0  0
   -5.0789   22.8118  -28.6311 H   0  0  0  0  0  0  0  0  0  0  0  0
   -3.6109   21.7262  -27.5290 H   0  0  0  0  0  0  0  0  0  0  0  0
   -1.9499   20.4593  -26.1723 H   0  0  0  0  0  0  0  0  0  0  0  0
    0.4499   21.1412  -26.1719 H   0  0  0  0  0  0  0  0  0  0  0  0
    1.1892   23.1063  -27.5133 H   0  0  0  0  0  0  0  0  0  0  0  0
   -0.8440   24.9760  -29.8250 H   0  0  0  0  0  0  0  0  0  0  0  0
  1  2  2  0
  2  3  1  0
  3  4  1  0
  4  5  2  0
  5  6  1  0
  6  7  2  0
  7  8  1  0
  8  9  1  0
  9 10  2  0
  9 11  2  0
  9 12  1  0
 12 13  1  0
 13 14  1  0
 14 15  1  0
 15 16  1  0
 16 17  1  0
  8 18  2  0
  2 19  1  0
 19 20  1  0
 20 21  2  0
 21 22  1  0
 22 23  2  0
 23 24  1  0
 24 25  2  0
 25 26  1  0
 26 27  2  0
 27 28  1  0
 21 29  1  0
 29 30  1  0
 18  4  1  0
 30 19  2  0
 17 12  1  0
 27 22  1  0
  5 31  1  0
  6 32  1  0
  7 33  1  0
 13 34  1  0
 13 35  1  0
 14 36  1  0
 14 37  1  0
 15 38  1  0
 15 39  1  0
 16 40  1  0
 16 41  1  0
 17 42  1  0
 17 43  1  0
 18 44  1  0
 20 45  1  0
 23 46  1  0
 24 47  1  0
 25 48  1  0
 26 49  1  0
 28 50  1  0
M  CHG  2   3  -1  29  -1
M  END
>  <UniqueID>  (41) 
40

>  <SMILES>  (41) 
O=C([N-]c1cccc(S(=O)(=O)N2CCCCC2)c1)c1cc(-c2ccccc2O)[n-]n1

>  <Energy>  (41) 
92.95297961338336

>  <Genealogy>  (41) 
O=C([N-]c1cccc(S(=O)(=O)N2CCCCC2)c1)c1cc(-c2ccccc2O)[n-]n1 (protonated)
O=C([N-]c1cccc(S(=O)(=O)N2CCCCC2)c1)c1cc(-c2ccccc2O)[n-]n1 (3D coordinates assigned)
O=C([N-]c1cccc(S(=O)(=O)N2CCCCC2)c1)c1cc(-c2ccccc2O)[n-]n1 (nonaromatic ring conformer: 92.95297961338336 kcal/mol)

>  <smiles>  (41) 
O=C(Nc1cccc(S(=O)(=O)N2CCCCC2)c1)c1cc(-c2ccccc2O)[nH]n1

>  <score_type>  (41) 
oracle

>  <origin>  (41) 
adgpu

>  <m_score__min__energy>  (41) 
-13.31

>  <m_primary>  (41) 
energy

$$$$
41:0
     RDKit          3D

 52 55  0  0  0  0  0  0  0  0999 V2000
   -0.5910   28.5950  -25.0200 C   0  0  0  0  0  0  0  0  0  0  0  0
    0.0660   27.3290  -24.6760 N   0  0  0  0  0  0  0  0  0  0  0  0
    0.4950   27.3470  -23.2720 C   0  0  0  0  0  0  0  0  0  0  0  0
   -1.0300   25.9930  -24.9440 S   0  0  0  0  0  0  0  0  0  0  0  0
   -2.4510   26.4650  -24.7970 O   0  0  0  0  0  0  0  0  0  0  0  0
   -0.7850   24.9270  -23.9060 O   0  0  0  0  0  0  0  0  0  0  0  0
   -0.8070   25.2970  -26.5510 C   0  0  0  0  0  0  0  0  0  0  0  0
    0.3500   24.5670  -26.8520 C   0  0  0  0  0  0  0  0  0  0  0  0
    0.5060   23.9850  -28.1120 C   0  0  0  0  0  0  0  0  0  0  0  0
   -0.5010   24.1100  -29.0720 C   0  0  0  0  0  0  0  0  0  0  0  0
   -1.6780   24.8130  -28.7700 C   0  0  0  0  0  0  0  0  0  0  0  0
   -2.7570   24.9230  -29.7100 N   0  0  0  0  0  0  0  0  0  0  0  0
   -3.3190   23.8410  -30.4670 C   0  0  0  0  0  0  0  0  0  0  0  0
   -2.5990   22.8830  -30.8630 O   0  0  0  0  0  0  0  0  0  0  0  0
   -4.7630   23.8220  -30.7400 C   0  0  0  0  0  0  0  0  0  0  0  0
   -5.6570   24.3770  -29.8160 C   0  0  0  0  0  0  0  0  0  0  0  0
   -7.0270   24.3710  -30.0810 C   0  0  0  0  0  0  0  0  0  0  0  0
   -7.4930   23.7930  -31.2620 C   0  0  0  0  0  0  0  0  0  0  0  0
   -6.6150   23.2390  -32.1390 N   0  0  0  0  0  0  0  0  0  0  0  0
   -5.2700   23.2410  -31.9160 C   0  0  0  0  0  0  0  0  0  0  0  0
   -4.3970   22.6040  -32.8090 O   0  0  0  0  0  0  0  0  0  0  0  0
   -4.4070   21.2350  -33.0990 C   0  0  0  0  0  0  0  0  0  0  0  0
   -3.2470   20.5610  -33.5160 C   0  0  0  0  0  0  0  0  0  0  0  0
   -3.2920   19.1960  -33.8140 C   0  0  0  0  0  0  0  0  0  0  0  0
   -4.4950   18.4830  -33.6870 C   0  0  0  0  0  0  0  0  0  0  0  0
   -4.5590   17.1190  -34.0130 C   0  0  0  0  0  0  0  0  0  0  0  0
   -5.7680   16.4230  -33.8970 C   0  0  0  0  0  0  0  0  0  0  0  0
   -6.9180   17.0830  -33.4480 C   0  0  0  0  0  0  0  0  0  0  0  0
   -6.8660   18.4410  -33.1150 C   0  0  0  0  0  0  0  0  0  0  0  0
   -5.6600   19.1510  -33.2370 C   0  0  0  0  0  0  0  0  0  0  0  0
   -5.6020   20.5220  -32.9360 C   0  0  0  0  0  0  0  0  0  0  0  0
   -1.8100   25.4320  -27.5210 C   0  0  0  0  0  0  0  0  0  0  0  0
   -0.8672   29.1272  -24.0978 H   0  0  0  0  0  0  0  0  0  0  0  0
    0.0980   29.2172  -25.6101 H   0  0  0  0  0  0  0  0  0  0  0  0
   -1.4964   28.3898  -25.6101 H   0  0  0  0  0  0  0  0  0  0  0  0
   -0.3887   27.3099  -22.6181 H   0  0  0  0  0  0  0  0  0  0  0  0
    1.1352   26.4749  -23.0730 H   0  0  0  0  0  0  0  0  0  0  0  0
    1.0599   28.2696  -23.0730 H   0  0  0  0  0  0  0  0  0  0  0  0
    1.1383   24.4517  -26.0935 H   0  0  0  0  0  0  0  0  0  0  0  0
    1.4239   23.4270  -28.3489 H   0  0  0  0  0  0  0  0  0  0  0  0
   -0.3715   23.6570  -30.0660 H   0  0  0  0  0  0  0  0  0  0  0  0
   -5.2794   24.8176  -28.8815 H   0  0  0  0  0  0  0  0  0  0  0  0
   -7.7329   24.8178  -29.3654 H   0  0  0  0  0  0  0  0  0  0  0  0
   -8.5705   23.7856  -31.4833 H   0  0  0  0  0  0  0  0  0  0  0  0
   -2.2984   21.1103  -33.6085 H   0  0  0  0  0  0  0  0  0  0  0  0
   -2.3812   18.6783  -34.1494 H   0  0  0  0  0  0  0  0  0  0  0  0
   -3.6562   16.5955  -34.3607 H   0  0  0  0  0  0  0  0  0  0  0  0
   -5.8145   15.3557  -34.1591 H   0  0  0  0  0  0  0  0  0  0  0  0
   -7.8657   16.5321  -33.3567 H   0  0  0  0  0  0  0  0  0  0  0  0
   -7.7711   18.9536  -32.7570 H   0  0  0  0  0  0  0  0  0  0  0  0
   -6.5011   21.0393  -32.5698 H   0  0  0  0  0  0  0  0  0  0  0  0
   -2.7072   26.0285  -27.2993 H   0  0  0  0  0  0  0  0  0  0  0  0
  1  2  1  0
  2  3  1  0
  2  4  1  0
  4  5  2  0
  4  6  2  0
  4  7  1  0
  7  8  2  0
  8  9  1  0
  9 10  2  0
 10 11  1  0
 11 12  1  0
 12 13  1  0
 13 14  2  0
 13 15  1  0
 15 16  2  0
 16 17  1  0
 17 18  2  0
 18 19  1  0
 19 20  2  0
 20 21  1  0
 21 22  1  0
 22 23  2  0
 23 24  1  0
 24 25  2  0
 25 26  1  0
 26 27  2  0
 27 28  1  0
 28 29  2  0
 29 30  1  0
 30 31  2  0
 11 32  2  0
 32  7  1  0
 20 15  1  0
 31 22  1  0
 30 25  1  0
  1 33  1  0
  1 34  1  0
  1 35  1  0
  3 36  1  0
  3 37  1  0
  3 38  1  0
  8 39  1  0
  9 40  1  0
 10 41  1  0
 16 42  1  0
 17 43  1  0
 18 44  1  0
 23 45  1  0
 24 46  1  0
 26 47  1  0
 27 48  1  0
 28 49  1  0
 29 50  1  0
 31 51  1  0
 32 52  1  0
M  CHG  1  12  -1
M  END
>  <UniqueID>  (42) 
41

>  <SMILES>  (42) 
CN(C)S(=O)(=O)c1cccc([N-]C(=O)c2cccnc2Oc2ccc3ccccc3c2)c1

>  <Energy>  (42) 
71.94923685717521

>  <Genealogy>  (42) 
CN(C)S(=O)(=O)c1cccc([N-]C(=O)c2cccnc2Oc2ccc3ccccc3c2)c1 (protonated)
CN(C)S(=O)(=O)c1cccc([N-]C(=O)c2cccnc2Oc2ccc3ccccc3c2)c1 (3D coordinates assigned)
CN(C)S(=O)(=O)c1cccc([N-]C(=O)c2cccnc2Oc2ccc3ccccc3c2)c1 (optimized conformer: 71.94923685717521 kcal/mol)

>  <smiles>  (42) 
CN(C)S(=O)(=O)c1cccc(NC(=O)c2cccnc2Oc2ccc3ccccc3c2)c1

>  <score_type>  (42) 
oracle

>  <origin>  (42) 
adgpu

>  <m_score__min__energy>  (42) 
-11.1

>  <m_primary>  (42) 
energy

$$$$
42:0
     RDKit          3D

 45 47  0  0  0  0  0  0  0  0999 V2000
   -6.4490   16.9540  -33.6940 C   0  0  0  0  0  0  0  0  0  0  0  0
   -5.1450   17.0350  -34.4230 C   0  0  0  0  0  0  0  0  0  0  0  0
   -5.0120   17.8700  -35.3570 O   0  0  0  0  0  0  0  0  0  0  0  0
   -4.0350   16.2300  -33.9980 N   0  0  0  0  0  0  0  0  0  0  0  0
   -2.7800   16.1700  -34.7010 C   0  0  0  0  0  0  0  0  0  0  0  0
   -2.4030   15.0040  -35.3910 C   0  0  0  0  0  0  0  0  0  0  0  0
   -1.1710   14.9350  -36.0460 C   0  0  0  0  0  0  0  0  0  0  0  0
   -0.2980   16.0240  -36.0150 C   0  0  0  0  0  0  0  0  0  0  0  0
   -0.6530   17.1870  -35.3250 C   0  0  0  0  0  0  0  0  0  0  0  0
   -1.8870   17.2650  -34.6630 C   0  0  0  0  0  0  0  0  0  0  0  0
   -2.2420   18.4810  -33.9760 C   0  0  0  0  0  0  0  0  0  0  0  0
   -2.5660   19.4890  -33.3960 C   0  0  0  0  0  0  0  0  0  0  0  0
   -2.9830   20.6780  -32.7040 C   0  0  0  0  0  0  0  0  0  0  0  0
   -2.0950   21.3470  -31.8560 C   0  0  0  0  0  0  0  0  0  0  0  0
   -2.5180   22.4780  -31.1530 C   0  0  0  0  0  0  0  0  0  0  0  0
   -3.8340   22.9570  -31.2860 C   0  0  0  0  0  0  0  0  0  0  0  0
   -4.2780   24.0820  -30.4320 C   0  0  0  0  0  0  0  0  0  0  0  0
   -3.5360   25.2990  -30.3910 N   0  0  0  0  0  0  0  0  0  0  0  0
   -5.3440   23.9860  -29.7670 O   0  0  0  0  0  0  0  0  0  0  0  0
   -4.7110   22.3100  -32.1950 C   0  0  0  0  0  0  0  0  0  0  0  0
   -6.0080   22.7760  -32.4540 O   0  0  0  0  0  0  0  0  0  0  0  0
   -7.1780   22.0230  -32.2690 C   0  0  0  0  0  0  0  0  0  0  0  0
   -8.3090   22.5430  -31.6090 C   0  0  0  0  0  0  0  0  0  0  0  0
   -9.4580   21.7590  -31.4550 C   0  0  0  0  0  0  0  0  0  0  0  0
   -9.4880   20.4550  -31.9590 C   0  0  0  0  0  0  0  0  0  0  0  0
   -8.3720   19.9370  -32.6220 C   0  0  0  0  0  0  0  0  0  0  0  0
   -7.2240   20.7200  -32.7800 C   0  0  0  0  0  0  0  0  0  0  0  0
   -4.2840   21.1600  -32.8700 C   0  0  0  0  0  0  0  0  0  0  0  0
   -6.2642   16.9655  -32.6097 H   0  0  0  0  0  0  0  0  0  0  0  0
   -7.0764   17.8149  -33.9682 H   0  0  0  0  0  0  0  0  0  0  0  0
   -6.9651   16.0221  -33.9682 H   0  0  0  0  0  0  0  0  0  0  0  0
   -4.1230   15.7180  -33.0900 H   0  0  0  0  0  0  0  0  0  0  0  0
   -3.0833   14.1399  -35.4151 H   0  0  0  0  0  0  0  0  0  0  0  0
   -0.8881   14.0203  -36.5875 H   0  0  0  0  0  0  0  0  0  0  0  0
    0.6702   15.9670  -36.5340 H   0  0  0  0  0  0  0  0  0  0  0  0
    0.0373   18.0431  -35.3013 H   0  0  0  0  0  0  0  0  0  0  0  0
   -1.0633   20.9828  -31.7423 H   0  0  0  0  0  0  0  0  0  0  0  0
   -1.8140   22.9998  -30.4880 H   0  0  0  0  0  0  0  0  0  0  0  0
   -3.5230   25.9490  -31.2060 H   0  0  0  0  0  0  0  0  0  0  0  0
   -8.2888   23.5691  -31.2132 H   0  0  0  0  0  0  0  0  0  0  0  0
  -10.3378   22.1687  -30.9373 H   0  0  0  0  0  0  0  0  0  0  0  0
  -10.3895   19.8372  -31.8337 H   0  0  0  0  0  0  0  0  0  0  0  0
   -8.3966   18.9119  -33.0202 H   0  0  0  0  0  0  0  0  0  0  0  0
   -6.3514   20.3096  -33.3092 H   0  0  0  0  0  0  0  0  0  0  0  0
   -4.9797   20.6307  -33.5377 H   0  0  0  0  0  0  0  0  0  0  0  0
  1  2  1  0
  2  3  2  0
  2  4  1  0
  4  5  1  0
  5  6  2  0
  6  7  1  0
  7  8  2  0
  8  9  1  0
  9 10  2  0
 10 11  1  0
 11 12  3  0
 12 13  1  0
 13 14  2  0
 14 15  1  0
 15 16  2  0
 16 17  1  0
 17 18  1  0
 17 19  2  0
 16 20  1  0
 20 21  1  0
 21 22  1  0
 22 23  2  0
 23 24  1  0
 24 25  2  0
 25 26  1  0
 26 27  2  0
 20 28  2  0
 10  5  1  0
 28 13  1  0
 27 22  1  0
  1 29  1  0
  1 30  1  0
  1 31  1  0
  4 32  1  0
  6 33  1  0
  7 34  1  0
  8 35  1  0
  9 36  1  0
 14 37  1  0
 15 38  1  0
 18 39  1  0
 23 40  1  0
 24 41  1  0
 25 42  1  0
 26 43  1  0
 27 44  1  0
 28 45  1  0
M  CHG  1  18  -1
M  END
>  <UniqueID>  (43) 
42

>  <SMILES>  (43) 
CC(=O)Nc1ccccc1C#Cc1ccc(C([NH-])=O)c(Oc2ccccc2)c1

>  <Energy>  (43) 
57.492236077670704

>  <Genealogy>  (43) 
CC(=O)Nc1ccccc1C#Cc1ccc(C([NH-])=O)c(Oc2ccccc2)c1 (protonated)
CC(=O)Nc1ccccc1C#Cc1ccc(C([NH-])=O)c(Oc2ccccc2)c1 (3D coordinates assigned)
CC(=O)Nc1ccccc1C#Cc1ccc(C([NH-])=O)c(Oc2ccccc2)c1 (optimized conformer: 57.492236077670704 kcal/mol)

>  <smiles>  (43) 
CC(=O)Nc1ccccc1C#Cc1ccc(C(N)=O)c(Oc2ccccc2)c1

>  <score_type>  (43) 
oracle

>  <origin>  (43) 
adgpu

>  <m_score__min__energy>  (43) 
-10.82

>  <m_primary>  (43) 
energy

$$$$
43:0
     RDKit          3D

 46 48  0  0  0  0  0  0  0  0999 V2000
   -9.1940   23.3480  -32.7640 H   0  0  0  0  0  0  0  0  0  0  0  0
   -8.2360   23.2550  -32.4490 O   0  0  0  0  0  0  0  0  0  0  0  0
   -7.7090   22.0560  -32.0080 N   0  0  0  0  0  0  0  0  0  0  0  0
   -8.3130   21.2100  -32.1030 H   0  0  0  0  0  0  0  0  0  0  0  0
   -6.4990   21.9320  -31.5270 C   0  0  0  0  0  0  0  0  0  0  0  0
   -5.6660   23.1090  -31.1940 C   0  0  0  0  0  0  0  0  0  0  0  0
   -6.2130   24.4020  -31.1830 C   0  0  0  0  0  0  0  0  0  0  0  0
   -7.2667   24.5602  -31.4561 H   0  0  0  0  0  0  0  0  0  0  0  0
   -5.4100   25.4850  -30.8230 C   0  0  0  0  0  0  0  0  0  0  0  0
   -5.8278   26.5026  -30.8227 H   0  0  0  0  0  0  0  0  0  0  0  0
   -4.1130   25.2840  -30.4730 N   0  0  0  0  0  0  0  0  0  0  0  0
   -3.5560   24.0400  -30.4600 C   0  0  0  0  0  0  0  0  0  0  0  0
   -2.2210   23.8550  -30.0850 O   0  0  0  0  0  0  0  0  0  0  0  0
   -1.7450   22.6820  -29.4900 C   0  0  0  0  0  0  0  0  0  0  0  0
   -1.6960   22.6150  -28.0930 C   0  0  0  0  0  0  0  0  0  0  0  0
   -2.0473   23.4677  -27.4934 H   0  0  0  0  0  0  0  0  0  0  0  0
   -1.2050   21.4750  -27.4540 C   0  0  0  0  0  0  0  0  0  0  0  0
   -1.1760   21.4324  -26.3552 H   0  0  0  0  0  0  0  0  0  0  0  0
   -0.7490   20.3850  -28.2070 C   0  0  0  0  0  0  0  0  0  0  0  0
   -0.2480   19.1500  -27.5190 C   0  0  0  0  0  0  0  0  0  0  0  0
   -0.3044   19.2889  -26.4293 H   0  0  0  0  0  0  0  0  0  0  0  0
   -0.8684   18.2900  -27.8116 H   0  0  0  0  0  0  0  0  0  0  0  0
    0.7962   18.9653  -27.8116 H   0  0  0  0  0  0  0  0  0  0  0  0
   -0.8360   20.4280  -29.6070 C   0  0  0  0  0  0  0  0  0  0  0  0
   -0.5005   19.5648  -30.2005 H   0  0  0  0  0  0  0  0  0  0  0  0
   -1.3480   21.5640  -30.2580 C   0  0  0  0  0  0  0  0  0  0  0  0
   -1.4530   21.5630  -31.7590 C   0  0  0  0  0  0  0  0  0  0  0  0
   -2.5131   21.5529  -32.0524 H   0  0  0  0  0  0  0  0  0  0  0  0
   -0.9699   22.4658  -32.1610 H   0  0  0  0  0  0  0  0  0  0  0  0
   -0.9528   20.6696  -32.1610 H   0  0  0  0  0  0  0  0  0  0  0  0
   -4.3310   22.9300  -30.8070 C   0  0  0  0  0  0  0  0  0  0  0  0
   -3.8952   21.9205  -30.7765 H   0  0  0  0  0  0  0  0  0  0  0  0
   -5.9740   20.6290  -31.2190 N   0  0  0  0  0  0  0  0  0  0  0  0
   -5.3350   20.5460  -30.3950 H   0  0  0  0  0  0  0  0  0  0  0  0
   -6.2330   19.4460  -31.9950 C   0  0  0  0  0  0  0  0  0  0  0  0
   -5.3580   19.0330  -33.0170 C   0  0  0  0  0  0  0  0  0  0  0  0
   -4.4655   19.6328  -33.2487 H   0  0  0  0  0  0  0  0  0  0  0  0
   -5.6170   17.8650  -33.7390 C   0  0  0  0  0  0  0  0  0  0  0  0
   -4.9346   17.5547  -34.5440 H   0  0  0  0  0  0  0  0  0  0  0  0
   -6.7430   17.0890  -33.4400 C   0  0  0  0  0  0  0  0  0  0  0  0
   -7.0080   15.8840  -34.1830 C   0  0  0  0  0  0  0  0  0  0  0  0
   -7.2210   14.9160  -34.7800 N   0  0  0  0  0  0  0  0  0  0  0  0
   -7.6060   17.4820  -32.4110 C   0  0  0  0  0  0  0  0  0  0  0  0
   -8.4884   16.8708  -32.1705 H   0  0  0  0  0  0  0  0  0  0  0  0
   -7.3480   18.6510  -31.6880 C   0  0  0  0  0  0  0  0  0  0  0  0
   -8.0238   18.9494  -30.8730 H   0  0  0  0  0  0  0  0  0  0  0  0
  1  2  1  0
  2  3  1  0
  3  4  1  0
  3  5  2  0
  5  6  1  0
  6  7  2  0
  7  8  1  0
  7  9  1  0
  9 10  1  0
  9 11  2  0
 11 12  1  0
 12 13  1  0
 13 14  1  0
 14 15  2  0
 15 16  1  0
 15 17  1  0
 17 18  1  0
 17 19  2  0
 19 20  1  0
 20 21  1  0
 20 22  1  0
 20 23  1  0
 19 24  1  0
 24 25  1  0
 24 26  2  0
 26 27  1  0
 27 28  1  0
 27 29  1  0
 27 30  1  0
 12 31  2  0
 31 32  1  0
  5 33  1  0
 33 34  1  0
 33 35  1  0
 35 36  2  0
 36 37  1  0
 36 38  1  0
 38 39  1  0
 38 40  2  0
 40 41  1  0
 41 42  3  0
 40 43  1  0
 43 44  1  0
 43 45  2  0
 45 46  1  0
 31  6  1  0
 45 35  1  0
 26 14  1  0
M  CHG  1   3   1
M  END
>  <UniqueID>  (44) 
43

>  <SMILES>  (44) 
Cc1ccc(Oc2cc(/C(Nc3ccc(C#N)cc3)=[NH+]\O)ccn2)c(C)c1

>  <Energy>  (44) 
66.32919581378401

>  <Genealogy>  (44) 
Cc1ccc(Oc2cc(C(Nc3ccc(C#N)cc3)=[NH+]O)ccn2)c(C)c1 (protonated)
Cc1ccc(Oc2cc(/C(Nc3ccc(C#N)cc3)=[NH+]\O)ccn2)c(C)c1 (cis-trans isomerization)
Cc1ccc(Oc2cc(/C(Nc3ccc(C#N)cc3)=[NH+]\O)ccn2)c(C)c1 (3D coordinates assigned)
Cc1ccc(Oc2cc(/C(Nc3ccc(C#N)cc3)=[NH+]\O)ccn2)c(C)c1 (optimized conformer: 66.32919581378401 kcal/mol)

>  <smiles>  (44) 
Cc1ccc(Oc2cc(C(=NO)Nc3ccc(C#N)cc3)ccn2)c(C)c1

>  <score_type>  (44) 
oracle

>  <origin>  (44) 
adgpu

>  <m_score__min__energy>  (44) 
-8.7100000000000009

>  <m_primary>  (44) 
energy

$$$$
44:0
     RDKit          3D

 60 63  0  0  0  0  0  0  0  0999 V2000
   -7.1370   17.1970  -32.3480 O   0  0  0  0  0  0  0  0  0  0  0  0
   -7.2420   18.4170  -32.6460 C   0  0  0  0  0  0  0  0  0  0  0  0
   -6.4890   18.9500  -33.8380 C   0  0  0  0  0  0  0  0  0  0  0  0
   -5.1580   19.5200  -33.4360 C   0  0  0  0  0  0  0  0  0  0  0  0
   -4.0970   18.6860  -33.0580 C   0  0  0  0  0  0  0  0  0  0  0  0
   -2.8710   19.2540  -32.7040 C   0  0  0  0  0  0  0  0  0  0  0  0
   -2.6970   20.6460  -32.7450 C   0  0  0  0  0  0  0  0  0  0  0  0
   -1.3920   21.2690  -32.3180 C   0  0  0  0  0  0  0  0  0  0  0  0
   -0.5550   20.3220  -31.7510 F   0  0  0  0  0  0  0  0  0  0  0  0
   -0.7660   21.8190  -33.4220 F   0  0  0  0  0  0  0  0  0  0  0  0
   -1.6150   22.2630  -31.3820 F   0  0  0  0  0  0  0  0  0  0  0  0
   -3.7950   21.4450  -33.1050 C   0  0  0  0  0  0  0  0  0  0  0  0
   -4.9780   20.8700  -33.4450 N   0  0  0  0  0  0  0  0  0  0  0  0
   -8.1970   19.2160  -31.9360 N   0  0  0  0  0  0  0  0  0  0  0  0
   -8.1470   20.6370  -31.7630 C   0  0  0  0  0  0  0  0  0  0  0  0
   -9.2340   21.4500  -32.1150 C   0  0  0  0  0  0  0  0  0  0  0  0
   -9.1470   22.8380  -31.9780 C   0  0  0  0  0  0  0  0  0  0  0  0
   -7.9700   23.4230  -31.5040 C   0  0  0  0  0  0  0  0  0  0  0  0
   -6.8630   22.6240  -31.1640 C   0  0  0  0  0  0  0  0  0  0  0  0
   -5.6110   23.2500  -30.6770 C   0  0  0  0  0  0  0  0  0  0  0  0
   -4.8340   23.8080  -31.5000 O   0  0  0  0  0  0  0  0  0  0  0  0
   -5.2990   23.2710  -29.2740 N   0  0  0  0  0  0  0  0  0  0  0  0
   -3.9700   23.4570  -28.7560 C   0  0  0  0  0  0  0  0  0  0  0  0
   -3.4560   22.5380  -27.8280 C   0  0  0  0  0  0  0  0  0  0  0  0
   -2.1560   22.6810  -27.3320 C   0  0  0  0  0  0  0  0  0  0  0  0
   -1.3500   23.7420  -27.7650 C   0  0  0  0  0  0  0  0  0  0  0  0
    0.3000   23.8900  -27.1640 S   0  0  0  0  0  0  0  0  0  0  0  0
    1.1160   24.6150  -28.1970 O   0  0  0  0  0  0  0  0  0  0  0  0
    0.8940   22.5220  -26.9690 O   0  0  0  0  0  0  0  0  0  0  0  0
    0.3310   24.7950  -25.6630 N   0  0  0  0  0  0  0  0  0  0  0  0
    0.9730   26.1110  -25.8270 C   0  0  0  0  0  0  0  0  0  0  0  0
    0.0760   27.1080  -26.5960 C   0  0  0  0  0  0  0  0  0  0  0  0
   -1.2940   26.7470  -26.6120 O   0  0  0  0  0  0  0  0  0  0  0  0
   -1.6870   26.2620  -25.3490 C   0  0  0  0  0  0  0  0  0  0  0  0
   -1.0180   24.9050  -25.0640 C   0  0  0  0  0  0  0  0  0  0  0  0
   -1.8490   24.6480  -28.7090 C   0  0  0  0  0  0  0  0  0  0  0  0
   -3.1480   24.5060  -29.2050 C   0  0  0  0  0  0  0  0  0  0  0  0
   -6.9590   21.2280  -31.3150 C   0  0  0  0  0  0  0  0  0  0  0  0
   -6.3260   18.1308  -34.5538 H   0  0  0  0  0  0  0  0  0  0  0  0
   -7.0862   19.7536  -34.2936 H   0  0  0  0  0  0  0  0  0  0  0  0
   -4.2285   17.5940  -33.0403 H   0  0  0  0  0  0  0  0  0  0  0  0
   -2.0379   18.6072  -32.3916 H   0  0  0  0  0  0  0  0  0  0  0  0
   -3.6965   22.5406  -33.1116 H   0  0  0  0  0  0  0  0  0  0  0  0
  -10.1579   20.9938  -32.5001 H   0  0  0  0  0  0  0  0  0  0  0  0
  -10.0065   23.4710  -32.2437 H   0  0  0  0  0  0  0  0  0  0  0  0
   -7.9084   24.5159  -31.3959 H   0  0  0  0  0  0  0  0  0  0  0  0
   -6.0930   23.2690  -28.5950 H   0  0  0  0  0  0  0  0  0  0  0  0
   -4.0805   21.6987  -27.4881 H   0  0  0  0  0  0  0  0  0  0  0  0
   -1.7655   21.9586  -26.6001 H   0  0  0  0  0  0  0  0  0  0  0  0
    1.1903   26.5254  -24.8315 H   0  0  0  0  0  0  0  0  0  0  0  0
    1.8940   25.9664  -26.4109 H   0  0  0  0  0  0  0  0  0  0  0  0
    0.1692   28.0961  -26.1216 H   0  0  0  0  0  0  0  0  0  0  0  0
    0.4200   27.1097  -27.6408 H   0  0  0  0  0  0  0  0  0  0  0  0
   -1.3879   26.9835  -24.5744 H   0  0  0  0  0  0  0  0  0  0  0  0
   -2.7791   26.1304  -25.3410 H   0  0  0  0  0  0  0  0  0  0  0  0
   -0.9307   24.7778  -23.9749 H   0  0  0  0  0  0  0  0  0  0  0  0
   -1.6465   24.1237  -25.5163 H   0  0  0  0  0  0  0  0  0  0  0  0
   -1.2157   25.4753  -29.0618 H   0  0  0  0  0  0  0  0  0  0  0  0
   -3.5295   25.2189  -29.9508 H   0  0  0  0  0  0  0  0  0  0  0  0
   -6.0915   20.5943  -31.0786 H   0  0  0  0  0  0  0  0  0  0  0  0
  1  2  2  0
  2  3  1  0
  3  4  1  0
  4  5  2  0
  5  6  1  0
  6  7  2  0
  7  8  1  0
  8  9  1  0
  8 10  1  0
  8 11  1  0
  7 12  1  0
 12 13  2  0
  2 14  1  0
 14 15  1  0
 15 16  2  0
 16 17  1  0
 17 18  2  0
 18 19  1  0
 19 20  1  0
 20 21  2  0
 20 22  1  0
 22 23  1  0
 23 24  2  0
 24 25  1  0
 25 26  2  0
 26 27  1  0
 27 28  2  0
 27 29  2  0
 27 30  1  0
 30 31  1  0
 31 32  1  0
 32 33  1  0
 33 34  1  0
 34 35  1  0
 26 36  1  0
 36 37  2  0
 19 38  2  0
 13  4  1  0
 38 15  1  0
 37 23  1  0
 35 30  1  0
  3 39  1  0
  3 40  1  0
  5 41  1  0
  6 42  1  0
 12 43  1  0
 16 44  1  0
 17 45  1  0
 18 46  1  0
 22 47  1  0
 24 48  1  0
 25 49  1  0
 31 50  1  0
 31 51  1  0
 32 52  1  0
 32 53  1  0
 34 54  1  0
 34 55  1  0
 35 56  1  0
 35 57  1  0
 36 58  1  0
 37 59  1  0
 38 60  1  0
M  CHG  1  14  -1
M  END
>  <UniqueID>  (45) 
44

>  <SMILES>  (45) 
O=C(Cc1ccc(C(F)(F)F)cn1)[N-]c1cccc(C(=O)Nc2ccc(S(=O)(=O)N3CCOCC3)cc2)c1

>  <Energy>  (45) 
85.38605426831047

>  <Genealogy>  (45) 
O=C(Cc1ccc(C(F)(F)F)cn1)[N-]c1cccc(C(=O)Nc2ccc(S(=O)(=O)N3CCOCC3)cc2)c1 (protonated)
O=C(Cc1ccc(C(F)(F)F)cn1)[N-]c1cccc(C(=O)Nc2ccc(S(=O)(=O)N3CCOCC3)cc2)c1 (3D coordinates assigned)
O=C(Cc1ccc(C(F)(F)F)cn1)[N-]c1cccc(C(=O)Nc2ccc(S(=O)(=O)N3CCOCC3)cc2)c1 (nonaromatic ring conformer: 85.38605426831047 kcal/mol)

>  <smiles>  (45) 
O=C(Cc1ccc(C(F)(F)F)cn1)Nc1cccc(C(=O)Nc2ccc(S(=O)(=O)N3CCOCC3)cc2)c1

>  <score_type>  (45) 
oracle

>  <origin>  (45) 
adgpu

>  <m_score__min__energy>  (45) 
-10.56

>  <m_primary>  (45) 
energy

$$$$
45:0
     RDKit          3D

 60 63  0  0  0  0  0  0  0  0999 V2000
   -3.5720   21.5770  -27.8050 O   0  0  0  0  0  0  0  0  0  0  0  0
   -2.7550   21.5470  -28.7660 C   0  0  0  0  0  0  0  0  0  0  0  0
   -2.9060   22.4710  -29.8570 N   0  0  0  0  0  0  0  0  0  0  0  0
   -4.1440   23.1390  -30.1590 C   0  0  0  0  0  0  0  0  0  0  0  0
   -5.2930   22.4040  -30.5030 C   0  0  0  0  0  0  0  0  0  0  0  0
   -6.4960   23.0590  -30.8000 C   0  0  0  0  0  0  0  0  0  0  0  0
   -7.9370   22.1220  -31.2040 S   0  0  0  0  0  0  0  0  0  0  0  0
   -8.8460   22.0670  -30.0070 O   0  0  0  0  0  0  0  0  0  0  0  0
   -8.6760   22.8110  -32.3170 O   0  0  0  0  0  0  0  0  0  0  0  0
   -7.5360   20.4950  -31.6980 N   0  0  0  0  0  0  0  0  0  0  0  0
   -6.7160   20.5160  -32.9220 C   0  0  0  0  0  0  0  0  0  0  0  0
   -6.5790   19.0980  -33.5120 C   0  0  0  0  0  0  0  0  0  0  0  0
   -6.9940   18.1190  -32.5800 O   0  0  0  0  0  0  0  0  0  0  0  0
   -8.3800   18.2620  -32.3140 C   0  0  0  0  0  0  0  0  0  0  0  0
   -8.7560   19.7050  -31.9180 C   0  0  0  0  0  0  0  0  0  0  0  0
   -6.5470   24.4580  -30.7760 C   0  0  0  0  0  0  0  0  0  0  0  0
   -5.4030   25.1970  -30.4620 C   0  0  0  0  0  0  0  0  0  0  0  0
   -4.2040   24.5440  -30.1580 C   0  0  0  0  0  0  0  0  0  0  0  0
   -3.0790   25.2990  -29.8430 O   0  0  0  0  0  0  0  0  0  0  0  0
   -1.6250   20.5870  -28.7320 C   0  0  0  0  0  0  0  0  0  0  0  0
   -1.1740   20.0710  -27.5090 C   0  0  0  0  0  0  0  0  0  0  0  0
   -0.1250   19.1530  -27.4730 C   0  0  0  0  0  0  0  0  0  0  0  0
    0.4950   18.7280  -28.6520 C   0  0  0  0  0  0  0  0  0  0  0  0
    1.9020   17.4370  -28.4640 Br  0  0  0  0  0  0  0  0  0  0  0  0
    0.0560   19.2410  -29.8960 C   0  0  0  0  0  0  0  0  0  0  0  0
    0.7450   18.7470  -31.4550 S   0  0  0  0  0  0  0  0  0  0  0  0
    0.7890   17.2510  -31.5960 O   0  0  0  0  0  0  0  0  0  0  0  0
    2.1580   19.2580  -31.5220 O   0  0  0  0  0  0  0  0  0  0  0  0
   -0.1770   19.4480  -32.7640 N   0  0  0  0  0  0  0  0  0  0  0  0
   -0.2420   20.9180  -32.6110 C   0  0  0  0  0  0  0  0  0  0  0  0
   -1.3610   21.5190  -33.4670 C   0  0  0  0  0  0  0  0  0  0  0  0
   -2.7370   20.9930  -33.0230 C   0  0  0  0  0  0  0  0  0  0  0  0
   -2.6560   19.6180  -32.3370 C   0  0  0  0  0  0  0  0  0  0  0  0
   -1.4980   18.7830  -32.9050 C   0  0  0  0  0  0  0  0  0  0  0  0
   -1.0090   20.1560  -29.9200 C   0  0  0  0  0  0  0  0  0  0  0  0
   -2.0490   22.7530  -30.3840 H   0  0  0  0  0  0  0  0  0  0  0  0
   -5.2469   21.3056  -30.5392 H   0  0  0  0  0  0  0  0  0  0  0  0
   -7.1936   21.1715  -33.6651 H   0  0  0  0  0  0  0  0  0  0  0  0
   -5.7135   20.8917  -32.6691 H   0  0  0  0  0  0  0  0  0  0  0  0
   -7.2027   19.0223  -34.4149 H   0  0  0  0  0  0  0  0  0  0  0  0
   -5.5215   18.9215  -33.7581 H   0  0  0  0  0  0  0  0  0  0  0  0
   -8.9436   17.9851  -33.2171 H   0  0  0  0  0  0  0  0  0  0  0  0
   -8.6289   17.6056  -31.4671 H   0  0  0  0  0  0  0  0  0  0  0  0
   -9.3470   20.1629  -32.7249 H   0  0  0  0  0  0  0  0  0  0  0  0
   -9.3476   19.6847  -30.9909 H   0  0  0  0  0  0  0  0  0  0  0  0
   -7.4896   24.9767  -31.0048 H   0  0  0  0  0  0  0  0  0  0  0  0
   -5.4457   26.2961  -30.4539 H   0  0  0  0  0  0  0  0  0  0  0  0
   -1.6509   20.3925  -26.5714 H   0  0  0  0  0  0  0  0  0  0  0  0
    0.2189   18.7585  -26.5055 H   0  0  0  0  0  0  0  0  0  0  0  0
   -0.4300   21.1601  -31.5546 H   0  0  0  0  0  0  0  0  0  0  0  0
    0.7160   21.3439  -32.9440 H   0  0  0  0  0  0  0  0  0  0  0  0
   -1.3441   22.6141  -33.3642 H   0  0  0  0  0  0  0  0  0  0  0  0
   -1.1957   21.2281  -34.5149 H   0  0  0  0  0  0  0  0  0  0  0  0
   -3.1775   21.7126  -32.3172 H   0  0  0  0  0  0  0  0  0  0  0  0
   -3.3547   20.8772  -33.9258 H   0  0  0  0  0  0  0  0  0  0  0  0
   -2.4983   19.7636  -31.2581 H   0  0  0  0  0  0  0  0  0  0  0  0
   -3.5975   19.0799  -32.5213 H   0  0  0  0  0  0  0  0  0  0  0  0
   -1.4648   17.8216  -32.3715 H   0  0  0  0  0  0  0  0  0  0  0  0
   -1.6857   18.6504  -33.9807 H   0  0  0  0  0  0  0  0  0  0  0  0
   -1.3676   20.5424  -30.8855 H   0  0  0  0  0  0  0  0  0  0  0  0
  1  2  2  0
  2  3  1  0
  3  4  1  0
  4  5  2  0
  5  6  1  0
  6  7  1  0
  7  8  2  0
  7  9  2  0
  7 10  1  0
 10 11  1  0
 11 12  1  0
 12 13  1  0
 13 14  1  0
 14 15  1  0
  6 16  2  0
 16 17  1  0
 17 18  2  0
 18 19  1  0
  2 20  1  0
 20 21  2  0
 21 22  1  0
 22 23  2  0
 23 24  1  0
 23 25  1  0
 25 26  1  0
 26 27  2  0
 26 28  2  0
 26 29  1  0
 29 30  1  0
 30 31  1  0
 31 32  1  0
 32 33  1  0
 33 34  1  0
 25 35  2  0
 18  4  1  0
 35 20  1  0
 15 10  1  0
 34 29  1  0
  3 36  1  0
  5 37  1  0
 11 38  1  0
 11 39  1  0
 12 40  1  0
 12 41  1  0
 14 42  1  0
 14 43  1  0
 15 44  1  0
 15 45  1  0
 16 46  1  0
 17 47  1  0
 21 48  1  0
 22 49  1  0
 30 50  1  0
 30 51  1  0
 31 52  1  0
 31 53  1  0
 32 54  1  0
 32 55  1  0
 33 56  1  0
 33 57  1  0
 34 58  1  0
 34 59  1  0
 35 60  1  0
M  CHG  1  19  -1
M  END
>  <UniqueID>  (46) 
45

>  <SMILES>  (46) 
O=C(Nc1cc(S(=O)(=O)N2CCOCC2)ccc1[O-])c1ccc(Br)c(S(=O)(=O)N2CCCCC2)c1

>  <Energy>  (46) 
83.57729486118596

>  <Genealogy>  (46) 
O=C(Nc1cc(S(=O)(=O)N2CCOCC2)ccc1[O-])c1ccc(Br)c(S(=O)(=O)N2CCCCC2)c1 (protonated)
O=C(Nc1cc(S(=O)(=O)N2CCOCC2)ccc1[O-])c1ccc(Br)c(S(=O)(=O)N2CCCCC2)c1 (3D coordinates assigned)
O=C(Nc1cc(S(=O)(=O)N2CCOCC2)ccc1[O-])c1ccc(Br)c(S(=O)(=O)N2CCCCC2)c1 (nonaromatic ring conformer: 83.57729486118596 kcal/mol)

>  <smiles>  (46) 
O=C(Nc1cc(S(=O)(=O)N2CCOCC2)ccc1O)c1ccc(Br)c(S(=O)(=O)N2CCCCC2)c1

>  <score_type>  (46) 
oracle

>  <origin>  (46) 
adgpu

>  <m_score__min__energy>  (46) 
-13.710000000000001

>  <m_primary>  (46) 
energy

$$$$
46:0
     RDKit          3D

 49 52  0  0  0  0  0  0  0  0999 V2000
   -6.1650   24.8070  -31.9650 O   0  0  0  0  0  0  0  0  0  0  0  0
   -5.9430   23.5740  -31.8330 C   0  0  0  0  0  0  0  0  0  0  0  0
   -4.5900   23.1260  -31.6970 N   0  0  0  0  0  0  0  0  0  0  0  0
   -3.8140   23.2140  -30.4930 C   0  0  0  0  0  0  0  0  0  0  0  0
   -3.4350   22.0530  -29.7930 C   0  0  0  0  0  0  0  0  0  0  0  0
   -2.7120   22.1400  -28.5900 C   0  0  0  0  0  0  0  0  0  0  0  0
   -2.3030   20.9550  -27.8790 N   0  0  0  0  0  0  0  0  0  0  0  0
   -1.0680   20.4320  -27.7440 C   0  0  0  0  0  0  0  0  0  0  0  0
   -1.1230   19.3300  -26.9740 N   0  0  0  0  0  0  0  0  0  0  0  0
   -2.4000   19.1940  -26.6470 N   0  0  0  0  0  0  0  0  0  0  0  0
   -3.1110   20.1710  -27.1870 N   0  0  0  0  0  0  0  0  0  0  0  0
   -2.3870   23.4090  -28.0860 C   0  0  0  0  0  0  0  0  0  0  0  0
   -2.7720   24.5650  -28.7680 C   0  0  0  0  0  0  0  0  0  0  0  0
   -3.4870   24.4760  -29.9650 C   0  0  0  0  0  0  0  0  0  0  0  0
   -3.8580   25.6540  -30.6150 O   0  0  0  0  0  0  0  0  0  0  0  0
   -7.0710   22.6200  -31.8700 C   0  0  0  0  0  0  0  0  0  0  0  0
   -8.3900   23.0910  -31.9480 C   0  0  0  0  0  0  0  0  0  0  0  0
   -9.4550   22.1910  -32.0280 C   0  0  0  0  0  0  0  0  0  0  0  0
   -9.2130   20.8160  -32.0520 C   0  0  0  0  0  0  0  0  0  0  0  0
   -7.9010   20.3280  -31.9730 C   0  0  0  0  0  0  0  0  0  0  0  0
   -7.5900   18.5930  -32.1280 S   0  0  0  0  0  0  0  0  0  0  0  0
   -8.8870   17.8470  -31.9770 O   0  0  0  0  0  0  0  0  0  0  0  0
   -6.6900   18.1700  -31.0000 O   0  0  0  0  0  0  0  0  0  0  0  0
   -6.8350   18.1470  -33.6440 N   0  0  0  0  0  0  0  0  0  0  0  0
   -6.0060   19.2200  -34.2230 C   0  0  0  0  0  0  0  0  0  0  0  0
   -4.5990   19.3040  -33.6070 C   0  0  0  0  0  0  0  0  0  0  0  0
   -4.0090   17.9370  -33.2270 C   0  0  0  0  0  0  0  0  0  0  0  0
   -4.7170   16.7960  -33.9510 C   0  0  0  0  0  0  0  0  0  0  0  0
   -6.2170   16.7990  -33.6190 C   0  0  0  0  0  0  0  0  0  0  0  0
   -6.8330   21.2340  -31.8800 C   0  0  0  0  0  0  0  0  0  0  0  0
   -3.7079   21.0650  -30.1922 H   0  0  0  0  0  0  0  0  0  0  0  0
   -0.1533   20.8440  -28.1952 H   0  0  0  0  0  0  0  0  0  0  0  0
   -1.8237   23.4936  -27.1450 H   0  0  0  0  0  0  0  0  0  0  0  0
   -2.5106   25.5525  -28.3600 H   0  0  0  0  0  0  0  0  0  0  0  0
   -4.1630   25.6670  -31.5810 H   0  0  0  0  0  0  0  0  0  0  0  0
   -8.5863   24.1733  -31.9462 H   0  0  0  0  0  0  0  0  0  0  0  0
  -10.4879   22.5666  -32.0723 H   0  0  0  0  0  0  0  0  0  0  0  0
  -10.0551   20.1129  -32.1332 H   0  0  0  0  0  0  0  0  0  0  0  0
   -5.9036   19.0374  -35.3029 H   0  0  0  0  0  0  0  0  0  0  0  0
   -6.5119   20.1730  -34.0088 H   0  0  0  0  0  0  0  0  0  0  0  0
   -3.9283   19.7811  -34.3367 H   0  0  0  0  0  0  0  0  0  0  0  0
   -4.6890   19.8852  -32.6774 H   0  0  0  0  0  0  0  0  0  0  0  0
   -2.9423   17.9220  -33.4954 H   0  0  0  0  0  0  0  0  0  0  0  0
   -4.1453   17.7935  -32.1450 H   0  0  0  0  0  0  0  0  0  0  0  0
   -4.5859   16.9188  -35.0362 H   0  0  0  0  0  0  0  0  0  0  0  0
   -4.2812   15.8408  -33.6229 H   0  0  0  0  0  0  0  0  0  0  0  0
   -6.7358   16.1664  -34.3543 H   0  0  0  0  0  0  0  0  0  0  0  0
   -6.3174   16.4206  -32.5910 H   0  0  0  0  0  0  0  0  0  0  0  0
   -5.8017   20.8569  -31.8144 H   0  0  0  0  0  0  0  0  0  0  0  0
  1  2  2  0
  2  3  1  0
  3  4  1  0
  4  5  2  0
  5  6  1  0
  6  7  1  0
  7  8  1  0
  8  9  2  0
  9 10  1  0
 10 11  2  0
  6 12  2  0
 12 13  1  0
 13 14  2  0
 14 15  1  0
  2 16  1  0
 16 17  2  0
 17 18  1  0
 18 19  2  0
 19 20  1  0
 20 21  1  0
 21 22  2  0
 21 23  2  0
 21 24  1  0
 24 25  1  0
 25 26  1  0
 26 27  1  0
 27 28  1  0
 28 29  1  0
 20 30  2  0
 14  4  1  0
 30 16  1  0
 11  7  1  0
 29 24  1  0
  5 31  1  0
  8 32  1  0
 12 33  1  0
 13 34  1  0
 15 35  1  0
 17 36  1  0
 18 37  1  0
 19 38  1  0
 25 39  1  0
 25 40  1  0
 26 41  1  0
 26 42  1  0
 27 43  1  0
 27 44  1  0
 28 45  1  0
 28 46  1  0
 29 47  1  0
 29 48  1  0
 30 49  1  0
M  CHG  1   3  -1
M  END
>  <UniqueID>  (47) 
46

>  <SMILES>  (47) 
O=C([N-]c1cc(-n2cnnn2)ccc1O)c1cccc(S(=O)(=O)N2CCCCC2)c1

>  <Energy>  (47) 
104.94487706709856

>  <Genealogy>  (47) 
O=C([N-]c1cc(-n2cnnn2)ccc1O)c1cccc(S(=O)(=O)N2CCCCC2)c1 (protonated)
O=C([N-]c1cc(-n2cnnn2)ccc1O)c1cccc(S(=O)(=O)N2CCCCC2)c1 (3D coordinates assigned)
O=C([N-]c1cc(-n2cnnn2)ccc1O)c1cccc(S(=O)(=O)N2CCCCC2)c1 (nonaromatic ring conformer: 104.94487706709856 kcal/mol)

>  <smiles>  (47) 
O=C(Nc1cc(-n2cnnn2)ccc1O)c1cccc(S(=O)(=O)N2CCCCC2)c1

>  <score_type>  (47) 
oracle

>  <origin>  (47) 
adgpu

>  <m_score__min__energy>  (47) 
-13.300000000000001

>  <m_primary>  (47) 
energy

$$$$
47:0
     RDKit          3D

 37 40  0  0  0  0  0  0  0  0999 V2000
   -5.8059   21.8909  -29.5615 H   0  0  0  0  0  0  0  0  0  0  0  0
   -5.4670   22.7740  -30.1230 C   0  0  0  0  0  0  0  0  0  0  0  0
   -6.0520   23.3580  -31.2280 C   0  0  0  0  0  0  0  0  0  0  0  0
   -7.2980   22.9320  -31.8910 C   0  0  0  0  0  0  0  0  0  0  0  0
   -8.0250   23.7960  -32.4470 O   0  0  0  0  0  0  0  0  0  0  0  0
   -7.7430   21.5700  -31.8530 N   0  0  0  0  0  0  0  0  0  0  0  0
   -7.1310   20.5600  -32.4040 C   0  0  0  0  0  0  0  0  0  0  0  0
   -5.7490   20.6690  -33.3850 S   0  0  0  0  0  0  0  0  0  0  0  0
   -5.7160   19.0140  -33.6560 C   0  0  0  0  0  0  0  0  0  0  0  0
   -4.8040   18.2860  -34.4160 C   0  0  0  0  0  0  0  0  0  0  0  0
   -3.9719   18.7861  -34.9333 H   0  0  0  0  0  0  0  0  0  0  0  0
   -4.9770   16.8960  -34.5030 C   0  0  0  0  0  0  0  0  0  0  0  0
   -4.2727   16.2936  -35.0954 H   0  0  0  0  0  0  0  0  0  0  0  0
   -6.0460   16.2680  -33.8370 C   0  0  0  0  0  0  0  0  0  0  0  0
   -6.1717   15.1778  -33.9126 H   0  0  0  0  0  0  0  0  0  0  0  0
   -6.9540   17.0240  -33.0760 C   0  0  0  0  0  0  0  0  0  0  0  0
   -7.7898   16.5340  -32.5551 H   0  0  0  0  0  0  0  0  0  0  0  0
   -6.7780   18.4130  -32.9910 C   0  0  0  0  0  0  0  0  0  0  0  0
   -7.5770   19.2760  -32.2940 N   0  0  0  0  0  0  0  0  0  0  0  0
   -8.7540   18.8630  -31.5230 C   0  0  0  0  0  0  0  0  0  0  0  0
   -8.5338   18.9403  -30.4480 H   0  0  0  0  0  0  0  0  0  0  0  0
   -9.6029   19.5169  -31.7713 H   0  0  0  0  0  0  0  0  0  0  0  0
   -9.0082   17.8220  -31.7713 H   0  0  0  0  0  0  0  0  0  0  0  0
   -5.3330   24.4310  -31.6060 N   0  0  0  0  0  0  0  0  0  0  0  0
   -4.3260   24.5190  -30.7870 O   0  0  0  0  0  0  0  0  0  0  0  0
   -4.3540   23.5610  -29.8880 C   0  0  0  0  0  0  0  0  0  0  0  0
   -3.3420   23.3930  -28.8210 C   0  0  0  0  0  0  0  0  0  0  0  0
   -2.9660   22.1180  -28.3600 C   0  0  0  0  0  0  0  0  0  0  0  0
   -3.4297   21.2203  -28.7948 H   0  0  0  0  0  0  0  0  0  0  0  0
   -2.0050   21.9860  -27.3510 C   0  0  0  0  0  0  0  0  0  0  0  0
   -1.7169   20.9858  -26.9951 H   0  0  0  0  0  0  0  0  0  0  0  0
   -1.4110   23.1210  -26.7950 C   0  0  0  0  0  0  0  0  0  0  0  0
   -0.2060   22.9510  -25.5310 Cl  0  0  0  0  0  0  0  0  0  0  0  0
   -1.7770   24.3920  -27.2470 C   0  0  0  0  0  0  0  0  0  0  0  0
   -1.3096   25.2861  -26.8088 H   0  0  0  0  0  0  0  0  0  0  0  0
   -2.7360   24.5290  -28.2550 C   0  0  0  0  0  0  0  0  0  0  0  0
   -3.0185   25.5319  -28.6078 H   0  0  0  0  0  0  0  0  0  0  0  0
  1  2  1  0
  2  3  1  0
  3  4  1  0
  4  5  2  0
  4  6  1  0
  6  7  2  0
  7  8  1  0
  8  9  1  0
  9 10  2  0
 10 11  1  0
 10 12  1  0
 12 13  1  0
 12 14  2  0
 14 15  1  0
 14 16  1  0
 16 17  1  0
 16 18  2  0
 18 19  1  0
 19 20  1  0
 20 21  1  0
 20 22  1  0
 20 23  1  0
  3 24  2  0
 24 25  1  0
 25 26  1  0
 26 27  1  0
 27 28  2  0
 28 29  1  0
 28 30  1  0
 30 31  1  0
 30 32  2  0
 32 33  1  0
 32 34  1  0
 34 35  1  0
 34 36  2  0
 36 37  1  0
 26  2  2  0
 36 27  1  0
 19  7  1  0
 18  9  1  0
M  END
>  <UniqueID>  (48) 
47

>  <SMILES>  (48) 
Cn1/c(=N/C(=O)c2cc(-c3ccc(Cl)cc3)on2)sc2ccccc21

>  <Energy>  (48) 
115.88561801036452

>  <Genealogy>  (48) 
Cn1/c(=N/C(=O)c2cc(-c3ccc(Cl)cc3)on2)sc2ccccc21 (cis-trans isomerization)
Cn1/c(=N/C(=O)c2cc(-c3ccc(Cl)cc3)on2)sc2ccccc21 (3D coordinates assigned)
Cn1/c(=N/C(=O)c2cc(-c3ccc(Cl)cc3)on2)sc2ccccc21 (optimized conformer: 115.88561801036452 kcal/mol)

>  <smiles>  (48) 
Cn1c(=NC(=O)c2cc(-c3ccc(Cl)cc3)on2)sc2ccccc21

>  <score_type>  (48) 
oracle

>  <origin>  (48) 
adgpu

>  <m_score__min__energy>  (48) 
-9.9800000000000004

>  <m_primary>  (48) 
energy

$$$$
