0:0
     RDKit          3D

 32 32  0  0  0  0  0  0  0  0999 V2000
   -3.0720   21.6230  -27.8550 C   0  0  0  0  0  0  0  0  0  0  0  0
   -4.2330   22.5650  -28.1670 C   0  0  0  0  0  0  0  0  0  0  0  0
   -3.8070   24.0380  -28.2150 C   0  0  0  0  0  0  0  0  0  0  0  0
   -2.8720   24.4480  -29.6890 S   0  0  0  0  0  0  0  0  0  0  0  0
   -2.3730   23.1860  -30.3320 O   0  0  0  0  0  0  0  0  0  0  0  0
   -1.6890   25.2910  -29.3000 O   0  0  0  0  0  0  0  0  0  0  0  0
   -3.8610   25.3070  -30.8310 N   0  0  0  0  0  0  0  0  0  0  0  0
   -5.1760   25.5840  -30.2590 C   0  0  0  0  0  0  0  0  0  0  0  0
   -6.1970   24.5590  -30.7520 C   0  0  0  0  0  0  0  0  0  0  0  0
   -5.7730   23.9630  -31.9800 O   0  0  0  0  0  0  0  0  0  0  0  0
   -5.6920   22.5850  -32.2510 C   0  0  0  0  0  0  0  0  0  0  0  0
   -4.4700   21.9380  -32.5220 C   0  0  0  0  0  0  0  0  0  0  0  0
   -4.4390   20.5640  -32.7700 C   0  0  0  0  0  0  0  0  0  0  0  0
   -5.6190   19.8220  -32.7590 C   0  0  0  0  0  0  0  0  0  0  0  0
   -6.8420   20.4510  -32.5060 C   0  0  0  0  0  0  0  0  0  0  0  0
   -8.3080   19.4800  -32.4980 Cl  0  0  0  0  0  0  0  0  0  0  0  0
   -6.8820   21.8340  -32.2580 C   0  0  0  0  0  0  0  0  0  0  0  0
   -8.4120   22.6370  -31.9230 Cl  0  0  0  0  0  0  0  0  0  0  0  0
   -2.9578   21.5303  -26.7649 H   0  0  0  0  0  0  0  0  0  0  0  0
   -3.2769   20.6327  -28.2877 H   0  0  0  0  0  0  0  0  0  0  0  0
   -2.1451   22.0276  -28.2877 H   0  0  0  0  0  0  0  0  0  0  0  0
   -4.6562   22.2895  -29.1442 H   0  0  0  0  0  0  0  0  0  0  0  0
   -4.9712   22.4599  -27.3583 H   0  0  0  0  0  0  0  0  0  0  0  0
   -4.7101   24.6654  -28.1867 H   0  0  0  0  0  0  0  0  0  0  0  0
   -3.1537   24.2204  -27.3490 H   0  0  0  0  0  0  0  0  0  0  0  0
   -5.1122   25.5336  -29.1620 H   0  0  0  0  0  0  0  0  0  0  0  0
   -5.4977   26.5880  -30.5727 H   0  0  0  0  0  0  0  0  0  0  0  0
   -6.3130   23.7725  -29.9917 H   0  0  0  0  0  0  0  0  0  0  0  0
   -7.1542   25.0729  -30.9242 H   0  0  0  0  0  0  0  0  0  0  0  0
   -3.5356   22.5181  -32.5383 H   0  0  0  0  0  0  0  0  0  0  0  0
   -3.4800   20.0655  -32.9747 H   0  0  0  0  0  0  0  0  0  0  0  0
   -5.5880   18.7391  -32.9498 H   0  0  0  0  0  0  0  0  0  0  0  0
  1  2  1  0
  2  3  1  0
  3  4  1  0
  4  5  2  0
  4  6  2  0
  4  7  1  0
  7  8  1  0
  8  9  1  0
  9 10  1  0
 10 11  1  0
 11 12  2  0
 12 13  1  0
 13 14  2  0
 14 15  1  0
 15 16  1  0
 15 17  2  0
 17 18  1  0
 17 11  1  0
  1 19  1  0
  1 20  1  0
  1 21  1  0
  2 22  1  0
  2 23  1  0
  3 24  1  0
  3 25  1  0
  8 26  1  0
  8 27  1  0
  9 28  1  0
  9 29  1  0
 12 30  1  0
 13 31  1  0
 14 32  1  0
M  CHG  1   7  -1
M  END
>  <UniqueID>  (1) 
1

>  <SMILES>  (1) 
CCCS(=O)(=O)[N-]CCOc1cccc(Cl)c1Cl

>  <Energy>  (1) 
18.608654113811337

>  <Genealogy>  (1) 
CCCS(=O)(=O)[N-]CCOc1cccc(Cl)c1Cl (protonated)
CCCS(=O)(=O)[N-]CCOc1cccc(Cl)c1Cl (3D coordinates assigned)
CCCS(=O)(=O)[N-]CCOc1cccc(Cl)c1Cl (optimized conformer: 18.608654113811337 kcal/mol)

>  <smiles>  (1) 
CCCS(=O)(=O)NCCOc1cccc(Cl)c1Cl

>  <score_type>  (1) 
oracle

>  <origin>  (1) 
adgpu

>  <m_score__min__energy>  (1) 
-8.8800000000000008

>  <m_primary>  (1) 
energy

$$$$
1:0
     RDKit          3D

 35 36  0  0  0  0  0  0  0  0999 V2000
   -2.7420   20.7880  -27.8430 C   0  0  0  0  0  0  0  0  0  0  0  0
   -2.5750   22.2530  -27.4510 C   0  0  0  0  0  0  0  0  0  0  0  0
   -3.2110   23.1600  -28.4810 C   0  0  0  0  0  0  0  0  0  0  0  0
   -4.5960   23.0780  -28.6930 C   0  0  0  0  0  0  0  0  0  0  0  0
   -5.2310   23.9020  -29.6290 C   0  0  0  0  0  0  0  0  0  0  0  0
   -6.6510   23.7600  -29.8340 N   0  0  0  0  0  0  0  0  0  0  0  0
   -7.2840   23.6520  -31.1500 C   0  0  0  0  0  0  0  0  0  0  0  0
   -7.0880   22.2720  -31.7240 C   0  0  0  0  0  0  0  0  0  0  0  0
   -8.1490   21.3530  -31.7200 C   0  0  0  0  0  0  0  0  0  0  0  0
   -7.9680   20.0650  -32.2320 C   0  0  0  0  0  0  0  0  0  0  0  0
   -6.7270   19.6860  -32.7550 C   0  0  0  0  0  0  0  0  0  0  0  0
   -6.4810   17.9250  -33.4530 Br  0  0  0  0  0  0  0  0  0  0  0  0
   -5.6670   20.5980  -32.7650 C   0  0  0  0  0  0  0  0  0  0  0  0
   -5.8450   21.8870  -32.2530 C   0  0  0  0  0  0  0  0  0  0  0  0
   -4.4540   24.8500  -30.3220 C   0  0  0  0  0  0  0  0  0  0  0  0
   -4.9800   25.6520  -31.1370 O   0  0  0  0  0  0  0  0  0  0  0  0
   -3.1170   24.9250  -30.0970 N   0  0  0  0  0  0  0  0  0  0  0  0
   -2.4740   24.1220  -29.2070 C   0  0  0  0  0  0  0  0  0  0  0  0
   -0.9900   24.2770  -29.0520 C   0  0  0  0  0  0  0  0  0  0  0  0
   -2.8123   20.1712  -26.9349 H   0  0  0  0  0  0  0  0  0  0  0  0
   -3.6594   20.6700  -28.4383 H   0  0  0  0  0  0  0  0  0  0  0  0
   -1.8747   20.4666  -28.4383 H   0  0  0  0  0  0  0  0  0  0  0  0
   -3.0548   22.4224  -26.4758 H   0  0  0  0  0  0  0  0  0  0  0  0
   -1.5008   22.4827  -27.3940 H   0  0  0  0  0  0  0  0  0  0  0  0
   -5.1910   22.3555  -28.1150 H   0  0  0  0  0  0  0  0  0  0  0  0
   -7.2400   23.5070  -29.0080 H   0  0  0  0  0  0  0  0  0  0  0  0
   -8.3611   23.8519  -31.0501 H   0  0  0  0  0  0  0  0  0  0  0  0
   -6.8208   24.3854  -31.8264 H   0  0  0  0  0  0  0  0  0  0  0  0
   -9.1272   21.6477  -31.3122 H   0  0  0  0  0  0  0  0  0  0  0  0
   -8.8025   19.3484  -32.2237 H   0  0  0  0  0  0  0  0  0  0  0  0
   -4.6911   20.3008  -33.1765 H   0  0  0  0  0  0  0  0  0  0  0  0
   -5.0090   22.6018  -32.2645 H   0  0  0  0  0  0  0  0  0  0  0  0
   -0.7339   24.3038  -27.9826 H   0  0  0  0  0  0  0  0  0  0  0  0
   -0.4807   23.4272  -29.5299 H   0  0  0  0  0  0  0  0  0  0  0  0
   -0.6673   25.2137  -29.5299 H   0  0  0  0  0  0  0  0  0  0  0  0
  1  2  1  0
  2  3  1  0
  3  4  1  0
  4  5  2  0
  5  6  1  0
  6  7  1  0
  7  8  1  0
  8  9  2  0
  9 10  1  0
 10 11  2  0
 11 12  1  0
 11 13  1  0
 13 14  2  0
  5 15  1  0
 15 16  2  0
 15 17  1  0
 17 18  1  0
 18 19  1  0
 18  3  2  0
 14  8  1  0
  1 20  1  0
  1 21  1  0
  1 22  1  0
  2 23  1  0
  2 24  1  0
  4 25  1  0
  6 26  1  0
  7 27  1  0
  7 28  1  0
  9 29  1  0
 10 30  1  0
 13 31  1  0
 14 32  1  0
 19 33  1  0
 19 34  1  0
 19 35  1  0
M  CHG  1  17  -1
M  END
>  <UniqueID>  (2) 
2

>  <SMILES>  (2) 
CCc1cc(NCc2ccc(Br)cc2)c(=O)[n-]c1C

>  <Energy>  (2) 
35.074864335229485

>  <Genealogy>  (2) 
CCc1cc(NCc2ccc(Br)cc2)c(=O)[n-]c1C (protonated)
CCc1cc(NCc2ccc(Br)cc2)c(=O)[n-]c1C (3D coordinates assigned)
CCc1cc(NCc2ccc(Br)cc2)c(=O)[n-]c1C (optimized conformer: 35.074864335229485 kcal/mol)

>  <smiles>  (2) 
CCc1cc(NCc2ccc(Br)cc2)c(=O)[nH]c1C

>  <score_type>  (2) 
oracle

>  <origin>  (2) 
adgpu

>  <m_score__min__energy>  (2) 
-9.7400000000000002

>  <m_primary>  (2) 
energy

$$$$
2:0
     RDKit          3D

 31 33  0  0  0  0  0  0  0  0999 V2000
   -4.9670   23.9570  -27.3020 H   0  0  0  0  0  0  0  0  0  0  0  0
   -4.0180   24.1560  -26.9230 N   0  0  0  0  0  0  0  0  0  0  0  0
   -3.0220   24.5670  -27.6460 C   0  0  0  0  0  0  0  0  0  0  0  0
   -1.7820   24.9010  -27.1550 C   0  0  0  0  0  0  0  0  0  0  0  0
   -1.3190   24.8360  -25.7950 C   0  0  0  0  0  0  0  0  0  0  0  0
   -0.9480   24.7830  -24.7000 N   0  0  0  0  0  0  0  0  0  0  0  0
   -1.0820   25.3620  -28.2510 C   0  0  0  0  0  0  0  0  0  0  0  0
   -0.0439   25.7257  -28.2372 H   0  0  0  0  0  0  0  0  0  0  0  0
   -1.8730   25.2960  -29.3430 N   0  0  0  0  0  0  0  0  0  0  0  0
   -3.0520   24.8080  -28.9780 N   0  0  0  0  0  0  0  0  0  0  0  0
   -4.1200   24.5700  -29.9150 C   0  0  0  0  0  0  0  0  0  0  0  0
   -5.0590   25.5280  -30.1490 N   0  0  0  0  0  0  0  0  0  0  0  0
   -6.1010   25.3250  -30.9980 C   0  0  0  0  0  0  0  0  0  0  0  0
   -6.8347   26.1268  -31.1678 H   0  0  0  0  0  0  0  0  0  0  0  0
   -6.2420   24.1030  -31.6540 C   0  0  0  0  0  0  0  0  0  0  0  0
   -7.0872   23.9357  -32.3378 H   0  0  0  0  0  0  0  0  0  0  0  0
   -5.2990   23.0890  -31.4360 C   0  0  0  0  0  0  0  0  0  0  0  0
   -5.4390   21.7730  -32.1000 C   0  0  0  0  0  0  0  0  0  0  0  0
   -4.3480   21.2490  -32.8150 C   0  0  0  0  0  0  0  0  0  0  0  0
   -3.4126   21.8239  -32.8814 H   0  0  0  0  0  0  0  0  0  0  0  0
   -4.4420   20.0040  -33.4420 C   0  0  0  0  0  0  0  0  0  0  0  0
   -3.5808   19.6014  -33.9955 H   0  0  0  0  0  0  0  0  0  0  0  0
   -5.6290   19.2690  -33.3670 C   0  0  0  0  0  0  0  0  0  0  0  0
   -5.7250   17.9870  -34.0140 C   0  0  0  0  0  0  0  0  0  0  0  0
   -5.8030   16.9560  -34.5350 N   0  0  0  0  0  0  0  0  0  0  0  0
   -6.7260   19.7860  -32.6680 C   0  0  0  0  0  0  0  0  0  0  0  0
   -7.6613   19.2095  -32.6147 H   0  0  0  0  0  0  0  0  0  0  0  0
   -6.6400   21.0330  -32.0360 C   0  0  0  0  0  0  0  0  0  0  0  0
   -8.0790   21.6590  -31.2350 Cl  0  0  0  0  0  0  0  0  0  0  0  0
   -4.2390   23.3220  -30.5460 C   0  0  0  0  0  0  0  0  0  0  0  0
   -3.5039   22.5291  -30.3437 H   0  0  0  0  0  0  0  0  0  0  0  0
  1  2  1  0
  2  3  2  0
  3  4  1  0
  4  5  1  0
  5  6  3  0
  4  7  2  0
  7  8  1  0
  7  9  1  0
  9 10  1  0
 10 11  1  0
 11 12  2  0
 12 13  1  0
 13 14  1  0
 13 15  2  0
 15 16  1  0
 15 17  1  0
 17 18  1  0
 18 19  2  0
 19 20  1  0
 19 21  1  0
 21 22  1  0
 21 23  2  0
 23 24  1  0
 24 25  3  0
 23 26  1  0
 26 27  1  0
 26 28  2  0
 28 29  1  0
 17 30  2  0
 30 31  1  0
 10  3  1  0
 30 11  1  0
 28 18  1  0
M  CHG  1   9  -1
M  END
>  <UniqueID>  (3) 
3

>  <SMILES>  (3) 
[H]/N=c1/c(C#N)c[n-]n1-c1cc(-c2ccc(C#N)cc2Cl)ccn1

>  <Energy>  (3) 
78.32542227177166

>  <Genealogy>  (3) 
N#Cc1ccc(-c2ccnc(-n3[n-]cc(C#N)c3=N)c2)c(Cl)c1 (protonated)
[H]/N=c1/c(C#N)c[n-]n1-c1cc(-c2ccc(C#N)cc2Cl)ccn1 (cis-trans isomerization)
[H]/N=c1/c(C#N)c[n-]n1-c1cc(-c2ccc(C#N)cc2Cl)ccn1 (3D coordinates assigned)
[H]/N=c1/c(C#N)c[n-]n1-c1cc(-c2ccc(C#N)cc2Cl)ccn1 (optimized conformer: 78.32542227177166 kcal/mol)

>  <smiles>  (3) 
N#Cc1ccc(-c2ccnc(-n3[nH]cc(C#N)c3=N)c2)c(Cl)c1

>  <score_type>  (3) 
oracle

>  <origin>  (3) 
adgpu

>  <m_score__min__energy>  (3) 
-10.58

>  <m_primary>  (3) 
energy

$$$$
3:0
     RDKit          3D

 40 41  0  0  0  0  0  0  0  0999 V2000
   -1.2320   25.5420  -27.8620 C   0  0  0  0  0  0  0  0  0  0  0  0
   -1.8350   25.3460  -29.1380 O   0  0  0  0  0  0  0  0  0  0  0  0
   -2.3350   24.1180  -29.6000 C   0  0  0  0  0  0  0  0  0  0  0  0
   -1.7110   22.8940  -29.2930 C   0  0  0  0  0  0  0  0  0  0  0  0
   -2.2380   21.6930  -29.7720 C   0  0  0  0  0  0  0  0  0  0  0  0
   -3.4000   21.6910  -30.5540 C   0  0  0  0  0  0  0  0  0  0  0  0
   -3.9450   20.3990  -31.1010 C   0  0  0  0  0  0  0  0  0  0  0  0
   -3.2310   20.0220  -32.3970 C   0  0  0  0  0  0  0  0  0  0  0  0
   -4.0870   20.3450  -33.5360 N   0  0  0  0  0  0  0  0  0  0  0  0
   -5.4660   19.2900  -33.5540 S   0  0  0  0  0  0  0  0  0  0  0  0
   -5.7940   18.9060  -34.9700 O   0  0  0  0  0  0  0  0  0  0  0  0
   -5.1410   18.0410  -32.7860 O   0  0  0  0  0  0  0  0  0  0  0  0
   -6.8500   20.0830  -32.8040 C   0  0  0  0  0  0  0  0  0  0  0  0
   -7.9970   19.3390  -32.4960 C   0  0  0  0  0  0  0  0  0  0  0  0
   -9.0910   19.9550  -31.8800 C   0  0  0  0  0  0  0  0  0  0  0  0
   -9.0400   21.3160  -31.5640 C   0  0  0  0  0  0  0  0  0  0  0  0
  -10.1000   21.9130  -30.9650 F   0  0  0  0  0  0  0  0  0  0  0  0
   -7.8950   22.0610  -31.8620 C   0  0  0  0  0  0  0  0  0  0  0  0
   -6.8000   21.4470  -32.4790 C   0  0  0  0  0  0  0  0  0  0  0  0
   -4.0180   22.9090  -30.8730 C   0  0  0  0  0  0  0  0  0  0  0  0
   -3.4910   24.1260  -30.3970 C   0  0  0  0  0  0  0  0  0  0  0  0
   -4.0870   25.3630  -30.6940 O   0  0  0  0  0  0  0  0  0  0  0  0
   -5.4580   25.6720  -30.4730 C   0  0  0  0  0  0  0  0  0  0  0  0
   -1.9601   25.3053  -27.0721 H   0  0  0  0  0  0  0  0  0  0  0  0
   -0.3576   24.8818  -27.7644 H   0  0  0  0  0  0  0  0  0  0  0  0
   -0.9128   26.5901  -27.7644 H   0  0  0  0  0  0  0  0  0  0  0  0
   -0.8030   22.8837  -28.6722 H   0  0  0  0  0  0  0  0  0  0  0  0
   -1.7376   20.7428  -29.5338 H   0  0  0  0  0  0  0  0  0  0  0  0
   -3.7948   19.6003  -30.3597 H   0  0  0  0  0  0  0  0  0  0  0  0
   -5.0174   20.5262  -31.3103 H   0  0  0  0  0  0  0  0  0  0  0  0
   -2.2895   20.5856  -32.4743 H   0  0  0  0  0  0  0  0  0  0  0  0
   -3.0136   18.9437  -32.3957 H   0  0  0  0  0  0  0  0  0  0  0  0
   -8.0369   18.2670  -32.7396 H   0  0  0  0  0  0  0  0  0  0  0  0
   -9.9914   19.3689  -31.6441 H   0  0  0  0  0  0  0  0  0  0  0  0
   -7.8552   23.1312  -31.6110 H   0  0  0  0  0  0  0  0  0  0  0  0
   -5.8988   22.0341  -32.7096 H   0  0  0  0  0  0  0  0  0  0  0  0
   -4.9217   22.9142  -31.5001 H   0  0  0  0  0  0  0  0  0  0  0  0
   -5.6542   25.7162  -29.3915 H   0  0  0  0  0  0  0  0  0  0  0  0
   -5.6925   26.6455  -30.9283 H   0  0  0  0  0  0  0  0  0  0  0  0
   -6.0874   24.8932  -30.9283 H   0  0  0  0  0  0  0  0  0  0  0  0
  1  2  1  0
  2  3  1  0
  3  4  2  0
  4  5  1  0
  5  6  2  0
  6  7  1  0
  7  8  1  0
  8  9  1  0
  9 10  1  0
 10 11  2  0
 10 12  2  0
 10 13  1  0
 13 14  2  0
 14 15  1  0
 15 16  2  0
 16 17  1  0
 16 18  1  0
 18 19  2  0
  6 20  1  0
 20 21  2  0
 21 22  1  0
 22 23  1  0
 21  3  1  0
 19 13  1  0
  1 24  1  0
  1 25  1  0
  1 26  1  0
  4 27  1  0
  5 28  1  0
  7 29  1  0
  7 30  1  0
  8 31  1  0
  8 32  1  0
 14 33  1  0
 15 34  1  0
 18 35  1  0
 19 36  1  0
 20 37  1  0
 23 38  1  0
 23 39  1  0
 23 40  1  0
M  CHG  1   9  -1
M  END
>  <UniqueID>  (4) 
4

>  <SMILES>  (4) 
COc1ccc(CC[N-]S(=O)(=O)c2ccc(F)cc2)cc1OC

>  <Energy>  (4) 
34.2648802269273

>  <Genealogy>  (4) 
COc1ccc(CC[N-]S(=O)(=O)c2ccc(F)cc2)cc1OC (protonated)
COc1ccc(CC[N-]S(=O)(=O)c2ccc(F)cc2)cc1OC (3D coordinates assigned)
COc1ccc(CC[N-]S(=O)(=O)c2ccc(F)cc2)cc1OC (optimized conformer: 34.2648802269273 kcal/mol)

>  <smiles>  (4) 
COc1ccc(CCNS(=O)(=O)c2ccc(F)cc2)cc1OC

>  <score_type>  (4) 
oracle

>  <origin>  (4) 
adgpu

>  <m_score__min__energy>  (4) 
-8.5199999999999996

>  <m_primary>  (4) 
energy

$$$$
4:0
     RDKit          3D

 26 27  0  0  0  0  0  0  0  0999 V2000
   -3.9060   25.2960  -30.5600 O   0  0  0  0  0  0  0  0  0  0  0  0
   -4.5930   24.4960  -29.8680 C   0  0  0  0  0  0  0  0  0  0  0  0
   -4.2470   24.2670  -28.4920 N   0  0  0  0  0  0  0  0  0  0  0  0
   -2.9390   24.5110  -27.9450 C   0  0  0  0  0  0  0  0  0  0  0  0
   -1.8040   24.1210  -28.6720 C   0  0  0  0  0  0  0  0  0  0  0  0
   -0.5230   24.3660  -28.1720 C   0  0  0  0  0  0  0  0  0  0  0  0
   -0.3610   25.0160  -26.9450 C   0  0  0  0  0  0  0  0  0  0  0  0
    0.8870   25.2510  -26.4680 F   0  0  0  0  0  0  0  0  0  0  0  0
   -1.4860   25.4290  -26.2200 C   0  0  0  0  0  0  0  0  0  0  0  0
   -1.2940   26.2680  -24.6890 Cl  0  0  0  0  0  0  0  0  0  0  0  0
   -2.7700   25.1840  -26.7210 C   0  0  0  0  0  0  0  0  0  0  0  0
   -5.7800   23.8430  -30.4730 C   0  0  0  0  0  0  0  0  0  0  0  0
   -6.5990   23.0020  -29.6970 C   0  0  0  0  0  0  0  0  0  0  0  0
   -7.7220   22.3880  -30.2600 C   0  0  0  0  0  0  0  0  0  0  0  0
   -8.0430   22.6090  -31.6010 C   0  0  0  0  0  0  0  0  0  0  0  0
   -9.1330   22.0140  -32.1450 F   0  0  0  0  0  0  0  0  0  0  0  0
   -7.2430   23.4490  -32.3800 C   0  0  0  0  0  0  0  0  0  0  0  0
   -6.1200   24.0650  -31.8220 C   0  0  0  0  0  0  0  0  0  0  0  0
   -5.0160   24.0210  -27.8270 H   0  0  0  0  0  0  0  0  0  0  0  0
   -1.9240   23.6185  -29.6431 H   0  0  0  0  0  0  0  0  0  0  0  0
    0.3601   24.0468  -28.7449 H   0  0  0  0  0  0  0  0  0  0  0  0
   -3.6514   25.5194  -26.1548 H   0  0  0  0  0  0  0  0  0  0  0  0
   -6.3538   22.8262  -28.6392 H   0  0  0  0  0  0  0  0  0  0  0  0
   -8.3537   21.7297  -29.6455 H   0  0  0  0  0  0  0  0  0  0  0  0
   -7.4980   23.6257  -33.4353 H   0  0  0  0  0  0  0  0  0  0  0  0
   -5.4970   24.7280  -32.4403 H   0  0  0  0  0  0  0  0  0  0  0  0
  1  2  2  0
  2  3  1  0
  3  4  1  0
  4  5  2  0
  5  6  1  0
  6  7  2  0
  7  8  1  0
  7  9  1  0
  9 10  1  0
  9 11  2  0
  2 12  1  0
 12 13  2  0
 13 14  1  0
 14 15  2  0
 15 16  1  0
 15 17  1  0
 17 18  2  0
 11  4  1  0
 18 12  1  0
  3 19  1  0
  5 20  1  0
  6 21  1  0
 11 22  1  0
 13 23  1  0
 14 24  1  0
 17 25  1  0
 18 26  1  0
M  END
>  <UniqueID>  (5) 
5

>  <SMILES>  (5) 
O=C(Nc1ccc(F)c(Cl)c1)c1ccc(F)cc1

>  <Energy>  (5) 
32.669592986829166

>  <Genealogy>  (5) 
O=C(Nc1ccc(F)c(Cl)c1)c1ccc(F)cc1 (3D coordinates assigned)
O=C(Nc1ccc(F)c(Cl)c1)c1ccc(F)cc1 (optimized conformer: 32.669592986829166 kcal/mol)

>  <smiles>  (5) 
O=C(Nc1ccc(F)c(Cl)c1)c1ccc(F)cc1

>  <score_type>  (5) 
oracle

>  <origin>  (5) 
adgpu

>  <m_score__min__energy>  (5) 
-6.8799999999999999

>  <m_primary>  (5) 
energy

$$$$
5:0
     RDKit          3D

 29 30  0  0  0  0  0  0  0  0999 V2000
   -9.4423   21.7135  -31.4183 H   0  0  0  0  0  0  0  0  0  0  0  0
   -8.3770   21.6230  -31.6770 C   0  0  0  0  0  0  0  0  0  0  0  0
   -7.5330   22.7240  -31.5440 C   0  0  0  0  0  0  0  0  0  0  0  0
   -7.9389   23.6792  -31.1794 H   0  0  0  0  0  0  0  0  0  0  0  0
   -6.1660   22.6280  -31.8710 C   0  0  0  0  0  0  0  0  0  0  0  0
   -5.3030   23.7690  -31.7510 N   0  0  0  0  0  0  0  0  0  0  0  0
   -4.8510   24.5490  -30.2700 S   0  0  0  0  0  0  0  0  0  0  0  0
   -4.7060   23.5270  -29.1770 O   0  0  0  0  0  0  0  0  0  0  0  0
   -3.5580   25.2910  -30.4550 O   0  0  0  0  0  0  0  0  0  0  0  0
   -6.1240   25.7050  -29.8180 C   0  0  0  0  0  0  0  0  0  0  0  0
   -6.1913   25.7662  -28.7218 H   0  0  0  0  0  0  0  0  0  0  0  0
   -5.8803   26.6969  -30.2263 H   0  0  0  0  0  0  0  0  0  0  0  0
   -7.0879   25.3671  -30.2263 H   0  0  0  0  0  0  0  0  0  0  0  0
   -5.6480   21.3900  -32.3380 C   0  0  0  0  0  0  0  0  0  0  0  0
   -4.2120   21.2120  -32.6950 C   0  0  0  0  0  0  0  0  0  0  0  0
   -3.7960   21.5360  -33.8390 O   0  0  0  0  0  0  0  0  0  0  0  0
   -3.3150   20.6140  -31.7420 N   0  0  0  0  0  0  0  0  0  0  0  0
   -2.6270   21.1950  -30.8010 C   0  0  0  0  0  0  0  0  0  0  0  0
   -1.5610   20.3580  -29.8050 S   0  0  0  0  0  0  0  0  0  0  0  0
   -1.1630   21.7350  -28.9260 C   0  0  0  0  0  0  0  0  0  0  0  0
   -0.2940   21.7790  -27.8870 F   0  0  0  0  0  0  0  0  0  0  0  0
   -1.8810   22.8120  -29.4220 C   0  0  0  0  0  0  0  0  0  0  0  0
   -1.7959   23.8272  -29.0072 H   0  0  0  0  0  0  0  0  0  0  0  0
   -2.6990   22.5080  -30.4640 N   0  0  0  0  0  0  0  0  0  0  0  0
   -3.3210   23.2230  -30.8990 H   0  0  0  0  0  0  0  0  0  0  0  0
   -6.5220   20.2910  -32.4660 C   0  0  0  0  0  0  0  0  0  0  0  0
   -6.1335   19.3284  -32.8300 H   0  0  0  0  0  0  0  0  0  0  0  0
   -7.8740   20.4080  -32.1370 C   0  0  0  0  0  0  0  0  0  0  0  0
   -8.9400   19.0250  -32.3010 Cl  0  0  0  0  0  0  0  0  0  0  0  0
  1  2  1  0
  2  3  2  0
  3  4  1  0
  3  5  1  0
  5  6  1  0
  6  7  1  0
  7  8  2  0
  7  9  2  0
  7 10  1  0
 10 11  1  0
 10 12  1  0
 10 13  1  0
  5 14  2  0
 14 15  1  0
 15 16  2  0
 15 17  1  0
 17 18  2  0
 18 19  1  0
 19 20  1  0
 20 21  1  0
 20 22  2  0
 22 23  1  0
 22 24  1  0
 24 25  1  0
 14 26  1  0
 26 27  1  0
 26 28  2  0
 28 29  1  0
 28  2  1  0
 24 18  1  0
M  CHG  1   6  -1
M  END
>  <UniqueID>  (6) 
6

>  <SMILES>  (6) 
CS(=O)(=O)[N-]c1ccc(Cl)cc1C(=O)/N=c1\[nH]cc(F)s1

>  <Energy>  (6) 
67.5816300645922

>  <Genealogy>  (6) 
CS(=O)(=O)[N-]c1ccc(Cl)cc1C(=O)N=c1[nH]cc(F)s1 (protonated)
CS(=O)(=O)[N-]c1ccc(Cl)cc1C(=O)/N=c1\[nH]cc(F)s1 (cis-trans isomerization)
CS(=O)(=O)[N-]c1ccc(Cl)cc1C(=O)/N=c1\[nH]cc(F)s1 (3D coordinates assigned)
CS(=O)(=O)[N-]c1ccc(Cl)cc1C(=O)/N=c1\[nH]cc(F)s1 (optimized conformer: 67.5816300645922 kcal/mol)

>  <smiles>  (6) 
CS(=O)(=O)Nc1ccc(Cl)cc1C(=O)N=c1[nH]cc(F)s1

>  <score_type>  (6) 
oracle

>  <origin>  (6) 
adgpu

>  <m_score__min__energy>  (6) 
-7.9900000000000002

>  <m_primary>  (6) 
energy

$$$$
6:0
     RDKit          3D

 36 38  0  0  0  0  0  0  0  0999 V2000
   -3.6700   23.8650  -28.3630 O   0  0  0  0  0  0  0  0  0  0  0  0
   -3.1860   24.6330  -29.2350 C   0  0  0  0  0  0  0  0  0  0  0  0
   -3.8720   24.7720  -30.4860 N   0  0  0  0  0  0  0  0  0  0  0  0
   -4.8060   23.8360  -31.0390 C   0  0  0  0  0  0  0  0  0  0  0  0
   -4.3190   22.7180  -31.7250 C   0  0  0  0  0  0  0  0  0  0  0  0
   -5.2040   21.8020  -32.3040 C   0  0  0  0  0  0  0  0  0  0  0  0
   -6.5870   22.0090  -32.2310 C   0  0  0  0  0  0  0  0  0  0  0  0
   -7.4380   21.0580  -32.8140 O   0  0  0  0  0  0  0  0  0  0  0  0
   -7.1020   19.7250  -33.0780 C   0  0  0  0  0  0  0  0  0  0  0  0
   -7.5540   18.7140  -32.2850 N   0  0  0  0  0  0  0  0  0  0  0  0
   -7.2440   17.4190  -32.5550 C   0  0  0  0  0  0  0  0  0  0  0  0
   -6.4580   17.1100  -33.6630 C   0  0  0  0  0  0  0  0  0  0  0  0
   -6.0120   18.1540  -34.4720 C   0  0  0  0  0  0  0  0  0  0  0  0
   -6.3430   19.4370  -34.1680 N   0  0  0  0  0  0  0  0  0  0  0  0
   -7.0780   23.1360  -31.5470 C   0  0  0  0  0  0  0  0  0  0  0  0
   -6.1920   24.0510  -30.9680 C   0  0  0  0  0  0  0  0  0  0  0  0
   -1.9860   25.3810  -28.9670 N   0  0  0  0  0  0  0  0  0  0  0  0
   -1.2240   25.2730  -27.7530 C   0  0  0  0  0  0  0  0  0  0  0  0
   -0.0930   24.4400  -27.6660 C   0  0  0  0  0  0  0  0  0  0  0  0
    0.6140   24.3350  -26.4630 C   0  0  0  0  0  0  0  0  0  0  0  0
    0.1920   25.0470  -25.3380 C   0  0  0  0  0  0  0  0  0  0  0  0
   -0.9440   25.8570  -25.4090 C   0  0  0  0  0  0  0  0  0  0  0  0
   -1.6540   25.9640  -26.6100 C   0  0  0  0  0  0  0  0  0  0  0  0
   -3.2339   22.5583  -31.8096 H   0  0  0  0  0  0  0  0  0  0  0  0
   -4.8109   20.9135  -32.8199 H   0  0  0  0  0  0  0  0  0  0  0  0
   -7.6129   16.6160  -31.9000 H   0  0  0  0  0  0  0  0  0  0  0  0
   -6.1956   16.0670  -33.8940 H   0  0  0  0  0  0  0  0  0  0  0  0
   -5.3928   17.9398  -35.3556 H   0  0  0  0  0  0  0  0  0  0  0  0
   -8.1630   23.2985  -31.4671 H   0  0  0  0  0  0  0  0  0  0  0  0
   -6.5826   24.9423  -30.4551 H   0  0  0  0  0  0  0  0  0  0  0  0
   -1.5980   25.9900  -29.7220 H   0  0  0  0  0  0  0  0  0  0  0  0
    0.2364   23.8694  -28.5469 H   0  0  0  0  0  0  0  0  0  0  0  0
    1.5035   23.6907  -26.4033 H   0  0  0  0  0  0  0  0  0  0  0  0
    0.7543   24.9700  -24.3957 H   0  0  0  0  0  0  0  0  0  0  0  0
   -1.2805   26.4110  -24.5203 H   0  0  0  0  0  0  0  0  0  0  0  0
   -2.5547   26.5936  -26.6584 H   0  0  0  0  0  0  0  0  0  0  0  0
  1  2  2  0
  2  3  1  0
  3  4  1  0
  4  5  2  0
  5  6  1  0
  6  7  2  0
  7  8  1  0
  8  9  1  0
  9 10  2  0
 10 11  1  0
 11 12  2  0
 12 13  1  0
 13 14  2  0
  7 15  1  0
 15 16  2  0
  2 17  1  0
 17 18  1  0
 18 19  2  0
 19 20  1  0
 20 21  2  0
 21 22  1  0
 22 23  2  0
 16  4  1  0
 23 18  1  0
 14  9  1  0
  5 24  1  0
  6 25  1  0
 11 26  1  0
 12 27  1  0
 13 28  1  0
 15 29  1  0
 16 30  1  0
 17 31  1  0
 19 32  1  0
 20 33  1  0
 21 34  1  0
 22 35  1  0
 23 36  1  0
M  CHG  1   3  -1
M  END
>  <UniqueID>  (7) 
7

>  <SMILES>  (7) 
O=C([N-]c1ccc(Oc2ncccn2)cc1)Nc1ccccc1

>  <Energy>  (7) 
53.38051138937094

>  <Genealogy>  (7) 
O=C([N-]c1ccc(Oc2ncccn2)cc1)Nc1ccccc1 (protonated)
O=C([N-]c1ccc(Oc2ncccn2)cc1)Nc1ccccc1 (3D coordinates assigned)
O=C([N-]c1ccc(Oc2ncccn2)cc1)Nc1ccccc1 (optimized conformer: 53.38051138937094 kcal/mol)

>  <smiles>  (7) 
O=C(Nc1ccccc1)Nc1ccc(Oc2ncccn2)cc1

>  <score_type>  (7) 
oracle

>  <origin>  (7) 
adgpu

>  <m_score__min__energy>  (7) 
-9.3300000000000001

>  <m_primary>  (7) 
energy

$$$$
7:0
     RDKit          3D

 41 43  0  0  0  0  0  0  0  0999 V2000
   -8.7540   21.9730  -31.8400 C   0  0  0  0  0  0  0  0  0  0  0  0
   -7.4520   22.6240  -32.3090 C   0  0  0  0  0  0  0  0  0  0  0  0
   -6.1980   21.7620  -31.9960 C   0  0  2  0  0  0  0  0  0  0  0  0
   -4.9330   22.3900  -32.4450 N   0  0  0  0  0  0  0  0  0  0  0  0
   -3.7800   21.5700  -32.2020 C   0  0  0  0  0  0  0  0  0  0  0  0
   -3.0180   21.2620  -31.0880 C   0  0  0  0  0  0  0  0  0  0  0  0
   -3.0580   21.6630  -29.7150 N   0  0  0  0  0  0  0  0  0  0  0  0
   -2.5320   22.9100  -29.2390 C   0  0  0  0  0  0  0  0  0  0  0  0
   -1.5470   22.9020  -28.2430 C   0  0  0  0  0  0  0  0  0  0  0  0
   -1.0070   24.1030  -27.7800 C   0  0  0  0  0  0  0  0  0  0  0  0
   -1.4420   25.3060  -28.3340 C   0  0  0  0  0  0  0  0  0  0  0  0
   -2.3730   25.3020  -29.3250 N   0  0  0  0  0  0  0  0  0  0  0  0
   -2.9180   24.1470  -29.7950 C   0  0  0  0  0  0  0  0  0  0  0  0
   -3.7440   24.2000  -30.7440 O   0  0  0  0  0  0  0  0  0  0  0  0
   -2.2130   20.4510  -31.8690 C   0  0  0  0  0  0  0  0  0  0  0  0
   -1.1930   19.7420  -31.6610 O   0  0  0  0  0  0  0  0  0  0  0  0
   -2.9850   20.7430  -32.9730 C   0  0  0  0  0  0  0  0  0  0  0  0
   -2.9680   20.4040  -34.1850 O   0  0  0  0  0  0  0  0  0  0  0  0
   -6.3120   20.3280  -32.5060 C   0  0  0  0  0  0  0  0  0  0  0  0
   -6.6050   19.3000  -31.5910 C   0  0  0  0  0  0  0  0  0  0  0  0
   -6.6380   17.9650  -32.0040 C   0  0  0  0  0  0  0  0  0  0  0  0
   -6.3730   17.6370  -33.3350 C   0  0  0  0  0  0  0  0  0  0  0  0
   -6.3930   15.9600  -33.8480 Cl  0  0  0  0  0  0  0  0  0  0  0  0
   -6.0770   18.6450  -34.2560 C   0  0  0  0  0  0  0  0  0  0  0  0
   -6.0400   19.9810  -33.8460 C   0  0  0  0  0  0  0  0  0  0  0  0
   -8.7817   21.9592  -30.7404 H   0  0  0  0  0  0  0  0  0  0  0  0
   -9.6100   22.5491  -32.2211 H   0  0  0  0  0  0  0  0  0  0  0  0
   -8.8067   20.9425  -32.2211 H   0  0  0  0  0  0  0  0  0  0  0  0
   -7.5089   22.7788  -33.3966 H   0  0  0  0  0  0  0  0  0  0  0  0
   -7.3435   23.5741  -31.7653 H   0  0  0  0  0  0  0  0  0  0  0  0
   -6.1610   21.7108  -30.8978 H   0  0  0  0  0  0  0  0  0  0  0  0
   -4.7980   23.2960  -31.9390 H   0  0  0  0  0  0  0  0  0  0  0  0
   -4.9800   22.6130  -33.4640 H   0  0  0  0  0  0  0  0  0  0  0  0
   -3.5880   21.0570  -29.0510 H   0  0  0  0  0  0  0  0  0  0  0  0
   -1.1980   21.9464  -27.8245 H   0  0  0  0  0  0  0  0  0  0  0  0
   -0.2458   24.1002  -26.9859 H   0  0  0  0  0  0  0  0  0  0  0  0
   -1.0318   26.2592  -27.9692 H   0  0  0  0  0  0  0  0  0  0  0  0
   -6.8103   19.5496  -30.5395 H   0  0  0  0  0  0  0  0  0  0  0  0
   -6.8731   17.1716  -31.2793 H   0  0  0  0  0  0  0  0  0  0  0  0
   -5.8727   18.3870  -35.3056 H   0  0  0  0  0  0  0  0  0  0  0  0
   -5.7967   20.7684  -34.5745 H   0  0  0  0  0  0  0  0  0  0  0  0
  1  2  1  0
  2  3  1  0
  3  4  1  0
  4  5  1  0
  5  6  2  0
  6  7  1  0
  7  8  1  0
  8  9  2  0
  9 10  1  0
 10 11  2  0
 11 12  1  0
 12 13  1  0
 13 14  2  0
  6 15  1  0
 15 16  2  0
 15 17  1  0
 17 18  2  0
  3 19  1  0
 19 20  2  0
 20 21  1  0
 21 22  2  0
 22 23  1  0
 22 24  1  0
 24 25  2  0
 17  5  1  0
 25 19  1  0
 13  8  1  0
  1 26  1  0
  1 27  1  0
  1 28  1  0
  2 29  1  0
  2 30  1  0
  3 31  1  1
  4 32  1  0
  4 33  1  0
  7 34  1  0
  9 35  1  0
 10 36  1  0
 11 37  1  0
 20 38  1  0
 21 39  1  0
 24 40  1  0
 25 41  1  0
M  CHG  2   4   1  12  -1
M  END
>  <UniqueID>  (8) 
8

>  <SMILES>  (8) 
CC[C@H]([NH2+]c1c(Nc2ccc[n-]c2=O)c(=O)c1=O)c1ccc(Cl)cc1

>  <Energy>  (8) 
37.49708821885071

>  <Genealogy>  (8) 
CCC([NH2+]c1c(Nc2ccc[n-]c2=O)c(=O)c1=O)c1ccc(Cl)cc1 (protonated)
CC[C@H]([NH2+]c1c(Nc2ccc[n-]c2=O)c(=O)c1=O)c1ccc(Cl)cc1 (chirality)
CC[C@H]([NH2+]c1c(Nc2ccc[n-]c2=O)c(=O)c1=O)c1ccc(Cl)cc1 (3D coordinates assigned)
CC[C@H]([NH2+]c1c(Nc2ccc[n-]c2=O)c(=O)c1=O)c1ccc(Cl)cc1 (optimized conformer: 37.49708821885071 kcal/mol)

>  <smiles>  (8) 
CCC(Nc1c(Nc2ccc[nH]c2=O)c(=O)c1=O)c1ccc(Cl)cc1

>  <score_type>  (8) 
oracle

>  <origin>  (8) 
adgpu

>  <m_score__min__energy>  (8) 
-9.5399999999999991

>  <m_primary>  (8) 
energy

$$$$
8:0
     RDKit          3D

 50 52  0  0  0  0  0  0  0  0999 V2000
   -0.8990   27.5620  -25.2870 C   0  0  0  0  0  0  0  0  0  0  0  0
   -1.2940   26.1940  -25.3050 O   0  0  0  0  0  0  0  0  0  0  0  0
   -1.7360   25.5130  -26.4490 C   0  0  0  0  0  0  0  0  0  0  0  0
   -0.9420   25.3800  -27.6030 C   0  0  0  0  0  0  0  0  0  0  0  0
   -1.4270   24.6890  -28.7180 C   0  0  0  0  0  0  0  0  0  0  0  0
   -2.7100   24.1110  -28.7000 C   0  0  0  0  0  0  0  0  0  0  0  0
   -3.2340   23.3800  -29.8780 C   0  0  0  0  0  0  0  0  0  0  0  0
   -3.7200   24.0300  -30.8440 O   0  0  0  0  0  0  0  0  0  0  0  0
   -3.2440   21.9420  -29.9100 N   0  0  0  0  0  0  0  0  0  0  0  0
   -3.3940   21.1780  -31.1180 C   0  0  0  0  0  0  0  0  0  0  0  0
   -2.2740   20.9460  -31.9320 C   0  0  0  0  0  0  0  0  0  0  0  0
   -2.3980   20.2010  -33.1080 C   0  0  0  0  0  0  0  0  0  0  0  0
   -3.6410   19.6930  -33.4890 C   0  0  0  0  0  0  0  0  0  0  0  0
   -4.7750   19.9450  -32.7040 C   0  0  0  0  0  0  0  0  0  0  0  0
   -6.3400   19.2940  -33.1790 S   0  0  0  0  0  0  0  0  0  0  0  0
   -6.4670   19.2780  -34.6750 O   0  0  0  0  0  0  0  0  0  0  0  0
   -6.4510   17.8800  -32.6770 O   0  0  0  0  0  0  0  0  0  0  0  0
   -7.5990   20.2820  -32.4960 N   0  0  0  0  0  0  0  0  0  0  0  0
   -8.9860   19.8200  -32.5620 C   0  0  0  0  0  0  0  0  0  0  0  0
   -7.2900   21.5490  -31.8880 C   0  0  0  0  0  0  0  0  0  0  0  0
   -7.5150   21.7520  -30.5190 C   0  0  0  0  0  0  0  0  0  0  0  0
   -7.2330   22.9900  -29.9300 C   0  0  0  0  0  0  0  0  0  0  0  0
   -6.7250   24.0490  -30.7030 C   0  0  0  0  0  0  0  0  0  0  0  0
   -6.4340   25.3260  -30.1030 N   0  0  0  0  0  0  0  0  0  0  0  0
   -7.1570   25.7820  -29.1910 O   0  0  0  0  0  0  0  0  0  0  0  0
   -5.3450   26.0600  -30.5160 O   0  0  0  0  0  0  0  0  0  0  0  0
   -6.5080   23.8430  -32.0770 C   0  0  0  0  0  0  0  0  0  0  0  0
   -6.7910   22.6060  -32.6640 C   0  0  0  0  0  0  0  0  0  0  0  0
   -4.6500   20.6900  -31.5220 C   0  0  0  0  0  0  0  0  0  0  0  0
   -3.5010   24.2570  -27.5470 C   0  0  0  0  0  0  0  0  0  0  0  0
   -3.0160   24.9480  -26.4340 C   0  0  0  0  0  0  0  0  0  0  0  0
   -0.8009   27.9016  -24.2454 H   0  0  0  0  0  0  0  0  0  0  0  0
    0.0674   27.6714  -25.8009 H   0  0  0  0  0  0  0  0  0  0  0  0
   -1.6584   28.1697  -25.8009 H   0  0  0  0  0  0  0  0  0  0  0  0
    0.0651   25.8217  -27.6283 H   0  0  0  0  0  0  0  0  0  0  0  0
   -0.8000   24.5965  -29.6171 H   0  0  0  0  0  0  0  0  0  0  0  0
   -3.2760   21.4290  -29.0000 H   0  0  0  0  0  0  0  0  0  0  0  0
   -1.2937   21.3527  -31.6427 H   0  0  0  0  0  0  0  0  0  0  0  0
   -1.5136   20.0145  -33.7350 H   0  0  0  0  0  0  0  0  0  0  0  0
   -3.7311   19.0937  -34.4070 H   0  0  0  0  0  0  0  0  0  0  0  0
   -9.3779   19.6895  -31.5425 H   0  0  0  0  0  0  0  0  0  0  0  0
   -9.5952   20.5637  -33.0966 H   0  0  0  0  0  0  0  0  0  0  0  0
   -9.0275   18.8595  -33.0966 H   0  0  0  0  0  0  0  0  0  0  0  0
   -7.9158   20.9329  -29.9038 H   0  0  0  0  0  0  0  0  0  0  0  0
   -7.4101   23.1356  -28.8542 H   0  0  0  0  0  0  0  0  0  0  0  0
   -6.1122   24.6621  -32.6953 H   0  0  0  0  0  0  0  0  0  0  0  0
   -6.6213   22.4606  -33.7411 H   0  0  0  0  0  0  0  0  0  0  0  0
   -5.5393   20.8938  -30.9075 H   0  0  0  0  0  0  0  0  0  0  0  0
   -4.5114   23.8230  -27.5210 H   0  0  0  0  0  0  0  0  0  0  0  0
   -3.6459   25.0488  -25.5379 H   0  0  0  0  0  0  0  0  0  0  0  0
  1  2  1  0
  2  3  1  0
  3  4  2  0
  4  5  1  0
  5  6  2  0
  6  7  1  0
  7  8  2  0
  7  9  1  0
  9 10  1  0
 10 11  2  0
 11 12  1  0
 12 13  2  0
 13 14  1  0
 14 15  1  0
 15 16  2  0
 15 17  2  0
 15 18  1  0
 18 19  1  0
 18 20  1  0
 20 21  2  0
 21 22  1  0
 22 23  2  0
 23 24  1  0
 24 25  2  0
 24 26  1  0
 23 27  1  0
 27 28  2  0
 14 29  2  0
  6 30  1  0
 30 31  2  0
 31  3  1  0
 29 10  1  0
 28 20  1  0
  1 32  1  0
  1 33  1  0
  1 34  1  0
  4 35  1  0
  5 36  1  0
  9 37  1  0
 11 38  1  0
 12 39  1  0
 13 40  1  0
 19 41  1  0
 19 42  1  0
 19 43  1  0
 21 44  1  0
 22 45  1  0
 27 46  1  0
 28 47  1  0
 29 48  1  0
 30 49  1  0
 31 50  1  0
M  CHG  2  24   1  26  -1
M  END
>  <UniqueID>  (9) 
9

>  <SMILES>  (9) 
COc1ccc(C(=O)Nc2cccc(S(=O)(=O)N(C)c3ccc([N+](=O)[O-])cc3)c2)cc1

>  <Energy>  (9) 
63.65444781031287

>  <Genealogy>  (9) 
COc1ccc(C(=O)Nc2cccc(S(=O)(=O)N(C)c3ccc([N+](=O)[O-])cc3)c2)cc1 (3D coordinates assigned)
COc1ccc(C(=O)Nc2cccc(S(=O)(=O)N(C)c3ccc([N+](=O)[O-])cc3)c2)cc1 (optimized conformer: 63.65444781031287 kcal/mol)

>  <smiles>  (9) 
COc1ccc(C(=O)Nc2cccc(S(=O)(=O)N(C)c3ccc([N+](=O)[O-])cc3)c2)cc1

>  <score_type>  (9) 
oracle

>  <origin>  (9) 
adgpu

>  <m_score__min__energy>  (9) 
-9.6999999999999993

>  <m_primary>  (9) 
energy

$$$$
9:0
     RDKit          3D

 41 44  0  0  1  0  0  0  0  0999 V2000
   -0.2740   26.0560  -27.6630 N   0  0  0  0  0  0  0  0  0  0  0  0
   -0.9980   25.0890  -28.1490 C   0  0  0  0  0  0  0  0  0  0  0  0
   -0.6310   23.8010  -27.9560 N   0  0  0  0  0  0  0  0  0  0  0  0
   -1.3420   22.7600  -28.4360 C   0  0  0  0  0  0  0  0  0  0  0  0
   -0.9640   21.3820  -28.2380 C   0  0  0  0  0  0  0  0  0  0  0  0
   -1.6250   20.5490  -27.3580 C   0  0  0  0  0  0  0  0  0  0  0  0
   -1.2520   19.2150  -27.1730 C   0  0  0  0  0  0  0  0  0  0  0  0
   -0.1950   18.6730  -27.8720 C   0  0  0  0  0  0  0  0  0  0  0  0
    0.3170   17.0110  -27.6820 Cl  0  0  0  0  0  0  0  0  0  0  0  0
    0.4630   19.5080  -28.7500 C   0  0  0  0  0  0  0  0  0  0  0  0
    0.0940   20.8260  -28.9330 C   0  0  0  0  0  0  0  0  0  0  0  0
   -2.4890   23.1120  -29.1530 C   0  0  0  0  0  0  0  0  0  0  0  0
   -2.8560   24.4290  -29.3460 C   0  0  0  0  0  0  0  0  0  0  0  0
   -3.9000   24.7930  -29.9990 N   0  0  0  0  0  0  0  0  0  0  0  0
   -4.7320   23.7830  -30.5560 C   0  0  0  0  0  0  0  0  0  0  0  0
   -6.0180   23.6930  -30.0120 C   0  0  0  0  0  0  0  0  0  0  0  0
   -6.9010   22.7600  -30.4730 C   0  0  0  0  0  0  0  0  0  0  0  0
   -6.5060   21.8990  -31.4900 C   0  0  0  0  0  0  0  0  0  0  0  0
   -7.4940   20.9240  -31.9390 C   0  0  0  0  0  0  0  0  0  0  0  0
   -8.7120   20.6790  -31.3080 C   0  0  0  0  0  0  0  0  0  0  0  0
   -9.3470   19.7260  -32.0010 N   0  0  0  0  0  0  0  0  0  0  0  0
   -8.5900   19.3680  -33.0250 N   0  0  0  0  0  0  0  0  0  0  0  0
   -7.4470   20.0790  -33.0220 C   0  0  0  0  0  0  0  0  0  0  0  0
   -5.2390   21.9990  -32.0150 C   0  0  0  0  0  0  0  0  0  0  0  0
   -4.3220   22.9370  -31.5660 C   0  0  0  0  0  0  0  0  0  0  0  0
   -2.0960   25.4400  -28.8360 N   0  0  0  0  0  0  0  0  0  0  0  0
    0.5880   25.9370  -27.1210 H   0  0  0  0  0  0  0  0  0  0  0  0
    0.2420   23.6600  -27.4060 H   0  0  0  0  0  0  0  0  0  0  0  0
   -2.4736   20.9485  -26.7832 H   0  0  0  0  0  0  0  0  0  0  0  0
   -1.8093   18.5894  -26.4602 H   0  0  0  0  0  0  0  0  0  0  0  0
    1.3121   19.1101  -29.3251 H   0  0  0  0  0  0  0  0  0  0  0  0
    0.6541   21.4472  -29.6474 H   0  0  0  0  0  0  0  0  0  0  0  0
   -3.1185   22.3155  -29.5764 H   0  0  0  0  0  0  0  0  0  0  0  0
   -6.3195   24.3792  -29.2069 H   0  0  0  0  0  0  0  0  0  0  0  0
   -7.9120   22.6904  -30.0453 H   0  0  0  0  0  0  0  0  0  0  0  0
   -9.0850   21.1794  -30.4022 H   0  0  0  0  0  0  0  0  0  0  0  0
   -8.8820   18.6320  -33.7100 H   0  0  0  0  0  0  0  0  0  0  0  0
   -6.6273   19.9986  -33.7511 H   0  0  0  0  0  0  0  0  0  0  0  0
   -4.9424   21.3103  -32.8198 H   0  0  0  0  0  0  0  0  0  0  0  0
   -3.3118   23.0038  -31.9961 H   0  0  0  0  0  0  0  0  0  0  0  0
   -2.3600   26.4360  -28.9740 H   0  0  0  0  0  0  0  0  0  0  0  0
  1  2  2  3
  2  3  1  0
  3  4  1  0
  4  5  1  0
  5  6  2  0
  6  7  1  0
  7  8  2  0
  8  9  1  0
  8 10  1  0
 10 11  2  0
  4 12  2  0
 12 13  1  0
 13 14  2  0
 14 15  1  0
 15 16  2  0
 16 17  1  0
 17 18  2  0
 18 19  1  0
 19 20  1  0
 20 21  2  0
 21 22  1  0
 22 23  1  0
 18 24  1  0
 24 25  2  0
 13 26  1  0
 26  2  1  0
 11  5  1  0
 25 15  1  0
 23 19  2  0
  1 27  1  0
  3 28  1  0
  6 29  1  0
  7 30  1  0
 10 31  1  0
 11 32  1  0
 12 33  1  0
 16 34  1  0
 17 35  1  0
 20 36  1  0
 22 37  1  0
 23 38  1  0
 24 39  1  0
 25 40  1  0
 26 41  1  0
M  END
>  <smiles>  (10) 
N=c1[nH]c(-c2ccc(Cl)cc2)cc(=Nc2ccc(-c3cn[nH]c3)cc2)[nH]1

>  <score_type>  (10) 
oracle

>  <origin>  (10) 
adgpu

>  <m_score__min__energy>  (10) 
-9.3699999999999992

>  <m_primary>  (10) 
energy

$$$$
10:0
     RDKit          3D

 40 41  0  0  0  0  0  0  0  0999 V2000
   -2.2690   19.4050  -26.7150 C   0  0  0  0  0  0  0  0  0  0  0  0
   -1.7520   20.6280  -26.8560 C   0  0  0  0  0  0  0  0  0  0  0  0
   -1.0200   21.0440  -28.1040 C   0  0  0  0  0  0  0  0  0  0  0  0
   -1.2850   22.4510  -28.4000 N   0  0  0  0  0  0  0  0  0  0  0  0
   -2.2520   22.8840  -29.1530 C   0  0  0  0  0  0  0  0  0  0  0  0
   -2.4350   24.1970  -29.4040 N   0  0  0  0  0  0  0  0  0  0  0  0
   -3.5020   24.4000  -30.2220 C   0  0  0  0  0  0  0  0  0  0  0  0
   -3.8700   25.6740  -30.6380 O   0  0  0  0  0  0  0  0  0  0  0  0
   -4.1830   23.2500  -30.6110 C   0  0  0  0  0  0  0  0  0  0  0  0
   -5.3270   23.1760  -31.5730 C   0  0  0  0  0  0  0  0  0  0  0  0
   -5.1840   21.9630  -32.4380 C   0  0  0  0  0  0  0  0  0  0  0  0
   -4.2520   21.9120  -33.2860 O   0  0  0  0  0  0  0  0  0  0  0  0
   -6.1080   20.8720  -32.2990 N   0  0  0  0  0  0  0  0  0  0  0  0
   -5.8960   19.5640  -32.8600 C   0  0  0  0  0  0  0  0  0  0  0  0
   -4.8160   19.3210  -33.7290 C   0  0  0  0  0  0  0  0  0  0  0  0
   -4.5980   18.0430  -34.2470 C   0  0  0  0  0  0  0  0  0  0  0  0
   -5.4440   16.9930  -33.8930 C   0  0  0  0  0  0  0  0  0  0  0  0
   -6.5060   17.2120  -33.0150 C   0  0  0  0  0  0  0  0  0  0  0  0
   -6.7390   18.4990  -32.4860 C   0  0  0  0  0  0  0  0  0  0  0  0
   -7.7970   18.7550  -31.5990 O   0  0  0  0  0  0  0  0  0  0  0  0
   -9.1440   19.0000  -31.9940 C   0  0  0  0  0  0  0  0  0  0  0  0
   -9.3110   20.4730  -32.3350 C   0  0  0  0  0  0  0  0  0  0  0  0
   -3.4040   21.9220  -29.9310 S   0  0  0  0  0  0  0  0  0  0  0  0
   -2.7979   19.1348  -25.7891 H   0  0  0  0  0  0  0  0  0  0  0  0
   -2.1660   18.6676  -27.5248 H   0  0  0  0  0  0  0  0  0  0  0  0
   -1.8642   21.3528  -26.0362 H   0  0  0  0  0  0  0  0  0  0  0  0
    0.0606   20.9012  -27.9560 H   0  0  0  0  0  0  0  0  0  0  0  0
   -1.3685   20.4284  -28.9464 H   0  0  0  0  0  0  0  0  0  0  0  0
   -6.2718   23.1159  -31.0130 H   0  0  0  0  0  0  0  0  0  0  0  0
   -5.3281   24.0756  -32.2061 H   0  0  0  0  0  0  0  0  0  0  0  0
   -7.0040   21.0570  -31.7960 H   0  0  0  0  0  0  0  0  0  0  0  0
   -4.1389   20.1438  -34.0020 H   0  0  0  0  0  0  0  0  0  0  0  0
   -3.7583   17.8645  -34.9348 H   0  0  0  0  0  0  0  0  0  0  0  0
   -5.2737   15.9884  -34.3073 H   0  0  0  0  0  0  0  0  0  0  0  0
   -7.1648   16.3772  -32.7339 H   0  0  0  0  0  0  0  0  0  0  0  0
   -9.3843   18.3895  -32.8769 H   0  0  0  0  0  0  0  0  0  0  0  0
   -9.8225   18.7346  -31.1698 H   0  0  0  0  0  0  0  0  0  0  0  0
   -9.3774   21.0591  -31.4065 H   0  0  0  0  0  0  0  0  0  0  0  0
   -8.4457   20.8137  -32.9225 H   0  0  0  0  0  0  0  0  0  0  0  0
  -10.2306   20.6114  -32.9225 H   0  0  0  0  0  0  0  0  0  0  0  0
  1  2  2  0
  2  3  1  0
  3  4  1  0
  4  5  2  3
  5  6  1  0
  6  7  1  0
  7  8  1  0
  7  9  2  0
  9 10  1  0
 10 11  1  0
 11 12  2  0
 11 13  1  0
 13 14  1  0
 14 15  2  0
 15 16  1  0
 16 17  2  0
 17 18  1  0
 18 19  2  0
 19 20  1  0
 20 21  1  0
 21 22  1  0
  9 23  1  0
 23  5  1  0
 19 14  1  0
  1 24  1  0
  1 25  1  0
  2 26  1  0
  3 27  1  0
  3 28  1  0
 10 29  1  0
 10 30  1  0
 13 31  1  0
 15 32  1  0
 16 33  1  0
 17 34  1  0
 18 35  1  0
 21 36  1  0
 21 37  1  0
 22 38  1  0
 22 39  1  0
 22 40  1  0
M  CHG  2   6  -1   8  -1
M  END
>  <UniqueID>  (11) 
10

>  <SMILES>  (11) 
C=CCN=c1[n-]c([O-])c(CC(=O)Nc2ccccc2OCC)s1

>  <Energy>  (11) 
65.57704515739897

>  <Genealogy>  (11) 
C=CCN=c1[n-]c([O-])c(CC(=O)Nc2ccccc2OCC)s1 (protonated)
C=CCN=c1[n-]c([O-])c(CC(=O)Nc2ccccc2OCC)s1 (3D coordinates assigned)
C=CCN=c1[n-]c([O-])c(CC(=O)Nc2ccccc2OCC)s1 (optimized conformer: 65.57704515739897 kcal/mol)

>  <smiles>  (11) 
C=CCN=c1[nH]c(O)c(CC(=O)Nc2ccccc2OCC)s1

>  <score_type>  (11) 
oracle

>  <origin>  (11) 
adgpu

>  <m_score__min__energy>  (11) 
-11.06

>  <m_primary>  (11) 
energy

$$$$
11:0
     RDKit          3D

 25 27  0  0  0  0  0  0  0  0999 V2000
    1.1990   24.5510  -29.1970 H   0  0  0  0  0  0  0  0  0  0  0  0
    0.9240   24.7150  -28.2030 N   0  0  0  0  0  0  0  0  0  0  0  0
   -0.3190   24.7680  -27.8440 C   0  0  0  0  0  0  0  0  0  0  0  0
   -1.3030   24.6100  -28.7710 N   0  0  0  0  0  0  0  0  0  0  0  0
   -2.6170   24.6610  -28.4230 C   0  0  0  0  0  0  0  0  0  0  0  0
   -3.6540   24.4860  -29.4520 C   0  0  0  0  0  0  0  0  0  0  0  0
   -3.8500   25.3010  -30.4640 O   0  0  0  0  0  0  0  0  0  0  0  0
   -4.8360   24.8940  -31.2100 N   0  0  0  0  0  0  0  0  0  0  0  0
   -5.3050   23.7600  -30.6540 C   0  0  0  0  0  0  0  0  0  0  0  0
   -6.4280   22.9850  -31.2020 C   0  0  0  0  0  0  0  0  0  0  0  0
   -6.3490   21.3760  -31.6810 S   0  0  0  0  0  0  0  0  0  0  0  0
   -7.9560   21.2470  -32.1620 C   0  0  0  0  0  0  0  0  0  0  0  0
   -8.4349   20.3465  -32.5739 H   0  0  0  0  0  0  0  0  0  0  0  0
   -8.5740   22.4720  -31.9500 C   0  0  0  0  0  0  0  0  0  0  0  0
   -9.6330   22.6595  -32.1808 H   0  0  0  0  0  0  0  0  0  0  0  0
   -7.7230   23.4460  -31.4150 C   0  0  0  0  0  0  0  0  0  0  0  0
   -8.0457   24.4724  -31.1861 H   0  0  0  0  0  0  0  0  0  0  0  0
   -4.5750   23.4600  -29.5220 C   0  0  0  0  0  0  0  0  0  0  0  0
   -4.6977   22.6069  -28.8385 H   0  0  0  0  0  0  0  0  0  0  0  0
   -2.9650   24.8810  -27.0860 C   0  0  0  0  0  0  0  0  0  0  0  0
   -4.0207   24.9268  -26.7803 H   0  0  0  0  0  0  0  0  0  0  0  0
   -1.9440   25.0410  -26.1490 C   0  0  0  0  0  0  0  0  0  0  0  0
   -2.1922   25.2154  -25.0916 H   0  0  0  0  0  0  0  0  0  0  0  0
   -0.6440   24.9820  -26.5390 N   0  0  0  0  0  0  0  0  0  0  0  0
    0.1090   25.1050  -25.8240 H   0  0  0  0  0  0  0  0  0  0  0  0
  1  2  1  0
  2  3  2  0
  3  4  1  0
  4  5  2  0
  5  6  1  0
  6  7  1  0
  7  8  1  0
  8  9  2  0
  9 10  1  0
 10 11  1  0
 11 12  1  0
 12 13  1  0
 12 14  2  0
 14 15  1  0
 14 16  1  0
 16 17  1  0
  9 18  1  0
 18 19  1  0
  5 20  1  0
 20 21  1  0
 20 22  2  0
 22 23  1  0
 22 24  1  0
 24 25  1  0
 24  3  1  0
 18  6  2  0
 16 10  2  0
M  END
>  <UniqueID>  (12) 
11

>  <SMILES>  (12) 
[H]/N=c1\nc(-c2cc(-c3cccs3)no2)cc[nH]1

>  <Energy>  (12) 
83.32559525404714

>  <Genealogy>  (12) 
[H]/N=c1\nc(-c2cc(-c3cccs3)no2)cc[nH]1 (cis-trans isomerization)
[H]/N=c1\nc(-c2cc(-c3cccs3)no2)cc[nH]1 (3D coordinates assigned)
[H]/N=c1\nc(-c2cc(-c3cccs3)no2)cc[nH]1 (optimized conformer: 83.32559525404714 kcal/mol)

>  <smiles>  (12) 
N=c1nc(-c2cc(-c3cccs3)no2)cc[nH]1

>  <score_type>  (12) 
oracle

>  <origin>  (12) 
adgpu

>  <m_score__min__energy>  (12) 
-7.8399999999999999

>  <m_primary>  (12) 
energy

$$$$
12:0
     RDKit          3D

 37 40  0  0  0  0  0  0  0  0999 V2000
   -4.7440   20.5240  -32.8100 Cl  0  0  0  0  0  0  0  0  0  0  0  0
   -6.4310   20.1350  -32.4900 C   0  0  0  0  0  0  0  0  0  0  0  0
   -6.7900   18.7870  -32.3680 C   0  0  0  0  0  0  0  0  0  0  0  0
   -8.1130   18.4300  -32.0970 C   0  0  0  0  0  0  0  0  0  0  0  0
   -9.0850   19.4190  -31.9390 C   0  0  0  0  0  0  0  0  0  0  0  0
   -8.7380   20.7680  -32.0580 C   0  0  0  0  0  0  0  0  0  0  0  0
   -7.4140   21.1410  -32.3470 C   0  0  0  0  0  0  0  0  0  0  0  0
   -7.0640   22.6030  -32.4420 C   0  0  0  0  0  0  0  0  0  0  0  0
   -7.4860   23.4340  -30.8760 S   0  0  0  0  0  0  0  0  0  0  0  0
   -5.7900   23.8900  -30.5350 C   0  0  0  0  0  0  0  0  0  0  0  0
   -5.1100   24.8290  -31.2160 N   0  0  0  0  0  0  0  0  0  0  0  0
   -3.9030   24.8720  -30.6740 N   0  0  0  0  0  0  0  0  0  0  0  0
   -3.8960   23.9570  -29.6840 C   0  0  0  0  0  0  0  0  0  0  0  0
   -2.7370   23.6740  -28.8160 C   0  0  0  0  0  0  0  0  0  0  0  0
   -2.7840   22.6050  -27.9020 C   0  0  0  0  0  0  0  0  0  0  0  0
   -1.6920   22.3340  -27.0720 C   0  0  0  0  0  0  0  0  0  0  0  0
   -0.5470   23.1300  -27.1450 C   0  0  0  0  0  0  0  0  0  0  0  0
   -0.4790   24.1790  -28.0720 C   0  0  0  0  0  0  0  0  0  0  0  0
   -1.5740   24.4620  -28.8930 C   0  0  0  0  0  0  0  0  0  0  0  0
    0.6960   24.9330  -28.1590 O   0  0  0  0  0  0  0  0  0  0  0  0
    1.9040   24.4920  -27.5340 C   0  0  0  0  0  0  0  0  0  0  0  0
    1.5970   23.8540  -26.1730 C   0  0  0  0  0  0  0  0  0  0  0  0
    0.5450   22.8960  -26.3030 O   0  0  0  0  0  0  0  0  0  0  0  0
   -5.0560   23.3510  -29.5940 O   0  0  0  0  0  0  0  0  0  0  0  0
   -6.0258   18.0047  -32.4863 H   0  0  0  0  0  0  0  0  0  0  0  0
   -8.3889   17.3689  -32.0081 H   0  0  0  0  0  0  0  0  0  0  0  0
  -10.1255   19.1367  -31.7206 H   0  0  0  0  0  0  0  0  0  0  0  0
   -9.5068   21.5433  -31.9245 H   0  0  0  0  0  0  0  0  0  0  0  0
   -5.9863   22.7099  -32.6346 H   0  0  0  0  0  0  0  0  0  0  0  0
   -7.6318   23.0624  -33.2645 H   0  0  0  0  0  0  0  0  0  0  0  0
   -3.6860   21.9784  -27.8402 H   0  0  0  0  0  0  0  0  0  0  0  0
   -1.7348   21.4947  -26.3623 H   0  0  0  0  0  0  0  0  0  0  0  0
   -1.5265   25.3026  -29.6009 H   0  0  0  0  0  0  0  0  0  0  0  0
    2.3968   23.7502  -28.1797 H   0  0  0  0  0  0  0  0  0  0  0  0
    2.5652   25.3579  -27.3823 H   0  0  0  0  0  0  0  0  0  0  0  0
    2.5001   23.3528  -25.7947 H   0  0  0  0  0  0  0  0  0  0  0  0
    1.2818   24.6401  -25.4711 H   0  0  0  0  0  0  0  0  0  0  0  0
  1  2  1  0
  2  3  2  0
  3  4  1  0
  4  5  2  0
  5  6  1  0
  6  7  2  0
  7  8  1  0
  8  9  1  0
  9 10  1  0
 10 11  2  0
 11 12  1  0
 12 13  2  0
 13 14  1  0
 14 15  2  0
 15 16  1  0
 16 17  2  0
 17 18  1  0
 18 19  2  0
 18 20  1  0
 20 21  1  0
 21 22  1  0
 22 23  1  0
 13 24  1  0
  7  2  1  0
 24 10  1  0
 19 14  1  0
 23 17  1  0
  3 25  1  0
  4 26  1  0
  5 27  1  0
  6 28  1  0
  8 29  1  0
  8 30  1  0
 15 31  1  0
 16 32  1  0
 19 33  1  0
 21 34  1  0
 21 35  1  0
 22 36  1  0
 22 37  1  0
M  END
>  <UniqueID>  (13) 
12

>  <SMILES>  (13) 
Clc1ccccc1CSc1nnc(-c2ccc3c(c2)OCCO3)o1

>  <Energy>  (13) 
73.68861968287476

>  <Genealogy>  (13) 
Clc1ccccc1CSc1nnc(-c2ccc3c(c2)OCCO3)o1 (3D coordinates assigned)
Clc1ccccc1CSc1nnc(-c2ccc3c(c2)OCCO3)o1 (nonaromatic ring conformer: 73.68861968287476 kcal/mol)

>  <smiles>  (13) 
Clc1ccccc1CSc1nnc(-c2ccc3c(c2)OCCO3)o1

>  <score_type>  (13) 
oracle

>  <origin>  (13) 
adgpu

>  <m_score__min__energy>  (13) 
-9.0099999999999998

>  <m_primary>  (13) 
energy

$$$$
13:0
     RDKit          3D

 27 28  0  0  0  0  0  0  0  0999 V2000
   -7.8980   20.5050  -32.3300 C   0  0  0  0  0  0  0  0  0  0  0  0
   -7.1510   21.7410  -31.9280 C   0  0  0  0  0  0  0  0  0  0  0  0
   -7.7620   22.7030  -31.1110 C   0  0  0  0  0  0  0  0  0  0  0  0
   -7.0550   23.8390  -30.7060 C   0  0  0  0  0  0  0  0  0  0  0  0
   -5.7170   24.0270  -31.1010 C   0  0  0  0  0  0  0  0  0  0  0  0
   -4.9660   25.2310  -30.6740 C   0  0  0  0  0  0  0  0  0  0  0  0
   -5.5680   26.3310  -30.5400 O   0  0  0  0  0  0  0  0  0  0  0  0
   -3.5490   25.1560  -30.4660 N   0  0  0  0  0  0  0  0  0  0  0  0
   -2.8770   24.5520  -29.3520 C   0  0  0  0  0  0  0  0  0  0  0  0
   -1.5800   24.9270  -28.9610 C   0  0  0  0  0  0  0  0  0  0  0  0
   -0.9840   24.3220  -27.8530 C   0  0  0  0  0  0  0  0  0  0  0  0
   -1.6940   23.3580  -27.1350 C   0  0  0  0  0  0  0  0  0  0  0  0
   -2.9550   23.0230  -27.5110 N   0  0  0  0  0  0  0  0  0  0  0  0
   -3.5570   23.5970  -28.5870 C   0  0  0  0  0  0  0  0  0  0  0  0
   -5.1040   23.0500  -31.9070 C   0  0  0  0  0  0  0  0  0  0  0  0
   -5.8130   21.9140  -32.3110 C   0  0  0  0  0  0  0  0  0  0  0  0
   -8.2246   19.9647  -31.4292 H   0  0  0  0  0  0  0  0  0  0  0  0
   -8.7775   20.7863  -32.9279 H   0  0  0  0  0  0  0  0  0  0  0  0
   -7.2401   19.8571  -32.9279 H   0  0  0  0  0  0  0  0  0  0  0  0
   -8.8038   22.5630  -30.7868 H   0  0  0  0  0  0  0  0  0  0  0  0
   -7.5482   24.5919  -30.0736 H   0  0  0  0  0  0  0  0  0  0  0  0
   -1.0351   25.6965  -29.5275 H   0  0  0  0  0  0  0  0  0  0  0  0
    0.0352   24.6022  -27.5486 H   0  0  0  0  0  0  0  0  0  0  0  0
   -1.2318   22.8697  -26.2644 H   0  0  0  0  0  0  0  0  0  0  0  0
   -4.5837   23.3093  -28.8576 H   0  0  0  0  0  0  0  0  0  0  0  0
   -4.0582   23.1807  -32.2221 H   0  0  0  0  0  0  0  0  0  0  0  0
   -5.3187   21.1526  -32.9322 H   0  0  0  0  0  0  0  0  0  0  0  0
  1  2  1  0
  2  3  2  0
  3  4  1  0
  4  5  2  0
  5  6  1  0
  6  7  2  0
  6  8  1  0
  8  9  1  0
  9 10  2  0
 10 11  1  0
 11 12  2  0
 12 13  1  0
 13 14  2  0
  5 15  1  0
 15 16  2  0
 16  2  1  0
 14  9  1  0
  1 17  1  0
  1 18  1  0
  1 19  1  0
  3 20  1  0
  4 21  1  0
 10 22  1  0
 11 23  1  0
 12 24  1  0
 14 25  1  0
 15 26  1  0
 16 27  1  0
M  CHG  1   8  -1
M  END
>  <UniqueID>  (14) 
13

>  <SMILES>  (14) 
Cc1ccc(C(=O)[N-]c2cccnc2)cc1

>  <Energy>  (14) 
32.051909706130424

>  <Genealogy>  (14) 
Cc1ccc(C(=O)[N-]c2cccnc2)cc1 (protonated)
Cc1ccc(C(=O)[N-]c2cccnc2)cc1 (3D coordinates assigned)
Cc1ccc(C(=O)[N-]c2cccnc2)cc1 (optimized conformer: 32.051909706130424 kcal/mol)

>  <smiles>  (14) 
Cc1ccc(C(=O)Nc2cccnc2)cc1

>  <score_type>  (14) 
oracle

>  <origin>  (14) 
adgpu

>  <m_score__min__energy>  (14) 
-7.9900000000000002

>  <m_primary>  (14) 
energy

$$$$
14:0
     RDKit          3D

 27 28  0  0  0  0  0  0  0  0999 V2000
   -8.4160   23.0490  -31.9640 C   0  0  0  0  0  0  0  0  0  0  0  0
   -7.2000   23.4650  -32.6530 N   0  0  0  0  0  0  0  0  0  0  0  0
   -5.9870   23.7440  -31.9930 N   0  0  0  0  0  0  0  0  0  0  0  0
   -5.7510   24.8210  -31.2250 C   0  0  0  0  0  0  0  0  0  0  0  0
   -4.4970   24.7980  -30.7360 N   0  0  0  0  0  0  0  0  0  0  0  0
   -3.9180   23.6930  -31.1870 N   0  0  0  0  0  0  0  0  0  0  0  0
   -4.8280   23.0510  -31.9470 C   0  0  0  0  0  0  0  0  0  0  0  0
   -4.4910   21.4650  -32.7180 S   0  0  0  0  0  0  0  0  0  0  0  0
   -6.0290   20.6770  -32.1200 C   0  0  0  0  0  0  0  0  0  0  0  0
   -6.2260   19.3320  -32.7630 C   0  0  0  0  0  0  0  0  0  0  0  0
   -5.5850   19.0290  -33.9760 C   0  0  0  0  0  0  0  0  0  0  0  0
   -5.7480   17.7720  -34.5630 C   0  0  0  0  0  0  0  0  0  0  0  0
   -6.5500   16.8070  -33.9450 C   0  0  0  0  0  0  0  0  0  0  0  0
   -6.7060   15.5870  -34.5170 F   0  0  0  0  0  0  0  0  0  0  0  0
   -7.1870   17.1000  -32.7370 C   0  0  0  0  0  0  0  0  0  0  0  0
   -7.0280   18.3570  -32.1460 C   0  0  0  0  0  0  0  0  0  0  0  0
   -8.2581   23.1030  -30.8767 H   0  0  0  0  0  0  0  0  0  0  0  0
   -9.2443   23.7149  -32.2478 H   0  0  0  0  0  0  0  0  0  0  0  0
   -8.6629   22.0153  -32.2478 H   0  0  0  0  0  0  0  0  0  0  0  0
   -7.2040   23.4340  -33.6990 H   0  0  0  0  0  0  0  0  0  0  0  0
   -6.4845   25.6154  -31.0228 H   0  0  0  0  0  0  0  0  0  0  0  0
   -5.9681   20.5495  -31.0291 H   0  0  0  0  0  0  0  0  0  0  0  0
   -6.8805   21.3215  -32.3838 H   0  0  0  0  0  0  0  0  0  0  0  0
   -4.9525   19.7844  -34.4652 H   0  0  0  0  0  0  0  0  0  0  0  0
   -5.2446   17.5406  -35.5133 H   0  0  0  0  0  0  0  0  0  0  0  0
   -7.8152   16.3400  -32.2495 H   0  0  0  0  0  0  0  0  0  0  0  0
   -7.5323   18.5835  -31.1950 H   0  0  0  0  0  0  0  0  0  0  0  0
  1  2  1  0
  2  3  1  0
  3  4  1  0
  4  5  2  0
  5  6  1  0
  6  7  2  0
  7  8  1  0
  8  9  1  0
  9 10  1  0
 10 11  2  0
 11 12  1  0
 12 13  2  0
 13 14  1  0
 13 15  1  0
 15 16  2  0
  7  3  1  0
 16 10  1  0
  1 17  1  0
  1 18  1  0
  1 19  1  0
  2 20  1  0
  4 21  1  0
  9 22  1  0
  9 23  1  0
 11 24  1  0
 12 25  1  0
 15 26  1  0
 16 27  1  0
M  END
>  <UniqueID>  (15) 
14

>  <SMILES>  (15) 
CNn1cnnc1SCc1ccc(F)cc1

>  <Energy>  (15) 
59.02326416618852

>  <Genealogy>  (15) 
CNn1cnnc1SCc1ccc(F)cc1 (3D coordinates assigned)
CNn1cnnc1SCc1ccc(F)cc1 (optimized conformer: 59.02326416618852 kcal/mol)

>  <smiles>  (15) 
CNn1cnnc1SCc1ccc(F)cc1

>  <score_type>  (15) 
oracle

>  <origin>  (15) 
adgpu

>  <m_score__min__energy>  (15) 
-6.6100000000000003

>  <m_primary>  (15) 
energy

$$$$
15:0
     RDKit          3D

 52 54  0  0  0  0  0  0  0  0999 V2000
   -7.2709   17.0082  -34.2527 H   0  0  0  0  0  0  0  0  0  0  0  0
   -6.3980   17.6660  -34.1290 C   0  0  0  0  0  0  0  0  0  0  0  0
   -6.5020   18.8030  -33.3980 N   0  0  0  0  0  0  0  0  0  0  0  0
   -5.4430   19.6330  -33.1970 C   0  0  0  0  0  0  0  0  0  0  0  0
   -5.6470   20.8020  -32.4680 C   0  0  0  0  0  0  0  0  0  0  0  0
   -6.6397   21.0266  -32.0508 H   0  0  0  0  0  0  0  0  0  0  0  0
   -4.5870   21.6870  -32.2690 C   0  0  0  0  0  0  0  0  0  0  0  0
   -4.7600   22.9550  -31.5150 C   0  0  0  0  0  0  0  0  0  0  0  0
   -6.0170   23.5820  -31.4840 C   0  0  0  0  0  0  0  0  0  0  0  0
   -6.8658   23.1323  -32.0199 H   0  0  0  0  0  0  0  0  0  0  0  0
   -6.1950   24.7740  -30.7760 C   0  0  0  0  0  0  0  0  0  0  0  0
   -7.1805   25.2625  -30.7651 H   0  0  0  0  0  0  0  0  0  0  0  0
   -5.1280   25.3470  -30.0830 C   0  0  0  0  0  0  0  0  0  0  0  0
   -5.2739   26.2874  -29.5314 H   0  0  0  0  0  0  0  0  0  0  0  0
   -3.8680   24.7260  -30.0880 C   0  0  0  0  0  0  0  0  0  0  0  0
   -2.7480   25.2680  -29.3760 N   0  0  0  0  0  0  0  0  0  0  0  0
   -1.3910   24.3570  -28.8010 S   0  0  0  0  0  0  0  0  0  0  0  0
   -0.8890   23.4520  -29.8910 O   0  0  0  0  0  0  0  0  0  0  0  0
   -0.2980   25.2930  -28.3660 O   0  0  0  0  0  0  0  0  0  0  0  0
   -1.9160   23.3740  -27.4060 C   0  0  0  0  0  0  0  0  0  0  0  0
   -2.5688   23.9823  -26.7627 H   0  0  0  0  0  0  0  0  0  0  0  0
   -1.0237   23.0480  -26.8514 H   0  0  0  0  0  0  0  0  0  0  0  0
   -2.6800   22.1390  -27.8650 C   0  0  0  0  0  0  0  0  0  0  0  0
   -3.0284   21.5759  -26.9866 H   0  0  0  0  0  0  0  0  0  0  0  0
   -3.5455   22.4471  -28.4699 H   0  0  0  0  0  0  0  0  0  0  0  0
   -2.0179   21.5021  -28.4699 H   0  0  0  0  0  0  0  0  0  0  0  0
   -3.6930   23.5340  -30.8020 C   0  0  0  0  0  0  0  0  0  0  0  0
   -2.7085   23.0434  -30.8058 H   0  0  0  0  0  0  0  0  0  0  0  0
   -3.3590   21.3600  -32.7460 N   0  0  0  0  0  0  0  0  0  0  0  0
   -3.0820   20.2270  -33.4450 C   0  0  0  0  0  0  0  0  0  0  0  0
   -1.8240   20.0470  -33.7490 N   0  0  0  0  0  0  0  0  0  0  0  0
   -1.1020   18.9560  -34.3940 C   0  0  0  0  0  0  0  0  0  0  0  0
   -1.8230   18.2407  -34.8165 H   0  0  0  0  0  0  0  0  0  0  0  0
   -0.4700   19.3640  -35.1966 H   0  0  0  0  0  0  0  0  0  0  0  0
   -0.2170   18.2400  -33.3690 C   0  0  0  0  0  0  0  0  0  0  0  0
   -0.2434   17.1611  -33.5818 H   0  0  0  0  0  0  0  0  0  0  0  0
    0.7932   18.6642  -33.4666 H   0  0  0  0  0  0  0  0  0  0  0  0
   -0.6560   18.4580  -31.9060 C   0  0  0  0  0  0  0  0  0  0  0  0
   -1.6153   17.9438  -31.7473 H   0  0  0  0  0  0  0  0  0  0  0  0
    0.1374   18.0540  -31.2600 H   0  0  0  0  0  0  0  0  0  0  0  0
   -0.8240   19.8880  -31.5610 N   0  0  0  0  0  0  0  0  0  0  0  0
   -0.3290   20.5120  -32.2410 H   0  0  0  0  0  0  0  0  0  0  0  0
   -1.8420   20.1300  -31.6010 H   0  0  0  0  0  0  0  0  0  0  0  0
   -0.3510   20.1870  -30.2040 C   0  0  0  0  0  0  0  0  0  0  0  0
   -1.0433   19.7494  -29.4697 H   0  0  0  0  0  0  0  0  0  0  0  0
    0.6523   19.7587  -30.0627 H   0  0  0  0  0  0  0  0  0  0  0  0
   -0.3075   21.2770  -30.0627 H   0  0  0  0  0  0  0  0  0  0  0  0
   -4.1620   19.3230  -33.7350 C   0  0  0  0  0  0  0  0  0  0  0  0
   -4.0780   18.1600  -34.5370 C   0  0  0  0  0  0  0  0  0  0  0  0
   -3.1246   17.9037  -35.0222 H   0  0  0  0  0  0  0  0  0  0  0  0
   -5.1870   17.3340  -34.7210 C   0  0  0  0  0  0  0  0  0  0  0  0
   -5.1023   16.4236  -35.3325 H   0  0  0  0  0  0  0  0  0  0  0  0
  1  2  1  0
  2  3  2  0
  3  4  1  0
  4  5  1  0
  5  6  1  0
  5  7  2  0
  7  8  1  0
  8  9  2  0
  9 10  1  0
  9 11  1  0
 11 12  1  0
 11 13  2  0
 13 14  1  0
 13 15  1  0
 15 16  1  0
 16 17  1  0
 17 18  2  0
 17 19  2  0
 17 20  1  0
 20 21  1  0
 20 22  1  0
 20 23  1  0
 23 24  1  0
 23 25  1  0
 23 26  1  0
 15 27  2  0
 27 28  1  0
  7 29  1  0
 29 30  1  0
 30 31  2  0
 31 32  1  0
 32 33  1  0
 32 34  1  0
 32 35  1  0
 35 36  1  0
 35 37  1  0
 35 38  1  0
 38 39  1  0
 38 40  1  0
 38 41  1  0
 41 42  1  0
 41 43  1  0
 41 44  1  0
 44 45  1  0
 44 46  1  0
 44 47  1  0
 30 48  1  0
 48 49  1  0
 49 50  1  0
 49 51  2  0
 51 52  1  0
 51  2  1  0
 48  4  2  0
 27  8  1  0
M  CHG  3  16  -1  29  -1  41   1
M  END
>  <UniqueID>  (16) 
15

>  <SMILES>  (16) 
CCS(=O)(=O)[N-]c1cccc(-c2cc3ncccc3/c(=N\CCC[NH2+]C)[n-]2)c1

>  <Energy>  (16) 
70.3645888930113

>  <Genealogy>  (16) 
CCS(=O)(=O)[N-]c1cccc(-c2cc3ncccc3c(=NCCC[NH2+]C)[n-]2)c1 (protonated)
CCS(=O)(=O)[N-]c1cccc(-c2cc3ncccc3/c(=N\CCC[NH2+]C)[n-]2)c1 (cis-trans isomerization)
CCS(=O)(=O)[N-]c1cccc(-c2cc3ncccc3/c(=N\CCC[NH2+]C)[n-]2)c1 (3D coordinates assigned)
CCS(=O)(=O)[N-]c1cccc(-c2cc3ncccc3/c(=N\CCC[NH2+]C)[n-]2)c1 (optimized conformer: 70.3645888930113 kcal/mol)

>  <smiles>  (16) 
CCS(=O)(=O)Nc1cccc(-c2cc3ncccc3c(=NCCCNC)[nH]2)c1

>  <score_type>  (16) 
oracle

>  <origin>  (16) 
adgpu

>  <m_score__min__energy>  (16) 
-10.27

>  <m_primary>  (16) 
energy

$$$$
16:0
     RDKit          3D

 39 41  0  0  0  0  0  0  0  0999 V2000
   -4.8430   26.8720  -29.9430 H   0  0  0  0  0  0  0  0  0  0  0  0
   -5.0850   26.0460  -30.5370 N   0  0  0  0  0  0  0  0  0  0  0  0
   -4.4200   24.9400  -30.4590 C   0  0  0  0  0  0  0  0  0  0  0  0
   -3.3790   24.8260  -29.5930 N   0  0  0  0  0  0  0  0  0  0  0  0
   -2.6710   23.6700  -29.4870 C   0  0  0  0  0  0  0  0  0  0  0  0
   -1.5350   23.5850  -28.5400 C   0  0  0  0  0  0  0  0  0  0  0  0
   -0.5240   24.5600  -28.5900 C   0  0  0  0  0  0  0  0  0  0  0  0
   -0.5811   25.3621  -29.3406 H   0  0  0  0  0  0  0  0  0  0  0  0
    0.5600   24.5250  -27.6940 C   0  0  0  0  0  0  0  0  0  0  0  0
    1.5800   25.4890  -27.7210 O   0  0  0  0  0  0  0  0  0  0  0  0
    2.9670   25.1950  -27.8490 C   0  0  0  0  0  0  0  0  0  0  0  0
    3.4155   25.0999  -26.8491 H   0  0  0  0  0  0  0  0  0  0  0  0
    3.0924   24.2503  -28.3984 H   0  0  0  0  0  0  0  0  0  0  0  0
    3.4649   26.0076  -28.3984 H   0  0  0  0  0  0  0  0  0  0  0  0
    0.6360   23.5040  -26.7380 C   0  0  0  0  0  0  0  0  0  0  0  0
    1.7280   23.4960  -25.8560 O   0  0  0  0  0  0  0  0  0  0  0  0
    1.7600   24.1720  -24.6030 C   0  0  0  0  0  0  0  0  0  0  0  0
    1.7251   23.4346  -23.7875 H   0  0  0  0  0  0  0  0  0  0  0  0
    2.6870   24.7593  -24.5268 H   0  0  0  0  0  0  0  0  0  0  0  0
    0.8927   24.8443  -24.5268 H   0  0  0  0  0  0  0  0  0  0  0  0
   -0.3710   22.5240  -26.6880 C   0  0  0  0  0  0  0  0  0  0  0  0
   -0.3095   21.7209  -25.9388 H   0  0  0  0  0  0  0  0  0  0  0  0
   -1.4490   22.5560  -27.5770 C   0  0  0  0  0  0  0  0  0  0  0  0
   -2.7280   21.1270  -27.4780 Br  0  0  0  0  0  0  0  0  0  0  0  0
   -3.0160   22.5790  -30.2970 C   0  0  0  0  0  0  0  0  0  0  0  0
   -2.4568   21.6342  -30.2287 H   0  0  0  0  0  0  0  0  0  0  0  0
   -4.0850   22.7100  -31.1960 C   0  0  0  0  0  0  0  0  0  0  0  0
   -4.5070   21.5920  -32.0790 C   0  0  0  0  0  0  0  0  0  0  0  0
   -3.5380   20.7440  -32.6470 C   0  0  0  0  0  0  0  0  0  0  0  0
   -2.4721   20.9166  -32.4369 H   0  0  0  0  0  0  0  0  0  0  0  0
   -3.9180   19.6840  -33.4760 C   0  0  0  0  0  0  0  0  0  0  0  0
   -3.1514   19.0317  -33.9196 H   0  0  0  0  0  0  0  0  0  0  0  0
   -5.2710   19.4520  -33.7420 C   0  0  0  0  0  0  0  0  0  0  0  0
   -5.7460   18.1200  -34.7800 Cl  0  0  0  0  0  0  0  0  0  0  0  0
   -6.2440   20.2780  -33.1740 C   0  0  0  0  0  0  0  0  0  0  0  0
   -7.3087   20.0927  -33.3793 H   0  0  0  0  0  0  0  0  0  0  0  0
   -5.8680   21.3400  -32.3450 C   0  0  0  0  0  0  0  0  0  0  0  0
   -6.6400   21.9831  -31.8974 H   0  0  0  0  0  0  0  0  0  0  0  0
   -4.7640   23.8890  -31.2460 N   0  0  0  0  0  0  0  0  0  0  0  0
  1  2  1  0
  2  3  2  0
  3  4  1  0
  4  5  2  0
  5  6  1  0
  6  7  2  0
  7  8  1  0
  7  9  1  0
  9 10  1  0
 10 11  1  0
 11 12  1  0
 11 13  1  0
 11 14  1  0
  9 15  2  0
 15 16  1  0
 16 17  1  0
 17 18  1  0
 17 19  1  0
 17 20  1  0
 15 21  1  0
 21 22  1  0
 21 23  2  0
 23 24  1  0
  5 25  1  0
 25 26  1  0
 25 27  2  0
 27 28  1  0
 28 29  2  0
 29 30  1  0
 29 31  1  0
 31 32  1  0
 31 33  2  0
 33 34  1  0
 33 35  1  0
 35 36  1  0
 35 37  2  0
 37 38  1  0
 27 39  1  0
 39  3  1  0
 23  6  1  0
 37 28  1  0
M  CHG  1  39  -1
M  END
>  <UniqueID>  (17) 
16

>  <SMILES>  (17) 
[H]/N=c1\nc(-c2cc(OC)c(OC)cc2Br)cc(-c2ccc(Cl)cc2)[n-]1

>  <Energy>  (17) 
51.58745711835739

>  <Genealogy>  (17) 
COc1cc(Br)c(-c2cc(-c3ccc(Cl)cc3)[n-]c(=N)n2)cc1OC (protonated)
[H]/N=c1\nc(-c2cc(OC)c(OC)cc2Br)cc(-c2ccc(Cl)cc2)[n-]1 (cis-trans isomerization)
[H]/N=c1\nc(-c2cc(OC)c(OC)cc2Br)cc(-c2ccc(Cl)cc2)[n-]1 (3D coordinates assigned)
[H]/N=c1\nc(-c2cc(OC)c(OC)cc2Br)cc(-c2ccc(Cl)cc2)[n-]1 (optimized conformer: 51.58745711835739 kcal/mol)

>  <smiles>  (17) 
COc1cc(Br)c(-c2cc(-c3ccc(Cl)cc3)[nH]c(=N)n2)cc1OC

>  <score_type>  (17) 
oracle

>  <origin>  (17) 
adgpu

>  <m_score__min__energy>  (17) 
-9.3599999999999994

>  <m_primary>  (17) 
energy

$$$$
17:0
     RDKit          3D

 41 42  0  0  0  0  0  0  0  0999 V2000
   -3.6970   19.8590  -33.4680 C   0  0  0  0  0  0  0  0  0  0  0  0
   -3.6570   21.2760  -32.9210 C   0  0  0  0  0  0  0  0  0  0  0  0
   -4.4390   21.3500  -31.7320 O   0  0  0  0  0  0  0  0  0  0  0  0
   -5.8320   21.5280  -31.7030 C   0  0  0  0  0  0  0  0  0  0  0  0
   -6.7230   20.4400  -31.6160 C   0  0  0  0  0  0  0  0  0  0  0  0
   -8.1020   20.6580  -31.5980 C   0  0  0  0  0  0  0  0  0  0  0  0
   -8.6060   21.9550  -31.6760 C   0  0  0  0  0  0  0  0  0  0  0  0
   -7.7340   23.0430  -31.7630 C   0  0  0  0  0  0  0  0  0  0  0  0
   -6.3420   22.8380  -31.7580 C   0  0  0  0  0  0  0  0  0  0  0  0
   -5.4200   23.9340  -31.8690 N   0  0  0  0  0  0  0  0  0  0  0  0
   -4.5790   24.4520  -30.8310 C   0  0  0  0  0  0  0  0  0  0  0  0
   -4.2400   25.6670  -30.8290 O   0  0  0  0  0  0  0  0  0  0  0  0
   -4.1420   23.5760  -29.7840 N   0  0  0  0  0  0  0  0  0  0  0  0
   -3.4060   24.0260  -28.6370 C   0  0  0  0  0  0  0  0  0  0  0  0
   -4.1120   24.4980  -27.5220 C   0  0  0  0  0  0  0  0  0  0  0  0
   -3.4320   24.9470  -26.3890 C   0  0  0  0  0  0  0  0  0  0  0  0
   -2.0320   24.9570  -26.3640 C   0  0  0  0  0  0  0  0  0  0  0  0
   -1.3010   25.3990  -25.1310 C   0  0  0  0  0  0  0  0  0  0  0  0
   -1.3180   24.4970  -27.4810 C   0  0  0  0  0  0  0  0  0  0  0  0
   -1.9960   24.0490  -28.6330 C   0  0  0  0  0  0  0  0  0  0  0  0
   -1.3060   23.6460  -29.7870 O   0  0  0  0  0  0  0  0  0  0  0  0
   -1.3230   22.3260  -30.3210 C   0  0  0  0  0  0  0  0  0  0  0  0
   -3.7172   19.1439  -32.6324 H   0  0  0  0  0  0  0  0  0  0  0  0
   -4.5992   19.7290  -34.0838 H   0  0  0  0  0  0  0  0  0  0  0  0
   -2.8036   19.6783  -34.0838 H   0  0  0  0  0  0  0  0  0  0  0  0
   -2.6167   21.5515  -32.6931 H   0  0  0  0  0  0  0  0  0  0  0  0
   -4.0649   21.9695  -33.6711 H   0  0  0  0  0  0  0  0  0  0  0  0
   -6.3303   19.4139  -31.5620 H   0  0  0  0  0  0  0  0  0  0  0  0
   -8.7918   19.8045  -31.5221 H   0  0  0  0  0  0  0  0  0  0  0  0
   -9.6932   22.1225  -31.6690 H   0  0  0  0  0  0  0  0  0  0  0  0
   -8.1372   24.0639  -31.8357 H   0  0  0  0  0  0  0  0  0  0  0  0
   -4.2270   22.5470  -29.9460 H   0  0  0  0  0  0  0  0  0  0  0  0
   -5.2117   24.5147  -27.5401 H   0  0  0  0  0  0  0  0  0  0  0  0
   -3.9981   25.2944  -25.5121 H   0  0  0  0  0  0  0  0  0  0  0  0
   -1.8518   25.0660  -24.2390 H   0  0  0  0  0  0  0  0  0  0  0  0
   -0.2928   24.9590  -25.1249 H   0  0  0  0  0  0  0  0  0  0  0  0
   -1.2223   26.4962  -25.1249 H   0  0  0  0  0  0  0  0  0  0  0  0
   -0.2183   24.4859  -27.4575 H   0  0  0  0  0  0  0  0  0  0  0  0
   -1.3324   21.5973  -29.4971 H   0  0  0  0  0  0  0  0  0  0  0  0
   -2.2229   22.1921  -30.9392 H   0  0  0  0  0  0  0  0  0  0  0  0
   -0.4268   22.1690  -30.9392 H   0  0  0  0  0  0  0  0  0  0  0  0
  1  2  1  0
  2  3  1  0
  3  4  1  0
  4  5  2  0
  5  6  1  0
  6  7  2  0
  7  8  1  0
  8  9  2  0
  9 10  1  0
 10 11  1  0
 11 12  2  0
 11 13  1  0
 13 14  1  0
 14 15  2  0
 15 16  1  0
 16 17  2  0
 17 18  1  0
 17 19  1  0
 19 20  2  0
 20 21  1  0
 21 22  1  0
  9  4  1  0
 20 14  1  0
  1 23  1  0
  1 24  1  0
  1 25  1  0
  2 26  1  0
  2 27  1  0
  5 28  1  0
  6 29  1  0
  7 30  1  0
  8 31  1  0
 13 32  1  0
 15 33  1  0
 16 34  1  0
 18 35  1  0
 18 36  1  0
 18 37  1  0
 19 38  1  0
 22 39  1  0
 22 40  1  0
 22 41  1  0
M  CHG  1  10  -1
M  END
>  <UniqueID>  (18) 
17

>  <SMILES>  (18) 
CCOc1ccccc1[N-]C(=O)Nc1ccc(C)cc1OC

>  <Energy>  (18) 
44.66595454264369

>  <Genealogy>  (18) 
CCOc1ccccc1[N-]C(=O)Nc1ccc(C)cc1OC (protonated)
CCOc1ccccc1[N-]C(=O)Nc1ccc(C)cc1OC (3D coordinates assigned)
CCOc1ccccc1[N-]C(=O)Nc1ccc(C)cc1OC (optimized conformer: 44.66595454264369 kcal/mol)

>  <smiles>  (18) 
CCOc1ccccc1NC(=O)Nc1ccc(C)cc1OC

>  <score_type>  (18) 
oracle

>  <origin>  (18) 
adgpu

>  <m_score__min__energy>  (18) 
-8.4800000000000004

>  <m_primary>  (18) 
energy

$$$$
18:0
     RDKit          3D

 30 31  0  0  1  0  0  0  0  0999 V2000
    0.7680   24.5330  -27.2870 C   0  0  0  0  0  0  0  0  0  0  0  0
   -0.2380   24.9610  -28.1970 N   0  0  0  0  0  0  0  0  0  0  0  0
   -1.2410   24.2230  -28.4370 C   0  0  0  0  0  0  0  0  0  0  0  0
   -2.1370   24.7370  -29.3290 N   0  0  0  0  0  0  0  0  0  0  0  0
   -3.2410   24.0770  -29.7060 C   0  0  0  0  0  0  0  0  0  0  0  0
   -4.0580   24.6020  -30.5510 N   0  0  0  0  0  0  0  0  0  0  0  0
   -5.2260   23.8810  -30.9370 C   0  0  0  0  0  0  0  0  0  0  0  0
   -6.4840   24.1680  -30.4440 C   0  0  0  0  0  0  0  0  0  0  0  0
   -7.5820   23.4320  -30.8590 C   0  0  0  0  0  0  0  0  0  0  0  0
   -7.4540   22.3850  -31.7780 C   0  0  0  0  0  0  0  0  0  0  0  0
   -6.1790   22.0960  -32.2760 C   0  0  0  0  0  0  0  0  0  0  0  0
   -5.0780   22.8390  -31.8570 C   0  0  0  0  0  0  0  0  0  0  0  0
   -3.8870   22.4980  -32.3820 F   0  0  0  0  0  0  0  0  0  0  0  0
   -3.4650   22.8810  -29.1890 N   0  0  0  0  0  0  0  0  0  0  0  0
   -2.6170   22.3320  -28.3080 C   0  0  0  0  0  0  0  0  0  0  0  0
   -1.4430   22.9640  -27.8670 C   0  0  0  0  0  0  0  0  0  0  0  0
   -0.5350   22.4190  -26.8780 C   0  0  0  0  0  0  0  0  0  0  0  0
   -1.2520   21.2100  -26.5570 F   0  0  0  0  0  0  0  0  0  0  0  0
    0.5920   21.7790  -27.1390 F   0  0  0  0  0  0  0  0  0  0  0  0
   -0.7490   22.8740  -25.5520 F   0  0  0  0  0  0  0  0  0  0  0  0
    0.4168   24.6824  -26.2553 H   0  0  0  0  0  0  0  0  0  0  0  0
    0.9810   23.4663  -27.4510 H   0  0  0  0  0  0  0  0  0  0  0  0
    1.6842   25.1193  -27.4510 H   0  0  0  0  0  0  0  0  0  0  0  0
   -1.9920   25.6780  -29.7580 H   0  0  0  0  0  0  0  0  0  0  0  0
   -6.6146   24.9846  -29.7186 H   0  0  0  0  0  0  0  0  0  0  0  0
   -8.5764   23.6763  -30.4570 H   0  0  0  0  0  0  0  0  0  0  0  0
   -8.3315   21.8051  -32.1001 H   0  0  0  0  0  0  0  0  0  0  0  0
   -6.0456   21.2794  -33.0008 H   0  0  0  0  0  0  0  0  0  0  0  0
   -4.3310   22.3530  -29.4800 H   0  0  0  0  0  0  0  0  0  0  0  0
   -2.8530   21.3342  -27.9096 H   0  0  0  0  0  0  0  0  0  0  0  0
  1  2  1  0
  2  3  2  0
  3  4  1  0
  4  5  1  0
  5  6  2  0
  6  7  1  0
  7  8  2  0
  8  9  1  0
  9 10  2  0
 10 11  1  0
 11 12  2  0
 12 13  1  0
  5 14  1  0
 14 15  1  0
 15 16  2  0
 16 17  1  0
 17 18  1  0
 17 19  1  0
 17 20  1  0
 16  3  1  0
 12  7  1  0
  1 21  1  0
  1 22  1  0
  1 23  1  0
  4 24  1  0
  8 25  1  0
  9 26  1  0
 10 27  1  0
 11 28  1  0
 14 29  1  0
 15 30  1  0
M  END
>  <smiles>  (19) 
CN=c1[nH]c(=Nc2ccccc2F)[nH]cc1C(F)(F)F

>  <score_type>  (19) 
oracle

>  <origin>  (19) 
adgpu

>  <m_score__min__energy>  (19) 
-6.5700000000000003

>  <m_primary>  (19) 
energy

$$$$
19:0
     RDKit          3D

 29 30  0  0  0  0  0  0  0  0999 V2000
   -1.2500   21.0340  -28.9250 C   0  0  0  0  0  0  0  0  0  0  0  0
   -2.2250   21.2480  -27.8460 N   0  0  0  0  0  0  0  0  0  0  0  0
   -2.4470   20.0100  -27.0830 C   0  0  0  0  0  0  0  0  0  0  0  0
   -3.4870   21.8510  -28.3270 C   0  0  0  0  0  0  0  0  0  0  0  0
   -3.3210   23.2320  -28.9200 C   0  0  0  0  0  0  0  0  0  0  0  0
   -2.4010   24.1870  -28.5410 C   0  0  0  0  0  0  0  0  0  0  0  0
   -2.5260   25.2640  -29.3400 N   0  0  0  0  0  0  0  0  0  0  0  0
   -3.4970   25.0370  -30.2120 N   0  0  0  0  0  0  0  0  0  0  0  0
   -4.0020   23.8120  -29.9760 C   0  0  0  0  0  0  0  0  0  0  0  0
   -5.1130   23.2250  -30.7530 C   0  0  0  0  0  0  0  0  0  0  0  0
   -4.8740   22.1370  -31.6190 C   0  0  0  0  0  0  0  0  0  0  0  0
   -3.2660   21.4450  -31.8160 Cl  0  0  0  0  0  0  0  0  0  0  0  0
   -5.9320   21.5720  -32.3390 C   0  0  0  0  0  0  0  0  0  0  0  0
   -7.2220   22.0890  -32.2190 C   0  0  0  0  0  0  0  0  0  0  0  0
   -7.4610   23.1860  -31.3900 C   0  0  0  0  0  0  0  0  0  0  0  0
   -6.4150   23.7630  -30.6620 C   0  0  0  0  0  0  0  0  0  0  0  0
   -6.7610   25.2020  -29.7060 Cl  0  0  0  0  0  0  0  0  0  0  0  0
   -0.2632   20.8174  -28.4899 H   0  0  0  0  0  0  0  0  0  0  0  0
   -1.5711   20.1850  -29.5463 H   0  0  0  0  0  0  0  0  0  0  0  0
   -1.1860   21.9395  -29.5463 H   0  0  0  0  0  0  0  0  0  0  0  0
   -2.4074   20.2309  -26.0061 H   0  0  0  0  0  0  0  0  0  0  0  0
   -3.4338   19.5952  -27.3362 H   0  0  0  0  0  0  0  0  0  0  0  0
   -1.6658   19.2782  -27.3362 H   0  0  0  0  0  0  0  0  0  0  0  0
   -3.9135   21.1923  -29.0979 H   0  0  0  0  0  0  0  0  0  0  0  0
   -4.1435   21.9573  -27.4508 H   0  0  0  0  0  0  0  0  0  0  0  0
   -1.6796   24.0852  -27.7169 H   0  0  0  0  0  0  0  0  0  0  0  0
   -5.7456   20.7154  -33.0034 H   0  0  0  0  0  0  0  0  0  0  0  0
   -8.0516   21.6317  -32.7782 H   0  0  0  0  0  0  0  0  0  0  0  0
   -8.4772   23.5991  -31.3086 H   0  0  0  0  0  0  0  0  0  0  0  0
  1  2  1  0
  2  3  1  0
  2  4  1  0
  4  5  1  0
  5  6  2  0
  6  7  1  0
  7  8  1  0
  8  9  2  0
  9 10  1  0
 10 11  2  0
 11 12  1  0
 11 13  1  0
 13 14  2  0
 14 15  1  0
 15 16  2  0
 16 17  1  0
  9  5  1  0
 16 10  1  0
  1 18  1  0
  1 19  1  0
  1 20  1  0
  3 21  1  0
  3 22  1  0
  3 23  1  0
  4 24  1  0
  4 25  1  0
  6 26  1  0
 13 27  1  0
 14 28  1  0
 15 29  1  0
M  CHG  1   7  -1
M  END
>  <UniqueID>  (20) 
18

>  <SMILES>  (20) 
CN(C)Cc1c[n-]nc1-c1c(Cl)cccc1Cl

>  <Energy>  (20) 
68.13579817352242

>  <Genealogy>  (20) 
CN(C)Cc1c[n-]nc1-c1c(Cl)cccc1Cl (protonated)
CN(C)Cc1c[n-]nc1-c1c(Cl)cccc1Cl (3D coordinates assigned)
CN(C)Cc1c[n-]nc1-c1c(Cl)cccc1Cl (optimized conformer: 68.13579817352242 kcal/mol)

>  <smiles>  (20) 
CN(C)Cc1c[nH]nc1-c1c(Cl)cccc1Cl

>  <score_type>  (20) 
oracle

>  <origin>  (20) 
adgpu

>  <m_score__min__energy>  (20) 
-8.5299999999999994

>  <m_primary>  (20) 
energy

$$$$
20:0
     RDKit          3D

 44 46  0  0  0  0  0  0  0  0999 V2000
   -8.4660   22.1800  -31.8200 C   0  0  0  0  0  0  0  0  0  0  0  0
   -7.1610   22.8670  -31.5110 C   0  0  0  0  0  0  0  0  0  0  0  0
   -7.1920   24.0750  -30.7930 C   0  0  0  0  0  0  0  0  0  0  0  0
   -6.0110   24.7370  -30.4600 C   0  0  0  0  0  0  0  0  0  0  0  0
   -4.7730   24.1970  -30.8100 C   0  0  0  0  0  0  0  0  0  0  0  0
   -3.5850   24.9260  -30.4700 N   0  0  0  0  0  0  0  0  0  0  0  0
   -2.6240   24.5700  -29.4650 C   0  0  0  0  0  0  0  0  0  0  0  0
   -1.8380   25.4350  -28.9950 O   0  0  0  0  0  0  0  0  0  0  0  0
   -2.5190   23.1760  -29.0210 C   0  0  0  0  0  0  0  0  0  0  0  0
   -3.1140   22.6290  -27.8890 C   0  0  0  0  0  0  0  0  0  0  0  0
   -2.8310   21.2680  -27.7190 C   0  0  0  0  0  0  0  0  0  0  0  0
   -2.0140   20.7400  -28.7110 C   0  0  0  0  0  0  0  0  0  0  0  0
   -1.6440   21.9680  -29.8000 S   0  0  0  0  0  0  0  0  0  0  0  0
   -4.7280   22.9970  -31.5370 C   0  0  0  0  0  0  0  0  0  0  0  0
   -5.9090   22.3160  -31.8830 C   0  0  0  0  0  0  0  0  0  0  0  0
   -5.7640   20.8070  -32.8110 S   0  0  0  0  0  0  0  0  0  0  0  0
   -6.8590   20.7520  -33.8410 O   0  0  0  0  0  0  0  0  0  0  0  0
   -4.4520   20.7980  -33.5450 O   0  0  0  0  0  0  0  0  0  0  0  0
   -5.8550   19.4030  -31.7630 N   0  0  0  0  0  0  0  0  0  0  0  0
   -7.2570   19.0050  -31.5020 C   0  0  0  0  0  0  0  0  0  0  0  0
   -7.9320   18.3320  -32.7130 C   0  0  0  0  0  0  0  0  0  0  0  0
   -6.9980   17.3760  -33.4740 C   0  0  0  0  0  0  0  0  0  0  0  0
   -5.7570   17.0230  -32.6590 C   0  0  0  0  0  0  0  0  0  0  0  0
   -4.9890   18.2960  -32.2630 C   0  0  0  0  0  0  0  0  0  0  0  0
   -8.9717   21.9138  -30.8801 H   0  0  0  0  0  0  0  0  0  0  0  0
   -9.1078   22.8571  -32.4027 H   0  0  0  0  0  0  0  0  0  0  0  0
   -8.2711   21.2676  -32.4027 H   0  0  0  0  0  0  0  0  0  0  0  0
   -8.1591   24.5030  -30.4904 H   0  0  0  0  0  0  0  0  0  0  0  0
   -6.0556   25.6926  -29.9170 H   0  0  0  0  0  0  0  0  0  0  0  0
   -3.7436   23.2073  -27.1968 H   0  0  0  0  0  0  0  0  0  0  0  0
   -3.2190   20.6730  -26.8791 H   0  0  0  0  0  0  0  0  0  0  0  0
   -1.6683   19.6976  -28.7737 H   0  0  0  0  0  0  0  0  0  0  0  0
   -3.7550   22.5833  -31.8405 H   0  0  0  0  0  0  0  0  0  0  0  0
   -5.4640   19.7120  -30.8430 H   0  0  0  0  0  0  0  0  0  0  0  0
   -7.2689   18.2994  -30.6582 H   0  0  0  0  0  0  0  0  0  0  0  0
   -7.8218   19.9227  -31.2809 H   0  0  0  0  0  0  0  0  0  0  0  0
   -8.8013   17.7605  -32.3556 H   0  0  0  0  0  0  0  0  0  0  0  0
   -8.2212   19.1310  -33.4115 H   0  0  0  0  0  0  0  0  0  0  0  0
   -7.5470   16.4510  -33.7043 H   0  0  0  0  0  0  0  0  0  0  0  0
   -6.6689   17.8817  -34.3938 H   0  0  0  0  0  0  0  0  0  0  0  0
   -6.0629   16.4873  -31.7482 H   0  0  0  0  0  0  0  0  0  0  0  0
   -5.0995   16.3882  -33.2711 H   0  0  0  0  0  0  0  0  0  0  0  0
   -4.2725   18.0340  -31.4706 H   0  0  0  0  0  0  0  0  0  0  0  0
   -4.4992   18.6660  -33.1758 H   0  0  0  0  0  0  0  0  0  0  0  0
  1  2  1  0
  2  3  2  0
  3  4  1  0
  4  5  2  0
  5  6  1  0
  6  7  1  0
  7  8  2  0
  7  9  1  0
  9 10  2  0
 10 11  1  0
 11 12  2  0
 12 13  1  0
  5 14  1  0
 14 15  2  0
 15 16  1  0
 16 17  2  0
 16 18  2  0
 16 19  1  0
 19 20  1  0
 20 21  1  0
 21 22  1  0
 22 23  1  0
 23 24  1  0
 15  2  1  0
 24 19  1  0
 13  9  1  0
  1 25  1  0
  1 26  1  0
  1 27  1  0
  3 28  1  0
  4 29  1  0
 10 30  1  0
 11 31  1  0
 12 32  1  0
 14 33  1  0
 19 34  1  0
 20 35  1  0
 20 36  1  0
 21 37  1  0
 21 38  1  0
 22 39  1  0
 22 40  1  0
 23 41  1  0
 23 42  1  0
 24 43  1  0
 24 44  1  0
M  CHG  2   6  -1  19   1
M  END
>  <UniqueID>  (21) 
19

>  <SMILES>  (21) 
Cc1ccc([N-]C(=O)c2cccs2)cc1S(=O)(=O)[NH+]1CCCCC1

>  <Energy>  (21) 
82.14085921701181

>  <Genealogy>  (21) 
Cc1ccc([N-]C(=O)c2cccs2)cc1S(=O)(=O)[NH+]1CCCCC1 (protonated)
Cc1ccc([N-]C(=O)c2cccs2)cc1S(=O)(=O)[NH+]1CCCCC1 (3D coordinates assigned)
Cc1ccc([N-]C(=O)c2cccs2)cc1S(=O)(=O)[NH+]1CCCCC1 (nonaromatic ring conformer: 82.14085921701181 kcal/mol)

>  <smiles>  (21) 
Cc1ccc(NC(=O)c2cccs2)cc1S(=O)(=O)N1CCCCC1

>  <score_type>  (21) 
oracle

>  <origin>  (21) 
adgpu

>  <m_score__min__energy>  (21) 
-10.25

>  <m_primary>  (21) 
energy

$$$$
21:0
     RDKit          3D

 46 48  0  0  0  0  0  0  0  0999 V2000
   -8.1920   23.3880  -31.9620 C   0  0  0  0  0  0  0  0  0  0  0  0
   -8.1620   21.8840  -31.9520 C   0  0  0  0  0  0  0  0  0  0  0  0
   -9.3280   21.1880  -32.3140 C   0  0  0  0  0  0  0  0  0  0  0  0
   -9.3510   19.7920  -32.3110 C   0  0  0  0  0  0  0  0  0  0  0  0
   -8.2120   19.0750  -31.9540 C   0  0  0  0  0  0  0  0  0  0  0  0
   -7.0400   19.7500  -31.6090 C   0  0  0  0  0  0  0  0  0  0  0  0
   -6.9940   21.1540  -31.6170 C   0  0  0  0  0  0  0  0  0  0  0  0
   -5.7610   21.8190  -31.2810 N   0  0  0  0  0  0  0  0  0  0  0  0
   -5.7670   22.9430  -30.3370 C   0  0  0  0  0  0  0  0  0  0  0  0
   -5.0030   24.1240  -30.8770 C   0  0  0  0  0  0  0  0  0  0  0  0
   -5.6120   25.0090  -31.5340 O   0  0  0  0  0  0  0  0  0  0  0  0
   -3.6400   24.3650  -30.5030 N   0  0  0  0  0  0  0  0  0  0  0  0
   -3.1640   24.5630  -29.1650 C   0  0  0  0  0  0  0  0  0  0  0  0
   -1.8200   24.8940  -28.9570 C   0  0  0  0  0  0  0  0  0  0  0  0
   -1.3280   25.0640  -27.6570 C   0  0  0  0  0  0  0  0  0  0  0  0
   -2.1750   24.8850  -26.5600 C   0  0  0  0  0  0  0  0  0  0  0  0
   -1.6980   25.0450  -25.3010 F   0  0  0  0  0  0  0  0  0  0  0  0
   -3.5110   24.5230  -26.7610 C   0  0  0  0  0  0  0  0  0  0  0  0
   -4.0020   24.3530  -28.0600 C   0  0  0  0  0  0  0  0  0  0  0  0
   -4.3570   21.5390  -32.2730 S   0  0  0  0  0  0  0  0  0  0  0  0
   -4.5150   20.2460  -33.0230 O   0  0  0  0  0  0  0  0  0  0  0  0
   -4.2300   22.6660  -33.2610 O   0  0  0  0  0  0  0  0  0  0  0  0
   -2.8960   21.4260  -31.2950 C   0  0  0  0  0  0  0  0  0  0  0  0
   -2.9830   21.1940  -29.9120 C   0  0  0  0  0  0  0  0  0  0  0  0
   -1.8200   21.1050  -29.1400 C   0  0  0  0  0  0  0  0  0  0  0  0
   -0.5680   21.2510  -29.7430 C   0  0  0  0  0  0  0  0  0  0  0  0
   -0.4760   21.5010  -31.1160 C   0  0  0  0  0  0  0  0  0  0  0  0
   -1.6370   21.5930  -31.8890 C   0  0  0  0  0  0  0  0  0  0  0  0
   -8.1995   23.7615  -30.9274 H   0  0  0  0  0  0  0  0  0  0  0  0
   -7.3013   23.7691  -32.4830 H   0  0  0  0  0  0  0  0  0  0  0  0
   -9.0972   23.7332  -32.4830 H   0  0  0  0  0  0  0  0  0  0  0  0
  -10.2300   21.7477  -32.6021 H   0  0  0  0  0  0  0  0  0  0  0  0
  -10.2707   19.2575  -32.5912 H   0  0  0  0  0  0  0  0  0  0  0  0
   -8.2359   17.9753  -31.9439 H   0  0  0  0  0  0  0  0  0  0  0  0
   -6.1439   19.1771  -31.3282 H   0  0  0  0  0  0  0  0  0  0  0  0
   -6.8076   23.2463  -30.1495 H   0  0  0  0  0  0  0  0  0  0  0  0
   -5.2804   22.6142  -29.4069 H   0  0  0  0  0  0  0  0  0  0  0  0
   -1.1475   25.0211  -29.8182 H   0  0  0  0  0  0  0  0  0  0  0  0
   -0.2745   25.3385  -27.4993 H   0  0  0  0  0  0  0  0  0  0  0  0
   -4.1757   24.3720  -25.8977 H   0  0  0  0  0  0  0  0  0  0  0  0
   -5.0490   24.0536  -28.2153 H   0  0  0  0  0  0  0  0  0  0  0  0
   -3.9680   21.0821  -29.4353 H   0  0  0  0  0  0  0  0  0  0  0  0
   -1.8910   20.9200  -28.0580 H   0  0  0  0  0  0  0  0  0  0  0  0
    0.3464   21.1692  -29.1371 H   0  0  0  0  0  0  0  0  0  0  0  0
    0.5100   21.6252  -31.5876 H   0  0  0  0  0  0  0  0  0  0  0  0
   -1.5626   21.7972  -32.9673 H   0  0  0  0  0  0  0  0  0  0  0  0
  1  2  1  0
  2  3  2  0
  3  4  1  0
  4  5  2  0
  5  6  1  0
  6  7  2  0
  7  8  1  0
  8  9  1  0
  9 10  1  0
 10 11  2  0
 10 12  1  0
 12 13  1  0
 13 14  2  0
 14 15  1  0
 15 16  2  0
 16 17  1  0
 16 18  1  0
 18 19  2  0
  8 20  1  0
 20 21  2  0
 20 22  2  0
 20 23  1  0
 23 24  2  0
 24 25  1  0
 25 26  2  0
 26 27  1  0
 27 28  2  0
  7  2  1  0
 19 13  1  0
 28 23  1  0
  1 29  1  0
  1 30  1  0
  1 31  1  0
  3 32  1  0
  4 33  1  0
  5 34  1  0
  6 35  1  0
  9 36  1  0
  9 37  1  0
 14 38  1  0
 15 39  1  0
 18 40  1  0
 19 41  1  0
 24 42  1  0
 25 43  1  0
 26 44  1  0
 27 45  1  0
 28 46  1  0
M  CHG  1  12  -1
M  END
>  <UniqueID>  (22) 
20

>  <SMILES>  (22) 
Cc1ccccc1N(CC(=O)[N-]c1ccc(F)cc1)S(=O)(=O)c1ccccc1

>  <Energy>  (22) 
58.38539235095126

>  <Genealogy>  (22) 
Cc1ccccc1N(CC(=O)[N-]c1ccc(F)cc1)S(=O)(=O)c1ccccc1 (protonated)
Cc1ccccc1N(CC(=O)[N-]c1ccc(F)cc1)S(=O)(=O)c1ccccc1 (3D coordinates assigned)
Cc1ccccc1N(CC(=O)[N-]c1ccc(F)cc1)S(=O)(=O)c1ccccc1 (optimized conformer: 58.38539235095126 kcal/mol)

>  <smiles>  (22) 
Cc1ccccc1N(CC(=O)Nc1ccc(F)cc1)S(=O)(=O)c1ccccc1

>  <score_type>  (22) 
oracle

>  <origin>  (22) 
adgpu

>  <m_score__min__energy>  (22) 
-10.27

>  <m_primary>  (22) 
energy

$$$$
22:0
     RDKit          3D

 44 46  0  0  0  0  0  0  0  0999 V2000
   -5.2980   25.7510  -30.4300 C   0  0  0  0  0  0  0  0  0  0  0  0
   -3.9610   25.2630  -30.4580 O   0  0  0  0  0  0  0  0  0  0  0  0
   -3.6090   23.9040  -30.4850 C   0  0  0  0  0  0  0  0  0  0  0  0
   -4.0350   23.0420  -31.5150 C   0  0  0  0  0  0  0  0  0  0  0  0
   -3.6530   21.6990  -31.5150 C   0  0  0  0  0  0  0  0  0  0  0  0
   -2.8440   21.2000  -30.4930 C   0  0  0  0  0  0  0  0  0  0  0  0
   -2.4160   22.0420  -29.4640 C   0  0  0  0  0  0  0  0  0  0  0  0
   -1.6410   21.5400  -28.4700 F   0  0  0  0  0  0  0  0  0  0  0  0
   -2.8000   23.3940  -29.4500 C   0  0  0  0  0  0  0  0  0  0  0  0
   -2.3550   24.2550  -28.3860 N   0  0  0  0  0  0  0  0  0  0  0  0
   -1.1420   24.8740  -28.5030 C   0  0  0  0  0  0  0  0  0  0  0  0
   -0.6760   25.7220  -27.4980 C   0  0  0  0  0  0  0  0  0  0  0  0
   -1.4580   25.9460  -26.3580 C   0  0  0  0  0  0  0  0  0  0  0  0
   -0.9860   26.8060  -25.3030 N   0  0  0  0  0  0  0  0  0  0  0  0
   -0.3430   28.0900  -25.5970 C   0  0  0  0  0  0  0  0  0  0  0  0
    1.0450   28.1630  -24.9310 C   0  0  0  0  0  0  0  0  0  0  0  0
    1.1530   27.3770  -23.6690 N   0  0  0  0  0  0  0  0  0  0  0  0
    1.8520   26.0940  -23.8900 C   0  0  0  0  0  0  0  0  0  0  0  0
   -0.1540   27.1750  -23.0030 C   0  0  0  0  0  0  0  0  0  0  0  0
   -1.1440   26.4100  -23.8990 C   0  0  0  0  0  0  0  0  0  0  0  0
   -2.6920   25.2920  -26.2460 C   0  0  0  0  0  0  0  0  0  0  0  0
   -3.1290   24.4470  -27.2710 C   0  0  0  0  0  0  0  0  0  0  0  0
   -4.2410   23.8610  -27.1520 O   0  0  0  0  0  0  0  0  0  0  0  0
   -5.6232   25.8697  -29.3859 H   0  0  0  0  0  0  0  0  0  0  0  0
   -5.3440   26.7239  -30.9412 H   0  0  0  0  0  0  0  0  0  0  0  0
   -5.9599   25.0365  -30.9412 H   0  0  0  0  0  0  0  0  0  0  0  0
   -4.6722   23.4293  -32.3237 H   0  0  0  0  0  0  0  0  0  0  0  0
   -3.9905   21.0326  -32.3225 H   0  0  0  0  0  0  0  0  0  0  0  0
   -2.5430   20.1420  -30.4979 H   0  0  0  0  0  0  0  0  0  0  0  0
   -0.5270   24.7018  -29.3986 H   0  0  0  0  0  0  0  0  0  0  0  0
    0.3028   26.2133  -27.6007 H   0  0  0  0  0  0  0  0  0  0  0  0
   -0.2282   28.1966  -26.6858 H   0  0  0  0  0  0  0  0  0  0  0  0
   -0.9710   28.9016  -25.2009 H   0  0  0  0  0  0  0  0  0  0  0  0
    1.7909   27.7793  -25.6426 H   0  0  0  0  0  0  0  0  0  0  0  0
    1.2162   29.2167  -24.6658 H   0  0  0  0  0  0  0  0  0  0  0  0
    1.7500   27.9270  -23.0040 H   0  0  0  0  0  0  0  0  0  0  0  0
    2.0997   25.6394  -22.9194 H   0  0  0  0  0  0  0  0  0  0  0  0
    1.1997   25.4140  -24.4576 H   0  0  0  0  0  0  0  0  0  0  0  0
    2.7770   26.2734  -24.4576 H   0  0  0  0  0  0  0  0  0  0  0  0
    0.0036   26.6019  -22.0774 H   0  0  0  0  0  0  0  0  0  0  0  0
   -0.5835   28.1648  -22.7890 H   0  0  0  0  0  0  0  0  0  0  0  0
   -0.9559   25.3303  -23.8051 H   0  0  0  0  0  0  0  0  0  0  0  0
   -2.1686   26.6484  -23.5776 H   0  0  0  0  0  0  0  0  0  0  0  0
   -3.3163   25.4430  -25.3530 H   0  0  0  0  0  0  0  0  0  0  0  0
  1  2  1  0
  2  3  1  0
  3  4  2  0
  4  5  1  0
  5  6  2  0
  6  7  1  0
  7  8  1  0
  7  9  2  0
  9 10  1  0
 10 11  1  0
 11 12  2  0
 12 13  1  0
 13 14  1  0
 14 15  1  0
 15 16  1  0
 16 17  1  0
 17 18  1  0
 17 19  1  0
 19 20  1  0
 13 21  2  0
 21 22  1  0
 22 23  2  0
  9  3  1  0
 22 10  1  0
 20 14  1  0
  1 24  1  0
  1 25  1  0
  1 26  1  0
  4 27  1  0
  5 28  1  0
  6 29  1  0
 11 30  1  0
 12 31  1  0
 15 32  1  0
 15 33  1  0
 16 34  1  0
 16 35  1  0
 17 36  1  0
 18 37  1  0
 18 38  1  0
 18 39  1  0
 19 40  1  0
 19 41  1  0
 20 42  1  0
 20 43  1  0
 21 44  1  0
M  CHG  1  17   1
M  END
>  <UniqueID>  (23) 
21

>  <SMILES>  (23) 
COc1cccc(F)c1-n1ccc(N2CC[NH+](C)CC2)cc1=O

>  <Energy>  (23) 
65.63140682527202

>  <Genealogy>  (23) 
COc1cccc(F)c1-n1ccc(N2CC[NH+](C)CC2)cc1=O (protonated)
COc1cccc(F)c1-n1ccc(N2CC[NH+](C)CC2)cc1=O (3D coordinates assigned)
COc1cccc(F)c1-n1ccc(N2CC[NH+](C)CC2)cc1=O (nonaromatic ring conformer: 65.63140682527202 kcal/mol)

>  <smiles>  (23) 
COc1cccc(F)c1-n1ccc(N2CCN(C)CC2)cc1=O

>  <score_type>  (23) 
oracle

>  <origin>  (23) 
adgpu

>  <m_score__min__energy>  (23) 
-7.1799999999999997

>  <m_primary>  (23) 
energy

$$$$
23:0
     RDKit          3D

 38 39  0  0  0  0  0  0  0  0999 V2000
   -6.7880   17.0430  -32.8610 C   0  0  0  0  0  0  0  0  0  0  0  0
   -6.4370   17.3060  -34.1890 C   0  0  0  0  0  0  0  0  0  0  0  0
   -5.4640   18.2660  -34.4790 C   0  0  0  0  0  0  0  0  0  0  0  0
   -4.8250   18.9630  -33.4400 C   0  0  0  0  0  0  0  0  0  0  0  0
   -3.7980   20.0190  -33.7570 C   0  0  0  0  0  0  0  0  0  0  0  0
   -4.3030   21.3550  -33.3980 N   0  0  0  0  0  0  0  0  0  0  0  0
   -3.5940   21.9400  -32.2430 C   0  0  0  0  0  0  0  0  0  0  0  0
   -4.4060   23.0220  -31.5130 C   0  0  0  0  0  0  0  0  0  0  0  0
   -5.5380   23.4630  -32.3410 N   0  0  0  0  0  0  0  0  0  0  0  0
   -6.7900   23.4840  -31.5730 C   0  0  0  0  0  0  0  0  0  0  0  0
   -7.6590   22.3270  -31.9730 C   0  0  0  0  0  0  0  0  0  0  0  0
   -9.0020   22.2720  -31.5710 C   0  0  0  0  0  0  0  0  0  0  0  0
   -9.7760   21.1640  -31.9190 C   0  0  0  0  0  0  0  0  0  0  0  0
   -9.2070   20.1230  -32.6560 C   0  0  0  0  0  0  0  0  0  0  0  0
   -7.8660   20.2100  -33.0360 C   0  0  0  0  0  0  0  0  0  0  0  0
   -7.1280   21.2980  -32.6890 N   0  0  0  0  0  0  0  0  0  0  0  0
   -5.1950   18.7060  -32.1100 C   0  0  0  0  0  0  0  0  0  0  0  0
   -6.1690   17.7450  -31.8230 C   0  0  0  0  0  0  0  0  0  0  0  0
   -7.5509   16.2839  -32.6335 H   0  0  0  0  0  0  0  0  0  0  0  0
   -6.9274   16.7565  -35.0061 H   0  0  0  0  0  0  0  0  0  0  0  0
   -5.1973   18.4769  -35.5251 H   0  0  0  0  0  0  0  0  0  0  0  0
   -2.8801   19.8138  -33.1866 H   0  0  0  0  0  0  0  0  0  0  0  0
   -3.5871   19.9970  -34.8364 H   0  0  0  0  0  0  0  0  0  0  0  0
   -4.2330   21.9950  -34.2230 H   0  0  0  0  0  0  0  0  0  0  0  0
   -5.3140   21.2750  -33.1380 H   0  0  0  0  0  0  0  0  0  0  0  0
   -3.3656   21.1345  -31.5295 H   0  0  0  0  0  0  0  0  0  0  0  0
   -2.6844   22.4223  -32.6303 H   0  0  0  0  0  0  0  0  0  0  0  0
   -4.7881   22.6111  -30.5668 H   0  0  0  0  0  0  0  0  0  0  0  0
   -3.7525   23.8845  -31.3156 H   0  0  0  0  0  0  0  0  0  0  0  0
   -5.6490   22.7770  -33.1230 H   0  0  0  0  0  0  0  0  0  0  0  0
   -6.5599   23.4124  -30.4997 H   0  0  0  0  0  0  0  0  0  0  0  0
   -7.3235   24.4236  -31.7791 H   0  0  0  0  0  0  0  0  0  0  0  0
   -9.4408   23.0944  -30.9870 H   0  0  0  0  0  0  0  0  0  0  0  0
  -10.8314   21.1108  -31.6136 H   0  0  0  0  0  0  0  0  0  0  0  0
   -9.8082   19.2447  -32.9339 H   0  0  0  0  0  0  0  0  0  0  0  0
   -7.4060   19.3970  -33.6170 H   0  0  0  0  0  0  0  0  0  0  0  0
   -4.7167   19.2629  -31.2908 H   0  0  0  0  0  0  0  0  0  0  0  0
   -6.4485   17.5411  -30.7788 H   0  0  0  0  0  0  0  0  0  0  0  0
  1  2  2  0
  2  3  1  0
  3  4  2  0
  4  5  1  0
  5  6  1  0
  6  7  1  0
  7  8  1  0
  8  9  1  0
  9 10  1  0
 10 11  1  0
 11 12  2  0
 12 13  1  0
 13 14  2  0
 14 15  1  0
 15 16  2  0
  4 17  1  0
 17 18  2  0
 18  1  1  0
 16 11  1  0
  1 19  1  0
  2 20  1  0
  3 21  1  0
  5 22  1  0
  5 23  1  0
  6 24  1  0
  6 25  1  0
  7 26  1  0
  7 27  1  0
  8 28  1  0
  8 29  1  0
  9 30  1  0
 10 31  1  0
 10 32  1  0
 12 33  1  0
 13 34  1  0
 14 35  1  0
 15 36  1  0
 17 37  1  0
 18 38  1  0
M  CHG  1   6   1
M  END
>  <UniqueID>  (24) 
22

>  <SMILES>  (24) 
c1ccc(C[NH2+]CCNCc2ccccn2)cc1

>  <Energy>  (24) 
33.63576801414341

>  <Genealogy>  (24) 
c1ccc(C[NH2+]CCNCc2ccccn2)cc1 (protonated)
c1ccc(C[NH2+]CCNCc2ccccn2)cc1 (3D coordinates assigned)
c1ccc(C[NH2+]CCNCc2ccccn2)cc1 (optimized conformer: 33.63576801414341 kcal/mol)

>  <smiles>  (24) 
c1ccc(CNCCNCc2ccccn2)cc1

>  <score_type>  (24) 
oracle

>  <origin>  (24) 
adgpu

>  <m_score__min__energy>  (24) 
-5.75

>  <m_primary>  (24) 
energy

$$$$
24:0
     RDKit          3D

 36 38  0  0  0  0  0  0  0  0999 V2000
   -1.2140   25.8630  -26.2380 C   0  0  0  0  0  0  0  0  0  0  0  0
   -2.4770   25.3030  -26.0290 C   0  0  0  0  0  0  0  0  0  0  0  0
   -3.1900   24.7660  -27.1050 C   0  0  0  0  0  0  0  0  0  0  0  0
   -2.6370   24.7700  -28.3970 C   0  0  0  0  0  0  0  0  0  0  0  0
   -3.3810   24.1350  -29.5440 C   0  0  0  0  0  0  0  0  0  0  0  0
   -3.8590   25.1490  -30.5000 N   0  0  0  0  0  0  0  0  0  0  0  0
   -5.3270   25.1720  -30.6180 C   0  0  0  0  0  0  0  0  0  0  0  0
   -5.8410   23.8580  -31.1440 C   0  0  0  0  0  0  0  0  0  0  0  0
   -4.9970   23.0280  -31.8970 C   0  0  0  0  0  0  0  0  0  0  0  0
   -5.4860   21.8520  -32.4720 C   0  0  0  0  0  0  0  0  0  0  0  0
   -6.8300   21.4920  -32.3020 C   0  0  0  0  0  0  0  0  0  0  0  0
   -7.3410   20.3300  -32.9010 C   0  0  0  0  0  0  0  0  0  0  0  0
   -8.6860   19.9890  -32.7340 C   0  0  0  0  0  0  0  0  0  0  0  0
   -9.5290   20.8010  -31.9720 C   0  0  0  0  0  0  0  0  0  0  0  0
   -9.0320   21.9590  -31.3680 C   0  0  0  0  0  0  0  0  0  0  0  0
   -7.6830   22.3140  -31.5270 C   0  0  0  0  0  0  0  0  0  0  0  0
   -7.1790   23.4840  -30.9420 C   0  0  0  0  0  0  0  0  0  0  0  0
   -1.3760   25.3570  -28.6010 C   0  0  0  0  0  0  0  0  0  0  0  0
   -0.6670   25.8950  -27.5230 C   0  0  0  0  0  0  0  0  0  0  0  0
   -0.6501   26.2789  -25.3901 H   0  0  0  0  0  0  0  0  0  0  0  0
   -2.9102   25.2847  -25.0181 H   0  0  0  0  0  0  0  0  0  0  0  0
   -4.1896   24.3379  -26.9394 H   0  0  0  0  0  0  0  0  0  0  0  0
   -2.7077   23.4395  -30.0664 H   0  0  0  0  0  0  0  0  0  0  0  0
   -4.2536   23.6019  -29.1386 H   0  0  0  0  0  0  0  0  0  0  0  0
   -3.4770   24.8890  -31.4400 H   0  0  0  0  0  0  0  0  0  0  0  0
   -5.7657   25.3604  -29.6270 H   0  0  0  0  0  0  0  0  0  0  0  0
   -5.6122   25.9691  -31.3203 H   0  0  0  0  0  0  0  0  0  0  0  0
   -3.9416   23.3052  -32.0359 H   0  0  0  0  0  0  0  0  0  0  0  0
   -4.8151   21.2077  -33.0591 H   0  0  0  0  0  0  0  0  0  0  0  0
   -6.6819   19.6869  -33.5027 H   0  0  0  0  0  0  0  0  0  0  0  0
   -9.0824   19.0772  -33.2047 H   0  0  0  0  0  0  0  0  0  0  0  0
  -10.5873   20.5282  -31.8469 H   0  0  0  0  0  0  0  0  0  0  0  0
   -9.6993   22.5939  -30.7666 H   0  0  0  0  0  0  0  0  0  0  0  0
   -7.8351   24.1122  -30.3216 H   0  0  0  0  0  0  0  0  0  0  0  0
   -0.9456   25.3931  -29.6127 H   0  0  0  0  0  0  0  0  0  0  0  0
    0.3235   26.3444  -27.6869 H   0  0  0  0  0  0  0  0  0  0  0  0
  1  2  2  0
  2  3  1  0
  3  4  2  0
  4  5  1  0
  5  6  1  0
  6  7  1  0
  7  8  1  0
  8  9  2  0
  9 10  1  0
 10 11  2  0
 11 12  1  0
 12 13  2  0
 13 14  1  0
 14 15  2  0
 15 16  1  0
 16 17  2  0
  4 18  1  0
 18 19  2  0
 19  1  1  0
 17  8  1  0
 16 11  1  0
  1 20  1  0
  2 21  1  0
  3 22  1  0
  5 23  1  0
  5 24  1  0
  6 25  1  0
  7 26  1  0
  7 27  1  0
  9 28  1  0
 10 29  1  0
 12 30  1  0
 13 31  1  0
 14 32  1  0
 15 33  1  0
 17 34  1  0
 18 35  1  0
 19 36  1  0
M  END
>  <UniqueID>  (25) 
23

>  <SMILES>  (25) 
c1ccc(CNCc2ccc3ccccc3c2)cc1

>  <Energy>  (25) 
37.57036638960295

>  <Genealogy>  (25) 
c1ccc(CNCc2ccc3ccccc3c2)cc1 (3D coordinates assigned)
c1ccc(CNCc2ccc3ccccc3c2)cc1 (optimized conformer: 37.57036638960295 kcal/mol)

>  <smiles>  (25) 
c1ccc(CNCc2ccc3ccccc3c2)cc1

>  <score_type>  (25) 
oracle

>  <origin>  (25) 
adgpu

>  <m_score__min__energy>  (25) 
-8.7100000000000009

>  <m_primary>  (25) 
energy

$$$$
25:0
     RDKit          3D

 34 36  0  0  0  0  0  0  0  0999 V2000
   -7.6288   18.9844  -33.3249 H   0  0  0  0  0  0  0  0  0  0  0  0
   -6.6050   19.3050  -33.0820 C   0  0  0  0  0  0  0  0  0  0  0  0
   -5.9950   20.3430  -33.6040 O   0  0  0  0  0  0  0  0  0  0  0  0
   -4.7930   20.4270  -33.0810 C   0  0  0  0  0  0  0  0  0  0  0  0
   -3.7980   21.4840  -33.4420 C   0  0  0  0  0  0  0  0  0  0  0  0
   -4.2991   22.2608  -34.0382 H   0  0  0  0  0  0  0  0  0  0  0  0
   -2.9862   21.0178  -34.0196 H   0  0  0  0  0  0  0  0  0  0  0  0
   -3.2240   22.0970  -32.2430 N   0  0  0  0  0  0  0  0  0  0  0  0
   -3.8800   22.6820  -31.2790 C   0  0  0  0  0  0  0  0  0  0  0  0
   -5.3540   22.8150  -31.3220 C   0  0  0  0  0  0  0  0  0  0  0  0
   -6.1480   22.3290  -30.2720 C   0  0  0  0  0  0  0  0  0  0  0  0
   -5.6747   21.8403  -29.4076 H   0  0  0  0  0  0  0  0  0  0  0  0
   -7.5390   22.4640  -30.3210 C   0  0  0  0  0  0  0  0  0  0  0  0
   -8.1587   22.0737  -29.5003 H   0  0  0  0  0  0  0  0  0  0  0  0
   -8.1420   23.0950  -31.4130 C   0  0  0  0  0  0  0  0  0  0  0  0
   -9.2365   23.1973  -31.4531 H   0  0  0  0  0  0  0  0  0  0  0  0
   -7.3550   23.5960  -32.4540 C   0  0  0  0  0  0  0  0  0  0  0  0
   -7.8305   24.0969  -33.3102 H   0  0  0  0  0  0  0  0  0  0  0  0
   -5.9630   23.4610  -32.4080 C   0  0  0  0  0  0  0  0  0  0  0  0
   -5.3452   23.8622  -33.2249 H   0  0  0  0  0  0  0  0  0  0  0  0
   -3.1150   23.3320  -30.1780 C   0  0  0  0  0  0  0  0  0  0  0  0
   -3.1170   24.7310  -30.0080 C   0  0  0  0  0  0  0  0  0  0  0  0
   -3.8620   25.5530  -30.8470 O   0  0  0  0  0  0  0  0  0  0  0  0
   -2.4010   25.2970  -28.9990 N   0  0  0  0  0  0  0  0  0  0  0  0
   -2.4120   26.3370  -28.8850 H   0  0  0  0  0  0  0  0  0  0  0  0
   -1.6830   24.5340  -28.1350 C   0  0  0  0  0  0  0  0  0  0  0  0
   -1.0300   25.0750  -27.2040 O   0  0  0  0  0  0  0  0  0  0  0  0
   -1.6670   23.1860  -28.2730 N   0  0  0  0  0  0  0  0  0  0  0  0
   -2.3580   22.5690  -29.2650 C   0  0  0  0  0  0  0  0  0  0  0  0
   -2.2970   21.3140  -29.3630 O   0  0  0  0  0  0  0  0  0  0  0  0
   -4.5930   19.3970  -32.1830 C   0  0  0  0  0  0  0  0  0  0  0  0
   -3.6870   19.1946  -31.5929 H   0  0  0  0  0  0  0  0  0  0  0  0
   -5.7680   18.6760  -32.1820 C   0  0  0  0  0  0  0  0  0  0  0  0
   -5.9933   17.7802  -31.5846 H   0  0  0  0  0  0  0  0  0  0  0  0
  1  2  1  0
  2  3  1  0
  3  4  1  0
  4  5  1  0
  5  6  1  0
  5  7  1  0
  5  8  1  0
  8  9  2  0
  9 10  1  0
 10 11  2  0
 11 12  1  0
 11 13  1  0
 13 14  1  0
 13 15  2  0
 15 16  1  0
 15 17  1  0
 17 18  1  0
 17 19  2  0
 19 20  1  0
  9 21  1  0
 21 22  2  0
 22 23  1  0
 22 24  1  0
 24 25  1  0
 24 26  1  0
 26 27  2  0
 26 28  1  0
 28 29  1  0
 29 30  2  0
  4 31  2  0
 31 32  1  0
 31 33  1  0
 33 34  1  0
 33  2  2  0
 19 10  1  0
 29 21  1  0
M  CHG  2  23  -1  28  -1
M  END
>  <UniqueID>  (26) 
24

>  <SMILES>  (26) 
O=c1[n-]c(=O)c(/C(=N/Cc2ccco2)c2ccccc2)c([O-])[nH]1

>  <Energy>  (26) 
75.09742971200663

>  <Genealogy>  (26) 
O=c1[n-]c(=O)c(C(=NCc2ccco2)c2ccccc2)c([O-])[nH]1 (protonated)
O=c1[n-]c(=O)c(/C(=N/Cc2ccco2)c2ccccc2)c([O-])[nH]1 (cis-trans isomerization)
O=c1[n-]c(=O)c(/C(=N/Cc2ccco2)c2ccccc2)c([O-])[nH]1 (3D coordinates assigned)
O=c1[n-]c(=O)c(/C(=N/Cc2ccco2)c2ccccc2)c([O-])[nH]1 (optimized conformer: 75.09742971200663 kcal/mol)

>  <smiles>  (26) 
O=c1[nH]c(O)c(C(=NCc2ccco2)c2ccccc2)c(=O)[nH]1

>  <score_type>  (26) 
oracle

>  <origin>  (26) 
adgpu

>  <m_score__min__energy>  (26) 
-10.92

>  <m_primary>  (26) 
energy

$$$$
26:0
     RDKit          3D

 31 33  0  0  0  0  0  0  0  0999 V2000
    0.3376   25.5473  -28.5582 H   0  0  0  0  0  0  0  0  0  0  0  0
   -0.5490   24.8990  -28.6190 C   0  0  0  0  0  0  0  0  0  0  0  0
   -1.6330   25.2990  -29.3320 N   0  0  0  0  0  0  0  0  0  0  0  0
   -2.7560   24.5360  -29.4470 C   0  0  0  0  0  0  0  0  0  0  0  0
   -3.7480   25.0060  -30.1510 N   0  0  0  0  0  0  0  0  0  0  0  0
   -4.9870   24.3710  -30.5030 C   0  0  0  0  0  0  0  0  0  0  0  0
   -5.0880   23.1400  -31.0490 N   0  0  0  0  0  0  0  0  0  0  0  0
   -6.3700   22.8300  -31.3890 C   0  0  0  0  0  0  0  0  0  0  0  0
   -6.7120   21.5090  -31.9780 C   0  0  0  0  0  0  0  0  0  0  0  0
   -8.0090   20.9700  -31.8720 C   0  0  0  0  0  0  0  0  0  0  0  0
   -8.7955   21.5367  -31.3521 H   0  0  0  0  0  0  0  0  0  0  0  0
   -8.3030   19.7200  -32.4230 C   0  0  0  0  0  0  0  0  0  0  0  0
   -9.3167   19.3039  -32.3268 H   0  0  0  0  0  0  0  0  0  0  0  0
   -7.3160   18.9970  -33.0950 C   0  0  0  0  0  0  0  0  0  0  0  0
   -7.5514   18.0060  -33.5102 H   0  0  0  0  0  0  0  0  0  0  0  0
   -6.0250   19.5270  -33.2440 C   0  0  0  0  0  0  0  0  0  0  0  0
   -4.9440   18.7280  -33.9290 C   0  0  0  0  0  0  0  0  0  0  0  0
   -4.6550   17.6110  -33.1680 F   0  0  0  0  0  0  0  0  0  0  0  0
   -5.3540   18.3250  -35.1870 F   0  0  0  0  0  0  0  0  0  0  0  0
   -3.7940   19.4860  -34.0710 F   0  0  0  0  0  0  0  0  0  0  0  0
   -5.7270   20.7740  -32.6640 C   0  0  0  0  0  0  0  0  0  0  0  0
   -4.7084   21.1807  -32.7481 H   0  0  0  0  0  0  0  0  0  0  0  0
   -7.2960   23.8470  -31.1300 C   0  0  0  0  0  0  0  0  0  0  0  0
   -8.3774   23.8003  -31.3261 H   0  0  0  0  0  0  0  0  0  0  0  0
   -6.4690   25.1530  -30.4670 S   0  0  0  0  0  0  0  0  0  0  0  0
   -2.8040   23.2930  -28.7760 C   0  0  0  0  0  0  0  0  0  0  0  0
   -3.7073   22.6678  -28.8317 H   0  0  0  0  0  0  0  0  0  0  0  0
   -1.6950   22.8640  -28.0410 C   0  0  0  0  0  0  0  0  0  0  0  0
   -1.7440   21.1860  -27.1290 Br  0  0  0  0  0  0  0  0  0  0  0  0
   -0.5570   23.6690  -27.9640 C   0  0  0  0  0  0  0  0  0  0  0  0
    0.3226   23.3364  -27.3933 H   0  0  0  0  0  0  0  0  0  0  0  0
  1  2  1  0
  2  3  1  0
  3  4  1  0
  4  5  2  0
  5  6  1  0
  6  7  2  0
  7  8  1  0
  8  9  1  0
  9 10  2  0
 10 11  1  0
 10 12  1  0
 12 13  1  0
 12 14  2  0
 14 15  1  0
 14 16  1  0
 16 17  1  0
 17 18  1  0
 17 19  1  0
 17 20  1  0
 16 21  2  0
 21 22  1  0
  8 23  2  0
 23 24  1  0
 23 25  1  0
  4 26  1  0
 26 27  1  0
 26 28  2  0
 28 29  1  0
 28 30  1  0
 30 31  1  0
 30  2  2  0
 25  6  1  0
 21  9  1  0
M  CHG  1   3  -1
M  END
>  <UniqueID>  (27) 
25

>  <SMILES>  (27) 
FC(F)(F)c1cccc(-c2csc(/N=c3\cc(Br)cc[n-]3)n2)c1

>  <Energy>  (27) 
73.95667019512479

>  <Genealogy>  (27) 
FC(F)(F)c1cccc(-c2csc(N=c3cc(Br)cc[n-]3)n2)c1 (protonated)
FC(F)(F)c1cccc(-c2csc(/N=c3\cc(Br)cc[n-]3)n2)c1 (cis-trans isomerization)
FC(F)(F)c1cccc(-c2csc(/N=c3\cc(Br)cc[n-]3)n2)c1 (3D coordinates assigned)
FC(F)(F)c1cccc(-c2csc(/N=c3\cc(Br)cc[n-]3)n2)c1 (optimized conformer: 73.95667019512479 kcal/mol)

>  <smiles>  (27) 
FC(F)(F)c1cccc(-c2csc(N=c3cc(Br)cc[nH]3)n2)c1

>  <score_type>  (27) 
oracle

>  <origin>  (27) 
adgpu

>  <m_score__min__energy>  (27) 
-10.26

>  <m_primary>  (27) 
energy

$$$$
27:0
     RDKit          3D

 31 32  0  0  0  0  0  0  0  0999 V2000
   -2.6760   23.6280  -28.8870 O   0  0  0  0  0  0  0  0  0  0  0  0
   -2.6960   24.8170  -29.3040 C   0  0  0  0  0  0  0  0  0  0  0  0
   -1.6000   25.6770  -28.9670 N   0  0  0  0  0  0  0  0  0  0  0  0
   -1.1950   26.0630  -27.6180 C   0  0  0  0  0  0  0  0  0  0  0  0
    0.0230   25.2440  -27.1570 C   0  0  1  0  0  0  0  0  0  0  0  0
   -0.3520   24.2620  -26.0530 C   0  0  0  0  0  0  0  0  0  0  0  0
   -0.4630   22.9580  -26.7780 C   0  0  0  0  0  0  0  0  0  0  0  0
    0.4620   23.1520  -27.9580 C   0  0  0  0  0  0  0  0  0  0  0  0
    0.5700   24.5280  -28.2440 O   0  0  0  0  0  0  0  0  0  0  0  0
   -3.8100   25.2870  -30.0830 N   0  0  0  0  0  0  0  0  0  0  0  0
   -4.8700   24.4300  -30.5340 C   0  0  0  0  0  0  0  0  0  0  0  0
   -4.5520   23.2560  -31.2330 C   0  0  0  0  0  0  0  0  0  0  0  0
   -5.5630   22.3960  -31.6710 C   0  0  0  0  0  0  0  0  0  0  0  0
   -6.9020   22.6950  -31.4000 C   0  0  0  0  0  0  0  0  0  0  0  0
   -8.1710   21.6140  -31.9460 Cl  0  0  0  0  0  0  0  0  0  0  0  0
   -7.2270   23.8490  -30.6810 C   0  0  0  0  0  0  0  0  0  0  0  0
   -6.2190   24.7130  -30.2410 C   0  0  0  0  0  0  0  0  0  0  0  0
   -6.5540   25.7930  -29.4910 F   0  0  0  0  0  0  0  0  0  0  0  0
   -0.9341   27.1316  -27.6118 H   0  0  0  0  0  0  0  0  0  0  0  0
   -2.0310   25.8686  -26.9301 H   0  0  0  0  0  0  0  0  0  0  0  0
    0.7667   25.9518  -26.7621 H   0  0  0  0  0  0  0  0  0  0  0  0
    0.4305   24.2187  -25.2811 H   0  0  0  0  0  0  0  0  0  0  0  0
   -1.2748   24.5407  -25.5231 H   0  0  0  0  0  0  0  0  0  0  0  0
   -0.1283   22.1229  -26.1451 H   0  0  0  0  0  0  0  0  0  0  0  0
   -1.4938   22.7074  -27.0689 H   0  0  0  0  0  0  0  0  0  0  0  0
    1.4560   22.7479  -27.7160 H   0  0  0  0  0  0  0  0  0  0  0  0
    0.0573   22.6242  -28.8341 H   0  0  0  0  0  0  0  0  0  0  0  0
   -3.9450   26.3130  -30.2160 H   0  0  0  0  0  0  0  0  0  0  0  0
   -3.4995   23.0105  -31.4378 H   0  0  0  0  0  0  0  0  0  0  0  0
   -5.3054   21.4837  -32.2290 H   0  0  0  0  0  0  0  0  0  0  0  0
   -8.2799   24.0785  -30.4604 H   0  0  0  0  0  0  0  0  0  0  0  0
  1  2  2  0
  2  3  1  0
  3  4  1  0
  4  5  1  0
  5  6  1  0
  6  7  1  0
  7  8  1  0
  8  9  1  0
  2 10  1  0
 10 11  1  0
 11 12  2  0
 12 13  1  0
 13 14  2  0
 14 15  1  0
 14 16  1  0
 16 17  2  0
 17 18  1  0
  9  5  1  0
 17 11  1  0
  4 19  1  0
  4 20  1  0
  5 21  1  1
  6 22  1  0
  6 23  1  0
  7 24  1  0
  7 25  1  0
  8 26  1  0
  8 27  1  0
 10 28  1  0
 12 29  1  0
 13 30  1  0
 16 31  1  0
M  CHG  1   3  -1
M  END
>  <UniqueID>  (28) 
26

>  <SMILES>  (28) 
O=C([N-]C[C@H]1CCCO1)Nc1ccc(Cl)cc1F

>  <Energy>  (28) 
32.299961410677916

>  <Genealogy>  (28) 
O=C([N-]CC1CCCO1)Nc1ccc(Cl)cc1F (protonated)
O=C([N-]C[C@H]1CCCO1)Nc1ccc(Cl)cc1F (chirality)
O=C([N-]C[C@H]1CCCO1)Nc1ccc(Cl)cc1F (3D coordinates assigned)
O=C([N-]C[C@H]1CCCO1)Nc1ccc(Cl)cc1F (nonaromatic ring conformer: 32.299961410677916 kcal/mol)

>  <smiles>  (28) 
O=C(NCC1CCCO1)Nc1ccc(Cl)cc1F

>  <score_type>  (28) 
oracle

>  <origin>  (28) 
adgpu

>  <m_score__min__energy>  (28) 
-8.2899999999999991

>  <m_primary>  (28) 
energy

$$$$
28:0
     RDKit          3D

 33 35  0  0  0  0  0  0  0  0999 V2000
   -5.6636   25.1033  -32.0765 H   0  0  0  0  0  0  0  0  0  0  0  0
   -6.1530   24.1830  -31.7250 C   0  0  0  0  0  0  0  0  0  0  0  0
   -6.0440   23.8650  -30.2820 C   0  0  0  0  0  0  0  0  0  0  0  0
   -7.1080   23.7210  -29.6250 O   0  0  0  0  0  0  0  0  0  0  0  0
   -4.7450   23.7590  -29.5800 C   0  0  0  0  0  0  0  0  0  0  0  0
   -4.5430   22.7550  -28.6170 C   0  0  0  0  0  0  0  0  0  0  0  0
   -5.3459   22.0341  -28.4032 H   0  0  0  0  0  0  0  0  0  0  0  0
   -3.3290   22.6660  -27.9290 C   0  0  0  0  0  0  0  0  0  0  0  0
   -3.1830   21.8826  -27.1707 H   0  0  0  0  0  0  0  0  0  0  0  0
   -2.3020   23.5710  -28.2040 C   0  0  0  0  0  0  0  0  0  0  0  0
   -1.3493   23.5033  -27.6583 H   0  0  0  0  0  0  0  0  0  0  0  0
   -2.4830   24.5620  -29.1710 C   0  0  0  0  0  0  0  0  0  0  0  0
   -1.6692   25.2689  -29.3903 H   0  0  0  0  0  0  0  0  0  0  0  0
   -3.6960   24.6590  -29.8620 C   0  0  0  0  0  0  0  0  0  0  0  0
   -3.8560   25.6640  -30.8110 O   0  0  0  0  0  0  0  0  0  0  0  0
   -6.8000   23.4410  -32.6410 C   0  0  0  0  0  0  0  0  0  0  0  0
   -6.7754   23.7849  -33.6856 H   0  0  0  0  0  0  0  0  0  0  0  0
   -7.5430   22.1950  -32.3460 C   0  0  0  0  0  0  0  0  0  0  0  0
   -8.8170   22.3150  -31.7750 C   0  0  0  0  0  0  0  0  0  0  0  0
   -9.2056   23.3068  -31.5004 H   0  0  0  0  0  0  0  0  0  0  0  0
   -9.5920   21.1770  -31.5550 C   0  0  0  0  0  0  0  0  0  0  0  0
  -10.5992   21.2748  -31.1238 H   0  0  0  0  0  0  0  0  0  0  0  0
   -9.1080   19.9490  -31.8710 N   0  0  0  0  0  0  0  0  0  0  0  0
   -7.8630   19.7800  -32.3890 C   0  0  0  0  0  0  0  0  0  0  0  0
   -7.4070   18.4910  -32.6850 C   0  0  0  0  0  0  0  0  0  0  0  0
   -8.0649   17.6250  -32.5202 H   0  0  0  0  0  0  0  0  0  0  0  0
   -6.1190   18.3010  -33.1890 C   0  0  0  0  0  0  0  0  0  0  0  0
   -5.7672   17.2867  -33.4288 H   0  0  0  0  0  0  0  0  0  0  0  0
   -5.2770   19.3960  -33.3890 C   0  0  0  0  0  0  0  0  0  0  0  0
   -4.2587   19.2400  -33.7746 H   0  0  0  0  0  0  0  0  0  0  0  0
   -5.7210   20.6890  -33.1020 C   0  0  0  0  0  0  0  0  0  0  0  0
   -5.0470   21.5452  -33.2527 H   0  0  0  0  0  0  0  0  0  0  0  0
   -7.0290   20.9020  -32.6200 C   0  0  0  0  0  0  0  0  0  0  0  0
  1  2  1  0
  2  3  1  0
  3  4  2  0
  3  5  1  0
  5  6  2  0
  6  7  1  0
  6  8  1  0
  8  9  1  0
  8 10  2  0
 10 11  1  0
 10 12  1  0
 12 13  1  0
 12 14  2  0
 14 15  1  0
  2 16  2  0
 16 17  1  0
 16 18  1  0
 18 19  2  0
 19 20  1  0
 19 21  1  0
 21 22  1  0
 21 23  2  0
 23 24  1  0
 24 25  2  0
 25 26  1  0
 25 27  1  0
 27 28  1  0
 27 29  2  0
 29 30  1  0
 29 31  1  0
 31 32  1  0
 31 33  2  0
 14  5  1  0
 33 18  1  0
 33 24  1  0
M  CHG  1  15  -1
M  END
>  <UniqueID>  (29) 
27

>  <SMILES>  (29) 
O=C(/C=C\c1ccnc2ccccc12)c1ccccc1[O-]

>  <Energy>  (29) 
52.32130610585337

>  <Genealogy>  (29) 
O=C(C=Cc1ccnc2ccccc12)c1ccccc1[O-] (protonated)
O=C(/C=C\c1ccnc2ccccc12)c1ccccc1[O-] (cis-trans isomerization)
O=C(/C=C\c1ccnc2ccccc12)c1ccccc1[O-] (3D coordinates assigned)
O=C(/C=C\c1ccnc2ccccc12)c1ccccc1[O-] (optimized conformer: 52.32130610585337 kcal/mol)

>  <smiles>  (29) 
O=C(C=Cc1ccnc2ccccc12)c1ccccc1O

>  <score_type>  (29) 
oracle

>  <origin>  (29) 
adgpu

>  <m_score__min__energy>  (29) 
-12.77

>  <m_primary>  (29) 
energy

$$$$
29:0
     RDKit          3D

 46 48  0  0  0  0  0  0  0  0999 V2000
   -0.6890   22.3220  -29.9790 C   0  0  0  0  0  0  0  0  0  0  0  0
   -0.0750   23.6680  -28.9180 S   0  0  0  0  0  0  0  0  0  0  0  0
   -1.6920   24.0220  -28.2280 C   0  0  0  0  0  0  0  0  0  0  0  0
   -1.8000   24.7200  -27.0200 C   0  0  0  0  0  0  0  0  0  0  0  0
   -3.0590   24.9750  -26.4720 C   0  0  0  0  0  0  0  0  0  0  0  0
   -4.2130   24.5400  -27.1300 C   0  0  0  0  0  0  0  0  0  0  0  0
   -4.1190   23.8590  -28.3530 C   0  0  0  0  0  0  0  0  0  0  0  0
   -5.3200   23.4030  -28.9980 N   0  0  0  0  0  0  0  0  0  0  0  0
   -5.5620   23.5150  -30.4140 C   0  0  0  0  0  0  0  0  0  0  0  0
   -4.7320   24.1160  -31.1510 O   0  0  0  0  0  0  0  0  0  0  0  0
   -6.7790   22.9370  -31.0300 C   0  0  0  0  0  0  0  0  0  0  0  0
   -7.8110   23.7870  -31.4640 C   0  0  0  0  0  0  0  0  0  0  0  0
   -8.9620   23.2590  -32.0540 C   0  0  0  0  0  0  0  0  0  0  0  0
   -9.0980   21.8790  -32.2130 C   0  0  0  0  0  0  0  0  0  0  0  0
   -8.0860   21.0160  -31.7760 C   0  0  0  0  0  0  0  0  0  0  0  0
   -8.2540   19.2710  -31.9860 S   0  0  0  0  0  0  0  0  0  0  0  0
   -9.2420   18.9950  -33.0860 O   0  0  0  0  0  0  0  0  0  0  0  0
   -8.7910   18.6680  -30.7180 O   0  0  0  0  0  0  0  0  0  0  0  0
   -6.7250   18.5210  -32.3820 N   0  0  0  0  0  0  0  0  0  0  0  0
   -5.9270   19.3560  -33.3060 C   0  0  0  0  0  0  0  0  0  0  0  0
   -5.9350   18.8000  -34.7420 C   0  0  0  0  0  0  0  0  0  0  0  0
   -5.4350   17.4730  -34.8320 O   0  0  0  0  0  0  0  0  0  0  0  0
   -5.7220   16.6710  -33.6910 C   0  0  0  0  0  0  0  0  0  0  0  0
   -6.9380   17.1490  -32.8810 C   0  0  0  0  0  0  0  0  0  0  0  0
   -6.9370   21.5470  -31.1730 C   0  0  0  0  0  0  0  0  0  0  0  0
   -2.8470   23.5820  -28.8880 C   0  0  0  0  0  0  0  0  0  0  0  0
   -1.0635   21.5010  -29.3499 H   0  0  0  0  0  0  0  0  0  0  0  0
   -1.5044   22.6986  -30.6141 H   0  0  0  0  0  0  0  0  0  0  0  0
    0.1299   21.9531  -30.6141 H   0  0  0  0  0  0  0  0  0  0  0  0
   -0.8938   25.0676  -26.5023 H   0  0  0  0  0  0  0  0  0  0  0  0
   -3.1427   25.5196  -25.5200 H   0  0  0  0  0  0  0  0  0  0  0  0
   -5.2009   24.7328  -26.6862 H   0  0  0  0  0  0  0  0  0  0  0  0
   -6.0670   23.0130  -28.3830 H   0  0  0  0  0  0  0  0  0  0  0  0
   -7.7116   24.8753  -31.3382 H   0  0  0  0  0  0  0  0  0  0  0  0
   -9.7628   23.9322  -32.3940 H   0  0  0  0  0  0  0  0  0  0  0  0
  -10.0035   21.4681  -32.6833 H   0  0  0  0  0  0  0  0  0  0  0  0
   -6.3462   20.3729  -33.3170 H   0  0  0  0  0  0  0  0  0  0  0  0
   -4.8866   19.3572  -32.9489 H   0  0  0  0  0  0  0  0  0  0  0  0
   -6.9699   18.8095  -35.1147 H   0  0  0  0  0  0  0  0  0  0  0  0
   -5.2728   19.4400  -35.3437 H   0  0  0  0  0  0  0  0  0  0  0  0
   -5.9151   15.6427  -34.0306 H   0  0  0  0  0  0  0  0  0  0  0  0
   -4.8489   16.7402  -33.0254 H   0  0  0  0  0  0  0  0  0  0  0  0
   -7.8297   17.1332  -33.5249 H   0  0  0  0  0  0  0  0  0  0  0  0
   -7.0766   16.4772  -32.0210 H   0  0  0  0  0  0  0  0  0  0  0  0
   -6.1511   20.8694  -30.8080 H   0  0  0  0  0  0  0  0  0  0  0  0
   -2.7593   23.0177  -29.8282 H   0  0  0  0  0  0  0  0  0  0  0  0
  1  2  1  0
  2  3  1  0
  3  4  2  0
  4  5  1  0
  5  6  2  0
  6  7  1  0
  7  8  1  0
  8  9  1  0
  9 10  2  0
  9 11  1  0
 11 12  2  0
 12 13  1  0
 13 14  2  0
 14 15  1  0
 15 16  1  0
 16 17  2  0
 16 18  2  0
 16 19  1  0
 19 20  1  0
 20 21  1  0
 21 22  1  0
 22 23  1  0
 23 24  1  0
 15 25  2  0
  7 26  2  0
 26  3  1  0
 25 11  1  0
 24 19  1  0
  1 27  1  0
  1 28  1  0
  1 29  1  0
  4 30  1  0
  5 31  1  0
  6 32  1  0
  8 33  1  0
 12 34  1  0
 13 35  1  0
 14 36  1  0
 20 37  1  0
 20 38  1  0
 21 39  1  0
 21 40  1  0
 23 41  1  0
 23 42  1  0
 24 43  1  0
 24 44  1  0
 25 45  1  0
 26 46  1  0
M  END
>  <UniqueID>  (30) 
28

>  <SMILES>  (30) 
CSc1cccc(NC(=O)c2cccc(S(=O)(=O)N3CCOCC3)c2)c1

>  <Energy>  (30) 
61.230110868712096

>  <Genealogy>  (30) 
CSc1cccc(NC(=O)c2cccc(S(=O)(=O)N3CCOCC3)c2)c1 (3D coordinates assigned)
CSc1cccc(NC(=O)c2cccc(S(=O)(=O)N3CCOCC3)c2)c1 (nonaromatic ring conformer: 61.230110868712096 kcal/mol)

>  <smiles>  (30) 
CSc1cccc(NC(=O)c2cccc(S(=O)(=O)N3CCOCC3)c2)c1

>  <score_type>  (30) 
oracle

>  <origin>  (30) 
adgpu

>  <m_score__min__energy>  (30) 
-9.4100000000000001

>  <m_primary>  (30) 
energy

$$$$
30:0
     RDKit          3D

 64 68  0  0  0  0  0  0  0  0999 V2000
   -9.1158   22.0173  -31.4224 H   0  0  0  0  0  0  0  0  0  0  0  0
   -8.1680   22.5340  -31.2110 C   0  0  0  0  0  0  0  0  0  0  0  0
   -7.4400   22.1950  -30.1150 N   0  0  0  0  0  0  0  0  0  0  0  0
   -6.2570   22.8010  -29.8280 C   0  0  0  0  0  0  0  0  0  0  0  0
   -5.6966   22.5071  -28.9282 H   0  0  0  0  0  0  0  0  0  0  0  0
   -5.7450   23.8020  -30.6750 C   0  0  0  0  0  0  0  0  0  0  0  0
   -4.4590   24.4620  -30.3470 C   0  0  0  0  0  0  0  0  0  0  0  0
   -4.1990   25.5850  -30.8460 O   0  0  0  0  0  0  0  0  0  0  0  0
   -3.5020   23.8840  -29.4420 N   0  0  0  0  0  0  0  0  0  0  0  0
   -2.4990   22.9070  -29.7560 C   0  0  0  0  0  0  0  0  0  0  0  0
   -1.5300   22.6400  -28.7800 C   0  0  0  0  0  0  0  0  0  0  0  0
   -1.5826   23.1508  -27.8072 H   0  0  0  0  0  0  0  0  0  0  0  0
   -0.5010   21.7350  -29.0280 C   0  0  0  0  0  0  0  0  0  0  0  0
    0.2471   21.5267  -28.2489 H   0  0  0  0  0  0  0  0  0  0  0  0
   -0.4180   21.0930  -30.2620 C   0  0  0  0  0  0  0  0  0  0  0  0
    0.4143   20.4023  -30.4624 H   0  0  0  0  0  0  0  0  0  0  0  0
   -1.3870   21.3200  -31.2510 C   0  0  0  0  0  0  0  0  0  0  0  0
   -1.2010   20.6780  -32.5730 C   0  0  0  0  0  0  0  0  0  0  0  0
   -0.7040   21.4240  -33.6540 C   0  0  0  0  0  0  0  0  0  0  0  0
   -0.5263   22.5041  -33.5457 H   0  0  0  0  0  0  0  0  0  0  0  0
   -0.4370   20.7870  -34.8660 C   0  0  0  0  0  0  0  0  0  0  0  0
   -0.0644   21.3683  -35.7223 H   0  0  0  0  0  0  0  0  0  0  0  0
   -0.6370   19.4490  -34.9890 N   0  0  0  0  0  0  0  0  0  0  0  0
   -1.1210   18.6980  -33.9610 C   0  0  0  0  0  0  0  0  0  0  0  0
   -1.2630   17.2810  -34.1190 N   0  0  0  0  0  0  0  0  0  0  0  0
   -2.4050   16.6710  -33.9920 C   0  0  0  0  0  0  0  0  0  0  0  0
   -3.5540   17.3810  -33.8260 N   0  0  0  0  0  0  0  0  0  0  0  0
   -4.7750   16.7900  -33.7240 C   0  0  0  0  0  0  0  0  0  0  0  0
   -5.9530   17.6120  -33.6060 N   0  0  0  0  0  0  0  0  0  0  0  0
   -6.0090   18.9240  -34.2510 C   0  0  0  0  0  0  0  0  0  0  0  0
   -5.1117   19.0683  -34.8708 H   0  0  0  0  0  0  0  0  0  0  0  0
   -6.9034   18.9855  -34.8883 H   0  0  0  0  0  0  0  0  0  0  0  0
   -6.0680   20.0120  -33.1720 C   0  0  0  0  0  0  0  0  0  0  0  0
   -5.1070   20.0322  -32.6371 H   0  0  0  0  0  0  0  0  0  0  0  0
   -6.2699   20.9709  -33.6718 H   0  0  0  0  0  0  0  0  0  0  0  0
   -7.1550   19.7740  -32.1910 N   0  0  0  0  0  0  0  0  0  0  0  0
   -7.0080   20.4620  -31.4140 H   0  0  0  0  0  0  0  0  0  0  0  0
   -8.4890   20.0610  -32.7550 C   0  0  0  0  0  0  0  0  0  0  0  0
   -9.2076   20.2156  -31.9366 H   0  0  0  0  0  0  0  0  0  0  0  0
   -8.4377   20.9687  -33.3743 H   0  0  0  0  0  0  0  0  0  0  0  0
   -8.8155   19.2126  -33.3743 H   0  0  0  0  0  0  0  0  0  0  0  0
   -7.0850   18.4170  -31.5910 C   0  0  0  0  0  0  0  0  0  0  0  0
   -6.1893   18.3606  -30.9550 H   0  0  0  0  0  0  0  0  0  0  0  0
   -8.0087   18.2643  -31.0135 H   0  0  0  0  0  0  0  0  0  0  0  0
   -7.0100   17.2990  -32.6430 C   0  0  0  0  0  0  0  0  0  0  0  0
   -6.7848   16.3429  -32.1479 H   0  0  0  0  0  0  0  0  0  0  0  0
   -7.9742   17.2199  -33.1665 H   0  0  0  0  0  0  0  0  0  0  0  0
   -4.8660   15.3920  -33.7770 C   0  0  0  0  0  0  0  0  0  0  0  0
   -5.8431   14.8947  -33.6873 H   0  0  0  0  0  0  0  0  0  0  0  0
   -3.7020   14.6370  -33.9450 C   0  0  0  0  0  0  0  0  0  0  0  0
   -3.7594   13.5391  -33.9812 H   0  0  0  0  0  0  0  0  0  0  0  0
   -2.4650   15.2760  -34.0670 C   0  0  0  0  0  0  0  0  0  0  0  0
   -1.5483   14.6877  -34.2204 H   0  0  0  0  0  0  0  0  0  0  0  0
   -1.4230   19.3020  -32.7350 C   0  0  0  0  0  0  0  0  0  0  0  0
   -1.8304   18.7038  -31.9066 H   0  0  0  0  0  0  0  0  0  0  0  0
   -2.4800   22.1900  -30.9820 C   0  0  0  0  0  0  0  0  0  0  0  0
   -3.6220   22.3030  -31.9670 C   0  0  0  0  0  0  0  0  0  0  0  0
   -4.5711   22.3969  -31.4189 H   0  0  0  0  0  0  0  0  0  0  0  0
   -3.4743   23.1909  -32.5993 H   0  0  0  0  0  0  0  0  0  0  0  0
   -3.6512   21.4034  -32.5993 H   0  0  0  0  0  0  0  0  0  0  0  0
   -6.5050   24.1780  -31.7950 C   0  0  0  0  0  0  0  0  0  0  0  0
   -6.1466   24.9792  -32.4580 H   0  0  0  0  0  0  0  0  0  0  0  0
   -7.7150   23.5360  -32.0680 C   0  0  0  0  0  0  0  0  0  0  0  0
   -8.3057   23.8186  -32.9519 H   0  0  0  0  0  0  0  0  0  0  0  0
  1  2  1  0
  2  3  2  0
  3  4  1  0
  4  5  1  0
  4  6  2  0
  6  7  1  0
  7  8  2  0
  7  9  1  0
  9 10  1  0
 10 11  2  0
 11 12  1  0
 11 13  1  0
 13 14  1  0
 13 15  2  0
 15 16  1  0
 15 17  1  0
 17 18  1  0
 18 19  2  0
 19 20  1  0
 19 21  1  0
 21 22  1  0
 21 23  2  0
 23 24  1  0
 24 25  1  0
 25 26  2  0
 26 27  1  0
 27 28  1  0
 28 29  1  0
 29 30  1  0
 30 31  1  0
 30 32  1  0
 30 33  1  0
 33 34  1  0
 33 35  1  0
 33 36  1  0
 36 37  1  0
 36 38  1  0
 38 39  1  0
 38 40  1  0
 38 41  1  0
 36 42  1  0
 42 43  1  0
 42 44  1  0
 42 45  1  0
 45 46  1  0
 45 47  1  0
 28 48  2  0
 48 49  1  0
 48 50  1  0
 50 51  1  0
 50 52  2  0
 52 53  1  0
 24 54  2  0
 54 55  1  0
 17 56  2  0
 56 57  1  0
 57 58  1  0
 57 59  1  0
 57 60  1  0
  6 61  1  0
 61 62  1  0
 61 63  2  0
 63 64  1  0
 63  2  1  0
 56 10  1  0
 54 18  1  0
 52 26  1  0
 45 29  1  0
M  CHG  3   9  -1  27  -1  36   1
M  END
>  <UniqueID>  (31) 
29

>  <SMILES>  (31) 
Cc1c([N-]C(=O)c2cccnc2)cccc1-c1ccnc(/N=c2/cccc(N3CC[NH+](C)CC3)[n-]2)c1

>  <Energy>  (31) 
102.72873292411533

>  <Genealogy>  (31) 
Cc1c([N-]C(=O)c2cccnc2)cccc1-c1ccnc(N=c2cccc(N3CC[NH+](C)CC3)[n-]2)c1 (protonated)
Cc1c([N-]C(=O)c2cccnc2)cccc1-c1ccnc(/N=c2/cccc(N3CC[NH+](C)CC3)[n-]2)c1 (cis-trans isomerization)
Cc1c([N-]C(=O)c2cccnc2)cccc1-c1ccnc(/N=c2/cccc(N3CC[NH+](C)CC3)[n-]2)c1 (3D coordinates assigned)
Cc1c([N-]C(=O)c2cccnc2)cccc1-c1ccnc(/N=c2/cccc(N3CC[NH+](C)CC3)[n-]2)c1 (nonaromatic ring conformer: 102.72873292411533 kcal/mol)

>  <smiles>  (31) 
Cc1c(NC(=O)c2cccnc2)cccc1-c1ccnc(N=c2cccc(N3CCN(C)CC3)[nH]2)c1

>  <score_type>  (31) 
oracle

>  <origin>  (31) 
adgpu

>  <m_score__min__energy>  (31) 
-11.43

>  <m_primary>  (31) 
energy

$$$$
31:0
     RDKit          3D

 41 43  0  0  0  0  0  0  0  0999 V2000
   -4.8739   23.3387  -31.6963 H   0  0  0  0  0  0  0  0  0  0  0  0
   -4.0650   23.2820  -30.9530 C   0  0  0  0  0  0  0  0  0  0  0  0
   -3.5260   24.4570  -30.4210 C   0  0  0  0  0  0  0  0  0  0  0  0
   -3.9114   25.4332  -30.7503 H   0  0  0  0  0  0  0  0  0  0  0  0
   -2.4990   24.3990  -29.4720 C   0  0  0  0  0  0  0  0  0  0  0  0
   -1.9880   25.6230  -28.9280 N   0  0  0  0  0  0  0  0  0  0  0  0
   -0.9830   25.7560  -27.9120 C   0  0  0  0  0  0  0  0  0  0  0  0
    0.1860   25.3620  -28.1590 O   0  0  0  0  0  0  0  0  0  0  0  0
   -1.2910   26.3110  -26.5550 C   0  0  0  0  0  0  0  0  0  0  0  0
   -0.9105   25.6254  -25.7835 H   0  0  0  0  0  0  0  0  0  0  0  0
   -0.8090   27.2934  -26.4426 H   0  0  0  0  0  0  0  0  0  0  0  0
   -2.3796   26.4217  -26.4426 H   0  0  0  0  0  0  0  0  0  0  0  0
   -2.0570   23.1460  -29.0120 C   0  0  0  0  0  0  0  0  0  0  0  0
   -1.2841   23.0899  -28.2313 H   0  0  0  0  0  0  0  0  0  0  0  0
   -2.5970   21.9710  -29.5440 C   0  0  0  0  0  0  0  0  0  0  0  0
   -2.2501   20.9936  -29.1774 H   0  0  0  0  0  0  0  0  0  0  0  0
   -3.5810   22.0340  -30.5450 C   0  0  0  0  0  0  0  0  0  0  0  0
   -4.1920   20.8420  -31.0630 N   0  0  0  0  0  0  0  0  0  0  0  0
   -3.7970   20.1320  -32.0810 C   0  0  0  0  0  0  0  0  0  0  0  0
   -4.4490   18.9710  -32.3540 N   0  0  0  0  0  0  0  0  0  0  0  0
   -4.1060   18.1790  -33.4060 C   0  0  0  0  0  0  0  0  0  0  0  0
   -4.8540   16.9150  -33.6400 C   0  0  0  0  0  0  0  0  0  0  0  0
   -4.2250   15.6600  -33.5430 C   0  0  0  0  0  0  0  0  0  0  0  0
   -3.1576   15.6037  -33.2832 H   0  0  0  0  0  0  0  0  0  0  0  0
   -4.9450   14.4840  -33.7740 C   0  0  0  0  0  0  0  0  0  0  0  0
   -4.4443   13.5090  -33.6803 H   0  0  0  0  0  0  0  0  0  0  0  0
   -6.3000   14.5400  -34.1240 C   0  0  0  0  0  0  0  0  0  0  0  0
   -7.0810   13.2760  -34.3330 C   0  0  0  0  0  0  0  0  0  0  0  0
   -7.3478   12.8442  -33.3571 H   0  0  0  0  0  0  0  0  0  0  0  0
   -7.9979   13.5007  -34.8976 H   0  0  0  0  0  0  0  0  0  0  0  0
   -6.4698   12.5565  -34.8976 H   0  0  0  0  0  0  0  0  0  0  0  0
   -6.9350   15.7870  -34.2150 C   0  0  0  0  0  0  0  0  0  0  0  0
   -8.0042   15.8393  -34.4681 H   0  0  0  0  0  0  0  0  0  0  0  0
   -6.2170   16.9630  -33.9860 C   0  0  0  0  0  0  0  0  0  0  0  0
   -6.7220   17.9360  -34.0770 H   0  0  0  0  0  0  0  0  0  0  0  0
   -3.0410   18.5710  -34.2280 C   0  0  0  0  0  0  0  0  0  0  0  0
   -2.7244   17.9419  -35.0730 H   0  0  0  0  0  0  0  0  0  0  0  0
   -2.3910   19.7720  -33.9550 C   0  0  0  0  0  0  0  0  0  0  0  0
   -1.5606   20.1031  -34.5960 H   0  0  0  0  0  0  0  0  0  0  0  0
   -2.7780   20.5370  -32.9000 N   0  0  0  0  0  0  0  0  0  0  0  0
   -2.2940   21.4510  -32.7640 H   0  0  0  0  0  0  0  0  0  0  0  0
  1  2  1  0
  2  3  2  0
  3  4  1  0
  3  5  1  0
  5  6  1  0
  6  7  1  0
  7  8  2  0
  7  9  1  0
  9 10  1  0
  9 11  1  0
  9 12  1  0
  5 13  2  0
 13 14  1  0
 13 15  1  0
 15 16  1  0
 15 17  2  0
 17 18  1  0
 18 19  2  0
 19 20  1  0
 20 21  2  0
 21 22  1  0
 22 23  2  0
 23 24  1  0
 23 25  1  0
 25 26  1  0
 25 27  2  0
 27 28  1  0
 28 29  1  0
 28 30  1  0
 28 31  1  0
 27 32  1  0
 32 33  1  0
 32 34  2  0
 34 35  1  0
 21 36  1  0
 36 37  1  0
 36 38  2  0
 38 39  1  0
 38 40  1  0
 40 41  1  0
 17  2  1  0
 40 19  1  0
 34 22  1  0
M  CHG  1   6  -1
M  END
>  <UniqueID>  (32) 
30

>  <SMILES>  (32) 
CC(=O)[N-]c1ccc(/N=c2/nc(-c3ccc(C)cc3)cc[nH]2)cc1

>  <Energy>  (32) 
59.17700340044239

>  <Genealogy>  (32) 
CC(=O)[N-]c1ccc(N=c2nc(-c3ccc(C)cc3)cc[nH]2)cc1 (protonated)
CC(=O)[N-]c1ccc(/N=c2/nc(-c3ccc(C)cc3)cc[nH]2)cc1 (cis-trans isomerization)
CC(=O)[N-]c1ccc(/N=c2/nc(-c3ccc(C)cc3)cc[nH]2)cc1 (3D coordinates assigned)
CC(=O)[N-]c1ccc(/N=c2/nc(-c3ccc(C)cc3)cc[nH]2)cc1 (optimized conformer: 59.17700340044239 kcal/mol)

>  <smiles>  (32) 
CC(=O)Nc1ccc(N=c2nc(-c3ccc(C)cc3)cc[nH]2)cc1

>  <score_type>  (32) 
oracle

>  <origin>  (32) 
adgpu

>  <m_score__min__energy>  (32) 
-8.4399999999999995

>  <m_primary>  (32) 
energy

$$$$
32:0
     RDKit          3D

 35 37  0  0  0  0  0  0  0  0999 V2000
   -6.8080   26.4910  -28.8000 H   0  0  0  0  0  0  0  0  0  0  0  0
   -7.0440   25.6770  -29.4100 N   0  0  0  0  0  0  0  0  0  0  0  0
   -6.1730   24.7690  -29.7170 C   0  0  0  0  0  0  0  0  0  0  0  0
   -6.5410   23.7360  -30.5160 N   0  0  0  0  0  0  0  0  0  0  0  0
   -5.6660   22.7590  -30.8740 C   0  0  0  0  0  0  0  0  0  0  0  0
   -6.1280   21.6490  -31.7450 C   0  0  0  0  0  0  0  0  0  0  0  0
   -5.2640   21.0390  -32.6760 C   0  0  0  0  0  0  0  0  0  0  0  0
   -4.2199   21.3762  -32.7545 H   0  0  0  0  0  0  0  0  0  0  0  0
   -5.7240   20.0090  -33.5000 C   0  0  0  0  0  0  0  0  0  0  0  0
   -5.0414   19.5401  -34.2240 H   0  0  0  0  0  0  0  0  0  0  0  0
   -7.0460   19.5730  -33.4080 C   0  0  0  0  0  0  0  0  0  0  0  0
   -7.4028   18.7647  -34.0632 H   0  0  0  0  0  0  0  0  0  0  0  0
   -7.9210   20.1600  -32.4850 C   0  0  0  0  0  0  0  0  0  0  0  0
   -9.3530   19.7220  -32.4160 C   0  0  0  0  0  0  0  0  0  0  0  0
   -9.6576   19.6288  -31.3631 H   0  0  0  0  0  0  0  0  0  0  0  0
   -9.9888   20.4668  -32.9171 H   0  0  0  0  0  0  0  0  0  0  0  0
   -9.4634   18.7490  -32.9171 H   0  0  0  0  0  0  0  0  0  0  0  0
   -7.4640   21.2100  -31.6710 C   0  0  0  0  0  0  0  0  0  0  0  0
   -8.1575   21.6946  -30.9680 H   0  0  0  0  0  0  0  0  0  0  0  0
   -4.3500   22.8180  -30.3890 C   0  0  0  0  0  0  0  0  0  0  0  0
   -3.6236   22.0351  -30.6526 H   0  0  0  0  0  0  0  0  0  0  0  0
   -3.9730   23.8880  -29.5640 C   0  0  0  0  0  0  0  0  0  0  0  0
   -2.5900   23.9740  -29.0310 C   0  0  0  0  0  0  0  0  0  0  0  0
   -1.5850   23.1040  -29.4970 C   0  0  0  0  0  0  0  0  0  0  0  0
   -1.8251   22.3517  -30.2627 H   0  0  0  0  0  0  0  0  0  0  0  0
   -0.2840   23.1910  -28.9920 C   0  0  0  0  0  0  0  0  0  0  0  0
    0.4950   22.5078  -29.3614 H   0  0  0  0  0  0  0  0  0  0  0  0
    0.0290   24.1450  -28.0180 C   0  0  0  0  0  0  0  0  0  0  0  0
    1.6610   24.2520  -27.3860 Cl  0  0  0  0  0  0  0  0  0  0  0  0
   -0.9620   25.0120  -27.5490 C   0  0  0  0  0  0  0  0  0  0  0  0
   -0.7171   25.7615  -26.7820 H   0  0  0  0  0  0  0  0  0  0  0  0
   -2.2630   24.9290  -28.0520 C   0  0  0  0  0  0  0  0  0  0  0  0
   -3.0372   25.6159  -27.6794 H   0  0  0  0  0  0  0  0  0  0  0  0
   -4.8950   24.8440  -29.2480 N   0  0  0  0  0  0  0  0  0  0  0  0
   -4.6160   25.6560  -28.6520 H   0  0  0  0  0  0  0  0  0  0  0  0
  1  2  1  0
  2  3  2  0
  3  4  1  0
  4  5  2  0
  5  6  1  0
  6  7  2  0
  7  8  1  0
  7  9  1  0
  9 10  1  0
  9 11  2  0
 11 12  1  0
 11 13  1  0
 13 14  1  0
 14 15  1  0
 14 16  1  0
 14 17  1  0
 13 18  2  0
 18 19  1  0
  5 20  1  0
 20 21  1  0
 20 22  2  0
 22 23  1  0
 23 24  2  0
 24 25  1  0
 24 26  1  0
 26 27  1  0
 26 28  2  0
 28 29  1  0
 28 30  1  0
 30 31  1  0
 30 32  2  0
 32 33  1  0
 22 34  1  0
 34 35  1  0
 34  3  1  0
 18  6  1  0
 32 23  1  0
M  END
>  <UniqueID>  (33) 
31

>  <SMILES>  (33) 
[H]/N=c1/nc(-c2cccc(C)c2)cc(-c2ccc(Cl)cc2)[nH]1

>  <Energy>  (33) 
46.22956297427764

>  <Genealogy>  (33) 
[H]/N=c1/nc(-c2cccc(C)c2)cc(-c2ccc(Cl)cc2)[nH]1 (cis-trans isomerization)
[H]/N=c1/nc(-c2cccc(C)c2)cc(-c2ccc(Cl)cc2)[nH]1 (3D coordinates assigned)
[H]/N=c1/nc(-c2cccc(C)c2)cc(-c2ccc(Cl)cc2)[nH]1 (optimized conformer: 46.22956297427764 kcal/mol)

>  <smiles>  (33) 
Cc1cccc(-c2cc(-c3ccc(Cl)cc3)[nH]c(=N)n2)c1

>  <score_type>  (33) 
oracle

>  <origin>  (33) 
adgpu

>  <m_score__min__energy>  (33) 
-8.2100000000000009

>  <m_primary>  (33) 
energy

$$$$
33:0
     RDKit          3D

 44 46  0  0  0  0  0  0  0  0999 V2000
   -3.2210   12.9590  -35.3280 C   0  0  0  0  0  0  0  0  0  0  0  0
   -4.4080   12.9470  -34.5430 O   0  0  0  0  0  0  0  0  0  0  0  0
   -4.9990   14.0880  -33.9780 C   0  0  0  0  0  0  0  0  0  0  0  0
   -6.2080   14.6220  -34.4610 C   0  0  0  0  0  0  0  0  0  0  0  0
   -6.7660   15.7560  -33.8710 C   0  0  0  0  0  0  0  0  0  0  0  0
   -6.1380   16.3770  -32.7810 C   0  0  0  0  0  0  0  0  0  0  0  0
   -6.7500   17.5830  -32.1720 C   0  0  0  0  0  0  0  0  0  0  0  0
   -6.7310   17.7070  -30.9160 O   0  0  0  0  0  0  0  0  0  0  0  0
   -7.3650   18.5990  -32.9850 N   0  0  0  0  0  0  0  0  0  0  0  0
   -7.8970   19.8280  -32.4630 C   0  0  0  0  0  0  0  0  0  0  0  0
   -9.2830   20.0350  -32.4720 C   0  0  0  0  0  0  0  0  0  0  0  0
   -9.8230   21.2300  -31.9920 C   0  0  0  0  0  0  0  0  0  0  0  0
   -8.9840   22.2370  -31.5140 C   0  0  0  0  0  0  0  0  0  0  0  0
   -7.5880   22.0630  -31.5190 C   0  0  0  0  0  0  0  0  0  0  0  0
   -6.6910   23.1410  -31.0260 C   0  0  0  0  0  0  0  0  0  0  0  0
   -7.2260   24.3190  -30.4700 C   0  0  0  0  0  0  0  0  0  0  0  0
   -6.3780   25.3320  -30.0080 C   0  0  0  0  0  0  0  0  0  0  0  0
   -4.9920   25.1800  -30.0950 C   0  0  0  0  0  0  0  0  0  0  0  0
   -4.4500   24.0160  -30.6440 C   0  0  0  0  0  0  0  0  0  0  0  0
   -3.1050   23.8690  -30.7240 F   0  0  0  0  0  0  0  0  0  0  0  0
   -5.2930   23.0010  -31.1080 C   0  0  0  0  0  0  0  0  0  0  0  0
   -7.0530   20.8560  -32.0050 C   0  0  0  0  0  0  0  0  0  0  0  0
   -4.9220   15.8540  -32.3070 C   0  0  0  0  0  0  0  0  0  0  0  0
   -4.3520   14.7090  -32.8980 C   0  0  0  0  0  0  0  0  0  0  0  0
   -3.1420   14.1610  -32.4450 O   0  0  0  0  0  0  0  0  0  0  0  0
   -3.0370   13.0330  -31.5820 C   0  0  0  0  0  0  0  0  0  0  0  0
   -2.3432   12.9679  -34.6652 H   0  0  0  0  0  0  0  0  0  0  0  0
   -3.1921   12.0611  -35.9628 H   0  0  0  0  0  0  0  0  0  0  0  0
   -3.2103   13.8573  -35.9628 H   0  0  0  0  0  0  0  0  0  0  0  0
   -6.7166   14.1417  -35.3099 H   0  0  0  0  0  0  0  0  0  0  0  0
   -7.7074   16.1673  -34.2641 H   0  0  0  0  0  0  0  0  0  0  0  0
   -7.4850   18.4310  -34.0090 H   0  0  0  0  0  0  0  0  0  0  0  0
   -9.9500   19.2509  -32.8598 H   0  0  0  0  0  0  0  0  0  0  0  0
  -10.9130   21.3778  -31.9908 H   0  0  0  0  0  0  0  0  0  0  0  0
   -9.4168   23.1729  -31.1308 H   0  0  0  0  0  0  0  0  0  0  0  0
   -8.3166   24.4437  -30.3984 H   0  0  0  0  0  0  0  0  0  0  0  0
   -6.8036   26.2495  -29.5756 H   0  0  0  0  0  0  0  0  0  0  0  0
   -4.3275   25.9774  -29.7310 H   0  0  0  0  0  0  0  0  0  0  0  0
   -4.8602   22.0867  -31.5401 H   0  0  0  0  0  0  0  0  0  0  0  0
   -5.9624   20.7145  -32.0271 H   0  0  0  0  0  0  0  0  0  0  0  0
   -4.4101   16.3440  -31.4657 H   0  0  0  0  0  0  0  0  0  0  0  0
   -3.0682   13.3683  -30.5348 H   0  0  0  0  0  0  0  0  0  0  0  0
   -3.8751   12.3465  -31.7723 H   0  0  0  0  0  0  0  0  0  0  0  0
   -2.0866   12.5129  -31.7723 H   0  0  0  0  0  0  0  0  0  0  0  0
  1  2  1  0
  2  3  1  0
  3  4  2  0
  4  5  1  0
  5  6  2  0
  6  7  1  0
  7  8  2  0
  7  9  1  0
  9 10  1  0
 10 11  2  0
 11 12  1  0
 12 13  2  0
 13 14  1  0
 14 15  1  0
 15 16  2  0
 16 17  1  0
 17 18  2  0
 18 19  1  0
 19 20  1  0
 19 21  2  0
 14 22  2  0
  6 23  1  0
 23 24  2  0
 24 25  1  0
 25 26  1  0
 24  3  1  0
 22 10  1  0
 21 15  1  0
  1 27  1  0
  1 28  1  0
  1 29  1  0
  4 30  1  0
  5 31  1  0
  9 32  1  0
 11 33  1  0
 12 34  1  0
 13 35  1  0
 16 36  1  0
 17 37  1  0
 18 38  1  0
 21 39  1  0
 22 40  1  0
 23 41  1  0
 26 42  1  0
 26 43  1  0
 26 44  1  0
M  END
>  <UniqueID>  (34) 
32

>  <SMILES>  (34) 
COc1ccc(C(=O)Nc2cccc(-c3cccc(F)c3)c2)cc1OC

>  <Energy>  (34) 
57.85494522519479

>  <Genealogy>  (34) 
COc1ccc(C(=O)Nc2cccc(-c3cccc(F)c3)c2)cc1OC (3D coordinates assigned)
COc1ccc(C(=O)Nc2cccc(-c3cccc(F)c3)c2)cc1OC (optimized conformer: 57.85494522519479 kcal/mol)

>  <smiles>  (34) 
COc1ccc(C(=O)Nc2cccc(-c3cccc(F)c3)c2)cc1OC

>  <score_type>  (34) 
oracle

>  <origin>  (34) 
adgpu

>  <m_score__min__energy>  (34) 
-8.8599999999999994

>  <m_primary>  (34) 
energy

$$$$
34:0
     RDKit          3D

 31 33  0  0  0  0  0  0  0  0999 V2000
   -9.7489   19.5891  -31.3605 H   0  0  0  0  0  0  0  0  0  0  0  0
   -8.7200   19.6340  -31.7470 C   0  0  0  0  0  0  0  0  0  0  0  0
   -8.2520   20.8020  -32.3540 C   0  0  0  0  0  0  0  0  0  0  0  0
   -8.9146   21.6748  -32.4496 H   0  0  0  0  0  0  0  0  0  0  0  0
   -6.9430   20.8630  -32.8400 C   0  0  0  0  0  0  0  0  0  0  0  0
   -6.5836   21.7786  -33.3324 H   0  0  0  0  0  0  0  0  0  0  0  0
   -6.0840   19.7590  -32.7020 C   0  0  0  0  0  0  0  0  0  0  0  0
   -4.7040   19.8020  -33.2260 C   0  0  0  0  0  0  0  0  0  0  0  0
   -4.2350   18.9100  -34.1220 N   0  0  0  0  0  0  0  0  0  0  0  0
   -3.0160   19.2590  -34.4140 O   0  0  0  0  0  0  0  0  0  0  0  0
   -2.6560   20.3340  -33.7530 C   0  0  0  0  0  0  0  0  0  0  0  0
   -1.3060   20.9650  -33.8610 C   0  0  0  0  0  0  0  0  0  0  0  0
   -0.9068   21.1516  -32.8531 H   0  0  0  0  0  0  0  0  0  0  0  0
   -0.6283   20.2903  -34.4047 H   0  0  0  0  0  0  0  0  0  0  0  0
   -1.3890   21.9176  -34.4047 H   0  0  0  0  0  0  0  0  0  0  0  0
   -3.7120   20.7380  -32.9540 C   0  0  0  0  0  0  0  0  0  0  0  0
   -3.7160   21.8300  -31.9580 C   0  0  0  0  0  0  0  0  0  0  0  0
   -2.6660   22.0850  -31.3100 O   0  0  0  0  0  0  0  0  0  0  0  0
   -4.9250   22.5660  -31.7140 N   0  0  0  0  0  0  0  0  0  0  0  0
   -5.0070   23.7640  -31.2190 C   0  0  0  0  0  0  0  0  0  0  0  0
   -3.9550   24.5230  -30.8540 N   0  0  0  0  0  0  0  0  0  0  0  0
   -4.4460   25.6690  -30.4100 N   0  0  0  0  0  0  0  0  0  0  0  0
   -3.8630   26.4590  -30.0570 H   0  0  0  0  0  0  0  0  0  0  0  0
   -5.7900   25.6510  -30.4890 C   0  0  0  0  0  0  0  0  0  0  0  0
   -6.4590   26.4711  -30.1892 H   0  0  0  0  0  0  0  0  0  0  0  0
   -6.1920   24.4370  -31.0070 C   0  0  0  0  0  0  0  0  0  0  0  0
   -7.2164   24.0881  -31.2044 H   0  0  0  0  0  0  0  0  0  0  0  0
   -6.5700   18.5810  -32.1140 C   0  0  0  0  0  0  0  0  0  0  0  0
   -5.9169   17.6996  -32.0327 H   0  0  0  0  0  0  0  0  0  0  0  0
   -7.8810   18.5230  -31.6310 C   0  0  0  0  0  0  0  0  0  0  0  0
   -8.2522   17.6013  -31.1591 H   0  0  0  0  0  0  0  0  0  0  0  0
  1  2  1  0
  2  3  2  0
  3  4  1  0
  3  5  1  0
  5  6  1  0
  5  7  2  0
  7  8  1  0
  8  9  2  0
  9 10  1  0
 10 11  1  0
 11 12  1  0
 12 13  1  0
 12 14  1  0
 12 15  1  0
 11 16  2  0
 16 17  1  0
 17 18  2  0
 17 19  1  0
 19 20  2  0
 20 21  1  0
 21 22  1  0
 22 23  1  0
 22 24  1  0
 24 25  1  0
 24 26  2  0
 26 27  1  0
  7 28  1  0
 28 29  1  0
 28 30  2  0
 30 31  1  0
 30  2  1  0
 16  8  1  0
 26 20  1  0
M  CHG  1  21  -1
M  END
>  <UniqueID>  (35) 
33

>  <SMILES>  (35) 
Cc1onc(-c2ccccc2)c1C(=O)/N=c1/cc[nH][n-]1

>  <Energy>  (35) 
100.95636958915078

>  <Genealogy>  (35) 
Cc1onc(-c2ccccc2)c1C(=O)N=c1cc[nH][n-]1 (protonated)
Cc1onc(-c2ccccc2)c1C(=O)/N=c1/cc[nH][n-]1 (cis-trans isomerization)
Cc1onc(-c2ccccc2)c1C(=O)/N=c1/cc[nH][n-]1 (3D coordinates assigned)
Cc1onc(-c2ccccc2)c1C(=O)/N=c1/cc[nH][n-]1 (optimized conformer: 100.95636958915078 kcal/mol)

>  <smiles>  (35) 
Cc1onc(-c2ccccc2)c1C(=O)N=c1cc[nH][nH]1

>  <score_type>  (35) 
oracle

>  <origin>  (35) 
adgpu

>  <m_score__min__energy>  (35) 
-9.3300000000000001

>  <m_primary>  (35) 
energy

$$$$
35:0
     RDKit          3D

 26 28  0  0  0  0  0  0  0  0999 V2000
   -7.8940   22.6360  -30.8750 Cl  0  0  0  0  0  0  0  0  0  0  0  0
   -6.8420   21.6300  -31.8710 C   0  0  0  0  0  0  0  0  0  0  0  0
   -7.4690   20.5850  -32.5590 C   0  0  0  0  0  0  0  0  0  0  0  0
   -6.7330   19.7300  -33.3730 C   0  0  0  0  0  0  0  0  0  0  0  0
   -5.3620   19.9100  -33.5100 C   0  0  0  0  0  0  0  0  0  0  0  0
   -4.7060   20.9450  -32.8360 C   0  0  0  0  0  0  0  0  0  0  0  0
   -2.9660   21.0610  -33.0970 Cl  0  0  0  0  0  0  0  0  0  0  0  0
   -5.4370   21.8330  -31.9960 C   0  0  0  0  0  0  0  0  0  0  0  0
   -4.7400   22.9430  -31.2720 C   0  0  0  0  0  0  0  0  0  0  0  0
   -4.9830   24.2570  -31.4470 N   0  0  0  0  0  0  0  0  0  0  0  0
   -4.1710   24.9140  -30.6340 N   0  0  0  0  0  0  0  0  0  0  0  0
   -3.4550   23.9780  -29.9860 C   0  0  0  0  0  0  0  0  0  0  0  0
   -2.4200   24.2650  -28.9740 C   0  0  0  0  0  0  0  0  0  0  0  0
   -2.7670   24.5270  -27.6400 C   0  0  0  0  0  0  0  0  0  0  0  0
   -1.7710   24.7970  -26.7000 C   0  0  0  0  0  0  0  0  0  0  0  0
   -0.4350   24.8030  -27.1010 C   0  0  0  0  0  0  0  0  0  0  0  0
   -0.1120   24.5470  -28.3970 N   0  0  0  0  0  0  0  0  0  0  0  0
   -1.0620   24.2820  -29.3320 C   0  0  0  0  0  0  0  0  0  0  0  0
   -3.7990   22.7730  -30.3730 O   0  0  0  0  0  0  0  0  0  0  0  0
   -8.5542   20.4383  -32.4551 H   0  0  0  0  0  0  0  0  0  0  0  0
   -7.2364   18.9114  -33.9082 H   0  0  0  0  0  0  0  0  0  0  0  0
   -4.7862   19.2308  -34.1558 H   0  0  0  0  0  0  0  0  0  0  0  0
   -3.8238   24.5196  -27.3349 H   0  0  0  0  0  0  0  0  0  0  0  0
   -2.0372   25.0031  -25.6528 H   0  0  0  0  0  0  0  0  0  0  0  0
    0.3578   25.0149  -26.3685 H   0  0  0  0  0  0  0  0  0  0  0  0
   -0.7665   24.0802  -30.3722 H   0  0  0  0  0  0  0  0  0  0  0  0
  1  2  1  0
  2  3  2  0
  3  4  1  0
  4  5  2  0
  5  6  1  0
  6  7  1  0
  6  8  2  0
  8  9  1  0
  9 10  2  0
 10 11  1  0
 11 12  2  0
 12 13  1  0
 13 14  2  0
 14 15  1  0
 15 16  2  0
 16 17  1  0
 17 18  2  0
 12 19  1  0
  8  2  1  0
 19  9  1  0
 18 13  1  0
  3 20  1  0
  4 21  1  0
  5 22  1  0
 14 23  1  0
 15 24  1  0
 16 25  1  0
 18 26  1  0
M  END
>  <UniqueID>  (36) 
34

>  <SMILES>  (36) 
Clc1cccc(Cl)c1-c1nnc(-c2cccnc2)o1

>  <Energy>  (36) 
72.02374370388029

>  <Genealogy>  (36) 
Clc1cccc(Cl)c1-c1nnc(-c2cccnc2)o1 (3D coordinates assigned)
Clc1cccc(Cl)c1-c1nnc(-c2cccnc2)o1 (optimized conformer: 72.02374370388029 kcal/mol)

>  <smiles>  (36) 
Clc1cccc(Cl)c1-c1nnc(-c2cccnc2)o1

>  <score_type>  (36) 
oracle

>  <origin>  (36) 
adgpu

>  <m_score__min__energy>  (36) 
-7.79

>  <m_primary>  (36) 
energy

$$$$
36:0
     RDKit          3D

 40 42  0  0  0  0  0  0  0  0999 V2000
   -1.6450   25.3420  -27.8240 C   0  0  0  0  0  0  0  0  0  0  0  0
   -2.3340   25.2920  -29.0700 O   0  0  0  0  0  0  0  0  0  0  0  0
   -2.6920   24.1080  -29.7340 C   0  0  0  0  0  0  0  0  0  0  0  0
   -2.0160   22.8930  -29.5100 C   0  0  0  0  0  0  0  0  0  0  0  0
   -2.4010   21.7360  -30.1880 C   0  0  0  0  0  0  0  0  0  0  0  0
   -3.4690   21.7650  -31.0970 C   0  0  0  0  0  0  0  0  0  0  0  0
   -3.8750   20.5380  -31.8240 C   0  0  0  0  0  0  0  0  0  0  0  0
   -2.8920   19.7220  -32.4050 C   0  0  0  0  0  0  0  0  0  0  0  0
   -3.2630   18.5560  -33.0760 C   0  0  0  0  0  0  0  0  0  0  0  0
   -4.5730   18.2140  -33.1780 N   0  0  0  0  0  0  0  0  0  0  0  0
   -5.5660   18.9800  -32.6430 C   0  0  0  0  0  0  0  0  0  0  0  0
   -5.2290   20.1620  -31.9490 C   0  0  0  0  0  0  0  0  0  0  0  0
   -6.2190   20.9290  -31.4270 N   0  0  0  0  0  0  0  0  0  0  0  0
   -7.5240   20.5770  -31.5340 C   0  0  0  0  0  0  0  0  0  0  0  0
   -8.5720   21.4520  -30.9160 C   0  0  0  0  0  0  0  0  0  0  0  0
   -7.8660   19.3910  -32.2070 C   0  0  0  0  0  0  0  0  0  0  0  0
   -9.0790   19.0480  -32.2810 O   0  0  0  0  0  0  0  0  0  0  0  0
   -6.8840   18.6180  -32.7760 N   0  0  0  0  0  0  0  0  0  0  0  0
   -7.2330   17.3670  -33.4710 C   0  0  0  0  0  0  0  0  0  0  0  0
   -4.1380   22.9770  -31.3270 C   0  0  0  0  0  0  0  0  0  0  0  0
   -3.7560   24.1500  -30.6470 C   0  0  0  0  0  0  0  0  0  0  0  0
   -4.4090   25.3770  -30.8510 O   0  0  0  0  0  0  0  0  0  0  0  0
   -5.7380   25.6650  -30.4280 C   0  0  0  0  0  0  0  0  0  0  0  0
   -2.3723   25.2892  -27.0005 H   0  0  0  0  0  0  0  0  0  0  0  0
   -0.9503   24.4919  -27.7548 H   0  0  0  0  0  0  0  0  0  0  0  0
   -1.0804   26.2835  -27.7548 H   0  0  0  0  0  0  0  0  0  0  0  0
   -1.1797   22.8560  -28.7964 H   0  0  0  0  0  0  0  0  0  0  0  0
   -1.8628   20.7936  -30.0083 H   0  0  0  0  0  0  0  0  0  0  0  0
   -1.8305   20.0012  -32.3316 H   0  0  0  0  0  0  0  0  0  0  0  0
   -2.4917   17.9120  -33.5237 H   0  0  0  0  0  0  0  0  0  0  0  0
   -8.5001   21.3920  -29.8200 H   0  0  0  0  0  0  0  0  0  0  0  0
   -8.4169   22.4926  -31.2372 H   0  0  0  0  0  0  0  0  0  0  0  0
   -9.5682   21.1137  -31.2372 H   0  0  0  0  0  0  0  0  0  0  0  0
   -7.4514   16.5843  -32.7296 H   0  0  0  0  0  0  0  0  0  0  0  0
   -8.1192   17.5326  -34.1012 H   0  0  0  0  0  0  0  0  0  0  0  0
   -6.3890   17.0499  -34.1012 H   0  0  0  0  0  0  0  0  0  0  0  0
   -4.9697   23.0114  -32.0461 H   0  0  0  0  0  0  0  0  0  0  0  0
   -5.7791   25.6739  -29.3288 H   0  0  0  0  0  0  0  0  0  0  0  0
   -6.0405   26.6495  -30.8142 H   0  0  0  0  0  0  0  0  0  0  0  0
   -6.4209   24.8940  -30.8142 H   0  0  0  0  0  0  0  0  0  0  0  0
  1  2  1  0
  2  3  1  0
  3  4  2  0
  4  5  1  0
  5  6  2  0
  6  7  1  0
  7  8  2  0
  8  9  1  0
  9 10  2  0
 10 11  1  0
 11 12  2  0
 12 13  1  0
 13 14  2  0
 14 15  1  0
 14 16  1  0
 16 17  2  0
 16 18  1  0
 18 19  1  0
  6 20  1  0
 20 21  2  0
 21 22  1  0
 22 23  1  0
 21  3  1  0
 12  7  1  0
 18 11  1  0
  1 24  1  0
  1 25  1  0
  1 26  1  0
  4 27  1  0
  5 28  1  0
  8 29  1  0
  9 30  1  0
 15 31  1  0
 15 32  1  0
 15 33  1  0
 19 34  1  0
 19 35  1  0
 19 36  1  0
 20 37  1  0
 23 38  1  0
 23 39  1  0
 23 40  1  0
M  END
>  <UniqueID>  (37) 
35

>  <SMILES>  (37) 
COc1ccc(-c2ccnc3c2nc(C)c(=O)n3C)cc1OC

>  <Energy>  (37) 
55.08761487092141

>  <Genealogy>  (37) 
COc1ccc(-c2ccnc3c2nc(C)c(=O)n3C)cc1OC (3D coordinates assigned)
COc1ccc(-c2ccnc3c2nc(C)c(=O)n3C)cc1OC (optimized conformer: 55.08761487092141 kcal/mol)

>  <smiles>  (37) 
COc1ccc(-c2ccnc3c2nc(C)c(=O)n3C)cc1OC

>  <score_type>  (37) 
oracle

>  <origin>  (37) 
adgpu

>  <m_score__min__energy>  (37) 
-8.1099999999999994

>  <m_primary>  (37) 
energy

$$$$
37:0
     RDKit          3D

 44 46  0  0  1  0  0  0  0  0999 V2000
   -5.9030   17.9300  -32.2410 C   0  0  0  0  0  0  0  0  0  0  0  0
   -5.5280   19.0040  -33.6200 S   0  0  0  0  0  0  0  0  0  0  0  0
   -5.2900   18.1600  -34.8430 O   0  0  0  0  0  0  0  0  0  0  0  0
   -4.2710   19.7690  -33.3880 O   0  0  0  0  0  0  0  0  0  0  0  0
   -6.8840   20.0290  -33.8460 N   0  0  0  0  0  0  0  0  0  0  0  0
   -7.4010   20.7490  -32.7420 C   0  0  0  0  0  0  0  0  0  0  0  0
   -8.7240   20.7690  -32.3800 C   0  0  0  0  0  0  0  0  0  0  0  0
   -9.1720   21.4880  -31.2940 C   0  0  0  0  0  0  0  0  0  0  0  0
   -8.2530   22.2070  -30.5580 C   0  0  0  0  0  0  0  0  0  0  0  0
   -6.8950   22.2250  -30.8790 C   0  0  0  0  0  0  0  0  0  0  0  0
   -5.9290   22.9910  -30.0900 C   0  0  0  0  0  0  0  0  0  0  0  0
   -4.5910   22.6660  -29.9970 C   0  0  0  0  0  0  0  0  0  0  0  0
   -4.0400   23.6240  -29.1710 C   0  0  0  0  0  0  0  0  0  0  0  0
   -2.7890   23.6410  -28.8530 N   0  0  0  0  0  0  0  0  0  0  0  0
   -2.2430   24.6390  -27.9980 C   0  0  0  0  0  0  0  0  0  0  0  0
   -1.2270   25.4750  -28.4760 C   0  0  0  0  0  0  0  0  0  0  0  0
   -0.6820   26.4620  -27.6470 C   0  0  0  0  0  0  0  0  0  0  0  0
   -1.1510   26.6050  -26.3570 C   0  0  0  0  0  0  0  0  0  0  0  0
   -0.4610   27.8440  -25.3240 S   0  0  0  0  0  0  0  0  0  0  0  0
   -0.6970   27.5300  -23.6620 N   0  0  0  0  0  0  0  0  0  0  0  0
    1.0330   27.9140  -25.5890 O   0  0  0  0  0  0  0  0  0  0  0  0
   -1.0370   29.1780  -25.7000 O   0  0  0  0  0  0  0  0  0  0  0  0
   -2.1620   25.7600  -25.9070 C   0  0  0  0  0  0  0  0  0  0  0  0
   -2.7170   24.7830  -26.6960 C   0  0  0  0  0  0  0  0  0  0  0  0
   -4.9860   24.4840  -28.7810 N   0  0  0  0  0  0  0  0  0  0  0  0
   -6.1390   24.0980  -29.3420 N   0  0  0  0  0  0  0  0  0  0  0  0
   -6.4930   21.4870  -31.9770 C   0  0  0  0  0  0  0  0  0  0  0  0
   -5.7162   18.4650  -31.2982 H   0  0  0  0  0  0  0  0  0  0  0  0
   -6.9597   17.6281  -32.2881 H   0  0  0  0  0  0  0  0  0  0  0  0
   -5.2638   17.0360  -32.2881 H   0  0  0  0  0  0  0  0  0  0  0  0
   -7.2950   20.0920  -34.8010 H   0  0  0  0  0  0  0  0  0  0  0  0
   -9.4487   20.1937  -32.9748 H   0  0  0  0  0  0  0  0  0  0  0  0
  -10.2373   21.4889  -31.0200 H   0  0  0  0  0  0  0  0  0  0  0  0
   -8.6021   22.7851  -29.6897 H   0  0  0  0  0  0  0  0  0  0  0  0
   -4.0740   21.8230  -30.4787 H   0  0  0  0  0  0  0  0  0  0  0  0
   -0.8564   25.3559  -29.5048 H   0  0  0  0  0  0  0  0  0  0  0  0
    0.1158   27.1202  -28.0215 H   0  0  0  0  0  0  0  0  0  0  0  0
   -1.7040   27.5800  -23.4380 H   0  0  0  0  0  0  0  0  0  0  0  0
   -0.1940   28.2080  -23.0550 H   0  0  0  0  0  0  0  0  0  0  0  0
   -2.5310   25.8800  -24.8777 H   0  0  0  0  0  0  0  0  0  0  0  0
   -3.5148   24.1313  -26.3103 H   0  0  0  0  0  0  0  0  0  0  0  0
   -4.8440   25.3090  -28.1510 H   0  0  0  0  0  0  0  0  0  0  0  0
   -7.0670   24.5870  -29.2160 H   0  0  0  0  0  0  0  0  0  0  0  0
   -5.4291   21.4804  -32.2563 H   0  0  0  0  0  0  0  0  0  0  0  0
  1  2  1  0
  2  3  2  0
  2  4  2  0
  2  5  1  0
  5  6  1  0
  6  7  2  0
  7  8  1  0
  8  9  2  0
  9 10  1  0
 10 11  1  0
 11 12  2  0
 12 13  1  0
 13 14  2  0
 14 15  1  0
 15 16  2  0
 16 17  1  0
 17 18  2  0
 18 19  1  0
 19 20  1  0
 19 21  2  0
 19 22  2  0
 18 23  1  0
 23 24  2  0
 13 25  1  0
 25 26  1  0
 10 27  2  0
 27  6  1  0
 26 11  1  0
 24 15  1  0
  1 28  1  0
  1 29  1  0
  1 30  1  0
  5 31  1  0
  7 32  1  0
  8 33  1  0
  9 34  1  0
 12 35  1  0
 16 36  1  0
 17 37  1  0
 20 38  1  0
 20 39  1  0
 23 40  1  0
 24 41  1  0
 25 42  1  0
 26 43  1  0
 27 44  1  0
M  END
>  <smiles>  (38) 
CS(=O)(=O)Nc1cccc(-c2cc(=Nc3ccc(S(N)(=O)=O)cc3)[nH][nH]2)c1

>  <score_type>  (38) 
oracle

>  <origin>  (38) 
adgpu

>  <m_score__min__energy>  (38) 
-9.6400000000000006

>  <m_primary>  (38) 
energy

$$$$
38:0
     RDKit          3D

 38 40  0  0  0  0  0  0  0  0999 V2000
   -6.6340   15.3860  -34.2000 C   0  0  0  0  0  0  0  0  0  0  0  0
   -6.4980   16.8380  -33.8510 C   0  0  0  0  0  0  0  0  0  0  0  0
   -5.6090   17.6570  -34.5640 C   0  0  0  0  0  0  0  0  0  0  0  0
   -5.4530   19.0010  -34.2140 C   0  0  0  0  0  0  0  0  0  0  0  0
   -6.1600   19.5380  -33.1320 C   0  0  0  0  0  0  0  0  0  0  0  0
   -5.9760   20.9220  -32.8000 N   0  0  0  0  0  0  0  0  0  0  0  0
   -6.9450   21.7820  -32.1850 C   0  0  0  0  0  0  0  0  0  0  0  0
   -8.1660   21.5230  -32.3480 O   0  0  0  0  0  0  0  0  0  0  0  0
   -6.5550   22.9910  -31.4180 C   0  0  0  0  0  0  0  0  0  0  0  0
   -7.5390   23.7810  -30.8010 C   0  0  0  0  0  0  0  0  0  0  0  0
   -7.1800   24.9170  -30.0720 C   0  0  0  0  0  0  0  0  0  0  0  0
   -5.8370   25.2860  -29.9640 C   0  0  0  0  0  0  0  0  0  0  0  0
   -4.8440   24.5340  -30.6010 C   0  0  0  0  0  0  0  0  0  0  0  0
   -3.4720   24.9290  -30.4520 N   0  0  0  0  0  0  0  0  0  0  0  0
   -2.6090   24.5950  -29.3570 C   0  0  0  0  0  0  0  0  0  0  0  0
   -1.8280   25.4760  -28.9120 O   0  0  0  0  0  0  0  0  0  0  0  0
   -2.5640   23.2430  -28.7750 C   0  0  0  0  0  0  0  0  0  0  0  0
   -3.6100   22.5690  -28.1690 C   0  0  0  0  0  0  0  0  0  0  0  0
   -3.0980   21.3460  -27.7980 C   0  0  0  0  0  0  0  0  0  0  0  0
   -1.7790   21.3420  -28.2060 C   0  0  0  0  0  0  0  0  0  0  0  0
   -1.4930   22.4840  -28.7870 O   0  0  0  0  0  0  0  0  0  0  0  0
   -5.2060   23.3780  -31.3170 C   0  0  0  0  0  0  0  0  0  0  0  0
   -7.0550   18.7210  -32.4210 C   0  0  0  0  0  0  0  0  0  0  0  0
   -7.2130   17.3760  -32.7700 C   0  0  0  0  0  0  0  0  0  0  0  0
   -6.6898   14.7906  -33.2767 H   0  0  0  0  0  0  0  0  0  0  0  0
   -7.5502   15.2349  -34.7896 H   0  0  0  0  0  0  0  0  0  0  0  0
   -5.7618   15.0674  -34.7896 H   0  0  0  0  0  0  0  0  0  0  0  0
   -5.0322   17.2391  -35.4023 H   0  0  0  0  0  0  0  0  0  0  0  0
   -4.7703   19.6408  -34.7925 H   0  0  0  0  0  0  0  0  0  0  0  0
   -8.5994   23.5031  -30.8926 H   0  0  0  0  0  0  0  0  0  0  0  0
   -7.9566   25.5225  -29.5818 H   0  0  0  0  0  0  0  0  0  0  0  0
   -5.5588   26.1724  -29.3751 H   0  0  0  0  0  0  0  0  0  0  0  0
   -4.6362   22.9342  -28.0158 H   0  0  0  0  0  0  0  0  0  0  0  0
   -3.6322   20.5354  -27.2807 H   0  0  0  0  0  0  0  0  0  0  0  0
   -1.0748   20.5087  -28.0656 H   0  0  0  0  0  0  0  0  0  0  0  0
   -4.4272   22.7713  -31.8022 H   0  0  0  0  0  0  0  0  0  0  0  0
   -7.6343   19.1414  -31.5857 H   0  0  0  0  0  0  0  0  0  0  0  0
   -7.9001   16.7376  -32.1952 H   0  0  0  0  0  0  0  0  0  0  0  0
  1  2  1  0
  2  3  2  0
  3  4  1  0
  4  5  2  0
  5  6  1  0
  6  7  1  0
  7  8  2  0
  7  9  1  0
  9 10  2  0
 10 11  1  0
 11 12  2  0
 12 13  1  0
 13 14  1  0
 14 15  1  0
 15 16  2  0
 15 17  1  0
 17 18  2  0
 18 19  1  0
 19 20  2  0
 20 21  1  0
 13 22  2  0
  5 23  1  0
 23 24  2  0
 24  2  1  0
 22  9  1  0
 21 17  1  0
  1 25  1  0
  1 26  1  0
  1 27  1  0
  3 28  1  0
  4 29  1  0
 10 30  1  0
 11 31  1  0
 12 32  1  0
 18 33  1  0
 19 34  1  0
 20 35  1  0
 22 36  1  0
 23 37  1  0
 24 38  1  0
M  CHG  2   6  -1  14  -1
M  END
>  <UniqueID>  (39) 
36

>  <SMILES>  (39) 
Cc1ccc([N-]C(=O)c2cccc([N-]C(=O)c3ccco3)c2)cc1

>  <Energy>  (39) 
76.80884401353822

>  <Genealogy>  (39) 
Cc1ccc([N-]C(=O)c2cccc([N-]C(=O)c3ccco3)c2)cc1 (protonated)
Cc1ccc([N-]C(=O)c2cccc([N-]C(=O)c3ccco3)c2)cc1 (3D coordinates assigned)
Cc1ccc([N-]C(=O)c2cccc([N-]C(=O)c3ccco3)c2)cc1 (optimized conformer: 76.80884401353822 kcal/mol)

>  <smiles>  (39) 
Cc1ccc(NC(=O)c2cccc(NC(=O)c3ccco3)c2)cc1

>  <score_type>  (39) 
oracle

>  <origin>  (39) 
adgpu

>  <m_score__min__energy>  (39) 
-9.8499999999999996

>  <m_primary>  (39) 
energy

$$$$
39:0
     RDKit          3D

 59 62  0  0  0  0  0  0  0  0999 V2000
   -0.8840   13.5910  -31.9940 C   0  0  0  0  0  0  0  0  0  0  0  0
   -2.1050   14.3590  -32.2980 N   0  0  0  0  0  0  0  0  0  0  0  0
   -3.2800   13.7300  -31.6440 C   0  0  0  0  0  0  0  0  0  0  0  0
   -4.5800   14.0870  -32.3750 C   0  0  0  0  0  0  0  0  0  0  0  0
   -4.5830   13.5460  -33.7530 N   0  0  0  0  0  0  0  0  0  0  0  0
   -5.5630   14.2680  -34.5920 C   0  0  0  0  0  0  0  0  0  0  0  0
   -5.6610   15.7100  -34.1680 C   0  0  0  0  0  0  0  0  0  0  0  0
   -4.6430   16.6200  -34.4860 C   0  0  0  0  0  0  0  0  0  0  0  0
   -4.7430   17.9580  -34.0940 C   0  0  0  0  0  0  0  0  0  0  0  0
   -5.8670   18.4100  -33.3760 C   0  0  0  0  0  0  0  0  0  0  0  0
   -5.9760   19.8320  -32.9650 C   0  0  0  0  0  0  0  0  0  0  0  0
   -4.8710   20.6870  -33.0660 C   0  0  0  0  0  0  0  0  0  0  0  0
   -4.9650   22.0140  -32.6520 C   0  0  0  0  0  0  0  0  0  0  0  0
   -6.1620   22.5190  -32.1260 C   0  0  0  0  0  0  0  0  0  0  0  0
   -6.1580   24.2340  -31.5640 S   0  0  0  0  0  0  0  0  0  0  0  0
   -4.9670   23.9430  -30.2520 C   0  0  0  0  0  0  0  0  0  0  0  0
   -5.1970   22.9390  -29.3050 C   0  0  0  0  0  0  0  0  0  0  0  0
   -4.2700   22.7110  -28.2840 C   0  0  0  0  0  0  0  0  0  0  0  0
   -3.1150   23.4950  -28.1980 C   0  0  0  0  0  0  0  0  0  0  0  0
   -2.8890   24.5200  -29.1280 C   0  0  0  0  0  0  0  0  0  0  0  0
   -1.7140   25.3290  -29.0350 N   0  0  0  0  0  0  0  0  0  0  0  0
   -3.8220   24.7460  -30.1510 C   0  0  0  0  0  0  0  0  0  0  0  0
   -7.3120   21.6900  -32.0770 C   0  0  0  0  0  0  0  0  0  0  0  0
   -8.6500   22.1800  -31.5590 C   0  0  0  0  0  0  0  0  0  0  0  0
   -8.9520   23.4300  -32.0710 F   0  0  0  0  0  0  0  0  0  0  0  0
   -8.6420   22.2930  -30.1810 F   0  0  0  0  0  0  0  0  0  0  0  0
   -9.6410   21.3000  -31.9430 F   0  0  0  0  0  0  0  0  0  0  0  0
   -7.1880   20.3400  -32.4670 C   0  0  0  0  0  0  0  0  0  0  0  0
   -6.8850   17.4930  -33.0610 C   0  0  0  0  0  0  0  0  0  0  0  0
   -6.7820   16.1540  -33.4520 C   0  0  0  0  0  0  0  0  0  0  0  0
   -3.2330   13.5010  -34.3750 C   0  0  0  0  0  0  0  0  0  0  0  0
   -2.2720   14.5370  -33.7670 C   0  0  0  0  0  0  0  0  0  0  0  0
   -0.7613   13.5138  -30.9036 H   0  0  0  0  0  0  0  0  0  0  0  0
   -0.9680   12.5828  -32.4258 H   0  0  0  0  0  0  0  0  0  0  0  0
   -0.0116   14.1033  -32.4258 H   0  0  0  0  0  0  0  0  0  0  0  0
   -1.9770   15.3100  -31.8790 H   0  0  0  0  0  0  0  0  0  0  0  0
   -3.1526   12.6374  -31.6518 H   0  0  0  0  0  0  0  0  0  0  0  0
   -3.3465   14.1059  -30.6123 H   0  0  0  0  0  0  0  0  0  0  0  0
   -5.4312   13.6641  -31.8213 H   0  0  0  0  0  0  0  0  0  0  0  0
   -4.6601   15.1827  -32.4299 H   0  0  0  0  0  0  0  0  0  0  0  0
   -5.2433   14.2210  -35.6435 H   0  0  0  0  0  0  0  0  0  0  0  0
   -6.5490   13.7950  -34.4734 H   0  0  0  0  0  0  0  0  0  0  0  0
   -3.7605   16.2791  -35.0472 H   0  0  0  0  0  0  0  0  0  0  0  0
   -3.9378   18.6630  -34.3482 H   0  0  0  0  0  0  0  0  0  0  0  0
   -3.9227   20.3082  -33.4749 H   0  0  0  0  0  0  0  0  0  0  0  0
   -4.0890   22.6735  -32.7390 H   0  0  0  0  0  0  0  0  0  0  0  0
   -6.1095   22.3276  -29.3641 H   0  0  0  0  0  0  0  0  0  0  0  0
   -4.4491   21.9140  -27.5473 H   0  0  0  0  0  0  0  0  0  0  0  0
   -2.3824   23.3072  -27.3992 H   0  0  0  0  0  0  0  0  0  0  0  0
   -0.9850   25.3010  -29.7820 H   0  0  0  0  0  0  0  0  0  0  0  0
   -1.5630   25.9610  -28.2160 H   0  0  0  0  0  0  0  0  0  0  0  0
   -3.6547   25.5559  -30.8763 H   0  0  0  0  0  0  0  0  0  0  0  0
   -8.0573   19.6716  -32.3796 H   0  0  0  0  0  0  0  0  0  0  0  0
   -7.7701   17.8314  -32.5023 H   0  0  0  0  0  0  0  0  0  0  0  0
   -7.5841   15.4459  -33.1966 H   0  0  0  0  0  0  0  0  0  0  0  0
   -2.8093   12.4967  -34.2271 H   0  0  0  0  0  0  0  0  0  0  0  0
   -3.3480   13.7368  -35.4432 H   0  0  0  0  0  0  0  0  0  0  0  0
   -1.2890   14.4339  -34.2499 H   0  0  0  0  0  0  0  0  0  0  0  0
   -2.7010   15.5353  -33.9384 H   0  0  0  0  0  0  0  0  0  0  0  0
  1  2  1  0
  2  3  1  0
  3  4  1  0
  4  5  1  0
  5  6  1  0
  6  7  1  0
  7  8  2  0
  8  9  1  0
  9 10  2  0
 10 11  1  0
 11 12  2  0
 12 13  1  0
 13 14  2  0
 14 15  1  0
 15 16  1  0
 16 17  2  0
 17 18  1  0
 18 19  2  0
 19 20  1  0
 20 21  1  0
 20 22  2  0
 14 23  1  0
 23 24  1  0
 24 25  1  0
 24 26  1  0
 24 27  1  0
 23 28  2  0
 10 29  1  0
 29 30  2  0
  5 31  1  0
 31 32  1  0
 32  2  1  0
 30  7  1  0
 28 11  1  0
 22 16  1  0
  1 33  1  0
  1 34  1  0
  1 35  1  0
  2 36  1  0
  3 37  1  0
  3 38  1  0
  4 39  1  0
  4 40  1  0
  6 41  1  0
  6 42  1  0
  8 43  1  0
  9 44  1  0
 12 45  1  0
 13 46  1  0
 17 47  1  0
 18 48  1  0
 19 49  1  0
 21 50  1  0
 21 51  1  0
 22 52  1  0
 28 53  1  0
 29 54  1  0
 30 55  1  0
 31 56  1  0
 31 57  1  0
 32 58  1  0
 32 59  1  0
M  CHG  1   2   1
M  END
>  <UniqueID>  (40) 
37

>  <SMILES>  (40) 
C[NH+]1CCN(Cc2ccc(-c3ccc(Sc4cccc(N)c4)c(C(F)(F)F)c3)cc2)CC1

>  <Energy>  (40) 
78.16216186735477

>  <Genealogy>  (40) 
C[NH+]1CCN(Cc2ccc(-c3ccc(Sc4cccc(N)c4)c(C(F)(F)F)c3)cc2)CC1 (protonated)
C[NH+]1CCN(Cc2ccc(-c3ccc(Sc4cccc(N)c4)c(C(F)(F)F)c3)cc2)CC1 (3D coordinates assigned)
C[NH+]1CCN(Cc2ccc(-c3ccc(Sc4cccc(N)c4)c(C(F)(F)F)c3)cc2)CC1 (nonaromatic ring conformer: 78.16216186735477 kcal/mol)

>  <smiles>  (40) 
CN1CCN(Cc2ccc(-c3ccc(Sc4cccc(N)c4)c(C(F)(F)F)c3)cc2)CC1

>  <score_type>  (40) 
oracle

>  <origin>  (40) 
adgpu

>  <m_score__min__energy>  (40) 
-9.5299999999999994

>  <m_primary>  (40) 
energy

$$$$
40:0
     RDKit          3D

 36 38  0  0  0  0  0  0  0  0999 V2000
   -5.8626   22.3307  -29.0131 H   0  0  0  0  0  0  0  0  0  0  0  0
   -5.3770   23.1770  -29.5210 C   0  0  0  0  0  0  0  0  0  0  0  0
   -4.1610   23.6130  -29.1050 N   0  0  0  0  0  0  0  0  0  0  0  0
   -3.5400   24.6620  -29.7150 C   0  0  0  0  0  0  0  0  0  0  0  0
   -2.3650   25.0690  -29.3310 N   0  0  0  0  0  0  0  0  0  0  0  0
   -1.6070   24.5850  -28.2100 C   0  0  0  0  0  0  0  0  0  0  0  0
   -1.7930   25.1920  -26.9600 C   0  0  0  0  0  0  0  0  0  0  0  0
   -2.4876   26.0393  -26.8623 H   0  0  0  0  0  0  0  0  0  0  0  0
   -1.1020   24.7280  -25.8370 C   0  0  0  0  0  0  0  0  0  0  0  0
   -1.2434   25.2191  -24.8629 H   0  0  0  0  0  0  0  0  0  0  0  0
   -0.2320   23.6410  -25.9510 C   0  0  0  0  0  0  0  0  0  0  0  0
    0.3206   23.2839  -25.0695 H   0  0  0  0  0  0  0  0  0  0  0  0
   -0.0640   23.0080  -27.1840 C   0  0  0  0  0  0  0  0  0  0  0  0
    0.6124   22.1449  -27.2701 H   0  0  0  0  0  0  0  0  0  0  0  0
   -0.7540   23.4690  -28.3100 C   0  0  0  0  0  0  0  0  0  0  0  0
   -0.6300   22.9583  -29.2764 H   0  0  0  0  0  0  0  0  0  0  0  0
   -4.1380   25.2690  -30.7740 N   0  0  0  0  0  0  0  0  0  0  0  0
   -5.3540   24.8640  -31.2230 C   0  0  0  0  0  0  0  0  0  0  0  0
   -5.8210   25.3703  -32.0807 H   0  0  0  0  0  0  0  0  0  0  0  0
   -6.0100   23.8050  -30.5950 C   0  0  0  0  0  0  0  0  0  0  0  0
   -7.6180   23.2530  -31.1680 S   0  0  0  0  0  0  0  0  0  0  0  0
   -6.9420   21.8100  -32.0000 C   0  0  0  0  0  0  0  0  0  0  0  0
   -7.7550   20.7260  -32.3630 C   0  0  0  0  0  0  0  0  0  0  0  0
   -9.4770   20.6970  -32.0060 Cl  0  0  0  0  0  0  0  0  0  0  0  0
   -7.1790   19.6320  -33.0140 C   0  0  0  0  0  0  0  0  0  0  0  0
   -7.8076   18.7780  -33.3065 H   0  0  0  0  0  0  0  0  0  0  0  0
   -5.8460   19.6150  -33.2890 N   0  0  0  0  0  0  0  0  0  0  0  0
   -5.4700   18.7720  -33.7780 H   0  0  0  0  0  0  0  0  0  0  0  0
   -5.0300   20.6560  -32.9360 C   0  0  0  0  0  0  0  0  0  0  0  0
   -3.7510   20.6460  -33.1920 N   0  0  0  0  0  0  0  0  0  0  0  0
   -3.0230   19.5760  -33.8640 C   0  0  0  0  0  0  0  0  0  0  0  0
   -2.5711   18.9118  -33.1126 H   0  0  0  0  0  0  0  0  0  0  0  0
   -3.7169   18.9993  -34.4932 H   0  0  0  0  0  0  0  0  0  0  0  0
   -2.2318   20.0097  -34.4932 H   0  0  0  0  0  0  0  0  0  0  0  0
   -5.5730   21.7660  -32.2810 C   0  0  0  0  0  0  0  0  0  0  0  0
   -4.9236   22.6038  -31.9871 H   0  0  0  0  0  0  0  0  0  0  0  0
  1  2  1  0
  2  3  2  0
  3  4  1  0
  4  5  2  3
  5  6  1  0
  6  7  2  0
  7  8  1  0
  7  9  1  0
  9 10  1  0
  9 11  2  0
 11 12  1  0
 11 13  1  0
 13 14  1  0
 13 15  2  0
 15 16  1  0
  4 17  1  0
 17 18  1  0
 18 19  1  0
 18 20  2  0
 20 21  1  0
 21 22  1  0
 22 23  1  0
 23 24  1  0
 23 25  2  0
 25 26  1  0
 25 27  1  0
 27 28  1  0
 27 29  1  0
 29 30  2  0
 30 31  1  0
 31 32  1  0
 31 33  1  0
 31 34  1  0
 29 35  1  0
 35 36  1  0
 20  2  1  0
 35 22  2  0
 15  6  1  0
M  CHG  1  17  -1
M  END
>  <UniqueID>  (41) 
38

>  <SMILES>  (41) 
C/N=c1/cc(Sc2cnc(=Nc3ccccc3)[n-]c2)c(Cl)c[nH]1

>  <Energy>  (41) 
43.2490894254346

>  <Genealogy>  (41) 
CN=c1cc(Sc2cnc(=Nc3ccccc3)[n-]c2)c(Cl)c[nH]1 (protonated)
C/N=c1/cc(Sc2cnc(=Nc3ccccc3)[n-]c2)c(Cl)c[nH]1 (cis-trans isomerization)
C/N=c1/cc(Sc2cnc(=Nc3ccccc3)[n-]c2)c(Cl)c[nH]1 (3D coordinates assigned)
C/N=c1/cc(Sc2cnc(=Nc3ccccc3)[n-]c2)c(Cl)c[nH]1 (optimized conformer: 43.2490894254346 kcal/mol)

>  <smiles>  (41) 
CN=c1cc(Sc2cnc(=Nc3ccccc3)[nH]c2)c(Cl)c[nH]1

>  <score_type>  (41) 
oracle

>  <origin>  (41) 
adgpu

>  <m_score__min__energy>  (41) 
-9.8599999999999994

>  <m_primary>  (41) 
energy

$$$$
41:0
     RDKit          3D

 34 36  0  0  1  0  0  0  0  0999 V2000
   -6.1950   17.5990  -33.5280 Br  0  0  0  0  0  0  0  0  0  0  0  0
   -7.1680   19.0970  -32.8560 C   0  0  0  0  0  0  0  0  0  0  0  0
   -8.4070   18.8980  -32.3370 C   0  0  0  0  0  0  0  0  0  0  0  0
   -9.1140   19.9730  -31.8500 C   0  0  0  0  0  0  0  0  0  0  0  0
   -8.5530   21.2520  -31.8930 C   0  0  0  0  0  0  0  0  0  0  0  0
   -7.2960   21.4840  -32.4140 C   0  0  0  0  0  0  0  0  0  0  0  0
   -6.6700   22.7290  -32.4920 N   0  0  0  0  0  0  0  0  0  0  0  0
   -6.1710   23.5150  -31.4390 C   0  0  0  0  0  0  0  0  0  0  0  0
   -4.8950   23.2500  -30.9040 C   0  0  0  0  0  0  0  0  0  0  0  0
   -4.3920   24.0130  -29.8700 C   0  0  0  0  0  0  0  0  0  0  0  0
   -3.2170   23.7600  -29.3850 N   0  0  0  0  0  0  0  0  0  0  0  0
   -2.6590   24.5240  -28.3170 C   0  0  0  0  0  0  0  0  0  0  0  0
   -3.1850   24.5480  -27.0490 C   0  0  0  0  0  0  0  0  0  0  0  0
   -2.5760   25.3190  -26.0750 C   0  0  0  0  0  0  0  0  0  0  0  0
   -1.4450   26.0780  -26.3300 C   0  0  0  0  0  0  0  0  0  0  0  0
   -0.9210   26.0450  -27.6250 C   0  0  0  0  0  0  0  0  0  0  0  0
   -1.5250   25.2730  -28.6100 C   0  0  0  0  0  0  0  0  0  0  0  0
   -5.0930   25.0300  -29.3390 N   0  0  0  0  0  0  0  0  0  0  0  0
   -6.3060   25.2690  -29.8600 C   0  0  0  0  0  0  0  0  0  0  0  0
   -6.8100   24.5420  -30.8590 N   0  0  0  0  0  0  0  0  0  0  0  0
   -6.6300   20.3630  -32.8900 C   0  0  0  0  0  0  0  0  0  0  0  0
   -8.8409   17.8876  -32.3063 H   0  0  0  0  0  0  0  0  0  0  0  0
  -10.1190   19.8259  -31.4276 H   0  0  0  0  0  0  0  0  0  0  0  0
   -9.1313   22.1008  -31.4992 H   0  0  0  0  0  0  0  0  0  0  0  0
   -6.5520   23.1440  -33.4690 H   0  0  0  0  0  0  0  0  0  0  0  0
   -4.2931   22.4260  -31.3149 H   0  0  0  0  0  0  0  0  0  0  0  0
   -4.0829   23.9593  -26.8096 H   0  0  0  0  0  0  0  0  0  0  0  0
   -3.0048   25.3299  -25.0621 H   0  0  0  0  0  0  0  0  0  0  0  0
   -0.9764   26.6848  -25.5412 H   0  0  0  0  0  0  0  0  0  0  0  0
   -0.0241   26.6343  -27.8664 H   0  0  0  0  0  0  0  0  0  0  0  0
   -1.1040   25.2544  -29.6261 H   0  0  0  0  0  0  0  0  0  0  0  0
   -4.7510   25.6310  -28.5580 H   0  0  0  0  0  0  0  0  0  0  0  0
   -6.9066   26.0938  -29.4489 H   0  0  0  0  0  0  0  0  0  0  0  0
   -5.6237   20.4930  -33.3148 H   0  0  0  0  0  0  0  0  0  0  0  0
  1  2  1  0
  2  3  2  0
  3  4  1  0
  4  5  2  0
  5  6  1  0
  6  7  1  0
  7  8  1  0
  8  9  2  0
  9 10  1  0
 10 11  2  0
 11 12  1  0
 12 13  2  0
 13 14  1  0
 14 15  2  0
 15 16  1  0
 16 17  2  0
 10 18  1  0
 18 19  1  0
 19 20  2  0
  6 21  2  0
 21  2  1  0
 20  8  1  0
 17 12  1  0
  3 22  1  0
  4 23  1  0
  5 24  1  0
  7 25  1  0
  9 26  1  0
 13 27  1  0
 14 28  1  0
 15 29  1  0
 16 30  1  0
 17 31  1  0
 18 32  1  0
 19 33  1  0
 21 34  1  0
M  END
>  <smiles>  (42) 
Brc1cccc(Nc2cc(=Nc3ccccc3)[nH]cn2)c1

>  <score_type>  (42) 
oracle

>  <origin>  (42) 
adgpu

>  <m_score__min__energy>  (42) 
-8.9600000000000009

>  <m_primary>  (42) 
energy

$$$$
42:0
     RDKit          3D

 37 39  0  0  0  0  0  0  0  0999 V2000
   -3.4780   14.1720  -35.3070 C   0  0  0  0  0  0  0  0  0  0  0  0
   -4.1150   15.4110  -34.7510 C   0  0  0  0  0  0  0  0  0  0  0  0
   -5.2380   15.3150  -33.9180 C   0  0  0  0  0  0  0  0  0  0  0  0
   -5.8550   16.4690  -33.4290 C   0  0  0  0  0  0  0  0  0  0  0  0
   -5.3670   17.7430  -33.7740 C   0  0  0  0  0  0  0  0  0  0  0  0
   -6.0230   18.9700  -33.2550 C   0  0  0  0  0  0  0  0  0  0  0  0
   -7.3950   19.1480  -33.0900 C   0  0  0  0  0  0  0  0  0  0  0  0
   -7.5420   20.4240  -32.5880 C   0  0  0  0  0  0  0  0  0  0  0  0
   -6.2940   20.9590  -32.4630 C   0  0  0  0  0  0  0  0  0  0  0  0
   -5.3580   20.0830  -32.8680 N   0  0  0  0  0  0  0  0  0  0  0  0
   -6.0690   22.2960  -31.9140 C   0  0  0  0  0  0  0  0  0  0  0  0
   -4.8990   22.7610  -31.8730 O   0  0  0  0  0  0  0  0  0  0  0  0
   -7.2590   23.0690  -31.4380 C   0  0  0  0  0  0  0  0  0  0  0  0
   -7.1750   24.1550  -30.7210 N   0  0  0  0  0  0  0  0  0  0  0  0
   -5.7470   24.9180  -30.0930 S   0  0  0  0  0  0  0  0  0  0  0  0
   -4.9210   23.7730  -29.0140 C   0  0  0  0  0  0  0  0  0  0  0  0
   -4.8160   25.2800  -31.2170 O   0  0  0  0  0  0  0  0  0  0  0  0
   -6.1180   26.1460  -29.3100 O   0  0  0  0  0  0  0  0  0  0  0  0
   -8.6580   22.6160  -31.8360 C   0  0  0  0  0  0  0  0  0  0  0  0
   -8.7560   21.1590  -32.2310 C   0  0  0  0  0  0  0  0  0  0  0  0
   -9.8820   20.5990  -32.3020 O   0  0  0  0  0  0  0  0  0  0  0  0
   -4.2490   17.8330  -34.6240 C   0  0  0  0  0  0  0  0  0  0  0  0
   -3.6340   16.6760  -35.1140 C   0  0  0  0  0  0  0  0  0  0  0  0
   -3.1465   13.5273  -34.4797 H   0  0  0  0  0  0  0  0  0  0  0  0
   -4.2089   13.6294  -35.9245 H   0  0  0  0  0  0  0  0  0  0  0  0
   -2.6114   14.4507  -35.9245 H   0  0  0  0  0  0  0  0  0  0  0  0
   -5.6357   14.3256  -33.6478 H   0  0  0  0  0  0  0  0  0  0  0  0
   -6.7301   16.3810  -32.7684 H   0  0  0  0  0  0  0  0  0  0  0  0
   -8.1924   18.4238  -33.3130 H   0  0  0  0  0  0  0  0  0  0  0  0
   -4.3250   20.2350  -32.8480 H   0  0  0  0  0  0  0  0  0  0  0  0
   -5.1190   24.0475  -27.9674 H   0  0  0  0  0  0  0  0  0  0  0  0
   -5.2947   22.7559  -29.2034 H   0  0  0  0  0  0  0  0  0  0  0  0
   -3.8379   23.8068  -29.2034 H   0  0  0  0  0  0  0  0  0  0  0  0
   -9.3304   22.7867  -30.9824 H   0  0  0  0  0  0  0  0  0  0  0  0
   -8.9355   23.2010  -32.7253 H   0  0  0  0  0  0  0  0  0  0  0  0
   -3.8556   18.8210  -34.9053 H   0  0  0  0  0  0  0  0  0  0  0  0
   -2.7685   16.7597  -35.7877 H   0  0  0  0  0  0  0  0  0  0  0  0
  1  2  1  0
  2  3  2  0
  3  4  1  0
  4  5  2  0
  5  6  1  0
  6  7  2  0
  7  8  1  0
  8  9  2  0
  9 10  1  0
  9 11  1  0
 11 12  2  0
 11 13  1  0
 13 14  2  3
 14 15  1  0
 15 16  1  0
 15 17  2  0
 15 18  2  0
 13 19  1  0
 19 20  1  0
 20 21  2  0
  5 22  1  0
 22 23  2  0
 23  2  1  0
 10  6  1  0
 20  8  1  0
  1 24  1  0
  1 25  1  0
  1 26  1  0
  3 27  1  0
  4 28  1  0
  7 29  1  0
 10 30  1  0
 16 31  1  0
 16 32  1  0
 16 33  1  0
 19 34  1  0
 19 35  1  0
 22 36  1  0
 23 37  1  0
M  END
>  <UniqueID>  (43) 
39

>  <SMILES>  (43) 
Cc1ccc(-c2cc3c([nH]2)C(=O)C(=NS(C)(=O)=O)CC3=O)cc1

>  <Energy>  (43) 
72.93852830705029

>  <Genealogy>  (43) 
Cc1ccc(-c2cc3c([nH]2)C(=O)C(=NS(C)(=O)=O)CC3=O)cc1 (3D coordinates assigned)
Cc1ccc(-c2cc3c([nH]2)C(=O)C(=NS(C)(=O)=O)CC3=O)cc1 (nonaromatic ring conformer: 72.93852830705029 kcal/mol)

>  <smiles>  (43) 
Cc1ccc(-c2cc3c([nH]2)C(=O)C(=NS(C)(=O)=O)CC3=O)cc1

>  <score_type>  (43) 
oracle

>  <origin>  (43) 
adgpu

>  <m_score__min__energy>  (43) 
-9.1899999999999995

>  <m_primary>  (43) 
energy

$$$$
43:0
     RDKit          3D

 39 40  0  0  0  0  0  0  0  0999 V2000
   -2.7450   22.0250  -31.4800 C   0  0  0  0  0  0  0  0  0  0  0  0
   -4.1330   21.5070  -31.7440 C   0  0  0  0  0  0  0  0  0  0  0  0
   -4.2950   20.4740  -32.6790 C   0  0  0  0  0  0  0  0  0  0  0  0
   -5.5620   19.9740  -32.9720 C   0  0  0  0  0  0  0  0  0  0  0  0
   -5.7630   18.5850  -34.2680 Br  0  0  0  0  0  0  0  0  0  0  0  0
   -6.6850   20.4960  -32.3310 C   0  0  0  0  0  0  0  0  0  0  0  0
   -6.5510   21.5030  -31.3640 C   0  0  0  0  0  0  0  0  0  0  0  0
   -7.7930   22.0690  -30.7310 C   0  0  0  0  0  0  0  0  0  0  0  0
   -5.2650   22.0090  -31.0550 C   0  0  0  0  0  0  0  0  0  0  0  0
   -5.1130   23.0330  -30.0550 N   0  0  0  0  0  0  0  0  0  0  0  0
   -4.6920   22.6900  -28.6910 C   0  0  0  0  0  0  0  0  0  0  0  0
   -3.6290   23.6380  -28.2070 C   0  0  0  0  0  0  0  0  0  0  0  0
   -3.8620   24.4590  -27.0910 C   0  0  0  0  0  0  0  0  0  0  0  0
   -2.8530   25.3000  -26.6120 C   0  0  0  0  0  0  0  0  0  0  0  0
   -1.6030   25.3230  -27.2380 C   0  0  0  0  0  0  0  0  0  0  0  0
   -0.6260   26.1370  -26.7680 F   0  0  0  0  0  0  0  0  0  0  0  0
   -1.3610   24.5050  -28.3470 C   0  0  0  0  0  0  0  0  0  0  0  0
   -0.1480   24.5200  -28.9520 F   0  0  0  0  0  0  0  0  0  0  0  0
   -2.3700   23.6650  -28.8290 C   0  0  0  0  0  0  0  0  0  0  0  0
   -5.2310   24.7010  -30.5260 S   0  0  0  0  0  0  0  0  0  0  0  0
   -6.2370   25.5970  -29.3640 C   0  0  0  0  0  0  0  0  0  0  0  0
   -5.8570   24.8020  -31.8890 O   0  0  0  0  0  0  0  0  0  0  0  0
   -3.8570   25.3060  -30.5750 O   0  0  0  0  0  0  0  0  0  0  0  0
   -2.5773   22.0876  -30.3947 H   0  0  0  0  0  0  0  0  0  0  0  0
   -2.0075   21.3416  -31.9262 H   0  0  0  0  0  0  0  0  0  0  0  0
   -2.6356   23.0245  -31.9262 H   0  0  0  0  0  0  0  0  0  0  0  0
   -3.4133   20.0547  -33.1857 H   0  0  0  0  0  0  0  0  0  0  0  0
   -7.6848   20.1146  -32.5860 H   0  0  0  0  0  0  0  0  0  0  0  0
   -7.6986   22.0260  -29.6359 H   0  0  0  0  0  0  0  0  0  0  0  0
   -7.9218   23.1147  -31.0472 H   0  0  0  0  0  0  0  0  0  0  0  0
   -8.6667   21.4801  -31.0472 H   0  0  0  0  0  0  0  0  0  0  0  0
   -5.5612   22.7492  -28.0194 H   0  0  0  0  0  0  0  0  0  0  0  0
   -4.2804   21.6699  -28.6945 H   0  0  0  0  0  0  0  0  0  0  0  0
   -4.8422   24.4401  -26.5921 H   0  0  0  0  0  0  0  0  0  0  0  0
   -3.0429   25.9447  -25.7412 H   0  0  0  0  0  0  0  0  0  0  0  0
   -2.1765   23.0218  -29.7002 H   0  0  0  0  0  0  0  0  0  0  0  0
   -5.9385   25.3311  -28.3392 H   0  0  0  0  0  0  0  0  0  0  0  0
   -6.0999   26.6776  -29.5172 H   0  0  0  0  0  0  0  0  0  0  0  0
   -7.2946   25.3362  -29.5172 H   0  0  0  0  0  0  0  0  0  0  0  0
  1  2  1  0
  2  3  2  0
  3  4  1  0
  4  5  1  0
  4  6  2  0
  6  7  1  0
  7  8  1  0
  7  9  2  0
  9 10  1  0
 10 11  1  0
 11 12  1  0
 12 13  2  0
 13 14  1  0
 14 15  2  0
 15 16  1  0
 15 17  1  0
 17 18  1  0
 17 19  2  0
 10 20  1  0
 20 21  1  0
 20 22  2  0
 20 23  2  0
  9  2  1  0
 19 12  1  0
  1 24  1  0
  1 25  1  0
  1 26  1  0
  3 27  1  0
  6 28  1  0
  8 29  1  0
  8 30  1  0
  8 31  1  0
 11 32  1  0
 11 33  1  0
 13 34  1  0
 14 35  1  0
 19 36  1  0
 21 37  1  0
 21 38  1  0
 21 39  1  0
M  END
>  <UniqueID>  (44) 
40

>  <SMILES>  (44) 
Cc1cc(Br)cc(C)c1N(Cc1ccc(F)c(F)c1)S(C)(=O)=O

>  <Energy>  (44) 
38.186234035109294

>  <Genealogy>  (44) 
Cc1cc(Br)cc(C)c1N(Cc1ccc(F)c(F)c1)S(C)(=O)=O (3D coordinates assigned)
Cc1cc(Br)cc(C)c1N(Cc1ccc(F)c(F)c1)S(C)(=O)=O (optimized conformer: 38.186234035109294 kcal/mol)

>  <smiles>  (44) 
Cc1cc(Br)cc(C)c1N(Cc1ccc(F)c(F)c1)S(C)(=O)=O

>  <score_type>  (44) 
oracle

>  <origin>  (44) 
adgpu

>  <m_score__min__energy>  (44) 
-8.5500000000000007

>  <m_primary>  (44) 
energy

$$$$
44:0
     RDKit          3D

 36 38  0  0  0  0  0  0  0  0999 V2000
   -1.8110   25.2750  -29.1090 O   0  0  0  0  0  0  0  0  0  0  0  0
   -3.0270   24.5020  -29.5370 S   0  0  0  0  0  0  0  0  0  0  0  0
   -3.9560   24.3600  -28.3630 O   0  0  0  0  0  0  0  0  0  0  0  0
   -3.8740   25.3210  -30.8190 N   0  0  0  0  0  0  0  0  0  0  0  0
   -5.2840   25.5260  -30.4830 C   0  0  0  0  0  0  0  0  0  0  0  0
   -6.0930   24.2910  -30.7740 C   0  0  0  0  0  0  0  0  0  0  0  0
   -6.8150   23.6520  -29.7520 C   0  0  0  0  0  0  0  0  0  0  0  0
   -7.5480   22.4930  -30.0270 C   0  0  0  0  0  0  0  0  0  0  0  0
   -7.5630   21.9640  -31.3200 C   0  0  0  0  0  0  0  0  0  0  0  0
   -6.8450   22.5920  -32.3420 C   0  0  0  0  0  0  0  0  0  0  0  0
   -6.1100   23.7510  -32.0720 C   0  0  0  0  0  0  0  0  0  0  0  0
   -2.5280   22.8990  -30.0940 C   0  0  0  0  0  0  0  0  0  0  0  0
   -3.1170   22.3710  -31.2550 C   0  0  0  0  0  0  0  0  0  0  0  0
   -2.7010   21.1380  -31.7650 C   0  0  0  0  0  0  0  0  0  0  0  0
   -3.4430   20.4960  -33.2200 Cl  0  0  0  0  0  0  0  0  0  0  0  0
   -1.6900   20.4220  -31.1240 C   0  0  0  0  0  0  0  0  0  0  0  0
   -1.1020   20.9300  -29.9650 C   0  0  0  0  0  0  0  0  0  0  0  0
   -1.5230   22.1570  -29.4280 C   0  0  0  0  0  0  0  0  0  0  0  0
   -0.9160   22.6280  -28.2170 N   0  0  0  0  0  0  0  0  0  0  0  0
   -1.3550   22.4440  -26.9610 C   0  0  0  0  0  0  0  0  0  0  0  0
   -0.4290   22.9970  -26.1050 C   0  0  0  0  0  0  0  0  0  0  0  0
    0.5960   23.5100  -26.8180 N   0  0  0  0  0  0  0  0  0  0  0  0
    0.2690   23.2590  -28.1020 C   0  0  0  0  0  0  0  0  0  0  0  0
   -5.3674   25.7668  -29.4129 H   0  0  0  0  0  0  0  0  0  0  0  0
   -5.6736   26.3524  -31.0956 H   0  0  0  0  0  0  0  0  0  0  0  0
   -6.8037   24.0646  -28.7324 H   0  0  0  0  0  0  0  0  0  0  0  0
   -8.1134   21.9973  -29.2242 H   0  0  0  0  0  0  0  0  0  0  0  0
   -8.1403   21.0525  -31.5341 H   0  0  0  0  0  0  0  0  0  0  0  0
   -6.8581   22.1742  -33.3595 H   0  0  0  0  0  0  0  0  0  0  0  0
   -5.5437   24.2414  -32.8775 H   0  0  0  0  0  0  0  0  0  0  0  0
   -3.9122   22.9327  -31.7670 H   0  0  0  0  0  0  0  0  0  0  0  0
   -1.3562   19.4567  -31.5323 H   0  0  0  0  0  0  0  0  0  0  0  0
   -0.3010   20.3637  -29.4673 H   0  0  0  0  0  0  0  0  0  0  0  0
   -2.2884   21.9409  -26.6682 H   0  0  0  0  0  0  0  0  0  0  0  0
   -0.5118   23.0176  -25.0083 H   0  0  0  0  0  0  0  0  0  0  0  0
    0.8991   23.5381  -28.9594 H   0  0  0  0  0  0  0  0  0  0  0  0
  1  2  2  0
  2  3  2  0
  2  4  1  0
  4  5  1  0
  5  6  1  0
  6  7  2  0
  7  8  1  0
  8  9  2  0
  9 10  1  0
 10 11  2  0
  2 12  1  0
 12 13  2  0
 13 14  1  0
 14 15  1  0
 14 16  2  0
 16 17  1  0
 17 18  2  0
 18 19  1  0
 19 20  1  0
 20 21  2  0
 21 22  1  0
 22 23  2  0
 11  6  1  0
 18 12  1  0
 23 19  1  0
  5 24  1  0
  5 25  1  0
  7 26  1  0
  8 27  1  0
  9 28  1  0
 10 29  1  0
 11 30  1  0
 13 31  1  0
 16 32  1  0
 17 33  1  0
 20 34  1  0
 21 35  1  0
 23 36  1  0
M  CHG  1   4  -1
M  END
>  <UniqueID>  (45) 
41

>  <SMILES>  (45) 
O=S(=O)([N-]Cc1ccccc1)c1cc(Cl)ccc1-n1ccnc1

>  <Energy>  (45) 
73.83892372364075

>  <Genealogy>  (45) 
O=S(=O)([N-]Cc1ccccc1)c1cc(Cl)ccc1-n1ccnc1 (protonated)
O=S(=O)([N-]Cc1ccccc1)c1cc(Cl)ccc1-n1ccnc1 (3D coordinates assigned)
O=S(=O)([N-]Cc1ccccc1)c1cc(Cl)ccc1-n1ccnc1 (optimized conformer: 73.83892372364075 kcal/mol)

>  <smiles>  (45) 
O=S(=O)(NCc1ccccc1)c1cc(Cl)ccc1-n1ccnc1

>  <score_type>  (45) 
oracle

>  <origin>  (45) 
adgpu

>  <m_score__min__energy>  (45) 
-8.9600000000000009

>  <m_primary>  (45) 
energy

$$$$
45:0
     RDKit          3D

 42 45  0  0  0  0  0  0  0  0999 V2000
   -7.0636   23.2006  -29.0229 H   0  0  0  0  0  0  0  0  0  0  0  0
   -6.7250   23.0270  -30.0550 C   0  0  0  0  0  0  0  0  0  0  0  0
   -7.0150   21.8930  -30.7430 N   0  0  0  0  0  0  0  0  0  0  0  0
   -6.4940   21.9140  -31.9920 C   0  0  0  0  0  0  0  0  0  0  0  0
   -6.6790   20.5620  -33.1500 S   0  0  0  0  0  0  0  0  0  0  0  0
   -4.9100   20.4120  -33.4120 C   0  0  0  0  0  0  0  0  0  0  0  0
   -4.1080   21.4780  -33.6160 N   0  0  0  0  0  0  0  0  0  0  0  0
   -2.8980   20.9960  -33.8530 N   0  0  0  0  0  0  0  0  0  0  0  0
   -2.0540   21.5840  -34.0330 H   0  0  0  0  0  0  0  0  0  0  0  0
   -2.9810   19.6530  -33.8130 C   0  0  0  0  0  0  0  0  0  0  0  0
   -1.9790   18.8420  -33.9950 N   0  0  0  0  0  0  0  0  0  0  0  0
   -0.6530   19.2620  -34.3360 C   0  0  0  0  0  0  0  0  0  0  0  0
   -0.1260   18.8910  -35.5800 C   0  0  0  0  0  0  0  0  0  0  0  0
   -0.7334   18.2907  -36.2733 H   0  0  0  0  0  0  0  0  0  0  0  0
    1.1650   19.2780  -35.9460 C   0  0  0  0  0  0  0  0  0  0  0  0
    1.5738   18.9765  -36.9217 H   0  0  0  0  0  0  0  0  0  0  0  0
    1.9360   20.0470  -35.0740 C   0  0  0  0  0  0  0  0  0  0  0  0
    2.9575   20.3400  -35.3579 H   0  0  0  0  0  0  0  0  0  0  0  0
    1.4140   20.4460  -33.8410 C   0  0  0  0  0  0  0  0  0  0  0  0
    2.0283   21.0506  -33.1575 H   0  0  0  0  0  0  0  0  0  0  0  0
    0.1090   20.0800  -33.4680 C   0  0  0  0  0  0  0  0  0  0  0  0
   -0.4370   20.5400  -32.1440 C   0  0  0  0  0  0  0  0  0  0  0  0
    0.1280   20.0640  -31.3290 H   0  0  0  0  0  0  0  0  0  0  0  0
   -0.3405   21.6331  -32.0674 H   0  0  0  0  0  0  0  0  0  0  0  0
   -1.4978   20.2593  -32.0674 H   0  0  0  0  0  0  0  0  0  0  0  0
   -4.2330   19.2450  -33.5290 N   0  0  0  0  0  0  0  0  0  0  0  0
   -4.7480   17.9010  -33.5340 C   0  0  0  0  0  0  0  0  0  0  0  0
   -5.9350   17.5940  -34.2170 C   0  0  0  0  0  0  0  0  0  0  0  0
   -6.4767   18.3860  -34.7548 H   0  0  0  0  0  0  0  0  0  0  0  0
   -6.4330   16.2880  -34.2180 C   0  0  0  0  0  0  0  0  0  0  0  0
   -7.3626   16.0546  -34.7578 H   0  0  0  0  0  0  0  0  0  0  0  0
   -5.7510   15.2790  -33.5340 C   0  0  0  0  0  0  0  0  0  0  0  0
   -6.1430   14.2512  -33.5362 H   0  0  0  0  0  0  0  0  0  0  0  0
   -4.5710   15.5750  -32.8470 C   0  0  0  0  0  0  0  0  0  0  0  0
   -4.0348   14.7801  -32.3080 H   0  0  0  0  0  0  0  0  0  0  0  0
   -4.0710   16.8810  -32.8440 C   0  0  0  0  0  0  0  0  0  0  0  0
   -3.1435   17.1109  -32.2991 H   0  0  0  0  0  0  0  0  0  0  0  0
   -5.6410   23.3330  -32.2960 S   0  0  0  0  0  0  0  0  0  0  0  0
   -5.9650   23.9500  -30.7630 C   0  0  0  0  0  0  0  0  0  0  0  0
   -5.5240   25.2180  -30.2720 N   0  0  0  0  0  0  0  0  0  0  0  0
   -6.2890   25.9300  -29.5920 O   0  0  0  0  0  0  0  0  0  0  0  0
   -4.2510   25.6620  -30.5430 O   0  0  0  0  0  0  0  0  0  0  0  0
  1  2  1  0
  2  3  1  0
  3  4  2  0
  4  5  1  0
  5  6  1  0
  6  7  2  0
  7  8  1  0
  8  9  1  0
  8 10  1  0
 10 11  2  0
 11 12  1  0
 12 13  2  0
 13 14  1  0
 13 15  1  0
 15 16  1  0
 15 17  2  0
 17 18  1  0
 17 19  1  0
 19 20  1  0
 19 21  2  0
 21 22  1  0
 22 23  1  0
 22 24  1  0
 22 25  1  0
 10 26  1  0
 26 27  1  0
 27 28  2  0
 28 29  1  0
 28 30  1  0
 30 31  1  0
 30 32  2  0
 32 33  1  0
 32 34  1  0
 34 35  1  0
 34 36  2  0
 36 37  1  0
  4 38  1  0
 38 39  1  0
 39 40  1  0
 40 41  2  0
 40 42  1  0
 39  2  2  0
 26  6  1  0
 36 27  1  0
 21 12  1  0
M  CHG  2  40   1  42  -1
M  END
>  <UniqueID>  (46) 
42

>  <SMILES>  (46) 
Cc1ccccc1/N=c1\[nH]nc(Sc2ncc([N+](=O)[O-])s2)n1-c1ccccc1

>  <Energy>  (46) 
124.83599591592468

>  <Genealogy>  (46) 
Cc1ccccc1/N=c1\[nH]nc(Sc2ncc([N+](=O)[O-])s2)n1-c1ccccc1 (cis-trans isomerization)
Cc1ccccc1/N=c1\[nH]nc(Sc2ncc([N+](=O)[O-])s2)n1-c1ccccc1 (3D coordinates assigned)
Cc1ccccc1/N=c1\[nH]nc(Sc2ncc([N+](=O)[O-])s2)n1-c1ccccc1 (optimized conformer: 124.83599591592468 kcal/mol)

>  <smiles>  (46) 
Cc1ccccc1N=c1[nH]nc(Sc2ncc([N+](=O)[O-])s2)n1-c1ccccc1

>  <score_type>  (46) 
oracle

>  <origin>  (46) 
adgpu

>  <m_score__min__energy>  (46) 
-8.9800000000000004

>  <m_primary>  (46) 
energy

$$$$
46:0
     RDKit          3D

 21 21  0  0  0  0  0  0  0  0999 V2000
   -9.1040   22.0650  -31.6210 C   0  0  0  0  0  0  0  0  0  0  0  0
   -7.7230   21.6240  -31.4560 N   0  0  0  0  0  0  0  0  0  0  0  0
   -6.6370   22.5270  -31.1610 C   0  0  0  0  0  0  0  0  0  0  0  0
   -6.8100   23.5620  -30.2210 C   0  0  0  0  0  0  0  0  0  0  0  0
   -5.7900   24.4880  -29.9670 C   0  0  0  0  0  0  0  0  0  0  0  0
   -5.9980   25.5340  -29.0110 N   0  0  0  0  0  0  0  0  0  0  0  0
   -4.5770   24.3870  -30.6630 C   0  0  0  0  0  0  0  0  0  0  0  0
   -3.5520   25.2990  -30.4350 O   0  0  0  0  0  0  0  0  0  0  0  0
   -4.3870   23.3620  -31.5910 C   0  0  0  0  0  0  0  0  0  0  0  0
   -5.3970   22.4200  -31.8410 C   0  0  0  0  0  0  0  0  0  0  0  0
   -5.1250   21.3480  -32.7530 N   0  0  0  0  0  0  0  0  0  0  0  0
   -9.5628   22.2115  -30.6320 H   0  0  0  0  0  0  0  0  0  0  0  0
   -9.1220   23.0136  -32.1777 H   0  0  0  0  0  0  0  0  0  0  0  0
   -9.6684   21.3024  -32.1777 H   0  0  0  0  0  0  0  0  0  0  0  0
   -7.5400   20.6020  -31.5600 H   0  0  0  0  0  0  0  0  0  0  0  0
   -7.7625   23.6444  -29.6771 H   0  0  0  0  0  0  0  0  0  0  0  0
   -6.7750   25.4740  -28.3170 H   0  0  0  0  0  0  0  0  0  0  0  0
   -5.3790   26.3740  -28.9820 H   0  0  0  0  0  0  0  0  0  0  0  0
   -3.4328   23.2915  -32.1338 H   0  0  0  0  0  0  0  0  0  0  0  0
   -4.9480   20.3720  -32.4320 H   0  0  0  0  0  0  0  0  0  0  0  0
   -4.9800   21.5440  -33.7680 H   0  0  0  0  0  0  0  0  0  0  0  0
  1  2  1  0
  2  3  1  0
  3  4  2  0
  4  5  1  0
  5  6  1  0
  5  7  2  0
  7  8  1  0
  7  9  1  0
  9 10  2  0
 10 11  1  0
 10  3  1  0
  1 12  1  0
  1 13  1  0
  1 14  1  0
  2 15  1  0
  4 16  1  0
  6 17  1  0
  6 18  1  0
  9 19  1  0
 11 20  1  0
 11 21  1  0
M  CHG  1   8  -1
M  END
>  <UniqueID>  (47) 
43

>  <SMILES>  (47) 
CNc1cc(N)c([O-])cc1N

>  <Energy>  (47) 
20.510653092796588

>  <Genealogy>  (47) 
CNc1cc(N)c([O-])cc1N (protonated)
CNc1cc(N)c([O-])cc1N (3D coordinates assigned)
CNc1cc(N)c([O-])cc1N (optimized conformer: 20.510653092796588 kcal/mol)

>  <smiles>  (47) 
CNc1cc(N)c(O)cc1N

>  <score_type>  (47) 
oracle

>  <origin>  (47) 
adgpu

>  <m_score__min__energy>  (47) 
-7.3799999999999999

>  <m_primary>  (47) 
energy

$$$$
47:0
     RDKit          3D

 37 39  0  0  0  0  0  0  0  0999 V2000
   -5.8670   16.9600  -34.2120 C   0  0  0  0  0  0  0  0  0  0  0  0
   -4.6580   17.4910  -33.6780 O   0  0  0  0  0  0  0  0  0  0  0  0
   -4.5450   18.7600  -33.0910 C   0  0  0  0  0  0  0  0  0  0  0  0
   -4.9920   19.0310  -31.7840 C   0  0  0  0  0  0  0  0  0  0  0  0
   -4.8660   20.3160  -31.2490 C   0  0  0  0  0  0  0  0  0  0  0  0
   -4.2980   21.3470  -32.0120 C   0  0  0  0  0  0  0  0  0  0  0  0
   -4.2090   22.7130  -31.4580 C   0  0  0  0  0  0  0  0  0  0  0  0
   -5.1710   23.6970  -31.7800 C   0  0  0  0  0  0  0  0  0  0  0  0
   -6.3350   23.4290  -32.7040 C   0  0  0  0  0  0  0  0  0  0  0  0
   -7.1530   22.2490  -32.2430 C   0  0  0  0  0  0  0  0  0  0  0  0
   -7.2380   21.0890  -33.0310 C   0  0  0  0  0  0  0  0  0  0  0  0
   -7.9770   19.9870  -32.5890 C   0  0  0  0  0  0  0  0  0  0  0  0
   -8.6480   20.0410  -31.3640 C   0  0  0  0  0  0  0  0  0  0  0  0
   -9.3630   18.9710  -30.9360 F   0  0  0  0  0  0  0  0  0  0  0  0
   -8.5850   21.1980  -30.5830 C   0  0  0  0  0  0  0  0  0  0  0  0
   -7.8440   22.3000  -31.0200 C   0  0  0  0  0  0  0  0  0  0  0  0
   -5.0630   24.9330  -31.2230 N   0  0  0  0  0  0  0  0  0  0  0  0
   -4.0740   25.2450  -30.3850 N   0  0  0  0  0  0  0  0  0  0  0  0
   -3.1230   24.3430  -30.0410 C   0  0  0  0  0  0  0  0  0  0  0  0
   -2.2060   24.6780  -29.2470 O   0  0  0  0  0  0  0  0  0  0  0  0
   -3.1710   23.0500  -30.5710 C   0  0  0  0  0  0  0  0  0  0  0  0
   -1.8050   21.7800  -30.0950 Br  0  0  0  0  0  0  0  0  0  0  0  0
   -3.8420   21.0760  -33.3090 C   0  0  0  0  0  0  0  0  0  0  0  0
   -3.9670   19.7910  -33.8430 C   0  0  0  0  0  0  0  0  0  0  0  0
   -6.5342   16.6670  -33.3880 H   0  0  0  0  0  0  0  0  0  0  0  0
   -6.3614   17.7238  -34.8302 H   0  0  0  0  0  0  0  0  0  0  0  0
   -5.6391   16.0792  -34.8302 H   0  0  0  0  0  0  0  0  0  0  0  0
   -5.4422   18.2283  -31.1814 H   0  0  0  0  0  0  0  0  0  0  0  0
   -5.2136   20.5197  -30.2255 H   0  0  0  0  0  0  0  0  0  0  0  0
   -6.9795   24.3199  -32.7331 H   0  0  0  0  0  0  0  0  0  0  0  0
   -5.9344   23.1994  -33.7024 H   0  0  0  0  0  0  0  0  0  0  0  0
   -6.7205   21.0473  -34.0008 H   0  0  0  0  0  0  0  0  0  0  0  0
   -8.0302   19.0776  -33.2055 H   0  0  0  0  0  0  0  0  0  0  0  0
   -9.1194   21.2418  -29.6226 H   0  0  0  0  0  0  0  0  0  0  0  0
   -7.8015   23.2106  -30.4043 H   0  0  0  0  0  0  0  0  0  0  0  0
   -3.3845   21.8770  -33.9082 H   0  0  0  0  0  0  0  0  0  0  0  0
   -3.6085   19.5871  -34.8627 H   0  0  0  0  0  0  0  0  0  0  0  0
  1  2  1  0
  2  3  1  0
  3  4  2  0
  4  5  1  0
  5  6  2  0
  6  7  1  0
  7  8  1  0
  8  9  1  0
  9 10  1  0
 10 11  2  0
 11 12  1  0
 12 13  2  0
 13 14  1  0
 13 15  1  0
 15 16  2  0
  8 17  2  0
 17 18  1  0
 18 19  1  0
 19 20  2  0
 19 21  1  0
 21 22  1  0
  6 23  1  0
 23 24  2  0
 24  3  1  0
 21  7  2  0
 16 10  1  0
  1 25  1  0
  1 26  1  0
  1 27  1  0
  4 28  1  0
  5 29  1  0
  9 30  1  0
  9 31  1  0
 11 32  1  0
 12 33  1  0
 15 34  1  0
 16 35  1  0
 23 36  1  0
 24 37  1  0
M  CHG  1  18  -1
M  END
>  <UniqueID>  (48) 
44

>  <SMILES>  (48) 
COc1ccc(-c2c(Cc3ccc(F)cc3)n[n-]c(=O)c2Br)cc1

>  <Energy>  (48) 
47.037023058773464

>  <Genealogy>  (48) 
COc1ccc(-c2c(Cc3ccc(F)cc3)n[n-]c(=O)c2Br)cc1 (protonated)
COc1ccc(-c2c(Cc3ccc(F)cc3)n[n-]c(=O)c2Br)cc1 (3D coordinates assigned)
COc1ccc(-c2c(Cc3ccc(F)cc3)n[n-]c(=O)c2Br)cc1 (optimized conformer: 47.037023058773464 kcal/mol)

>  <smiles>  (48) 
COc1ccc(-c2c(Cc3ccc(F)cc3)n[nH]c(=O)c2Br)cc1

>  <score_type>  (48) 
oracle

>  <origin>  (48) 
adgpu

>  <m_score__min__energy>  (48) 
-9.1999999999999993

>  <m_primary>  (48) 
energy

$$$$
48:0
     RDKit          3D

 35 37  0  0  0  0  0  0  0  0999 V2000
   -3.9883   22.3555  -34.0725 H   0  0  0  0  0  0  0  0  0  0  0  0
   -3.7650   21.9210  -33.0870 C   0  0  0  0  0  0  0  0  0  0  0  0
   -2.7570   22.2660  -32.3190 O   0  0  0  0  0  0  0  0  0  0  0  0
   -2.7960   21.5450  -31.2210 C   0  0  0  0  0  0  0  0  0  0  0  0
   -1.8070   21.6730  -30.1370 C   0  0  0  0  0  0  0  0  0  0  0  0
   -1.5640   20.6660  -29.4190 O   0  0  0  0  0  0  0  0  0  0  0  0
   -1.1300   22.9170  -29.8860 N   0  0  0  0  0  0  0  0  0  0  0  0
   -1.3460   23.7520  -30.4720 H   0  0  0  0  0  0  0  0  0  0  0  0
   -0.2360   23.1160  -28.7450 C   0  0  0  0  0  0  0  0  0  0  0  0
   -0.5419   22.4471  -27.9270 H   0  0  0  0  0  0  0  0  0  0  0  0
    0.7930   22.8906  -29.0617 H   0  0  0  0  0  0  0  0  0  0  0  0
   -0.2900   24.5680  -28.2530 C   0  0  0  0  0  0  0  0  0  0  0  0
    0.2528   24.6348  -27.2986 H   0  0  0  0  0  0  0  0  0  0  0  0
    0.1680   25.1957  -29.0316 H   0  0  0  0  0  0  0  0  0  0  0  0
   -1.7190   25.0760  -28.0380 C   0  0  0  0  0  0  0  0  0  0  0  0
   -2.2751   24.3473  -27.4299 H   0  0  0  0  0  0  0  0  0  0  0  0
   -1.6788   26.0466  -27.5219 H   0  0  0  0  0  0  0  0  0  0  0  0
   -2.3960   25.2490  -29.3200 N   0  0  0  0  0  0  0  0  0  0  0  0
   -3.5220   24.6850  -29.6320 C   0  0  0  0  0  0  0  0  0  0  0  0
   -4.1150   24.8790  -30.8340 N   0  0  0  0  0  0  0  0  0  0  0  0
   -5.2800   24.1880  -30.9130 C   0  0  0  0  0  0  0  0  0  0  0  0
   -6.1220   24.1870  -32.0270 C   0  0  0  0  0  0  0  0  0  0  0  0
   -5.8656   24.7693  -32.9244 H   0  0  0  0  0  0  0  0  0  0  0  0
   -7.3040   23.4270  -31.9790 C   0  0  0  0  0  0  0  0  0  0  0  0
   -7.9796   23.4121  -32.8470 H   0  0  0  0  0  0  0  0  0  0  0  0
   -7.6290   22.6840  -30.8260 C   0  0  0  0  0  0  0  0  0  0  0  0
   -8.5569   22.0939  -30.7991 H   0  0  0  0  0  0  0  0  0  0  0  0
   -6.7750   22.6930  -29.7120 C   0  0  0  0  0  0  0  0  0  0  0  0
   -7.0193   22.1166  -28.8075 H   0  0  0  0  0  0  0  0  0  0  0  0
   -5.6100   23.4520  -29.7840 C   0  0  0  0  0  0  0  0  0  0  0  0
   -4.4170   23.6510  -28.6210 S   0  0  0  0  0  0  0  0  0  0  0  0
   -3.8790   20.6860  -31.2640 C   0  0  0  0  0  0  0  0  0  0  0  0
   -4.1813   19.9588  -30.4960 H   0  0  0  0  0  0  0  0  0  0  0  0
   -4.5010   20.9310  -32.4700 C   0  0  0  0  0  0  0  0  0  0  0  0
   -5.4024   20.4366  -32.8612 H   0  0  0  0  0  0  0  0  0  0  0  0
  1  2  1  0
  2  3  1  0
  3  4  1  0
  4  5  1  0
  5  6  2  0
  5  7  1  0
  7  8  1  0
  7  9  1  0
  9 10  1  0
  9 11  1  0
  9 12  1  0
 12 13  1  0
 12 14  1  0
 12 15  1  0
 15 16  1  0
 15 17  1  0
 15 18  1  0
 18 19  2  0
 19 20  1  0
 20 21  1  0
 21 22  2  0
 22 23  1  0
 22 24  1  0
 24 25  1  0
 24 26  2  0
 26 27  1  0
 26 28  1  0
 28 29  1  0
 28 30  2  0
 30 31  1  0
  4 32  2  0
 32 33  1  0
 32 34  1  0
 34 35  1  0
 34  2  2  0
 31 19  1  0
 30 21  1  0
M  CHG  1  20  -1
M  END
>  <UniqueID>  (49) 
45

>  <SMILES>  (49) 
O=C(NCCC/N=c1/[n-]c2ccccc2s1)c1ccco1

>  <Energy>  (49) 
91.22802416962345

>  <Genealogy>  (49) 
O=C(NCCCN=c1[n-]c2ccccc2s1)c1ccco1 (protonated)
O=C(NCCC/N=c1/[n-]c2ccccc2s1)c1ccco1 (cis-trans isomerization)
O=C(NCCC/N=c1/[n-]c2ccccc2s1)c1ccco1 (3D coordinates assigned)
O=C(NCCC/N=c1/[n-]c2ccccc2s1)c1ccco1 (optimized conformer: 91.22802416962345 kcal/mol)

>  <smiles>  (49) 
O=C(NCCCN=c1[nH]c2ccccc2s1)c1ccco1

>  <score_type>  (49) 
oracle

>  <origin>  (49) 
adgpu

>  <m_score__min__energy>  (49) 
-8.8100000000000005

>  <m_primary>  (49) 
energy

$$$$
49:0
     RDKit          3D

 38 39  0  0  0  0  0  0  0  0999 V2000
   -7.9920   23.7730  -31.6050 C   0  0  0  0  0  0  0  0  0  0  0  0
   -7.1650   22.5740  -31.6970 N   0  0  0  0  0  0  0  0  0  0  0  0
   -7.5930   21.4520  -32.2540 N   0  0  0  0  0  0  0  0  0  0  0  0
   -6.6120   20.5320  -32.1420 C   0  0  0  0  0  0  0  0  0  0  0  0
   -6.7100   19.1020  -32.6450 C   0  0  0  0  0  0  0  0  0  0  0  0
   -5.9300   18.1730  -31.6950 C   0  0  0  0  0  0  0  0  0  0  0  0
   -6.1100   19.0160  -34.0610 C   0  0  0  0  0  0  0  0  0  0  0  0
   -8.1820   18.6440  -32.6970 C   0  0  0  0  0  0  0  0  0  0  0  0
   -5.5260   21.0920  -31.4870 C   0  0  0  0  0  0  0  0  0  0  0  0
   -5.9060   22.3960  -31.2350 C   0  0  0  0  0  0  0  0  0  0  0  0
   -5.0730   23.3960  -30.5350 C   0  0  0  0  0  0  0  0  0  0  0  0
   -4.4130   24.2270  -31.2160 O   0  0  0  0  0  0  0  0  0  0  0  0
   -5.0740   23.4840  -29.1030 N   0  0  0  0  0  0  0  0  0  0  0  0
   -4.0050   24.0690  -28.3390 C   0  0  0  0  0  0  0  0  0  0  0  0
   -4.2140   24.5450  -27.0310 C   0  0  0  0  0  0  0  0  0  0  0  0
   -3.1630   25.1320  -26.3180 C   0  0  0  0  0  0  0  0  0  0  0  0
   -1.9010   25.2580  -26.9050 C   0  0  0  0  0  0  0  0  0  0  0  0
   -0.8840   25.8280  -26.2130 F   0  0  0  0  0  0  0  0  0  0  0  0
   -1.6900   24.8050  -28.2100 C   0  0  0  0  0  0  0  0  0  0  0  0
   -2.7380   24.2190  -28.9270 C   0  0  0  0  0  0  0  0  0  0  0  0
   -8.1627   24.0204  -30.5469 H   0  0  0  0  0  0  0  0  0  0  0  0
   -7.4790   24.6111  -32.0994 H   0  0  0  0  0  0  0  0  0  0  0  0
   -8.9577   23.5912  -32.0994 H   0  0  0  0  0  0  0  0  0  0  0  0
   -6.1556   18.4416  -30.6524 H   0  0  0  0  0  0  0  0  0  0  0  0
   -6.2266   17.1295  -31.8772 H   0  0  0  0  0  0  0  0  0  0  0  0
   -4.8509   18.2846  -31.8772 H   0  0  0  0  0  0  0  0  0  0  0  0
   -5.0234   18.8603  -33.9900 H   0  0  0  0  0  0  0  0  0  0  0  0
   -6.5665   18.1741  -34.6021 H   0  0  0  0  0  0  0  0  0  0  0  0
   -6.3116   19.9522  -34.6021 H   0  0  0  0  0  0  0  0  0  0  0  0
   -8.5653   18.5247  -31.6729 H   0  0  0  0  0  0  0  0  0  0  0  0
   -8.7821   19.3979  -33.2276 H   0  0  0  0  0  0  0  0  0  0  0  0
   -8.2484   17.6827  -33.2276 H   0  0  0  0  0  0  0  0  0  0  0  0
   -4.5741   20.6063  -31.2262 H   0  0  0  0  0  0  0  0  0  0  0  0
   -5.9460   23.2090  -28.6000 H   0  0  0  0  0  0  0  0  0  0  0  0
   -5.2075   24.4551  -26.5675 H   0  0  0  0  0  0  0  0  0  0  0  0
   -3.3304   25.4951  -25.2932 H   0  0  0  0  0  0  0  0  0  0  0  0
   -0.6981   24.9095  -28.6740 H   0  0  0  0  0  0  0  0  0  0  0  0
   -2.5692   23.8734  -29.9576 H   0  0  0  0  0  0  0  0  0  0  0  0
  1  2  1  0
  2  3  1  0
  3  4  2  0
  4  5  1  0
  5  6  1  0
  5  7  1  0
  5  8  1  0
  4  9  1  0
  9 10  2  0
 10 11  1  0
 11 12  2  0
 11 13  1  0
 13 14  1  0
 14 15  2  0
 15 16  1  0
 16 17  2  0
 17 18  1  0
 17 19  1  0
 19 20  2  0
 10  2  1  0
 20 14  1  0
  1 21  1  0
  1 22  1  0
  1 23  1  0
  6 24  1  0
  6 25  1  0
  6 26  1  0
  7 27  1  0
  7 28  1  0
  7 29  1  0
  8 30  1  0
  8 31  1  0
  8 32  1  0
  9 33  1  0
 13 34  1  0
 15 35  1  0
 16 36  1  0
 19 37  1  0
 20 38  1  0
M  END
>  <UniqueID>  (50) 
46

>  <SMILES>  (50) 
Cn1nc(C(C)(C)C)cc1C(=O)Nc1ccc(F)cc1

>  <Energy>  (50) 
68.7424719099972

>  <Genealogy>  (50) 
Cn1nc(C(C)(C)C)cc1C(=O)Nc1ccc(F)cc1 (3D coordinates assigned)
Cn1nc(C(C)(C)C)cc1C(=O)Nc1ccc(F)cc1 (optimized conformer: 68.7424719099972 kcal/mol)

>  <smiles>  (50) 
Cn1nc(C(C)(C)C)cc1C(=O)Nc1ccc(F)cc1

>  <score_type>  (50) 
oracle

>  <origin>  (50) 
adgpu

>  <m_score__min__energy>  (50) 
-7.4299999999999997

>  <m_primary>  (50) 
energy

$$$$
