0:0
     RDKit          3D

 55 58  0  0  0  0  0  0  0  0999 V2000
    1.0850   25.0170  -27.0280 C   0  0  0  0  0  0  0  0  0  0  0  0
    0.4500   24.5490  -28.2150 O   0  0  0  0  0  0  0  0  0  0  0  0
   -0.8180   23.9470  -28.2460 C   0  0  0  0  0  0  0  0  0  0  0  0
   -1.0330   22.8070  -27.4600 C   0  0  0  0  0  0  0  0  0  0  0  0
   -2.2720   22.1610  -27.4730 C   0  0  0  0  0  0  0  0  0  0  0  0
   -3.3070   22.6450  -28.2760 C   0  0  0  0  0  0  0  0  0  0  0  0
   -3.1110   23.7850  -29.0670 C   0  0  0  0  0  0  0  0  0  0  0  0
   -4.3960   24.3280  -30.1450 S   0  0  0  0  0  0  0  0  0  0  0  0
   -4.2470   25.7880  -30.4760 O   0  0  0  0  0  0  0  0  0  0  0  0
   -5.7200   24.1120  -29.4650 O   0  0  0  0  0  0  0  0  0  0  0  0
   -4.3380   23.4030  -31.6120 N   0  0  0  0  0  0  0  0  0  0  0  0
   -5.0430   22.1730  -31.8140 C   0  0  0  0  0  0  0  0  0  0  0  0
   -6.4500   22.1090  -31.6700 C   0  0  0  0  0  0  0  0  0  0  0  0
   -7.0870   20.9040  -31.9690 C   0  0  0  0  0  0  0  0  0  0  0  0
   -6.3890   19.7950  -32.3700 C   0  0  0  0  0  0  0  0  0  0  0  0
   -5.0010   19.8100  -32.4990 C   0  0  0  0  0  0  0  0  0  0  0  0
   -4.3180   21.0140  -32.2130 C   0  0  0  0  0  0  0  0  0  0  0  0
   -2.8940   21.0710  -32.3820 N   0  0  0  0  0  0  0  0  0  0  0  0
   -2.0400   21.5170  -31.2730 C   0  0  0  0  0  0  0  0  0  0  0  0
   -0.6900   20.7930  -31.3180 C   0  0  0  0  0  0  0  0  0  0  0  0
    0.0300   20.9900  -32.6670 C   0  0  0  0  0  0  0  0  0  0  0  0
   -0.9250   21.2230  -33.8540 C   0  0  0  0  0  0  0  0  0  0  0  0
   -2.2990   20.5880  -33.6350 C   0  0  0  0  0  0  0  0  0  0  0  0
   -7.2480   18.7750  -32.5860 N   0  0  0  0  0  0  0  0  0  0  0  0
   -6.9260   17.4060  -32.9840 C   0  0  0  0  0  0  0  0  0  0  0  0
   -8.4660   19.3000  -32.2950 C   0  0  0  0  0  0  0  0  0  0  0  0
   -9.5430   18.6400  -32.3530 O   0  0  0  0  0  0  0  0  0  0  0  0
   -8.4050   20.6100  -31.9280 N   0  0  0  0  0  0  0  0  0  0  0  0
   -9.5050   21.4870  -31.5220 C   0  0  0  0  0  0  0  0  0  0  0  0
   -1.8700   24.4400  -29.0470 C   0  0  0  0  0  0  0  0  0  0  0  0
    0.5531   24.6250  -26.1486 H   0  0  0  0  0  0  0  0  0  0  0  0
    2.1289   24.6706  -27.0096 H   0  0  0  0  0  0  0  0  0  0  0  0
    1.0632   26.1166  -27.0096 H   0  0  0  0  0  0  0  0  0  0  0  0
   -0.2208   22.4179  -26.8284 H   0  0  0  0  0  0  0  0  0  0  0  0
   -2.4325   21.2692  -26.8493 H   0  0  0  0  0  0  0  0  0  0  0  0
   -4.2789   22.1299  -28.2876 H   0  0  0  0  0  0  0  0  0  0  0  0
   -7.0245   22.9841  -31.3321 H   0  0  0  0  0  0  0  0  0  0  0  0
   -4.4527   18.9101  -32.8145 H   0  0  0  0  0  0  0  0  0  0  0  0
   -1.8735   22.6011  -31.3563 H   0  0  0  0  0  0  0  0  0  0  0  0
   -2.5393   21.2850  -30.3207 H   0  0  0  0  0  0  0  0  0  0  0  0
   -0.0502   21.1856  -30.5140 H   0  0  0  0  0  0  0  0  0  0  0  0
   -0.8786   19.7170  -31.1891 H   0  0  0  0  0  0  0  0  0  0  0  0
    0.6953   21.8618  -32.5809 H   0  0  0  0  0  0  0  0  0  0  0  0
    0.5792   20.0600  -32.8756 H   0  0  0  0  0  0  0  0  0  0  0  0
   -1.0555   22.3062  -33.9941 H   0  0  0  0  0  0  0  0  0  0  0  0
   -0.4767   20.7510  -34.7407 H   0  0  0  0  0  0  0  0  0  0  0  0
   -2.9584   20.8528  -34.4747 H   0  0  0  0  0  0  0  0  0  0  0  0
   -2.1813   19.4959  -33.5757 H   0  0  0  0  0  0  0  0  0  0  0  0
   -6.7806   16.7877  -32.0859 H   0  0  0  0  0  0  0  0  0  0  0  0
   -7.7518   16.9944  -33.5828 H   0  0  0  0  0  0  0  0  0  0  0  0
   -6.0033   17.4057  -33.5828 H   0  0  0  0  0  0  0  0  0  0  0  0
   -9.5556   21.5273  -30.4239 H   0  0  0  0  0  0  0  0  0  0  0  0
   -9.3330   22.4985  -31.9185 H   0  0  0  0  0  0  0  0  0  0  0  0
  -10.4528   21.0940  -31.9185 H   0  0  0  0  0  0  0  0  0  0  0  0
   -1.7167   25.3415  -29.6583 H   0  0  0  0  0  0  0  0  0  0  0  0
  1  2  1  0
  2  3  1  0
  3  4  2  0
  4  5  1  0
  5  6  2  0
  6  7  1  0
  7  8  1  0
  8  9  2  0
  8 10  2  0
  8 11  1  0
 11 12  1  0
 12 13  2  0
 13 14  1  0
 14 15  2  0
 15 16  1  0
 16 17  2  0
 17 18  1  0
 18 19  1  0
 19 20  1  0
 20 21  1  0
 21 22  1  0
 22 23  1  0
 15 24  1  0
 24 25  1  0
 24 26  1  0
 26 27  2  0
 26 28  1  0
 28 29  1  0
  7 30  2  0
 30  3  1  0
 17 12  1  0
 23 18  1  0
 28 14  1  0
  1 31  1  0
  1 32  1  0
  1 33  1  0
  4 34  1  0
  5 35  1  0
  6 36  1  0
 13 37  1  0
 16 38  1  0
 19 39  1  0
 19 40  1  0
 20 41  1  0
 20 42  1  0
 21 43  1  0
 21 44  1  0
 22 45  1  0
 22 46  1  0
 23 47  1  0
 23 48  1  0
 25 49  1  0
 25 50  1  0
 25 51  1  0
 29 52  1  0
 29 53  1  0
 29 54  1  0
 30 55  1  0
M  CHG  1  11  -1
M  END
>  <UniqueID>  (1) 
1

>  <SMILES>  (1) 
COc1cccc(S(=O)(=O)[N-]c2cc3c(cc2N2CCCCC2)n(C)c(=O)n3C)c1

>  <Energy>  (1) 
105.62648070123906

>  <Genealogy>  (1) 
COc1cccc(S(=O)(=O)[N-]c2cc3c(cc2N2CCCCC2)n(C)c(=O)n3C)c1 (protonated)
COc1cccc(S(=O)(=O)[N-]c2cc3c(cc2N2CCCCC2)n(C)c(=O)n3C)c1 (3D coordinates assigned)
COc1cccc(S(=O)(=O)[N-]c2cc3c(cc2N2CCCCC2)n(C)c(=O)n3C)c1 (nonaromatic ring conformer: 105.62648070123906 kcal/mol)

>  <smiles>  (1) 
COc1cccc(S(=O)(=O)Nc2cc3c(cc2N2CCCCC2)n(C)c(=O)n3C)c1

>  <score_type>  (1) 
oracle

>  <origin>  (1) 
adgpu

>  <m_score__min__energy>  (1) 
-10.51

>  <m_primary>  (1) 
energy

$$$$
1:0
     RDKit          3D

 50 53  0  0  0  0  0  0  0  0999 V2000
   -3.4630   24.9640  -26.6450 C   0  0  0  0  0  0  0  0  0  0  0  0
   -2.5560   24.0720  -27.4280 C   0  0  0  0  0  0  0  0  0  0  0  0
   -1.7860   23.1130  -26.8790 N   0  0  0  0  0  0  0  0  0  0  0  0
   -1.1570   22.4900  -27.8650 N   0  0  0  0  0  0  0  0  0  0  0  0
   -0.2010   21.4100  -27.6400 C   0  0  0  0  0  0  0  0  0  0  0  0
   -1.5070   23.0310  -29.0560 C   0  0  0  0  0  0  0  0  0  0  0  0
   -0.9090   22.6500  -30.3790 C   0  0  0  0  0  0  0  0  0  0  0  0
   -2.4290   24.0380  -28.8010 C   0  0  0  0  0  0  0  0  0  0  0  0
   -3.1050   24.9180  -29.7070 N   0  0  0  0  0  0  0  0  0  0  0  0
   -4.7760   24.8280  -30.1600 S   0  0  0  0  0  0  0  0  0  0  0  0
   -5.0570   25.8550  -31.2210 O   0  0  0  0  0  0  0  0  0  0  0  0
   -5.6570   25.0560  -28.9670 O   0  0  0  0  0  0  0  0  0  0  0  0
   -5.1030   23.2280  -30.8170 C   0  0  0  0  0  0  0  0  0  0  0  0
   -4.0660   22.4640  -31.3660 C   0  0  0  0  0  0  0  0  0  0  0  0
   -4.3290   21.1980  -31.8960 C   0  0  0  0  0  0  0  0  0  0  0  0
   -5.6360   20.6770  -31.8890 C   0  0  0  0  0  0  0  0  0  0  0  0
   -5.9170   19.3320  -32.4520 C   0  0  0  0  0  0  0  0  0  0  0  0
   -7.2520   18.8620  -32.5570 C   0  0  0  0  0  0  0  0  0  0  0  0
   -7.5270   17.5910  -33.0880 C   0  0  0  0  0  0  0  0  0  0  0  0
   -6.4550   16.8110  -33.5090 C   0  0  0  0  0  0  0  0  0  0  0  0
   -5.1520   17.2480  -33.4160 C   0  0  0  0  0  0  0  0  0  0  0  0
   -4.8550   18.5060  -32.8910 C   0  0  0  0  0  0  0  0  0  0  0  0
   -4.1940   16.2150  -33.9430 C   0  0  0  0  0  0  0  0  0  0  0  0
   -5.0780   15.1200  -34.3530 N   0  0  0  0  0  0  0  0  0  0  0  0
   -4.6470   13.8590  -34.9400 C   0  0  0  0  0  0  0  0  0  0  0  0
   -6.4260   15.4920  -34.0880 C   0  0  0  0  0  0  0  0  0  0  0  0
   -7.4270   14.7660  -34.3290 O   0  0  0  0  0  0  0  0  0  0  0  0
   -6.6740   21.4540  -31.3420 C   0  0  0  0  0  0  0  0  0  0  0  0
   -6.4090   22.7200  -30.8130 C   0  0  0  0  0  0  0  0  0  0  0  0
   -3.2980   24.8018  -25.5696 H   0  0  0  0  0  0  0  0  0  0  0  0
   -3.2497   26.0139  -26.8944 H   0  0  0  0  0  0  0  0  0  0  0  0
   -4.5092   24.7332  -26.8944 H   0  0  0  0  0  0  0  0  0  0  0  0
   -0.0668   21.2584  -26.5588 H   0  0  0  0  0  0  0  0  0  0  0  0
   -0.5804   20.4836  -28.0958 H   0  0  0  0  0  0  0  0  0  0  0  0
    0.7646   21.6742  -28.0958 H   0  0  0  0  0  0  0  0  0  0  0  0
    0.0080   22.0658  -30.2123 H   0  0  0  0  0  0  0  0  0  0  0  0
   -1.6310   22.0450  -30.9471 H   0  0  0  0  0  0  0  0  0  0  0  0
   -0.6658   23.5600  -30.9471 H   0  0  0  0  0  0  0  0  0  0  0  0
   -3.0405   22.8618  -31.3802 H   0  0  0  0  0  0  0  0  0  0  0  0
   -3.5073   20.6038  -32.3223 H   0  0  0  0  0  0  0  0  0  0  0  0
   -8.0812   19.5006  -32.2185 H   0  0  0  0  0  0  0  0  0  0  0  0
   -8.5605   17.2230  -33.1686 H   0  0  0  0  0  0  0  0  0  0  0  0
   -3.8127   18.8501  -32.8195 H   0  0  0  0  0  0  0  0  0  0  0  0
   -3.6249   16.6049  -34.7998 H   0  0  0  0  0  0  0  0  0  0  0  0
   -3.4397   15.9079  -33.2036 H   0  0  0  0  0  0  0  0  0  0  0  0
   -4.4033   13.1459  -34.1387 H   0  0  0  0  0  0  0  0  0  0  0  0
   -5.4560   13.4488  -35.5624 H   0  0  0  0  0  0  0  0  0  0  0  0
   -3.7562   14.0298  -35.5624 H   0  0  0  0  0  0  0  0  0  0  0  0
   -7.7017   21.0619  -31.3308 H   0  0  0  0  0  0  0  0  0  0  0  0
   -7.2289   23.3202  -30.3917 H   0  0  0  0  0  0  0  0  0  0  0  0
  1  2  1  0
  2  3  2  0
  3  4  1  0
  4  5  1  0
  4  6  1  0
  6  7  1  0
  6  8  2  0
  8  9  1  0
  9 10  1  0
 10 11  2  0
 10 12  2  0
 10 13  1  0
 13 14  2  0
 14 15  1  0
 15 16  2  0
 16 17  1  0
 17 18  2  0
 18 19  1  0
 19 20  2  0
 20 21  1  0
 21 22  2  0
 21 23  1  0
 23 24  1  0
 24 25  1  0
 24 26  1  0
 26 27  2  0
 16 28  1  0
 28 29  2  0
  8  2  1  0
 29 13  1  0
 22 17  1  0
 26 20  1  0
  1 30  1  0
  1 31  1  0
  1 32  1  0
  5 33  1  0
  5 34  1  0
  5 35  1  0
  7 36  1  0
  7 37  1  0
  7 38  1  0
 14 39  1  0
 15 40  1  0
 18 41  1  0
 19 42  1  0
 22 43  1  0
 23 44  1  0
 23 45  1  0
 25 46  1  0
 25 47  1  0
 25 48  1  0
 28 49  1  0
 29 50  1  0
M  CHG  1   9  -1
M  END
>  <UniqueID>  (2) 
2

>  <SMILES>  (2) 
Cc1nn(C)c(C)c1[N-]S(=O)(=O)c1ccc(-c2ccc3c(c2)CN(C)C3=O)cc1

>  <Energy>  (2) 
114.42704643467431

>  <Genealogy>  (2) 
Cc1nn(C)c(C)c1[N-]S(=O)(=O)c1ccc(-c2ccc3c(c2)CN(C)C3=O)cc1 (protonated)
Cc1nn(C)c(C)c1[N-]S(=O)(=O)c1ccc(-c2ccc3c(c2)CN(C)C3=O)cc1 (3D coordinates assigned)
Cc1nn(C)c(C)c1[N-]S(=O)(=O)c1ccc(-c2ccc3c(c2)CN(C)C3=O)cc1 (nonaromatic ring conformer: 114.42704643467431 kcal/mol)

>  <smiles>  (2) 
Cc1nn(C)c(C)c1NS(=O)(=O)c1ccc(-c2ccc3c(c2)CN(C)C3=O)cc1

>  <score_type>  (2) 
oracle

>  <origin>  (2) 
adgpu

>  <m_score__min__energy>  (2) 
-10.359999999999999

>  <m_primary>  (2) 
energy

$$$$
2:0
     RDKit          3D

 60 63  0  0  0  0  0  0  0  0999 V2000
    2.2620   16.7950  -28.3510 C   0  0  0  0  0  0  0  0  0  0  0  0
    1.2950   17.8550  -28.0350 N   0  0  0  0  0  0  0  0  0  0  0  0
    1.9830   19.1590  -27.8600 C   0  0  0  0  0  0  0  0  0  0  0  0
    1.1090   20.3810  -28.2170 C   0  0  0  0  0  0  0  0  0  0  0  0
   -0.3210   20.0860  -28.0580 N   0  0  0  0  0  0  0  0  0  0  0  0
   -1.2110   21.0600  -27.4910 C   0  0  0  0  0  0  0  0  0  0  0  0
   -2.0030   20.7080  -26.5760 O   0  0  0  0  0  0  0  0  0  0  0  0
   -1.2200   22.4640  -27.9650 C   0  0  0  0  0  0  0  0  0  0  0  0
   -0.2030   23.3550  -27.5840 C   0  0  0  0  0  0  0  0  0  0  0  0
   -0.2200   24.6780  -28.0280 C   0  0  0  0  0  0  0  0  0  0  0  0
   -1.2360   25.1200  -28.8800 C   0  0  0  0  0  0  0  0  0  0  0  0
   -1.2370   26.4400  -29.3160 O   0  0  0  0  0  0  0  0  0  0  0  0
   -2.2340   24.2340  -29.3100 C   0  0  0  0  0  0  0  0  0  0  0  0
   -3.2360   24.7090  -30.2150 N   0  0  0  0  0  0  0  0  0  0  0  0
   -4.9400   24.7680  -29.8950 S   0  0  0  0  0  0  0  0  0  0  0  0
   -5.5060   26.0590  -30.4200 O   0  0  0  0  0  0  0  0  0  0  0  0
   -5.2260   24.6790  -28.4200 O   0  0  0  0  0  0  0  0  0  0  0  0
   -5.6870   23.3890  -30.6880 C   0  0  0  0  0  0  0  0  0  0  0  0
   -5.0510   22.1390  -30.7060 C   0  0  0  0  0  0  0  0  0  0  0  0
   -5.6820   21.0400  -31.2960 C   0  0  0  0  0  0  0  0  0  0  0  0
   -6.9590   21.1760  -31.8610 C   0  0  0  0  0  0  0  0  0  0  0  0
   -7.7830   19.7740  -32.5480 S   0  0  0  0  0  0  0  0  0  0  0  0
   -9.1190   20.2030  -33.0920 O   0  0  0  0  0  0  0  0  0  0  0  0
   -8.0290   18.7610  -31.4630 O   0  0  0  0  0  0  0  0  0  0  0  0
   -6.8480   19.0340  -33.8320 N   0  0  0  0  0  0  0  0  0  0  0  0
   -5.4940   19.5960  -33.8890 C   0  0  0  0  0  0  0  0  0  0  0  0
   -4.5530   18.6160  -33.2170 C   0  0  0  0  0  0  0  0  0  0  0  0
   -5.2300   17.2740  -33.3590 C   0  0  0  0  0  0  0  0  0  0  0  0
   -6.6990   17.5840  -33.6240 C   0  0  0  0  0  0  0  0  0  0  0  0
   -7.5870   22.4300  -31.8520 C   0  0  0  0  0  0  0  0  0  0  0  0
   -6.9570   23.5300  -31.2650 C   0  0  0  0  0  0  0  0  0  0  0  0
   -2.2360   22.9130  -28.8310 C   0  0  0  0  0  0  0  0  0  0  0  0
   -0.8750   18.8280  -28.5650 C   0  0  0  0  0  0  0  0  0  0  0  0
    0.2400   17.9070  -29.0580 C   0  0  0  0  0  0  0  0  0  0  0  0
    2.6537   16.3657  -27.4170 H   0  0  0  0  0  0  0  0  0  0  0  0
    1.7646   16.0075  -28.9363 H   0  0  0  0  0  0  0  0  0  0  0  0
    3.0917   17.2182  -28.9363 H   0  0  0  0  0  0  0  0  0  0  0  0
    2.2914   19.2494  -26.8080 H   0  0  0  0  0  0  0  0  0  0  0  0
    2.8374   19.1645  -28.5528 H   0  0  0  0  0  0  0  0  0  0  0  0
    1.3770   21.2176  -27.5549 H   0  0  0  0  0  0  0  0  0  0  0  0
    1.2925   20.6402  -29.2702 H   0  0  0  0  0  0  0  0  0  0  0  0
    0.6118   23.0078  -26.9317 H   0  0  0  0  0  0  0  0  0  0  0  0
    0.5682   25.3747  -27.7066 H   0  0  0  0  0  0  0  0  0  0  0  0
   -4.0543   22.0233  -30.2552 H   0  0  0  0  0  0  0  0  0  0  0  0
   -5.1750   20.0640  -31.3174 H   0  0  0  0  0  0  0  0  0  0  0  0
   -5.1943   19.7428  -34.9372 H   0  0  0  0  0  0  0  0  0  0  0  0
   -5.4618   20.5694  -33.3777 H   0  0  0  0  0  0  0  0  0  0  0  0
   -3.5744   18.6116  -33.7192 H   0  0  0  0  0  0  0  0  0  0  0  0
   -4.3630   18.8766  -32.1653 H   0  0  0  0  0  0  0  0  0  0  0  0
   -4.7978   16.7127  -34.2005 H   0  0  0  0  0  0  0  0  0  0  0  0
   -5.0998   16.6544  -32.4595 H   0  0  0  0  0  0  0  0  0  0  0  0
   -7.0343   17.0453  -34.5225 H   0  0  0  0  0  0  0  0  0  0  0  0
   -7.3090   17.2649  -32.7660 H   0  0  0  0  0  0  0  0  0  0  0  0
   -8.5804   22.5479  -32.3094 H   0  0  0  0  0  0  0  0  0  0  0  0
   -7.4585   24.5090  -31.2555 H   0  0  0  0  0  0  0  0  0  0  0  0
   -3.0377   22.2238  -29.1349 H   0  0  0  0  0  0  0  0  0  0  0  0
   -1.4279   18.3255  -27.7577 H   0  0  0  0  0  0  0  0  0  0  0  0
   -1.5474   19.0512  -29.4064 H   0  0  0  0  0  0  0  0  0  0  0  0
   -0.1617   16.8971  -29.2272 H   0  0  0  0  0  0  0  0  0  0  0  0
    0.6526   18.2903  -30.0029 H   0  0  0  0  0  0  0  0  0  0  0  0
  1  2  1  0
  2  3  1  0
  3  4  1  0
  4  5  1  0
  5  6  1  0
  6  7  2  0
  6  8  1  0
  8  9  2  0
  9 10  1  0
 10 11  2  0
 11 12  1  0
 11 13  1  0
 13 14  1  0
 14 15  1  0
 15 16  2  0
 15 17  2  0
 15 18  1  0
 18 19  2  0
 19 20  1  0
 20 21  2  0
 21 22  1  0
 22 23  2  0
 22 24  2  0
 22 25  1  0
 25 26  1  0
 26 27  1  0
 27 28  1  0
 28 29  1  0
 21 30  1  0
 30 31  2  0
 13 32  2  0
  5 33  1  0
 33 34  1  0
 34  2  1  0
 32  8  1  0
 31 18  1  0
 29 25  1  0
  1 35  1  0
  1 36  1  0
  1 37  1  0
  3 38  1  0
  3 39  1  0
  4 40  1  0
  4 41  1  0
  9 42  1  0
 10 43  1  0
 19 44  1  0
 20 45  1  0
 26 46  1  0
 26 47  1  0
 27 48  1  0
 27 49  1  0
 28 50  1  0
 28 51  1  0
 29 52  1  0
 29 53  1  0
 30 54  1  0
 31 55  1  0
 32 56  1  0
 33 57  1  0
 33 58  1  0
 34 59  1  0
 34 60  1  0
M  CHG  2  12  -1  14  -1
M  END
>  <UniqueID>  (3) 
3

>  <SMILES>  (3) 
CN1CCN(C(=O)c2ccc([O-])c([N-]S(=O)(=O)c3ccc(S(=O)(=O)N4CCCC4)cc3)c2)CC1

>  <Energy>  (3) 
80.51808581781006

>  <Genealogy>  (3) 
CN1CCN(C(=O)c2ccc([O-])c([N-]S(=O)(=O)c3ccc(S(=O)(=O)N4CCCC4)cc3)c2)CC1 (protonated)
CN1CCN(C(=O)c2ccc([O-])c([N-]S(=O)(=O)c3ccc(S(=O)(=O)N4CCCC4)cc3)c2)CC1 (3D coordinates assigned)
CN1CCN(C(=O)c2ccc([O-])c([N-]S(=O)(=O)c3ccc(S(=O)(=O)N4CCCC4)cc3)c2)CC1 (nonaromatic ring conformer: 80.51808581781006 kcal/mol)

>  <smiles>  (3) 
CN1CCN(C(=O)c2ccc(O)c(NS(=O)(=O)c3ccc(S(=O)(=O)N4CCCC4)cc3)c2)CC1

>  <score_type>  (3) 
oracle

>  <origin>  (3) 
adgpu

>  <m_score__min__energy>  (3) 
-14.970000000000001

>  <m_primary>  (3) 
energy

$$$$
3:0
     RDKit          3D

 51 54  0  0  0  0  0  0  0  0999 V2000
    1.4890   19.3660  -27.8380 C   0  0  0  0  0  0  0  0  0  0  0  0
    0.2490   20.1540  -27.7930 N   0  0  0  0  0  0  0  0  0  0  0  0
   -0.8740   19.3640  -28.3260 C   0  0  0  0  0  0  0  0  0  0  0  0
   -2.1890   20.0960  -28.0500 C   0  0  0  0  0  0  0  0  0  0  0  0
   -2.1200   21.5420  -28.4610 C   0  0  0  0  0  0  0  0  0  0  0  0
   -3.3040   22.2840  -28.5690 C   0  0  0  0  0  0  0  0  0  0  0  0
   -3.2600   23.6520  -28.8600 C   0  0  0  0  0  0  0  0  0  0  0  0
   -4.4730   24.4030  -28.8920 N   0  0  0  0  0  0  0  0  0  0  0  0
   -5.3930   24.4950  -30.3540 S   0  0  0  0  0  0  0  0  0  0  0  0
   -6.8490   24.6690  -30.0300 O   0  0  0  0  0  0  0  0  0  0  0  0
   -4.9290   25.6720  -31.1660 O   0  0  0  0  0  0  0  0  0  0  0  0
   -5.1350   23.0180  -31.2760 C   0  0  0  0  0  0  0  0  0  0  0  0
   -3.9350   22.8130  -31.9670 C   0  0  0  0  0  0  0  0  0  0  0  0
   -3.7720   21.6790  -32.7660 C   0  0  0  0  0  0  0  0  0  0  0  0
   -4.8060   20.7450  -32.8850 C   0  0  0  0  0  0  0  0  0  0  0  0
   -4.6280   19.6350  -33.7030 O   0  0  0  0  0  0  0  0  0  0  0  0
   -6.0110   20.9390  -32.1870 C   0  0  0  0  0  0  0  0  0  0  0  0
   -7.3300   19.7760  -32.3220 S   0  0  0  0  0  0  0  0  0  0  0  0
   -8.2370   20.1490  -33.4600 O   0  0  0  0  0  0  0  0  0  0  0  0
   -8.1430   19.7920  -31.0570 O   0  0  0  0  0  0  0  0  0  0  0  0
   -6.6760   18.1680  -32.6110 C   0  0  0  0  0  0  0  0  0  0  0  0
   -5.9540   17.5160  -31.5990 C   0  0  0  0  0  0  0  0  0  0  0  0
   -5.4120   16.2480  -31.8320 C   0  0  0  0  0  0  0  0  0  0  0  0
   -5.6010   15.6190  -33.0680 C   0  0  0  0  0  0  0  0  0  0  0  0
   -6.3280   16.2620  -34.0750 C   0  0  0  0  0  0  0  0  0  0  0  0
   -6.8660   17.5330  -33.8500 C   0  0  0  0  0  0  0  0  0  0  0  0
   -6.1730   22.0840  -31.3950 C   0  0  0  0  0  0  0  0  0  0  0  0
   -2.0250   24.2870  -29.0500 C   0  0  0  0  0  0  0  0  0  0  0  0
   -1.9710   25.6450  -29.3400 O   0  0  0  0  0  0  0  0  0  0  0  0
   -0.8400   23.5530  -28.9460 C   0  0  0  0  0  0  0  0  0  0  0  0
   -0.8750   22.1870  -28.6300 C   0  0  0  0  0  0  0  0  0  0  0  0
    0.4110   21.3990  -28.5710 C   0  0  0  0  0  0  0  0  0  0  0  0
    1.8251   19.1524  -26.8126 H   0  0  0  0  0  0  0  0  0  0  0  0
    1.3032   18.4199  -28.3675 H   0  0  0  0  0  0  0  0  0  0  0  0
    2.2666   19.9360  -28.3675 H   0  0  0  0  0  0  0  0  0  0  0  0
   -0.7479   19.2332  -29.4109 H   0  0  0  0  0  0  0  0  0  0  0  0
   -0.8934   18.3786  -27.8376 H   0  0  0  0  0  0  0  0  0  0  0  0
   -2.9956   19.6038  -28.6131 H   0  0  0  0  0  0  0  0  0  0  0  0
   -2.3818   20.0567  -26.9677 H   0  0  0  0  0  0  0  0  0  0  0  0
   -4.2748   21.7875  -28.4240 H   0  0  0  0  0  0  0  0  0  0  0  0
   -3.1193   23.5459  -31.8806 H   0  0  0  0  0  0  0  0  0  0  0  0
   -2.8259   21.5199  -33.3041 H   0  0  0  0  0  0  0  0  0  0  0  0
   -5.8145   18.0026  -30.6224 H   0  0  0  0  0  0  0  0  0  0  0  0
   -4.8359   15.7439  -31.0421 H   0  0  0  0  0  0  0  0  0  0  0  0
   -5.1780   14.6195  -33.2473 H   0  0  0  0  0  0  0  0  0  0  0  0
   -6.4769   15.7669  -35.0460 H   0  0  0  0  0  0  0  0  0  0  0  0
   -7.4383   18.0360  -34.6434 H   0  0  0  0  0  0  0  0  0  0  0  0
   -7.1214   22.2506  -30.8632 H   0  0  0  0  0  0  0  0  0  0  0  0
    0.1268   24.0503  -29.1132 H   0  0  0  0  0  0  0  0  0  0  0  0
    0.7202   21.1426  -29.5951 H   0  0  0  0  0  0  0  0  0  0  0  0
    1.1725   22.0187  -28.0750 H   0  0  0  0  0  0  0  0  0  0  0  0
  1  2  1  0
  2  3  1  0
  3  4  1  0
  4  5  1  0
  5  6  2  0
  6  7  1  0
  7  8  1  0
  8  9  1  0
  9 10  2  0
  9 11  2  0
  9 12  1  0
 12 13  2  0
 13 14  1  0
 14 15  2  0
 15 16  1  0
 15 17  1  0
 17 18  1  0
 18 19  2  0
 18 20  2  0
 18 21  1  0
 21 22  2  0
 22 23  1  0
 23 24  2  0
 24 25  1  0
 25 26  2  0
 17 27  2  0
  7 28  2  0
 28 29  1  0
 28 30  1  0
 30 31  2  0
 31 32  1  0
 32  2  1  0
 31  5  1  0
 27 12  1  0
 26 21  1  0
  1 33  1  0
  1 34  1  0
  1 35  1  0
  3 36  1  0
  3 37  1  0
  4 38  1  0
  4 39  1  0
  6 40  1  0
 13 41  1  0
 14 42  1  0
 22 43  1  0
 23 44  1  0
 24 45  1  0
 25 46  1  0
 26 47  1  0
 27 48  1  0
 30 49  1  0
 32 50  1  0
 32 51  1  0
M  CHG  3   8  -1  16  -1  29  -1
M  END
>  <UniqueID>  (4) 
4

>  <SMILES>  (4) 
CN1CCc2cc([N-]S(=O)(=O)c3ccc([O-])c(S(=O)(=O)c4ccccc4)c3)c([O-])cc2C1

>  <Energy>  (4) 
65.69725385735146

>  <Genealogy>  (4) 
CN1CCc2cc([N-]S(=O)(=O)c3ccc([O-])c(S(=O)(=O)c4ccccc4)c3)c([O-])cc2C1 (protonated)
CN1CCc2cc([N-]S(=O)(=O)c3ccc([O-])c(S(=O)(=O)c4ccccc4)c3)c([O-])cc2C1 (3D coordinates assigned)
CN1CCc2cc([N-]S(=O)(=O)c3ccc([O-])c(S(=O)(=O)c4ccccc4)c3)c([O-])cc2C1 (nonaromatic ring conformer: 65.69725385735146 kcal/mol)

>  <smiles>  (4) 
CN1CCc2cc(NS(=O)(=O)c3ccc(O)c(S(=O)(=O)c4ccccc4)c3)c(O)cc2C1

>  <score_type>  (4) 
oracle

>  <origin>  (4) 
adgpu

>  <m_score__min__energy>  (4) 
-13.83

>  <m_primary>  (4) 
energy

$$$$
4:0
     RDKit          3D

 73 78  0  0  0  0  0  0  0  0999 V2000
   -3.5770   22.1870  -32.8810 O   0  0  0  0  0  0  0  0  0  0  0  0
   -4.7010   21.6240  -32.9390 C   0  0  0  0  0  0  0  0  0  0  0  0
   -4.8940   20.3970  -33.7860 C   0  0  0  0  0  0  0  0  0  0  0  0
   -5.9080   19.5280  -33.1760 N   0  0  0  0  0  0  0  0  0  0  0  0
   -5.5970   17.8240  -32.9440 S   0  0  0  0  0  0  0  0  0  0  0  0
   -6.4900   17.0420  -33.8640 O   0  0  0  0  0  0  0  0  0  0  0  0
   -5.8930   17.4360  -31.5230 O   0  0  0  0  0  0  0  0  0  0  0  0
   -3.9060   17.4320  -33.2640 C   0  0  0  0  0  0  0  0  0  0  0  0
   -3.5490   16.1710  -33.7670 C   0  0  0  0  0  0  0  0  0  0  0  0
   -2.2180   15.8950  -34.0800 C   0  0  0  0  0  0  0  0  0  0  0  0
   -1.2350   16.8750  -33.9000 C   0  0  0  0  0  0  0  0  0  0  0  0
   -1.5760   18.1330  -33.3660 C   0  0  0  0  0  0  0  0  0  0  0  0
   -0.6200   19.1940  -33.2260 N   0  0  0  0  0  0  0  0  0  0  0  0
   -0.8490   20.5470  -32.8130 C   0  0  0  0  0  0  0  0  0  0  0  0
   -1.0020   21.4560  -33.6700 O   0  0  0  0  0  0  0  0  0  0  0  0
   -0.9310   20.8830  -31.3700 C   0  0  0  0  0  0  0  0  0  0  0  0
   -1.7000   21.9980  -30.9790 C   0  0  0  0  0  0  0  0  0  0  0  0
   -1.8870   22.3120  -29.6260 C   0  0  0  0  0  0  0  0  0  0  0  0
   -2.8740   23.7030  -29.1580 S   0  0  0  0  0  0  0  0  0  0  0  0
   -2.0690   24.9590  -29.3430 O   0  0  0  0  0  0  0  0  0  0  0  0
   -3.2280   23.5870  -27.7000 O   0  0  0  0  0  0  0  0  0  0  0  0
   -4.3510   23.8320  -30.0860 N   0  0  0  0  0  0  0  0  0  0  0  0
   -5.5250   23.4300  -29.3130 C   0  0  0  0  0  0  0  0  0  0  0  0
   -6.7160   24.0880  -29.9910 C   0  0  0  0  0  0  0  0  0  0  0  0
   -6.1340   25.2950  -30.7090 C   0  0  0  0  0  0  0  0  0  0  0  0
   -4.6250   25.2020  -30.5100 C   0  0  0  0  0  0  0  0  0  0  0  0
   -1.2840   21.5200  -28.6460 C   0  0  0  0  0  0  0  0  0  0  0  0
   -0.4980   20.4280  -29.0120 C   0  0  0  0  0  0  0  0  0  0  0  0
   -0.3090   20.1000  -30.3650 C   0  0  0  0  0  0  0  0  0  0  0  0
    0.5620   19.0030  -30.6890 N   0  0  0  0  0  0  0  0  0  0  0  0
    1.8790   19.2920  -31.2670 C   0  0  0  0  0  0  0  0  0  0  0  0
    2.7660   18.0510  -31.2300 C   0  0  0  0  0  0  0  0  0  0  0  0
    2.6060   17.4130  -29.9820 O   0  0  0  0  0  0  0  0  0  0  0  0
    1.3620   16.7350  -29.9510 C   0  0  0  0  0  0  0  0  0  0  0  0
    0.1560   17.6350  -30.3260 C   0  0  0  0  0  0  0  0  0  0  0  0
   -2.9140   18.4000  -33.0510 C   0  0  0  0  0  0  0  0  0  0  0  0
   -7.1140   20.1290  -32.6630 C   0  0  0  0  0  0  0  0  0  0  0  0
   -8.3340   19.4370  -32.6440 C   0  0  0  0  0  0  0  0  0  0  0  0
   -9.4820   20.0420  -32.1200 C   0  0  0  0  0  0  0  0  0  0  0  0
   -9.4200   21.3410  -31.6090 C   0  0  0  0  0  0  0  0  0  0  0  0
   -8.2110   22.0430  -31.6290 C   0  0  0  0  0  0  0  0  0  0  0  0
   -7.0610   21.4490  -32.1730 C   0  0  0  0  0  0  0  0  0  0  0  0
   -5.8210   22.1720  -32.2300 N   0  0  0  0  0  0  0  0  0  0  0  0
   -5.2255   20.6954  -34.7915 H   0  0  0  0  0  0  0  0  0  0  0  0
   -3.9419   19.8507  -33.8574 H   0  0  0  0  0  0  0  0  0  0  0  0
   -4.3195   15.3999  -33.9144 H   0  0  0  0  0  0  0  0  0  0  0  0
   -1.9402   14.9044  -34.4694 H   0  0  0  0  0  0  0  0  0  0  0  0
   -0.1919   16.6619  -34.1767 H   0  0  0  0  0  0  0  0  0  0  0  0
   -2.1615   22.6329  -31.7496 H   0  0  0  0  0  0  0  0  0  0  0  0
   -5.6345   22.3355  -29.3250 H   0  0  0  0  0  0  0  0  0  0  0  0
   -5.4396   23.7368  -28.2601 H   0  0  0  0  0  0  0  0  0  0  0  0
   -7.1835   23.3980  -30.7089 H   0  0  0  0  0  0  0  0  0  0  0  0
   -7.5002   24.3695  -29.2728 H   0  0  0  0  0  0  0  0  0  0  0  0
   -6.3829   25.2616  -31.7800 H   0  0  0  0  0  0  0  0  0  0  0  0
   -6.5394   26.2382  -30.3140 H   0  0  0  0  0  0  0  0  0  0  0  0
   -4.1023   25.4206  -31.4529 H   0  0  0  0  0  0  0  0  0  0  0  0
   -4.2748   25.9293  -29.7627 H   0  0  0  0  0  0  0  0  0  0  0  0
   -1.4297   21.7586  -27.5821 H   0  0  0  0  0  0  0  0  0  0  0  0
   -0.0204   19.8163  -28.2324 H   0  0  0  0  0  0  0  0  0  0  0  0
    1.7526   19.6150  -32.3109 H   0  0  0  0  0  0  0  0  0  0  0  0
    2.3579   20.0878  -30.6777 H   0  0  0  0  0  0  0  0  0  0  0  0
    2.4728   17.3632  -32.0368 H   0  0  0  0  0  0  0  0  0  0  0  0
    3.8182   18.3402  -31.3690 H   0  0  0  0  0  0  0  0  0  0  0  0
    1.4048   15.8967  -30.6619 H   0  0  0  0  0  0  0  0  0  0  0  0
    1.2037   16.3976  -28.9161 H   0  0  0  0  0  0  0  0  0  0  0  0
   -0.3675   17.1840  -31.1819 H   0  0  0  0  0  0  0  0  0  0  0  0
   -0.4957   17.7041  -29.4425 H   0  0  0  0  0  0  0  0  0  0  0  0
   -3.1897   19.3791  -32.6322 H   0  0  0  0  0  0  0  0  0  0  0  0
   -8.3887   18.4134  -33.0431 H   0  0  0  0  0  0  0  0  0  0  0  0
  -10.4355   19.4936  -32.1104 H   0  0  0  0  0  0  0  0  0  0  0  0
  -10.3223   21.8113  -31.1910 H   0  0  0  0  0  0  0  0  0  0  0  0
   -8.1607   23.0621  -31.2180 H   0  0  0  0  0  0  0  0  0  0  0  0
   -5.7260   23.0990  -31.7510 H   0  0  0  0  0  0  0  0  0  0  0  0
  1  2  2  0
  2  3  1  0
  3  4  1  0
  4  5  1  0
  5  6  2  0
  5  7  2  0
  5  8  1  0
  8  9  2  0
  9 10  1  0
 10 11  2  0
 11 12  1  0
 12 13  1  0
 13 14  1  0
 14 15  2  0
 14 16  1  0
 16 17  2  0
 17 18  1  0
 18 19  1  0
 19 20  2  0
 19 21  2  0
 19 22  1  0
 22 23  1  0
 23 24  1  0
 24 25  1  0
 25 26  1  0
 18 27  2  0
 27 28  1  0
 28 29  2  0
 29 30  1  0
 30 31  1  0
 31 32  1  0
 32 33  1  0
 33 34  1  0
 34 35  1  0
 12 36  2  0
  4 37  1  0
 37 38  2  0
 38 39  1  0
 39 40  2  0
 40 41  1  0
 41 42  2  0
 42 43  1  0
 43  2  1  0
 36  8  1  0
 42 37  1  0
 29 16  1  0
 35 30  1  0
 26 22  1  0
  3 44  1  0
  3 45  1  0
  9 46  1  0
 10 47  1  0
 11 48  1  0
 17 49  1  0
 23 50  1  0
 23 51  1  0
 24 52  1  0
 24 53  1  0
 25 54  1  0
 25 55  1  0
 26 56  1  0
 26 57  1  0
 27 58  1  0
 28 59  1  0
 31 60  1  0
 31 61  1  0
 32 62  1  0
 32 63  1  0
 34 64  1  0
 34 65  1  0
 35 66  1  0
 35 67  1  0
 36 68  1  0
 38 69  1  0
 39 70  1  0
 40 71  1  0
 41 72  1  0
 43 73  1  0
M  CHG  1  13  -1
M  END
>  <UniqueID>  (5) 
5

>  <SMILES>  (5) 
O=C1CN(S(=O)(=O)c2cccc([N-]C(=O)c3cc(S(=O)(=O)N4CCCC4)ccc3N3CCOCC3)c2)c2ccccc2N1

>  <Energy>  (5) 
101.88683571554452

>  <Genealogy>  (5) 
O=C1CN(S(=O)(=O)c2cccc([N-]C(=O)c3cc(S(=O)(=O)N4CCCC4)ccc3N3CCOCC3)c2)c2ccccc2N1 (protonated)
O=C1CN(S(=O)(=O)c2cccc([N-]C(=O)c3cc(S(=O)(=O)N4CCCC4)ccc3N3CCOCC3)c2)c2ccccc2N1 (3D coordinates assigned)
O=C1CN(S(=O)(=O)c2cccc([N-]C(=O)c3cc(S(=O)(=O)N4CCCC4)ccc3N3CCOCC3)c2)c2ccccc2N1 (nonaromatic ring conformer: 101.88683571554452 kcal/mol)

>  <smiles>  (5) 
O=C1CN(S(=O)(=O)c2cccc(NC(=O)c3cc(S(=O)(=O)N4CCCC4)ccc3N3CCOCC3)c2)c2ccccc2N1

>  <score_type>  (5) 
oracle

>  <origin>  (5) 
adgpu

>  <m_score__min__energy>  (5) 
-12.82

>  <m_primary>  (5) 
energy

$$$$
5:0
     RDKit          3D

 45 47  0  0  0  0  0  0  0  0999 V2000
    0.5850   20.1000  -28.1680 C   0  0  0  0  0  0  0  0  0  0  0  0
   -0.6910   20.8160  -28.0620 N   0  0  0  0  0  0  0  0  0  0  0  0
   -0.7600   22.1290  -28.4400 C   0  0  0  0  0  0  0  0  0  0  0  0
   -1.9510   22.8520  -28.3040 C   0  0  0  0  0  0  0  0  0  0  0  0
   -1.9820   24.5740  -28.6880 S   0  0  0  0  0  0  0  0  0  0  0  0
   -2.3840   25.3220  -27.4480 O   0  0  0  0  0  0  0  0  0  0  0  0
   -0.6180   25.0380  -29.1190 O   0  0  0  0  0  0  0  0  0  0  0  0
   -3.1230   24.9250  -29.9500 N   0  0  0  0  0  0  0  0  0  0  0  0
   -3.9780   23.9420  -30.5440 C   0  0  0  0  0  0  0  0  0  0  0  0
   -5.3580   24.1710  -30.5750 C   0  0  0  0  0  0  0  0  0  0  0  0
   -6.2270   23.1840  -31.0510 C   0  0  0  0  0  0  0  0  0  0  0  0
   -5.7160   21.9650  -31.5210 C   0  0  0  0  0  0  0  0  0  0  0  0
   -6.8050   20.6680  -32.0120 S   0  0  0  0  0  0  0  0  0  0  0  0
   -7.1370   20.8430  -33.4680 O   0  0  0  0  0  0  0  0  0  0  0  0
   -8.0790   20.7430  -31.2180 O   0  0  0  0  0  0  0  0  0  0  0  0
   -6.0290   19.1190  -31.7640 N   0  0  0  0  0  0  0  0  0  0  0  0
   -7.0170   18.0360  -31.6800 C   0  0  0  0  0  0  0  0  0  0  0  0
   -7.2070   17.4810  -33.0810 C   0  0  0  0  0  0  0  0  0  0  0  0
   -5.9830   17.9280  -33.8620 C   0  0  0  0  0  0  0  0  0  0  0  0
   -5.1640   18.7750  -32.8970 C   0  0  0  0  0  0  0  0  0  0  0  0
   -4.3290   21.7550  -31.5410 C   0  0  0  0  0  0  0  0  0  0  0  0
   -3.4620   22.7440  -31.0650 C   0  0  0  0  0  0  0  0  0  0  0  0
   -3.0890   22.1980  -27.8260 C   0  0  0  0  0  0  0  0  0  0  0  0
   -3.0200   20.8500  -27.4760 C   0  0  0  0  0  0  0  0  0  0  0  0
   -1.8070   20.1690  -27.5900 C   0  0  0  0  0  0  0  0  0  0  0  0
   -1.7520   18.9570  -27.2510 O   0  0  0  0  0  0  0  0  0  0  0  0
    0.9693   19.8844  -27.1601 H   0  0  0  0  0  0  0  0  0  0  0  0
    0.4317   19.1561  -28.7117 H   0  0  0  0  0  0  0  0  0  0  0  0
    1.3108   20.7226  -28.7117 H   0  0  0  0  0  0  0  0  0  0  0  0
    0.1309   22.6224  -28.8557 H   0  0  0  0  0  0  0  0  0  0  0  0
   -5.7614   25.1320  -30.2233 H   0  0  0  0  0  0  0  0  0  0  0  0
   -7.3122   23.3637  -31.0569 H   0  0  0  0  0  0  0  0  0  0  0  0
   -5.4700   19.1660  -30.8810 H   0  0  0  0  0  0  0  0  0  0  0  0
   -6.6508   17.2449  -31.0092 H   0  0  0  0  0  0  0  0  0  0  0  0
   -7.9702   18.4117  -31.2797 H   0  0  0  0  0  0  0  0  0  0  0  0
   -7.2670   16.3829  -33.0550 H   0  0  0  0  0  0  0  0  0  0  0  0
   -8.1392   17.8412  -33.5405 H   0  0  0  0  0  0  0  0  0  0  0  0
   -5.4013   17.0559  -34.1953 H   0  0  0  0  0  0  0  0  0  0  0  0
   -6.2613   18.4943  -34.7630 H   0  0  0  0  0  0  0  0  0  0  0  0
   -4.2926   18.2041  -32.5437 H   0  0  0  0  0  0  0  0  0  0  0  0
   -4.8005   19.6857  -33.3956 H   0  0  0  0  0  0  0  0  0  0  0  0
   -3.9225   20.8106  -31.9319 H   0  0  0  0  0  0  0  0  0  0  0  0
   -2.3743   22.5833  -31.0987 H   0  0  0  0  0  0  0  0  0  0  0  0
   -4.0379   22.7454  -27.7259 H   0  0  0  0  0  0  0  0  0  0  0  0
   -3.9163   20.3263  -27.1122 H   0  0  0  0  0  0  0  0  0  0  0  0
  1  2  1  0
  2  3  1  0
  3  4  2  0
  4  5  1  0
  5  6  2  0
  5  7  2  0
  5  8  1  0
  8  9  1  0
  9 10  2  0
 10 11  1  0
 11 12  2  0
 12 13  1  0
 13 14  2  0
 13 15  2  0
 13 16  1  0
 16 17  1  0
 17 18  1  0
 18 19  1  0
 19 20  1  0
 12 21  1  0
 21 22  2  0
  4 23  1  0
 23 24  2  0
 24 25  1  0
 25 26  2  0
 25  2  1  0
 22  9  1  0
 20 16  1  0
  1 27  1  0
  1 28  1  0
  1 29  1  0
  3 30  1  0
 10 31  1  0
 11 32  1  0
 16 33  1  0
 17 34  1  0
 17 35  1  0
 18 36  1  0
 18 37  1  0
 19 38  1  0
 19 39  1  0
 20 40  1  0
 20 41  1  0
 21 42  1  0
 22 43  1  0
 23 44  1  0
 24 45  1  0
M  CHG  2   8  -1  16   1
M  END
>  <UniqueID>  (6) 
6

>  <SMILES>  (6) 
Cn1cc(S(=O)(=O)[N-]c2ccc(S(=O)(=O)[NH+]3CCCC3)cc2)ccc1=O

>  <Energy>  (6) 
55.28352019100002

>  <Genealogy>  (6) 
Cn1cc(S(=O)(=O)[N-]c2ccc(S(=O)(=O)[NH+]3CCCC3)cc2)ccc1=O (protonated)
Cn1cc(S(=O)(=O)[N-]c2ccc(S(=O)(=O)[NH+]3CCCC3)cc2)ccc1=O (3D coordinates assigned)
Cn1cc(S(=O)(=O)[N-]c2ccc(S(=O)(=O)[NH+]3CCCC3)cc2)ccc1=O (nonaromatic ring conformer: 55.28352019100002 kcal/mol)

>  <smiles>  (6) 
Cn1cc(S(=O)(=O)Nc2ccc(S(=O)(=O)N3CCCC3)cc2)ccc1=O

>  <score_type>  (6) 
oracle

>  <origin>  (6) 
adgpu

>  <m_score__min__energy>  (6) 
-10.449999999999999

>  <m_primary>  (6) 
energy

$$$$
6:0
     RDKit          3D

 42 44  0  0  0  0  0  0  0  0999 V2000
   -2.1020   23.1230  -29.1550 O   0  0  0  0  0  0  0  0  0  0  0  0
   -3.2120   23.6710  -28.9140 C   0  0  0  0  0  0  0  0  0  0  0  0
   -3.2750   24.7860  -28.0060 N   0  0  0  0  0  0  0  0  0  0  0  0
   -2.1250   25.2900  -27.3100 C   0  0  0  0  0  0  0  0  0  0  0  0
   -1.9550   24.9770  -25.9530 C   0  0  0  0  0  0  0  0  0  0  0  0
   -0.8390   25.4460  -25.2540 C   0  0  0  0  0  0  0  0  0  0  0  0
    0.1250   26.2170  -25.9100 C   0  0  0  0  0  0  0  0  0  0  0  0
   -0.0210   26.5100  -27.2680 C   0  0  0  0  0  0  0  0  0  0  0  0
   -1.1330   26.0390  -27.9750 C   0  0  0  0  0  0  0  0  0  0  0  0
   -1.2300   26.2960  -29.3380 O   0  0  0  0  0  0  0  0  0  0  0  0
   -4.4300   23.1500  -29.5800 C   0  0  0  0  0  0  0  0  0  0  0  0
   -4.3330   22.0460  -30.4470 C   0  0  0  0  0  0  0  0  0  0  0  0
   -5.4690   21.5430  -31.0860 C   0  0  0  0  0  0  0  0  0  0  0  0
   -6.7180   22.1340  -30.8750 C   0  0  0  0  0  0  0  0  0  0  0  0
   -8.1380   21.5090  -31.7090 S   0  0  0  0  0  0  0  0  0  0  0  0
   -8.6720   22.5480  -32.6580 O   0  0  0  0  0  0  0  0  0  0  0  0
   -9.2020   21.2010  -30.6910 O   0  0  0  0  0  0  0  0  0  0  0  0
   -7.7190   20.0540  -32.5780 N   0  0  0  0  0  0  0  0  0  0  0  0
   -7.3940   18.9750  -31.6280 C   0  0  0  0  0  0  0  0  0  0  0  0
   -6.7320   17.7840  -32.3510 C   0  0  0  0  0  0  0  0  0  0  0  0
   -6.8920   17.8900  -33.7520 O   0  0  0  0  0  0  0  0  0  0  0  0
   -6.1940   19.0280  -34.2290 C   0  0  0  0  0  0  0  0  0  0  0  0
   -6.5750   20.3140  -33.4640 C   0  0  0  0  0  0  0  0  0  0  0  0
   -6.8220   23.2470  -30.0320 C   0  0  0  0  0  0  0  0  0  0  0  0
   -5.6880   23.7530  -29.3890 C   0  0  0  0  0  0  0  0  0  0  0  0
   -4.1630   25.3240  -27.9050 H   0  0  0  0  0  0  0  0  0  0  0  0
   -2.7041   24.3591  -25.4362 H   0  0  0  0  0  0  0  0  0  0  0  0
   -0.7193   25.2081  -24.1867 H   0  0  0  0  0  0  0  0  0  0  0  0
    0.9984   26.5929  -25.3569 H   0  0  0  0  0  0  0  0  0  0  0  0
    0.7409   27.1131  -27.7835 H   0  0  0  0  0  0  0  0  0  0  0  0
   -3.3546   21.5751  -30.6231 H   0  0  0  0  0  0  0  0  0  0  0  0
   -5.3801   20.6773  -31.7587 H   0  0  0  0  0  0  0  0  0  0  0  0
   -6.7023   19.3629  -30.8657 H   0  0  0  0  0  0  0  0  0  0  0  0
   -8.3266   18.6269  -31.1600 H   0  0  0  0  0  0  0  0  0  0  0  0
   -5.6585   17.7693  -32.1115 H   0  0  0  0  0  0  0  0  0  0  0  0
   -7.2149   16.8556  -32.0121 H   0  0  0  0  0  0  0  0  0  0  0  0
   -5.1140   18.8545  -34.1130 H   0  0  0  0  0  0  0  0  0  0  0  0
   -6.4674   19.1717  -35.2848 H   0  0  0  0  0  0  0  0  0  0  0  0
   -5.7168   20.6471  -32.8619 H   0  0  0  0  0  0  0  0  0  0  0  0
   -6.8501   21.0955  -34.1876 H   0  0  0  0  0  0  0  0  0  0  0  0
   -7.7999   23.7255  -29.8748 H   0  0  0  0  0  0  0  0  0  0  0  0
   -5.7794   24.6284  -28.7292 H   0  0  0  0  0  0  0  0  0  0  0  0
  1  2  2  0
  2  3  1  0
  3  4  1  0
  4  5  2  0
  5  6  1  0
  6  7  2  0
  7  8  1  0
  8  9  2  0
  9 10  1  0
  2 11  1  0
 11 12  2  0
 12 13  1  0
 13 14  2  0
 14 15  1  0
 15 16  2  0
 15 17  2  0
 15 18  1  0
 18 19  1  0
 19 20  1  0
 20 21  1  0
 21 22  1  0
 22 23  1  0
 14 24  1  0
 24 25  2  0
  9  4  1  0
 25 11  1  0
 23 18  1  0
  3 26  1  0
  5 27  1  0
  6 28  1  0
  7 29  1  0
  8 30  1  0
 12 31  1  0
 13 32  1  0
 19 33  1  0
 19 34  1  0
 20 35  1  0
 20 36  1  0
 22 37  1  0
 22 38  1  0
 23 39  1  0
 23 40  1  0
 24 41  1  0
 25 42  1  0
M  CHG  1  10  -1
M  END
>  <UniqueID>  (7) 
7

>  <SMILES>  (7) 
O=C(Nc1ccccc1[O-])c1ccc(S(=O)(=O)N2CCOCC2)cc1

>  <Energy>  (7) 
59.29025743331488

>  <Genealogy>  (7) 
O=C(Nc1ccccc1[O-])c1ccc(S(=O)(=O)N2CCOCC2)cc1 (protonated)
O=C(Nc1ccccc1[O-])c1ccc(S(=O)(=O)N2CCOCC2)cc1 (3D coordinates assigned)
O=C(Nc1ccccc1[O-])c1ccc(S(=O)(=O)N2CCOCC2)cc1 (nonaromatic ring conformer: 59.29025743331488 kcal/mol)

>  <smiles>  (7) 
O=C(Nc1ccccc1O)c1ccc(S(=O)(=O)N2CCOCC2)cc1

>  <score_type>  (7) 
oracle

>  <origin>  (7) 
adgpu

>  <m_score__min__energy>  (7) 
-11.31

>  <m_primary>  (7) 
energy

$$$$
7:0
     RDKit          3D

 52 54  0  0  0  0  0  0  0  0999 V2000
   -1.4330   18.4120  -26.7970 C   0  0  0  0  0  0  0  0  0  0  0  0
   -1.7900   19.8380  -27.0650 C   0  0  0  0  0  0  0  0  0  0  0  0
   -3.0020   20.1690  -27.1180 O   0  0  0  0  0  0  0  0  0  0  0  0
   -0.7520   20.8260  -27.1690 N   0  0  0  0  0  0  0  0  0  0  0  0
   -0.9410   22.1660  -27.6610 C   0  0  0  0  0  0  0  0  0  0  0  0
    0.0190   23.1740  -27.4550 C   0  0  0  0  0  0  0  0  0  0  0  0
   -0.2160   24.4760  -27.9030 C   0  0  0  0  0  0  0  0  0  0  0  0
   -1.4180   24.7980  -28.5410 C   0  0  0  0  0  0  0  0  0  0  0  0
   -1.6260   26.1090  -28.9600 O   0  0  0  0  0  0  0  0  0  0  0  0
   -2.3970   23.8050  -28.7370 C   0  0  0  0  0  0  0  0  0  0  0  0
   -3.9600   24.1560  -29.4850 S   0  0  0  0  0  0  0  0  0  0  0  0
   -3.8400   25.2490  -30.5120 O   0  0  0  0  0  0  0  0  0  0  0  0
   -4.9070   24.6050  -28.4080 O   0  0  0  0  0  0  0  0  0  0  0  0
   -4.5840   22.7130  -30.2480 N   0  0  0  0  0  0  0  0  0  0  0  0
   -3.5370   22.0860  -31.0660 C   0  0  0  0  0  0  0  0  0  0  0  0
   -4.0310   20.7200  -31.5450 C   0  0  0  0  0  0  0  0  0  0  0  0
   -5.3930   20.8230  -32.0790 N   0  0  0  0  0  0  0  0  0  0  0  0
   -6.0450   19.6420  -32.5700 C   0  0  0  0  0  0  0  0  0  0  0  0
   -5.3110   18.7360  -33.3530 C   0  0  0  0  0  0  0  0  0  0  0  0
   -5.9080   17.5610  -33.8330 C   0  0  0  0  0  0  0  0  0  0  0  0
   -5.1090   16.5750  -34.6360 C   0  0  0  0  0  0  0  0  0  0  0  0
   -7.2380   17.2750  -33.4940 C   0  0  0  0  0  0  0  0  0  0  0  0
   -7.9790   18.1750  -32.7240 C   0  0  0  0  0  0  0  0  0  0  0  0
   -7.4010   19.3730  -32.2730 C   0  0  0  0  0  0  0  0  0  0  0  0
   -8.2250   20.3240  -31.4480 C   0  0  0  0  0  0  0  0  0  0  0  0
   -6.0170   22.1370  -32.2610 C   0  0  0  0  0  0  0  0  0  0  0  0
   -5.8090   23.0310  -31.0210 C   0  0  0  0  0  0  0  0  0  0  0  0
   -2.1490   22.4970  -28.2940 C   0  0  0  0  0  0  0  0  0  0  0  0
   -1.3906   18.2425  -25.7110 H   0  0  0  0  0  0  0  0  0  0  0  0
   -2.1941   17.7537  -27.2414 H   0  0  0  0  0  0  0  0  0  0  0  0
   -0.4516   18.1900  -27.2414 H   0  0  0  0  0  0  0  0  0  0  0  0
    0.1960   20.5650  -26.8210 H   0  0  0  0  0  0  0  0  0  0  0  0
    0.9602   22.9352  -26.9381 H   0  0  0  0  0  0  0  0  0  0  0  0
    0.5487   25.2524  -27.7531 H   0  0  0  0  0  0  0  0  0  0  0  0
   -3.3161   22.7237  -31.9346 H   0  0  0  0  0  0  0  0  0  0  0  0
   -2.6223   21.9617  -30.4677 H   0  0  0  0  0  0  0  0  0  0  0  0
   -3.3602   20.3491  -32.3340 H   0  0  0  0  0  0  0  0  0  0  0  0
   -4.0355   20.0250  -30.6923 H   0  0  0  0  0  0  0  0  0  0  0  0
   -4.2587   18.9498  -33.5919 H   0  0  0  0  0  0  0  0  0  0  0  0
   -4.5648   15.9034  -33.9557 H   0  0  0  0  0  0  0  0  0  0  0  0
   -5.7863   15.9842  -35.2703 H   0  0  0  0  0  0  0  0  0  0  0  0
   -4.3907   17.1151  -35.2703 H   0  0  0  0  0  0  0  0  0  0  0  0
   -7.7004   16.3373  -33.8360 H   0  0  0  0  0  0  0  0  0  0  0  0
   -9.0237   17.9434  -32.4689 H   0  0  0  0  0  0  0  0  0  0  0  0
   -8.0534   20.1260  -30.3797 H   0  0  0  0  0  0  0  0  0  0  0  0
   -7.9332   21.3588  -31.6806 H   0  0  0  0  0  0  0  0  0  0  0  0
   -9.2908   20.1825  -31.6806 H   0  0  0  0  0  0  0  0  0  0  0  0
   -5.5687   22.6287  -33.1369 H   0  0  0  0  0  0  0  0  0  0  0  0
   -7.0974   21.9917  -32.4079 H   0  0  0  0  0  0  0  0  0  0  0  0
   -5.7455   24.0771  -31.3552 H   0  0  0  0  0  0  0  0  0  0  0  0
   -6.6635   22.8518  -30.3519 H   0  0  0  0  0  0  0  0  0  0  0  0
   -2.9125   21.7197  -28.4450 H   0  0  0  0  0  0  0  0  0  0  0  0
  1  2  1  0
  2  3  2  0
  2  4  1  0
  4  5  1  0
  5  6  2  0
  6  7  1  0
  7  8  2  0
  8  9  1  0
  8 10  1  0
 10 11  1  0
 11 12  2  0
 11 13  2  0
 11 14  1  0
 14 15  1  0
 15 16  1  0
 16 17  1  0
 17 18  1  0
 18 19  2  0
 19 20  1  0
 20 21  1  0
 20 22  2  0
 22 23  1  0
 23 24  2  0
 24 25  1  0
 17 26  1  0
 26 27  1  0
 10 28  2  0
 28  5  1  0
 27 14  1  0
 24 18  1  0
  1 29  1  0
  1 30  1  0
  1 31  1  0
  4 32  1  0
  6 33  1  0
  7 34  1  0
 15 35  1  0
 15 36  1  0
 16 37  1  0
 16 38  1  0
 19 39  1  0
 21 40  1  0
 21 41  1  0
 21 42  1  0
 22 43  1  0
 23 44  1  0
 25 45  1  0
 25 46  1  0
 25 47  1  0
 26 48  1  0
 26 49  1  0
 27 50  1  0
 27 51  1  0
 28 52  1  0
M  CHG  1   9  -1
M  END
>  <UniqueID>  (8) 
8

>  <SMILES>  (8) 
CC(=O)Nc1ccc([O-])c(S(=O)(=O)N2CCN(c3cc(C)ccc3C)CC2)c1

>  <Energy>  (8) 
64.3942057483318

>  <Genealogy>  (8) 
CC(=O)Nc1ccc([O-])c(S(=O)(=O)N2CCN(c3cc(C)ccc3C)CC2)c1 (protonated)
CC(=O)Nc1ccc([O-])c(S(=O)(=O)N2CCN(c3cc(C)ccc3C)CC2)c1 (3D coordinates assigned)
CC(=O)Nc1ccc([O-])c(S(=O)(=O)N2CCN(c3cc(C)ccc3C)CC2)c1 (nonaromatic ring conformer: 64.3942057483318 kcal/mol)

>  <smiles>  (8) 
CC(=O)Nc1ccc(O)c(S(=O)(=O)N2CCN(c3cc(C)ccc3C)CC2)c1

>  <score_type>  (8) 
oracle

>  <origin>  (8) 
adgpu

>  <m_score__min__energy>  (8) 
-12.779999999999999

>  <m_primary>  (8) 
energy

$$$$
8:0
     RDKit          3D

 38 41  0  0  0  0  0  0  0  0999 V2000
   -6.0590   18.3930  -33.6520 O   0  0  0  0  0  0  0  0  0  0  0  0
   -5.7860   19.5590  -33.2550 C   0  0  0  0  0  0  0  0  0  0  0  0
   -6.8530   20.4150  -32.6860 C   0  0  0  0  0  0  0  0  0  0  0  0
   -8.1740   19.9410  -32.5820 C   0  0  0  0  0  0  0  0  0  0  0  0
   -9.1750   20.7510  -32.0440 C   0  0  0  0  0  0  0  0  0  0  0  0
   -8.8730   22.0410  -31.6060 C   0  0  0  0  0  0  0  0  0  0  0  0
   -7.5680   22.5260  -31.7030 C   0  0  0  0  0  0  0  0  0  0  0  0
   -6.5470   21.7210  -32.2430 C   0  0  0  0  0  0  0  0  0  0  0  0
   -5.1600   22.2310  -32.3470 C   0  0  0  0  0  0  0  0  0  0  0  0
   -4.8860   23.3960  -31.9470 O   0  0  0  0  0  0  0  0  0  0  0  0
   -4.0930   21.3730  -32.9150 C   0  0  0  0  0  0  0  0  0  0  0  0
   -2.7730   21.8490  -33.0190 C   0  0  0  0  0  0  0  0  0  0  0  0
   -1.7550   21.0300  -33.5350 C   0  0  0  0  0  0  0  0  0  0  0  0
   -0.3990   21.4870  -33.6440 N   0  0  0  0  0  0  0  0  0  0  0  0
    0.2850   21.8380  -34.8550 C   0  0  0  0  0  0  0  0  0  0  0  0
    0.1060   22.9870  -35.3380 O   0  0  0  0  0  0  0  0  0  0  0  0
    1.1670   20.8840  -35.5690 C   0  0  0  0  0  0  0  0  0  0  0  0
    1.0730   19.5140  -35.2770 C   0  0  0  0  0  0  0  0  0  0  0  0
    1.8690   18.5890  -35.9550 C   0  0  0  0  0  0  0  0  0  0  0  0
    2.7770   19.0220  -36.9240 C   0  0  0  0  0  0  0  0  0  0  0  0
    3.5590   18.0930  -37.5990 O   0  0  0  0  0  0  0  0  0  0  0  0
    2.9010   20.3870  -37.2120 C   0  0  0  0  0  0  0  0  0  0  0  0
    3.8230   20.7980  -38.1770 O   0  0  0  0  0  0  0  0  0  0  0  0
    2.1060   21.3230  -36.5270 C   0  0  0  0  0  0  0  0  0  0  0  0
    2.2660   22.6810  -36.7840 O   0  0  0  0  0  0  0  0  0  0  0  0
   -2.0730   19.7490  -33.9970 C   0  0  0  0  0  0  0  0  0  0  0  0
   -3.3800   19.2690  -33.9050 C   0  0  0  0  0  0  0  0  0  0  0  0
   -4.3980   20.0700  -33.3600 C   0  0  0  0  0  0  0  0  0  0  0  0
   -8.4191   18.9256  -32.9270 H   0  0  0  0  0  0  0  0  0  0  0  0
  -10.2045   20.3717  -31.9650 H   0  0  0  0  0  0  0  0  0  0  0  0
   -9.6650   22.6768  -31.1835 H   0  0  0  0  0  0  0  0  0  0  0  0
   -7.3357   23.5435  -31.3554 H   0  0  0  0  0  0  0  0  0  0  0  0
   -2.5359   22.8725  -32.6931 H   0  0  0  0  0  0  0  0  0  0  0  0
    0.3669   19.1669  -34.5083 H   0  0  0  0  0  0  0  0  0  0  0  0
    1.7809   17.5168  -35.7256 H   0  0  0  0  0  0  0  0  0  0  0  0
    4.4340   20.1450  -38.6510 H   0  0  0  0  0  0  0  0  0  0  0  0
   -1.2878   19.1157  -34.4357 H   0  0  0  0  0  0  0  0  0  0  0  0
   -3.6154   18.2555  -34.2619 H   0  0  0  0  0  0  0  0  0  0  0  0
  1  2  2  0
  2  3  1  0
  3  4  2  0
  4  5  1  0
  5  6  2  0
  6  7  1  0
  7  8  2  0
  8  9  1  0
  9 10  2  0
  9 11  1  0
 11 12  2  0
 12 13  1  0
 13 14  1  0
 14 15  1  0
 15 16  2  0
 15 17  1  0
 17 18  2  0
 18 19  1  0
 19 20  2  0
 20 21  1  0
 20 22  1  0
 22 23  1  0
 22 24  2  0
 24 25  1  0
 13 26  2  0
 26 27  1  0
 27 28  2  0
 28  2  1  0
  8  3  1  0
 28 11  1  0
 24 17  1  0
  4 29  1  0
  5 30  1  0
  6 31  1  0
  7 32  1  0
 12 33  1  0
 18 34  1  0
 19 35  1  0
 23 36  1  0
 26 37  1  0
 27 38  1  0
M  CHG  3  14  -1  21  -1  25  -1
M  END
>  <UniqueID>  (9) 
9

>  <SMILES>  (9) 
O=C1c2ccccc2C(=O)c2cc([N-]C(=O)c3ccc([O-])c(O)c3[O-])ccc21

>  <Energy>  (9) 
56.587136754799715

>  <Genealogy>  (9) 
O=C1c2ccccc2C(=O)c2cc([N-]C(=O)c3ccc([O-])c(O)c3[O-])ccc21 (protonated)
O=C1c2ccccc2C(=O)c2cc([N-]C(=O)c3ccc([O-])c(O)c3[O-])ccc21 (3D coordinates assigned)
O=C1c2ccccc2C(=O)c2cc([N-]C(=O)c3ccc([O-])c(O)c3[O-])ccc21 (nonaromatic ring conformer: 56.587136754799715 kcal/mol)

>  <smiles>  (9) 
O=C1c2ccccc2C(=O)c2cc(NC(=O)c3ccc(O)c(O)c3O)ccc21

>  <score_type>  (9) 
oracle

>  <origin>  (9) 
adgpu

>  <m_score__min__energy>  (9) 
-13.59

>  <m_primary>  (9) 
energy

$$$$
9:0
     RDKit          3D

 61 64  0  0  0  0  0  0  0  0999 V2000
    0.2180   19.2140  -33.3070 C   0  0  0  0  0  0  0  0  0  0  0  0
   -0.8800   19.9220  -33.8720 O   0  0  0  0  0  0  0  0  0  0  0  0
   -1.8050   20.6750  -33.1330 C   0  0  0  0  0  0  0  0  0  0  0  0
   -3.1370   20.8340  -33.5360 C   0  0  0  0  0  0  0  0  0  0  0  0
   -4.0150   21.5990  -32.7710 C   0  0  0  0  0  0  0  0  0  0  0  0
   -3.5930   22.2270  -31.5850 C   0  0  0  0  0  0  0  0  0  0  0  0
   -4.7960   23.1640  -30.6650 S   0  0  0  0  0  0  0  0  0  0  0  0
   -4.6530   22.8670  -29.2000 O   0  0  0  0  0  0  0  0  0  0  0  0
   -4.6100   24.6380  -30.8830 O   0  0  0  0  0  0  0  0  0  0  0  0
   -6.4390   22.7600  -31.1610 C   0  0  0  0  0  0  0  0  0  0  0  0
   -7.3620   23.7700  -31.4650 C   0  0  0  0  0  0  0  0  0  0  0  0
   -8.6450   23.4380  -31.9070 C   0  0  0  0  0  0  0  0  0  0  0  0
   -9.0090   22.0980  -32.0680 C   0  0  0  0  0  0  0  0  0  0  0  0
   -8.0910   21.0820  -31.7670 C   0  0  0  0  0  0  0  0  0  0  0  0
   -8.4740   19.3970  -32.0910 S   0  0  0  0  0  0  0  0  0  0  0  0
   -8.9560   18.7320  -30.8320 O   0  0  0  0  0  0  0  0  0  0  0  0
   -9.5560   19.2890  -33.1290 O   0  0  0  0  0  0  0  0  0  0  0  0
   -7.0080   18.6180  -32.6730 C   0  0  0  0  0  0  0  0  0  0  0  0
   -6.4860   17.5050  -31.9990 C   0  0  0  0  0  0  0  0  0  0  0  0
   -5.3670   16.8370  -32.5050 C   0  0  0  0  0  0  0  0  0  0  0  0
   -4.7620   17.2740  -33.6920 C   0  0  0  0  0  0  0  0  0  0  0  0
   -3.3880   16.4000  -34.3590 S   0  0  0  0  0  0  0  0  0  0  0  0
   -3.3870   14.7410  -33.7190 C   0  0  0  0  0  0  0  0  0  0  0  0
   -3.4890   16.3650  -35.8590 O   0  0  0  0  0  0  0  0  0  0  0  0
   -2.1080   17.0900  -33.9770 O   0  0  0  0  0  0  0  0  0  0  0  0
   -5.2900   18.3800  -34.3710 C   0  0  0  0  0  0  0  0  0  0  0  0
   -6.4080   19.0490  -33.8640 C   0  0  0  0  0  0  0  0  0  0  0  0
   -6.8150   21.4170  -31.2980 C   0  0  0  0  0  0  0  0  0  0  0  0
   -2.2450   22.0490  -31.1590 C   0  0  0  0  0  0  0  0  0  0  0  0
   -1.5900   22.7460  -29.6620 S   0  0  0  0  0  0  0  0  0  0  0  0
   -0.1230   23.0380  -29.8260 O   0  0  0  0  0  0  0  0  0  0  0  0
   -2.2910   24.0430  -29.3720 O   0  0  0  0  0  0  0  0  0  0  0  0
   -1.7450   21.6250  -28.3130 C   0  0  0  0  0  0  0  0  0  0  0  0
   -1.0920   21.8730  -27.0960 C   0  0  0  0  0  0  0  0  0  0  0  0
   -1.2220   20.9710  -26.0350 C   0  0  0  0  0  0  0  0  0  0  0  0
   -1.9960   19.8170  -26.1860 C   0  0  0  0  0  0  0  0  0  0  0  0
   -2.6400   19.5610  -27.3990 C   0  0  0  0  0  0  0  0  0  0  0  0
   -2.5130   20.4610  -28.4620 C   0  0  0  0  0  0  0  0  0  0  0  0
   -1.3740   21.2820  -31.9530 C   0  0  0  0  0  0  0  0  0  0  0  0
    0.1549   19.2547  -32.2096 H   0  0  0  0  0  0  0  0  0  0  0  0
    0.1871   18.1652  -33.6374 H   0  0  0  0  0  0  0  0  0  0  0  0
    1.1605   19.6749  -33.6374 H   0  0  0  0  0  0  0  0  0  0  0  0
   -3.4912   20.3532  -34.4598 H   0  0  0  0  0  0  0  0  0  0  0  0
   -5.0581   21.7141  -33.1007 H   0  0  0  0  0  0  0  0  0  0  0  0
   -7.0756   24.8264  -31.3553 H   0  0  0  0  0  0  0  0  0  0  0  0
   -9.3713   24.2338  -32.1291 H   0  0  0  0  0  0  0  0  0  0  0  0
  -10.0151   21.8408  -32.4307 H   0  0  0  0  0  0  0  0  0  0  0  0
   -6.9585   17.1562  -31.0689 H   0  0  0  0  0  0  0  0  0  0  0  0
   -4.9600   15.9661  -31.9704 H   0  0  0  0  0  0  0  0  0  0  0  0
   -3.3870   14.7722  -32.6194 H   0  0  0  0  0  0  0  0  0  0  0  0
   -4.2848   14.2117  -34.0708 H   0  0  0  0  0  0  0  0  0  0  0  0
   -2.4885   14.2128  -34.0708 H   0  0  0  0  0  0  0  0  0  0  0  0
   -4.8233   18.7231  -35.3061 H   0  0  0  0  0  0  0  0  0  0  0  0
   -6.8181   19.9166  -34.4017 H   0  0  0  0  0  0  0  0  0  0  0  0
   -6.1030   20.6207  -31.0353 H   0  0  0  0  0  0  0  0  0  0  0  0
   -0.4774   22.7774  -26.9763 H   0  0  0  0  0  0  0  0  0  0  0  0
   -0.7141   21.1702  -25.0798 H   0  0  0  0  0  0  0  0  0  0  0  0
   -2.0981   19.1101  -25.3494 H   0  0  0  0  0  0  0  0  0  0  0  0
   -3.2471   18.6514  -27.5181 H   0  0  0  0  0  0  0  0  0  0  0  0
   -3.0170   20.2553  -29.4178 H   0  0  0  0  0  0  0  0  0  0  0  0
   -0.3280   21.1576  -31.6362 H   0  0  0  0  0  0  0  0  0  0  0  0
  1  2  1  0
  2  3  1  0
  3  4  2  0
  4  5  1  0
  5  6  2  0
  6  7  1  0
  7  8  2  0
  7  9  2  0
  7 10  1  0
 10 11  2  0
 11 12  1  0
 12 13  2  0
 13 14  1  0
 14 15  1  0
 15 16  2  0
 15 17  2  0
 15 18  1  0
 18 19  2  0
 19 20  1  0
 20 21  2  0
 21 22  1  0
 22 23  1  0
 22 24  2  0
 22 25  2  0
 21 26  1  0
 26 27  2  0
 14 28  2  0
  6 29  1  0
 29 30  1  0
 30 31  2  0
 30 32  2  0
 30 33  1  0
 33 34  2  0
 34 35  1  0
 35 36  2  0
 36 37  1  0
 37 38  2  0
 29 39  2  0
 39  3  1  0
 28 10  1  0
 38 33  1  0
 27 18  1  0
  1 40  1  0
  1 41  1  0
  1 42  1  0
  4 43  1  0
  5 44  1  0
 11 45  1  0
 12 46  1  0
 13 47  1  0
 19 48  1  0
 20 49  1  0
 23 50  1  0
 23 51  1  0
 23 52  1  0
 26 53  1  0
 27 54  1  0
 28 55  1  0
 34 56  1  0
 35 57  1  0
 36 58  1  0
 37 59  1  0
 38 60  1  0
 39 61  1  0
M  END
>  <UniqueID>  (10) 
10

>  <SMILES>  (10) 
COc1ccc(S(=O)(=O)c2cccc(S(=O)(=O)c3ccc(S(C)(=O)=O)cc3)c2)c(S(=O)(=O)c2ccccc2)c1

>  <Energy>  (10) 
70.48900673511663

>  <Genealogy>  (10) 
COc1ccc(S(=O)(=O)c2cccc(S(=O)(=O)c3ccc(S(C)(=O)=O)cc3)c2)c(S(=O)(=O)c2ccccc2)c1 (3D coordinates assigned)
COc1ccc(S(=O)(=O)c2cccc(S(=O)(=O)c3ccc(S(C)(=O)=O)cc3)c2)c(S(=O)(=O)c2ccccc2)c1 (optimized conformer: 70.48900673511663 kcal/mol)

>  <smiles>  (10) 
COc1ccc(S(=O)(=O)c2cccc(S(=O)(=O)c3ccc(S(C)(=O)=O)cc3)c2)c(S(=O)(=O)c2ccccc2)c1

>  <score_type>  (10) 
oracle

>  <origin>  (10) 
adgpu

>  <m_score__min__energy>  (10) 
-12.52

>  <m_primary>  (10) 
energy

$$$$
10:0
     RDKit          3D

 68 72  0  0  0  0  0  0  0  0999 V2000
   -0.6770   21.0780  -31.8490 C   0  0  0  0  0  0  0  0  0  0  0  0
   -2.1380   20.6670  -31.9990 C   0  0  0  0  0  0  0  0  0  0  0  0
   -2.9200   21.7050  -32.8100 C   0  0  0  0  0  0  0  0  0  0  0  0
   -4.4070   21.5830  -32.5590 C   0  0  0  0  0  0  0  0  0  0  0  0
   -5.1170   20.6270  -33.3090 C   0  0  0  0  0  0  0  0  0  0  0  0
   -6.4890   20.4530  -33.1330 C   0  0  0  0  0  0  0  0  0  0  0  0
   -7.1770   21.2300  -32.2060 C   0  0  0  0  0  0  0  0  0  0  0  0
   -6.4930   22.1750  -31.4420 C   0  0  0  0  0  0  0  0  0  0  0  0
   -5.1070   22.3600  -31.5910 C   0  0  0  0  0  0  0  0  0  0  0  0
   -4.3330   23.5950  -30.5750 S   0  0  0  0  0  0  0  0  0  0  0  0
   -4.6210   24.9540  -31.1470 O   0  0  0  0  0  0  0  0  0  0  0  0
   -4.8680   23.5720  -29.1730 O   0  0  0  0  0  0  0  0  0  0  0  0
   -2.6180   23.3610  -30.5590 N   0  0  0  0  0  0  0  0  0  0  0  0
   -1.9060   23.2800  -29.3280 C   0  0  0  0  0  0  0  0  0  0  0  0
   -1.7160   22.0380  -28.7110 C   0  0  0  0  0  0  0  0  0  0  0  0
   -1.1110   21.9620  -27.4450 C   0  0  0  0  0  0  0  0  0  0  0  0
   -0.9640   20.6570  -26.7650 C   0  0  0  0  0  0  0  0  0  0  0  0
   -1.5290   20.4710  -25.6530 O   0  0  0  0  0  0  0  0  0  0  0  0
   -0.2040   19.5910  -27.3620 N   0  0  0  0  0  0  0  0  0  0  0  0
    1.1390   19.8520  -27.8960 C   0  0  0  0  0  0  0  0  0  0  0  0
    1.3530   19.0250  -29.1580 C   0  0  0  0  0  0  0  0  0  0  0  0
    1.2870   17.5200  -28.8380 C   0  0  0  0  0  0  0  0  0  0  0  0
    1.0730   16.7310  -30.0740 N   0  0  0  0  0  0  0  0  0  0  0  0
    0.0280   17.0540  -31.0110 C   0  0  0  0  0  0  0  0  0  0  0  0
   -0.4740   18.2080  -31.0550 O   0  0  0  0  0  0  0  0  0  0  0  0
   -0.3970   16.0890  -31.9250 O   0  0  0  0  0  0  0  0  0  0  0  0
   -0.0190   14.7210  -31.7880 C   0  0  0  0  0  0  0  0  0  0  0  0
    1.3930   14.6030  -31.2800 C   0  0  0  0  0  0  0  0  0  0  0  0
    2.1730   13.4860  -31.6120 C   0  0  0  0  0  0  0  0  0  0  0  0
    3.4740   13.3670  -31.1210 C   0  0  0  0  0  0  0  0  0  0  0  0
    4.0020   14.3600  -30.2960 C   0  0  0  0  0  0  0  0  0  0  0  0
    3.2280   15.4700  -29.9450 C   0  0  0  0  0  0  0  0  0  0  0  0
    1.9020   15.5910  -30.4080 C   0  0  0  0  0  0  0  0  0  0  0  0
    0.2710   17.1520  -27.7150 C   0  0  0  0  0  0  0  0  0  0  0  0
   -0.7770   18.2360  -27.3930 C   0  0  0  0  0  0  0  0  0  0  0  0
   -0.6490   23.1380  -26.8320 C   0  0  0  0  0  0  0  0  0  0  0  0
   -0.8120   24.3740  -27.4630 C   0  0  0  0  0  0  0  0  0  0  0  0
   -1.4460   24.4490  -28.7050 C   0  0  0  0  0  0  0  0  0  0  0  0
   -1.6270   25.6860  -29.3120 O   0  0  0  0  0  0  0  0  0  0  0  0
   -0.4239   21.1492  -30.7809 H   0  0  0  0  0  0  0  0  0  0  0  0
   -0.0334   20.3260  -32.3290 H   0  0  0  0  0  0  0  0  0  0  0  0
   -0.5199   22.0552  -32.3290 H   0  0  0  0  0  0  0  0  0  0  0  0
   -2.1875   19.6964  -32.5142 H   0  0  0  0  0  0  0  0  0  0  0  0
   -2.5863   20.5949  -30.9971 H   0  0  0  0  0  0  0  0  0  0  0  0
   -2.5879   22.7126  -32.5195 H   0  0  0  0  0  0  0  0  0  0  0  0
   -2.7301   21.5291  -33.8791 H   0  0  0  0  0  0  0  0  0  0  0  0
   -4.5819   20.0083  -34.0445 H   0  0  0  0  0  0  0  0  0  0  0  0
   -7.0282   19.7008  -33.7275 H   0  0  0  0  0  0  0  0  0  0  0  0
   -8.2613   21.0987  -32.0758 H   0  0  0  0  0  0  0  0  0  0  0  0
   -7.0457   22.7847  -30.7121 H   0  0  0  0  0  0  0  0  0  0  0  0
   -2.0415   21.1182  -29.2190 H   0  0  0  0  0  0  0  0  0  0  0  0
    1.2365   20.9208  -28.1370 H   0  0  0  0  0  0  0  0  0  0  0  0
    1.8928   19.5756  -27.1441 H   0  0  0  0  0  0  0  0  0  0  0  0
    0.5704   19.2735  -29.8900 H   0  0  0  0  0  0  0  0  0  0  0  0
    2.3465   19.2567  -29.5694 H   0  0  0  0  0  0  0  0  0  0  0  0
    2.2675   17.2484  -28.4199 H   0  0  0  0  0  0  0  0  0  0  0  0
   -0.6997   14.2285  -31.0780 H   0  0  0  0  0  0  0  0  0  0  0  0
   -0.0793   14.2389  -32.7749 H   0  0  0  0  0  0  0  0  0  0  0  0
    1.7582   12.7011  -32.2615 H   0  0  0  0  0  0  0  0  0  0  0  0
    4.0832   12.4899  -31.3847 H   0  0  0  0  0  0  0  0  0  0  0  0
    5.0317   14.2693  -29.9200 H   0  0  0  0  0  0  0  0  0  0  0  0
    3.6564   16.2541  -29.3034 H   0  0  0  0  0  0  0  0  0  0  0  0
   -0.2649   16.2431  -28.0261 H   0  0  0  0  0  0  0  0  0  0  0  0
    0.8650   17.0217  -26.7984 H   0  0  0  0  0  0  0  0  0  0  0  0
   -1.5632   18.2043  -28.1617 H   0  0  0  0  0  0  0  0  0  0  0  0
   -1.1775   18.0225  -26.3910 H   0  0  0  0  0  0  0  0  0  0  0  0
   -0.1562   23.0858  -25.8499 H   0  0  0  0  0  0  0  0  0  0  0  0
   -0.4401   25.2899  -26.9804 H   0  0  0  0  0  0  0  0  0  0  0  0
  1  2  1  0
  2  3  1  0
  3  4  1  0
  4  5  2  0
  5  6  1  0
  6  7  2  0
  7  8  1  0
  8  9  2  0
  9 10  1  0
 10 11  2  0
 10 12  2  0
 10 13  1  0
 13 14  1  0
 14 15  2  0
 15 16  1  0
 16 17  1  0
 17 18  2  0
 17 19  1  0
 19 20  1  0
 20 21  1  0
 21 22  1  0
 22 23  1  0
 23 24  1  0
 24 25  2  0
 24 26  1  0
 26 27  1  0
 27 28  1  0
 28 29  2  0
 29 30  1  0
 30 31  2  0
 31 32  1  0
 32 33  2  0
 22 34  1  0
 34 35  1  0
 16 36  2  0
 36 37  1  0
 37 38  2  0
 38 39  1  0
  9  4  1  0
 38 14  1  0
 35 19  1  0
 33 23  1  0
 33 28  1  0
  1 40  1  0
  1 41  1  0
  1 42  1  0
  2 43  1  0
  2 44  1  0
  3 45  1  0
  3 46  1  0
  5 47  1  0
  6 48  1  0
  7 49  1  0
  8 50  1  0
 15 51  1  0
 20 52  1  0
 20 53  1  0
 21 54  1  0
 21 55  1  0
 22 56  1  0
 27 57  1  0
 27 58  1  0
 29 59  1  0
 30 60  1  0
 31 61  1  0
 32 62  1  0
 34 63  1  0
 34 64  1  0
 35 65  1  0
 35 66  1  0
 36 67  1  0
 37 68  1  0
M  CHG  2  13  -1  39  -1
M  END
>  <UniqueID>  (11) 
11

>  <SMILES>  (11) 
CCCc1ccccc1S(=O)(=O)[N-]c1cc(C(=O)N2CCC(N3C(=O)OCc4ccccc43)CC2)ccc1[O-]

>  <Energy>  (11) 
95.02424406501186

>  <Genealogy>  (11) 
CCCc1ccccc1S(=O)(=O)[N-]c1cc(C(=O)N2CCC(N3C(=O)OCc4ccccc43)CC2)ccc1[O-] (protonated)
CCCc1ccccc1S(=O)(=O)[N-]c1cc(C(=O)N2CCC(N3C(=O)OCc4ccccc43)CC2)ccc1[O-] (3D coordinates assigned)
CCCc1ccccc1S(=O)(=O)[N-]c1cc(C(=O)N2CCC(N3C(=O)OCc4ccccc43)CC2)ccc1[O-] (nonaromatic ring conformer: 95.02424406501186 kcal/mol)

>  <smiles>  (11) 
CCCc1ccccc1S(=O)(=O)Nc1cc(C(=O)N2CCC(N3C(=O)OCc4ccccc43)CC2)ccc1O

>  <score_type>  (11) 
oracle

>  <origin>  (11) 
adgpu

>  <m_score__min__energy>  (11) 
-13.550000000000001

>  <m_primary>  (11) 
energy

$$$$
11:0
     RDKit          3D

 44 47  0  0  0  0  0  0  0  0999 V2000
   -1.2120   21.4550  -25.5960 C   0  0  0  0  0  0  0  0  0  0  0  0
   -0.5890   20.7380  -26.7240 N   0  0  0  0  0  0  0  0  0  0  0  0
   -1.5790   19.8950  -27.4510 C   0  0  0  0  0  0  0  0  0  0  0  0
   -2.0790   20.4650  -28.8050 C   0  0  0  0  0  0  0  0  0  0  0  0
   -1.9130   21.9550  -28.9160 C   0  0  0  0  0  0  0  0  0  0  0  0
   -2.8220   22.7380  -29.6400 C   0  0  0  0  0  0  0  0  0  0  0  0
   -2.6140   24.1240  -29.7770 C   0  0  0  0  0  0  0  0  0  0  0  0
   -3.5370   24.9610  -30.4880 N   0  0  0  0  0  0  0  0  0  0  0  0
   -5.2640   24.8190  -30.4320 S   0  0  0  0  0  0  0  0  0  0  0  0
   -5.8770   25.9950  -31.1400 O   0  0  0  0  0  0  0  0  0  0  0  0
   -5.7140   24.8270  -28.9990 O   0  0  0  0  0  0  0  0  0  0  0  0
   -5.7620   23.3030  -31.1770 C   0  0  0  0  0  0  0  0  0  0  0  0
   -4.8990   22.6560  -32.0690 C   0  0  0  0  0  0  0  0  0  0  0  0
   -5.2820   21.4600  -32.6830 C   0  0  0  0  0  0  0  0  0  0  0  0
   -6.5400   20.8960  -32.4140 C   0  0  0  0  0  0  0  0  0  0  0  0
   -6.9450   19.6910  -33.0190 C   0  0  0  0  0  0  0  0  0  0  0  0
   -6.1080   19.0210  -33.9060 O   0  0  0  0  0  0  0  0  0  0  0  0
   -8.2040   19.1520  -32.7310 C   0  0  0  0  0  0  0  0  0  0  0  0
   -9.0660   19.8030  -31.8480 C   0  0  0  0  0  0  0  0  0  0  0  0
   -8.6770   20.9980  -31.2400 C   0  0  0  0  0  0  0  0  0  0  0  0
   -7.4160   21.5510  -31.5120 C   0  0  0  0  0  0  0  0  0  0  0  0
   -7.0190   22.7490  -30.8980 C   0  0  0  0  0  0  0  0  0  0  0  0
   -1.4700   24.7050  -29.2110 C   0  0  0  0  0  0  0  0  0  0  0  0
   -1.2430   26.0710  -29.3410 O   0  0  0  0  0  0  0  0  0  0  0  0
   -0.5490   23.9180  -28.5130 C   0  0  0  0  0  0  0  0  0  0  0  0
   -0.7740   22.5440  -28.3640 C   0  0  0  0  0  0  0  0  0  0  0  0
    0.1660   21.6610  -27.5950 C   0  0  0  0  0  0  0  0  0  0  0  0
   -0.8466   21.0345  -24.6475 H   0  0  0  0  0  0  0  0  0  0  0  0
   -0.9491   22.5218  -25.6495 H   0  0  0  0  0  0  0  0  0  0  0  0
   -2.3050   21.3436  -25.6495 H   0  0  0  0  0  0  0  0  0  0  0  0
   -1.1128   18.9181  -27.6465 H   0  0  0  0  0  0  0  0  0  0  0  0
   -2.4648   19.8429  -26.8009 H   0  0  0  0  0  0  0  0  0  0  0  0
   -1.5102   19.9881  -29.6168 H   0  0  0  0  0  0  0  0  0  0  0  0
   -3.1555   20.2493  -28.8737 H   0  0  0  0  0  0  0  0  0  0  0  0
   -3.7019   22.2679  -30.1034 H   0  0  0  0  0  0  0  0  0  0  0  0
   -3.9130   23.0915  -32.2883 H   0  0  0  0  0  0  0  0  0  0  0  0
   -4.5949   20.9581  -33.3802 H   0  0  0  0  0  0  0  0  0  0  0  0
   -8.5159   18.2091  -33.2038 H   0  0  0  0  0  0  0  0  0  0  0  0
  -10.0550   19.3735  -31.6302 H   0  0  0  0  0  0  0  0  0  0  0  0
   -9.3610   21.5078  -30.5455 H   0  0  0  0  0  0  0  0  0  0  0  0
   -7.6970   23.2552  -30.1951 H   0  0  0  0  0  0  0  0  0  0  0  0
    0.3520   24.3780  -28.0811 H   0  0  0  0  0  0  0  0  0  0  0  0
    0.7736   21.0766  -28.3016 H   0  0  0  0  0  0  0  0  0  0  0  0
    0.8147   22.2912  -26.9688 H   0  0  0  0  0  0  0  0  0  0  0  0
  1  2  1  0
  2  3  1  0
  3  4  1  0
  4  5  1  0
  5  6  2  0
  6  7  1  0
  7  8  1  0
  8  9  1  0
  9 10  2  0
  9 11  2  0
  9 12  1  0
 12 13  2  0
 13 14  1  0
 14 15  2  0
 15 16  1  0
 16 17  1  0
 16 18  2  0
 18 19  1  0
 19 20  2  0
 20 21  1  0
 21 22  2  0
  7 23  2  0
 23 24  1  0
 23 25  1  0
 25 26  2  0
 26 27  1  0
 27  2  1  0
 26  5  1  0
 22 12  1  0
 21 15  1  0
  1 28  1  0
  1 29  1  0
  1 30  1  0
  3 31  1  0
  3 32  1  0
  4 33  1  0
  4 34  1  0
  6 35  1  0
 13 36  1  0
 14 37  1  0
 18 38  1  0
 19 39  1  0
 20 40  1  0
 22 41  1  0
 25 42  1  0
 27 43  1  0
 27 44  1  0
M  CHG  3   8  -1  17  -1  24  -1
M  END
>  <UniqueID>  (12) 
12

>  <SMILES>  (12) 
CN1CCc2cc([N-]S(=O)(=O)c3ccc4c([O-])cccc4c3)c([O-])cc2C1

>  <Energy>  (12) 
65.40392110301683

>  <Genealogy>  (12) 
CN1CCc2cc([N-]S(=O)(=O)c3ccc4c([O-])cccc4c3)c([O-])cc2C1 (protonated)
CN1CCc2cc([N-]S(=O)(=O)c3ccc4c([O-])cccc4c3)c([O-])cc2C1 (3D coordinates assigned)
CN1CCc2cc([N-]S(=O)(=O)c3ccc4c([O-])cccc4c3)c([O-])cc2C1 (nonaromatic ring conformer: 65.40392110301683 kcal/mol)

>  <smiles>  (12) 
CN1CCc2cc(NS(=O)(=O)c3ccc4c(O)cccc4c3)c(O)cc2C1

>  <score_type>  (12) 
oracle

>  <origin>  (12) 
adgpu

>  <m_score__min__energy>  (12) 
-14.33

>  <m_primary>  (12) 
energy

$$$$
12:0
     RDKit          3D

 51 54  0  0  0  0  0  0  0  0999 V2000
   -9.8180   20.9510  -32.3350 C   0  0  0  0  0  0  0  0  0  0  0  0
   -8.4920   21.4870  -31.8650 C   0  0  0  0  0  0  0  0  0  0  0  0
   -8.3890   22.8480  -31.5290 C   0  0  0  0  0  0  0  0  0  0  0  0
   -7.1750   23.3850  -31.0960 C   0  0  0  0  0  0  0  0  0  0  0  0
   -6.0450   22.5710  -30.9860 C   0  0  0  0  0  0  0  0  0  0  0  0
   -4.5090   23.2480  -30.4490 S   0  0  0  0  0  0  0  0  0  0  0  0
   -4.5770   23.5290  -28.9740 O   0  0  0  0  0  0  0  0  0  0  0  0
   -4.2340   24.5340  -31.1780 O   0  0  0  0  0  0  0  0  0  0  0  0
   -3.2010   22.1140  -30.7890 C   0  0  0  0  0  0  0  0  0  0  0  0
   -2.7370   21.9380  -32.1000 C   0  0  0  0  0  0  0  0  0  0  0  0
   -1.6490   21.0980  -32.3530 C   0  0  0  0  0  0  0  0  0  0  0  0
   -1.0130   20.4380  -31.2990 C   0  0  0  0  0  0  0  0  0  0  0  0
   -1.4600   20.6190  -29.9850 C   0  0  0  0  0  0  0  0  0  0  0  0
   -0.6590   19.7800  -28.6620 S   0  0  0  0  0  0  0  0  0  0  0  0
    0.3690   20.6720  -28.0220 O   0  0  0  0  0  0  0  0  0  0  0  0
    0.0380   18.5540  -29.1820 O   0  0  0  0  0  0  0  0  0  0  0  0
   -1.8510   19.3160  -27.4650 C   0  0  0  0  0  0  0  0  0  0  0  0
   -1.6330   18.4820  -26.3950 C   0  0  0  0  0  0  0  0  0  0  0  0
   -2.7890   18.3670  -25.7260 N   0  0  0  0  0  0  0  0  0  0  0  0
   -3.6750   19.1240  -26.4010 C   0  0  0  0  0  0  0  0  0  0  0  0
   -3.1350   19.7260  -27.4830 N   0  0  0  0  0  0  0  0  0  0  0  0
   -2.5570   21.4570  -29.7320 C   0  0  0  0  0  0  0  0  0  0  0  0
   -6.1410   21.2140  -31.3080 C   0  0  0  0  0  0  0  0  0  0  0  0
   -7.3440   20.6630  -31.7740 C   0  0  0  0  0  0  0  0  0  0  0  0
   -7.3750   18.9470  -32.2180 S   0  0  0  0  0  0  0  0  0  0  0  0
   -8.5880   18.6440  -33.0520 O   0  0  0  0  0  0  0  0  0  0  0  0
   -7.4160   18.1080  -30.9710 O   0  0  0  0  0  0  0  0  0  0  0  0
   -5.9440   18.5280  -33.1650 C   0  0  0  0  0  0  0  0  0  0  0  0
   -6.0710   17.8270  -34.3740 C   0  0  0  0  0  0  0  0  0  0  0  0
   -4.9290   17.4310  -35.0780 C   0  0  0  0  0  0  0  0  0  0  0  0
   -3.6580   17.7320  -34.5800 C   0  0  0  0  0  0  0  0  0  0  0  0
   -3.5280   18.4270  -33.3750 C   0  0  0  0  0  0  0  0  0  0  0  0
   -4.6670   18.8190  -32.6650 C   0  0  0  0  0  0  0  0  0  0  0  0
  -10.4411   20.6991  -31.4642 H   0  0  0  0  0  0  0  0  0  0  0  0
  -10.3275   21.7138  -32.9421 H   0  0  0  0  0  0  0  0  0  0  0  0
   -9.6543   20.0484  -32.9421 H   0  0  0  0  0  0  0  0  0  0  0  0
   -9.2739   23.4967  -31.6080 H   0  0  0  0  0  0  0  0  0  0  0  0
   -7.1081   24.4528  -30.8406 H   0  0  0  0  0  0  0  0  0  0  0  0
   -3.2304   22.4623  -32.9317 H   0  0  0  0  0  0  0  0  0  0  0  0
   -1.2929   20.9564  -33.3841 H   0  0  0  0  0  0  0  0  0  0  0  0
   -0.1592   19.7747  -31.5020 H   0  0  0  0  0  0  0  0  0  0  0  0
   -0.6812   17.9961  -26.1343 H   0  0  0  0  0  0  0  0  0  0  0  0
   -2.9640   17.8080  -24.8620 H   0  0  0  0  0  0  0  0  0  0  0  0
   -4.7274   19.2399  -26.1027 H   0  0  0  0  0  0  0  0  0  0  0  0
   -2.9124   21.5985  -28.7007 H   0  0  0  0  0  0  0  0  0  0  0  0
   -5.2584   20.5674  -31.1941 H   0  0  0  0  0  0  0  0  0  0  0  0
   -7.0698   17.5886  -34.7685 H   0  0  0  0  0  0  0  0  0  0  0  0
   -5.0313   16.8816  -36.0255 H   0  0  0  0  0  0  0  0  0  0  0  0
   -2.7611   17.4220  -35.1363 H   0  0  0  0  0  0  0  0  0  0  0  0
   -2.5280   18.6662  -32.9842 H   0  0  0  0  0  0  0  0  0  0  0  0
   -4.5608   19.3572  -31.7115 H   0  0  0  0  0  0  0  0  0  0  0  0
  1  2  1  0
  2  3  2  0
  3  4  1  0
  4  5  2  0
  5  6  1  0
  6  7  2  0
  6  8  2  0
  6  9  1  0
  9 10  2  0
 10 11  1  0
 11 12  2  0
 12 13  1  0
 13 14  1  0
 14 15  2  0
 14 16  2  0
 14 17  1  0
 17 18  2  0
 18 19  1  0
 19 20  1  0
 20 21  2  0
 13 22  2  0
  5 23  1  0
 23 24  2  0
 24 25  1  0
 25 26  2  0
 25 27  2  0
 25 28  1  0
 28 29  2  0
 29 30  1  0
 30 31  2  0
 31 32  1  0
 32 33  2  0
 24  2  1  0
 33 28  1  0
 22  9  1  0
 21 17  1  0
  1 34  1  0
  1 35  1  0
  1 36  1  0
  3 37  1  0
  4 38  1  0
 10 39  1  0
 11 40  1  0
 12 41  1  0
 18 42  1  0
 19 43  1  0
 20 44  1  0
 22 45  1  0
 23 46  1  0
 29 47  1  0
 30 48  1  0
 31 49  1  0
 32 50  1  0
 33 51  1  0
M  END
>  <UniqueID>  (13) 
13

>  <SMILES>  (13) 
Cc1ccc(S(=O)(=O)c2cccc(S(=O)(=O)c3c[nH]cn3)c2)cc1S(=O)(=O)c1ccccc1

>  <Energy>  (13) 
88.28477705726145

>  <Genealogy>  (13) 
Cc1ccc(S(=O)(=O)c2cccc(S(=O)(=O)c3c[nH]cn3)c2)cc1S(=O)(=O)c1ccccc1 (3D coordinates assigned)
Cc1ccc(S(=O)(=O)c2cccc(S(=O)(=O)c3c[nH]cn3)c2)cc1S(=O)(=O)c1ccccc1 (optimized conformer: 88.28477705726145 kcal/mol)

>  <smiles>  (13) 
Cc1ccc(S(=O)(=O)c2cccc(S(=O)(=O)c3c[nH]cn3)c2)cc1S(=O)(=O)c1ccccc1

>  <score_type>  (13) 
oracle

>  <origin>  (13) 
adgpu

>  <m_score__min__energy>  (13) 
-12.199999999999999

>  <m_primary>  (13) 
energy

$$$$
13:0
     RDKit          3D

 57 60  0  0  0  0  0  0  0  0999 V2000
   -2.0410   25.3050  -29.0290 O   0  0  0  0  0  0  0  0  0  0  0  0
   -2.7910   24.3090  -28.8380 C   0  0  0  0  0  0  0  0  0  0  0  0
   -4.0030   24.1810  -29.6690 C   0  0  0  0  0  0  0  0  0  0  0  0
   -5.1630   24.9080  -29.3660 C   0  0  0  0  0  0  0  0  0  0  0  0
   -6.3190   24.7400  -30.1370 C   0  0  0  0  0  0  0  0  0  0  0  0
   -6.3150   23.8590  -31.2240 C   0  0  0  0  0  0  0  0  0  0  0  0
   -7.4720   23.7000  -31.9770 O   0  0  0  0  0  0  0  0  0  0  0  0
   -5.1490   23.1500  -31.5580 C   0  0  0  0  0  0  0  0  0  0  0  0
   -5.1740   22.2670  -32.6900 N   0  0  0  0  0  0  0  0  0  0  0  0
   -4.9960   20.5430  -32.6250 S   0  0  0  0  0  0  0  0  0  0  0  0
   -4.0920   20.1930  -31.4790 O   0  0  0  0  0  0  0  0  0  0  0  0
   -4.3650   20.0350  -33.8890 O   0  0  0  0  0  0  0  0  0  0  0  0
   -6.5700   19.7970  -32.3490 C   0  0  0  0  0  0  0  0  0  0  0  0
   -6.6970   18.4070  -32.1830 C   0  0  0  0  0  0  0  0  0  0  0  0
   -7.9640   17.8300  -32.0330 C   0  0  0  0  0  0  0  0  0  0  0  0
   -9.1090   18.6390  -32.0200 C   0  0  0  0  0  0  0  0  0  0  0  0
   -8.9860   20.0250  -32.1710 C   0  0  0  0  0  0  0  0  0  0  0  0
   -7.7230   20.6000  -32.3400 C   0  0  0  0  0  0  0  0  0  0  0  0
   -3.9990   23.3100  -30.7680 C   0  0  0  0  0  0  0  0  0  0  0  0
   -2.4120   23.2880  -27.8860 N   0  0  0  0  0  0  0  0  0  0  0  0
   -1.2330   23.4690  -27.0240 C   0  0  0  0  0  0  0  0  0  0  0  0
   -0.2070   22.3300  -27.2190 C   0  0  0  0  0  0  0  0  0  0  0  0
   -0.8270   20.9820  -27.7150 C   0  0  0  0  0  0  0  0  0  0  0  0
   -0.1120   19.9260  -27.1180 O   0  0  0  0  0  0  0  0  0  0  0  0
   -0.7990   20.7990  -29.2460 C   0  0  0  0  0  0  0  0  0  0  0  0
   -0.5340   19.5580  -29.8660 C   0  0  0  0  0  0  0  0  0  0  0  0
   -0.4380   19.4610  -31.2570 C   0  0  0  0  0  0  0  0  0  0  0  0
   -0.6000   20.5950  -32.0690 C   0  0  0  0  0  0  0  0  0  0  0  0
   -0.4340   20.4820  -33.5640 C   0  0  0  0  0  0  0  0  0  0  0  0
   -1.4710   19.7260  -34.0830 F   0  0  0  0  0  0  0  0  0  0  0  0
   -0.4570   21.7400  -34.1450 F   0  0  0  0  0  0  0  0  0  0  0  0
    0.7670   19.8770  -33.8920 F   0  0  0  0  0  0  0  0  0  0  0  0
   -0.8230   21.8370  -31.4580 C   0  0  0  0  0  0  0  0  0  0  0  0
   -0.9310   21.9380  -30.0690 C   0  0  0  0  0  0  0  0  0  0  0  0
   -2.2870   20.8890  -27.2200 C   0  0  0  0  0  0  0  0  0  0  0  0
   -3.1530   22.0150  -27.8090 C   0  0  0  0  0  0  0  0  0  0  0  0
   -5.1645   25.6118  -28.5206 H   0  0  0  0  0  0  0  0  0  0  0  0
   -7.2317   25.3012  -29.8881 H   0  0  0  0  0  0  0  0  0  0  0  0
   -5.7994   17.7713  -32.1709 H   0  0  0  0  0  0  0  0  0  0  0  0
   -8.0612   16.7396  -31.9251 H   0  0  0  0  0  0  0  0  0  0  0  0
  -10.1027   18.1850  -31.8913 H   0  0  0  0  0  0  0  0  0  0  0  0
   -9.8829   20.6617  -32.1567 H   0  0  0  0  0  0  0  0  0  0  0  0
   -7.6312   21.6888  -32.4668 H   0  0  0  0  0  0  0  0  0  0  0  0
   -3.0866   22.7468  -31.0136 H   0  0  0  0  0  0  0  0  0  0  0  0
   -0.7536   24.4277  -27.2711 H   0  0  0  0  0  0  0  0  0  0  0  0
   -1.5671   23.4561  -25.9760 H   0  0  0  0  0  0  0  0  0  0  0  0
    0.5371   22.6597  -27.9590 H   0  0  0  0  0  0  0  0  0  0  0  0
    0.2323   22.1295  -26.2306 H   0  0  0  0  0  0  0  0  0  0  0  0
    0.8030   19.9230  -27.5090 H   0  0  0  0  0  0  0  0  0  0  0  0
   -0.4017   18.6581  -29.2475 H   0  0  0  0  0  0  0  0  0  0  0  0
   -0.2332   18.4849  -31.7210 H   0  0  0  0  0  0  0  0  0  0  0  0
   -0.9138   22.7407  -32.0785 H   0  0  0  0  0  0  0  0  0  0  0  0
   -1.1217   22.9193  -29.6100 H   0  0  0  0  0  0  0  0  0  0  0  0
   -2.7067   19.9187  -27.5240 H   0  0  0  0  0  0  0  0  0  0  0  0
   -2.2878   20.9892  -26.1246 H   0  0  0  0  0  0  0  0  0  0  0  0
   -3.4729   21.7267  -28.8212 H   0  0  0  0  0  0  0  0  0  0  0  0
   -4.0206   22.1620  -27.1490 H   0  0  0  0  0  0  0  0  0  0  0  0
  1  2  2  0
  2  3  1  0
  3  4  2  0
  4  5  1  0
  5  6  2  0
  6  7  1  0
  6  8  1  0
  8  9  1  0
  9 10  1  0
 10 11  2  0
 10 12  2  0
 10 13  1  0
 13 14  2  0
 14 15  1  0
 15 16  2  0
 16 17  1  0
 17 18  2  0
  8 19  2  0
  2 20  1  0
 20 21  1  0
 21 22  1  0
 22 23  1  0
 23 24  1  0
 23 25  1  0
 25 26  2  0
 26 27  1  0
 27 28  2  0
 28 29  1  0
 29 30  1  0
 29 31  1  0
 29 32  1  0
 28 33  1  0
 33 34  2  0
 23 35  1  0
 35 36  1  0
 19  3  1  0
 36 20  1  0
 18 13  1  0
 34 25  1  0
  4 37  1  0
  5 38  1  0
 14 39  1  0
 15 40  1  0
 16 41  1  0
 17 42  1  0
 18 43  1  0
 19 44  1  0
 21 45  1  0
 21 46  1  0
 22 47  1  0
 22 48  1  0
 24 49  1  0
 26 50  1  0
 27 51  1  0
 33 52  1  0
 34 53  1  0
 35 54  1  0
 35 55  1  0
 36 56  1  0
 36 57  1  0
M  CHG  2   7  -1   9  -1
M  END
>  <UniqueID>  (14) 
14

>  <SMILES>  (14) 
O=C(c1ccc([O-])c([N-]S(=O)(=O)c2ccccc2)c1)N1CCC(O)(c2ccc(C(F)(F)F)cc2)CC1

>  <Energy>  (14) 
79.07878300864641

>  <Genealogy>  (14) 
O=C(c1ccc([O-])c([N-]S(=O)(=O)c2ccccc2)c1)N1CCC(O)(c2ccc(C(F)(F)F)cc2)CC1 (protonated)
O=C(c1ccc([O-])c([N-]S(=O)(=O)c2ccccc2)c1)N1CCC(O)(c2ccc(C(F)(F)F)cc2)CC1 (3D coordinates assigned)
O=C(c1ccc([O-])c([N-]S(=O)(=O)c2ccccc2)c1)N1CCC(O)(c2ccc(C(F)(F)F)cc2)CC1 (nonaromatic ring conformer: 79.07878300864641 kcal/mol)

>  <smiles>  (14) 
O=C(c1ccc(O)c(NS(=O)(=O)c2ccccc2)c1)N1CCC(O)(c2ccc(C(F)(F)F)cc2)CC1

>  <score_type>  (14) 
oracle

>  <origin>  (14) 
adgpu

>  <m_score__min__energy>  (14) 
-11.279999999999999

>  <m_primary>  (14) 
energy

$$$$
14:0
     RDKit          3D

 53 56  0  0  0  0  0  0  0  0999 V2000
   -0.2543   25.1398  -29.5120 H   0  0  0  0  0  0  0  0  0  0  0  0
   -1.1120   24.8930  -28.8690 C   0  0  0  0  0  0  0  0  0  0  0  0
   -2.3890   24.8670  -29.3350 N   0  0  0  0  0  0  0  0  0  0  0  0
   -3.2620   24.5400  -28.3560 C   0  0  0  0  0  0  0  0  0  0  0  0
   -4.5430   24.4440  -28.5320 N   0  0  0  0  0  0  0  0  0  0  0  0
   -5.3170   24.7330  -30.0560 S   0  0  0  0  0  0  0  0  0  0  0  0
   -6.3330   25.8300  -29.9020 O   0  0  0  0  0  0  0  0  0  0  0  0
   -4.2880   25.1670  -31.0610 O   0  0  0  0  0  0  0  0  0  0  0  0
   -6.0780   23.2480  -30.6190 C   0  0  0  0  0  0  0  0  0  0  0  0
   -7.1530   22.7070  -29.9040 C   0  0  0  0  0  0  0  0  0  0  0  0
   -7.4873   23.1853  -28.9716 H   0  0  0  0  0  0  0  0  0  0  0  0
   -7.8030   21.5610  -30.3710 C   0  0  0  0  0  0  0  0  0  0  0  0
   -8.6475   21.1402  -29.8056 H   0  0  0  0  0  0  0  0  0  0  0  0
   -7.3810   20.9470  -31.5580 C   0  0  0  0  0  0  0  0  0  0  0  0
   -8.2880   19.5860  -32.2020 S   0  0  0  0  0  0  0  0  0  0  0  0
   -9.3370   19.1350  -31.2230 O   0  0  0  0  0  0  0  0  0  0  0  0
   -8.9710   19.9810  -33.4810 O   0  0  0  0  0  0  0  0  0  0  0  0
   -7.1390   18.2870  -32.4910 C   0  0  0  0  0  0  0  0  0  0  0  0
   -6.8190   17.9070  -33.7990 C   0  0  0  0  0  0  0  0  0  0  0  0
   -7.3718   18.3383  -34.6466 H   0  0  0  0  0  0  0  0  0  0  0  0
   -5.7990   16.9810  -34.0310 C   0  0  0  0  0  0  0  0  0  0  0  0
   -5.5655   16.6714  -35.0604 H   0  0  0  0  0  0  0  0  0  0  0  0
   -5.0700   16.4430  -32.9580 C   0  0  0  0  0  0  0  0  0  0  0  0
   -3.8990   15.5250  -33.2180 C   0  0  0  0  0  0  0  0  0  0  0  0
   -3.6486   15.5732  -34.2880 H   0  0  0  0  0  0  0  0  0  0  0  0
   -3.0695   15.8675  -32.5819 H   0  0  0  0  0  0  0  0  0  0  0  0
   -4.1700   14.1130  -32.8620 N   0  0  0  0  0  0  0  0  0  0  0  0
   -5.3930   13.5200  -33.4410 C   0  0  0  0  0  0  0  0  0  0  0  0
   -5.8196   12.8188  -32.7086 H   0  0  0  0  0  0  0  0  0  0  0  0
   -6.0755   14.3511  -33.6722 H   0  0  0  0  0  0  0  0  0  0  0  0
   -5.1460   12.7550  -34.7640 C   0  0  0  0  0  0  0  0  0  0  0  0
   -5.8071   11.8760  -34.7845 H   0  0  0  0  0  0  0  0  0  0  0  0
   -5.3538   13.4588  -35.5835 H   0  0  0  0  0  0  0  0  0  0  0  0
   -3.7570   12.2950  -34.9370 N   0  0  0  0  0  0  0  0  0  0  0  0
   -3.1930   13.0260  -35.4270 H   0  0  0  0  0  0  0  0  0  0  0  0
   -3.7580   11.4420  -35.5420 H   0  0  0  0  0  0  0  0  0  0  0  0
   -3.1290   11.9660  -33.6550 C   0  0  0  0  0  0  0  0  0  0  0  0
   -3.7509   11.2291  -33.1257 H   0  0  0  0  0  0  0  0  0  0  0  0
   -2.1283   11.5507  -33.8450 H   0  0  0  0  0  0  0  0  0  0  0  0
   -2.9880   13.2250  -32.7870 C   0  0  0  0  0  0  0  0  0  0  0  0
   -2.8474   12.9158  -31.7408 H   0  0  0  0  0  0  0  0  0  0  0  0
   -2.1251   13.7920  -33.1664 H   0  0  0  0  0  0  0  0  0  0  0  0
   -5.4350   16.7840  -31.6450 C   0  0  0  0  0  0  0  0  0  0  0  0
   -4.9152   16.3190  -30.7944 H   0  0  0  0  0  0  0  0  0  0  0  0
   -6.4540   17.7100  -31.4140 C   0  0  0  0  0  0  0  0  0  0  0  0
   -6.7197   17.9873  -30.3832 H   0  0  0  0  0  0  0  0  0  0  0  0
   -6.3050   21.4870  -32.2740 C   0  0  0  0  0  0  0  0  0  0  0  0
   -5.9720   21.0090  -33.2071 H   0  0  0  0  0  0  0  0  0  0  0  0
   -5.6530   22.6320  -31.8060 C   0  0  0  0  0  0  0  0  0  0  0  0
   -4.8058   23.0504  -32.3691 H   0  0  0  0  0  0  0  0  0  0  0  0
   -2.4980   24.2730  -26.8880 S   0  0  0  0  0  0  0  0  0  0  0  0
   -0.9690   24.5850  -27.5210 C   0  0  0  0  0  0  0  0  0  0  0  0
   -0.0210   24.5510  -26.9641 H   0  0  0  0  0  0  0  0  0  0  0  0
  1  2  1  0
  2  3  1  0
  3  4  1  0
  4  5  2  0
  5  6  1  0
  6  7  2  0
  6  8  2  0
  6  9  1  0
  9 10  2  0
 10 11  1  0
 10 12  1  0
 12 13  1  0
 12 14  2  0
 14 15  1  0
 15 16  2  0
 15 17  2  0
 15 18  1  0
 18 19  2  0
 19 20  1  0
 19 21  1  0
 21 22  1  0
 21 23  2  0
 23 24  1  0
 24 25  1  0
 24 26  1  0
 24 27  1  0
 27 28  1  0
 28 29  1  0
 28 30  1  0
 28 31  1  0
 31 32  1  0
 31 33  1  0
 31 34  1  0
 34 35  1  0
 34 36  1  0
 34 37  1  0
 37 38  1  0
 37 39  1  0
 37 40  1  0
 40 41  1  0
 40 42  1  0
 23 43  1  0
 43 44  1  0
 43 45  2  0
 45 46  1  0
 14 47  1  0
 47 48  1  0
 47 49  2  0
 49 50  1  0
  4 51  1  0
 51 52  1  0
 52 53  1  0
 52  2  2  0
 49  9  1  0
 45 18  1  0
 40 27  1  0
M  CHG  2   3  -1  34   1
M  END
>  <UniqueID>  (15) 
15

>  <SMILES>  (15) 
O=S(=O)(/N=c1\[n-]ccs1)c1ccc(S(=O)(=O)c2ccc(CN3CC[NH2+]CC3)cc2)cc1

>  <Energy>  (15) 
101.70759663642876

>  <Genealogy>  (15) 
O=S(=O)(N=c1[n-]ccs1)c1ccc(S(=O)(=O)c2ccc(CN3CC[NH2+]CC3)cc2)cc1 (protonated)
O=S(=O)(/N=c1\[n-]ccs1)c1ccc(S(=O)(=O)c2ccc(CN3CC[NH2+]CC3)cc2)cc1 (cis-trans isomerization)
O=S(=O)(/N=c1\[n-]ccs1)c1ccc(S(=O)(=O)c2ccc(CN3CC[NH2+]CC3)cc2)cc1 (3D coordinates assigned)
O=S(=O)(/N=c1\[n-]ccs1)c1ccc(S(=O)(=O)c2ccc(CN3CC[NH2+]CC3)cc2)cc1 (nonaromatic ring conformer: 101.70759663642876 kcal/mol)

>  <smiles>  (15) 
O=S(=O)(N=c1[nH]ccs1)c1ccc(S(=O)(=O)c2ccc(CN3CCNCC3)cc2)cc1

>  <score_type>  (15) 
oracle

>  <origin>  (15) 
adgpu

>  <m_score__min__energy>  (15) 
-11.51

>  <m_primary>  (15) 
energy

$$$$
15:0
     RDKit          3D

 48 51  0  0  0  0  0  0  0  0999 V2000
   -7.2430   17.4100  -32.7260 C   0  0  0  0  0  0  0  0  0  0  0  0
   -7.2420   18.8160  -32.2240 C   0  0  0  0  0  0  0  0  0  0  0  0
   -6.1620   19.6720  -32.2190 C   0  0  0  0  0  0  0  0  0  0  0  0
   -6.6590   20.8170  -31.6250 C   0  0  0  0  0  0  0  0  0  0  0  0
   -5.9430   22.0850  -31.3650 C   0  0  0  0  0  0  0  0  0  0  0  0
   -6.5050   23.3300  -31.6980 C   0  0  0  0  0  0  0  0  0  0  0  0
   -5.8140   24.5140  -31.4220 C   0  0  0  0  0  0  0  0  0  0  0  0
   -4.5600   24.4740  -30.8010 C   0  0  0  0  0  0  0  0  0  0  0  0
   -3.9070   25.6670  -30.5130 O   0  0  0  0  0  0  0  0  0  0  0  0
   -3.9790   23.2360  -30.4710 C   0  0  0  0  0  0  0  0  0  0  0  0
   -2.4300   23.1310  -29.6360 S   0  0  0  0  0  0  0  0  0  0  0  0
   -1.4600   22.4080  -30.5290 O   0  0  0  0  0  0  0  0  0  0  0  0
   -2.5690   22.4010  -28.3330 O   0  0  0  0  0  0  0  0  0  0  0  0
   -1.8660   24.7400  -29.3220 N   0  0  0  0  0  0  0  0  0  0  0  0
   -1.5250   25.2780  -28.0370 C   0  0  0  0  0  0  0  0  0  0  0  0
   -0.3160   25.9630  -27.8230 C   0  0  0  0  0  0  0  0  0  0  0  0
   -0.0160   26.5070  -26.5640 C   0  0  0  0  0  0  0  0  0  0  0  0
   -0.9150   26.3230  -25.4930 C   0  0  0  0  0  0  0  0  0  0  0  0
   -2.1180   25.6370  -25.7100 C   0  0  0  0  0  0  0  0  0  0  0  0
   -2.4240   25.1140  -26.9690 C   0  0  0  0  0  0  0  0  0  0  0  0
   -3.6360   24.4420  -27.1360 O   0  0  0  0  0  0  0  0  0  0  0  0
   -0.6570   26.9640  -24.1520 C   0  0  0  0  0  0  0  0  0  0  0  0
    0.7800   27.2440  -23.9550 N   0  0  0  0  0  0  0  0  0  0  0  0
    0.9830   27.9440  -22.6800 C   0  0  0  0  0  0  0  0  0  0  0  0
    1.2960   28.0530  -25.0740 C   0  0  0  0  0  0  0  0  0  0  0  0
    1.3020   27.2080  -26.3530 C   0  0  0  0  0  0  0  0  0  0  0  0
   -4.6740   22.0510  -30.7570 C   0  0  0  0  0  0  0  0  0  0  0  0
   -7.9190   20.6090  -31.3130 O   0  0  0  0  0  0  0  0  0  0  0  0
   -8.3040   19.4140  -31.6540 N   0  0  0  0  0  0  0  0  0  0  0  0
   -7.2435   16.7160  -31.8726 H   0  0  0  0  0  0  0  0  0  0  0  0
   -8.1413   17.2397  -33.3376 H   0  0  0  0  0  0  0  0  0  0  0  0
   -6.3450   17.2384  -33.3376 H   0  0  0  0  0  0  0  0  0  0  0  0
   -5.1458   19.4879  -32.5977 H   0  0  0  0  0  0  0  0  0  0  0  0
   -7.4937   23.3729  -32.1783 H   0  0  0  0  0  0  0  0  0  0  0  0
   -6.2585   25.4826  -31.6945 H   0  0  0  0  0  0  0  0  0  0  0  0
    0.4014   26.0737  -28.6495 H   0  0  0  0  0  0  0  0  0  0  0  0
   -2.8287   25.5090  -24.8802 H   0  0  0  0  0  0  0  0  0  0  0  0
   -3.9290   24.0640  -28.0280 H   0  0  0  0  0  0  0  0  0  0  0  0
   -1.2169   27.9090  -24.0936 H   0  0  0  0  0  0  0  0  0  0  0  0
   -0.9843   26.2667  -23.3667 H   0  0  0  0  0  0  0  0  0  0  0  0
    0.7829   27.2540  -21.8470 H   0  0  0  0  0  0  0  0  0  0  0  0
    2.0217   28.3010  -22.6190 H   0  0  0  0  0  0  0  0  0  0  0  0
    0.2965   28.8013  -22.6190 H   0  0  0  0  0  0  0  0  0  0  0  0
    0.6517   28.9328  -25.2184 H   0  0  0  0  0  0  0  0  0  0  0  0
    2.3204   28.3831  -24.8469 H   0  0  0  0  0  0  0  0  0  0  0  0
    1.4983   27.8648  -27.2133 H   0  0  0  0  0  0  0  0  0  0  0  0
    2.0858   26.4425  -26.2547 H   0  0  0  0  0  0  0  0  0  0  0  0
   -4.2206   21.0817  -30.5024 H   0  0  0  0  0  0  0  0  0  0  0  0
  1  2  1  0
  2  3  1  0
  3  4  2  0
  4  5  1  0
  5  6  2  0
  6  7  1  0
  7  8  2  0
  8  9  1  0
  8 10  1  0
 10 11  1  0
 11 12  2  0
 11 13  2  0
 11 14  1  0
 14 15  1  0
 15 16  2  0
 16 17  1  0
 17 18  2  0
 18 19  1  0
 19 20  2  0
 20 21  1  0
 18 22  1  0
 22 23  1  0
 23 24  1  0
 23 25  1  0
 25 26  1  0
 10 27  2  0
  4 28  1  0
 28 29  1  0
 29  2  2  0
 27  5  1  0
 20 15  1  0
 26 17  1  0
  1 30  1  0
  1 31  1  0
  1 32  1  0
  3 33  1  0
  6 34  1  0
  7 35  1  0
 16 36  1  0
 19 37  1  0
 21 38  1  0
 22 39  1  0
 22 40  1  0
 24 41  1  0
 24 42  1  0
 24 43  1  0
 25 44  1  0
 25 45  1  0
 26 46  1  0
 26 47  1  0
 27 48  1  0
M  CHG  2   9  -1  14  -1
M  END
>  <UniqueID>  (16) 
16

>  <SMILES>  (16) 
Cc1cc(-c2ccc([O-])c(S(=O)(=O)[N-]c3cc4c(cc3O)CN(C)CC4)c2)on1

>  <Energy>  (16) 
89.35718649990724

>  <Genealogy>  (16) 
Cc1cc(-c2ccc([O-])c(S(=O)(=O)[N-]c3cc4c(cc3O)CN(C)CC4)c2)on1 (protonated)
Cc1cc(-c2ccc([O-])c(S(=O)(=O)[N-]c3cc4c(cc3O)CN(C)CC4)c2)on1 (3D coordinates assigned)
Cc1cc(-c2ccc([O-])c(S(=O)(=O)[N-]c3cc4c(cc3O)CN(C)CC4)c2)on1 (nonaromatic ring conformer: 89.35718649990724 kcal/mol)

>  <smiles>  (16) 
Cc1cc(-c2ccc(O)c(S(=O)(=O)Nc3cc4c(cc3O)CN(C)CC4)c2)on1

>  <score_type>  (16) 
oracle

>  <origin>  (16) 
adgpu

>  <m_score__min__energy>  (16) 
-13.619999999999999

>  <m_primary>  (16) 
energy

$$$$
16:0
     RDKit          3D

 59 63  0  0  0  0  0  0  0  0999 V2000
   -3.9450   25.0030  -30.5190 O   0  0  0  0  0  0  0  0  0  0  0  0
   -3.5030   23.8360  -30.6880 C   0  0  0  0  0  0  0  0  0  0  0  0
   -4.1270   22.9970  -31.6690 N   0  0  0  0  0  0  0  0  0  0  0  0
   -5.5090   22.6110  -31.6930 C   0  0  0  0  0  0  0  0  0  0  0  0
   -6.5420   23.5540  -31.5450 C   0  0  0  0  0  0  0  0  0  0  0  0
   -7.8770   23.1430  -31.5760 C   0  0  0  0  0  0  0  0  0  0  0  0
   -8.1920   21.7960  -31.7680 C   0  0  0  0  0  0  0  0  0  0  0  0
   -7.1720   20.8520  -31.9440 C   0  0  0  0  0  0  0  0  0  0  0  0
   -7.5870   19.1600  -32.2030 S   0  0  0  0  0  0  0  0  0  0  0  0
   -7.5310   18.4090  -30.9000 O   0  0  0  0  0  0  0  0  0  0  0  0
   -8.9850   19.0870  -32.7530 O   0  0  0  0  0  0  0  0  0  0  0  0
   -6.4730   18.4430  -33.3230 N   0  0  0  0  0  0  0  0  0  0  0  0
   -6.0940   19.0290  -34.6060 C   0  0  0  0  0  0  0  0  0  0  0  0
   -5.0130   18.0890  -35.1950 C   0  0  0  0  0  0  0  0  0  0  0  0
   -4.8560   17.0400  -34.1480 C   0  0  0  0  0  0  0  0  0  0  0  0
   -3.9980   15.9390  -34.1530 C   0  0  0  0  0  0  0  0  0  0  0  0
   -4.0180   15.0720  -33.0510 C   0  0  0  0  0  0  0  0  0  0  0  0
   -4.8840   15.3200  -31.9690 C   0  0  0  0  0  0  0  0  0  0  0  0
   -5.7370   16.4370  -31.9860 C   0  0  0  0  0  0  0  0  0  0  0  0
   -5.6990   17.2810  -33.0990 C   0  0  0  0  0  0  0  0  0  0  0  0
   -5.8320   21.2670  -31.9160 C   0  0  0  0  0  0  0  0  0  0  0  0
   -2.3340   23.3850  -29.8990 C   0  0  0  0  0  0  0  0  0  0  0  0
   -2.0830   22.0100  -29.7670 C   0  0  0  0  0  0  0  0  0  0  0  0
   -0.9870   21.5520  -29.0230 C   0  0  0  0  0  0  0  0  0  0  0  0
   -0.6890   19.8190  -28.8560 S   0  0  0  0  0  0  0  0  0  0  0  0
    0.6270   19.6090  -28.1580 O   0  0  0  0  0  0  0  0  0  0  0  0
   -1.7670   19.2120  -28.0030 O   0  0  0  0  0  0  0  0  0  0  0  0
   -0.6560   19.0060  -30.4070 N   0  0  0  0  0  0  0  0  0  0  0  0
    0.6740   19.0870  -31.0190 C   0  0  0  0  0  0  0  0  0  0  0  0
    0.6720   20.2250  -32.0280 C   0  0  0  0  0  0  0  0  0  0  0  0
   -0.7850   20.5940  -32.2320 C   0  0  0  0  0  0  0  0  0  0  0  0
   -1.5790   19.6390  -31.3530 C   0  0  0  0  0  0  0  0  0  0  0  0
   -0.1320   22.4770  -28.4110 C   0  0  0  0  0  0  0  0  0  0  0  0
   -0.3810   23.8460  -28.5270 C   0  0  0  0  0  0  0  0  0  0  0  0
   -1.4800   24.3050  -29.2580 C   0  0  0  0  0  0  0  0  0  0  0  0
   -1.7270   25.6720  -29.3230 O   0  0  0  0  0  0  0  0  0  0  0  0
   -6.2983   24.6174  -31.4045 H   0  0  0  0  0  0  0  0  0  0  0  0
   -8.6818   23.8820  -31.4489 H   0  0  0  0  0  0  0  0  0  0  0  0
   -9.2441   21.4754  -31.7811 H   0  0  0  0  0  0  0  0  0  0  0  0
   -6.9646   19.0794  -35.2764 H   0  0  0  0  0  0  0  0  0  0  0  0
   -5.7173   20.0557  -34.4872 H   0  0  0  0  0  0  0  0  0  0  0  0
   -5.3501   17.6489  -36.1451 H   0  0  0  0  0  0  0  0  0  0  0  0
   -4.0715   18.6096  -35.4244 H   0  0  0  0  0  0  0  0  0  0  0  0
   -3.3221   15.7558  -35.0013 H   0  0  0  0  0  0  0  0  0  0  0  0
   -3.3546   14.1948  -33.0319 H   0  0  0  0  0  0  0  0  0  0  0  0
   -4.8931   14.6369  -31.1069 H   0  0  0  0  0  0  0  0  0  0  0  0
   -6.4165   16.6413  -31.1454 H   0  0  0  0  0  0  0  0  0  0  0  0
   -5.0292   20.5310  -32.0704 H   0  0  0  0  0  0  0  0  0  0  0  0
   -2.7530   21.2850  -30.2522 H   0  0  0  0  0  0  0  0  0  0  0  0
    1.4287   19.2808  -30.2425 H   0  0  0  0  0  0  0  0  0  0  0  0
    0.9166   18.1386  -31.5207 H   0  0  0  0  0  0  0  0  0  0  0  0
    1.2338   21.0856  -31.6358 H   0  0  0  0  0  0  0  0  0  0  0  0
    1.1508   19.9289  -32.9731 H   0  0  0  0  0  0  0  0  0  0  0  0
   -0.9634   21.6353  -31.9256 H   0  0  0  0  0  0  0  0  0  0  0  0
   -1.0800   20.5133  -33.2886 H   0  0  0  0  0  0  0  0  0  0  0  0
   -2.3514   20.1960  -30.8023 H   0  0  0  0  0  0  0  0  0  0  0  0
   -2.0691   18.8736  -31.9727 H   0  0  0  0  0  0  0  0  0  0  0  0
    0.7379   22.1242  -27.8375 H   0  0  0  0  0  0  0  0  0  0  0  0
    0.2918   24.5674  -28.0402 H   0  0  0  0  0  0  0  0  0  0  0  0
  1  2  2  0
  2  3  1  0
  3  4  1  0
  4  5  2  0
  5  6  1  0
  6  7  2  0
  7  8  1  0
  8  9  1  0
  9 10  2  0
  9 11  2  0
  9 12  1  0
 12 13  1  0
 13 14  1  0
 14 15  1  0
 15 16  2  0
 16 17  1  0
 17 18  2  0
 18 19  1  0
 19 20  2  0
  8 21  2  0
  2 22  1  0
 22 23  2  0
 23 24  1  0
 24 25  1  0
 25 26  2  0
 25 27  2  0
 25 28  1  0
 28 29  1  0
 29 30  1  0
 30 31  1  0
 31 32  1  0
 24 33  2  0
 33 34  1  0
 34 35  2  0
 35 36  1  0
 21  4  1  0
 35 22  1  0
 20 12  1  0
 32 28  1  0
 20 15  1  0
  5 37  1  0
  6 38  1  0
  7 39  1  0
 13 40  1  0
 13 41  1  0
 14 42  1  0
 14 43  1  0
 16 44  1  0
 17 45  1  0
 18 46  1  0
 19 47  1  0
 21 48  1  0
 23 49  1  0
 29 50  1  0
 29 51  1  0
 30 52  1  0
 30 53  1  0
 31 54  1  0
 31 55  1  0
 32 56  1  0
 32 57  1  0
 33 58  1  0
 34 59  1  0
M  CHG  2   3  -1  36  -1
M  END
>  <UniqueID>  (17) 
17

>  <SMILES>  (17) 
O=C([N-]c1cccc(S(=O)(=O)N2CCc3ccccc32)c1)c1cc(S(=O)(=O)N2CCCC2)ccc1[O-]

>  <Energy>  (17) 
88.3956794062246

>  <Genealogy>  (17) 
O=C([N-]c1cccc(S(=O)(=O)N2CCc3ccccc32)c1)c1cc(S(=O)(=O)N2CCCC2)ccc1[O-] (protonated)
O=C([N-]c1cccc(S(=O)(=O)N2CCc3ccccc32)c1)c1cc(S(=O)(=O)N2CCCC2)ccc1[O-] (3D coordinates assigned)
O=C([N-]c1cccc(S(=O)(=O)N2CCc3ccccc32)c1)c1cc(S(=O)(=O)N2CCCC2)ccc1[O-] (nonaromatic ring conformer: 88.3956794062246 kcal/mol)

>  <smiles>  (17) 
O=C(Nc1cccc(S(=O)(=O)N2CCc3ccccc32)c1)c1cc(S(=O)(=O)N2CCCC2)ccc1O

>  <score_type>  (17) 
oracle

>  <origin>  (17) 
adgpu

>  <m_score__min__energy>  (17) 
-15.17

>  <m_primary>  (17) 
energy

$$$$
17:0
     RDKit          3D

 57 60  0  0  0  0  0  0  0  0999 V2000
   -5.4870   19.9760  -31.2220 C   0  0  0  0  0  0  0  0  0  0  0  0
   -6.6760   20.8630  -31.5110 C   0  0  0  0  0  0  0  0  0  0  0  0
   -6.5730   22.2800  -31.4310 C   0  0  0  0  0  0  0  0  0  0  0  0
   -5.2890   22.9730  -31.1610 C   0  0  0  0  0  0  0  0  0  0  0  0
   -4.9950   24.0200  -31.7990 O   0  0  0  0  0  0  0  0  0  0  0  0
   -4.3800   22.4490  -30.1780 N   0  0  0  0  0  0  0  0  0  0  0  0
   -3.2740   23.1870  -29.6290 C   0  0  0  0  0  0  0  0  0  0  0  0
   -2.1340   22.5030  -29.1880 C   0  0  0  0  0  0  0  0  0  0  0  0
   -1.0630   23.2070  -28.6350 C   0  0  0  0  0  0  0  0  0  0  0  0
   -1.1410   24.5960  -28.5170 C   0  0  0  0  0  0  0  0  0  0  0  0
   -0.0700   25.2940  -27.9440 O   0  0  0  0  0  0  0  0  0  0  0  0
   -0.1350   26.0600  -26.7710 C   0  0  0  0  0  0  0  0  0  0  0  0
   -1.1220   25.7620  -25.8260 C   0  0  0  0  0  0  0  0  0  0  0  0
   -1.2060   26.5000  -24.6430 C   0  0  0  0  0  0  0  0  0  0  0  0
   -0.2850   27.5220  -24.4090 C   0  0  0  0  0  0  0  0  0  0  0  0
    0.6840   27.7870  -25.3240 N   0  0  0  0  0  0  0  0  0  0  0  0
    0.7830   27.0870  -26.4860 C   0  0  0  0  0  0  0  0  0  0  0  0
   -2.2700   25.2430  -28.9170 N   0  0  0  0  0  0  0  0  0  0  0  0
   -3.3250   24.5820  -29.4630 C   0  0  0  0  0  0  0  0  0  0  0  0
   -7.7180   23.0660  -31.6430 C   0  0  0  0  0  0  0  0  0  0  0  0
   -8.9390   22.4760  -31.9620 C   0  0  0  0  0  0  0  0  0  0  0  0
   -9.0360   21.0940  -32.0870 C   0  0  0  0  0  0  0  0  0  0  0  0
   -7.9160   20.2820  -31.8720 C   0  0  0  0  0  0  0  0  0  0  0  0
   -8.0460   18.8630  -32.0530 N   0  0  0  0  0  0  0  0  0  0  0  0
   -9.1450   18.1780  -31.3640 C   0  0  0  0  0  0  0  0  0  0  0  0
   -7.2210   18.2030  -33.0800 C   0  0  0  0  0  0  0  0  0  0  0  0
   -6.4490   19.2160  -33.9450 C   0  0  0  0  0  0  0  0  0  0  0  0
   -5.5660   18.4860  -34.9840 C   0  0  0  0  0  0  0  0  0  0  0  0
   -5.4300   17.0940  -34.7340 O   0  0  0  0  0  0  0  0  0  0  0  0
   -5.0740   16.8730  -33.3850 C   0  0  0  0  0  0  0  0  0  0  0  0
   -6.2600   17.1750  -32.4490 C   0  0  0  0  0  0  0  0  0  0  0  0
   -5.3575   19.8794  -30.1339 H   0  0  0  0  0  0  0  0  0  0  0  0
   -5.6561   18.9816  -31.6609 H   0  0  0  0  0  0  0  0  0  0  0  0
   -4.5820   20.4214  -31.6609 H   0  0  0  0  0  0  0  0  0  0  0  0
   -4.4720   21.4410  -29.9180 H   0  0  0  0  0  0  0  0  0  0  0  0
   -2.0826   21.4079  -29.2777 H   0  0  0  0  0  0  0  0  0  0  0  0
   -0.1644   22.6715  -28.2948 H   0  0  0  0  0  0  0  0  0  0  0  0
   -1.8336   24.9447  -26.0147 H   0  0  0  0  0  0  0  0  0  0  0  0
   -1.9897   26.2780  -23.9038 H   0  0  0  0  0  0  0  0  0  0  0  0
   -0.3435   28.1134  -23.4833 H   0  0  0  0  0  0  0  0  0  0  0  0
    1.5820   27.3243  -27.2038 H   0  0  0  0  0  0  0  0  0  0  0  0
   -4.2202   25.1397  -29.7755 H   0  0  0  0  0  0  0  0  0  0  0  0
   -7.6496   24.1604  -31.5561 H   0  0  0  0  0  0  0  0  0  0  0  0
   -9.8286   23.1045  -32.1154 H   0  0  0  0  0  0  0  0  0  0  0  0
   -9.9991   20.6361  -32.3566 H   0  0  0  0  0  0  0  0  0  0  0  0
   -9.0063   18.2644  -30.2762 H   0  0  0  0  0  0  0  0  0  0  0  0
  -10.1015   18.6401  -31.6496 H   0  0  0  0  0  0  0  0  0  0  0  0
   -9.1513   17.1157  -31.6496 H   0  0  0  0  0  0  0  0  0  0  0  0
   -7.9119   17.6654  -33.7461 H   0  0  0  0  0  0  0  0  0  0  0  0
   -7.1667   19.8624  -34.4714 H   0  0  0  0  0  0  0  0  0  0  0  0
   -5.8013   19.8185  -33.2912 H   0  0  0  0  0  0  0  0  0  0  0  0
   -6.0167   18.6187  -35.9786 H   0  0  0  0  0  0  0  0  0  0  0  0
   -4.5599   18.9261  -34.9198 H   0  0  0  0  0  0  0  0  0  0  0  0
   -4.7736   15.8223  -33.2589 H   0  0  0  0  0  0  0  0  0  0  0  0
   -4.2412   17.5434  -33.1260 H   0  0  0  0  0  0  0  0  0  0  0  0
   -6.8098   16.2424  -32.2542 H   0  0  0  0  0  0  0  0  0  0  0  0
   -5.8659   17.5960  -31.5123 H   0  0  0  0  0  0  0  0  0  0  0  0
  1  2  1  0
  2  3  2  0
  3  4  1  0
  4  5  2  0
  4  6  1  0
  6  7  1  0
  7  8  2  0
  8  9  1  0
  9 10  2  0
 10 11  1  0
 11 12  1  0
 12 13  2  0
 13 14  1  0
 14 15  2  0
 15 16  1  0
 16 17  2  0
 10 18  1  0
 18 19  2  0
  3 20  1  0
 20 21  2  0
 21 22  1  0
 22 23  2  0
 23 24  1  0
 24 25  1  0
 24 26  1  0
 26 27  1  0
 27 28  1  0
 28 29  1  0
 29 30  1  0
 30 31  1  0
 23  2  1  0
 31 26  1  0
 19  7  1  0
 17 12  1  0
  1 32  1  0
  1 33  1  0
  1 34  1  0
  6 35  1  0
  8 36  1  0
  9 37  1  0
 13 38  1  0
 14 39  1  0
 15 40  1  0
 17 41  1  0
 19 42  1  0
 20 43  1  0
 21 44  1  0
 22 45  1  0
 25 46  1  0
 25 47  1  0
 25 48  1  0
 26 49  1  0
 27 50  1  0
 27 51  1  0
 28 52  1  0
 28 53  1  0
 30 54  1  0
 30 55  1  0
 31 56  1  0
 31 57  1  0
M  END
>  <UniqueID>  (18) 
18

>  <SMILES>  (18) 
Cc1c(C(=O)Nc2ccc(Oc3cccnc3)nc2)cccc1N(C)C1CCOCC1

>  <Energy>  (18) 
87.87518525879369

>  <Genealogy>  (18) 
Cc1c(C(=O)Nc2ccc(Oc3cccnc3)nc2)cccc1N(C)C1CCOCC1 (3D coordinates assigned)
Cc1c(C(=O)Nc2ccc(Oc3cccnc3)nc2)cccc1N(C)C1CCOCC1 (nonaromatic ring conformer: 87.87518525879369 kcal/mol)

>  <smiles>  (18) 
Cc1c(C(=O)Nc2ccc(Oc3cccnc3)nc2)cccc1N(C)C1CCOCC1

>  <score_type>  (18) 
oracle

>  <origin>  (18) 
adgpu

>  <m_score__min__energy>  (18) 
-9.4399999999999995

>  <m_primary>  (18) 
energy

$$$$
18:0
     RDKit          3D

 52 55  0  0  0  0  0  0  0  0999 V2000
    0.5280   18.3800  -27.5850 C   0  0  0  0  0  0  0  0  0  0  0  0
   -0.4510   19.4510  -27.3430 N   0  0  0  0  0  0  0  0  0  0  0  0
   -1.8200   18.9250  -27.4890 C   0  0  0  0  0  0  0  0  0  0  0  0
   -2.8250   19.9730  -27.0090 C   0  0  0  0  0  0  0  0  0  0  0  0
   -2.5600   21.3170  -27.6360 C   0  0  0  0  0  0  0  0  0  0  0  0
   -3.5670   22.2930  -27.6310 C   0  0  0  0  0  0  0  0  0  0  0  0
   -3.3610   23.5380  -28.2480 C   0  0  0  0  0  0  0  0  0  0  0  0
   -4.4400   24.4730  -28.3940 N   0  0  0  0  0  0  0  0  0  0  0  0
   -5.2640   24.7660  -29.8970 S   0  0  0  0  0  0  0  0  0  0  0  0
   -6.2860   25.8520  -29.6960 O   0  0  0  0  0  0  0  0  0  0  0  0
   -4.2630   25.2160  -30.9240 O   0  0  0  0  0  0  0  0  0  0  0  0
   -6.0390   23.2980  -30.4930 C   0  0  0  0  0  0  0  0  0  0  0  0
   -7.4380   23.2290  -30.5650 C   0  0  0  0  0  0  0  0  0  0  0  0
   -8.0600   22.1100  -31.1230 C   0  0  0  0  0  0  0  0  0  0  0  0
   -7.2880   21.0490  -31.6150 C   0  0  0  0  0  0  0  0  0  0  0  0
   -8.0610   19.6240  -32.3010 S   0  0  0  0  0  0  0  0  0  0  0  0
   -8.7800   18.8530  -31.2270 O   0  0  0  0  0  0  0  0  0  0  0  0
   -9.0730   20.0430  -33.3330 O   0  0  0  0  0  0  0  0  0  0  0  0
   -6.8260   18.6160  -33.0470 C   0  0  0  0  0  0  0  0  0  0  0  0
   -6.1210   19.0760  -34.1670 C   0  0  0  0  0  0  0  0  0  0  0  0
   -5.1210   18.2830  -34.7400 C   0  0  0  0  0  0  0  0  0  0  0  0
   -4.8170   17.0350  -34.1910 C   0  0  0  0  0  0  0  0  0  0  0  0
   -5.5110   16.5770  -33.0710 C   0  0  0  0  0  0  0  0  0  0  0  0
   -6.5130   17.3650  -32.4970 C   0  0  0  0  0  0  0  0  0  0  0  0
   -5.8920   21.1070  -31.5210 C   0  0  0  0  0  0  0  0  0  0  0  0
   -5.2690   22.2260  -30.9660 C   0  0  0  0  0  0  0  0  0  0  0  0
   -2.0940   23.8500  -28.7720 C   0  0  0  0  0  0  0  0  0  0  0  0
   -1.8340   25.0940  -29.3580 O   0  0  0  0  0  0  0  0  0  0  0  0
   -1.0710   22.8930  -28.7360 C   0  0  0  0  0  0  0  0  0  0  0  0
   -1.2970   21.6230  -28.1800 C   0  0  0  0  0  0  0  0  0  0  0  0
   -0.2250   20.5620  -28.2890 C   0  0  0  0  0  0  0  0  0  0  0  0
    0.8871   17.9871  -26.6224 H   0  0  0  0  0  0  0  0  0  0  0  0
    0.0515   17.5700  -28.1568 H   0  0  0  0  0  0  0  0  0  0  0  0
    1.3774   18.7820  -28.1568 H   0  0  0  0  0  0  0  0  0  0  0  0
   -2.0117   18.6911  -28.5466 H   0  0  0  0  0  0  0  0  0  0  0  0
   -1.9273   18.0118  -26.8852 H   0  0  0  0  0  0  0  0  0  0  0  0
   -3.8398   19.6458  -27.2794 H   0  0  0  0  0  0  0  0  0  0  0  0
   -2.7250   20.0743  -25.9182 H   0  0  0  0  0  0  0  0  0  0  0  0
   -4.5278   22.0815  -27.1390 H   0  0  0  0  0  0  0  0  0  0  0  0
   -8.0479   24.0597  -30.1804 H   0  0  0  0  0  0  0  0  0  0  0  0
   -9.1576   22.0614  -31.1764 H   0  0  0  0  0  0  0  0  0  0  0  0
   -6.3540   20.0616  -34.5962 H   0  0  0  0  0  0  0  0  0  0  0  0
   -4.5736   18.6426  -35.6237 H   0  0  0  0  0  0  0  0  0  0  0  0
   -4.0299   16.4130  -34.6422 H   0  0  0  0  0  0  0  0  0  0  0  0
   -5.2696   15.5946  -32.6389 H   0  0  0  0  0  0  0  0  0  0  0  0
   -7.0569   17.0028  -31.6121 H   0  0  0  0  0  0  0  0  0  0  0  0
   -5.2834   20.2666  -31.8863 H   0  0  0  0  0  0  0  0  0  0  0  0
   -4.1718   22.2669  -30.8996 H   0  0  0  0  0  0  0  0  0  0  0  0
   -2.5670   25.6710  -29.7550 H   0  0  0  0  0  0  0  0  0  0  0  0
   -0.0809   23.1388  -29.1473 H   0  0  0  0  0  0  0  0  0  0  0  0
   -0.2237   20.1618  -29.3136 H   0  0  0  0  0  0  0  0  0  0  0  0
    0.7410   21.0273  -28.0435 H   0  0  0  0  0  0  0  0  0  0  0  0
  1  2  1  0
  2  3  1  0
  3  4  1  0
  4  5  1  0
  5  6  2  0
  6  7  1  0
  7  8  1  0
  8  9  1  0
  9 10  2  0
  9 11  2  0
  9 12  1  0
 12 13  2  0
 13 14  1  0
 14 15  2  0
 15 16  1  0
 16 17  2  0
 16 18  2  0
 16 19  1  0
 19 20  2  0
 20 21  1  0
 21 22  2  0
 22 23  1  0
 23 24  2  0
 15 25  1  0
 25 26  2  0
  7 27  2  0
 27 28  1  0
 27 29  1  0
 29 30  2  0
 30 31  1  0
 31  2  1  0
 30  5  1  0
 26 12  1  0
 24 19  1  0
  1 32  1  0
  1 33  1  0
  1 34  1  0
  3 35  1  0
  3 36  1  0
  4 37  1  0
  4 38  1  0
  6 39  1  0
 13 40  1  0
 14 41  1  0
 20 42  1  0
 21 43  1  0
 22 44  1  0
 23 45  1  0
 24 46  1  0
 25 47  1  0
 26 48  1  0
 28 49  1  0
 29 50  1  0
 31 51  1  0
 31 52  1  0
M  CHG  1   8  -1
M  END
>  <UniqueID>  (19) 
19

>  <SMILES>  (19) 
CN1CCc2cc([N-]S(=O)(=O)c3ccc(S(=O)(=O)c4ccccc4)cc3)c(O)cc2C1

>  <Energy>  (19) 
65.50015203530383

>  <Genealogy>  (19) 
CN1CCc2cc([N-]S(=O)(=O)c3ccc(S(=O)(=O)c4ccccc4)cc3)c(O)cc2C1 (protonated)
CN1CCc2cc([N-]S(=O)(=O)c3ccc(S(=O)(=O)c4ccccc4)cc3)c(O)cc2C1 (3D coordinates assigned)
CN1CCc2cc([N-]S(=O)(=O)c3ccc(S(=O)(=O)c4ccccc4)cc3)c(O)cc2C1 (nonaromatic ring conformer: 65.50015203530383 kcal/mol)

>  <smiles>  (19) 
CN1CCc2cc(NS(=O)(=O)c3ccc(S(=O)(=O)c4ccccc4)cc3)c(O)cc2C1

>  <score_type>  (19) 
oracle

>  <origin>  (19) 
adgpu

>  <m_score__min__energy>  (19) 
-13.18

>  <m_primary>  (19) 
energy

$$$$
19:0
     RDKit          3D

 38 40  0  0  0  0  0  0  0  0999 V2000
   -1.2820   22.2570  -26.5340 C   0  0  0  0  0  0  0  0  0  0  0  0
   -2.1220   22.5120  -27.7580 C   0  0  0  0  0  0  0  0  0  0  0  0
   -2.6630   21.4510  -28.4240 N   0  0  0  0  0  0  0  0  0  0  0  0
   -3.4170   21.6080  -29.5460 C   0  0  0  0  0  0  0  0  0  0  0  0
   -3.8650   20.5870  -30.1350 O   0  0  0  0  0  0  0  0  0  0  0  0
   -3.6860   22.8940  -30.0460 C   0  0  0  0  0  0  0  0  0  0  0  0
   -4.6480   23.1240  -31.5170 S   0  0  0  0  0  0  0  0  0  0  0  0
   -4.9880   24.5760  -31.7120 O   0  0  0  0  0  0  0  0  0  0  0  0
   -3.8630   22.6750  -32.7190 O   0  0  0  0  0  0  0  0  0  0  0  0
   -6.1290   22.1870  -31.3780 C   0  0  0  0  0  0  0  0  0  0  0  0
   -7.2090   22.6730  -30.6250 C   0  0  0  0  0  0  0  0  0  0  0  0
   -8.3920   21.9330  -30.5360 C   0  0  0  0  0  0  0  0  0  0  0  0
   -8.5040   20.7090  -31.2000 C   0  0  0  0  0  0  0  0  0  0  0  0
   -7.4330   20.2230  -31.9570 C   0  0  0  0  0  0  0  0  0  0  0  0
   -6.2490   20.9610  -32.0480 C   0  0  0  0  0  0  0  0  0  0  0  0
   -3.1430   24.0030  -29.3800 C   0  0  0  0  0  0  0  0  0  0  0  0
   -3.3740   25.2880  -29.8620 O   0  0  0  0  0  0  0  0  0  0  0  0
   -2.3660   23.8240  -28.2220 C   0  0  0  0  0  0  0  0  0  0  0  0
   -1.8160   25.0070  -27.5220 C   0  0  0  0  0  0  0  0  0  0  0  0
   -0.8410   25.8070  -28.1380 C   0  0  0  0  0  0  0  0  0  0  0  0
   -0.3220   26.9220  -27.4720 C   0  0  0  0  0  0  0  0  0  0  0  0
   -0.7700   27.2410  -26.1870 C   0  0  0  0  0  0  0  0  0  0  0  0
   -1.7360   26.4460  -25.5660 C   0  0  0  0  0  0  0  0  0  0  0  0
   -2.2570   25.3300  -26.2280 C   0  0  0  0  0  0  0  0  0  0  0  0
   -1.8839   22.4397  -25.6316 H   0  0  0  0  0  0  0  0  0  0  0  0
   -0.9352   21.2131  -26.5383 H   0  0  0  0  0  0  0  0  0  0  0  0
   -0.4134   22.9319  -26.5383 H   0  0  0  0  0  0  0  0  0  0  0  0
   -2.4870   20.4820  -28.0750 H   0  0  0  0  0  0  0  0  0  0  0  0
   -7.1246   23.6380  -30.1038 H   0  0  0  0  0  0  0  0  0  0  0  0
   -9.2356   22.3151  -29.9424 H   0  0  0  0  0  0  0  0  0  0  0  0
   -9.4348   20.1273  -31.1275 H   0  0  0  0  0  0  0  0  0  0  0  0
   -7.5223   19.2599  -32.4809 H   0  0  0  0  0  0  0  0  0  0  0  0
   -5.4092   20.5788  -32.6469 H   0  0  0  0  0  0  0  0  0  0  0  0
   -0.4839   25.5562  -29.1478 H   0  0  0  0  0  0  0  0  0  0  0  0
    0.4393   27.5484  -27.9599 H   0  0  0  0  0  0  0  0  0  0  0  0
   -0.3616   28.1186  -25.6645 H   0  0  0  0  0  0  0  0  0  0  0  0
   -2.0874   26.6982  -24.5546 H   0  0  0  0  0  0  0  0  0  0  0  0
   -3.0142   24.7033  -25.7342 H   0  0  0  0  0  0  0  0  0  0  0  0
  1  2  1  0
  2  3  1  0
  3  4  1  0
  4  5  2  0
  4  6  1  0
  6  7  1  0
  7  8  2  0
  7  9  2  0
  7 10  1  0
 10 11  2  0
 11 12  1  0
 12 13  2  0
 13 14  1  0
 14 15  2  0
  6 16  2  0
 16 17  1  0
 16 18  1  0
 18 19  1  0
 19 20  2  0
 20 21  1  0
 21 22  2  0
 22 23  1  0
 23 24  2  0
 18  2  2  0
 24 19  1  0
 15 10  1  0
  1 25  1  0
  1 26  1  0
  1 27  1  0
  3 28  1  0
 11 29  1  0
 12 30  1  0
 13 31  1  0
 14 32  1  0
 15 33  1  0
 20 34  1  0
 21 35  1  0
 22 36  1  0
 23 37  1  0
 24 38  1  0
M  CHG  1  17  -1
M  END
>  <UniqueID>  (20) 
20

>  <SMILES>  (20) 
Cc1[nH]c(=O)c(S(=O)(=O)c2ccccc2)c([O-])c1-c1ccccc1

>  <Energy>  (20) 
53.52469552686289

>  <Genealogy>  (20) 
Cc1[nH]c(=O)c(S(=O)(=O)c2ccccc2)c([O-])c1-c1ccccc1 (protonated)
Cc1[nH]c(=O)c(S(=O)(=O)c2ccccc2)c([O-])c1-c1ccccc1 (3D coordinates assigned)
Cc1[nH]c(=O)c(S(=O)(=O)c2ccccc2)c([O-])c1-c1ccccc1 (optimized conformer: 53.52469552686289 kcal/mol)

>  <smiles>  (20) 
Cc1[nH]c(=O)c(S(=O)(=O)c2ccccc2)c(O)c1-c1ccccc1

>  <score_type>  (20) 
oracle

>  <origin>  (20) 
adgpu

>  <m_score__min__energy>  (20) 
-10.77

>  <m_primary>  (20) 
energy

$$$$
20:0
     RDKit          3D

 52 54  0  0  0  0  0  0  0  0999 V2000
   -3.3170   21.9920  -28.0610 C   0  0  0  0  0  0  0  0  0  0  0  0
   -3.5890   22.6730  -29.4060 C   0  0  2  0  0  0  0  0  0  0  0  0
   -4.9970   23.1200  -29.4600 N   0  0  0  0  0  0  0  0  0  0  0  0
   -5.1770   24.5730  -30.4040 S   0  0  0  0  0  0  0  0  0  0  0  0
   -6.4080   25.6530  -29.7050 C   0  0  0  0  0  0  0  0  0  0  0  0
   -5.6040   24.1980  -31.7950 O   0  0  0  0  0  0  0  0  0  0  0  0
   -3.8620   25.2980  -30.4780 O   0  0  0  0  0  0  0  0  0  0  0  0
   -3.2740   21.7050  -30.5360 C   0  0  0  0  0  0  0  0  0  0  0  0
   -4.0620   21.6920  -31.6990 C   0  0  0  0  0  0  0  0  0  0  0  0
   -3.7700   20.8090  -32.7430 C   0  0  0  0  0  0  0  0  0  0  0  0
   -2.6850   19.9300  -32.6420 C   0  0  0  0  0  0  0  0  0  0  0  0
   -2.3470   18.8030  -33.9570 S   0  0  0  0  0  0  0  0  0  0  0  0
   -1.0330   19.1640  -34.5920 O   0  0  0  0  0  0  0  0  0  0  0  0
   -3.4430   18.9680  -34.9690 O   0  0  0  0  0  0  0  0  0  0  0  0
   -2.2700   17.1330  -33.3490 C   0  0  0  0  0  0  0  0  0  0  0  0
   -1.0750   16.7200  -32.7310 C   0  0  0  0  0  0  0  0  0  0  0  0
   -0.9370   15.4270  -32.2270 C   0  0  0  0  0  0  0  0  0  0  0  0
   -1.9860   14.5190  -32.3390 C   0  0  0  0  0  0  0  0  0  0  0  0
   -1.8090   12.8930  -31.7030 Cl  0  0  0  0  0  0  0  0  0  0  0  0
   -3.1740   14.8990  -32.9640 C   0  0  0  0  0  0  0  0  0  0  0  0
   -3.3350   16.1980  -33.4840 C   0  0  0  0  0  0  0  0  0  0  0  0
   -4.8710   16.5700  -34.2970 S   0  0  0  0  0  0  0  0  0  0  0  0
   -5.7160   15.3290  -34.3460 O   0  0  0  0  0  0  0  0  0  0  0  0
   -4.6150   17.0140  -35.7100 O   0  0  0  0  0  0  0  0  0  0  0  0
   -5.7140   17.8830  -33.4830 C   0  0  0  0  0  0  0  0  0  0  0  0
   -6.1570   18.9880  -34.2230 C   0  0  0  0  0  0  0  0  0  0  0  0
   -6.8220   20.0400  -33.5860 C   0  0  0  0  0  0  0  0  0  0  0  0
   -7.0540   19.9900  -32.2070 C   0  0  0  0  0  0  0  0  0  0  0  0
   -7.8850   21.3120  -31.4090 Cl  0  0  0  0  0  0  0  0  0  0  0  0
   -6.6230   18.8840  -31.4670 C   0  0  0  0  0  0  0  0  0  0  0  0
   -5.9570   17.8310  -32.1020 C   0  0  0  0  0  0  0  0  0  0  0  0
   -1.8950   19.9360  -31.4850 C   0  0  0  0  0  0  0  0  0  0  0  0
   -2.1840   20.8180  -30.4410 C   0  0  0  0  0  0  0  0  0  0  0  0
   -3.5896   22.6746  -27.2426 H   0  0  0  0  0  0  0  0  0  0  0  0
   -3.9171   21.0731  -27.9873 H   0  0  0  0  0  0  0  0  0  0  0  0
   -2.2489   21.7393  -27.9873 H   0  0  0  0  0  0  0  0  0  0  0  0
   -2.9442   23.5572  -29.5178 H   0  0  0  0  0  0  0  0  0  0  0  0
   -5.5890   22.4050  -29.9430 H   0  0  0  0  0  0  0  0  0  0  0  0
   -6.3554   25.6069  -28.6072 H   0  0  0  0  0  0  0  0  0  0  0  0
   -6.2222   26.6848  -30.0380 H   0  0  0  0  0  0  0  0  0  0  0  0
   -7.4068   25.3345  -30.0380 H   0  0  0  0  0  0  0  0  0  0  0  0
   -4.9146   22.3812  -31.7889 H   0  0  0  0  0  0  0  0  0  0  0  0
   -4.3956   20.8049  -33.6478 H   0  0  0  0  0  0  0  0  0  0  0  0
   -0.2373   17.4276  -32.6442 H   0  0  0  0  0  0  0  0  0  0  0  0
    0.0019   15.1244  -31.7404 H   0  0  0  0  0  0  0  0  0  0  0  0
   -3.9965   14.1739  -33.0519 H   0  0  0  0  0  0  0  0  0  0  0  0
   -5.9809   19.0276  -35.3081 H   0  0  0  0  0  0  0  0  0  0  0  0
   -7.1632   20.9079  -34.1695 H   0  0  0  0  0  0  0  0  0  0  0  0
   -6.8083   18.8425  -30.3835 H   0  0  0  0  0  0  0  0  0  0  0  0
   -5.6231   16.9607  -31.5180 H   0  0  0  0  0  0  0  0  0  0  0  0
   -1.0444   19.2439  -31.3984 H   0  0  0  0  0  0  0  0  0  0  0  0
   -1.5557   20.8198  -29.5381 H   0  0  0  0  0  0  0  0  0  0  0  0
  1  2  1  0
  2  3  1  0
  3  4  1  0
  4  5  1  0
  4  6  2  0
  4  7  2  0
  2  8  1  0
  8  9  2  0
  9 10  1  0
 10 11  2  0
 11 12  1  0
 12 13  2  0
 12 14  2  0
 12 15  1  0
 15 16  2  0
 16 17  1  0
 17 18  2  0
 18 19  1  0
 18 20  1  0
 20 21  2  0
 21 22  1  0
 22 23  2  0
 22 24  2  0
 22 25  1  0
 25 26  2  0
 26 27  1  0
 27 28  2  0
 28 29  1  0
 28 30  1  0
 30 31  2  0
 11 32  1  0
 32 33  2  0
 33  8  1  0
 21 15  1  0
 31 25  1  0
  1 34  1  0
  1 35  1  0
  1 36  1  0
  2 37  1  6
  3 38  1  0
  5 39  1  0
  5 40  1  0
  5 41  1  0
  9 42  1  0
 10 43  1  0
 16 44  1  0
 17 45  1  0
 20 46  1  0
 26 47  1  0
 27 48  1  0
 30 49  1  0
 31 50  1  0
 32 51  1  0
 33 52  1  0
M  END
>  <UniqueID>  (21) 
21

>  <SMILES>  (21) 
C[C@H](NS(C)(=O)=O)c1ccc(S(=O)(=O)c2ccc(Cl)cc2S(=O)(=O)c2ccc(Cl)cc2)cc1

>  <Energy>  (21) 
57.271524636558816

>  <Genealogy>  (21) 
C[C@H](NS(C)(=O)=O)c1ccc(S(=O)(=O)c2ccc(Cl)cc2S(=O)(=O)c2ccc(Cl)cc2)cc1 (chirality)
C[C@H](NS(C)(=O)=O)c1ccc(S(=O)(=O)c2ccc(Cl)cc2S(=O)(=O)c2ccc(Cl)cc2)cc1 (3D coordinates assigned)
C[C@H](NS(C)(=O)=O)c1ccc(S(=O)(=O)c2ccc(Cl)cc2S(=O)(=O)c2ccc(Cl)cc2)cc1 (optimized conformer: 57.271524636558816 kcal/mol)

>  <smiles>  (21) 
CC(NS(C)(=O)=O)c1ccc(S(=O)(=O)c2ccc(Cl)cc2S(=O)(=O)c2ccc(Cl)cc2)cc1

>  <score_type>  (21) 
oracle

>  <origin>  (21) 
adgpu

>  <m_score__min__energy>  (21) 
-10.81

>  <m_primary>  (21) 
energy

$$$$
21:0
     RDKit          3D

 54 57  0  0  0  0  0  0  0  0999 V2000
   -4.6910   25.3880  -31.1490 O   0  0  0  0  0  0  0  0  0  0  0  0
   -5.7100   24.7400  -30.2530 S   0  0  0  0  0  0  0  0  0  0  0  0
   -6.8510   25.6960  -30.0470 O   0  0  0  0  0  0  0  0  0  0  0  0
   -4.9900   24.3580  -28.7220 N   0  0  0  0  0  0  0  0  0  0  0  0
   -3.8080   23.5480  -28.6240 C   0  0  0  0  0  0  0  0  0  0  0  0
   -3.8610   22.2690  -28.0460 C   0  0  0  0  0  0  0  0  0  0  0  0
   -2.7080   21.4780  -27.9440 C   0  0  0  0  0  0  0  0  0  0  0  0
   -1.4730   21.9870  -28.3930 C   0  0  0  0  0  0  0  0  0  0  0  0
   -1.4240   23.2520  -28.9950 C   0  0  0  0  0  0  0  0  0  0  0  0
   -2.5810   24.0290  -29.1110 C   0  0  0  0  0  0  0  0  0  0  0  0
   -2.5010   25.2860  -29.6980 O   0  0  0  0  0  0  0  0  0  0  0  0
   -0.2260   21.1400  -28.3330 C   0  0  0  0  0  0  0  0  0  0  0  0
   -0.3400   20.0840  -27.3170 N   0  0  0  0  0  0  0  0  0  0  0  0
   -1.5450   19.2810  -27.5480 C   0  0  0  0  0  0  0  0  0  0  0  0
   -2.7950   20.1260  -27.2830 C   0  0  0  0  0  0  0  0  0  0  0  0
   -6.3300   23.2560  -30.9690 C   0  0  0  0  0  0  0  0  0  0  0  0
   -7.6210   23.2410  -31.5090 C   0  0  0  0  0  0  0  0  0  0  0  0
   -8.1730   22.0480  -31.9800 C   0  0  0  0  0  0  0  0  0  0  0  0
   -7.4430   20.8550  -31.9030 C   0  0  0  0  0  0  0  0  0  0  0  0
   -8.1830   19.3300  -32.3940 S   0  0  0  0  0  0  0  0  0  0  0  0
   -8.4750   18.5040  -31.1720 O   0  0  0  0  0  0  0  0  0  0  0  0
   -9.4870   19.6120  -33.0890 O   0  0  0  0  0  0  0  0  0  0  0  0
   -7.1340   18.4340  -33.4700 N   0  0  0  0  0  0  0  0  0  0  0  0
   -6.4650   17.3340  -32.7390 C   0  0  0  0  0  0  0  0  0  0  0  0
   -5.2400   16.8190  -33.5000 C   0  0  0  0  0  0  0  0  0  0  0  0
   -4.1790   17.9240  -33.6450 C   0  0  0  0  0  0  0  0  0  0  0  0
   -4.7890   19.3360  -33.6500 C   0  0  0  0  0  0  0  0  0  0  0  0
   -6.2170   19.3320  -34.2140 C   0  0  0  0  0  0  0  0  0  0  0  0
   -6.1390   20.8740  -31.3860 C   0  0  0  0  0  0  0  0  0  0  0  0
   -5.5860   22.0700  -30.9190 C   0  0  0  0  0  0  0  0  0  0  0  0
   -5.5680   24.5290  -27.8690 H   0  0  0  0  0  0  0  0  0  0  0  0
   -4.8194   21.8830  -27.6685 H   0  0  0  0  0  0  0  0  0  0  0  0
   -0.4678   23.6366  -29.3793 H   0  0  0  0  0  0  0  0  0  0  0  0
   -0.0629   20.6740  -29.3160 H   0  0  0  0  0  0  0  0  0  0  0  0
    0.6195   21.7895  -28.0621 H   0  0  0  0  0  0  0  0  0  0  0  0
    0.4900   19.4540  -27.4180 H   0  0  0  0  0  0  0  0  0  0  0  0
   -1.5557   18.9315  -28.5909 H   0  0  0  0  0  0  0  0  0  0  0  0
   -1.5407   18.4180  -26.8659 H   0  0  0  0  0  0  0  0  0  0  0  0
   -3.6741   19.5939  -27.6754 H   0  0  0  0  0  0  0  0  0  0  0  0
   -2.8785   20.2813  -26.1972 H   0  0  0  0  0  0  0  0  0  0  0  0
   -8.2032   24.1727  -31.5626 H   0  0  0  0  0  0  0  0  0  0  0  0
   -9.1843   22.0450  -32.4128 H   0  0  0  0  0  0  0  0  0  0  0  0
   -6.1447   17.7026  -31.7533 H   0  0  0  0  0  0  0  0  0  0  0  0
   -7.1798   16.5046  -32.6332 H   0  0  0  0  0  0  0  0  0  0  0  0
   -4.8046   15.9716  -32.9502 H   0  0  0  0  0  0  0  0  0  0  0  0
   -5.5577   16.5029  -34.5046 H   0  0  0  0  0  0  0  0  0  0  0  0
   -3.4746   17.8480  -32.8036 H   0  0  0  0  0  0  0  0  0  0  0  0
   -3.6756   17.7763  -34.6118 H   0  0  0  0  0  0  0  0  0  0  0  0
   -4.8134   19.7181  -32.6188 H   0  0  0  0  0  0  0  0  0  0  0  0
   -4.1671   19.9775  -34.2917 H   0  0  0  0  0  0  0  0  0  0  0  0
   -6.6151   20.3563  -34.1664 H   0  0  0  0  0  0  0  0  0  0  0  0
   -6.1604   18.9598  -35.2476 H   0  0  0  0  0  0  0  0  0  0  0  0
   -5.5503   19.9456  -31.3480 H   0  0  0  0  0  0  0  0  0  0  0  0
   -4.5644   22.0799  -30.5114 H   0  0  0  0  0  0  0  0  0  0  0  0
  1  2  2  0
  2  3  2  0
  2  4  1  0
  4  5  1  0
  5  6  2  0
  6  7  1  0
  7  8  2  0
  8  9  1  0
  9 10  2  0
 10 11  1  0
  8 12  1  0
 12 13  1  0
 13 14  1  0
 14 15  1  0
  2 16  1  0
 16 17  2  0
 17 18  1  0
 18 19  2  0
 19 20  1  0
 20 21  2  0
 20 22  2  0
 20 23  1  0
 23 24  1  0
 24 25  1  0
 25 26  1  0
 26 27  1  0
 27 28  1  0
 19 29  1  0
 29 30  2  0
 10  5  1  0
 30 16  1  0
 15  7  1  0
 28 23  1  0
  4 31  1  0
  6 32  1  0
  9 33  1  0
 12 34  1  0
 12 35  1  0
 13 36  1  0
 14 37  1  0
 14 38  1  0
 15 39  1  0
 15 40  1  0
 17 41  1  0
 18 42  1  0
 24 43  1  0
 24 44  1  0
 25 45  1  0
 25 46  1  0
 26 47  1  0
 26 48  1  0
 27 49  1  0
 27 50  1  0
 28 51  1  0
 28 52  1  0
 29 53  1  0
 30 54  1  0
M  CHG  1  11  -1
M  END
>  <UniqueID>  (22) 
22

>  <SMILES>  (22) 
O=S(=O)(Nc1cc2c(cc1[O-])CNCC2)c1ccc(S(=O)(=O)N2CCCCC2)cc1

>  <Energy>  (22) 
61.16085604577932

>  <Genealogy>  (22) 
O=S(=O)(Nc1cc2c(cc1[O-])CNCC2)c1ccc(S(=O)(=O)N2CCCCC2)cc1 (protonated)
O=S(=O)(Nc1cc2c(cc1[O-])CNCC2)c1ccc(S(=O)(=O)N2CCCCC2)cc1 (3D coordinates assigned)
O=S(=O)(Nc1cc2c(cc1[O-])CNCC2)c1ccc(S(=O)(=O)N2CCCCC2)cc1 (nonaromatic ring conformer: 61.16085604577932 kcal/mol)

>  <smiles>  (22) 
O=S(=O)(Nc1cc2c(cc1O)CNCC2)c1ccc(S(=O)(=O)N2CCCCC2)cc1

>  <score_type>  (22) 
oracle

>  <origin>  (22) 
adgpu

>  <m_score__min__energy>  (22) 
-15.119999999999999

>  <m_primary>  (22) 
energy

$$$$
22:0
     RDKit          3D

 67 71  0  0  0  0  0  0  0  0999 V2000
   -0.0760   18.8110  -34.4150 C   0  0  0  0  0  0  0  0  0  0  0  0
   -1.3050   18.0480  -34.0150 C   0  0  0  0  0  0  0  0  0  0  0  0
   -2.5540   18.3690  -34.5700 C   0  0  0  0  0  0  0  0  0  0  0  0
   -3.6890   17.6320  -34.2240 C   0  0  0  0  0  0  0  0  0  0  0  0
   -3.5880   16.5570  -33.3290 C   0  0  0  0  0  0  0  0  0  0  0  0
   -5.0270   15.6540  -32.8610 S   0  0  0  0  0  0  0  0  0  0  0  0
   -5.0490   14.3500  -33.6070 O   0  0  0  0  0  0  0  0  0  0  0  0
   -4.9790   15.3570  -31.3890 O   0  0  0  0  0  0  0  0  0  0  0  0
   -6.4800   16.5300  -33.2190 N   0  0  0  0  0  0  0  0  0  0  0  0
   -6.7500   17.8380  -32.7080 C   0  0  0  0  0  0  0  0  0  0  0  0
   -5.7150   18.5700  -32.1240 C   0  0  0  0  0  0  0  0  0  0  0  0
   -5.9470   19.8560  -31.6300 C   0  0  0  0  0  0  0  0  0  0  0  0
   -7.2340   20.4290  -31.6980 C   0  0  0  0  0  0  0  0  0  0  0  0
   -7.5000   21.7440  -31.2350 C   0  0  0  0  0  0  0  0  0  0  0  0
   -6.4540   22.5810  -30.6160 C   0  0  0  0  0  0  0  0  0  0  0  0
   -6.7730   23.4000  -29.7120 O   0  0  0  0  0  0  0  0  0  0  0  0
   -5.0960   22.4880  -31.0760 N   0  0  0  0  0  0  0  0  0  0  0  0
   -3.9460   22.9050  -30.3170 C   0  0  0  0  0  0  0  0  0  0  0  0
   -3.8580   24.1890  -29.7490 C   0  0  0  0  0  0  0  0  0  0  0  0
   -2.7490   24.5480  -28.9780 C   0  0  0  0  0  0  0  0  0  0  0  0
   -1.7280   23.6190  -28.7340 C   0  0  0  0  0  0  0  0  0  0  0  0
   -0.3560   24.0530  -27.7090 S   0  0  0  0  0  0  0  0  0  0  0  0
   -0.0880   22.9320  -26.7430 O   0  0  0  0  0  0  0  0  0  0  0  0
    0.8650   24.2290  -28.5700 O   0  0  0  0  0  0  0  0  0  0  0  0
   -0.6650   25.5180  -26.8050 N   0  0  0  0  0  0  0  0  0  0  0  0
    0.5430   25.9750  -26.0730 C   0  0  0  0  0  0  0  0  0  0  0  0
    0.4870   25.6600  -24.5700 C   0  0  0  0  0  0  0  0  0  0  0  0
   -0.7460   26.3030  -23.9090 C   0  0  0  0  0  0  0  0  0  0  0  0
   -1.9380   26.4360  -24.8740 C   0  0  0  0  0  0  0  0  0  0  0  0
   -1.8780   25.3660  -25.9700 C   0  0  0  0  0  0  0  0  0  0  0  0
   -1.8170   22.3370  -29.2880 C   0  0  0  0  0  0  0  0  0  0  0  0
   -2.9200   21.9810  -30.0690 C   0  0  0  0  0  0  0  0  0  0  0  0
   -8.7890   22.2800  -31.3720 C   0  0  0  0  0  0  0  0  0  0  0  0
   -9.8180   21.5240  -31.9350 C   0  0  0  0  0  0  0  0  0  0  0  0
   -9.5720   20.2260  -32.3820 C   0  0  0  0  0  0  0  0  0  0  0  0
   -8.2880   19.6740  -32.2770 C   0  0  0  0  0  0  0  0  0  0  0  0
   -8.0410   18.3780  -32.7570 C   0  0  0  0  0  0  0  0  0  0  0  0
   -2.3390   16.2250  -32.7860 C   0  0  0  0  0  0  0  0  0  0  0  0
   -1.2020   16.9620  -33.1300 C   0  0  0  0  0  0  0  0  0  0  0  0
    0.4591   19.1432  -33.5131 H   0  0  0  0  0  0  0  0  0  0  0  0
    0.5806   18.1615  -35.0125 H   0  0  0  0  0  0  0  0  0  0  0  0
   -0.3669   19.6876  -35.0125 H   0  0  0  0  0  0  0  0  0  0  0  0
   -2.6392   19.2045  -35.2804 H   0  0  0  0  0  0  0  0  0  0  0  0
   -4.6659   17.8958  -34.6552 H   0  0  0  0  0  0  0  0  0  0  0  0
   -4.7090   18.1310  -32.0522 H   0  0  0  0  0  0  0  0  0  0  0  0
   -5.1189   20.4266  -31.1842 H   0  0  0  0  0  0  0  0  0  0  0  0
   -4.9320   22.0690  -32.0200 H   0  0  0  0  0  0  0  0  0  0  0  0
   -4.6676   24.9154  -29.9128 H   0  0  0  0  0  0  0  0  0  0  0  0
   -2.6770   25.5634  -28.5611 H   0  0  0  0  0  0  0  0  0  0  0  0
    1.4238   25.4761  -26.5035 H   0  0  0  0  0  0  0  0  0  0  0  0
    0.5989   27.0685  -26.1790 H   0  0  0  0  0  0  0  0  0  0  0  0
    0.4386   24.5695  -24.4340 H   0  0  0  0  0  0  0  0  0  0  0  0
    1.3897   26.0718  -24.0952 H   0  0  0  0  0  0  0  0  0  0  0  0
   -1.0523   25.6802  -23.0556 H   0  0  0  0  0  0  0  0  0  0  0  0
   -0.4612   27.3172  -23.5922 H   0  0  0  0  0  0  0  0  0  0  0  0
   -2.8740   26.3195  -24.3081 H   0  0  0  0  0  0  0  0  0  0  0  0
   -1.8963   27.4274  -25.3487 H   0  0  0  0  0  0  0  0  0  0  0  0
   -1.8668   24.3717  -25.4997 H   0  0  0  0  0  0  0  0  0  0  0  0
   -2.7607   25.4813  -26.6162 H   0  0  0  0  0  0  0  0  0  0  0  0
   -1.0150   21.6060  -29.1079 H   0  0  0  0  0  0  0  0  0  0  0  0
   -2.9841   20.9679  -30.4927 H   0  0  0  0  0  0  0  0  0  0  0  0
   -8.9907   23.3066  -31.0322 H   0  0  0  0  0  0  0  0  0  0  0  0
  -10.8266   21.9533  -32.0266 H   0  0  0  0  0  0  0  0  0  0  0  0
  -10.3891   19.6330  -32.8188 H   0  0  0  0  0  0  0  0  0  0  0  0
   -8.8668   17.7831  -33.1742 H   0  0  0  0  0  0  0  0  0  0  0  0
   -2.2532   15.3808  -32.0861 H   0  0  0  0  0  0  0  0  0  0  0  0
   -0.2238   16.6907  -32.7064 H   0  0  0  0  0  0  0  0  0  0  0  0
  1  2  1  0
  2  3  2  0
  3  4  1  0
  4  5  2  0
  5  6  1  0
  6  7  2  0
  6  8  2  0
  6  9  1  0
  9 10  1  0
 10 11  2  0
 11 12  1  0
 12 13  2  0
 13 14  1  0
 14 15  1  0
 15 16  2  0
 15 17  1  0
 17 18  1  0
 18 19  2  0
 19 20  1  0
 20 21  2  0
 21 22  1  0
 22 23  2  0
 22 24  2  0
 22 25  1  0
 25 26  1  0
 26 27  1  0
 27 28  1  0
 28 29  1  0
 29 30  1  0
 21 31  1  0
 31 32  2  0
 14 33  2  0
 33 34  1  0
 34 35  2  0
 35 36  1  0
 36 37  2  0
  5 38  1  0
 38 39  2  0
 39  2  1  0
 37 10  1  0
 36 13  1  0
 32 18  1  0
 30 25  1  0
  1 40  1  0
  1 41  1  0
  1 42  1  0
  3 43  1  0
  4 44  1  0
 11 45  1  0
 12 46  1  0
 17 47  1  0
 19 48  1  0
 20 49  1  0
 26 50  1  0
 26 51  1  0
 27 52  1  0
 27 53  1  0
 28 54  1  0
 28 55  1  0
 29 56  1  0
 29 57  1  0
 30 58  1  0
 30 59  1  0
 31 60  1  0
 32 61  1  0
 33 62  1  0
 34 63  1  0
 35 64  1  0
 37 65  1  0
 38 66  1  0
 39 67  1  0
M  CHG  1   9  -1
M  END
>  <UniqueID>  (23) 
23

>  <SMILES>  (23) 
Cc1ccc(S(=O)(=O)[N-]c2ccc3c(C(=O)Nc4ccc(S(=O)(=O)N5CCCCC5)cc4)cccc3c2)cc1

>  <Energy>  (23) 
98.90457915037105

>  <Genealogy>  (23) 
Cc1ccc(S(=O)(=O)[N-]c2ccc3c(C(=O)Nc4ccc(S(=O)(=O)N5CCCCC5)cc4)cccc3c2)cc1 (protonated)
Cc1ccc(S(=O)(=O)[N-]c2ccc3c(C(=O)Nc4ccc(S(=O)(=O)N5CCCCC5)cc4)cccc3c2)cc1 (3D coordinates assigned)
Cc1ccc(S(=O)(=O)[N-]c2ccc3c(C(=O)Nc4ccc(S(=O)(=O)N5CCCCC5)cc4)cccc3c2)cc1 (nonaromatic ring conformer: 98.90457915037105 kcal/mol)

>  <smiles>  (23) 
Cc1ccc(S(=O)(=O)Nc2ccc3c(C(=O)Nc4ccc(S(=O)(=O)N5CCCCC5)cc4)cccc3c2)cc1

>  <score_type>  (23) 
oracle

>  <origin>  (23) 
adgpu

>  <m_score__min__energy>  (23) 
-12.76

>  <m_primary>  (23) 
energy

$$$$
23:0
     RDKit          3D

 55 58  0  0  0  0  0  0  0  0999 V2000
   -0.4210   21.1830  -34.3860 C   0  0  0  0  0  0  0  0  0  0  0  0
   -1.2580   20.0630  -33.7760 C   0  0  0  0  0  0  0  0  0  0  0  0
   -1.5360   20.3380  -32.3640 N   0  0  0  0  0  0  0  0  0  0  0  0
   -2.7550   20.9910  -31.9770 C   0  0  0  0  0  0  0  0  0  0  0  0
   -2.7390   22.3470  -31.6400 C   0  0  0  0  0  0  0  0  0  0  0  0
   -3.9170   23.0000  -31.2710 C   0  0  0  0  0  0  0  0  0  0  0  0
   -3.8740   24.3130  -30.9400 N   0  0  0  0  0  0  0  0  0  0  0  0
   -4.9900   24.9840  -30.5750 C   0  0  0  0  0  0  0  0  0  0  0  0
   -4.9110   26.2030  -30.2700 O   0  0  0  0  0  0  0  0  0  0  0  0
   -6.2210   24.3180  -30.5360 C   0  0  0  0  0  0  0  0  0  0  0  0
   -7.2520   24.9590  -30.1900 O   0  0  0  0  0  0  0  0  0  0  0  0
   -6.2960   22.9840  -30.8700 N   0  0  0  0  0  0  0  0  0  0  0  0
   -7.5990   22.2890  -30.8280 C   0  0  0  0  0  0  0  0  0  0  0  0
   -5.1490   22.3060  -31.2370 C   0  0  0  0  0  0  0  0  0  0  0  0
   -5.1540   20.9350  -31.5850 C   0  0  0  0  0  0  0  0  0  0  0  0
   -3.9650   20.2770  -31.9470 C   0  0  0  0  0  0  0  0  0  0  0  0
   -3.9540   18.8900  -32.3150 N   0  0  0  0  0  0  0  0  0  0  0  0
   -5.0700   18.1100  -33.3840 S   0  0  0  0  0  0  0  0  0  0  0  0
   -4.8000   18.5290  -34.8030 O   0  0  0  0  0  0  0  0  0  0  0  0
   -4.9340   16.6180  -33.2710 O   0  0  0  0  0  0  0  0  0  0  0  0
   -6.6990   18.5900  -32.9260 C   0  0  0  0  0  0  0  0  0  0  0  0
   -7.4120   17.8330  -31.9860 C   0  0  0  0  0  0  0  0  0  0  0  0
   -8.6960   18.2300  -31.5910 C   0  0  0  0  0  0  0  0  0  0  0  0
   -9.2680   19.3860  -32.1310 C   0  0  0  0  0  0  0  0  0  0  0  0
   -8.5580   20.1480  -33.0640 C   0  0  0  0  0  0  0  0  0  0  0  0
   -7.2740   19.7540  -33.4590 C   0  0  0  0  0  0  0  0  0  0  0  0
   -0.3600   19.9140  -31.1560 S   0  0  0  0  0  0  0  0  0  0  0  0
    1.0010   20.3630  -31.6070 O   0  0  0  0  0  0  0  0  0  0  0  0
   -0.3350   18.4230  -30.9590 O   0  0  0  0  0  0  0  0  0  0  0  0
   -0.7930   20.6770  -29.6300 C   0  0  0  0  0  0  0  0  0  0  0  0
   -0.4870   22.0250  -29.3930 C   0  0  0  0  0  0  0  0  0  0  0  0
   -0.8590   22.6280  -28.1870 C   0  0  0  0  0  0  0  0  0  0  0  0
   -1.5410   21.8870  -27.2160 C   0  0  0  0  0  0  0  0  0  0  0  0
   -1.8520   20.5440  -27.4520 C   0  0  0  0  0  0  0  0  0  0  0  0
   -1.4810   19.9410  -28.6570 C   0  0  0  0  0  0  0  0  0  0  0  0
    0.0284   21.7844  -33.5821 H   0  0  0  0  0  0  0  0  0  0  0  0
    0.3755   20.7485  -35.0079 H   0  0  0  0  0  0  0  0  0  0  0  0
   -1.0634   21.8238  -35.0079 H   0  0  0  0  0  0  0  0  0  0  0  0
   -2.2091   19.9834  -34.3229 H   0  0  0  0  0  0  0  0  0  0  0  0
   -0.6966   19.1199  -33.8500 H   0  0  0  0  0  0  0  0  0  0  0  0
   -1.7911   22.9045  -31.6656 H   0  0  0  0  0  0  0  0  0  0  0  0
   -7.8964   22.1304  -29.7809 H   0  0  0  0  0  0  0  0  0  0  0  0
   -8.3581   22.9020  -31.3359 H   0  0  0  0  0  0  0  0  0  0  0  0
   -7.5127   21.3171  -31.3359 H   0  0  0  0  0  0  0  0  0  0  0  0
   -6.1011   20.3757  -31.5723 H   0  0  0  0  0  0  0  0  0  0  0  0
   -6.9622   16.9252  -31.5576 H   0  0  0  0  0  0  0  0  0  0  0  0
   -9.2545   17.6321  -30.8557 H   0  0  0  0  0  0  0  0  0  0  0  0
  -10.2770   19.6961  -31.8217 H   0  0  0  0  0  0  0  0  0  0  0  0
   -9.0086   21.0576  -33.4878 H   0  0  0  0  0  0  0  0  0  0  0  0
   -6.7147   20.3580  -34.1886 H   0  0  0  0  0  0  0  0  0  0  0  0
    0.0466   22.6093  -30.1571 H   0  0  0  0  0  0  0  0  0  0  0  0
   -0.6153   23.6846  -28.0021 H   0  0  0  0  0  0  0  0  0  0  0  0
   -1.8326   22.3606  -26.2670 H   0  0  0  0  0  0  0  0  0  0  0  0
   -2.3890   19.9619  -26.6886 H   0  0  0  0  0  0  0  0  0  0  0  0
   -1.7300   18.8856  -28.8417 H   0  0  0  0  0  0  0  0  0  0  0  0
  1  2  1  0
  2  3  1  0
  3  4  1  0
  4  5  2  0
  5  6  1  0
  6  7  1  0
  7  8  1  0
  8  9  2  0
  8 10  1  0
 10 11  2  0
 10 12  1  0
 12 13  1  0
 12 14  1  0
 14 15  1  0
 15 16  2  0
 16 17  1  0
 17 18  1  0
 18 19  2  0
 18 20  2  0
 18 21  1  0
 21 22  2  0
 22 23  1  0
 23 24  2  0
 24 25  1  0
 25 26  2  0
  3 27  1  0
 27 28  2  0
 27 29  2  0
 27 30  1  0
 30 31  2  0
 31 32  1  0
 32 33  2  0
 33 34  1  0
 34 35  2  0
 16  4  1  0
 26 21  1  0
 35 30  1  0
 14  6  2  0
  1 36  1  0
  1 37  1  0
  1 38  1  0
  2 39  1  0
  2 40  1  0
  5 41  1  0
 13 42  1  0
 13 43  1  0
 13 44  1  0
 15 45  1  0
 22 46  1  0
 23 47  1  0
 24 48  1  0
 25 49  1  0
 26 50  1  0
 31 51  1  0
 32 52  1  0
 33 53  1  0
 34 54  1  0
 35 55  1  0
M  CHG  2   7  -1  17  -1
M  END
>  <UniqueID>  (24) 
24

>  <SMILES>  (24) 
CCN(c1cc2[n-]c(=O)c(=O)n(C)c2cc1[N-]S(=O)(=O)c1ccccc1)S(=O)(=O)c1ccccc1

>  <Energy>  (24) 
75.90943953546667

>  <Genealogy>  (24) 
CCN(c1cc2[n-]c(=O)c(=O)n(C)c2cc1[N-]S(=O)(=O)c1ccccc1)S(=O)(=O)c1ccccc1 (protonated)
CCN(c1cc2[n-]c(=O)c(=O)n(C)c2cc1[N-]S(=O)(=O)c1ccccc1)S(=O)(=O)c1ccccc1 (3D coordinates assigned)
CCN(c1cc2[n-]c(=O)c(=O)n(C)c2cc1[N-]S(=O)(=O)c1ccccc1)S(=O)(=O)c1ccccc1 (optimized conformer: 75.90943953546667 kcal/mol)

>  <smiles>  (24) 
CCN(c1cc2[nH]c(=O)c(=O)n(C)c2cc1NS(=O)(=O)c1ccccc1)S(=O)(=O)c1ccccc1

>  <score_type>  (24) 
oracle

>  <origin>  (24) 
adgpu

>  <m_score__min__energy>  (24) 
-11.720000000000001

>  <m_primary>  (24) 
energy

$$$$
24:0
     RDKit          3D

 52 55  0  0  0  0  0  0  0  0999 V2000
   -1.8680   19.9490  -26.3040 C   0  0  0  0  0  0  0  0  0  0  0  0
   -1.2800   19.7780  -27.6430 N   0  0  0  0  0  0  0  0  0  0  0  0
    0.1260   20.2230  -27.7070 C   0  0  0  0  0  0  0  0  0  0  0  0
    0.2730   21.7330  -27.4810 C   0  0  0  0  0  0  0  0  0  0  0  0
   -0.7370   22.5220  -28.2700 C   0  0  0  0  0  0  0  0  0  0  0  0
   -0.5510   23.9010  -28.4350 C   0  0  0  0  0  0  0  0  0  0  0  0
   -1.4710   24.6590  -29.1630 C   0  0  0  0  0  0  0  0  0  0  0  0
   -1.2400   26.0180  -29.3400 O   0  0  0  0  0  0  0  0  0  0  0  0
   -2.6060   24.0500  -29.7230 C   0  0  0  0  0  0  0  0  0  0  0  0
   -3.4990   24.8170  -30.5500 N   0  0  0  0  0  0  0  0  0  0  0  0
   -5.1980   24.9730  -30.2210 S   0  0  0  0  0  0  0  0  0  0  0  0
   -5.3970   25.0760  -28.7350 O   0  0  0  0  0  0  0  0  0  0  0  0
   -5.7210   26.2200  -30.8760 O   0  0  0  0  0  0  0  0  0  0  0  0
   -6.0780   23.5880  -30.8660 C   0  0  0  0  0  0  0  0  0  0  0  0
   -5.5680   22.8880  -31.9660 C   0  0  0  0  0  0  0  0  0  0  0  0
   -6.1920   21.7170  -32.4050 C   0  0  0  0  0  0  0  0  0  0  0  0
   -7.3380   21.2430  -31.7540 C   0  0  0  0  0  0  0  0  0  0  0  0
   -8.0700   19.7300  -32.2740 S   0  0  0  0  0  0  0  0  0  0  0  0
   -9.1000   20.0140  -33.3330 O   0  0  0  0  0  0  0  0  0  0  0  0
   -8.7560   19.0510  -31.1190 O   0  0  0  0  0  0  0  0  0  0  0  0
   -6.8100   18.6760  -32.9040 C   0  0  0  0  0  0  0  0  0  0  0  0
   -6.1390   19.0190  -34.0880 C   0  0  0  0  0  0  0  0  0  0  0  0
   -5.1520   18.1740  -34.6060 C   0  0  0  0  0  0  0  0  0  0  0  0
   -4.8310   16.9840  -33.9460 C   0  0  0  0  0  0  0  0  0  0  0  0
   -5.5030   16.6350  -32.7700 C   0  0  0  0  0  0  0  0  0  0  0  0
   -6.4920   17.4750  -32.2510 C   0  0  0  0  0  0  0  0  0  0  0  0
   -7.8640   21.9560  -30.6710 C   0  0  0  0  0  0  0  0  0  0  0  0
   -7.2390   23.1240  -30.2300 C   0  0  0  0  0  0  0  0  0  0  0  0
   -2.8290   22.6810  -29.4920 C   0  0  0  0  0  0  0  0  0  0  0  0
   -1.9010   21.9130  -28.7780 C   0  0  0  0  0  0  0  0  0  0  0  0
   -2.0990   20.4160  -28.6910 C   0  0  0  0  0  0  0  0  0  0  0  0
   -1.1088   19.7282  -25.5392 H   0  0  0  0  0  0  0  0  0  0  0  0
   -2.2164   20.9857  -26.1862 H   0  0  0  0  0  0  0  0  0  0  0  0
   -2.7180   19.2609  -26.1862 H   0  0  0  0  0  0  0  0  0  0  0  0
    0.6999   19.6926  -26.9328 H   0  0  0  0  0  0  0  0  0  0  0  0
    0.5035   19.9967  -28.7151 H   0  0  0  0  0  0  0  0  0  0  0  0
    0.1338   21.9472  -26.4111 H   0  0  0  0  0  0  0  0  0  0  0  0
    1.2764   22.0311  -27.8191 H   0  0  0  0  0  0  0  0  0  0  0  0
    0.3266   24.3905  -27.9876 H   0  0  0  0  0  0  0  0  0  0  0  0
   -3.1680   25.1650  -31.4760 H   0  0  0  0  0  0  0  0  0  0  0  0
   -4.6734   23.2608  -32.4863 H   0  0  0  0  0  0  0  0  0  0  0  0
   -5.7819   21.1660  -33.2642 H   0  0  0  0  0  0  0  0  0  0  0  0
   -6.3898   19.9543  -34.6097 H   0  0  0  0  0  0  0  0  0  0  0  0
   -4.6276   18.4461  -35.5339 H   0  0  0  0  0  0  0  0  0  0  0  0
   -4.0508   16.3229  -34.3512 H   0  0  0  0  0  0  0  0  0  0  0  0
   -5.2525   15.6972  -32.2525 H   0  0  0  0  0  0  0  0  0  0  0  0
   -7.0222   17.1944  -31.3290 H   0  0  0  0  0  0  0  0  0  0  0  0
   -8.7722   21.5954  -30.1658 H   0  0  0  0  0  0  0  0  0  0  0  0
   -7.6587   23.6826  -29.3804 H   0  0  0  0  0  0  0  0  0  0  0  0
   -3.7441   22.2073  -29.8771 H   0  0  0  0  0  0  0  0  0  0  0  0
   -3.1590   20.2162  -28.4754 H   0  0  0  0  0  0  0  0  0  0  0  0
   -1.7839   19.9896  -29.6548 H   0  0  0  0  0  0  0  0  0  0  0  0
  1  2  1  0
  2  3  1  0
  3  4  1  0
  4  5  1  0
  5  6  2  0
  6  7  1  0
  7  8  1  0
  7  9  2  0
  9 10  1  0
 10 11  1  0
 11 12  2  0
 11 13  2  0
 11 14  1  0
 14 15  2  0
 15 16  1  0
 16 17  2  0
 17 18  1  0
 18 19  2  0
 18 20  2  0
 18 21  1  0
 21 22  2  0
 22 23  1  0
 23 24  2  0
 24 25  1  0
 25 26  2  0
 17 27  1  0
 27 28  2  0
  9 29  1  0
 29 30  2  0
 30 31  1  0
 31  2  1  0
 30  5  1  0
 28 14  1  0
 26 21  1  0
  1 32  1  0
  1 33  1  0
  1 34  1  0
  3 35  1  0
  3 36  1  0
  4 37  1  0
  4 38  1  0
  6 39  1  0
 10 40  1  0
 15 41  1  0
 16 42  1  0
 22 43  1  0
 23 44  1  0
 24 45  1  0
 25 46  1  0
 26 47  1  0
 27 48  1  0
 28 49  1  0
 29 50  1  0
 31 51  1  0
 31 52  1  0
M  CHG  1   8  -1
M  END
>  <UniqueID>  (25) 
25

>  <SMILES>  (25) 
CN1CCc2cc([O-])c(NS(=O)(=O)c3ccc(S(=O)(=O)c4ccccc4)cc3)cc2C1

>  <Energy>  (25) 
63.473808458434426

>  <Genealogy>  (25) 
CN1CCc2cc([O-])c(NS(=O)(=O)c3ccc(S(=O)(=O)c4ccccc4)cc3)cc2C1 (protonated)
CN1CCc2cc([O-])c(NS(=O)(=O)c3ccc(S(=O)(=O)c4ccccc4)cc3)cc2C1 (3D coordinates assigned)
CN1CCc2cc([O-])c(NS(=O)(=O)c3ccc(S(=O)(=O)c4ccccc4)cc3)cc2C1 (nonaromatic ring conformer: 63.473808458434426 kcal/mol)

>  <smiles>  (25) 
CN1CCc2cc(O)c(NS(=O)(=O)c3ccc(S(=O)(=O)c4ccccc4)cc3)cc2C1

>  <score_type>  (25) 
oracle

>  <origin>  (25) 
adgpu

>  <m_score__min__energy>  (25) 
-15.039999999999999

>  <m_primary>  (25) 
energy

$$$$
25:0
     RDKit          3D

 49 52  0  0  0  0  0  0  0  0999 V2000
   -5.0750   25.2520  -29.2650 O   0  0  0  0  0  0  0  0  0  0  0  0
   -4.2480   24.5490  -29.9030 C   0  0  0  0  0  0  0  0  0  0  0  0
   -4.6090   24.0730  -31.2060 N   0  0  0  0  0  0  0  0  0  0  0  0
   -5.4080   22.9150  -31.4860 C   0  0  0  0  0  0  0  0  0  0  0  0
   -6.7510   23.0870  -31.8420 C   0  0  0  0  0  0  0  0  0  0  0  0
   -7.5570   21.9780  -32.1150 C   0  0  0  0  0  0  0  0  0  0  0  0
   -7.0320   20.6820  -32.0210 C   0  0  0  0  0  0  0  0  0  0  0  0
   -8.0370   19.2830  -32.4070 S   0  0  0  0  0  0  0  0  0  0  0  0
   -8.4120   18.5760  -31.1340 O   0  0  0  0  0  0  0  0  0  0  0  0
   -9.3020   19.7490  -33.0720 O   0  0  0  0  0  0  0  0  0  0  0  0
   -7.1990   18.1680  -33.4620 N   0  0  0  0  0  0  0  0  0  0  0  0
   -6.7230   16.9700  -32.7250 C   0  0  0  0  0  0  0  0  0  0  0  0
   -5.2160   17.0070  -32.4310 C   0  0  0  0  0  0  0  0  0  0  0  0
   -4.3990   17.1210  -33.7300 C   0  0  0  0  0  0  0  0  0  0  0  0
   -5.1400   17.8970  -34.8330 C   0  0  0  0  0  0  0  0  0  0  0  0
   -6.1530   18.8770  -34.2320 C   0  0  0  0  0  0  0  0  0  0  0  0
   -5.6990   20.5060  -31.6250 C   0  0  0  0  0  0  0  0  0  0  0  0
   -4.8910   21.6140  -31.3550 C   0  0  0  0  0  0  0  0  0  0  0  0
   -2.8990   24.3240  -29.3460 C   0  0  0  0  0  0  0  0  0  0  0  0
   -2.0780   25.2810  -29.3250 O   0  0  0  0  0  0  0  0  0  0  0  0
   -2.4920   23.0270  -28.7730 C   0  0  0  0  0  0  0  0  0  0  0  0
   -0.9530   22.3520  -28.9690 S   0  0  0  0  0  0  0  0  0  0  0  0
   -1.2850   20.9450  -28.1180 C   0  0  0  0  0  0  0  0  0  0  0  0
   -0.4290   19.8770  -27.8620 C   0  0  0  0  0  0  0  0  0  0  0  0
   -0.9260   18.7890  -27.1320 C   0  0  0  0  0  0  0  0  0  0  0  0
   -2.2580   18.7880  -26.6770 C   0  0  0  0  0  0  0  0  0  0  0  0
   -3.1060   19.8750  -26.9480 C   0  0  0  0  0  0  0  0  0  0  0  0
   -2.6020   20.9620  -27.6770 C   0  0  0  0  0  0  0  0  0  0  0  0
   -3.2930   22.1290  -28.0540 C   0  0  0  0  0  0  0  0  0  0  0  0
   -4.6390   22.3670  -27.7820 O   0  0  0  0  0  0  0  0  0  0  0  0
   -7.1742   24.1002  -31.9072 H   0  0  0  0  0  0  0  0  0  0  0  0
   -8.6081   22.1232  -32.4049 H   0  0  0  0  0  0  0  0  0  0  0  0
   -7.2652   16.9074  -31.7700 H   0  0  0  0  0  0  0  0  0  0  0  0
   -6.9129   16.0940  -33.3626 H   0  0  0  0  0  0  0  0  0  0  0  0
   -4.9963   17.8746  -31.7915 H   0  0  0  0  0  0  0  0  0  0  0  0
   -4.9366   16.0715  -31.9244 H   0  0  0  0  0  0  0  0  0  0  0  0
   -3.4555   17.6409  -33.5075 H   0  0  0  0  0  0  0  0  0  0  0  0
   -4.2242   16.1009  -34.1025 H   0  0  0  0  0  0  0  0  0  0  0  0
   -4.4075   18.4590  -35.4310 H   0  0  0  0  0  0  0  0  0  0  0  0
   -5.6821   17.1767  -35.4633 H   0  0  0  0  0  0  0  0  0  0  0  0
   -5.6249   19.5718  -33.5625 H   0  0  0  0  0  0  0  0  0  0  0  0
   -6.6385   19.4213  -35.0554 H   0  0  0  0  0  0  0  0  0  0  0  0
   -5.2868   19.4909  -31.5263 H   0  0  0  0  0  0  0  0  0  0  0  0
   -3.8475   21.4678  -31.0391 H   0  0  0  0  0  0  0  0  0  0  0  0
    0.6099   19.8871  -28.2233 H   0  0  0  0  0  0  0  0  0  0  0  0
   -0.2722   17.9318  -26.9135 H   0  0  0  0  0  0  0  0  0  0  0  0
   -2.6382   17.9291  -26.1045 H   0  0  0  0  0  0  0  0  0  0  0  0
   -4.1476   19.8735  -26.5944 H   0  0  0  0  0  0  0  0  0  0  0  0
   -5.1100   23.2140  -28.0730 H   0  0  0  0  0  0  0  0  0  0  0  0
  1  2  2  0
  2  3  1  0
  3  4  1  0
  4  5  2  0
  5  6  1  0
  6  7  2  0
  7  8  1  0
  8  9  2  0
  8 10  2  0
  8 11  1  0
 11 12  1  0
 12 13  1  0
 13 14  1  0
 14 15  1  0
 15 16  1  0
  7 17  1  0
 17 18  2  0
  2 19  1  0
 19 20  2  0
 19 21  1  0
 21 22  1  0
 22 23  1  0
 23 24  2  0
 24 25  1  0
 25 26  2  0
 26 27  1  0
 27 28  2  0
 28 29  1  0
 29 30  1  0
 18  4  1  0
 29 21  2  0
 16 11  1  0
 28 23  1  0
  5 31  1  0
  6 32  1  0
 12 33  1  0
 12 34  1  0
 13 35  1  0
 13 36  1  0
 14 37  1  0
 14 38  1  0
 15 39  1  0
 15 40  1  0
 16 41  1  0
 16 42  1  0
 17 43  1  0
 18 44  1  0
 24 45  1  0
 25 46  1  0
 26 47  1  0
 27 48  1  0
 30 49  1  0
M  CHG  1   3  -1
M  END
>  <UniqueID>  (26) 
26

>  <SMILES>  (26) 
O=C([N-]c1ccc(S(=O)(=O)N2CCCCC2)cc1)C(=O)c1sc2ccccc2c1O

>  <Energy>  (26) 
96.19025812327594

>  <Genealogy>  (26) 
O=C([N-]c1ccc(S(=O)(=O)N2CCCCC2)cc1)C(=O)c1sc2ccccc2c1O (protonated)
O=C([N-]c1ccc(S(=O)(=O)N2CCCCC2)cc1)C(=O)c1sc2ccccc2c1O (3D coordinates assigned)
O=C([N-]c1ccc(S(=O)(=O)N2CCCCC2)cc1)C(=O)c1sc2ccccc2c1O (nonaromatic ring conformer: 96.19025812327594 kcal/mol)

>  <smiles>  (26) 
O=C(Nc1ccc(S(=O)(=O)N2CCCCC2)cc1)C(=O)c1sc2ccccc2c1O

>  <score_type>  (26) 
oracle

>  <origin>  (26) 
adgpu

>  <m_score__min__energy>  (26) 
-11.859999999999999

>  <m_primary>  (26) 
energy

$$$$
26:0
     RDKit          3D

 57 60  0  0  0  0  0  0  0  0999 V2000
   -6.4780   17.4290  -33.7380 C   0  0  0  0  0  0  0  0  0  0  0  0
   -5.1760   17.7790  -34.1880 O   0  0  0  0  0  0  0  0  0  0  0  0
   -4.3490   18.7250  -33.5630 C   0  0  0  0  0  0  0  0  0  0  0  0
   -3.1030   18.3870  -33.0050 C   0  0  0  0  0  0  0  0  0  0  0  0
   -2.3240   19.3660  -32.3840 C   0  0  0  0  0  0  0  0  0  0  0  0
   -2.7720   20.6880  -32.3230 C   0  0  0  0  0  0  0  0  0  0  0  0
   -4.0030   21.0470  -32.8930 C   0  0  0  0  0  0  0  0  0  0  0  0
   -4.4710   22.4810  -32.8540 C   0  0  0  0  0  0  0  0  0  0  0  0
   -5.4110   22.6910  -31.7460 N   0  0  0  0  0  0  0  0  0  0  0  0
   -5.3600   23.5860  -30.7040 C   0  0  0  0  0  0  0  0  0  0  0  0
   -4.2400   24.4990  -30.3780 C   0  0  0  0  0  0  0  0  0  0  0  0
   -4.2460   25.6700  -30.8440 O   0  0  0  0  0  0  0  0  0  0  0  0
   -3.1750   24.0920  -29.5180 N   0  0  0  0  0  0  0  0  0  0  0  0
   -2.3360   22.9320  -29.7950 C   0  0  0  0  0  0  0  0  0  0  0  0
   -2.2020   22.0470  -28.5510 C   0  0  0  0  0  0  0  0  0  0  0  0
   -1.2850   20.8660  -28.7850 C   0  0  0  0  0  0  0  0  0  0  0  0
   -0.4910   20.8370  -29.9410 C   0  0  0  0  0  0  0  0  0  0  0  0
    0.3820   19.7780  -30.1730 C   0  0  0  0  0  0  0  0  0  0  0  0
    0.4770   18.7370  -29.2550 C   0  0  0  0  0  0  0  0  0  0  0  0
   -0.3110   18.7300  -28.0880 C   0  0  0  0  0  0  0  0  0  0  0  0
   -0.1920   17.6940  -27.1470 O   0  0  0  0  0  0  0  0  0  0  0  0
    0.6730   16.5700  -27.2870 C   0  0  0  0  0  0  0  0  0  0  0  0
   -1.2140   19.8020  -27.8550 C   0  0  0  0  0  0  0  0  0  0  0  0
   -2.0390   19.8730  -26.7170 O   0  0  0  0  0  0  0  0  0  0  0  0
   -3.0380   18.9280  -26.3430 C   0  0  0  0  0  0  0  0  0  0  0  0
   -6.5510   23.5560  -29.9570 C   0  0  0  0  0  0  0  0  0  0  0  0
   -7.3080   22.6090  -30.5920 C   0  0  0  0  0  0  0  0  0  0  0  0
   -8.8200   21.9070  -30.4700 S   0  0  0  0  0  0  0  0  0  0  0  0
   -8.5690   20.9240  -31.8460 C   0  0  0  0  0  0  0  0  0  0  0  0
   -7.2950   21.1610  -32.3880 C   0  0  0  0  0  0  0  0  0  0  0  0
   -6.6280   22.1220  -31.6340 C   0  0  0  0  0  0  0  0  0  0  0  0
   -4.7890   20.0520  -33.4990 C   0  0  0  0  0  0  0  0  0  0  0  0
   -6.4968   17.4240  -32.6382 H   0  0  0  0  0  0  0  0  0  0  0  0
   -7.2056   18.1634  -34.1138 H   0  0  0  0  0  0  0  0  0  0  0  0
   -6.7393   16.4287  -34.1138 H   0  0  0  0  0  0  0  0  0  0  0  0
   -2.7412   17.3495  -33.0578 H   0  0  0  0  0  0  0  0  0  0  0  0
   -1.3541   19.0952  -31.9413 H   0  0  0  0  0  0  0  0  0  0  0  0
   -2.1563   21.4517  -31.8254 H   0  0  0  0  0  0  0  0  0  0  0  0
   -3.6013   23.1410  -32.7195 H   0  0  0  0  0  0  0  0  0  0  0  0
   -4.9828   22.7114  -33.8000 H   0  0  0  0  0  0  0  0  0  0  0  0
   -2.7890   22.3453  -30.6078 H   0  0  0  0  0  0  0  0  0  0  0  0
   -1.3352   23.2827  -30.0873 H   0  0  0  0  0  0  0  0  0  0  0  0
   -1.7961   22.6528  -27.7275 H   0  0  0  0  0  0  0  0  0  0  0  0
   -3.2004   21.6557  -28.3061 H   0  0  0  0  0  0  0  0  0  0  0  0
   -0.5588   21.6578  -30.6701 H   0  0  0  0  0  0  0  0  0  0  0  0
    0.9981   19.7642  -31.0842 H   0  0  0  0  0  0  0  0  0  0  0  0
    1.1764   17.9091  -29.4431 H   0  0  0  0  0  0  0  0  0  0  0  0
    0.9577   16.2001  -26.2909 H   0  0  0  0  0  0  0  0  0  0  0  0
    0.1527   15.7734  -27.8391 H   0  0  0  0  0  0  0  0  0  0  0  0
    1.5763   16.8690  -27.8391 H   0  0  0  0  0  0  0  0  0  0  0  0
   -3.0973   18.8719  -25.2460 H   0  0  0  0  0  0  0  0  0  0  0  0
   -4.0111   19.2438  -26.7471 H   0  0  0  0  0  0  0  0  0  0  0  0
   -2.7767   17.9389  -26.7471 H   0  0  0  0  0  0  0  0  0  0  0  0
   -6.8126   24.1531  -29.0710 H   0  0  0  0  0  0  0  0  0  0  0  0
   -9.3005   20.2083  -32.2492 H   0  0  0  0  0  0  0  0  0  0  0  0
   -6.8848   20.6606  -33.2776 H   0  0  0  0  0  0  0  0  0  0  0  0
   -5.7650   20.3203  -33.9296 H   0  0  0  0  0  0  0  0  0  0  0  0
  1  2  1  0
  2  3  1  0
  3  4  2  0
  4  5  1  0
  5  6  2  0
  6  7  1  0
  7  8  1  0
  8  9  1  0
  9 10  1  0
 10 11  1  0
 11 12  2  0
 11 13  1  0
 13 14  1  0
 14 15  1  0
 15 16  1  0
 16 17  2  0
 17 18  1  0
 18 19  2  0
 19 20  1  0
 20 21  1  0
 21 22  1  0
 20 23  2  0
 23 24  1  0
 24 25  1  0
 10 26  2  0
 26 27  1  0
 27 28  1  0
 28 29  1  0
 29 30  2  0
 30 31  1  0
  7 32  2  0
 32  3  1  0
 31  9  1  0
 23 16  1  0
 31 27  2  0
  1 33  1  0
  1 34  1  0
  1 35  1  0
  4 36  1  0
  5 37  1  0
  6 38  1  0
  8 39  1  0
  8 40  1  0
 14 41  1  0
 14 42  1  0
 15 43  1  0
 15 44  1  0
 17 45  1  0
 18 46  1  0
 19 47  1  0
 22 48  1  0
 22 49  1  0
 22 50  1  0
 25 51  1  0
 25 52  1  0
 25 53  1  0
 26 54  1  0
 29 55  1  0
 30 56  1  0
 32 57  1  0
M  CHG  1  13  -1
M  END
>  <UniqueID>  (27) 
27

>  <SMILES>  (27) 
COc1cccc(Cn2c(C(=O)[N-]CCc3cccc(OC)c3OC)cc3sccc32)c1

>  <Energy>  (27) 
127.07893371967978

>  <Genealogy>  (27) 
COc1cccc(Cn2c(C(=O)[N-]CCc3cccc(OC)c3OC)cc3sccc32)c1 (protonated)
COc1cccc(Cn2c(C(=O)[N-]CCc3cccc(OC)c3OC)cc3sccc32)c1 (3D coordinates assigned)
COc1cccc(Cn2c(C(=O)[N-]CCc3cccc(OC)c3OC)cc3sccc32)c1 (optimized conformer: 127.07893371967978 kcal/mol)

>  <smiles>  (27) 
COc1cccc(Cn2c(C(=O)NCCc3cccc(OC)c3OC)cc3sccc32)c1

>  <score_type>  (27) 
oracle

>  <origin>  (27) 
adgpu

>  <m_score__min__energy>  (27) 
-10.109999999999999

>  <m_primary>  (27) 
energy

$$$$
27:0
     RDKit          3D

 30 32  0  0  0  0  0  0  0  0999 V2000
   -3.8938   24.1737  -27.7708 H   0  0  0  0  0  0  0  0  0  0  0  0
   -3.9290   23.4670  -28.6130 C   0  0  0  0  0  0  0  0  0  0  0  0
   -3.0830   22.4840  -28.6500 N   0  0  0  0  0  0  0  0  0  0  0  0
   -2.1140   22.2610  -27.6540 N   0  0  0  0  0  0  0  0  0  0  0  0
   -1.1570   23.1240  -27.2600 C   0  0  0  0  0  0  0  0  0  0  0  0
   -1.0500   24.5420  -27.6480 C   0  0  0  0  0  0  0  0  0  0  0  0
   -1.3320   24.9870  -28.8890 N   0  0  0  0  0  0  0  0  0  0  0  0
   -1.1300   26.2950  -28.9230 N   0  0  0  0  0  0  0  0  0  0  0  0
   -0.7040   26.6840  -27.7070 C   0  0  0  0  0  0  0  0  0  0  0  0
   -0.4220   28.1020  -27.3350 C   0  0  0  0  0  0  0  0  0  0  0  0
   -0.4031   28.1968  -26.2393 H   0  0  0  0  0  0  0  0  0  0  0  0
    0.5534   28.4018  -27.7458 H   0  0  0  0  0  0  0  0  0  0  0  0
   -1.2084   28.7522  -27.7458 H   0  0  0  0  0  0  0  0  0  0  0  0
   -0.6460   25.6020  -26.8580 C   0  0  0  0  0  0  0  0  0  0  0  0
   -0.3481   25.5849  -25.7993 H   0  0  0  0  0  0  0  0  0  0  0  0
   -0.2700   22.5180  -26.4450 N   0  0  0  0  0  0  0  0  0  0  0  0
   -0.6380   21.2490  -26.3320 N   0  0  0  0  0  0  0  0  0  0  0  0
   -1.7520   21.0970  -27.0730 C   0  0  0  0  0  0  0  0  0  0  0  0
   -2.4350   19.6360  -27.3570 S   0  0  0  0  0  0  0  0  0  0  0  0
   -4.9410   23.6610  -29.6770 C   0  0  0  0  0  0  0  0  0  0  0  0
   -5.9950   22.7370  -29.7710 C   0  0  0  0  0  0  0  0  0  0  0  0
   -6.0472   21.8966  -29.0631 H   0  0  0  0  0  0  0  0  0  0  0  0
   -6.9790   22.8750  -30.7560 C   0  0  0  0  0  0  0  0  0  0  0  0
   -8.4040   21.6090  -30.8670 Br  0  0  0  0  0  0  0  0  0  0  0  0
   -6.9190   23.9400  -31.6580 C   0  0  0  0  0  0  0  0  0  0  0  0
   -7.6939   24.0500  -32.4310 H   0  0  0  0  0  0  0  0  0  0  0  0
   -5.8770   24.8640  -31.5790 C   0  0  0  0  0  0  0  0  0  0  0  0
   -5.8326   25.7001  -32.2925 H   0  0  0  0  0  0  0  0  0  0  0  0
   -4.8880   24.7340  -30.5980 C   0  0  0  0  0  0  0  0  0  0  0  0
   -3.8630   25.6740  -30.5580 O   0  0  0  0  0  0  0  0  0  0  0  0
  1  2  1  0
  2  3  2  0
  3  4  1  0
  4  5  1  0
  5  6  1  0
  6  7  2  0
  7  8  1  0
  8  9  1  0
  9 10  1  0
 10 11  1  0
 10 12  1  0
 10 13  1  0
  9 14  2  0
 14 15  1  0
  5 16  2  0
 16 17  1  0
 17 18  1  0
 18 19  2  0
  2 20  1  0
 20 21  2  0
 21 22  1  0
 21 23  1  0
 23 24  1  0
 23 25  2  0
 25 26  1  0
 25 27  1  0
 27 28  1  0
 27 29  2  0
 29 30  1  0
 18  4  1  0
 29 20  1  0
 14  6  1  0
M  CHG  3   8  -1  17  -1  30  -1
M  END
>  <UniqueID>  (28) 
28

>  <SMILES>  (28) 
Cc1cc(-c2n[n-]c(=S)n2/N=C/c2cc(Br)ccc2[O-])n[n-]1

>  <Energy>  (28) 
104.38939042074847

>  <Genealogy>  (28) 
Cc1cc(-c2n[n-]c(=S)n2N=Cc2cc(Br)ccc2[O-])n[n-]1 (protonated)
Cc1cc(-c2n[n-]c(=S)n2/N=C/c2cc(Br)ccc2[O-])n[n-]1 (cis-trans isomerization)
Cc1cc(-c2n[n-]c(=S)n2/N=C/c2cc(Br)ccc2[O-])n[n-]1 (3D coordinates assigned)
Cc1cc(-c2n[n-]c(=S)n2/N=C/c2cc(Br)ccc2[O-])n[n-]1 (optimized conformer: 104.38939042074847 kcal/mol)

>  <smiles>  (28) 
Cc1cc(-c2n[nH]c(=S)n2N=Cc2cc(Br)ccc2O)n[nH]1

>  <score_type>  (28) 
oracle

>  <origin>  (28) 
adgpu

>  <m_score__min__energy>  (28) 
-12.5

>  <m_primary>  (28) 
energy

$$$$
28:0
     RDKit          3D

 54 57  0  0  0  0  0  0  0  0999 V2000
    0.4150   19.9930  -28.2420 C   0  0  0  0  0  0  0  0  0  0  0  0
   -0.1860   20.5890  -27.0350 N   0  0  0  0  0  0  0  0  0  0  0  0
   -1.6110   20.2400  -26.8720 C   0  0  0  0  0  0  0  0  0  0  0  0
   -2.4830   20.8100  -27.9990 C   0  0  0  0  0  0  0  0  0  0  0  0
   -2.1550   22.2540  -28.2930 C   0  0  0  0  0  0  0  0  0  0  0  0
   -3.0440   23.0080  -29.0760 C   0  0  0  0  0  0  0  0  0  0  0  0
   -2.7470   24.3390  -29.4160 C   0  0  0  0  0  0  0  0  0  0  0  0
   -3.6380   25.1390  -30.2070 N   0  0  0  0  0  0  0  0  0  0  0  0
   -5.3590   24.9490  -30.3290 S   0  0  0  0  0  0  0  0  0  0  0  0
   -5.9950   25.0710  -28.9730 O   0  0  0  0  0  0  0  0  0  0  0  0
   -5.9040   26.0450  -31.2020 O   0  0  0  0  0  0  0  0  0  0  0  0
   -5.7280   23.3990  -31.0730 C   0  0  0  0  0  0  0  0  0  0  0  0
   -7.0470   22.9180  -31.0520 C   0  0  0  0  0  0  0  0  0  0  0  0
   -7.3620   21.7090  -31.6760 C   0  0  0  0  0  0  0  0  0  0  0  0
   -6.3650   20.9770  -32.3430 C   0  0  0  0  0  0  0  0  0  0  0  0
   -6.7650   19.4700  -33.1650 S   0  0  0  0  0  0  0  0  0  0  0  0
   -6.5070   19.6290  -34.6410 O   0  0  0  0  0  0  0  0  0  0  0  0
   -8.2330   19.1900  -32.9720 O   0  0  0  0  0  0  0  0  0  0  0  0
   -5.8200   18.1510  -32.4880 N   0  0  0  0  0  0  0  0  0  0  0  0
   -4.4800   18.0250  -33.1070 C   0  0  0  0  0  0  0  0  0  0  0  0
   -4.5270   17.2720  -34.4460 C   0  0  0  0  0  0  0  0  0  0  0  0
   -5.1470   16.0100  -34.2830 O   0  0  0  0  0  0  0  0  0  0  0  0
   -6.4950   16.1850  -33.8740 C   0  0  0  0  0  0  0  0  0  0  0  0
   -6.5630   16.8750  -32.5030 C   0  0  0  0  0  0  0  0  0  0  0  0
   -5.0490   21.4620  -32.3680 C   0  0  0  0  0  0  0  0  0  0  0  0
   -4.7290   22.6620  -31.7270 C   0  0  0  0  0  0  0  0  0  0  0  0
   -1.5460   24.9060  -28.9670 C   0  0  0  0  0  0  0  0  0  0  0  0
   -1.2330   26.2270  -29.2820 O   0  0  0  0  0  0  0  0  0  0  0  0
   -0.6500   24.1490  -28.2050 C   0  0  0  0  0  0  0  0  0  0  0  0
   -0.9360   22.8220  -27.8730 C   0  0  0  0  0  0  0  0  0  0  0  0
    0.0180   22.0530  -26.9840 C   0  0  0  0  0  0  0  0  0  0  0  0
    1.1674   19.2469  -27.9468 H   0  0  0  0  0  0  0  0  0  0  0  0
   -0.3694   19.5060  -28.8399 H   0  0  0  0  0  0  0  0  0  0  0  0
    0.8954   20.7814  -28.8399 H   0  0  0  0  0  0  0  0  0  0  0  0
   -1.7087   19.1444  -26.8689 H   0  0  0  0  0  0  0  0  0  0  0  0
   -1.9582   20.6771  -25.9241 H   0  0  0  0  0  0  0  0  0  0  0  0
   -2.3187   20.2159  -28.9101 H   0  0  0  0  0  0  0  0  0  0  0  0
   -3.5329   20.7594  -27.6748 H   0  0  0  0  0  0  0  0  0  0  0  0
   -3.9819   22.5525  -29.4266 H   0  0  0  0  0  0  0  0  0  0  0  0
   -7.8336   23.4945  -30.5431 H   0  0  0  0  0  0  0  0  0  0  0  0
   -8.3937   21.3286  -31.6453 H   0  0  0  0  0  0  0  0  0  0  0  0
   -4.0742   19.0325  -33.2813 H   0  0  0  0  0  0  0  0  0  0  0  0
   -3.8430   17.4501  -32.4187 H   0  0  0  0  0  0  0  0  0  0  0  0
   -5.0989   17.8649  -35.1750 H   0  0  0  0  0  0  0  0  0  0  0  0
   -3.4985   17.1196  -34.8050 H   0  0  0  0  0  0  0  0  0  0  0  0
   -7.0197   16.8046  -34.6162 H   0  0  0  0  0  0  0  0  0  0  0  0
   -6.9712   15.1965  -33.7957 H   0  0  0  0  0  0  0  0  0  0  0  0
   -7.6166   17.0747  -32.2579 H   0  0  0  0  0  0  0  0  0  0  0  0
   -6.1021   16.2049  -31.7624 H   0  0  0  0  0  0  0  0  0  0  0  0
   -4.2661   20.8959  -32.8940 H   0  0  0  0  0  0  0  0  0  0  0  0
   -3.6922   23.0294  -31.7352 H   0  0  0  0  0  0  0  0  0  0  0  0
    0.2913   24.6038  -27.8629 H   0  0  0  0  0  0  0  0  0  0  0  0
    1.0473   22.2734  -27.3034 H   0  0  0  0  0  0  0  0  0  0  0  0
   -0.1722   22.3725  -25.9488 H   0  0  0  0  0  0  0  0  0  0  0  0
  1  2  1  0
  2  3  1  0
  3  4  1  0
  4  5  1  0
  5  6  2  0
  6  7  1  0
  7  8  1  0
  8  9  1  0
  9 10  2  0
  9 11  2  0
  9 12  1  0
 12 13  2  0
 13 14  1  0
 14 15  2  0
 15 16  1  0
 16 17  2  0
 16 18  2  0
 16 19  1  0
 19 20  1  0
 20 21  1  0
 21 22  1  0
 22 23  1  0
 23 24  1  0
 15 25  1  0
 25 26  2  0
  7 27  2  0
 27 28  1  0
 27 29  1  0
 29 30  2  0
 30 31  1  0
 31  2  1  0
 30  5  1  0
 26 12  1  0
 24 19  1  0
  1 32  1  0
  1 33  1  0
  1 34  1  0
  3 35  1  0
  3 36  1  0
  4 37  1  0
  4 38  1  0
  6 39  1  0
 13 40  1  0
 14 41  1  0
 20 42  1  0
 20 43  1  0
 21 44  1  0
 21 45  1  0
 23 46  1  0
 23 47  1  0
 24 48  1  0
 24 49  1  0
 25 50  1  0
 26 51  1  0
 29 52  1  0
 31 53  1  0
 31 54  1  0
M  CHG  2   8  -1  28  -1
M  END
>  <UniqueID>  (29) 
29

>  <SMILES>  (29) 
CN1CCc2cc([N-]S(=O)(=O)c3ccc(S(=O)(=O)N4CCOCC4)cc3)c([O-])cc2C1

>  <Energy>  (29) 
70.86498612877234

>  <Genealogy>  (29) 
CN1CCc2cc([N-]S(=O)(=O)c3ccc(S(=O)(=O)N4CCOCC4)cc3)c([O-])cc2C1 (protonated)
CN1CCc2cc([N-]S(=O)(=O)c3ccc(S(=O)(=O)N4CCOCC4)cc3)c([O-])cc2C1 (3D coordinates assigned)
CN1CCc2cc([N-]S(=O)(=O)c3ccc(S(=O)(=O)N4CCOCC4)cc3)c([O-])cc2C1 (nonaromatic ring conformer: 70.86498612877234 kcal/mol)

>  <smiles>  (29) 
CN1CCc2cc(NS(=O)(=O)c3ccc(S(=O)(=O)N4CCOCC4)cc3)c(O)cc2C1

>  <score_type>  (29) 
oracle

>  <origin>  (29) 
adgpu

>  <m_score__min__energy>  (29) 
-15.09

>  <m_primary>  (29) 
energy

$$$$
29:0
     RDKit          3D

 50 52  0  0  0  0  0  0  0  0999 V2000
   -3.0380   16.7300  -33.8960 C   0  0  0  0  0  0  0  0  0  0  0  0
   -4.0350   17.7600  -34.4390 C   0  0  1  0  0  0  0  0  0  0  0  0
   -5.4010   17.1090  -34.7810 C   0  0  0  0  0  0  0  0  0  0  0  0
   -6.4980   17.5230  -33.7920 C   0  0  0  0  0  0  0  0  0  0  0  0
   -6.6870   18.9920  -33.7750 N   0  0  1  0  0  0  0  0  0  0  0  0
   -7.6800   19.4420  -32.4060 S   0  0  0  0  0  0  0  0  0  0  0  0
   -9.1280   19.2080  -32.7360 O   0  0  0  0  0  0  0  0  0  0  0  0
   -7.3270   18.5740  -31.2300 O   0  0  0  0  0  0  0  0  0  0  0  0
   -7.4560   21.1370  -31.9630 C   0  0  0  0  0  0  0  0  0  0  0  0
   -8.5450   22.0190  -31.9730 C   0  0  0  0  0  0  0  0  0  0  0  0
   -8.3690   23.3570  -31.6100 C   0  0  0  0  0  0  0  0  0  0  0  0
   -7.1100   23.8190  -31.2220 C   0  0  0  0  0  0  0  0  0  0  0  0
   -6.0130   22.9460  -31.2060 C   0  0  0  0  0  0  0  0  0  0  0  0
   -4.4270   23.5240  -30.6920 S   0  0  0  0  0  0  0  0  0  0  0  0
   -3.3860   23.0220  -31.6530 O   0  0  0  0  0  0  0  0  0  0  0  0
   -4.4150   25.0260  -30.7480 O   0  0  0  0  0  0  0  0  0  0  0  0
   -4.0090   23.0010  -29.0720 N   0  0  0  0  0  0  0  0  0  0  0  0
   -2.8670   22.0610  -29.0470 C   0  0  0  0  0  0  0  0  0  0  0  0
   -1.5700   22.7140  -28.5520 C   0  0  0  0  0  0  0  0  0  0  0  0
   -1.5320   24.0660  -28.9490 O   0  0  0  0  0  0  0  0  0  0  0  0
   -2.4770   24.8060  -28.2020 C   0  0  0  0  0  0  0  0  0  0  0  0
   -3.8700   24.1340  -28.1360 C   0  0  0  0  0  0  0  0  0  0  0  0
   -6.1910   21.6050  -31.5770 C   0  0  0  0  0  0  0  0  0  0  0  0
   -5.4200   19.7750  -33.8080 C   0  0  0  0  0  0  0  0  0  0  0  0
   -4.1830   18.9390  -33.4550 C   0  0  0  0  0  0  0  0  0  0  0  0
   -3.0550   16.7476  -32.7963 H   0  0  0  0  0  0  0  0  0  0  0  0
   -3.3171   15.7270  -34.2510 H   0  0  0  0  0  0  0  0  0  0  0  0
   -2.0264   16.9763  -34.2510 H   0  0  0  0  0  0  0  0  0  0  0  0
   -3.6362   18.1604  -35.3827 H   0  0  0  0  0  0  0  0  0  0  0  0
   -5.2905   16.0150  -34.7514 H   0  0  0  0  0  0  0  0  0  0  0  0
   -5.6995   17.4515  -35.7828 H   0  0  0  0  0  0  0  0  0  0  0  0
   -6.2152   17.1873  -32.7834 H   0  0  0  0  0  0  0  0  0  0  0  0
   -7.4426   17.0570  -34.1092 H   0  0  0  0  0  0  0  0  0  0  0  0
   -7.2410   19.2450  -34.6270 H   0  0  0  0  0  0  0  0  0  0  0  0
   -9.5412   21.6571  -32.2674 H   0  0  0  0  0  0  0  0  0  0  0  0
   -9.2247   24.0480  -31.6300 H   0  0  0  0  0  0  0  0  0  0  0  0
   -6.9783   24.8708  -30.9280 H   0  0  0  0  0  0  0  0  0  0  0  0
   -3.1159   21.2233  -28.3789 H   0  0  0  0  0  0  0  0  0  0  0  0
   -2.6942   21.7224  -30.0792 H   0  0  0  0  0  0  0  0  0  0  0  0
   -1.5276   22.6548  -27.4544 H   0  0  0  0  0  0  0  0  0  0  0  0
   -0.7092   22.1846  -28.9863 H   0  0  0  0  0  0  0  0  0  0  0  0
   -2.0969   24.9223  -27.1763 H   0  0  0  0  0  0  0  0  0  0  0  0
   -2.6066   25.7734  -28.7093 H   0  0  0  0  0  0  0  0  0  0  0  0
   -4.0331   23.7652  -27.1126 H   0  0  0  0  0  0  0  0  0  0  0  0
   -4.6144   24.8912  -28.4232 H   0  0  0  0  0  0  0  0  0  0  0  0
   -5.3335   20.9161  -31.5652 H   0  0  0  0  0  0  0  0  0  0  0  0
   -5.5009   20.6014  -33.0865 H   0  0  0  0  0  0  0  0  0  0  0  0
   -5.2865   20.1371  -34.8381 H   0  0  0  0  0  0  0  0  0  0  0  0
   -4.2894   18.5472  -32.4327 H   0  0  0  0  0  0  0  0  0  0  0  0
   -3.2890   19.5763  -33.5231 H   0  0  0  0  0  0  0  0  0  0  0  0
  1  2  1  0
  2  3  1  0
  3  4  1  0
  4  5  1  0
  5  6  1  0
  6  7  2  0
  6  8  2  0
  6  9  1  0
  9 10  2  0
 10 11  1  0
 11 12  2  0
 12 13  1  0
 13 14  1  0
 14 15  2  0
 14 16  2  0
 14 17  1  0
 17 18  1  0
 18 19  1  0
 19 20  1  0
 20 21  1  0
 21 22  1  0
 13 23  2  0
  5 24  1  0
 24 25  1  0
 25  2  1  0
 23  9  1  0
 22 17  1  0
  1 26  1  0
  1 27  1  0
  1 28  1  0
  2 29  1  6
  3 30  1  0
  3 31  1  0
  4 32  1  0
  4 33  1  0
  5 34  1  6
 10 35  1  0
 11 36  1  0
 12 37  1  0
 18 38  1  0
 18 39  1  0
 19 40  1  0
 19 41  1  0
 21 42  1  0
 21 43  1  0
 22 44  1  0
 22 45  1  0
 23 46  1  0
 24 47  1  0
 24 48  1  0
 25 49  1  0
 25 50  1  0
M  CHG  1   5   1
M  END
>  <UniqueID>  (30) 
30

>  <SMILES>  (30) 
CC1CC[NH+](S(=O)(=O)c2cccc(S(=O)(=O)N3CCOCC3)c2)CC1

>  <Energy>  (30) 
61.45142373107451

>  <Genealogy>  (30) 
CC1CC[NH+](S(=O)(=O)c2cccc(S(=O)(=O)N3CCOCC3)c2)CC1 (protonated)
CC1CC[NH+](S(=O)(=O)c2cccc(S(=O)(=O)N3CCOCC3)c2)CC1 (3D coordinates assigned)
CC1CC[NH+](S(=O)(=O)c2cccc(S(=O)(=O)N3CCOCC3)c2)CC1 (nonaromatic ring conformer: 61.45142373107451 kcal/mol)

>  <smiles>  (30) 
CC1CCN(S(=O)(=O)c2cccc(S(=O)(=O)N3CCOCC3)c2)CC1

>  <score_type>  (30) 
oracle

>  <origin>  (30) 
adgpu

>  <m_score__min__energy>  (30) 
-9.6400000000000006

>  <m_primary>  (30) 
energy

$$$$
30:0
     RDKit          3D

 58 62  0  0  0  0  0  0  0  0999 V2000
   -3.0850   18.6280  -25.9590 C   0  0  0  0  0  0  0  0  0  0  0  0
   -2.1690   19.5450  -26.6620 N   0  0  0  0  0  0  0  0  0  0  0  0
   -2.9500   20.5420  -27.4250 C   0  0  0  0  0  0  0  0  0  0  0  0
   -2.0140   21.5030  -28.1490 C   0  0  0  0  0  0  0  0  0  0  0  0
   -1.1870   20.7230  -29.1220 C   0  0  0  0  0  0  0  0  0  0  0  0
   -0.7960   21.2850  -30.3450 C   0  0  0  0  0  0  0  0  0  0  0  0
   -0.0440   20.5440  -31.2650 C   0  0  0  0  0  0  0  0  0  0  0  0
    0.3340   21.1570  -32.4990 N   0  0  0  0  0  0  0  0  0  0  0  0
   -0.4710   20.7960  -33.9970 S   0  0  0  0  0  0  0  0  0  0  0  0
    0.1630   19.5830  -34.6250 O   0  0  0  0  0  0  0  0  0  0  0  0
   -0.3400   21.9740  -34.9240 O   0  0  0  0  0  0  0  0  0  0  0  0
   -2.1770   20.4970  -33.6890 C   0  0  0  0  0  0  0  0  0  0  0  0
   -3.0310   21.5540  -33.3120 C   0  0  0  0  0  0  0  0  0  0  0  0
   -4.3980   21.3200  -33.0940 C   0  0  0  0  0  0  0  0  0  0  0  0
   -4.8820   20.0150  -33.2420 C   0  0  0  0  0  0  0  0  0  0  0  0
   -4.0560   18.9890  -33.6090 C   0  0  0  0  0  0  0  0  0  0  0  0
   -2.6960   19.1970  -33.8400 C   0  0  0  0  0  0  0  0  0  0  0  0
   -4.8230   17.7230  -33.7510 C   0  0  0  0  0  0  0  0  0  0  0  0
   -6.2640   18.1340  -33.3640 C   0  0  0  0  0  0  0  0  0  0  0  0
   -6.2230   19.5770  -33.1060 N   0  0  0  0  0  0  0  0  0  0  0  0
   -7.2880   20.3250  -32.5000 C   0  0  0  0  0  0  0  0  0  0  0  0
   -8.3940   20.4360  -33.1060 O   0  0  0  0  0  0  0  0  0  0  0  0
   -7.1120   20.9870  -31.2320 N   0  0  0  0  0  0  0  0  0  0  0  0
   -6.3580   22.1860  -31.0050 C   0  0  0  0  0  0  0  0  0  0  0  0
   -6.8260   23.3850  -31.5540 C   0  0  0  0  0  0  0  0  0  0  0  0
   -6.1120   24.5720  -31.3630 C   0  0  0  0  0  0  0  0  0  0  0  0
   -4.9320   24.5730  -30.6090 C   0  0  0  0  0  0  0  0  0  0  0  0
   -4.2350   25.7250  -30.4430 F   0  0  0  0  0  0  0  0  0  0  0  0
   -4.4780   23.3870  -30.0270 C   0  0  0  0  0  0  0  0  0  0  0  0
   -5.1910   22.1970  -30.2100 C   0  0  0  0  0  0  0  0  0  0  0  0
    0.3050   19.2140  -30.9620 C   0  0  0  0  0  0  0  0  0  0  0  0
    0.9600   18.4000  -31.8850 O   0  0  0  0  0  0  0  0  0  0  0  0
   -0.0390   18.6730  -29.7220 C   0  0  0  0  0  0  0  0  0  0  0  0
   -0.7940   19.4140  -28.7990 C   0  0  0  0  0  0  0  0  0  0  0  0
   -1.1810   18.7780  -27.4770 C   0  0  0  0  0  0  0  0  0  0  0  0
   -2.9633   18.7498  -24.8726 H   0  0  0  0  0  0  0  0  0  0  0  0
   -4.1229   18.8598  -26.2400 H   0  0  0  0  0  0  0  0  0  0  0  0
   -2.8521   17.5903  -26.2400 H   0  0  0  0  0  0  0  0  0  0  0  0
   -3.5794   20.0229  -28.1629 H   0  0  0  0  0  0  0  0  0  0  0  0
   -3.5810   21.1129  -26.7280 H   0  0  0  0  0  0  0  0  0  0  0  0
   -2.6038   22.2596  -28.6872 H   0  0  0  0  0  0  0  0  0  0  0  0
   -1.3612   22.0097  -27.4230 H   0  0  0  0  0  0  0  0  0  0  0  0
   -1.0830   22.3195  -30.5848 H   0  0  0  0  0  0  0  0  0  0  0  0
   -2.6235   22.5682  -33.1880 H   0  0  0  0  0  0  0  0  0  0  0  0
   -5.0725   22.1425  -32.8136 H   0  0  0  0  0  0  0  0  0  0  0  0
   -2.0426   18.3624  -34.1341 H   0  0  0  0  0  0  0  0  0  0  0  0
   -4.7835   17.3524  -34.7859 H   0  0  0  0  0  0  0  0  0  0  0  0
   -4.4263   16.9074  -33.1286 H   0  0  0  0  0  0  0  0  0  0  0  0
   -6.9578   17.9137  -34.1887 H   0  0  0  0  0  0  0  0  0  0  0  0
   -6.6156   17.5791  -32.4817 H   0  0  0  0  0  0  0  0  0  0  0  0
   -7.7584   23.3938  -32.1376 H   0  0  0  0  0  0  0  0  0  0  0  0
   -6.4789   25.5092  -31.8070 H   0  0  0  0  0  0  0  0  0  0  0  0
   -3.5582   23.3886  -29.4237 H   0  0  0  0  0  0  0  0  0  0  0  0
   -4.8420   21.2688  -29.7339 H   0  0  0  0  0  0  0  0  0  0  0  0
    1.0470   18.6430  -32.8630 H   0  0  0  0  0  0  0  0  0  0  0  0
    0.2854   17.6538  -29.4650 H   0  0  0  0  0  0  0  0  0  0  0  0
   -1.6119   17.7885  -27.6898 H   0  0  0  0  0  0  0  0  0  0  0  0
   -0.2592   18.7394  -26.8781 H   0  0  0  0  0  0  0  0  0  0  0  0
  1  2  1  0
  2  3  1  0
  3  4  1  0
  4  5  1  0
  5  6  2  0
  6  7  1  0
  7  8  1  0
  8  9  1  0
  9 10  2  0
  9 11  2  0
  9 12  1  0
 12 13  2  0
 13 14  1  0
 14 15  2  0
 15 16  1  0
 16 17  2  0
 16 18  1  0
 18 19  1  0
 19 20  1  0
 20 21  1  0
 21 22  2  0
 21 23  1  0
 23 24  1  0
 24 25  2  0
 25 26  1  0
 26 27  2  0
 27 28  1  0
 27 29  1  0
 29 30  2  0
  7 31  2  0
 31 32  1  0
 31 33  1  0
 33 34  2  0
 34 35  1  0
 35  2  1  0
 34  5  1  0
 17 12  1  0
 30 24  1  0
 20 15  1  0
  1 36  1  0
  1 37  1  0
  1 38  1  0
  3 39  1  0
  3 40  1  0
  4 41  1  0
  4 42  1  0
  6 43  1  0
 13 44  1  0
 14 45  1  0
 17 46  1  0
 18 47  1  0
 18 48  1  0
 19 49  1  0
 19 50  1  0
 25 51  1  0
 26 52  1  0
 29 53  1  0
 30 54  1  0
 32 55  1  0
 33 56  1  0
 35 57  1  0
 35 58  1  0
M  CHG  2   8  -1  23  -1
M  END
>  <UniqueID>  (31) 
31

>  <SMILES>  (31) 
CN1CCc2cc([N-]S(=O)(=O)c3ccc4c(c3)CCN4C(=O)[N-]c3ccc(F)cc3)c(O)cc2C1

>  <Energy>  (31) 
102.22821741334928

>  <Genealogy>  (31) 
CN1CCc2cc([N-]S(=O)(=O)c3ccc4c(c3)CCN4C(=O)[N-]c3ccc(F)cc3)c(O)cc2C1 (protonated)
CN1CCc2cc([N-]S(=O)(=O)c3ccc4c(c3)CCN4C(=O)[N-]c3ccc(F)cc3)c(O)cc2C1 (3D coordinates assigned)
CN1CCc2cc([N-]S(=O)(=O)c3ccc4c(c3)CCN4C(=O)[N-]c3ccc(F)cc3)c(O)cc2C1 (nonaromatic ring conformer: 102.22821741334928 kcal/mol)

>  <smiles>  (31) 
CN1CCc2cc(NS(=O)(=O)c3ccc4c(c3)CCN4C(=O)Nc3ccc(F)cc3)c(O)cc2C1

>  <score_type>  (31) 
oracle

>  <origin>  (31) 
adgpu

>  <m_score__min__energy>  (31) 
-12.99

>  <m_primary>  (31) 
energy

$$$$
31:0
     RDKit          3D

 52 55  0  0  0  0  0  0  0  0999 V2000
    1.8180   18.1520  -32.0780 O   0  0  0  0  0  0  0  0  0  0  0  0
    0.6160   18.2960  -31.7410 C   0  0  0  0  0  0  0  0  0  0  0  0
    0.2600   18.4730  -30.2860 C   0  0  0  0  0  0  0  0  0  0  0  0
    0.0910   20.2310  -29.7780 S   0  0  0  0  0  0  0  0  0  0  0  0
   -1.2060   19.9460  -28.5620 C   0  0  0  0  0  0  0  0  0  0  0  0
   -1.1440   18.9560  -27.6530 N   0  0  0  0  0  0  0  0  0  0  0  0
   -2.2060   19.1250  -26.8790 N   0  0  0  0  0  0  0  0  0  0  0  0
   -2.8830   20.1920  -27.2720 N   0  0  0  0  0  0  0  0  0  0  0  0
   -2.2860   20.7290  -28.3230 N   0  0  0  0  0  0  0  0  0  0  0  0
   -2.6760   22.0020  -28.8840 C   0  0  0  0  0  0  0  0  0  0  0  0
   -2.6120   23.2000  -28.1460 C   0  0  0  0  0  0  0  0  0  0  0  0
   -2.9950   24.4160  -28.7220 C   0  0  0  0  0  0  0  0  0  0  0  0
   -3.4480   24.4540  -30.0440 C   0  0  0  0  0  0  0  0  0  0  0  0
   -3.8480   25.6610  -30.6080 O   0  0  0  0  0  0  0  0  0  0  0  0
   -3.5010   23.2770  -30.7950 C   0  0  0  0  0  0  0  0  0  0  0  0
   -3.1150   22.0600  -30.2220 C   0  0  0  0  0  0  0  0  0  0  0  0
   -0.3980   18.1150  -32.7380 N   0  0  0  0  0  0  0  0  0  0  0  0
   -1.4840   19.0160  -32.9740 C   0  0  0  0  0  0  0  0  0  0  0  0
   -2.7890   18.5140  -33.0460 C   0  0  0  0  0  0  0  0  0  0  0  0
   -3.8690   19.3770  -33.2860 C   0  0  0  0  0  0  0  0  0  0  0  0
   -5.5190   18.7640  -33.3470 S   0  0  0  0  0  0  0  0  0  0  0  0
   -6.0710   19.0060  -34.7250 O   0  0  0  0  0  0  0  0  0  0  0  0
   -5.5320   17.2840  -33.0760 O   0  0  0  0  0  0  0  0  0  0  0  0
   -6.4990   19.5930  -32.1590 N   0  0  0  0  0  0  0  0  0  0  0  0
   -7.6310   18.7420  -31.7120 C   0  0  0  0  0  0  0  0  0  0  0  0
   -8.9600   19.1090  -32.3890 C   0  0  0  0  0  0  0  0  0  0  0  0
   -9.3390   20.5750  -32.1100 C   0  0  0  0  0  0  0  0  0  0  0  0
   -8.1100   21.4820  -31.9270 C   0  0  0  0  0  0  0  0  0  0  0  0
   -6.8920   20.9240  -32.6740 C   0  0  0  0  0  0  0  0  0  0  0  0
   -3.6330   20.7470  -33.4640 C   0  0  0  0  0  0  0  0  0  0  0  0
   -2.3300   21.2460  -33.4260 C   0  0  0  0  0  0  0  0  0  0  0  0
   -1.2530   20.3840  -33.1960 C   0  0  0  0  0  0  0  0  0  0  0  0
    0.0430   20.8860  -33.2110 O   0  0  0  0  0  0  0  0  0  0  0  0
   -0.6963   17.9632  -30.0975 H   0  0  0  0  0  0  0  0  0  0  0  0
    1.0854   18.0454  -29.6978 H   0  0  0  0  0  0  0  0  0  0  0  0
   -2.2569   23.1792  -27.1051 H   0  0  0  0  0  0  0  0  0  0  0  0
   -2.9396   25.3438  -28.1337 H   0  0  0  0  0  0  0  0  0  0  0  0
   -3.8468   23.3070  -31.8388 H   0  0  0  0  0  0  0  0  0  0  0  0
   -3.1546   21.1390  -30.8222 H   0  0  0  0  0  0  0  0  0  0  0  0
   -2.9686   17.4369  -32.9137 H   0  0  0  0  0  0  0  0  0  0  0  0
   -7.3956   17.6934  -31.9468 H   0  0  0  0  0  0  0  0  0  0  0  0
   -7.7567   18.9019  -30.6310 H   0  0  0  0  0  0  0  0  0  0  0  0
   -8.8619   18.9639  -33.4750 H   0  0  0  0  0  0  0  0  0  0  0  0
   -9.7498   18.4608  -31.9817 H   0  0  0  0  0  0  0  0  0  0  0  0
   -9.9318   20.9523  -32.9563 H   0  0  0  0  0  0  0  0  0  0  0  0
   -9.9108   20.5971  -31.1705 H   0  0  0  0  0  0  0  0  0  0  0  0
   -8.3422   22.4838  -32.3174 H   0  0  0  0  0  0  0  0  0  0  0  0
   -7.8690   21.5295  -30.8548 H   0  0  0  0  0  0  0  0  0  0  0  0
   -7.1386   20.8347  -33.7423 H   0  0  0  0  0  0  0  0  0  0  0  0
   -6.0492   21.6143  -32.5214 H   0  0  0  0  0  0  0  0  0  0  0  0
   -4.4773   21.4312  -33.6342 H   0  0  0  0  0  0  0  0  0  0  0  0
   -2.1497   22.3205  -33.5774 H   0  0  0  0  0  0  0  0  0  0  0  0
  1  2  2  0
  2  3  1  0
  3  4  1  0
  4  5  1  0
  5  6  2  0
  6  7  1  0
  7  8  2  0
  8  9  1  0
  9 10  1  0
 10 11  2  0
 11 12  1  0
 12 13  2  0
 13 14  1  0
 13 15  1  0
 15 16  2  0
  2 17  1  0
 17 18  1  0
 18 19  2  0
 19 20  1  0
 20 21  1  0
 21 22  2  0
 21 23  2  0
 21 24  1  0
 24 25  1  0
 25 26  1  0
 26 27  1  0
 27 28  1  0
 28 29  1  0
 20 30  2  0
 30 31  1  0
 31 32  2  0
 32 33  1  0
  9  5  1  0
 16 10  1  0
 32 18  1  0
 29 24  1  0
  3 34  1  0
  3 35  1  0
 11 36  1  0
 12 37  1  0
 15 38  1  0
 16 39  1  0
 19 40  1  0
 25 41  1  0
 25 42  1  0
 26 43  1  0
 26 44  1  0
 27 45  1  0
 27 46  1  0
 28 47  1  0
 28 48  1  0
 29 49  1  0
 29 50  1  0
 30 51  1  0
 31 52  1  0
M  CHG  3  14  -1  17  -1  33  -1
M  END
>  <UniqueID>  (32) 
32

>  <SMILES>  (32) 
O=C(CSc1nnnn1-c1ccc([O-])cc1)[N-]c1cc(S(=O)(=O)N2CCCCC2)ccc1[O-]

>  <Energy>  (32) 
113.86731458562102

>  <Genealogy>  (32) 
O=C(CSc1nnnn1-c1ccc([O-])cc1)[N-]c1cc(S(=O)(=O)N2CCCCC2)ccc1[O-] (protonated)
O=C(CSc1nnnn1-c1ccc([O-])cc1)[N-]c1cc(S(=O)(=O)N2CCCCC2)ccc1[O-] (3D coordinates assigned)
O=C(CSc1nnnn1-c1ccc([O-])cc1)[N-]c1cc(S(=O)(=O)N2CCCCC2)ccc1[O-] (nonaromatic ring conformer: 113.86731458562102 kcal/mol)

>  <smiles>  (32) 
O=C(CSc1nnnn1-c1ccc(O)cc1)Nc1cc(S(=O)(=O)N2CCCCC2)ccc1O

>  <score_type>  (32) 
oracle

>  <origin>  (32) 
adgpu

>  <m_score__min__energy>  (32) 
-17.109999999999999

>  <m_primary>  (32) 
energy

$$$$
32:0
     RDKit          3D

 44 46  0  0  0  0  0  0  0  0999 V2000
   -0.4400   21.4150  -28.0100 C   0  0  0  0  0  0  0  0  0  0  0  0
   -1.1090   22.6850  -28.3110 N   0  0  0  0  0  0  0  0  0  0  0  0
   -2.4480   22.8700  -28.4550 C   0  0  0  0  0  0  0  0  0  0  0  0
   -2.7110   24.1820  -28.8410 C   0  0  0  0  0  0  0  0  0  0  0  0
   -4.0220   24.7210  -29.2580 C   0  0  0  0  0  0  0  0  0  0  0  0
   -4.9710   24.7980  -28.4290 O   0  0  0  0  0  0  0  0  0  0  0  0
   -4.2320   25.1050  -30.6210 N   0  0  0  0  0  0  0  0  0  0  0  0
   -5.5480   25.0830  -31.2500 C   0  0  0  0  0  0  0  0  0  0  0  0
   -5.8990   23.6580  -31.5900 C   0  0  0  0  0  0  0  0  0  0  0  0
   -4.9070   22.7250  -31.9300 C   0  0  0  0  0  0  0  0  0  0  0  0
   -5.2640   21.4550  -32.3890 C   0  0  0  0  0  0  0  0  0  0  0  0
   -6.6260   21.1160  -32.5070 C   0  0  0  0  0  0  0  0  0  0  0  0
   -7.0440   19.8550  -33.0650 N   0  0  0  0  0  0  0  0  0  0  0  0
   -6.1760   19.1810  -34.0500 C   0  0  0  0  0  0  0  0  0  0  0  0
   -6.4620   17.6700  -34.1040 C   0  0  0  0  0  0  0  0  0  0  0  0
   -6.7780   17.1320  -32.7060 C   0  0  0  0  0  0  0  0  0  0  0  0
   -8.0240   17.8010  -32.1020 C   0  0  0  0  0  0  0  0  0  0  0  0
   -8.3050   19.2030  -32.6800 C   0  0  0  0  0  0  0  0  0  0  0  0
   -7.5660   22.0360  -32.1660 N   0  0  0  0  0  0  0  0  0  0  0  0
   -7.2400   23.2740  -31.7080 C   0  0  0  0  0  0  0  0  0  0  0  0
   -1.4740   24.8040  -28.9400 C   0  0  0  0  0  0  0  0  0  0  0  0
   -1.2360   26.1130  -29.3410 O   0  0  0  0  0  0  0  0  0  0  0  0
   -0.5160   23.8600  -28.6210 C   0  0  0  0  0  0  0  0  0  0  0  0
    0.8630   24.0780  -28.6460 O   0  0  0  0  0  0  0  0  0  0  0  0
   -0.3719   21.2858  -26.9197 H   0  0  0  0  0  0  0  0  0  0  0  0
   -1.0178   20.5847  -28.4423 H   0  0  0  0  0  0  0  0  0  0  0  0
    0.5715   21.4219  -28.4423 H   0  0  0  0  0  0  0  0  0  0  0  0
   -3.2124   22.0962  -28.2906 H   0  0  0  0  0  0  0  0  0  0  0  0
   -6.2966   25.4927  -30.5559 H   0  0  0  0  0  0  0  0  0  0  0  0
   -5.5356   25.6937  -32.1649 H   0  0  0  0  0  0  0  0  0  0  0  0
   -3.8449   22.9949  -31.8347 H   0  0  0  0  0  0  0  0  0  0  0  0
   -4.4865   20.7243  -32.6566 H   0  0  0  0  0  0  0  0  0  0  0  0
   -6.3568   19.6159  -35.0441 H   0  0  0  0  0  0  0  0  0  0  0  0
   -5.1285   19.3260  -33.7471 H   0  0  0  0  0  0  0  0  0  0  0  0
   -7.3226   17.4882  -34.7645 H   0  0  0  0  0  0  0  0  0  0  0  0
   -5.5708   17.1536  -34.4900 H   0  0  0  0  0  0  0  0  0  0  0  0
   -6.9537   16.0482  -32.7734 H   0  0  0  0  0  0  0  0  0  0  0  0
   -5.9212   17.3551  -32.0533 H   0  0  0  0  0  0  0  0  0  0  0  0
   -8.8955   17.1602  -32.3014 H   0  0  0  0  0  0  0  0  0  0  0  0
   -7.8375   17.9243  -31.0249 H   0  0  0  0  0  0  0  0  0  0  0  0
   -8.9505   19.1084  -33.5657 H   0  0  0  0  0  0  0  0  0  0  0  0
   -8.8059   19.8135  -31.9142 H   0  0  0  0  0  0  0  0  0  0  0  0
   -8.0363   23.9794  -31.4280 H   0  0  0  0  0  0  0  0  0  0  0  0
    1.2580   25.0130  -28.6170 H   0  0  0  0  0  0  0  0  0  0  0  0
  1  2  1  0
  2  3  1  0
  3  4  2  0
  4  5  1  0
  5  6  2  0
  5  7  1  0
  7  8  1  0
  8  9  1  0
  9 10  2  0
 10 11  1  0
 11 12  2  0
 12 13  1  0
 13 14  1  0
 14 15  1  0
 15 16  1  0
 16 17  1  0
 17 18  1  0
 12 19  1  0
 19 20  2  0
  4 21  1  0
 21 22  1  0
 21 23  2  0
 23 24  1  0
 23  2  1  0
 20  9  1  0
 18 13  1  0
  1 25  1  0
  1 26  1  0
  1 27  1  0
  3 28  1  0
  8 29  1  0
  8 30  1  0
 10 31  1  0
 11 32  1  0
 14 33  1  0
 14 34  1  0
 15 35  1  0
 15 36  1  0
 16 37  1  0
 16 38  1  0
 17 39  1  0
 17 40  1  0
 18 41  1  0
 18 42  1  0
 20 43  1  0
 24 44  1  0
M  CHG  2   7  -1  22  -1
M  END
>  <UniqueID>  (33) 
33

>  <SMILES>  (33) 
Cn1cc(C(=O)[N-]Cc2ccc(N3CCCCC3)nc2)c([O-])c1O

>  <Energy>  (33) 
78.93013928310434

>  <Genealogy>  (33) 
Cn1cc(C(=O)[N-]Cc2ccc(N3CCCCC3)nc2)c([O-])c1O (protonated)
Cn1cc(C(=O)[N-]Cc2ccc(N3CCCCC3)nc2)c([O-])c1O (3D coordinates assigned)
Cn1cc(C(=O)[N-]Cc2ccc(N3CCCCC3)nc2)c([O-])c1O (nonaromatic ring conformer: 78.93013928310434 kcal/mol)

>  <smiles>  (33) 
Cn1cc(C(=O)NCc2ccc(N3CCCCC3)nc2)c(O)c1O

>  <score_type>  (33) 
oracle

>  <origin>  (33) 
adgpu

>  <m_score__min__energy>  (33) 
-13.16

>  <m_primary>  (33) 
energy

$$$$
33:0
     RDKit          3D

 46 48  0  0  0  0  0  0  0  0999 V2000
   -0.5880   21.5020  -27.3150 C   0  0  0  0  0  0  0  0  0  0  0  0
   -1.4010   22.5090  -28.0870 C   0  0  0  0  0  0  0  0  0  0  0  0
   -2.4790   22.0330  -28.8510 C   0  0  0  0  0  0  0  0  0  0  0  0
   -3.2540   22.9010  -29.6170 C   0  0  0  0  0  0  0  0  0  0  0  0
   -2.9450   24.2640  -29.6660 C   0  0  0  0  0  0  0  0  0  0  0  0
   -3.7390   25.1920  -30.4220 N   0  0  0  0  0  0  0  0  0  0  0  0
   -5.1570   25.1490  -30.6330 C   0  0  0  0  0  0  0  0  0  0  0  0
   -5.7480   26.0980  -31.2110 O   0  0  0  0  0  0  0  0  0  0  0  0
   -5.9300   24.0730  -30.0950 N   0  0  0  0  0  0  0  0  0  0  0  0
   -6.4910   23.0010  -30.8650 C   0  0  0  0  0  0  0  0  0  0  0  0
   -7.7560   22.5110  -30.5130 C   0  0  0  0  0  0  0  0  0  0  0  0
   -8.3360   21.4630  -31.2310 C   0  0  0  0  0  0  0  0  0  0  0  0
   -7.6630   20.9060  -32.3210 C   0  0  0  0  0  0  0  0  0  0  0  0
   -6.4180   21.4090  -32.7060 C   0  0  0  0  0  0  0  0  0  0  0  0
   -5.8310   22.4660  -31.9930 C   0  0  0  0  0  0  0  0  0  0  0  0
   -4.6170   23.0010  -32.4220 O   0  0  0  0  0  0  0  0  0  0  0  0
   -1.8790   24.7590  -28.9050 C   0  0  0  0  0  0  0  0  0  0  0  0
   -1.5980   26.1210  -28.9640 O   0  0  0  0  0  0  0  0  0  0  0  0
   -1.0990   23.9000  -28.0970 C   0  0  0  0  0  0  0  0  0  0  0  0
    0.2080   24.6070  -27.0990 S   0  0  0  0  0  0  0  0  0  0  0  0
    1.4740   24.6560  -27.9100 O   0  0  0  0  0  0  0  0  0  0  0  0
    0.4940   23.7440  -25.9030 O   0  0  0  0  0  0  0  0  0  0  0  0
   -0.1890   26.2200  -26.5370 N   0  0  0  0  0  0  0  0  0  0  0  0
   -1.5730   26.3230  -26.0220 C   0  0  0  0  0  0  0  0  0  0  0  0
   -1.6110   26.4440  -24.4880 C   0  0  0  0  0  0  0  0  0  0  0  0
   -0.8910   27.5660  -23.9970 O   0  0  0  0  0  0  0  0  0  0  0  0
    0.2620   27.8890  -24.7660 C   0  0  0  0  0  0  0  0  0  0  0  0
    0.8200   26.7110  -25.5810 C   0  0  0  0  0  0  0  0  0  0  0  0
   -0.7239   21.6704  -26.2365 H   0  0  0  0  0  0  0  0  0  0  0  0
   -0.9221   20.4861  -27.5725 H   0  0  0  0  0  0  0  0  0  0  0  0
    0.4755   21.6145  -27.5725 H   0  0  0  0  0  0  0  0  0  0  0  0
   -2.7150   20.9586  -28.8445 H   0  0  0  0  0  0  0  0  0  0  0  0
   -4.1121   22.5128  -30.1853 H   0  0  0  0  0  0  0  0  0  0  0  0
   -8.2964   22.9555  -29.6643 H   0  0  0  0  0  0  0  0  0  0  0  0
   -9.3231   21.0760  -30.9381 H   0  0  0  0  0  0  0  0  0  0  0  0
   -8.1138   20.0705  -32.8767 H   0  0  0  0  0  0  0  0  0  0  0  0
   -5.8956   20.9751  -33.5713 H   0  0  0  0  0  0  0  0  0  0  0  0
   -4.2210   23.8310  -31.9970 H   0  0  0  0  0  0  0  0  0  0  0  0
   -2.0495   27.2124  -26.4601 H   0  0  0  0  0  0  0  0  0  0  0  0
   -2.1090   25.4045  -26.3033 H   0  0  0  0  0  0  0  0  0  0  0  0
   -2.6602   26.5356  -24.1704 H   0  0  0  0  0  0  0  0  0  0  0  0
   -1.1321   25.5430  -24.0771 H   0  0  0  0  0  0  0  0  0  0  0  0
   -0.0026   28.6975  -25.4633 H   0  0  0  0  0  0  0  0  0  0  0  0
    1.0471   28.1838  -24.0541 H   0  0  0  0  0  0  0  0  0  0  0  0
    1.7109   27.0433  -26.1340 H   0  0  0  0  0  0  0  0  0  0  0  0
    1.0835   25.8951  -24.8919 H   0  0  0  0  0  0  0  0  0  0  0  0
  1  2  1  0
  2  3  2  0
  3  4  1  0
  4  5  2  0
  5  6  1  0
  6  7  1  0
  7  8  2  0
  7  9  1  0
  9 10  1  0
 10 11  2  0
 11 12  1  0
 12 13  2  0
 13 14  1  0
 14 15  2  0
 15 16  1  0
  5 17  1  0
 17 18  1  0
 17 19  2  0
 19 20  1  0
 20 21  2  0
 20 22  2  0
 20 23  1  0
 23 24  1  0
 24 25  1  0
 25 26  1  0
 26 27  1  0
 27 28  1  0
 19  2  1  0
 28 23  1  0
 15 10  1  0
  1 29  1  0
  1 30  1  0
  1 31  1  0
  3 32  1  0
  4 33  1  0
 11 34  1  0
 12 35  1  0
 13 36  1  0
 14 37  1  0
 16 38  1  0
 24 39  1  0
 24 40  1  0
 25 41  1  0
 25 42  1  0
 27 43  1  0
 27 44  1  0
 28 45  1  0
 28 46  1  0
M  CHG  3   6  -1   9  -1  18  -1
M  END
>  <UniqueID>  (34) 
34

>  <SMILES>  (34) 
Cc1ccc([N-]C(=O)[N-]c2ccccc2O)c([O-])c1S(=O)(=O)N1CCOCC1

>  <Energy>  (34) 
73.19359717044581

>  <Genealogy>  (34) 
Cc1ccc([N-]C(=O)[N-]c2ccccc2O)c([O-])c1S(=O)(=O)N1CCOCC1 (protonated)
Cc1ccc([N-]C(=O)[N-]c2ccccc2O)c([O-])c1S(=O)(=O)N1CCOCC1 (3D coordinates assigned)
Cc1ccc([N-]C(=O)[N-]c2ccccc2O)c([O-])c1S(=O)(=O)N1CCOCC1 (nonaromatic ring conformer: 73.19359717044581 kcal/mol)

>  <smiles>  (34) 
Cc1ccc(NC(=O)Nc2ccccc2O)c(O)c1S(=O)(=O)N1CCOCC1

>  <score_type>  (34) 
oracle

>  <origin>  (34) 
adgpu

>  <m_score__min__energy>  (34) 
-14.32

>  <m_primary>  (34) 
energy

$$$$
34:0
     RDKit          3D

 74 78  0  0  0  0  0  0  0  0999 V2000
   -9.2620   20.3440  -32.7100 C   0  0  0  0  0  0  0  0  0  0  0  0
   -7.8530   20.2540  -32.3330 N   0  0  0  0  0  0  0  0  0  0  0  0
   -7.1440   21.4320  -31.9280 C   0  0  0  0  0  0  0  0  0  0  0  0
   -6.1820   21.3660  -30.9100 C   0  0  0  0  0  0  0  0  0  0  0  0
   -5.4850   22.5130  -30.5230 C   0  0  0  0  0  0  0  0  0  0  0  0
   -5.7660   23.7540  -31.1210 C   0  0  0  0  0  0  0  0  0  0  0  0
   -5.0540   24.9860  -30.7050 C   0  0  0  0  0  0  0  0  0  0  0  0
   -5.7180   26.0370  -30.4950 O   0  0  0  0  0  0  0  0  0  0  0  0
   -3.6240   25.0520  -30.5820 N   0  0  0  0  0  0  0  0  0  0  0  0
   -2.7830   24.3240  -29.6740 C   0  0  0  0  0  0  0  0  0  0  0  0
   -2.3410   24.8750  -28.4570 C   0  0  0  0  0  0  0  0  0  0  0  0
   -1.5240   24.1280  -27.6020 C   0  0  0  0  0  0  0  0  0  0  0  0
   -1.1050   22.8420  -27.9680 C   0  0  0  0  0  0  0  0  0  0  0  0
   -0.0440   21.9100  -26.9060 S   0  0  0  0  0  0  0  0  0  0  0  0
   -0.0020   22.5600  -25.5510 O   0  0  0  0  0  0  0  0  0  0  0  0
    1.3490   21.9310  -27.4740 O   0  0  0  0  0  0  0  0  0  0  0  0
   -0.5740   20.2550  -26.7230 N   0  0  0  0  0  0  0  0  0  0  0  0
   -2.0460   20.1810  -26.6600 C   0  0  0  0  0  0  0  0  0  0  0  0
   -2.5230   18.7190  -26.7810 C   0  0  0  0  0  0  0  0  0  0  0  0
   -1.4560   17.8200  -26.5490 O   0  0  0  0  0  0  0  0  0  0  0  0
   -0.4830   17.9470  -27.5740 C   0  0  0  0  0  0  0  0  0  0  0  0
   -0.0700   19.4150  -27.8180 C   0  0  0  0  0  0  0  0  0  0  0  0
   -1.5050   22.3130  -29.2030 C   0  0  0  0  0  0  0  0  0  0  0  0
   -2.3440   23.0480  -30.0450 C   0  0  0  0  0  0  0  0  0  0  0  0
   -6.7190   23.8100  -32.1540 C   0  0  0  0  0  0  0  0  0  0  0  0
   -7.4000   22.6580  -32.5550 C   0  0  0  0  0  0  0  0  0  0  0  0
   -7.0720   18.7030  -32.2740 S   0  0  0  0  0  0  0  0  0  0  0  0
   -6.7840   18.3540  -30.8400 O   0  0  0  0  0  0  0  0  0  0  0  0
   -7.9610   17.6450  -32.8670 O   0  0  0  0  0  0  0  0  0  0  0  0
   -5.5860   18.7900  -33.2100 C   0  0  0  0  0  0  0  0  0  0  0  0
   -5.3220   17.8720  -34.2340 C   0  0  0  0  0  0  0  0  0  0  0  0
   -4.1050   17.9200  -34.9210 C   0  0  0  0  0  0  0  0  0  0  0  0
   -3.1440   18.8790  -34.5830 C   0  0  0  0  0  0  0  0  0  0  0  0
   -3.4060   19.8080  -33.5670 C   0  0  0  0  0  0  0  0  0  0  0  0
   -2.1830   20.9840  -33.0870 S   0  0  0  0  0  0  0  0  0  0  0  0
   -1.2540   21.2430  -34.2390 O   0  0  0  0  0  0  0  0  0  0  0  0
   -2.8580   22.2760  -32.7140 O   0  0  0  0  0  0  0  0  0  0  0  0
   -1.2690   20.3520  -31.7380 N   0  0  0  0  0  0  0  0  0  0  0  0
    0.1220   20.8000  -31.7880 C   0  0  0  0  0  0  0  0  0  0  0  0
    0.9380   19.7590  -31.0470 C   0  0  0  0  0  0  0  0  0  0  0  0
    0.1050   18.4880  -31.1060 C   0  0  0  0  0  0  0  0  0  0  0  0
   -1.2060   18.8900  -31.7720 C   0  0  0  0  0  0  0  0  0  0  0  0
   -4.6340   19.7660  -32.8920 C   0  0  0  0  0  0  0  0  0  0  0  0
   -9.8825   20.3836  -31.8026 H   0  0  0  0  0  0  0  0  0  0  0  0
   -9.4248   21.2544  -33.3056 H   0  0  0  0  0  0  0  0  0  0  0  0
   -9.5393   19.4617  -33.3056 H   0  0  0  0  0  0  0  0  0  0  0  0
   -5.9752   20.4063  -30.4137 H   0  0  0  0  0  0  0  0  0  0  0  0
   -4.7106   22.4448  -29.7447 H   0  0  0  0  0  0  0  0  0  0  0  0
   -2.6389   25.8963  -28.1772 H   0  0  0  0  0  0  0  0  0  0  0  0
   -1.2088   24.5523  -26.6373 H   0  0  0  0  0  0  0  0  0  0  0  0
   -2.3877   20.5942  -25.6996 H   0  0  0  0  0  0  0  0  0  0  0  0
   -2.4658   20.7607  -27.4953 H   0  0  0  0  0  0  0  0  0  0  0  0
   -3.3157   18.5362  -26.0406 H   0  0  0  0  0  0  0  0  0  0  0  0
   -2.9047   18.5566  -27.7998 H   0  0  0  0  0  0  0  0  0  0  0  0
    0.4098   17.3724  -27.2862 H   0  0  0  0  0  0  0  0  0  0  0  0
   -0.9265   17.5651  -28.5054 H   0  0  0  0  0  0  0  0  0  0  0  0
    1.0270   19.4852  -27.8587 H   0  0  0  0  0  0  0  0  0  0  0  0
   -0.4956   19.7616  -28.7712 H   0  0  0  0  0  0  0  0  0  0  0  0
   -1.1572   21.3157  -29.5105 H   0  0  0  0  0  0  0  0  0  0  0  0
   -2.6619   22.6201  -31.0072 H   0  0  0  0  0  0  0  0  0  0  0  0
   -6.9298   24.7688  -32.6502 H   0  0  0  0  0  0  0  0  0  0  0  0
   -8.1404   22.7140  -33.3666 H   0  0  0  0  0  0  0  0  0  0  0  0
   -6.0726   17.1125  -34.4982 H   0  0  0  0  0  0  0  0  0  0  0  0
   -3.9027   17.2019  -35.7293 H   0  0  0  0  0  0  0  0  0  0  0  0
   -2.1817   18.9038  -35.1153 H   0  0  0  0  0  0  0  0  0  0  0  0
    0.4597   20.8745  -32.8322 H   0  0  0  0  0  0  0  0  0  0  0  0
    0.2359   21.7937  -31.3301 H   0  0  0  0  0  0  0  0  0  0  0  0
    1.9097   19.6073  -31.5398 H   0  0  0  0  0  0  0  0  0  0  0  0
    1.1530   20.0635  -30.0121 H   0  0  0  0  0  0  0  0  0  0  0  0
    0.6187   17.7191  -31.7017 H   0  0  0  0  0  0  0  0  0  0  0  0
   -0.0598   18.0616  -30.1055 H   0  0  0  0  0  0  0  0  0  0  0  0
   -1.2262   18.5346  -32.8128 H   0  0  0  0  0  0  0  0  0  0  0  0
   -2.0659   18.4464  -31.2487 H   0  0  0  0  0  0  0  0  0  0  0  0
   -4.8511   20.5052  -32.1069 H   0  0  0  0  0  0  0  0  0  0  0  0
  1  2  1  0
  2  3  1  0
  3  4  2  0
  4  5  1  0
  5  6  2  0
  6  7  1  0
  7  8  2  0
  7  9  1  0
  9 10  1  0
 10 11  2  0
 11 12  1  0
 12 13  2  0
 13 14  1  0
 14 15  2  0
 14 16  2  0
 14 17  1  0
 17 18  1  0
 18 19  1  0
 19 20  1  0
 20 21  1  0
 21 22  1  0
 13 23  1  0
 23 24  2  0
  6 25  1  0
 25 26  2  0
  2 27  1  0
 27 28  2  0
 27 29  2  0
 27 30  1  0
 30 31  2  0
 31 32  1  0
 32 33  2  0
 33 34  1  0
 34 35  1  0
 35 36  2  0
 35 37  2  0
 35 38  1  0
 38 39  1  0
 39 40  1  0
 40 41  1  0
 41 42  1  0
 34 43  2  0
 26  3  1  0
 43 30  1  0
 24 10  1  0
 42 38  1  0
 22 17  1  0
  1 44  1  0
  1 45  1  0
  1 46  1  0
  4 47  1  0
  5 48  1  0
 11 49  1  0
 12 50  1  0
 18 51  1  0
 18 52  1  0
 19 53  1  0
 19 54  1  0
 21 55  1  0
 21 56  1  0
 22 57  1  0
 22 58  1  0
 23 59  1  0
 24 60  1  0
 25 61  1  0
 26 62  1  0
 31 63  1  0
 32 64  1  0
 33 65  1  0
 39 66  1  0
 39 67  1  0
 40 68  1  0
 40 69  1  0
 41 70  1  0
 41 71  1  0
 42 72  1  0
 42 73  1  0
 43 74  1  0
M  CHG  1   9  -1
M  END
>  <UniqueID>  (35) 
35

>  <SMILES>  (35) 
CN(c1ccc(C(=O)[N-]c2ccc(S(=O)(=O)N3CCOCC3)cc2)cc1)S(=O)(=O)c1cccc(S(=O)(=O)N2CCCC2)c1

>  <Energy>  (35) 
94.69889554774979

>  <Genealogy>  (35) 
CN(c1ccc(C(=O)[N-]c2ccc(S(=O)(=O)N3CCOCC3)cc2)cc1)S(=O)(=O)c1cccc(S(=O)(=O)N2CCCC2)c1 (protonated)
CN(c1ccc(C(=O)[N-]c2ccc(S(=O)(=O)N3CCOCC3)cc2)cc1)S(=O)(=O)c1cccc(S(=O)(=O)N2CCCC2)c1 (3D coordinates assigned)
CN(c1ccc(C(=O)[N-]c2ccc(S(=O)(=O)N3CCOCC3)cc2)cc1)S(=O)(=O)c1cccc(S(=O)(=O)N2CCCC2)c1 (nonaromatic ring conformer: 94.69889554774979 kcal/mol)

>  <smiles>  (35) 
CN(c1ccc(C(=O)Nc2ccc(S(=O)(=O)N3CCOCC3)cc2)cc1)S(=O)(=O)c1cccc(S(=O)(=O)N2CCCC2)c1

>  <score_type>  (35) 
oracle

>  <origin>  (35) 
adgpu

>  <m_score__min__energy>  (35) 
-13.4

>  <m_primary>  (35) 
energy

$$$$
35:0
     RDKit          3D

 70 74  0  0  0  0  0  0  0  0999 V2000
   -4.3830   15.4930  -32.6930 O   0  0  0  0  0  0  0  0  0  0  0  0
   -3.8990   16.4790  -33.3150 C   0  0  0  0  0  0  0  0  0  0  0  0
   -2.4340   16.5650  -33.5000 C   0  0  0  0  0  0  0  0  0  0  0  0
   -1.5750   15.7090  -32.7960 C   0  0  0  0  0  0  0  0  0  0  0  0
   -0.1950   15.7740  -32.9940 C   0  0  0  0  0  0  0  0  0  0  0  0
    0.3490   16.6970  -33.8940 C   0  0  0  0  0  0  0  0  0  0  0  0
    1.7270   16.7030  -34.1030 O   0  0  0  0  0  0  0  0  0  0  0  0
   -0.5030   17.5860  -34.5760 C   0  0  0  0  0  0  0  0  0  0  0  0
    0.0240   18.5670  -35.4690 N   0  0  0  0  0  0  0  0  0  0  0  0
    0.7230   20.0310  -34.8670 S   0  0  0  0  0  0  0  0  0  0  0  0
    0.8540   21.0090  -36.0000 O   0  0  0  0  0  0  0  0  0  0  0  0
    2.0910   19.7600  -34.3120 O   0  0  0  0  0  0  0  0  0  0  0  0
   -0.3050   20.7110  -33.6100 C   0  0  0  0  0  0  0  0  0  0  0  0
   -1.6560   20.9910  -33.8640 C   0  0  0  0  0  0  0  0  0  0  0  0
   -2.4570   21.5540  -32.8650 C   0  0  0  0  0  0  0  0  0  0  0  0
   -1.9180   21.8270  -31.6000 C   0  0  0  0  0  0  0  0  0  0  0  0
   -2.9080   22.6030  -30.3690 S   0  0  0  0  0  0  0  0  0  0  0  0
   -2.0260   23.3190  -29.3830 O   0  0  0  0  0  0  0  0  0  0  0  0
   -3.6980   21.5570  -29.6330 O   0  0  0  0  0  0  0  0  0  0  0  0
   -4.0030   23.7230  -31.1420 N   0  0  0  0  0  0  0  0  0  0  0  0
   -4.7240   24.5240  -30.1550 C   0  0  0  0  0  0  0  0  0  0  0  0
   -6.0240   24.9500  -30.8160 C   0  0  0  0  0  0  0  0  0  0  0  0
   -6.2680   23.9210  -31.9090 C   0  0  0  0  0  0  0  0  0  0  0  0
   -5.0360   23.0220  -31.9070 C   0  0  0  0  0  0  0  0  0  0  0  0
   -0.5720   21.5330  -31.3430 C   0  0  0  0  0  0  0  0  0  0  0  0
    0.2310   20.9780  -32.3430 C   0  0  0  0  0  0  0  0  0  0  0  0
   -1.8870   17.5160  -34.3750 C   0  0  0  0  0  0  0  0  0  0  0  0
   -4.7760   17.5120  -33.8060 N   0  0  0  0  0  0  0  0  0  0  0  0
   -4.3540   18.9210  -33.7830 C   0  0  0  0  0  0  0  0  0  0  0  0
   -5.5360   19.8540  -33.4550 C   0  0  0  0  0  0  0  0  0  0  0  0
   -6.5360   19.1820  -32.4750 C   0  0  0  0  0  0  0  0  0  0  0  0
   -5.7970   18.8210  -31.3290 O   0  0  0  0  0  0  0  0  0  0  0  0
   -7.6840   20.1160  -32.0490 C   0  0  0  0  0  0  0  0  0  0  0  0
   -7.5490   21.0950  -31.0350 C   0  0  0  0  0  0  0  0  0  0  0  0
   -8.6240   21.9170  -30.6850 C   0  0  0  0  0  0  0  0  0  0  0  0
   -9.8510   21.7860  -31.3350 C   0  0  0  0  0  0  0  0  0  0  0  0
  -10.0050   20.8350  -32.3420 C   0  0  0  0  0  0  0  0  0  0  0  0
   -8.9350   20.0090  -32.6980 C   0  0  0  0  0  0  0  0  0  0  0  0
   -7.1330   17.9090  -33.1650 C   0  0  0  0  0  0  0  0  0  0  0  0
   -6.1690   17.2120  -34.1460 C   0  0  0  0  0  0  0  0  0  0  0  0
   -1.9913   14.9818  -32.0833 H   0  0  0  0  0  0  0  0  0  0  0  0
    0.4693   15.0953  -32.4390 H   0  0  0  0  0  0  0  0  0  0  0  0
    2.2310   17.5350  -34.3790 H   0  0  0  0  0  0  0  0  0  0  0  0
   -2.0865   20.7672  -34.8512 H   0  0  0  0  0  0  0  0  0  0  0  0
   -3.5127   21.7831  -33.0725 H   0  0  0  0  0  0  0  0  0  0  0  0
   -4.9325   23.9240  -29.2570 H   0  0  0  0  0  0  0  0  0  0  0  0
   -4.1323   25.3960  -29.8397 H   0  0  0  0  0  0  0  0  0  0  0  0
   -6.8482   24.9426  -30.0876 H   0  0  0  0  0  0  0  0  0  0  0  0
   -5.9666   25.9724  -31.2177 H   0  0  0  0  0  0  0  0  0  0  0  0
   -7.1721   23.3342  -31.6893 H   0  0  0  0  0  0  0  0  0  0  0  0
   -6.4239   24.3964  -32.8887 H   0  0  0  0  0  0  0  0  0  0  0  0
   -5.2710   22.0583  -31.4316 H   0  0  0  0  0  0  0  0  0  0  0  0
   -4.6961   22.8153  -32.9326 H   0  0  0  0  0  0  0  0  0  0  0  0
   -0.1460   21.7399  -30.3502 H   0  0  0  0  0  0  0  0  0  0  0  0
    1.2868   20.7501  -32.1350 H   0  0  0  0  0  0  0  0  0  0  0  0
   -2.5512   18.2125  -34.9076 H   0  0  0  0  0  0  0  0  0  0  0  0
   -3.5736   19.0489  -33.0184 H   0  0  0  0  0  0  0  0  0  0  0  0
   -3.9695   19.1847  -34.7793 H   0  0  0  0  0  0  0  0  0  0  0  0
   -5.1478   20.7744  -32.9944 H   0  0  0  0  0  0  0  0  0  0  0  0
   -6.0682   20.0792  -34.3910 H   0  0  0  0  0  0  0  0  0  0  0  0
   -5.4180   17.9140  -31.4570 H   0  0  0  0  0  0  0  0  0  0  0  0
   -6.5859   21.2101  -30.5161 H   0  0  0  0  0  0  0  0  0  0  0  0
   -8.5017   22.6707  -29.8932 H   0  0  0  0  0  0  0  0  0  0  0  0
  -10.6956   22.4321  -31.0534 H   0  0  0  0  0  0  0  0  0  0  0  0
  -10.9712   20.7341  -32.8581 H   0  0  0  0  0  0  0  0  0  0  0  0
   -9.0687   19.2638  -33.4960 H   0  0  0  0  0  0  0  0  0  0  0  0
   -7.4081   17.1883  -32.3808 H   0  0  0  0  0  0  0  0  0  0  0  0
   -7.9974   18.2455  -33.7562 H   0  0  0  0  0  0  0  0  0  0  0  0
   -6.3266   16.1245  -34.0955 H   0  0  0  0  0  0  0  0  0  0  0  0
   -6.3717   17.5808  -35.1623 H   0  0  0  0  0  0  0  0  0  0  0  0
  1  2  2  0
  2  3  1  0
  3  4  2  0
  4  5  1  0
  5  6  2  0
  6  7  1  0
  6  8  1  0
  8  9  1  0
  9 10  1  0
 10 11  2  0
 10 12  2  0
 10 13  1  0
 13 14  2  0
 14 15  1  0
 15 16  2  0
 16 17  1  0
 17 18  2  0
 17 19  2  0
 17 20  1  0
 20 21  1  0
 21 22  1  0
 22 23  1  0
 23 24  1  0
 16 25  1  0
 25 26  2  0
  8 27  2  0
  2 28  1  0
 28 29  1  0
 29 30  1  0
 30 31  1  0
 31 32  1  0
 31 33  1  0
 33 34  2  0
 34 35  1  0
 35 36  2  0
 36 37  1  0
 37 38  2  0
 31 39  1  0
 39 40  1  0
 27  3  1  0
 40 28  1  0
 26 13  1  0
 38 33  1  0
 24 20  1  0
  4 41  1  0
  5 42  1  0
  7 43  1  0
 14 44  1  0
 15 45  1  0
 21 46  1  0
 21 47  1  0
 22 48  1  0
 22 49  1  0
 23 50  1  0
 23 51  1  0
 24 52  1  0
 24 53  1  0
 25 54  1  0
 26 55  1  0
 27 56  1  0
 29 57  1  0
 29 58  1  0
 30 59  1  0
 30 60  1  0
 32 61  1  0
 34 62  1  0
 35 63  1  0
 36 64  1  0
 37 65  1  0
 38 66  1  0
 39 67  1  0
 39 68  1  0
 40 69  1  0
 40 70  1  0
M  CHG  1   9  -1
M  END
>  <UniqueID>  (36) 
36

>  <SMILES>  (36) 
O=C(c1ccc(O)c([N-]S(=O)(=O)c2ccc(S(=O)(=O)N3CCCC3)cc2)c1)N1CCC(O)(c2ccccc2)CC1

>  <Energy>  (36) 
100.94606692815458

>  <Genealogy>  (36) 
O=C(c1ccc(O)c([N-]S(=O)(=O)c2ccc(S(=O)(=O)N3CCCC3)cc2)c1)N1CCC(O)(c2ccccc2)CC1 (protonated)
O=C(c1ccc(O)c([N-]S(=O)(=O)c2ccc(S(=O)(=O)N3CCCC3)cc2)c1)N1CCC(O)(c2ccccc2)CC1 (3D coordinates assigned)
O=C(c1ccc(O)c([N-]S(=O)(=O)c2ccc(S(=O)(=O)N3CCCC3)cc2)c1)N1CCC(O)(c2ccccc2)CC1 (nonaromatic ring conformer: 100.94606692815458 kcal/mol)

>  <smiles>  (36) 
O=C(c1ccc(O)c(NS(=O)(=O)c2ccc(S(=O)(=O)N3CCCC3)cc2)c1)N1CCC(O)(c2ccccc2)CC1

>  <score_type>  (36) 
oracle

>  <origin>  (36) 
adgpu

>  <m_score__min__energy>  (36) 
-11.94

>  <m_primary>  (36) 
energy

$$$$
36:0
     RDKit          3D

 43 46  0  0  0  0  0  0  0  0999 V2000
   -5.7050   25.9570  -29.9910 O   0  0  0  0  0  0  0  0  0  0  0  0
   -5.0110   25.0200  -30.4660 C   0  0  0  0  0  0  0  0  0  0  0  0
   -3.5830   25.1630  -30.4760 N   0  0  0  0  0  0  0  0  0  0  0  0
   -2.6480   24.3850  -29.7130 C   0  0  0  0  0  0  0  0  0  0  0  0
   -2.6720   22.9780  -29.7350 C   0  0  0  0  0  0  0  0  0  0  0  0
   -1.7560   22.2400  -28.9750 C   0  0  0  0  0  0  0  0  0  0  0  0
   -1.8130   20.4810  -29.0050 S   0  0  0  0  0  0  0  0  0  0  0  0
   -3.1270   20.0230  -28.4340 O   0  0  0  0  0  0  0  0  0  0  0  0
   -0.7020   19.9180  -28.1600 O   0  0  0  0  0  0  0  0  0  0  0  0
   -1.6700   19.9300  -30.6550 N   0  0  0  0  0  0  0  0  0  0  0  0
   -2.8570   20.2750  -31.4340 C   0  0  0  0  0  0  0  0  0  0  0  0
   -2.4050   20.3970  -32.8810 C   0  0  0  0  0  0  0  0  0  0  0  0
   -0.8980   20.5950  -32.8180 C   0  0  0  0  0  0  0  0  0  0  0  0
   -0.5520   20.5790  -31.3370 C   0  0  0  0  0  0  0  0  0  0  0  0
   -0.7820   22.9090  -28.2220 C   0  0  0  0  0  0  0  0  0  0  0  0
   -0.7330   24.3050  -28.2220 C   0  0  0  0  0  0  0  0  0  0  0  0
   -1.6600   25.0420  -28.9660 C   0  0  0  0  0  0  0  0  0  0  0  0
   -1.5990   26.4310  -28.9550 O   0  0  0  0  0  0  0  0  0  0  0  0
   -5.6830   23.7930  -30.9520 C   0  0  0  0  0  0  0  0  0  0  0  0
   -6.9370   23.3920  -30.4170 C   0  0  0  0  0  0  0  0  0  0  0  0
   -7.5670   22.2180  -30.8710 C   0  0  0  0  0  0  0  0  0  0  0  0
   -6.9270   21.4790  -31.8600 C   0  0  0  0  0  0  0  0  0  0  0  0
   -5.7380   21.8630  -32.3870 C   0  0  0  0  0  0  0  0  0  0  0  0
   -5.0810   23.0160  -31.9680 C   0  0  0  0  0  0  0  0  0  0  0  0
   -5.3440   20.9480  -33.3450 O   0  0  0  0  0  0  0  0  0  0  0  0
   -6.3480   19.9270  -33.4230 C   0  0  0  0  0  0  0  0  0  0  0  0
   -7.3400   20.3050  -32.4590 O   0  0  0  0  0  0  0  0  0  0  0  0
   -3.4156   22.4542  -30.3536 H   0  0  0  0  0  0  0  0  0  0  0  0
   -3.6166   19.4851  -31.3387 H   0  0  0  0  0  0  0  0  0  0  0  0
   -3.3070   21.2135  -31.0779 H   0  0  0  0  0  0  0  0  0  0  0  0
   -2.6499   19.4813  -33.4392 H   0  0  0  0  0  0  0  0  0  0  0  0
   -2.9058   21.2293  -33.3973 H   0  0  0  0  0  0  0  0  0  0  0  0
   -0.3800   19.7791  -33.3434 H   0  0  0  0  0  0  0  0  0  0  0  0
   -0.5873   21.5330  -33.3013 H   0  0  0  0  0  0  0  0  0  0  0  0
    0.3756   20.0119  -31.1699 H   0  0  0  0  0  0  0  0  0  0  0  0
   -0.3918   21.5982  -30.9556 H   0  0  0  0  0  0  0  0  0  0  0  0
   -0.0548   22.3340  -27.6299 H   0  0  0  0  0  0  0  0  0  0  0  0
    0.0373   24.8264  -27.6348 H   0  0  0  0  0  0  0  0  0  0  0  0
   -7.4196   24.0045  -29.6412 H   0  0  0  0  0  0  0  0  0  0  0  0
   -8.5338   21.8957  -30.4571 H   0  0  0  0  0  0  0  0  0  0  0  0
   -4.1209   23.3142  -32.4145 H   0  0  0  0  0  0  0  0  0  0  0  0
   -6.7842   19.8905  -34.4322 H   0  0  0  0  0  0  0  0  0  0  0  0
   -5.9361   18.9273  -33.2206 H   0  0  0  0  0  0  0  0  0  0  0  0
  1  2  2  0
  2  3  1  0
  3  4  1  0
  4  5  2  0
  5  6  1  0
  6  7  1  0
  7  8  2  0
  7  9  2  0
  7 10  1  0
 10 11  1  0
 11 12  1  0
 12 13  1  0
 13 14  1  0
  6 15  2  0
 15 16  1  0
 16 17  2  0
 17 18  1  0
  2 19  1  0
 19 20  2  0
 20 21  1  0
 21 22  2  0
 22 23  1  0
 23 24  2  0
 23 25  1  0
 25 26  1  0
 26 27  1  0
 17  4  1  0
 24 19  1  0
 14 10  1  0
 27 22  1  0
  5 28  1  0
 11 29  1  0
 11 30  1  0
 12 31  1  0
 12 32  1  0
 13 33  1  0
 13 34  1  0
 14 35  1  0
 14 36  1  0
 15 37  1  0
 16 38  1  0
 20 39  1  0
 21 40  1  0
 24 41  1  0
 26 42  1  0
 26 43  1  0
M  CHG  2   3  -1  18  -1
M  END
>  <UniqueID>  (37) 
37

>  <SMILES>  (37) 
O=C([N-]c1cc(S(=O)(=O)N2CCCC2)ccc1[O-])c1ccc2c(c1)OCO2

>  <Energy>  (37) 
80.75865653556684

>  <Genealogy>  (37) 
O=C([N-]c1cc(S(=O)(=O)N2CCCC2)ccc1[O-])c1ccc2c(c1)OCO2 (protonated)
O=C([N-]c1cc(S(=O)(=O)N2CCCC2)ccc1[O-])c1ccc2c(c1)OCO2 (3D coordinates assigned)
O=C([N-]c1cc(S(=O)(=O)N2CCCC2)ccc1[O-])c1ccc2c(c1)OCO2 (nonaromatic ring conformer: 80.75865653556684 kcal/mol)

>  <smiles>  (37) 
O=C(Nc1cc(S(=O)(=O)N2CCCC2)ccc1O)c1ccc2c(c1)OCO2

>  <score_type>  (37) 
oracle

>  <origin>  (37) 
adgpu

>  <m_score__min__energy>  (37) 
-12.68

>  <m_primary>  (37) 
energy

$$$$
37:0
     RDKit          3D

 58 62  0  0  0  0  0  0  0  0999 V2000
    0.9530   17.9820  -29.8490 O   0  0  0  0  0  0  0  0  0  0  0  0
    0.0490   18.8010  -30.1700 C   0  0  0  0  0  0  0  0  0  0  0  0
   -0.2740   19.0150  -31.5510 N   0  0  0  0  0  0  0  0  0  0  0  0
    0.4840   18.3940  -32.6440 C   0  0  2  0  0  0  0  0  0  0  0  0
    1.9300   18.9590  -32.7100 C   0  0  0  0  0  0  0  0  0  0  0  0
    2.1180   20.0730  -33.7610 C   0  0  0  0  0  0  0  0  0  0  0  0
    0.8530   20.9220  -33.9260 C   0  0  0  0  0  0  0  0  0  0  0  0
   -0.3590   20.0760  -34.3940 C   0  0  2  0  0  0  0  0  0  0  0  0
   -1.5470   20.6180  -33.8750 O   0  0  0  0  0  0  0  0  0  0  0  0
   -0.2530   18.5880  -33.9820 C   0  0  0  0  0  0  0  0  0  0  0  0
   -0.7120   19.4940  -29.1090 C   0  0  0  0  0  0  0  0  0  0  0  0
   -0.9300   18.8120  -27.9000 C   0  0  0  0  0  0  0  0  0  0  0  0
   -1.7300   19.3680  -26.9020 C   0  0  0  0  0  0  0  0  0  0  0  0
   -2.3290   20.6120  -27.0930 C   0  0  0  0  0  0  0  0  0  0  0  0
   -2.1110   21.3260  -28.2780 C   0  0  0  0  0  0  0  0  0  0  0  0
   -2.7330   22.5690  -28.4720 C   0  0  0  0  0  0  0  0  0  0  0  0
   -2.5190   23.2890  -29.6530 C   0  0  0  0  0  0  0  0  0  0  0  0
   -3.2470   24.4880  -29.9160 N   0  0  0  0  0  0  0  0  0  0  0  0
   -4.8980   24.4370  -30.4400 S   0  0  0  0  0  0  0  0  0  0  0  0
   -5.1960   25.6900  -31.2130 O   0  0  0  0  0  0  0  0  0  0  0  0
   -5.8240   24.3790  -29.2580 O   0  0  0  0  0  0  0  0  0  0  0  0
   -5.1340   23.0190  -31.4740 C   0  0  0  0  0  0  0  0  0  0  0  0
   -4.0810   22.5740  -32.2890 C   0  0  0  0  0  0  0  0  0  0  0  0
   -4.2260   21.4260  -33.0740 C   0  0  0  0  0  0  0  0  0  0  0  0
   -5.4190   20.6990  -33.0470 C   0  0  0  0  0  0  0  0  0  0  0  0
   -6.4800   21.1220  -32.2360 C   0  0  0  0  0  0  0  0  0  0  0  0
   -7.6810   20.4010  -32.1820 C   0  0  0  0  0  0  0  0  0  0  0  0
   -8.7210   20.8440  -31.3630 C   0  0  0  0  0  0  0  0  0  0  0  0
   -8.5540   22.0060  -30.6090 C   0  0  0  0  0  0  0  0  0  0  0  0
   -7.3850   22.6970  -30.6710 N   0  0  0  0  0  0  0  0  0  0  0  0
   -6.3440   22.2920  -31.4510 C   0  0  0  0  0  0  0  0  0  0  0  0
   -1.6300   22.8040  -30.6130 C   0  0  0  0  0  0  0  0  0  0  0  0
   -1.0070   21.5660  -30.4370 C   0  0  0  0  0  0  0  0  0  0  0  0
   -1.2720   20.7860  -29.2910 C   0  0  0  0  0  0  0  0  0  0  0  0
   -1.0910   19.6270  -31.7760 H   0  0  0  0  0  0  0  0  0  0  0  0
    0.5602   17.3145  -32.4467 H   0  0  0  0  0  0  0  0  0  0  0  0
    2.1876   19.3679  -31.7219 H   0  0  0  0  0  0  0  0  0  0  0  0
    2.5852   18.1265  -33.0061 H   0  0  0  0  0  0  0  0  0  0  0  0
    2.9452   20.7251  -33.4440 H   0  0  0  0  0  0  0  0  0  0  0  0
    2.3372   19.5962  -34.7278 H   0  0  0  0  0  0  0  0  0  0  0  0
    0.6091   21.3870  -32.9594 H   0  0  0  0  0  0  0  0  0  0  0  0
    1.0529   21.6826  -34.6951 H   0  0  0  0  0  0  0  0  0  0  0  0
   -0.3646   20.1113  -35.4934 H   0  0  0  0  0  0  0  0  0  0  0  0
   -1.9360   21.1900  -34.5890 H   0  0  0  0  0  0  0  0  0  0  0  0
   -1.2684   18.1756  -33.8877 H   0  0  0  0  0  0  0  0  0  0  0  0
    0.3262   18.0680  -34.7593 H   0  0  0  0  0  0  0  0  0  0  0  0
   -0.4645   17.8285  -27.7388 H   0  0  0  0  0  0  0  0  0  0  0  0
   -1.8889   18.8225  -25.9601 H   0  0  0  0  0  0  0  0  0  0  0  0
   -2.9756   21.0347  -26.3099 H   0  0  0  0  0  0  0  0  0  0  0  0
   -3.3917   22.9793  -27.6924 H   0  0  0  0  0  0  0  0  0  0  0  0
   -3.1339   23.1331  -32.3102 H   0  0  0  0  0  0  0  0  0  0  0  0
   -3.3969   21.0936  -33.7159 H   0  0  0  0  0  0  0  0  0  0  0  0
   -5.5251   19.7939  -33.6630 H   0  0  0  0  0  0  0  0  0  0  0  0
   -7.8036   19.4883  -32.7836 H   0  0  0  0  0  0  0  0  0  0  0  0
   -9.6649   20.2813  -31.3125 H   0  0  0  0  0  0  0  0  0  0  0  0
   -9.3696   22.3636  -29.9633 H   0  0  0  0  0  0  0  0  0  0  0  0
   -1.4186   23.3997  -31.5133 H   0  0  0  0  0  0  0  0  0  0  0  0
   -0.3041   21.1961  -31.1979 H   0  0  0  0  0  0  0  0  0  0  0  0
  1  2  2  0
  2  3  1  0
  3  4  1  0
  4  5  1  0
  5  6  1  0
  6  7  1  0
  7  8  1  0
  8  9  1  0
  8 10  1  0
  2 11  1  0
 11 12  2  0
 12 13  1  0
 13 14  2  0
 14 15  1  0
 15 16  2  0
 16 17  1  0
 17 18  1  0
 18 19  1  0
 19 20  2  0
 19 21  2  0
 19 22  1  0
 22 23  2  0
 23 24  1  0
 24 25  2  0
 25 26  1  0
 26 27  2  0
 27 28  1  0
 28 29  2  0
 29 30  1  0
 30 31  2  0
 17 32  2  0
 32 33  1  0
 33 34  2  0
 10  4  1  0
 34 11  1  0
 34 15  1  0
 31 22  1  0
 31 26  1  0
  3 35  1  0
  4 36  1  1
  5 37  1  0
  5 38  1  0
  6 39  1  0
  6 40  1  0
  7 41  1  0
  7 42  1  0
  8 43  1  6
  9 44  1  0
 10 45  1  0
 10 46  1  0
 12 47  1  0
 13 48  1  0
 14 49  1  0
 16 50  1  0
 23 51  1  0
 24 52  1  0
 25 53  1  0
 27 54  1  0
 28 55  1  0
 29 56  1  0
 32 57  1  0
 33 58  1  0
M  CHG  1  18  -1
M  END
>  <UniqueID>  (38) 
38

>  <SMILES>  (38) 
O=C(N[C@@H]1CCC[C@H](O)C1)c1cccc2cc([N-]S(=O)(=O)c3cccc4cccnc34)ccc12

>  <Energy>  (38) 
84.40045035717358

>  <Genealogy>  (38) 
O=C(NC1CCCC(O)C1)c1cccc2cc([N-]S(=O)(=O)c3cccc4cccnc34)ccc12 (protonated)
O=C(N[C@@H]1CCC[C@H](O)C1)c1cccc2cc([N-]S(=O)(=O)c3cccc4cccnc34)ccc12 (chirality)
O=C(N[C@@H]1CCC[C@H](O)C1)c1cccc2cc([N-]S(=O)(=O)c3cccc4cccnc34)ccc12 (3D coordinates assigned)
O=C(N[C@@H]1CCC[C@H](O)C1)c1cccc2cc([N-]S(=O)(=O)c3cccc4cccnc34)ccc12 (nonaromatic ring conformer: 84.40045035717358 kcal/mol)

>  <smiles>  (38) 
O=C(NC1CCCC(O)C1)c1cccc2cc(NS(=O)(=O)c3cccc4cccnc34)ccc12

>  <score_type>  (38) 
oracle

>  <origin>  (38) 
adgpu

>  <m_score__min__energy>  (38) 
-11.869999999999999

>  <m_primary>  (38) 
energy

$$$$
38:0
     RDKit          3D

 58 61  0  0  0  0  0  0  0  0999 V2000
   -7.5740   18.6100  -32.8630 C   0  0  0  0  0  0  0  0  0  0  0  0
   -6.6000   19.5930  -33.4430 C   0  0  0  0  0  0  0  0  0  0  0  0
   -6.1710   19.3840  -34.6090 O   0  0  0  0  0  0  0  0  0  0  0  0
   -6.1170   20.7740  -32.6660 C   0  0  0  0  0  0  0  0  0  0  0  0
   -4.7400   20.9550  -32.4340 C   0  0  0  0  0  0  0  0  0  0  0  0
   -4.2890   22.0300  -31.7420 N   0  0  0  0  0  0  0  0  0  0  0  0
   -5.1230   22.9800  -31.2440 C   0  0  0  0  0  0  0  0  0  0  0  0
   -4.6050   24.0790  -30.5280 C   0  0  0  0  0  0  0  0  0  0  0  0
   -3.1940   24.2430  -30.3230 N   0  0  0  0  0  0  0  0  0  0  0  0
   -2.3320   23.1680  -29.9030 C   0  0  0  0  0  0  0  0  0  0  0  0
   -2.8100   22.0280  -29.6610 O   0  0  0  0  0  0  0  0  0  0  0  0
   -0.9270   23.3780  -29.7290 N   0  0  0  0  0  0  0  0  0  0  0  0
   -0.3190   24.0180  -28.5990 C   0  0  0  0  0  0  0  0  0  0  0  0
    0.6820   23.3370  -27.9000 C   0  0  0  0  0  0  0  0  0  0  0  0
    1.2920   23.9240  -26.7910 C   0  0  0  0  0  0  0  0  0  0  0  0
    0.9230   25.2070  -26.3860 C   0  0  0  0  0  0  0  0  0  0  0  0
   -0.0410   25.9310  -27.1050 C   0  0  0  0  0  0  0  0  0  0  0  0
   -0.4630   27.5640  -26.5670 S   0  0  0  0  0  0  0  0  0  0  0  0
   -1.8270   27.5280  -25.9350 O   0  0  0  0  0  0  0  0  0  0  0  0
   -0.4910   28.5170  -27.7300 O   0  0  0  0  0  0  0  0  0  0  0  0
    0.7360   28.1690  -25.3750 C   0  0  0  0  0  0  0  0  0  0  0  0
    0.7430   29.7120  -25.3350 C   0  0  0  0  0  0  0  0  0  0  0  0
    1.3500   30.2630  -24.0300 C   0  0  0  0  0  0  0  0  0  0  0  0
    2.2520   29.2690  -23.4170 N   0  0  0  0  0  0  0  0  0  0  0  0
    3.0010   29.8710  -22.3040 C   0  0  0  0  0  0  0  0  0  0  0  0
    1.4920   28.0890  -22.9430 C   0  0  0  0  0  0  0  0  0  0  0  0
    0.4540   27.5970  -23.9790 C   0  0  0  0  0  0  0  0  0  0  0  0
   -0.6630   25.3330  -28.2210 C   0  0  0  0  0  0  0  0  0  0  0  0
   -1.6050   26.0380  -28.9630 O   0  0  0  0  0  0  0  0  0  0  0  0
   -5.4850   25.0030  -29.9520 C   0  0  0  0  0  0  0  0  0  0  0  0
   -6.8640   24.8710  -30.1260 C   0  0  0  0  0  0  0  0  0  0  0  0
   -7.3810   23.8040  -30.8610 C   0  0  0  0  0  0  0  0  0  0  0  0
   -6.5190   22.8430  -31.4220 C   0  0  0  0  0  0  0  0  0  0  0  0
   -7.0120   21.7360  -32.1430 C   0  0  0  0  0  0  0  0  0  0  0  0
   -8.2570   21.6020  -32.3080 O   0  0  0  0  0  0  0  0  0  0  0  0
   -7.5298   18.6546  -31.7648 H   0  0  0  0  0  0  0  0  0  0  0  0
   -8.5911   18.8596  -33.1995 H   0  0  0  0  0  0  0  0  0  0  0  0
   -7.3151   17.5952  -33.1995 H   0  0  0  0  0  0  0  0  0  0  0  0
   -4.0220   20.2157  -32.8186 H   0  0  0  0  0  0  0  0  0  0  0  0
   -2.7680   25.1510  -30.6130 H   0  0  0  0  0  0  0  0  0  0  0  0
    0.9904   22.3328  -28.2262 H   0  0  0  0  0  0  0  0  0  0  0  0
    2.0655   23.3741  -26.2348 H   0  0  0  0  0  0  0  0  0  0  0  0
    1.3909   25.6545  -25.4967 H   0  0  0  0  0  0  0  0  0  0  0  0
    1.7318   27.8280  -25.6944 H   0  0  0  0  0  0  0  0  0  0  0  0
    1.3341   30.0847  -26.1845 H   0  0  0  0  0  0  0  0  0  0  0  0
   -0.3011   30.0537  -25.3897 H   0  0  0  0  0  0  0  0  0  0  0  0
    1.9185   31.1777  -24.2537 H   0  0  0  0  0  0  0  0  0  0  0  0
    0.5349   30.4846  -23.3254 H   0  0  0  0  0  0  0  0  0  0  0  0
    2.5759   29.5293  -21.3487 H   0  0  0  0  0  0  0  0  0  0  0  0
    4.0564   29.5669  -22.3653 H   0  0  0  0  0  0  0  0  0  0  0  0
    2.9310   30.9671  -22.3653 H   0  0  0  0  0  0  0  0  0  0  0  0
    2.2001   27.2725  -22.7381 H   0  0  0  0  0  0  0  0  0  0  0  0
    0.9442   28.3866  -22.0367 H   0  0  0  0  0  0  0  0  0  0  0  0
    0.4918   26.4988  -24.0287 H   0  0  0  0  0  0  0  0  0  0  0  0
   -0.5409   27.9412  -23.6601 H   0  0  0  0  0  0  0  0  0  0  0  0
   -5.0871   25.8390  -29.3581 H   0  0  0  0  0  0  0  0  0  0  0  0
   -7.5455   25.6114  -29.6817 H   0  0  0  0  0  0  0  0  0  0  0  0
   -8.4680   23.7132  -31.0029 H   0  0  0  0  0  0  0  0  0  0  0  0
  1  2  1  0
  2  3  2  0
  2  4  1  0
  4  5  2  0
  5  6  1  0
  6  7  1  0
  7  8  2  0
  8  9  1  0
  9 10  1  0
 10 11  2  0
 10 12  1  0
 12 13  1  0
 13 14  2  0
 14 15  1  0
 15 16  2  0
 16 17  1  0
 17 18  1  0
 18 19  2  0
 18 20  2  0
 18 21  1  0
 21 22  1  0
 22 23  1  0
 23 24  1  0
 24 25  1  0
 24 26  1  0
 26 27  1  0
 17 28  2  0
 28 29  1  0
  8 30  1  0
 30 31  2  0
 31 32  1  0
 32 33  2  0
 33 34  1  0
 34 35  2  0
 34  4  1  0
 33  7  1  0
 28 13  1  0
 27 21  1  0
  1 36  1  0
  1 37  1  0
  1 38  1  0
  5 39  1  0
  9 40  1  0
 14 41  1  0
 15 42  1  0
 16 43  1  0
 21 44  1  0
 22 45  1  0
 22 46  1  0
 23 47  1  0
 23 48  1  0
 25 49  1  0
 25 50  1  0
 25 51  1  0
 26 52  1  0
 26 53  1  0
 27 54  1  0
 27 55  1  0
 30 56  1  0
 31 57  1  0
 32 58  1  0
M  CHG  3   6  -1  12  -1  29  -1
M  END
>  <UniqueID>  (39) 
39

>  <SMILES>  (39) 
CC(=O)c1c[n-]c2c(NC(=O)[N-]c3cccc(S(=O)(=O)C4CCN(C)CC4)c3[O-])cccc2c1=O

>  <Energy>  (39) 
83.52351731579117

>  <Genealogy>  (39) 
CC(=O)c1c[n-]c2c(NC(=O)[N-]c3cccc(S(=O)(=O)C4CCN(C)CC4)c3[O-])cccc2c1=O (protonated)
CC(=O)c1c[n-]c2c(NC(=O)[N-]c3cccc(S(=O)(=O)C4CCN(C)CC4)c3[O-])cccc2c1=O (3D coordinates assigned)
CC(=O)c1c[n-]c2c(NC(=O)[N-]c3cccc(S(=O)(=O)C4CCN(C)CC4)c3[O-])cccc2c1=O (nonaromatic ring conformer: 83.52351731579117 kcal/mol)

>  <smiles>  (39) 
CC(=O)c1c[nH]c2c(NC(=O)Nc3cccc(S(=O)(=O)C4CCN(C)CC4)c3O)cccc2c1=O

>  <score_type>  (39) 
oracle

>  <origin>  (39) 
adgpu

>  <m_score__min__energy>  (39) 
-14.800000000000001

>  <m_primary>  (39) 
energy

$$$$
39:0
     RDKit          3D

 65 69  0  0  0  0  0  0  0  0999 V2000
   -9.2630   18.2530  -31.2320 C   0  0  0  0  0  0  0  0  0  0  0  0
   -7.8560   18.0670  -31.6930 C   0  0  0  0  0  0  0  0  0  0  0  0
   -6.9190   18.1310  -30.8510 O   0  0  0  0  0  0  0  0  0  0  0  0
   -7.5690   17.8960  -33.0890 N   0  0  0  0  0  0  0  0  0  0  0  0
   -6.3090   17.3960  -33.5670 C   0  0  0  0  0  0  0  0  0  0  0  0
   -6.1000   16.0090  -33.6860 C   0  0  0  0  0  0  0  0  0  0  0  0
   -4.8710   15.5090  -34.1220 C   0  0  0  0  0  0  0  0  0  0  0  0
   -3.8330   16.3840  -34.4380 C   0  0  0  0  0  0  0  0  0  0  0  0
   -4.0310   17.7620  -34.3440 C   0  0  0  0  0  0  0  0  0  0  0  0
   -5.2720   18.2790  -33.9410 C   0  0  0  0  0  0  0  0  0  0  0  0
   -5.4580   20.0690  -33.8680 S   0  0  0  0  0  0  0  0  0  0  0  0
   -3.7470   20.3650  -33.3820 C   0  0  0  0  0  0  0  0  0  0  0  0
   -2.7050   20.1200  -34.2170 N   0  0  0  0  0  0  0  0  0  0  0  0
   -1.6360   20.4020  -33.4540 C   0  0  0  0  0  0  0  0  0  0  0  0
   -2.0180   20.7690  -32.2020 C   0  0  0  0  0  0  0  0  0  0  0  0
   -1.0450   21.0230  -31.2320 C   0  0  0  0  0  0  0  0  0  0  0  0
   -1.3390   21.3610  -30.0570 O   0  0  0  0  0  0  0  0  0  0  0  0
    0.2630   20.8960  -31.5950 N   0  0  0  0  0  0  0  0  0  0  0  0
    0.6290   20.5320  -32.8610 C   0  0  0  0  0  0  0  0  0  0  0  0
    1.8550   20.4140  -33.1330 O   0  0  0  0  0  0  0  0  0  0  0  0
   -0.3270   20.2890  -33.8230 N   0  0  0  0  0  0  0  0  0  0  0  0
    0.0450   19.8430  -35.1710 C   0  0  0  0  0  0  0  0  0  0  0  0
   -3.3670   20.7580  -32.1360 N   0  0  0  0  0  0  0  0  0  0  0  0
   -4.2300   20.8560  -30.9510 C   0  0  0  0  0  0  0  0  0  0  0  0
   -5.4630   21.6960  -31.2030 C   0  0  0  0  0  0  0  0  0  0  0  0
   -6.7130   21.0580  -31.2780 C   0  0  0  0  0  0  0  0  0  0  0  0
   -7.8910   21.8040  -31.3390 C   0  0  0  0  0  0  0  0  0  0  0  0
   -7.8380   23.1970  -31.3280 C   0  0  0  0  0  0  0  0  0  0  0  0
   -6.6050   23.8490  -31.2630 C   0  0  0  0  0  0  0  0  0  0  0  0
   -5.4120   23.1100  -31.1830 C   0  0  0  0  0  0  0  0  0  0  0  0
   -4.1460   23.7800  -31.0960 N   0  0  0  0  0  0  0  0  0  0  0  0
   -3.8740   24.9210  -30.2840 C   0  0  0  0  0  0  0  0  0  0  0  0
   -4.5640   25.9640  -30.4370 O   0  0  0  0  0  0  0  0  0  0  0  0
   -2.8060   24.9040  -29.3810 O   0  0  0  0  0  0  0  0  0  0  0  0
   -2.9610   24.5970  -27.9980 C   0  0  0  0  0  0  0  0  0  0  0  0
   -2.5590   23.1680  -27.7370 C   0  0  0  0  0  0  0  0  0  0  0  0
   -3.4750   22.1190  -27.9240 C   0  0  0  0  0  0  0  0  0  0  0  0
   -3.0930   20.7970  -27.6620 C   0  0  0  0  0  0  0  0  0  0  0  0
   -1.7980   20.5170  -27.2160 C   0  0  0  0  0  0  0  0  0  0  0  0
   -0.8790   21.5560  -27.0360 C   0  0  0  0  0  0  0  0  0  0  0  0
   -1.2540   22.8770  -27.3000 C   0  0  0  0  0  0  0  0  0  0  0  0
   -9.2911   18.2567  -30.1324 H   0  0  0  0  0  0  0  0  0  0  0  0
   -9.6498   19.2101  -31.6119 H   0  0  0  0  0  0  0  0  0  0  0  0
   -9.8852   17.4293  -31.6119 H   0  0  0  0  0  0  0  0  0  0  0  0
   -8.3020   18.1710  -33.7810 H   0  0  0  0  0  0  0  0  0  0  0  0
   -6.9127   15.3121  -33.4331 H   0  0  0  0  0  0  0  0  0  0  0  0
   -4.7220   14.4232  -34.2162 H   0  0  0  0  0  0  0  0  0  0  0  0
   -2.8587   15.9886  -34.7612 H   0  0  0  0  0  0  0  0  0  0  0  0
   -3.2073   18.4491  -34.5879 H   0  0  0  0  0  0  0  0  0  0  0  0
    0.7480   19.0002  -35.0974 H   0  0  0  0  0  0  0  0  0  0  0  0
   -0.8568   19.5220  -35.7129 H   0  0  0  0  0  0  0  0  0  0  0  0
    0.5226   20.6726  -35.7129 H   0  0  0  0  0  0  0  0  0  0  0  0
   -4.5459   19.8435  -30.6594 H   0  0  0  0  0  0  0  0  0  0  0  0
   -3.6500   21.3428  -30.1531 H   0  0  0  0  0  0  0  0  0  0  0  0
   -6.7635   19.9592  -31.2887 H   0  0  0  0  0  0  0  0  0  0  0  0
   -8.8629   21.2919  -31.3959 H   0  0  0  0  0  0  0  0  0  0  0  0
   -8.7680   23.7828  -31.3705 H   0  0  0  0  0  0  0  0  0  0  0  0
   -6.5670   24.9483  -31.2745 H   0  0  0  0  0  0  0  0  0  0  0  0
   -2.3249   25.2685  -27.4026 H   0  0  0  0  0  0  0  0  0  0  0  0
   -4.0153   24.7321  -27.7149 H   0  0  0  0  0  0  0  0  0  0  0  0
   -4.4940   22.3363  -28.2768 H   0  0  0  0  0  0  0  0  0  0  0  0
   -3.8129   19.9781  -27.8074 H   0  0  0  0  0  0  0  0  0  0  0  0
   -1.5015   19.4787  -27.0064 H   0  0  0  0  0  0  0  0  0  0  0  0
    0.1400   21.3337  -26.6863 H   0  0  0  0  0  0  0  0  0  0  0  0
   -0.5264   23.6909  -27.1656 H   0  0  0  0  0  0  0  0  0  0  0  0
  1  2  1  0
  2  3  2  0
  2  4  1  0
  4  5  1  0
  5  6  2  0
  6  7  1  0
  7  8  2  0
  8  9  1  0
  9 10  2  0
 10 11  1  0
 11 12  1  0
 12 13  2  0
 13 14  1  0
 14 15  2  0
 15 16  1  0
 16 17  2  0
 16 18  1  0
 18 19  1  0
 19 20  2  0
 19 21  1  0
 21 22  1  0
 15 23  1  0
 23 24  1  0
 24 25  1  0
 25 26  2  0
 26 27  1  0
 27 28  2  0
 28 29  1  0
 29 30  2  0
 30 31  1  0
 31 32  1  0
 32 33  2  0
 32 34  1  0
 34 35  1  0
 35 36  1  0
 36 37  2  0
 37 38  1  0
 38 39  2  0
 39 40  1  0
 40 41  2  0
 10  5  1  0
 23 12  1  0
 30 25  1  0
 41 36  1  0
 21 14  1  0
  1 42  1  0
  1 43  1  0
  1 44  1  0
  4 45  1  0
  6 46  1  0
  7 47  1  0
  8 48  1  0
  9 49  1  0
 22 50  1  0
 22 51  1  0
 22 52  1  0
 24 53  1  0
 24 54  1  0
 26 55  1  0
 27 56  1  0
 28 57  1  0
 29 58  1  0
 35 59  1  0
 35 60  1  0
 37 61  1  0
 38 62  1  0
 39 63  1  0
 40 64  1  0
 41 65  1  0
M  CHG  2  18  -1  31  -1
M  END
>  <UniqueID>  (40) 
40

>  <SMILES>  (40) 
CC(=O)Nc1ccccc1Sc1nc2c(c(=O)[n-]c(=O)n2C)n1Cc1ccccc1[N-]C(=O)OCc1ccccc1

>  <Energy>  (40) 
118.71406685957793

>  <Genealogy>  (40) 
CC(=O)Nc1ccccc1Sc1nc2c(c(=O)[n-]c(=O)n2C)n1Cc1ccccc1[N-]C(=O)OCc1ccccc1 (protonated)
CC(=O)Nc1ccccc1Sc1nc2c(c(=O)[n-]c(=O)n2C)n1Cc1ccccc1[N-]C(=O)OCc1ccccc1 (3D coordinates assigned)
CC(=O)Nc1ccccc1Sc1nc2c(c(=O)[n-]c(=O)n2C)n1Cc1ccccc1[N-]C(=O)OCc1ccccc1 (optimized conformer: 118.71406685957793 kcal/mol)

>  <smiles>  (40) 
CC(=O)Nc1ccccc1Sc1nc2c(c(=O)[nH]c(=O)n2C)n1Cc1ccccc1NC(=O)OCc1ccccc1

>  <score_type>  (40) 
oracle

>  <origin>  (40) 
adgpu

>  <m_score__min__energy>  (40) 
-11.5

>  <m_primary>  (40) 
energy

$$$$
40:0
     RDKit          3D

 61 65  0  0  0  0  0  0  0  0999 V2000
    3.9180   18.6940  -30.9380 C   0  0  0  0  0  0  0  0  0  0  0  0
    2.7800   17.8030  -30.6810 N   0  0  0  0  0  0  0  0  0  0  0  0
    1.5150   18.3900  -31.2070 C   0  0  0  0  0  0  0  0  0  0  0  0
    0.2950   18.0630  -30.3400 C   0  0  0  0  0  0  0  0  0  0  0  0
    0.5580   18.4840  -28.9640 N   0  0  0  0  0  0  0  0  0  0  0  0
   -0.4770   19.0860  -28.1760 C   0  0  0  0  0  0  0  0  0  0  0  0
   -1.2060   18.2920  -27.2860 C   0  0  0  0  0  0  0  0  0  0  0  0
   -2.2130   18.8680  -26.5090 C   0  0  0  0  0  0  0  0  0  0  0  0
   -2.4830   20.1960  -26.6120 N   0  0  0  0  0  0  0  0  0  0  0  0
   -1.8030   20.9990  -27.4700 C   0  0  0  0  0  0  0  0  0  0  0  0
   -2.1410   22.3530  -27.5630 C   0  0  0  0  0  0  0  0  0  0  0  0
   -1.5010   23.1760  -28.4960 C   0  0  0  0  0  0  0  0  0  0  0  0
   -2.0590   24.8320  -28.7220 S   0  0  0  0  0  0  0  0  0  0  0  0
   -0.8830   25.7370  -28.9620 O   0  0  0  0  0  0  0  0  0  0  0  0
   -2.7870   25.2930  -27.4900 O   0  0  0  0  0  0  0  0  0  0  0  0
   -3.1130   24.9040  -30.0940 N   0  0  0  0  0  0  0  0  0  0  0  0
   -4.1220   23.9120  -30.2730 C   0  0  0  0  0  0  0  0  0  0  0  0
   -3.7770   22.6610  -30.7850 C   0  0  0  0  0  0  0  0  0  0  0  0
   -4.7670   21.7170  -31.0900 C   0  0  0  0  0  0  0  0  0  0  0  0
   -6.1250   22.0500  -30.9050 C   0  0  0  0  0  0  0  0  0  0  0  0
   -6.4640   23.2960  -30.3570 C   0  0  0  0  0  0  0  0  0  0  0  0
   -5.4680   24.2300  -30.0530 C   0  0  0  0  0  0  0  0  0  0  0  0
   -5.8110   25.4810  -29.5550 O   0  0  0  0  0  0  0  0  0  0  0  0
   -7.2200   21.0510  -31.1990 C   0  0  0  0  0  0  0  0  0  0  0  0
   -6.7960   19.9880  -32.1360 N   0  0  0  0  0  0  0  0  0  0  0  0
   -6.7880   20.4540  -33.5360 C   0  0  0  0  0  0  0  0  0  0  0  0
   -5.5070   19.3900  -31.7260 C   0  0  0  0  0  0  0  0  0  0  0  0
   -4.3640   20.4130  -31.7260 C   0  0  0  0  0  0  0  0  0  0  0  0
   -0.4900   22.6480  -29.3110 C   0  0  0  0  0  0  0  0  0  0  0  0
   -0.1260   21.3010  -29.2060 C   0  0  0  0  0  0  0  0  0  0  0  0
   -0.7820   20.4600  -28.2880 C   0  0  0  0  0  0  0  0  0  0  0  0
    1.8930   18.3110  -28.3900 C   0  0  0  0  0  0  0  0  0  0  0  0
    2.7330   17.3710  -29.2630 C   0  0  0  0  0  0  0  0  0  0  0  0
    4.3452   19.0285  -29.9811 H   0  0  0  0  0  0  0  0  0  0  0  0
    4.6845   18.1534  -31.5127 H   0  0  0  0  0  0  0  0  0  0  0  0
    3.5771   19.5678  -31.5127 H   0  0  0  0  0  0  0  0  0  0  0  0
    1.6289   19.4831  -31.2532 H   0  0  0  0  0  0  0  0  0  0  0  0
    1.3383   17.9521  -32.2005 H   0  0  0  0  0  0  0  0  0  0  0  0
   -0.5853   18.5973  -30.7266 H   0  0  0  0  0  0  0  0  0  0  0  0
    0.1021   16.9803  -30.3655 H   0  0  0  0  0  0  0  0  0  0  0  0
   -0.9872   17.2176  -27.1981 H   0  0  0  0  0  0  0  0  0  0  0  0
   -2.7902   18.2443  -25.8106 H   0  0  0  0  0  0  0  0  0  0  0  0
   -2.9125   22.7722  -26.9004 H   0  0  0  0  0  0  0  0  0  0  0  0
   -2.7182   22.4132  -30.9509 H   0  0  0  0  0  0  0  0  0  0  0  0
   -7.5193   23.5401  -30.1652 H   0  0  0  0  0  0  0  0  0  0  0  0
   -5.1440   26.0470  -29.0360 H   0  0  0  0  0  0  0  0  0  0  0  0
   -7.5296   20.5818  -30.2535 H   0  0  0  0  0  0  0  0  0  0  0  0
   -8.0463   21.5991  -31.6752 H   0  0  0  0  0  0  0  0  0  0  0  0
   -6.7691   21.5537  -33.5563 H   0  0  0  0  0  0  0  0  0  0  0  0
   -5.8964   20.0625  -34.0477 H   0  0  0  0  0  0  0  0  0  0  0  0
   -7.6925   20.0933  -34.0477 H   0  0  0  0  0  0  0  0  0  0  0  0
   -5.6144   18.9797  -30.7111 H   0  0  0  0  0  0  0  0  0  0  0  0
   -5.2547   18.6038  -32.4528 H   0  0  0  0  0  0  0  0  0  0  0  0
   -3.5140   19.9943  -31.1673 H   0  0  0  0  0  0  0  0  0  0  0  0
   -4.0940   20.6173  -32.7726 H   0  0  0  0  0  0  0  0  0  0  0  0
    0.0205   23.2969  -30.0379 H   0  0  0  0  0  0  0  0  0  0  0  0
    0.6753   20.8983  -29.8429 H   0  0  0  0  0  0  0  0  0  0  0  0
    2.3908   19.2900  -28.3287 H   0  0  0  0  0  0  0  0  0  0  0  0
    1.7954   17.8729  -27.3858 H   0  0  0  0  0  0  0  0  0  0  0  0
    3.7592   17.3457  -28.8678 H   0  0  0  0  0  0  0  0  0  0  0  0
    2.2629   16.3770  -29.2320 H   0  0  0  0  0  0  0  0  0  0  0  0
  1  2  1  0
  2  3  1  0
  3  4  1  0
  4  5  1  0
  5  6  1  0
  6  7  2  0
  7  8  1  0
  8  9  2  0
  9 10  1  0
 10 11  2  0
 11 12  1  0
 12 13  1  0
 13 14  2  0
 13 15  2  0
 13 16  1  0
 16 17  1  0
 17 18  2  0
 18 19  1  0
 19 20  2  0
 20 21  1  0
 21 22  2  0
 22 23  1  0
 20 24  1  0
 24 25  1  0
 25 26  1  0
 25 27  1  0
 27 28  1  0
 12 29  2  0
 29 30  1  0
 30 31  2  0
  5 32  1  0
 32 33  1  0
 33  2  1  0
 31  6  1  0
 31 10  1  0
 22 17  1  0
 28 19  1  0
  1 34  1  0
  1 35  1  0
  1 36  1  0
  3 37  1  0
  3 38  1  0
  4 39  1  0
  4 40  1  0
  7 41  1  0
  8 42  1  0
 11 43  1  0
 18 44  1  0
 21 45  1  0
 23 46  1  0
 24 47  1  0
 24 48  1  0
 26 49  1  0
 26 50  1  0
 26 51  1  0
 27 52  1  0
 27 53  1  0
 28 54  1  0
 28 55  1  0
 29 56  1  0
 30 57  1  0
 32 58  1  0
 32 59  1  0
 33 60  1  0
 33 61  1  0
M  CHG  1  16  -1
M  END
>  <UniqueID>  (41) 
41

>  <SMILES>  (41) 
CN1CCN(c2ccnc3cc(S(=O)(=O)[N-]c4cc5c(cc4O)CN(C)CC5)ccc23)CC1

>  <Energy>  (41) 
94.14300014680846

>  <Genealogy>  (41) 
CN1CCN(c2ccnc3cc(S(=O)(=O)[N-]c4cc5c(cc4O)CN(C)CC5)ccc23)CC1 (protonated)
CN1CCN(c2ccnc3cc(S(=O)(=O)[N-]c4cc5c(cc4O)CN(C)CC5)ccc23)CC1 (3D coordinates assigned)
CN1CCN(c2ccnc3cc(S(=O)(=O)[N-]c4cc5c(cc4O)CN(C)CC5)ccc23)CC1 (nonaromatic ring conformer: 94.14300014680846 kcal/mol)

>  <smiles>  (41) 
CN1CCN(c2ccnc3cc(S(=O)(=O)Nc4cc5c(cc4O)CN(C)CC5)ccc23)CC1

>  <score_type>  (41) 
oracle

>  <origin>  (41) 
adgpu

>  <m_score__min__energy>  (41) 
-14.17

>  <m_primary>  (41) 
energy

$$$$
41:0
     RDKit          3D

 73 77  0  0  0  0  0  0  0  0999 V2000
   -0.8890   28.3350  -24.8270 C   0  0  0  0  0  0  0  0  0  0  0  0
   -1.3200   26.9320  -24.9280 N   0  0  0  0  0  0  0  0  0  0  0  0
   -1.4100   26.4940  -26.3470 C   0  0  0  0  0  0  0  0  0  0  0  0
   -0.1990   25.6610  -26.7990 C   0  0  0  0  0  0  0  0  0  0  0  0
    0.0270   24.4180  -25.9000 C   0  0  0  0  0  0  0  0  0  0  0  0
   -0.3900   23.1510  -26.5670 N   0  0  0  0  0  0  0  0  0  0  0  0
   -1.4850   23.3490  -27.5490 C   0  0  0  0  0  0  0  0  0  0  0  0
   -1.0270   23.1300  -28.9910 C   0  0  0  0  0  0  0  0  0  0  0  0
   -0.4830   21.7740  -29.1310 N   0  0  0  0  0  0  0  0  0  0  0  0
   -0.6800   21.0430  -30.3610 C   0  0  0  0  0  0  0  0  0  0  0  0
   -0.2450   19.7190  -30.5020 C   0  0  0  0  0  0  0  0  0  0  0  0
   -0.5090   19.0500  -31.6950 C   0  0  0  0  0  0  0  0  0  0  0  0
   -1.1750   19.6740  -32.7130 N   0  0  0  0  0  0  0  0  0  0  0  0
   -1.5020   18.9050  -33.9260 C   0  0  0  0  0  0  0  0  0  0  0  0
   -2.9330   18.4600  -33.8970 C   0  0  0  0  0  0  0  0  0  0  0  0
   -3.5470   17.5960  -34.8010 C   0  0  0  0  0  0  0  0  0  0  0  0
   -4.8870   17.3390  -34.4960 C   0  0  0  0  0  0  0  0  0  0  0  0
   -5.3080   17.9600  -33.3270 C   0  0  0  0  0  0  0  0  0  0  0  0
   -6.9230   17.8770  -32.6390 S   0  0  0  0  0  0  0  0  0  0  0  0
   -7.5650   16.6030  -33.1060 O   0  0  0  0  0  0  0  0  0  0  0  0
   -6.7980   17.8050  -31.1430 O   0  0  0  0  0  0  0  0  0  0  0  0
   -7.9570   19.2160  -33.1030 N   0  0  0  0  0  0  0  0  0  0  0  0
   -7.2140   20.4190  -33.5280 C   0  0  0  0  0  0  0  0  0  0  0  0
   -6.8500   21.3550  -32.3590 C   0  0  0  0  0  0  0  0  0  0  0  0
   -8.0360   21.6500  -31.5370 N   0  0  0  0  0  0  0  0  0  0  0  0
   -7.6730   22.5560  -30.4360 C   0  0  0  0  0  0  0  0  0  0  0  0
   -8.5880   20.3960  -30.9970 C   0  0  0  0  0  0  0  0  0  0  0  0
   -9.0430   19.4950  -32.1460 C   0  0  0  0  0  0  0  0  0  0  0  0
   -4.0390   18.8670  -32.6960 S   0  0  0  0  0  0  0  0  0  0  0  0
   -1.5860   20.9720  -32.5580 C   0  0  0  0  0  0  0  0  0  0  0  0
   -2.2120   21.5680  -33.4750 O   0  0  0  0  0  0  0  0  0  0  0  0
   -1.3350   21.6310  -31.3970 N   0  0  0  0  0  0  0  0  0  0  0  0
    0.2620   21.1940  -28.0050 C   0  0  0  0  0  0  0  0  0  0  0  0
    0.7260   22.2830  -27.0290 C   0  0  0  0  0  0  0  0  0  0  0  0
   -0.5680   24.6010  -24.4780 C   0  0  0  0  0  0  0  0  0  0  0  0
   -0.4800   26.0720  -24.0630 C   0  0  0  0  0  0  0  0  0  0  0  0
   -0.8025   28.6166  -23.7672 H   0  0  0  0  0  0  0  0  0  0  0  0
    0.0874   28.4550  -25.3191 H   0  0  0  0  0  0  0  0  0  0  0  0
   -1.6297   28.9824  -25.3191 H   0  0  0  0  0  0  0  0  0  0  0  0
   -2.3184   25.8857  -26.4687 H   0  0  0  0  0  0  0  0  0  0  0  0
   -1.4351   27.4007  -26.9693 H   0  0  0  0  0  0  0  0  0  0  0  0
   -0.3668   25.3244  -27.8327 H   0  0  0  0  0  0  0  0  0  0  0  0
    0.6948   26.2978  -26.7247 H   0  0  0  0  0  0  0  0  0  0  0  0
    1.1128   24.3241  -25.7510 H   0  0  0  0  0  0  0  0  0  0  0  0
   -2.2932   22.6375  -27.3240 H   0  0  0  0  0  0  0  0  0  0  0  0
   -1.8266   24.3910  -27.4621 H   0  0  0  0  0  0  0  0  0  0  0  0
   -1.8832   23.2535  -29.6704 H   0  0  0  0  0  0  0  0  0  0  0  0
   -0.2489   23.8652  -29.2442 H   0  0  0  0  0  0  0  0  0  0  0  0
    0.2951   19.2169  -29.6858 H   0  0  0  0  0  0  0  0  0  0  0  0
   -0.1780   18.0084  -31.8194 H   0  0  0  0  0  0  0  0  0  0  0  0
   -1.3378   19.5377  -34.8107 H   0  0  0  0  0  0  0  0  0  0  0  0
   -0.8546   18.0168  -33.9688 H   0  0  0  0  0  0  0  0  0  0  0  0
   -3.0294   17.1597  -35.6680 H   0  0  0  0  0  0  0  0  0  0  0  0
   -5.5407   16.7097  -35.1178 H   0  0  0  0  0  0  0  0  0  0  0  0
   -6.2845   20.0991  -34.0216 H   0  0  0  0  0  0  0  0  0  0  0  0
   -7.8699   20.9845  -34.2062 H   0  0  0  0  0  0  0  0  0  0  0  0
   -6.0881   20.8692  -31.7317 H   0  0  0  0  0  0  0  0  0  0  0  0
   -6.4622   22.2987  -32.7702 H   0  0  0  0  0  0  0  0  0  0  0  0
   -7.8712   22.0614  -29.4737 H   0  0  0  0  0  0  0  0  0  0  0  0
   -6.6045   22.8079  -30.5056 H   0  0  0  0  0  0  0  0  0  0  0  0
   -8.2719   23.4760  -30.5056 H   0  0  0  0  0  0  0  0  0  0  0  0
   -7.8141   19.8784  -30.4111 H   0  0  0  0  0  0  0  0  0  0  0  0
   -9.4488   20.6255  -30.3517 H   0  0  0  0  0  0  0  0  0  0  0  0
   -9.3996   18.5420  -31.7281 H   0  0  0  0  0  0  0  0  0  0  0  0
   -9.8426   20.0204  -32.6888 H   0  0  0  0  0  0  0  0  0  0  0  0
   -0.3887   20.4863  -27.4704 H   0  0  0  0  0  0  0  0  0  0  0  0
    1.1497   20.6798  -28.4018 H   0  0  0  0  0  0  0  0  0  0  0  0
    1.1821   21.7994  -26.1526 H   0  0  0  0  0  0  0  0  0  0  0  0
    1.4464   22.9218  -27.5609 H   0  0  0  0  0  0  0  0  0  0  0  0
   -1.6215   24.2847  -24.4797 H   0  0  0  0  0  0  0  0  0  0  0  0
    0.0025   23.9882  -23.7646 H   0  0  0  0  0  0  0  0  0  0  0  0
   -0.8212   26.1705  -23.0219 H   0  0  0  0  0  0  0  0  0  0  0  0
    0.5659   26.3971  -24.1651 H   0  0  0  0  0  0  0  0  0  0  0  0
  1  2  1  0
  2  3  1  0
  3  4  1  0
  4  5  1  0
  5  6  1  0
  6  7  1  0
  7  8  1  0
  8  9  1  0
  9 10  1  0
 10 11  1  0
 11 12  2  0
 12 13  1  0
 13 14  1  0
 14 15  1  0
 15 16  2  0
 16 17  1  0
 17 18  2  0
 18 19  1  0
 19 20  2  0
 19 21  2  0
 19 22  1  0
 22 23  1  0
 23 24  1  0
 24 25  1  0
 25 26  1  0
 25 27  1  0
 27 28  1  0
 18 29  1  0
 13 30  1  0
 30 31  2  0
 30 32  1  0
  9 33  1  0
 33 34  1  0
  5 35  1  0
 35 36  1  0
 36  2  1  0
 34  6  1  0
 32 10  2  0
 29 15  1  0
 28 22  1  0
  1 37  1  0
  1 38  1  0
  1 39  1  0
  3 40  1  0
  3 41  1  0
  4 42  1  0
  4 43  1  0
  5 44  1  0
  7 45  1  0
  7 46  1  0
  8 47  1  0
  8 48  1  0
 11 49  1  0
 12 50  1  0
 14 51  1  0
 14 52  1  0
 16 53  1  0
 17 54  1  0
 23 55  1  0
 23 56  1  0
 24 57  1  0
 24 58  1  0
 26 59  1  0
 26 60  1  0
 26 61  1  0
 27 62  1  0
 27 63  1  0
 28 64  1  0
 28 65  1  0
 33 66  1  0
 33 67  1  0
 34 68  1  0
 34 69  1  0
 35 70  1  0
 35 71  1  0
 36 72  1  0
 36 73  1  0
M  END
>  <UniqueID>  (42) 
42

>  <SMILES>  (42) 
CN1CCC(N2CCN(c3ccn(Cc4ccc(S(=O)(=O)N5CCN(C)CC5)s4)c(=O)n3)CC2)CC1

>  <Energy>  (42) 
129.44361042385637

>  <Genealogy>  (42) 
CN1CCC(N2CCN(c3ccn(Cc4ccc(S(=O)(=O)N5CCN(C)CC5)s4)c(=O)n3)CC2)CC1 (3D coordinates assigned)
CN1CCC(N2CCN(c3ccn(Cc4ccc(S(=O)(=O)N5CCN(C)CC5)s4)c(=O)n3)CC2)CC1 (nonaromatic ring conformer: 129.44361042385637 kcal/mol)

>  <smiles>  (42) 
CN1CCC(N2CCN(c3ccn(Cc4ccc(S(=O)(=O)N5CCN(C)CC5)s4)c(=O)n3)CC2)CC1

>  <score_type>  (42) 
oracle

>  <origin>  (42) 
adgpu

>  <m_score__min__energy>  (42) 
-9.7699999999999996

>  <m_primary>  (42) 
energy

$$$$
42:0
     RDKit          3D

 55 58  0  0  0  0  0  0  0  0999 V2000
   -1.7940   25.6810  -28.9280 O   0  0  0  0  0  0  0  0  0  0  0  0
   -2.2990   24.6060  -29.3480 C   0  0  0  0  0  0  0  0  0  0  0  0
   -3.4910   24.6740  -30.1410 N   0  0  0  0  0  0  0  0  0  0  0  0
   -4.1870   23.5560  -30.7110 C   0  0  0  0  0  0  0  0  0  0  0  0
   -5.5810   23.4410  -30.6300 C   0  0  0  0  0  0  0  0  0  0  0  0
   -6.2250   22.3340  -31.1780 C   0  0  0  0  0  0  0  0  0  0  0  0
   -5.4920   21.3140  -31.8050 C   0  0  0  0  0  0  0  0  0  0  0  0
   -6.2040   20.1900  -32.3500 N   0  0  0  0  0  0  0  0  0  0  0  0
   -6.2400   18.9340  -31.5800 C   0  0  0  0  0  0  0  0  0  0  0  0
   -7.3160   17.9780  -32.1180 C   0  0  0  0  0  0  0  0  0  0  0  0
   -8.6720   18.6950  -32.2400 C   0  0  0  0  0  0  0  0  0  0  0  0
   -8.5850   20.0710  -32.9450 C   0  0  0  0  0  0  0  0  0  0  0  0
   -7.1710   20.4110  -33.4310 C   0  0  0  0  0  0  0  0  0  0  0  0
   -4.0830   21.4220  -31.8920 C   0  0  0  0  0  0  0  0  0  0  0  0
   -3.0820   20.1840  -32.6760 S   0  0  0  0  0  0  0  0  0  0  0  0
   -3.6550   18.8250  -32.3930 O   0  0  0  0  0  0  0  0  0  0  0  0
   -3.1070   20.3930  -34.1660 O   0  0  0  0  0  0  0  0  0  0  0  0
   -1.4290   20.2620  -32.1020 N   0  0  0  0  0  0  0  0  0  0  0  0
   -0.7760   18.9510  -32.1940 C   0  0  0  0  0  0  0  0  0  0  0  0
   -0.0520   18.8880  -33.5330 C   0  0  0  0  0  0  0  0  0  0  0  0
    0.0330   20.3250  -34.0190 C   0  0  0  0  0  0  0  0  0  0  0  0
   -0.6190   21.1640  -32.9290 C   0  0  0  0  0  0  0  0  0  0  0  0
   -3.4470   22.5400  -31.3230 C   0  0  0  0  0  0  0  0  0  0  0  0
   -1.6830   23.3120  -28.9630 C   0  0  0  0  0  0  0  0  0  0  0  0
   -1.8910   22.7610  -27.6870 C   0  0  0  0  0  0  0  0  0  0  0  0
   -1.2940   21.5460  -27.3430 C   0  0  0  0  0  0  0  0  0  0  0  0
   -0.4790   20.8960  -28.2710 C   0  0  0  0  0  0  0  0  0  0  0  0
    0.0710   19.8010  -27.9750 O   0  0  0  0  0  0  0  0  0  0  0  0
   -0.2720   21.4460  -29.4970 N   0  0  0  0  0  0  0  0  0  0  0  0
   -0.8450   22.6250  -29.8580 C   0  0  0  0  0  0  0  0  0  0  0  0
   -6.1683   24.2268  -30.1325 H   0  0  0  0  0  0  0  0  0  0  0  0
   -7.3208   22.2582  -31.1187 H   0  0  0  0  0  0  0  0  0  0  0  0
   -5.2580   18.4432  -31.6494 H   0  0  0  0  0  0  0  0  0  0  0  0
   -6.4824   19.1753  -30.5345 H   0  0  0  0  0  0  0  0  0  0  0  0
   -7.0107   17.6127  -33.1096 H   0  0  0  0  0  0  0  0  0  0  0  0
   -7.4234   17.1373  -31.4167 H   0  0  0  0  0  0  0  0  0  0  0  0
   -9.3547   18.0522  -32.8152 H   0  0  0  0  0  0  0  0  0  0  0  0
   -9.0325   18.8790  -31.2172 H   0  0  0  0  0  0  0  0  0  0  0  0
   -9.2607   20.0627  -33.8130 H   0  0  0  0  0  0  0  0  0  0  0  0
   -8.8703   20.8355  -32.2073 H   0  0  0  0  0  0  0  0  0  0  0  0
   -6.9150   19.7683  -34.2862 H   0  0  0  0  0  0  0  0  0  0  0  0
   -7.1375   21.4673  -33.7361 H   0  0  0  0  0  0  0  0  0  0  0  0
   -1.4380   20.5860  -31.1100 H   0  0  0  0  0  0  0  0  0  0  0  0
   -0.0546   18.8331  -31.3720 H   0  0  0  0  0  0  0  0  0  0  0  0
   -1.5195   18.1438  -32.1193 H   0  0  0  0  0  0  0  0  0  0  0  0
    0.9556   18.4655  -33.4053 H   0  0  0  0  0  0  0  0  0  0  0  0
   -0.5811   18.2455  -34.2522 H   0  0  0  0  0  0  0  0  0  0  0  0
    1.0830   20.6226  -34.1564 H   0  0  0  0  0  0  0  0  0  0  0  0
   -0.4679   20.4572  -34.9894 H   0  0  0  0  0  0  0  0  0  0  0  0
    0.1545   21.6454  -32.3126 H   0  0  0  0  0  0  0  0  0  0  0  0
   -1.2464   21.9523  -33.3705 H   0  0  0  0  0  0  0  0  0  0  0  0
   -2.3503   22.6161  -31.3601 H   0  0  0  0  0  0  0  0  0  0  0  0
   -2.5248   23.2873  -26.9581 H   0  0  0  0  0  0  0  0  0  0  0  0
   -1.4646   21.1054  -26.3496 H   0  0  0  0  0  0  0  0  0  0  0  0
   -0.6515   23.0437  -30.8566 H   0  0  0  0  0  0  0  0  0  0  0  0
  1  2  2  0
  2  3  1  0
  3  4  1  0
  4  5  2  0
  5  6  1  0
  6  7  2  0
  7  8  1  0
  8  9  1  0
  9 10  1  0
 10 11  1  0
 11 12  1  0
 12 13  1  0
  7 14  1  0
 14 15  1  0
 15 16  2  0
 15 17  2  0
 15 18  1  0
 18 19  1  0
 19 20  1  0
 20 21  1  0
 21 22  1  0
 14 23  2  0
  2 24  1  0
 24 25  1  0
 25 26  2  0
 26 27  1  0
 27 28  2  0
 27 29  1  0
 29 30  1  0
 23  4  1  0
 30 24  2  0
 13  8  1  0
 22 18  1  0
  5 31  1  0
  6 32  1  0
  9 33  1  0
  9 34  1  0
 10 35  1  0
 10 36  1  0
 11 37  1  0
 11 38  1  0
 12 39  1  0
 12 40  1  0
 13 41  1  0
 13 42  1  0
 18 43  1  0
 19 44  1  0
 19 45  1  0
 20 46  1  0
 20 47  1  0
 21 48  1  0
 21 49  1  0
 22 50  1  0
 22 51  1  0
 23 52  1  0
 25 53  1  0
 26 54  1  0
 30 55  1  0
M  CHG  3   3  -1  18   1  29  -1
M  END
>  <UniqueID>  (43) 
43

>  <SMILES>  (43) 
O=C([N-]c1ccc(N2CCCCC2)c(S(=O)(=O)[NH+]2CCCC2)c1)c1ccc(=O)[n-]c1

>  <Energy>  (43) 
73.9816832195092

>  <Genealogy>  (43) 
O=C([N-]c1ccc(N2CCCCC2)c(S(=O)(=O)[NH+]2CCCC2)c1)c1ccc(=O)[n-]c1 (protonated)
O=C([N-]c1ccc(N2CCCCC2)c(S(=O)(=O)[NH+]2CCCC2)c1)c1ccc(=O)[n-]c1 (3D coordinates assigned)
O=C([N-]c1ccc(N2CCCCC2)c(S(=O)(=O)[NH+]2CCCC2)c1)c1ccc(=O)[n-]c1 (nonaromatic ring conformer: 73.9816832195092 kcal/mol)

>  <smiles>  (43) 
O=C(Nc1ccc(N2CCCCC2)c(S(=O)(=O)N2CCCC2)c1)c1ccc(=O)[nH]c1

>  <score_type>  (43) 
oracle

>  <origin>  (43) 
adgpu

>  <m_score__min__energy>  (43) 
-10.42

>  <m_primary>  (43) 
energy

$$$$
43:0
     RDKit          3D

 56 59  0  0  0  0  0  0  0  0999 V2000
   -2.3740   18.7220  -26.6110 C   0  0  0  0  0  0  0  0  0  0  0  0
   -2.1890   20.1870  -26.6390 N   0  0  0  0  0  0  0  0  0  0  0  0
   -0.7510   20.5040  -26.7430 C   0  0  0  0  0  0  0  0  0  0  0  0
   -0.5560   22.0050  -26.5160 C   0  0  0  0  0  0  0  0  0  0  0  0
   -1.3600   22.7660  -27.5550 C   0  0  0  0  0  0  0  0  0  0  0  0
   -0.9690   24.0550  -27.9570 C   0  0  0  0  0  0  0  0  0  0  0  0
   -1.6970   24.7500  -28.9400 C   0  0  0  0  0  0  0  0  0  0  0  0
   -1.2750   26.0040  -29.3410 O   0  0  0  0  0  0  0  0  0  0  0  0
   -2.8370   24.1820  -29.5170 C   0  0  0  0  0  0  0  0  0  0  0  0
   -3.5990   24.9300  -30.4780 N   0  0  0  0  0  0  0  0  0  0  0  0
   -5.3410   25.1220  -30.4200 S   0  0  0  0  0  0  0  0  0  0  0  0
   -5.7360   26.3690  -31.2080 O   0  0  0  0  0  0  0  0  0  0  0  0
   -5.7830   25.2740  -28.9870 O   0  0  0  0  0  0  0  0  0  0  0  0
   -6.1090   23.6710  -31.0660 C   0  0  0  0  0  0  0  0  0  0  0  0
   -5.4660   22.4310  -30.9890 C   0  0  0  0  0  0  0  0  0  0  0  0
   -6.1410   21.2670  -31.3800 C   0  0  0  0  0  0  0  0  0  0  0  0
   -7.4620   21.3410  -31.8500 C   0  0  0  0  0  0  0  0  0  0  0  0
   -8.3880   19.8830  -32.2030 S   0  0  0  0  0  0  0  0  0  0  0  0
   -9.7730   20.2470  -32.6690 O   0  0  0  0  0  0  0  0  0  0  0  0
   -8.5000   19.0780  -30.9360 O   0  0  0  0  0  0  0  0  0  0  0  0
   -7.5500   18.9480  -33.4290 N   0  0  0  0  0  0  0  0  0  0  0  0
   -7.2360   17.5750  -32.9670 C   0  0  0  0  0  0  0  0  0  0  0  0
   -6.0260   17.5160  -32.0110 C   0  0  0  0  0  0  0  0  0  0  0  0
   -4.9050   18.5090  -32.3890 C   0  0  0  0  0  0  0  0  0  0  0  0
   -5.0490   19.0080  -33.8310 C   0  0  0  0  0  0  0  0  0  0  0  0
   -6.4100   19.6940  -34.0270 C   0  0  0  0  0  0  0  0  0  0  0  0
   -8.0850   22.5880  -31.9720 C   0  0  0  0  0  0  0  0  0  0  0  0
   -7.4040   23.7480  -31.6060 C   0  0  0  0  0  0  0  0  0  0  0  0
   -3.2190   22.8860  -29.1220 C   0  0  0  0  0  0  0  0  0  0  0  0
   -2.5190   22.1910  -28.1190 C   0  0  0  0  0  0  0  0  0  0  0  0
   -2.9550   20.7700  -27.7550 C   0  0  0  0  0  0  0  0  0  0  0  0
   -2.4175   18.3778  -25.5671 H   0  0  0  0  0  0  0  0  0  0  0  0
   -3.3122   18.4611  -27.1225 H   0  0  0  0  0  0  0  0  0  0  0  0
   -1.5301   18.2360  -27.1225 H   0  0  0  0  0  0  0  0  0  0  0  0
   -0.1926   19.9399  -25.9815 H   0  0  0  0  0  0  0  0  0  0  0  0
   -0.3797   20.2268  -27.7407 H   0  0  0  0  0  0  0  0  0  0  0  0
   -0.9049   22.2748  -25.5083 H   0  0  0  0  0  0  0  0  0  0  0  0
    0.5098   22.2612  -26.6073 H   0  0  0  0  0  0  0  0  0  0  0  0
   -0.0860   24.5245  -27.4989 H   0  0  0  0  0  0  0  0  0  0  0  0
   -4.4310   22.3698  -30.6217 H   0  0  0  0  0  0  0  0  0  0  0  0
   -5.6345   20.2925  -31.3186 H   0  0  0  0  0  0  0  0  0  0  0  0
   -8.1155   17.1731  -32.4427 H   0  0  0  0  0  0  0  0  0  0  0  0
   -6.9781   16.9821  -33.8569 H   0  0  0  0  0  0  0  0  0  0  0  0
   -6.3723   17.7500  -30.9935 H   0  0  0  0  0  0  0  0  0  0  0  0
   -5.6031   16.5029  -32.0799 H   0  0  0  0  0  0  0  0  0  0  0  0
   -4.9487   19.3715  -31.7077 H   0  0  0  0  0  0  0  0  0  0  0  0
   -3.9413   17.9856  -32.3029 H   0  0  0  0  0  0  0  0  0  0  0  0
   -4.2458   19.7278  -34.0474 H   0  0  0  0  0  0  0  0  0  0  0  0
   -4.9808   18.1488  -34.5144 H   0  0  0  0  0  0  0  0  0  0  0  0
   -6.3661   20.6905  -33.5632 H   0  0  0  0  0  0  0  0  0  0  0  0
   -6.5916   19.7418  -35.1109 H   0  0  0  0  0  0  0  0  0  0  0  0
   -9.1133   22.6530  -32.3572 H   0  0  0  0  0  0  0  0  0  0  0  0
   -7.8830   24.7290  -31.7407 H   0  0  0  0  0  0  0  0  0  0  0  0
   -4.0822   22.4071  -29.6074 H   0  0  0  0  0  0  0  0  0  0  0  0
   -4.0179   20.7936  -27.4727 H   0  0  0  0  0  0  0  0  0  0  0  0
   -2.7712   20.1395  -28.6374 H   0  0  0  0  0  0  0  0  0  0  0  0
  1  2  1  0
  2  3  1  0
  3  4  1  0
  4  5  1  0
  5  6  2  0
  6  7  1  0
  7  8  1  0
  7  9  2  0
  9 10  1  0
 10 11  1  0
 11 12  2  0
 11 13  2  0
 11 14  1  0
 14 15  2  0
 15 16  1  0
 16 17  2  0
 17 18  1  0
 18 19  2  0
 18 20  2  0
 18 21  1  0
 21 22  1  0
 22 23  1  0
 23 24  1  0
 24 25  1  0
 25 26  1  0
 17 27  1  0
 27 28  2  0
  9 29  1  0
 29 30  2  0
 30 31  1  0
 31  2  1  0
 30  5  1  0
 28 14  1  0
 26 21  1  0
  1 32  1  0
  1 33  1  0
  1 34  1  0
  3 35  1  0
  3 36  1  0
  4 37  1  0
  4 38  1  0
  6 39  1  0
 15 40  1  0
 16 41  1  0
 22 42  1  0
 22 43  1  0
 23 44  1  0
 23 45  1  0
 24 46  1  0
 24 47  1  0
 25 48  1  0
 25 49  1  0
 26 50  1  0
 26 51  1  0
 27 52  1  0
 28 53  1  0
 29 54  1  0
 31 55  1  0
 31 56  1  0
M  CHG  2   8  -1  10  -1
M  END
>  <UniqueID>  (44) 
44

>  <SMILES>  (44) 
CN1CCc2cc([O-])c([N-]S(=O)(=O)c3ccc(S(=O)(=O)N4CCCCC4)cc3)cc2C1

>  <Energy>  (44) 
74.07088166348508

>  <Genealogy>  (44) 
CN1CCc2cc([O-])c([N-]S(=O)(=O)c3ccc(S(=O)(=O)N4CCCCC4)cc3)cc2C1 (protonated)
CN1CCc2cc([O-])c([N-]S(=O)(=O)c3ccc(S(=O)(=O)N4CCCCC4)cc3)cc2C1 (3D coordinates assigned)
CN1CCc2cc([O-])c([N-]S(=O)(=O)c3ccc(S(=O)(=O)N4CCCCC4)cc3)cc2C1 (nonaromatic ring conformer: 74.07088166348508 kcal/mol)

>  <smiles>  (44) 
CN1CCc2cc(O)c(NS(=O)(=O)c3ccc(S(=O)(=O)N4CCCCC4)cc3)cc2C1

>  <score_type>  (44) 
oracle

>  <origin>  (44) 
adgpu

>  <m_score__min__energy>  (44) 
-16.16

>  <m_primary>  (44) 
energy

$$$$
44:0
     RDKit          3D

 46 48  0  0  0  0  0  0  0  0999 V2000
   -6.1020   17.7680  -34.2130 C   0  0  0  0  0  0  0  0  0  0  0  0
   -6.7330   18.9890  -33.8420 O   0  0  0  0  0  0  0  0  0  0  0  0
   -6.0930   20.0450  -33.1730 C   0  0  0  0  0  0  0  0  0  0  0  0
   -4.7130   20.2850  -33.3080 C   0  0  0  0  0  0  0  0  0  0  0  0
   -4.1090   21.3390  -32.6190 C   0  0  0  0  0  0  0  0  0  0  0  0
   -4.8770   22.1860  -31.8150 C   0  0  0  0  0  0  0  0  0  0  0  0
   -4.2270   23.2780  -31.0740 C   0  0  0  0  0  0  0  0  0  0  0  0
   -4.6250   24.5620  -31.1560 N   0  0  0  0  0  0  0  0  0  0  0  0
   -3.8490   25.2950  -30.3710 N   0  0  0  0  0  0  0  0  0  0  0  0
   -2.9540   24.4800  -29.7810 C   0  0  0  0  0  0  0  0  0  0  0  0
   -1.7160   25.0530  -28.6200 S   0  0  0  0  0  0  0  0  0  0  0  0
   -2.7490   24.6890  -27.1660 C   0  0  0  0  0  0  0  0  0  0  0  0
   -3.1610   23.1800  -30.1980 C   0  0  0  0  0  0  0  0  0  0  0  0
   -2.4350   21.7150  -29.5340 S   0  0  0  0  0  0  0  0  0  0  0  0
   -3.5050   20.6820  -29.3130 O   0  0  0  0  0  0  0  0  0  0  0  0
   -1.8130   22.0210  -28.2000 O   0  0  0  0  0  0  0  0  0  0  0  0
   -1.2030   21.0750  -30.6170 C   0  0  0  0  0  0  0  0  0  0  0  0
   -1.1010   21.5600  -31.9270 C   0  0  0  0  0  0  0  0  0  0  0  0
   -0.1320   21.0500  -32.7940 C   0  0  0  0  0  0  0  0  0  0  0  0
    0.7470   20.0460  -32.3610 C   0  0  0  0  0  0  0  0  0  0  0  0
    1.8130   19.5260  -33.2780 C   0  0  0  0  0  0  0  0  0  0  0  0
    0.6680   19.5870  -31.0370 C   0  0  0  0  0  0  0  0  0  0  0  0
   -0.3040   20.0970  -30.1720 C   0  0  0  0  0  0  0  0  0  0  0  0
   -6.2520   21.9510  -31.6730 C   0  0  0  0  0  0  0  0  0  0  0  0
   -6.8630   20.8700  -32.3380 C   0  0  0  0  0  0  0  0  0  0  0  0
   -8.2270   20.5720  -32.1860 O   0  0  0  0  0  0  0  0  0  0  0  0
   -8.7350   19.3550  -31.6490 C   0  0  0  0  0  0  0  0  0  0  0  0
   -5.8154   17.2134  -33.3073 H   0  0  0  0  0  0  0  0  0  0  0  0
   -6.7994   17.1612  -34.8092 H   0  0  0  0  0  0  0  0  0  0  0  0
   -5.2036   17.9859  -34.8092 H   0  0  0  0  0  0  0  0  0  0  0  0
   -4.1066   19.6389  -33.9598 H   0  0  0  0  0  0  0  0  0  0  0  0
   -3.0251   21.5032  -32.7094 H   0  0  0  0  0  0  0  0  0  0  0  0
   -2.1758   24.8910  -26.2491 H   0  0  0  0  0  0  0  0  0  0  0  0
   -3.6462   25.3251  -27.1851 H   0  0  0  0  0  0  0  0  0  0  0  0
   -3.0492   23.6309  -27.1851 H   0  0  0  0  0  0  0  0  0  0  0  0
   -1.7873   22.3462  -32.2746 H   0  0  0  0  0  0  0  0  0  0  0  0
   -0.0577   21.4373  -33.8209 H   0  0  0  0  0  0  0  0  0  0  0  0
    2.6438   19.1207  -32.6818 H   0  0  0  0  0  0  0  0  0  0  0  0
    1.3949   18.7307  -33.9125 H   0  0  0  0  0  0  0  0  0  0  0  0
    2.1824   20.3451  -33.9125 H   0  0  0  0  0  0  0  0  0  0  0  0
    1.3737   18.8230  -30.6789 H   0  0  0  0  0  0  0  0  0  0  0  0
   -0.3635   19.7289  -29.1371 H   0  0  0  0  0  0  0  0  0  0  0  0
   -6.8573   22.6149  -31.0383 H   0  0  0  0  0  0  0  0  0  0  0  0
   -8.7151   19.4026  -30.5502 H   0  0  0  0  0  0  0  0  0  0  0  0
   -9.7700   19.2071  -31.9910 H   0  0  0  0  0  0  0  0  0  0  0  0
   -8.1123   18.5152  -31.9910 H   0  0  0  0  0  0  0  0  0  0  0  0
  1  2  1  0
  2  3  1  0
  3  4  2  0
  4  5  1  0
  5  6  2  0
  6  7  1  0
  7  8  2  0
  8  9  1  0
  9 10  1  0
 10 11  1  0
 11 12  1  0
 10 13  2  0
 13 14  1  0
 14 15  2  0
 14 16  2  0
 14 17  1  0
 17 18  2  0
 18 19  1  0
 19 20  2  0
 20 21  1  0
 20 22  1  0
 22 23  2  0
  6 24  1  0
 24 25  2  0
 25 26  1  0
 26 27  1  0
 25  3  1  0
 13  7  1  0
 23 17  1  0
  1 28  1  0
  1 29  1  0
  1 30  1  0
  4 31  1  0
  5 32  1  0
 12 33  1  0
 12 34  1  0
 12 35  1  0
 18 36  1  0
 19 37  1  0
 21 38  1  0
 21 39  1  0
 21 40  1  0
 22 41  1  0
 23 42  1  0
 24 43  1  0
 27 44  1  0
 27 45  1  0
 27 46  1  0
M  CHG  1   9  -1
M  END
>  <UniqueID>  (45) 
45

>  <SMILES>  (45) 
COc1ccc(-c2n[n-]c(SC)c2S(=O)(=O)c2ccc(C)cc2)cc1OC

>  <Energy>  (45) 
79.14882399171672

>  <Genealogy>  (45) 
COc1ccc(-c2n[n-]c(SC)c2S(=O)(=O)c2ccc(C)cc2)cc1OC (protonated)
COc1ccc(-c2n[n-]c(SC)c2S(=O)(=O)c2ccc(C)cc2)cc1OC (3D coordinates assigned)
COc1ccc(-c2n[n-]c(SC)c2S(=O)(=O)c2ccc(C)cc2)cc1OC (optimized conformer: 79.14882399171672 kcal/mol)

>  <smiles>  (45) 
COc1ccc(-c2n[nH]c(SC)c2S(=O)(=O)c2ccc(C)cc2)cc1OC

>  <score_type>  (45) 
oracle

>  <origin>  (45) 
adgpu

>  <m_score__min__energy>  (45) 
-9.25

>  <m_primary>  (45) 
energy

$$$$
45:0
     RDKit          3D

 68 72  0  0  0  0  0  0  0  0999 V2000
   -5.5373   24.7925  -27.7197 H   0  0  0  0  0  0  0  0  0  0  0  0
   -4.6130   24.5160  -28.2480 C   0  0  0  0  0  0  0  0  0  0  0  0
   -3.4240   24.3650  -27.5320 C   0  0  0  0  0  0  0  0  0  0  0  0
   -3.4213   24.5037  -26.4408 H   0  0  0  0  0  0  0  0  0  0  0  0
   -2.2350   24.0380  -28.1950 C   0  0  0  0  0  0  0  0  0  0  0  0
   -0.7350   23.8540  -27.2870 S   0  0  0  0  0  0  0  0  0  0  0  0
    0.3280   24.7150  -27.9110 O   0  0  0  0  0  0  0  0  0  0  0  0
   -0.2810   22.4240  -27.3840 O   0  0  0  0  0  0  0  0  0  0  0  0
   -0.9140   24.2860  -25.5990 N   0  0  0  0  0  0  0  0  0  0  0  0
   -1.4270   25.6610  -25.4120 C   0  0  0  0  0  0  0  0  0  0  0  0
   -1.9132   25.9836  -26.3445 H   0  0  0  0  0  0  0  0  0  0  0  0
   -2.1323   25.6372  -24.5682 H   0  0  0  0  0  0  0  0  0  0  0  0
   -0.3220   26.6720  -25.0600 C   0  0  0  0  0  0  0  0  0  0  0  0
   -0.5778   27.6514  -25.4905 H   0  0  0  0  0  0  0  0  0  0  0  0
   -0.2448   26.7457  -23.9652 H   0  0  0  0  0  0  0  0  0  0  0  0
    0.9190   26.2500  -25.5750 O   0  0  0  0  0  0  0  0  0  0  0  0
    1.3580   25.1070  -24.8710 C   0  0  0  0  0  0  0  0  0  0  0  0
    2.2529   24.7094  -25.3722 H   0  0  0  0  0  0  0  0  0  0  0  0
    1.5693   25.4193  -23.8376 H   0  0  0  0  0  0  0  0  0  0  0  0
    0.2920   23.9880  -24.8060 C   0  0  0  0  0  0  0  0  0  0  0  0
    0.7388   23.0574  -25.1860 H   0  0  0  0  0  0  0  0  0  0  0  0
   -0.0224   23.8976  -23.7558 H   0  0  0  0  0  0  0  0  0  0  0  0
   -2.2460   23.8700  -29.5870 C   0  0  0  0  0  0  0  0  0  0  0  0
   -1.3144   23.6207  -30.1161 H   0  0  0  0  0  0  0  0  0  0  0  0
   -3.4360   24.0180  -30.3050 C   0  0  0  0  0  0  0  0  0  0  0  0
   -3.4346   23.8998  -31.3986 H   0  0  0  0  0  0  0  0  0  0  0  0
   -4.6370   24.3180  -29.6330 C   0  0  0  0  0  0  0  0  0  0  0  0
   -5.8870   24.4810  -30.3260 N   0  0  0  0  0  0  0  0  0  0  0  0
   -6.4870   23.5870  -31.0540 C   0  0  0  0  0  0  0  0  0  0  0  0
   -7.6530   23.8140  -31.6820 N   0  0  0  0  0  0  0  0  0  0  0  0
   -7.9700   22.6780  -32.2830 N   0  0  0  0  0  0  0  0  0  0  0  0
   -6.9830   21.8070  -31.9950 C   0  0  0  0  0  0  0  0  0  0  0  0
   -6.9440   20.4140  -32.4530 C   0  0  0  0  0  0  0  0  0  0  0  0
   -8.0150   19.8640  -32.8270 O   0  0  0  0  0  0  0  0  0  0  0  0
   -5.6950   19.7040  -32.5230 N   0  0  0  0  0  0  0  0  0  0  0  0
   -4.8120   20.2530  -32.4230 H   0  0  0  0  0  0  0  0  0  0  0  0
   -5.5880   18.3500  -32.9870 C   0  0  0  0  0  0  0  0  0  0  0  0
   -6.6810   17.4710  -32.9240 C   0  0  0  0  0  0  0  0  0  0  0  0
   -7.6324   17.8109  -32.4888 H   0  0  0  0  0  0  0  0  0  0  0  0
   -6.5660   16.1650  -33.4120 C   0  0  0  0  0  0  0  0  0  0  0  0
   -7.4241   15.4799  -33.3476 H   0  0  0  0  0  0  0  0  0  0  0  0
   -5.3610   15.7230  -33.9840 C   0  0  0  0  0  0  0  0  0  0  0  0
   -5.2500   14.3420  -34.6010 C   0  0  0  0  0  0  0  0  0  0  0  0
   -4.4356   14.3562  -35.3403 H   0  0  0  0  0  0  0  0  0  0  0  0
   -6.2252   14.1134  -35.0557 H   0  0  0  0  0  0  0  0  0  0  0  0
   -4.9690   13.2700  -33.6150 N   0  0  0  0  0  0  0  0  0  0  0  0
   -4.0450   12.2190  -34.1010 C   0  0  0  0  0  0  0  0  0  0  0  0
   -3.8879   12.3548  -35.1812 H   0  0  0  0  0  0  0  0  0  0  0  0
   -4.4983   11.2398  -33.8874 H   0  0  0  0  0  0  0  0  0  0  0  0
   -2.6870   12.2810  -33.3900 C   0  0  0  0  0  0  0  0  0  0  0  0
   -2.2301   13.2644  -33.5752 H   0  0  0  0  0  0  0  0  0  0  0  0
   -2.0508   11.4756  -33.7857 H   0  0  0  0  0  0  0  0  0  0  0  0
   -2.8350   12.0850  -31.9290 N   0  0  0  0  0  0  0  0  0  0  0  0
   -1.6510   12.6010  -31.2240 C   0  0  0  0  0  0  0  0  0  0  0  0
   -1.8115   12.5311  -30.1380 H   0  0  0  0  0  0  0  0  0  0  0  0
   -0.7694   12.0055  -31.5035 H   0  0  0  0  0  0  0  0  0  0  0  0
   -1.4870   13.6522  -31.5035 H   0  0  0  0  0  0  0  0  0  0  0  0
   -4.0900   12.6550  -31.3710 C   0  0  0  0  0  0  0  0  0  0  0  0
   -3.8779   13.0668  -30.3733 H   0  0  0  0  0  0  0  0  0  0  0  0
   -4.8337   11.8459  -31.3234 H   0  0  0  0  0  0  0  0  0  0  0  0
   -4.6690   13.7720  -32.2530 C   0  0  0  0  0  0  0  0  0  0  0  0
   -3.9373   14.5903  -32.3240 H   0  0  0  0  0  0  0  0  0  0  0  0
   -5.6038   14.1302  -31.7971 H   0  0  0  0  0  0  0  0  0  0  0  0
   -4.2520   16.5850  -33.9860 C   0  0  0  0  0  0  0  0  0  0  0  0
   -3.2877   16.2332  -34.3814 H   0  0  0  0  0  0  0  0  0  0  0  0
   -4.3650   17.8870  -33.4890 C   0  0  0  0  0  0  0  0  0  0  0  0
   -3.4884   18.5515  -33.4922 H   0  0  0  0  0  0  0  0  0  0  0  0
   -6.0670   22.3600  -31.2380 O   0  0  0  0  0  0  0  0  0  0  0  0
  1  2  1  0
  2  3  2  0
  3  4  1  0
  3  5  1  0
  5  6  1  0
  6  7  2  0
  6  8  2  0
  6  9  1  0
  9 10  1  0
 10 11  1  0
 10 12  1  0
 10 13  1  0
 13 14  1  0
 13 15  1  0
 13 16  1  0
 16 17  1  0
 17 18  1  0
 17 19  1  0
 17 20  1  0
 20 21  1  0
 20 22  1  0
  5 23  2  0
 23 24  1  0
 23 25  1  0
 25 26  1  0
 25 27  2  0
 27 28  1  0
 28 29  2  0
 29 30  1  0
 30 31  1  0
 31 32  2  0
 32 33  1  0
 33 34  2  0
 33 35  1  0
 35 36  1  0
 35 37  1  0
 37 38  2  0
 38 39  1  0
 38 40  1  0
 40 41  1  0
 40 42  2  0
 42 43  1  0
 43 44  1  0
 43 45  1  0
 43 46  1  0
 46 47  1  0
 47 48  1  0
 47 49  1  0
 47 50  1  0
 50 51  1  0
 50 52  1  0
 50 53  1  0
 53 54  1  0
 54 55  1  0
 54 56  1  0
 54 57  1  0
 53 58  1  0
 58 59  1  0
 58 60  1  0
 58 61  1  0
 61 62  1  0
 61 63  1  0
 42 64  1  0
 64 65  1  0
 64 66  2  0
 66 67  1  0
 32 68  1  0
 27  2  1  0
 68 29  1  0
 20  9  1  0
 66 37  1  0
 61 46  1  0
M  CHG  1  30  -1
M  END
>  <UniqueID>  (46) 
46

>  <SMILES>  (46) 
CN1CCN(Cc2ccc(NC(=O)c3n[n-]/c(=N/c4ccc(S(=O)(=O)N5CCOCC5)cc4)o3)cc2)CC1

>  <Energy>  (46) 
139.99915828077096

>  <Genealogy>  (46) 
CN1CCN(Cc2ccc(NC(=O)c3n[n-]c(=Nc4ccc(S(=O)(=O)N5CCOCC5)cc4)o3)cc2)CC1 (protonated)
CN1CCN(Cc2ccc(NC(=O)c3n[n-]/c(=N/c4ccc(S(=O)(=O)N5CCOCC5)cc4)o3)cc2)CC1 (cis-trans isomerization)
CN1CCN(Cc2ccc(NC(=O)c3n[n-]/c(=N/c4ccc(S(=O)(=O)N5CCOCC5)cc4)o3)cc2)CC1 (3D coordinates assigned)
CN1CCN(Cc2ccc(NC(=O)c3n[n-]/c(=N/c4ccc(S(=O)(=O)N5CCOCC5)cc4)o3)cc2)CC1 (nonaromatic ring conformer: 139.99915828077096 kcal/mol)

>  <smiles>  (46) 
CN1CCN(Cc2ccc(NC(=O)c3n[nH]c(=Nc4ccc(S(=O)(=O)N5CCOCC5)cc4)o3)cc2)CC1

>  <score_type>  (46) 
oracle

>  <origin>  (46) 
adgpu

>  <m_score__min__energy>  (46) 
-10.33

>  <m_primary>  (46) 
energy

$$$$
46:0
     RDKit          3D

 45 48  0  0  0  0  0  0  0  0999 V2000
   -1.0330   19.4570  -27.9210 C   0  0  0  0  0  0  0  0  0  0  0  0
   -1.9380   20.0840  -26.9430 N   0  0  0  0  0  0  0  0  0  0  0  0
   -1.2170   20.8640  -25.9170 C   0  0  0  0  0  0  0  0  0  0  0  0
   -0.4890   22.0800  -26.5080 C   0  0  0  0  0  0  0  0  0  0  0  0
   -1.3370   22.8260  -27.5060 C   0  0  0  0  0  0  0  0  0  0  0  0
   -0.9240   24.0940  -27.9420 C   0  0  0  0  0  0  0  0  0  0  0  0
   -1.6680   24.7930  -28.8960 C   0  0  0  0  0  0  0  0  0  0  0  0
   -1.2430   26.0530  -29.3070 O   0  0  0  0  0  0  0  0  0  0  0  0
   -2.8360   24.2350  -29.4320 C   0  0  0  0  0  0  0  0  0  0  0  0
   -3.5950   24.9980  -30.3810 N   0  0  0  0  0  0  0  0  0  0  0  0
   -5.3270   25.0950  -30.4260 S   0  0  0  0  0  0  0  0  0  0  0  0
   -5.7330   26.3060  -31.2210 O   0  0  0  0  0  0  0  0  0  0  0  0
   -5.8520   25.2330  -29.0260 O   0  0  0  0  0  0  0  0  0  0  0  0
   -5.9830   23.6250  -31.1380 C   0  0  0  0  0  0  0  0  0  0  0  0
   -5.1440   22.7830  -31.8940 C   0  0  0  0  0  0  0  0  0  0  0  0
   -5.6600   21.6260  -32.4970 C   0  0  0  0  0  0  0  0  0  0  0  0
   -7.0140   21.3290  -32.3340 C   0  0  0  0  0  0  0  0  0  0  0  0
   -7.8350   22.1460  -31.5990 C   0  0  0  0  0  0  0  0  0  0  0  0
   -7.3440   23.3010  -30.9870 C   0  0  0  0  0  0  0  0  0  0  0  0
   -9.2310   21.6550  -31.5720 C   0  0  0  0  0  0  0  0  0  0  0  0
   -9.1870   20.3540  -32.3980 C   0  0  0  0  0  0  0  0  0  0  0  0
   -7.7420   20.1710  -32.9010 C   0  0  0  0  0  0  0  0  0  0  0  0
   -3.2360   22.9520  -29.0200 C   0  0  0  0  0  0  0  0  0  0  0  0
   -2.4870   22.2380  -28.0720 C   0  0  0  0  0  0  0  0  0  0  0  0
   -2.9860   20.8930  -27.5970 C   0  0  0  0  0  0  0  0  0  0  0  0
   -0.2415   18.9086  -27.3891 H   0  0  0  0  0  0  0  0  0  0  0  0
   -1.6022   18.7587  -28.5522 H   0  0  0  0  0  0  0  0  0  0  0  0
   -0.5793   20.2353  -28.5522 H   0  0  0  0  0  0  0  0  0  0  0  0
   -1.9413   21.2161  -25.1677 H   0  0  0  0  0  0  0  0  0  0  0  0
   -0.4587   20.2058  -25.4678 H   0  0  0  0  0  0  0  0  0  0  0  0
   -0.2219   22.7645  -25.6894 H   0  0  0  0  0  0  0  0  0  0  0  0
    0.4050   21.7137  -27.0338 H   0  0  0  0  0  0  0  0  0  0  0  0
   -0.0075   24.5412  -27.5296 H   0  0  0  0  0  0  0  0  0  0  0  0
   -4.0795   23.0337  -32.0121 H   0  0  0  0  0  0  0  0  0  0  0  0
   -5.0090   20.9647  -33.0877 H   0  0  0  0  0  0  0  0  0  0  0  0
   -8.0102   23.9471  -30.3965 H   0  0  0  0  0  0  0  0  0  0  0  0
   -9.5538   21.4519  -30.5402 H   0  0  0  0  0  0  0  0  0  0  0  0
   -9.9447   22.3881  -31.9760 H   0  0  0  0  0  0  0  0  0  0  0  0
   -9.4761   19.4997  -31.7682 H   0  0  0  0  0  0  0  0  0  0  0  0
   -9.8870   20.4098  -33.2447 H   0  0  0  0  0  0  0  0  0  0  0  0
   -7.3175   19.2249  -32.5340 H   0  0  0  0  0  0  0  0  0  0  0  0
   -7.6787   20.1281  -33.9983 H   0  0  0  0  0  0  0  0  0  0  0  0
   -4.1457   22.5029  -29.4451 H   0  0  0  0  0  0  0  0  0  0  0  0
   -3.8019   21.0565  -26.8776 H   0  0  0  0  0  0  0  0  0  0  0  0
   -3.3239   20.3368  -28.4838 H   0  0  0  0  0  0  0  0  0  0  0  0
  1  2  1  0
  2  3  1  0
  3  4  1  0
  4  5  1  0
  5  6  2  0
  6  7  1  0
  7  8  1  0
  7  9  2  0
  9 10  1  0
 10 11  1  0
 11 12  2  0
 11 13  2  0
 11 14  1  0
 14 15  2  0
 15 16  1  0
 16 17  2  0
 17 18  1  0
 18 19  2  0
 18 20  1  0
 20 21  1  0
 21 22  1  0
  9 23  1  0
 23 24  2  0
 24 25  1  0
 25  2  1  0
 24  5  1  0
 19 14  1  0
 22 17  1  0
  1 26  1  0
  1 27  1  0
  1 28  1  0
  3 29  1  0
  3 30  1  0
  4 31  1  0
  4 32  1  0
  6 33  1  0
 15 34  1  0
 16 35  1  0
 19 36  1  0
 20 37  1  0
 20 38  1  0
 21 39  1  0
 21 40  1  0
 22 41  1  0
 22 42  1  0
 23 43  1  0
 25 44  1  0
 25 45  1  0
M  CHG  2   8  -1  10  -1
M  END
>  <UniqueID>  (47) 
47

>  <SMILES>  (47) 
CN1CCc2cc([O-])c([N-]S(=O)(=O)c3ccc4c(c3)CCC4)cc2C1

>  <Energy>  (47) 
62.95459414533733

>  <Genealogy>  (47) 
CN1CCc2cc([O-])c([N-]S(=O)(=O)c3ccc4c(c3)CCC4)cc2C1 (protonated)
CN1CCc2cc([O-])c([N-]S(=O)(=O)c3ccc4c(c3)CCC4)cc2C1 (3D coordinates assigned)
CN1CCc2cc([O-])c([N-]S(=O)(=O)c3ccc4c(c3)CCC4)cc2C1 (nonaromatic ring conformer: 62.95459414533733 kcal/mol)

>  <smiles>  (47) 
CN1CCc2cc(O)c(NS(=O)(=O)c3ccc4c(c3)CCC4)cc2C1

>  <score_type>  (47) 
oracle

>  <origin>  (47) 
adgpu

>  <m_score__min__energy>  (47) 
-14.68

>  <m_primary>  (47) 
energy

$$$$
47:0
     RDKit          3D

 52 55  0  0  0  0  0  0  0  0999 V2000
   -8.9270   22.1300  -31.6070 C   0  0  0  0  0  0  0  0  0  0  0  0
   -7.6570   21.5490  -32.1740 C   0  0  0  0  0  0  0  0  0  0  0  0
   -7.6660   20.2400  -32.6820 C   0  0  0  0  0  0  0  0  0  0  0  0
   -6.4930   19.6670  -33.1780 C   0  0  0  0  0  0  0  0  0  0  0  0
   -6.5000   18.3260  -33.7010 C   0  0  0  0  0  0  0  0  0  0  0  0
   -6.5060   17.2470  -34.1210 N   0  0  0  0  0  0  0  0  0  0  0  0
   -5.3100   20.4060  -33.1490 C   0  0  0  0  0  0  0  0  0  0  0  0
   -5.3130   21.6720  -32.6590 N   0  0  0  0  0  0  0  0  0  0  0  0
   -6.4400   22.2760  -32.1890 C   0  0  0  0  0  0  0  0  0  0  0  0
   -6.3490   23.6890  -31.6310 C   0  0  1  0  0  0  0  0  0  0  0  0
   -7.2010   23.9600  -30.3960 C   0  0  0  0  0  0  0  0  0  0  0  0
   -6.5690   25.1960  -29.7870 C   0  0  0  0  0  0  0  0  0  0  0  0
   -5.1910   25.3230  -30.4380 C   0  0  0  0  0  0  0  0  0  0  0  0
   -4.9870   24.1670  -31.3260 N   0  0  0  0  0  0  0  0  0  0  0  0
   -3.9170   22.9840  -30.5770 S   0  0  0  0  0  0  0  0  0  0  0  0
   -2.9570   22.4600  -31.6100 O   0  0  0  0  0  0  0  0  0  0  0  0
   -4.7320   21.8170  -30.0940 O   0  0  0  0  0  0  0  0  0  0  0  0
   -2.9750   23.6290  -29.2290 C   0  0  0  0  0  0  0  0  0  0  0  0
   -1.5750   23.6390  -29.2820 C   0  0  0  0  0  0  0  0  0  0  0  0
   -0.8310   24.1130  -28.1990 C   0  0  0  0  0  0  0  0  0  0  0  0
   -1.4780   24.6080  -27.0570 C   0  0  0  0  0  0  0  0  0  0  0  0
   -0.6780   25.0470  -25.8590 C   0  0  0  0  0  0  0  0  0  0  0  0
   -0.6790   26.5210  -25.7560 N   0  0  0  0  0  0  0  0  0  0  0  0
   -0.9320   27.1330  -24.5510 C   0  0  0  0  0  0  0  0  0  0  0  0
   -1.2080   26.4550  -23.5240 O   0  0  0  0  0  0  0  0  0  0  0  0
   -0.8930   28.4880  -24.4470 N   0  0  0  0  0  0  0  0  0  0  0  0
   -0.6010   29.2690  -25.5150 C   0  0  0  0  0  0  0  0  0  0  0  0
   -0.3350   28.6840  -26.7460 C   0  0  0  0  0  0  0  0  0  0  0  0
   -0.0370   29.4570  -27.8210 F   0  0  0  0  0  0  0  0  0  0  0  0
   -0.3760   27.2920  -26.8520 C   0  0  0  0  0  0  0  0  0  0  0  0
   -0.1320   26.7590  -27.9690 O   0  0  0  0  0  0  0  0  0  0  0  0
   -2.8810   24.6400  -27.0240 C   0  0  0  0  0  0  0  0  0  0  0  0
   -3.6230   24.1660  -28.1080 C   0  0  0  0  0  0  0  0  0  0  0  0
   -8.8812   22.1090  -30.5082 H   0  0  0  0  0  0  0  0  0  0  0  0
   -9.0397   23.1692  -31.9495 H   0  0  0  0  0  0  0  0  0  0  0  0
   -9.7870   21.5357  -31.9495 H   0  0  0  0  0  0  0  0  0  0  0  0
   -8.6023   19.6626  -32.6893 H   0  0  0  0  0  0  0  0  0  0  0  0
   -4.3752   19.9630  -33.5230 H   0  0  0  0  0  0  0  0  0  0  0  0
   -6.7502   24.2510  -32.4873 H   0  0  0  0  0  0  0  0  0  0  0  0
   -8.2474   24.1519  -30.6758 H   0  0  0  0  0  0  0  0  0  0  0  0
   -7.2267   23.1080  -29.7007 H   0  0  0  0  0  0  0  0  0  0  0  0
   -7.1790   26.0851  -30.0049 H   0  0  0  0  0  0  0  0  0  0  0  0
   -6.4939   25.1150  -28.6926 H   0  0  0  0  0  0  0  0  0  0  0  0
   -5.1408   26.2535  -31.0224 H   0  0  0  0  0  0  0  0  0  0  0  0
   -4.4091   25.3475  -29.6647 H   0  0  0  0  0  0  0  0  0  0  0  0
   -1.0590   23.2716  -30.1813 H   0  0  0  0  0  0  0  0  0  0  0  0
    0.2681   24.0980  -28.2419 H   0  0  0  0  0  0  0  0  0  0  0  0
   -1.1228   24.6190  -24.9485 H   0  0  0  0  0  0  0  0  0  0  0  0
    0.3584   24.6961  -25.9718 H   0  0  0  0  0  0  0  0  0  0  0  0
   -0.5747   30.3634  -25.4072 H   0  0  0  0  0  0  0  0  0  0  0  0
   -3.3986   25.0405  -26.1398 H   0  0  0  0  0  0  0  0  0  0  0  0
   -4.7216   24.2143  -28.0820 H   0  0  0  0  0  0  0  0  0  0  0  0
  1  2  1  0
  2  3  2  0
  3  4  1  0
  4  5  1  0
  5  6  3  0
  4  7  2  0
  7  8  1  0
  8  9  2  0
  9 10  1  0
 10 11  1  0
 11 12  1  0
 12 13  1  0
 13 14  1  0
 14 15  1  0
 15 16  2  0
 15 17  2  0
 15 18  1  0
 18 19  2  0
 19 20  1  0
 20 21  2  0
 21 22  1  0
 22 23  1  0
 23 24  1  0
 24 25  2  0
 24 26  1  0
 26 27  1  0
 27 28  2  0
 28 29  1  0
 28 30  1  0
 30 31  2  0
 21 32  1  0
 32 33  2  0
  9  2  1  0
 14 10  1  0
 33 18  1  0
 30 23  1  0
  1 34  1  0
  1 35  1  0
  1 36  1  0
  3 37  1  0
  7 38  1  0
 10 39  1  6
 11 40  1  0
 11 41  1  0
 12 42  1  0
 12 43  1  0
 13 44  1  0
 13 45  1  0
 19 46  1  0
 20 47  1  0
 22 48  1  0
 22 49  1  0
 27 50  1  0
 32 51  1  0
 33 52  1  0
M  CHG  1  26  -1
M  END
>  <UniqueID>  (48) 
48

>  <SMILES>  (48) 
Cc1cc(C#N)cnc1[C@H]1CCCN1S(=O)(=O)c1ccc(Cn2c(=O)[n-]cc(F)c2=O)cc1

>  <Energy>  (48) 
66.83255036538924

>  <Genealogy>  (48) 
Cc1cc(C#N)cnc1C1CCCN1S(=O)(=O)c1ccc(Cn2c(=O)[n-]cc(F)c2=O)cc1 (protonated)
Cc1cc(C#N)cnc1[C@H]1CCCN1S(=O)(=O)c1ccc(Cn2c(=O)[n-]cc(F)c2=O)cc1 (chirality)
Cc1cc(C#N)cnc1[C@H]1CCCN1S(=O)(=O)c1ccc(Cn2c(=O)[n-]cc(F)c2=O)cc1 (3D coordinates assigned)
Cc1cc(C#N)cnc1[C@H]1CCCN1S(=O)(=O)c1ccc(Cn2c(=O)[n-]cc(F)c2=O)cc1 (nonaromatic ring conformer: 66.83255036538924 kcal/mol)

>  <smiles>  (48) 
Cc1cc(C#N)cnc1C1CCCN1S(=O)(=O)c1ccc(Cn2c(=O)[nH]cc(F)c2=O)cc1

>  <score_type>  (48) 
oracle

>  <origin>  (48) 
adgpu

>  <m_score__min__energy>  (48) 
-10.380000000000001

>  <m_primary>  (48) 
energy

$$$$
48:0
     RDKit          3D

 57 61  0  0  0  0  0  0  0  0999 V2000
   -8.1100   18.1760  -33.0790 O   0  0  0  0  0  0  0  0  0  0  0  0
   -7.4510   19.1930  -32.7340 C   0  0  0  0  0  0  0  0  0  0  0  0
   -8.1160   20.3190  -32.3850 N   0  0  0  0  0  0  0  0  0  0  0  0
   -7.4780   21.4480  -31.9910 C   0  0  0  0  0  0  0  0  0  0  0  0
   -8.2410   22.5650  -31.6310 C   0  0  0  0  0  0  0  0  0  0  0  0
   -7.6190   23.7280  -31.1840 C   0  0  0  0  0  0  0  0  0  0  0  0
   -6.2220   23.7880  -31.1040 C   0  0  0  0  0  0  0  0  0  0  0  0
   -5.4220   25.1800  -30.3790 S   0  0  0  0  0  0  0  0  0  0  0  0
   -5.8960   25.4110  -28.9700 O   0  0  0  0  0  0  0  0  0  0  0  0
   -5.7070   26.4000  -31.2060 O   0  0  0  0  0  0  0  0  0  0  0  0
   -3.7210   24.8590  -30.3780 N   0  0  0  0  0  0  0  0  0  0  0  0
   -3.1380   24.0780  -29.3340 C   0  0  0  0  0  0  0  0  0  0  0  0
   -3.6860   22.8340  -28.9820 C   0  0  0  0  0  0  0  0  0  0  0  0
   -3.0500   22.0310  -28.0330 C   0  0  0  0  0  0  0  0  0  0  0  0
   -1.8510   22.4510  -27.4530 C   0  0  0  0  0  0  0  0  0  0  0  0
   -1.2900   23.6860  -27.8090 C   0  0  0  0  0  0  0  0  0  0  0  0
    0.2840   24.1350  -27.1660 S   0  0  0  0  0  0  0  0  0  0  0  0
    1.1710   24.5520  -28.3060 O   0  0  0  0  0  0  0  0  0  0  0  0
    0.9120   22.9670  -26.4560 O   0  0  0  0  0  0  0  0  0  0  0  0
    0.0790   25.4620  -26.0510 N   0  0  0  0  0  0  0  0  0  0  0  0
   -0.8460   26.4590  -26.6150 C   0  0  0  0  0  0  0  0  0  0  0  0
   -0.8660   27.7300  -25.7440 C   0  0  0  0  0  0  0  0  0  0  0  0
   -0.3750   27.4660  -24.3120 C   0  0  0  0  0  0  0  0  0  0  0  0
   -0.8550   26.1000  -23.8110 C   0  0  0  0  0  0  0  0  0  0  0  0
   -0.4210   24.9570  -24.7560 C   0  0  0  0  0  0  0  0  0  0  0  0
   -1.9510   24.5100  -28.7330 C   0  0  0  0  0  0  0  0  0  0  0  0
   -5.4510   22.6810  -31.4810 C   0  0  0  0  0  0  0  0  0  0  0  0
   -6.0630   21.4890  -31.9300 C   0  0  0  0  0  0  0  0  0  0  0  0
   -5.3370   20.3210  -32.3030 C   0  0  0  0  0  0  0  0  0  0  0  0
   -6.0460   19.1680  -32.7070 C   0  0  0  0  0  0  0  0  0  0  0  0
   -5.2800   17.9120  -33.0520 C   0  0  0  0  0  0  0  0  0  0  0  0
   -4.0090   18.2320  -34.3280 S   0  0  0  0  0  0  0  0  0  0  0  0
   -3.3270   19.8240  -33.7060 C   0  0  0  0  0  0  0  0  0  0  0  0
   -3.8220   20.2240  -32.3130 C   0  0  0  0  0  0  0  0  0  0  0  0
   -9.3380   22.5239  -31.7016 H   0  0  0  0  0  0  0  0  0  0  0  0
   -8.2246   24.5992  -30.8939 H   0  0  0  0  0  0  0  0  0  0  0  0
   -4.6182   22.4913  -29.4548 H   0  0  0  0  0  0  0  0  0  0  0  0
   -3.4935   21.0673  -27.7422 H   0  0  0  0  0  0  0  0  0  0  0  0
   -1.3452   21.8113  -26.7148 H   0  0  0  0  0  0  0  0  0  0  0  0
   -0.5188   26.7220  -27.6317 H   0  0  0  0  0  0  0  0  0  0  0  0
   -1.8585   26.0300  -26.6416 H   0  0  0  0  0  0  0  0  0  0  0  0
   -0.2148   28.4860  -26.2071 H   0  0  0  0  0  0  0  0  0  0  0  0
   -1.9075   28.0785  -25.6828 H   0  0  0  0  0  0  0  0  0  0  0  0
    0.7247   27.4881  -24.2988 H   0  0  0  0  0  0  0  0  0  0  0  0
   -0.7836   28.2452  -23.6518 H   0  0  0  0  0  0  0  0  0  0  0  0
   -0.4301   25.9175  -22.8129 H   0  0  0  0  0  0  0  0  0  0  0  0
   -1.9543   26.1158  -23.7760 H   0  0  0  0  0  0  0  0  0  0  0  0
    0.3782   24.3791  -24.2689 H   0  0  0  0  0  0  0  0  0  0  0  0
   -1.3033   24.3313  -24.9559 H   0  0  0  0  0  0  0  0  0  0  0  0
   -1.5352   25.4967  -28.9849 H   0  0  0  0  0  0  0  0  0  0  0  0
   -4.3539   22.7403  -31.4268 H   0  0  0  0  0  0  0  0  0  0  0  0
   -4.7878   17.5327  -32.1443 H   0  0  0  0  0  0  0  0  0  0  0  0
   -5.9905   17.1725  -33.4500 H   0  0  0  0  0  0  0  0  0  0  0  0
   -2.2310   19.7379  -33.6699 H   0  0  0  0  0  0  0  0  0  0  0  0
   -3.6736   20.6054  -34.3983 H   0  0  0  0  0  0  0  0  0  0  0  0
   -3.5015   19.4669  -31.5822 H   0  0  0  0  0  0  0  0  0  0  0  0
   -3.3978   21.2040  -32.0490 H   0  0  0  0  0  0  0  0  0  0  0  0
  1  2  2  0
  2  3  1  0
  3  4  1  0
  4  5  2  0
  5  6  1  0
  6  7  2  0
  7  8  1  0
  8  9  2  0
  8 10  2  0
  8 11  1  0
 11 12  1  0
 12 13  2  0
 13 14  1  0
 14 15  2  0
 15 16  1  0
 16 17  1  0
 17 18  2  0
 17 19  2  0
 17 20  1  0
 20 21  1  0
 21 22  1  0
 22 23  1  0
 23 24  1  0
 24 25  1  0
 16 26  2  0
  7 27  1  0
 27 28  2  0
 28 29  1  0
 29 30  2  0
 30 31  1  0
 31 32  1  0
 32 33  1  0
 33 34  1  0
 30  2  1  0
 28  4  1  0
 34 29  1  0
 26 12  1  0
 25 20  1  0
  5 35  1  0
  6 36  1  0
 13 37  1  0
 14 38  1  0
 15 39  1  0
 21 40  1  0
 21 41  1  0
 22 42  1  0
 22 43  1  0
 23 44  1  0
 23 45  1  0
 24 46  1  0
 24 47  1  0
 25 48  1  0
 25 49  1  0
 26 50  1  0
 27 51  1  0
 31 52  1  0
 31 53  1  0
 33 54  1  0
 33 55  1  0
 34 56  1  0
 34 57  1  0
M  CHG  2   3  -1  11  -1
M  END
>  <UniqueID>  (49) 
49

>  <SMILES>  (49) 
O=c1[n-]c2ccc(S(=O)(=O)[N-]c3cccc(S(=O)(=O)N4CCCCC4)c3)cc2c2c1CSCC2

>  <Energy>  (49) 
78.84330458364548

>  <Genealogy>  (49) 
O=c1[n-]c2ccc(S(=O)(=O)[N-]c3cccc(S(=O)(=O)N4CCCCC4)c3)cc2c2c1CSCC2 (protonated)
O=c1[n-]c2ccc(S(=O)(=O)[N-]c3cccc(S(=O)(=O)N4CCCCC4)c3)cc2c2c1CSCC2 (3D coordinates assigned)
O=c1[n-]c2ccc(S(=O)(=O)[N-]c3cccc(S(=O)(=O)N4CCCCC4)c3)cc2c2c1CSCC2 (nonaromatic ring conformer: 78.84330458364548 kcal/mol)

>  <smiles>  (49) 
O=c1[nH]c2ccc(S(=O)(=O)Nc3cccc(S(=O)(=O)N4CCCCC4)c3)cc2c2c1CSCC2

>  <score_type>  (49) 
oracle

>  <origin>  (49) 
adgpu

>  <m_score__min__energy>  (49) 
-12.779999999999999

>  <m_primary>  (49) 
energy

$$$$
49:0
     RDKit          3D

 44 46  0  0  0  0  0  0  0  0999 V2000
   -7.9630   22.9850  -31.4390 C   0  0  0  0  0  0  0  0  0  0  0  0
   -6.6640   23.5710  -30.9700 C   0  0  0  0  0  0  0  0  0  0  0  0
   -6.6090   24.9010  -30.5380 C   0  0  0  0  0  0  0  0  0  0  0  0
   -5.3950   25.4580  -30.1300 C   0  0  0  0  0  0  0  0  0  0  0  0
   -4.2220   24.6980  -30.1610 C   0  0  0  0  0  0  0  0  0  0  0  0
   -3.0340   25.2950  -29.7510 O   0  0  0  0  0  0  0  0  0  0  0  0
   -4.2530   23.3570  -30.6110 C   0  0  0  0  0  0  0  0  0  0  0  0
   -3.0270   22.5160  -30.6510 C   0  0  0  0  0  0  0  0  0  0  0  0
   -2.5080   22.0950  -29.5820 O   0  0  0  0  0  0  0  0  0  0  0  0
   -2.4040   22.2200  -31.9090 N   0  0  0  0  0  0  0  0  0  0  0  0
   -2.5460   21.0080  -32.6680 C   0  0  0  0  0  0  0  0  0  0  0  0
   -3.7510   20.2830  -32.6830 C   0  0  0  0  0  0  0  0  0  0  0  0
   -3.8670   19.1150  -33.4510 C   0  0  0  0  0  0  0  0  0  0  0  0
   -5.3890   18.2270  -33.4570 S   0  0  0  0  0  0  0  0  0  0  0  0
   -5.1010   16.7790  -33.1750 O   0  0  0  0  0  0  0  0  0  0  0  0
   -6.0480   18.3410  -34.8060 O   0  0  0  0  0  0  0  0  0  0  0  0
   -6.4470   18.8760  -32.2270 N   0  0  0  0  0  0  0  0  0  0  0  0
   -7.0190   20.1770  -32.6440 C   0  0  0  0  0  0  0  0  0  0  0  0
   -8.4920   20.0540  -33.0700 C   0  0  0  0  0  0  0  0  0  0  0  0
   -9.3280   19.5330  -32.0450 O   0  0  0  0  0  0  0  0  0  0  0  0
   -8.6900   18.5630  -31.2210 C   0  0  0  0  0  0  0  0  0  0  0  0
   -7.4760   17.8800  -31.8740 C   0  0  0  0  0  0  0  0  0  0  0  0
   -2.7800   18.6790  -34.2190 C   0  0  0  0  0  0  0  0  0  0  0  0
   -1.5910   19.4110  -34.2300 C   0  0  0  0  0  0  0  0  0  0  0  0
   -1.4750   20.5750  -33.4640 C   0  0  0  0  0  0  0  0  0  0  0  0
   -0.2860   21.2980  -33.4900 O   0  0  0  0  0  0  0  0  0  0  0  0
   -5.4860   22.8120  -31.0250 C   0  0  0  0  0  0  0  0  0  0  0  0
   -8.5760   22.7085  -30.5685 H   0  0  0  0  0  0  0  0  0  0  0  0
   -8.5020   23.7271  -32.0462 H   0  0  0  0  0  0  0  0  0  0  0  0
   -7.7634   22.0897  -32.0462 H   0  0  0  0  0  0  0  0  0  0  0  0
   -7.5250   25.5097  -30.5197 H   0  0  0  0  0  0  0  0  0  0  0  0
   -5.3616   26.5010  -29.7821 H   0  0  0  0  0  0  0  0  0  0  0  0
   -4.6077   20.6340  -32.0889 H   0  0  0  0  0  0  0  0  0  0  0  0
   -6.9516   20.8802  -31.8009 H   0  0  0  0  0  0  0  0  0  0  0  0
   -6.4453   20.5358  -33.5113 H   0  0  0  0  0  0  0  0  0  0  0  0
   -8.8603   21.0524  -33.3483 H   0  0  0  0  0  0  0  0  0  0  0  0
   -8.5312   19.3500  -33.9143 H   0  0  0  0  0  0  0  0  0  0  0  0
   -8.3515   19.0614  -30.3006 H   0  0  0  0  0  0  0  0  0  0  0  0
   -9.4318   17.7735  -31.0305 H   0  0  0  0  0  0  0  0  0  0  0  0
   -7.0479   17.1525  -31.1687 H   0  0  0  0  0  0  0  0  0  0  0  0
   -7.8066   17.3715  -32.7917 H   0  0  0  0  0  0  0  0  0  0  0  0
   -2.8631   17.7580  -34.8147 H   0  0  0  0  0  0  0  0  0  0  0  0
   -0.7432   19.0710  -34.8430 H   0  0  0  0  0  0  0  0  0  0  0  0
   -5.5243   21.7772  -31.3962 H   0  0  0  0  0  0  0  0  0  0  0  0
  1  2  1  0
  2  3  2  0
  3  4  1  0
  4  5  2  0
  5  6  1  0
  5  7  1  0
  7  8  1  0
  8  9  2  0
  8 10  1  0
 10 11  1  0
 11 12  2  0
 12 13  1  0
 13 14  1  0
 14 15  2  0
 14 16  2  0
 14 17  1  0
 17 18  1  0
 18 19  1  0
 19 20  1  0
 20 21  1  0
 21 22  1  0
 13 23  2  0
 23 24  1  0
 24 25  2  0
 25 26  1  0
  7 27  2  0
 27  2  1  0
 25 11  1  0
 22 17  1  0
  1 28  1  0
  1 29  1  0
  1 30  1  0
  3 31  1  0
  4 32  1  0
 12 33  1  0
 18 34  1  0
 18 35  1  0
 19 36  1  0
 19 37  1  0
 21 38  1  0
 21 39  1  0
 22 40  1  0
 22 41  1  0
 23 42  1  0
 24 43  1  0
 27 44  1  0
M  CHG  3   6  -1  10  -1  26  -1
M  END
>  <UniqueID>  (50) 
50

>  <SMILES>  (50) 
Cc1ccc([O-])c(C(=O)[N-]c2cc(S(=O)(=O)N3CCOCC3)ccc2[O-])c1

>  <Energy>  (50) 
63.39739948016433

>  <Genealogy>  (50) 
Cc1ccc([O-])c(C(=O)[N-]c2cc(S(=O)(=O)N3CCOCC3)ccc2[O-])c1 (protonated)
Cc1ccc([O-])c(C(=O)[N-]c2cc(S(=O)(=O)N3CCOCC3)ccc2[O-])c1 (3D coordinates assigned)
Cc1ccc([O-])c(C(=O)[N-]c2cc(S(=O)(=O)N3CCOCC3)ccc2[O-])c1 (nonaromatic ring conformer: 63.39739948016433 kcal/mol)

>  <smiles>  (50) 
Cc1ccc(O)c(C(=O)Nc2cc(S(=O)(=O)N3CCOCC3)ccc2O)c1

>  <score_type>  (50) 
oracle

>  <origin>  (50) 
adgpu

>  <m_score__min__energy>  (50) 
-14.93

>  <m_primary>  (50) 
energy

$$$$
