0:0
     RDKit          3D

 46 49  0  0  0  0  0  0  0  0999 V2000
   -1.4410   20.6640  -26.4750 C   0  0  0  0  0  0  0  0  0  0  0  0
   -0.9370   22.1040  -26.4700 C   0  0  0  0  0  0  0  0  0  0  0  0
   -1.7200   22.9400  -27.4460 C   0  0  0  0  0  0  0  0  0  0  0  0
   -3.1140   22.8050  -27.5330 C   0  0  0  0  0  0  0  0  0  0  0  0
   -3.8330   23.5190  -28.4960 C   0  0  0  0  0  0  0  0  0  0  0  0
   -3.1610   24.3530  -29.4050 C   0  0  0  0  0  0  0  0  0  0  0  0
   -3.8570   25.0200  -30.4680 N   0  0  0  0  0  0  0  0  0  0  0  0
   -5.0800   24.5790  -31.0770 C   0  0  0  0  0  0  0  0  0  0  0  0
   -6.0290   25.4000  -31.1870 O   0  0  0  0  0  0  0  0  0  0  0  0
   -5.2100   23.2230  -31.6730 C   0  0  0  0  0  0  0  0  0  0  0  0
   -4.0540   22.6110  -32.1820 C   0  0  0  0  0  0  0  0  0  0  0  0
   -4.1070   21.3130  -32.7060 C   0  0  0  0  0  0  0  0  0  0  0  0
   -2.8790   20.6120  -33.1530 C   0  0  0  0  0  0  0  0  0  0  0  0
   -1.6050   21.1820  -32.9580 C   0  0  0  0  0  0  0  0  0  0  0  0
   -0.4540   20.4970  -33.3590 C   0  0  0  0  0  0  0  0  0  0  0  0
   -0.5590   19.2370  -33.9530 C   0  0  0  0  0  0  0  0  0  0  0  0
   -1.8160   18.6570  -34.1410 C   0  0  0  0  0  0  0  0  0  0  0  0
   -2.9700   19.3360  -33.7390 C   0  0  0  0  0  0  0  0  0  0  0  0
   -5.3050   20.6780  -32.7880 N   0  0  0  0  0  0  0  0  0  0  0  0
   -6.4580   21.2390  -32.3390 C   0  0  0  0  0  0  0  0  0  0  0  0
   -7.6560   20.5200  -32.4380 C   0  0  0  0  0  0  0  0  0  0  0  0
   -8.8400   21.0570  -31.9320 C   0  0  0  0  0  0  0  0  0  0  0  0
   -8.8330   22.3080  -31.3130 C   0  0  0  0  0  0  0  0  0  0  0  0
   -7.6450   23.0370  -31.2100 C   0  0  0  0  0  0  0  0  0  0  0  0
   -6.4420   22.5250  -31.7410 C   0  0  0  0  0  0  0  0  0  0  0  0
   -1.7760   24.5190  -29.2910 C   0  0  0  0  0  0  0  0  0  0  0  0
   -1.0560   23.8070  -28.3280 C   0  0  0  0  0  0  0  0  0  0  0  0
   -1.5632   20.3147  -25.4391 H   0  0  0  0  0  0  0  0  0  0  0  0
   -2.4093   20.6162  -26.9947 H   0  0  0  0  0  0  0  0  0  0  0  0
   -0.7138   20.0228  -26.9947 H   0  0  0  0  0  0  0  0  0  0  0  0
   -1.0518   22.5242  -25.4599 H   0  0  0  0  0  0  0  0  0  0  0  0
    0.1225   22.1110  -26.7656 H   0  0  0  0  0  0  0  0  0  0  0  0
   -3.6434   22.1343  -26.8403 H   0  0  0  0  0  0  0  0  0  0  0  0
   -4.9282   23.4275  -28.5421 H   0  0  0  0  0  0  0  0  0  0  0  0
   -3.0982   23.1553  -32.1693 H   0  0  0  0  0  0  0  0  0  0  0  0
   -1.5156   22.1722  -32.4873 H   0  0  0  0  0  0  0  0  0  0  0  0
    0.5362   20.9511  -33.2065 H   0  0  0  0  0  0  0  0  0  0  0  0
    0.3474   18.7019  -34.2725 H   0  0  0  0  0  0  0  0  0  0  0  0
   -1.8979   17.6637  -34.6064 H   0  0  0  0  0  0  0  0  0  0  0  0
   -3.9559   18.8695  -33.8818 H   0  0  0  0  0  0  0  0  0  0  0  0
   -7.6633   19.5293  -32.9160 H   0  0  0  0  0  0  0  0  0  0  0  0
   -9.7806   20.4936  -32.0210 H   0  0  0  0  0  0  0  0  0  0  0  0
   -9.7666   22.7220  -30.9044 H   0  0  0  0  0  0  0  0  0  0  0  0
   -7.6478   24.0174  -30.7112 H   0  0  0  0  0  0  0  0  0  0  0  0
   -1.2513   25.2138  -29.9632 H   0  0  0  0  0  0  0  0  0  0  0  0
    0.0354   23.9264  -28.2608 H   0  0  0  0  0  0  0  0  0  0  0  0
  1  2  1  0
  2  3  1  0
  3  4  2  0
  4  5  1  0
  5  6  2  0
  6  7  1  0
  7  8  1  0
  8  9  2  0
  8 10  1  0
 10 11  2  0
 11 12  1  0
 12 13  1  0
 13 14  2  0
 14 15  1  0
 15 16  2  0
 16 17  1  0
 17 18  2  0
 12 19  2  0
 19 20  1  0
 20 21  2  0
 21 22  1  0
 22 23  2  0
 23 24  1  0
 24 25  2  0
  6 26  1  0
 26 27  2  0
 27  3  1  0
 25 10  1  0
 18 13  1  0
 25 20  1  0
  1 28  1  0
  1 29  1  0
  1 30  1  0
  2 31  1  0
  2 32  1  0
  4 33  1  0
  5 34  1  0
 11 35  1  0
 14 36  1  0
 15 37  1  0
 16 38  1  0
 17 39  1  0
 18 40  1  0
 21 41  1  0
 22 42  1  0
 23 43  1  0
 24 44  1  0
 26 45  1  0
 27 46  1  0
M  CHG  1   7  -1
M  END
>  <UniqueID>  (1) 
1

>  <SMILES>  (1) 
CCc1ccc([N-]C(=O)c2cc(-c3ccccc3)nc3ccccc23)cc1

>  <Energy>  (1) 
63.446248199615475

>  <Genealogy>  (1) 
CCc1ccc([N-]C(=O)c2cc(-c3ccccc3)nc3ccccc23)cc1 (protonated)
CCc1ccc([N-]C(=O)c2cc(-c3ccccc3)nc3ccccc23)cc1 (3D coordinates assigned)
CCc1ccc([N-]C(=O)c2cc(-c3ccccc3)nc3ccccc23)cc1 (optimized conformer: 63.446248199615475 kcal/mol)

>  <smiles>  (1) 
CCc1ccc(NC(=O)c2cc(-c3ccccc3)nc3ccccc23)cc1

>  <score_type>  (1) 
oracle

>  <origin>  (1) 
adgpu

>  <m_score__min__energy>  (1) 
-10.720000000000001

>  <m_primary>  (1) 
energy

$$$$
1:0
     RDKit          3D

 60 63  0  0  0  0  0  0  0  0999 V2000
   -5.8770   12.1940  -34.5270 C   0  0  0  0  0  0  0  0  0  0  0  0
   -6.1920   13.3990  -33.7410 N   0  0  0  0  0  0  0  0  0  0  0  0
   -6.8840   14.3960  -34.5920 C   0  0  0  0  0  0  0  0  0  0  0  0
   -6.8490   15.8000  -33.9780 C   0  0  0  0  0  0  0  0  0  0  0  0
   -5.4620   16.2180  -33.7380 N   0  0  0  0  0  0  0  0  0  0  0  0
   -5.1310   17.6180  -33.6410 C   0  0  0  0  0  0  0  0  0  0  0  0
   -6.1040   18.5400  -33.4030 N   0  0  0  0  0  0  0  0  0  0  0  0
   -5.8140   19.8630  -33.3030 C   0  0  0  0  0  0  0  0  0  0  0  0
   -4.4930   20.3020  -33.4420 C   0  0  0  0  0  0  0  0  0  0  0  0
   -4.1500   21.7590  -33.2920 C   0  0  0  0  0  0  0  0  0  0  0  0
   -4.0590   22.1200  -31.8780 N   0  0  0  0  0  0  0  0  0  0  0  0
   -4.9500   23.0560  -31.2440 C   0  0  0  0  0  0  0  0  0  0  0  0
   -6.3170   23.0540  -31.5790 C   0  0  0  0  0  0  0  0  0  0  0  0
   -7.2130   23.8970  -30.9210 C   0  0  0  0  0  0  0  0  0  0  0  0
   -6.7610   24.7480  -29.9160 C   0  0  0  0  0  0  0  0  0  0  0  0
   -5.4070   24.7720  -29.5740 C   0  0  0  0  0  0  0  0  0  0  0  0
   -4.4830   23.9420  -30.2360 C   0  0  0  0  0  0  0  0  0  0  0  0
   -3.0450   24.0680  -29.8930 C   0  0  0  0  0  0  0  0  0  0  0  0
   -2.2610   23.0970  -30.0740 O   0  0  0  0  0  0  0  0  0  0  0  0
   -2.5520   25.2960  -29.3400 N   0  0  0  0  0  0  0  0  0  0  0  0
   -1.6250   25.4340  -28.2540 C   0  0  0  0  0  0  0  0  0  0  0  0
   -1.5830   24.4310  -27.2770 C   0  0  0  0  0  0  0  0  0  0  0  0
   -0.7020   24.5300  -26.1950 C   0  0  0  0  0  0  0  0  0  0  0  0
    0.1380   25.6440  -26.0720 C   0  0  0  0  0  0  0  0  0  0  0  0
    1.2400   25.7760  -24.7050 S   0  0  0  0  0  0  0  0  0  0  0  0
    0.4020   26.4320  -23.3430 N   0  0  0  0  0  0  0  0  0  0  0  0
    1.7810   24.4180  -24.3550 O   0  0  0  0  0  0  0  0  0  0  0  0
    2.3920   26.6740  -25.0650 O   0  0  0  0  0  0  0  0  0  0  0  0
    0.0720   26.6690  -27.0250 C   0  0  0  0  0  0  0  0  0  0  0  0
   -0.8070   26.5690  -28.1090 C   0  0  0  0  0  0  0  0  0  0  0  0
   -3.5040   19.3420  -33.6800 C   0  0  0  0  0  0  0  0  0  0  0  0
   -3.8410   18.0300  -33.7770 N   0  0  0  0  0  0  0  0  0  0  0  0
   -4.4160   15.1910  -33.6520 C   0  0  0  0  0  0  0  0  0  0  0  0
   -4.9910   13.9100  -33.0330 C   0  0  0  0  0  0  0  0  0  0  0  0
   -5.6586   11.3585  -33.8456 H   0  0  0  0  0  0  0  0  0  0  0  0
   -6.7375   11.9346  -35.1612 H   0  0  0  0  0  0  0  0  0  0  0  0
   -4.9996   12.3889  -35.1612 H   0  0  0  0  0  0  0  0  0  0  0  0
   -6.3916   14.4262  -35.5752 H   0  0  0  0  0  0  0  0  0  0  0  0
   -7.9372   14.0917  -34.6829 H   0  0  0  0  0  0  0  0  0  0  0  0
   -7.3274   16.5099  -34.6688 H   0  0  0  0  0  0  0  0  0  0  0  0
   -7.3885   15.7844  -33.0195 H   0  0  0  0  0  0  0  0  0  0  0  0
   -6.6178   20.5894  -33.1127 H   0  0  0  0  0  0  0  0  0  0  0  0
   -3.1834   21.9554  -33.7788 H   0  0  0  0  0  0  0  0  0  0  0  0
   -4.9408   22.3613  -33.7631 H   0  0  0  0  0  0  0  0  0  0  0  0
   -3.2730   21.7100  -31.3230 H   0  0  0  0  0  0  0  0  0  0  0  0
   -6.6829   22.3806  -32.3681 H   0  0  0  0  0  0  0  0  0  0  0  0
   -8.2779   23.8893  -31.1966 H   0  0  0  0  0  0  0  0  0  0  0  0
   -7.4716   25.4027  -29.3903 H   0  0  0  0  0  0  0  0  0  0  0  0
   -5.0589   25.4471  -28.7784 H   0  0  0  0  0  0  0  0  0  0  0  0
   -2.2480   23.5588  -27.3613 H   0  0  0  0  0  0  0  0  0  0  0  0
   -0.6688   23.7314  -25.4393 H   0  0  0  0  0  0  0  0  0  0  0  0
   -0.1840   25.6610  -22.9480 H   0  0  0  0  0  0  0  0  0  0  0  0
    1.1220   26.6620  -22.6210 H   0  0  0  0  0  0  0  0  0  0  0  0
    0.7140   27.5561  -26.9205 H   0  0  0  0  0  0  0  0  0  0  0  0
   -0.8585   27.3804  -28.8500 H   0  0  0  0  0  0  0  0  0  0  0  0
   -2.4535   19.6496  -33.7886 H   0  0  0  0  0  0  0  0  0  0  0  0
   -4.0377   14.9704  -34.6611 H   0  0  0  0  0  0  0  0  0  0  0  0
   -3.5956   15.5618  -33.0200 H   0  0  0  0  0  0  0  0  0  0  0  0
   -4.2141   13.1317  -33.0583 H   0  0  0  0  0  0  0  0  0  0  0  0
   -5.3003   14.1565  -32.0066 H   0  0  0  0  0  0  0  0  0  0  0  0
  1  2  1  0
  2  3  1  0
  3  4  1  0
  4  5  1  0
  5  6  1  0
  6  7  2  0
  7  8  1  0
  8  9  2  0
  9 10  1  0
 10 11  1  0
 11 12  1  0
 12 13  2  0
 13 14  1  0
 14 15  2  0
 15 16  1  0
 16 17  2  0
 17 18  1  0
 18 19  2  0
 18 20  1  0
 20 21  1  0
 21 22  2  0
 22 23  1  0
 23 24  2  0
 24 25  1  0
 25 26  1  0
 25 27  2  0
 25 28  2  0
 24 29  1  0
 29 30  2  0
  9 31  1  0
 31 32  2  0
  5 33  1  0
 33 34  1  0
 34  2  1  0
 32  6  1  0
 17 12  1  0
 30 21  1  0
  1 35  1  0
  1 36  1  0
  1 37  1  0
  3 38  1  0
  3 39  1  0
  4 40  1  0
  4 41  1  0
  8 42  1  0
 10 43  1  0
 10 44  1  0
 11 45  1  0
 13 46  1  0
 14 47  1  0
 15 48  1  0
 16 49  1  0
 22 50  1  0
 23 51  1  0
 26 52  1  0
 26 53  1  0
 29 54  1  0
 30 55  1  0
 31 56  1  0
 33 57  1  0
 33 58  1  0
 34 59  1  0
 34 60  1  0
M  CHG  1  20  -1
M  END
>  <UniqueID>  (2) 
2

>  <SMILES>  (2) 
CN1CCN(c2ncc(CNc3ccccc3C(=O)[N-]c3ccc(S(N)(=O)=O)cc3)cn2)CC1

>  <Energy>  (2) 
77.69382283244816

>  <Genealogy>  (2) 
CN1CCN(c2ncc(CNc3ccccc3C(=O)[N-]c3ccc(S(N)(=O)=O)cc3)cn2)CC1 (protonated)
CN1CCN(c2ncc(CNc3ccccc3C(=O)[N-]c3ccc(S(N)(=O)=O)cc3)cn2)CC1 (3D coordinates assigned)
CN1CCN(c2ncc(CNc3ccccc3C(=O)[N-]c3ccc(S(N)(=O)=O)cc3)cn2)CC1 (nonaromatic ring conformer: 77.69382283244816 kcal/mol)

>  <smiles>  (2) 
CN1CCN(c2ncc(CNc3ccccc3C(=O)Nc3ccc(S(N)(=O)=O)cc3)cn2)CC1

>  <score_type>  (2) 
oracle

>  <origin>  (2) 
adgpu

>  <m_score__min__energy>  (2) 
-10.24

>  <m_primary>  (2) 
energy

$$$$
2:0
     RDKit          3D

 22 23  0  0  0  0  0  0  0  0999 V2000
   -3.8620   25.6610  -30.4760 O   0  0  0  0  0  0  0  0  0  0  0  0
   -4.8840   24.7250  -30.5920 C   0  0  0  0  0  0  0  0  0  0  0  0
   -4.6740   23.5570  -31.3310 C   0  0  0  0  0  0  0  0  0  0  0  0
   -5.6920   22.5950  -31.4570 C   0  0  0  0  0  0  0  0  0  0  0  0
   -5.4280   21.3570  -32.2260 C   0  0  0  0  0  0  0  0  0  0  0  0
   -4.2370   20.6350  -32.0420 C   0  0  0  0  0  0  0  0  0  0  0  0
   -4.0260   19.4610  -32.7680 C   0  0  0  0  0  0  0  0  0  0  0  0
   -4.9980   19.0140  -33.6630 C   0  0  0  0  0  0  0  0  0  0  0  0
   -6.1730   19.7510  -33.8190 C   0  0  0  0  0  0  0  0  0  0  0  0
   -6.3620   20.8910  -33.1040 N   0  0  0  0  0  0  0  0  0  0  0  0
   -6.9380   22.8280  -30.8300 C   0  0  0  0  0  0  0  0  0  0  0  0
   -8.4240   21.6260  -31.0060 Br  0  0  0  0  0  0  0  0  0  0  0  0
   -7.1390   24.0030  -30.0930 C   0  0  0  0  0  0  0  0  0  0  0  0
   -6.1160   24.9500  -29.9700 C   0  0  0  0  0  0  0  0  0  0  0  0
   -6.3170   26.1170  -29.2350 O   0  0  0  0  0  0  0  0  0  0  0  0
   -3.7026   23.3887  -31.8189 H   0  0  0  0  0  0  0  0  0  0  0  0
   -3.4767   20.9917  -31.3316 H   0  0  0  0  0  0  0  0  0  0  0  0
   -3.0954   18.8900  -32.6344 H   0  0  0  0  0  0  0  0  0  0  0  0
   -4.8402   18.0906  -34.2396 H   0  0  0  0  0  0  0  0  0  0  0  0
   -6.9470   19.4086  -34.5216 H   0  0  0  0  0  0  0  0  0  0  0  0
   -8.1094   24.1824  -29.6070 H   0  0  0  0  0  0  0  0  0  0  0  0
   -5.5420   26.7130  -28.9660 H   0  0  0  0  0  0  0  0  0  0  0  0
  1  2  1  0
  2  3  2  0
  3  4  1  0
  4  5  1  0
  5  6  2  0
  6  7  1  0
  7  8  2  0
  8  9  1  0
  9 10  2  0
  4 11  2  0
 11 12  1  0
 11 13  1  0
 13 14  2  0
 14 15  1  0
 14  2  1  0
 10  5  1  0
  3 16  1  0
  6 17  1  0
  7 18  1  0
  8 19  1  0
  9 20  1  0
 13 21  1  0
 15 22  1  0
M  CHG  1   1  -1
M  END
>  <UniqueID>  (3) 
3

>  <SMILES>  (3) 
[O-]c1cc(-c2ccccn2)c(Br)cc1O

>  <Energy>  (3) 
30.34997518679369

>  <Genealogy>  (3) 
[O-]c1cc(-c2ccccn2)c(Br)cc1O (protonated)
[O-]c1cc(-c2ccccn2)c(Br)cc1O (3D coordinates assigned)
[O-]c1cc(-c2ccccn2)c(Br)cc1O (optimized conformer: 30.34997518679369 kcal/mol)

>  <smiles>  (3) 
Oc1cc(Br)c(-c2ccccn2)cc1O

>  <score_type>  (3) 
oracle

>  <origin>  (3) 
adgpu

>  <m_score__min__energy>  (3) 
-9.7400000000000002

>  <m_primary>  (3) 
energy

$$$$
3:0
     RDKit          3D

 49 52  0  0  0  0  0  0  0  0999 V2000
   -2.7395   23.4718  -26.2168 H   0  0  0  0  0  0  0  0  0  0  0  0
   -2.8000   23.8360  -27.2530 C   0  0  0  0  0  0  0  0  0  0  0  0
   -4.2080   24.0160  -28.1540 S   0  0  0  0  0  0  0  0  0  0  0  0
   -3.3940   24.5840  -29.5140 C   0  0  0  0  0  0  0  0  0  0  0  0
   -3.9240   24.9320  -30.6510 N   0  0  0  0  0  0  0  0  0  0  0  0
   -5.3140   24.9230  -31.0130 C   0  0  0  0  0  0  0  0  0  0  0  0
   -5.9540   26.0000  -31.1510 O   0  0  0  0  0  0  0  0  0  0  0  0
   -6.0110   23.6420  -31.2490 C   0  0  0  0  0  0  0  0  0  0  0  0
   -7.3370   23.3950  -30.9380 C   0  0  0  0  0  0  0  0  0  0  0  0
   -8.0427   24.0932  -30.4642 H   0  0  0  0  0  0  0  0  0  0  0  0
   -7.6000   22.1010  -31.3390 C   0  0  0  0  0  0  0  0  0  0  0  0
   -8.9250   21.4160  -31.1910 C   0  0  0  0  0  0  0  0  0  0  0  0
   -9.1582   21.2955  -30.1228 H   0  0  0  0  0  0  0  0  0  0  0  0
   -9.7071   22.0228  -31.6708 H   0  0  0  0  0  0  0  0  0  0  0  0
   -8.8821   20.4271  -31.6708 H   0  0  0  0  0  0  0  0  0  0  0  0
   -6.4890   21.5370  -31.8650 N   0  0  0  0  0  0  0  0  0  0  0  0
   -6.3870   20.2080  -32.4040 C   0  0  0  0  0  0  0  0  0  0  0  0
   -6.6480   19.0940  -31.5910 C   0  0  0  0  0  0  0  0  0  0  0  0
   -6.9382   19.2380  -30.5398 H   0  0  0  0  0  0  0  0  0  0  0  0
   -6.5400   17.8010  -32.1140 C   0  0  0  0  0  0  0  0  0  0  0  0
   -6.7459   16.9303  -31.4741 H   0  0  0  0  0  0  0  0  0  0  0  0
   -6.1710   17.6150  -33.4480 C   0  0  0  0  0  0  0  0  0  0  0  0
   -6.0879   16.5977  -33.8581 H   0  0  0  0  0  0  0  0  0  0  0  0
   -5.9070   18.7200  -34.2630 C   0  0  0  0  0  0  0  0  0  0  0  0
   -5.6152   18.5717  -35.3132 H   0  0  0  0  0  0  0  0  0  0  0  0
   -6.0140   20.0140  -33.7430 C   0  0  0  0  0  0  0  0  0  0  0  0
   -5.8052   20.8822  -34.3854 H   0  0  0  0  0  0  0  0  0  0  0  0
   -5.5090   22.4710  -31.8120 C   0  0  0  0  0  0  0  0  0  0  0  0
   -4.0910   22.2470  -32.2620 C   0  0  0  0  0  0  0  0  0  0  0  0
   -3.4390   22.1440  -31.3821 H   0  0  0  0  0  0  0  0  0  0  0  0
   -4.0387   21.3295  -32.8665 H   0  0  0  0  0  0  0  0  0  0  0  0
   -3.7585   23.1038  -32.8665 H   0  0  0  0  0  0  0  0  0  0  0  0
   -2.0630   24.6400  -29.3030 N   0  0  0  0  0  0  0  0  0  0  0  0
   -1.7170   24.2300  -28.0500 C   0  0  0  0  0  0  0  0  0  0  0  0
   -0.2970   24.2050  -27.6090 C   0  0  0  0  0  0  0  0  0  0  0  0
    0.3490   25.4080  -27.2680 C   0  0  0  0  0  0  0  0  0  0  0  0
   -0.2014   26.3584  -27.3303 H   0  0  0  0  0  0  0  0  0  0  0  0
    1.6830   25.4070  -26.8510 C   0  0  0  0  0  0  0  0  0  0  0  0
    2.1740   26.3569  -26.5928 H   0  0  0  0  0  0  0  0  0  0  0  0
    2.3990   24.2100  -26.7590 C   0  0  0  0  0  0  0  0  0  0  0  0
    3.7360   24.2630  -26.3360 O   0  0  0  0  0  0  0  0  0  0  0  0
    4.2670   25.2650  -25.4750 C   0  0  0  0  0  0  0  0  0  0  0  0
    4.1101   24.9689  -24.4273 H   0  0  0  0  0  0  0  0  0  0  0  0
    5.3442   25.3795  -25.6663 H   0  0  0  0  0  0  0  0  0  0  0  0
    3.7570   26.2207  -25.6663 H   0  0  0  0  0  0  0  0  0  0  0  0
    1.7600   23.0020  -27.0920 C   0  0  0  0  0  0  0  0  0  0  0  0
    2.3131   22.0536  -27.0234 H   0  0  0  0  0  0  0  0  0  0  0  0
    0.4250   23.0000  -27.5100 C   0  0  0  0  0  0  0  0  0  0  0  0
   -0.0652   22.0485  -27.7637 H   0  0  0  0  0  0  0  0  0  0  0  0
  1  2  1  0
  2  3  1  0
  3  4  1  0
  4  5  2  0
  5  6  1  0
  6  7  2  0
  6  8  1  0
  8  9  1  0
  9 10  1  0
  9 11  2  0
 11 12  1  0
 12 13  1  0
 12 14  1  0
 12 15  1  0
 11 16  1  0
 16 17  1  0
 17 18  2  0
 18 19  1  0
 18 20  1  0
 20 21  1  0
 20 22  2  0
 22 23  1  0
 22 24  1  0
 24 25  1  0
 24 26  2  0
 26 27  1  0
 16 28  1  0
 28 29  1  0
 29 30  1  0
 29 31  1  0
 29 32  1  0
  4 33  1  0
 33 34  1  0
 34 35  1  0
 35 36  2  0
 36 37  1  0
 36 38  1  0
 38 39  1  0
 38 40  2  0
 40 41  1  0
 41 42  1  0
 42 43  1  0
 42 44  1  0
 42 45  1  0
 40 46  1  0
 46 47  1  0
 46 48  2  0
 48 49  1  0
 34  2  2  0
 48 35  1  0
 28  8  2  0
 26 17  1  0
M  CHG  1  33  -1
M  END
>  <UniqueID>  (4) 
4

>  <SMILES>  (4) 
COc1ccc(-c2cs/c(=N\C(=O)c3cc(C)n(-c4ccccc4)c3C)[n-]2)cc1

>  <Energy>  (4) 
120.43629145545987

>  <Genealogy>  (4) 
COc1ccc(-c2csc(=NC(=O)c3cc(C)n(-c4ccccc4)c3C)[n-]2)cc1 (protonated)
COc1ccc(-c2cs/c(=N\C(=O)c3cc(C)n(-c4ccccc4)c3C)[n-]2)cc1 (cis-trans isomerization)
COc1ccc(-c2cs/c(=N\C(=O)c3cc(C)n(-c4ccccc4)c3C)[n-]2)cc1 (3D coordinates assigned)
COc1ccc(-c2cs/c(=N\C(=O)c3cc(C)n(-c4ccccc4)c3C)[n-]2)cc1 (optimized conformer: 120.43629145545987 kcal/mol)

>  <smiles>  (4) 
COc1ccc(-c2csc(=NC(=O)c3cc(C)n(-c4ccccc4)c3C)[nH]2)cc1

>  <score_type>  (4) 
oracle

>  <origin>  (4) 
adgpu

>  <m_score__min__energy>  (4) 
-10.869999999999999

>  <m_primary>  (4) 
energy

$$$$
4:0
     RDKit          3D

 53 55  0  0  0  0  0  0  0  0999 V2000
   -6.3500   25.7020  -29.4710 C   0  0  0  0  0  0  0  0  0  0  0  0
   -5.3140   25.5320  -30.4290 O   0  0  0  0  0  0  0  0  0  0  0  0
   -4.7950   24.2910  -30.8300 C   0  0  0  0  0  0  0  0  0  0  0  0
   -5.5480   23.3800  -31.5960 C   0  0  0  0  0  0  0  0  0  0  0  0
   -4.9990   22.1550  -31.9760 C   0  0  0  0  0  0  0  0  0  0  0  0
   -3.6970   21.8280  -31.5970 C   0  0  0  0  0  0  0  0  0  0  0  0
   -2.9310   22.7330  -30.8580 C   0  0  0  0  0  0  0  0  0  0  0  0
   -3.4770   23.9650  -30.4640 C   0  0  0  0  0  0  0  0  0  0  0  0
   -2.7140   24.9240  -29.7190 N   0  0  0  0  0  0  0  0  0  0  0  0
   -1.7070   24.5720  -28.3550 S   0  0  0  0  0  0  0  0  0  0  0  0
   -2.2440   25.3010  -27.1560 O   0  0  0  0  0  0  0  0  0  0  0  0
   -0.3020   25.0170  -28.6470 O   0  0  0  0  0  0  0  0  0  0  0  0
   -1.7240   22.8300  -28.0370 C   0  0  0  0  0  0  0  0  0  0  0  0
   -0.5200   22.1140  -28.1440 C   0  0  0  0  0  0  0  0  0  0  0  0
   -0.4880   20.7310  -27.9320 C   0  0  0  0  0  0  0  0  0  0  0  0
    0.7290   20.0070  -28.1110 N   0  0  0  0  0  0  0  0  0  0  0  0
    0.9120   18.8880  -29.4280 S   0  0  0  0  0  0  0  0  0  0  0  0
   -0.1080   17.7850  -29.2800 O   0  0  0  0  0  0  0  0  0  0  0  0
    2.2920   18.2860  -29.3900 O   0  0  0  0  0  0  0  0  0  0  0  0
    0.6730   19.7070  -30.9710 C   0  0  0  0  0  0  0  0  0  0  0  0
    1.5570   19.4730  -32.0320 C   0  0  0  0  0  0  0  0  0  0  0  0
    1.3600   20.1000  -33.2640 C   0  0  0  0  0  0  0  0  0  0  0  0
    0.2660   20.9500  -33.4620 C   0  0  0  0  0  0  0  0  0  0  0  0
    0.1410   21.6210  -34.7250 N   0  0  0  0  0  0  0  0  0  0  0  0
    1.1750   22.2530  -35.4910 C   0  0  0  0  0  0  0  0  0  0  0  0
    2.1510   21.4730  -36.3130 C   0  0  0  0  0  0  0  0  0  0  0  0
    1.3010   23.5030  -35.4220 O   0  0  0  0  0  0  0  0  0  0  0  0
   -0.6160   21.1930  -32.3930 C   0  0  0  0  0  0  0  0  0  0  0  0
   -0.4190   20.5660  -31.1600 C   0  0  0  0  0  0  0  0  0  0  0  0
   -1.6580   20.0530  -27.5840 C   0  0  0  0  0  0  0  0  0  0  0  0
   -2.8620   20.7500  -27.4710 C   0  0  0  0  0  0  0  0  0  0  0  0
   -2.9110   22.1410  -27.6870 C   0  0  0  0  0  0  0  0  0  0  0  0
   -4.2380   22.8460  -27.5900 C   0  0  0  0  0  0  0  0  0  0  0  0
   -5.9274   25.6327  -28.4578 H   0  0  0  0  0  0  0  0  0  0  0  0
   -6.8168   26.6887  -29.6069 H   0  0  0  0  0  0  0  0  0  0  0  0
   -7.1076   24.9162  -29.6069 H   0  0  0  0  0  0  0  0  0  0  0  0
   -6.5748   23.6358  -31.8964 H   0  0  0  0  0  0  0  0  0  0  0  0
   -5.5924   21.4476  -32.5740 H   0  0  0  0  0  0  0  0  0  0  0  0
   -3.2718   20.8541  -31.8810 H   0  0  0  0  0  0  0  0  0  0  0  0
   -1.8963   22.4794  -30.5838 H   0  0  0  0  0  0  0  0  0  0  0  0
    0.4085   22.6467  -28.3974 H   0  0  0  0  0  0  0  0  0  0  0  0
    2.4101   18.7924  -31.8941 H   0  0  0  0  0  0  0  0  0  0  0  0
    2.0703   19.9244  -34.0854 H   0  0  0  0  0  0  0  0  0  0  0  0
    2.8356   20.9259  -35.6481 H   0  0  0  0  0  0  0  0  0  0  0  0
    1.6069   20.7581  -36.9477 H   0  0  0  0  0  0  0  0  0  0  0  0
    2.7284   22.1613  -36.9477 H   0  0  0  0  0  0  0  0  0  0  0  0
   -1.4645   21.8797  -32.5286 H   0  0  0  0  0  0  0  0  0  0  0  0
   -1.1232   20.7469  -30.3345 H   0  0  0  0  0  0  0  0  0  0  0  0
   -1.6308   18.9690  -27.3988 H   0  0  0  0  0  0  0  0  0  0  0  0
   -3.7825   20.2071  -27.2104 H   0  0  0  0  0  0  0  0  0  0  0  0
   -4.5021   22.9863  -26.5314 H   0  0  0  0  0  0  0  0  0  0  0  0
   -4.1693   23.8265  -28.0838 H   0  0  0  0  0  0  0  0  0  0  0  0
   -5.0120   22.2402  -28.0838 H   0  0  0  0  0  0  0  0  0  0  0  0
  1  2  1  0
  2  3  1  0
  3  4  2  0
  4  5  1  0
  5  6  2  0
  6  7  1  0
  7  8  2  0
  8  9  1  0
  9 10  1  0
 10 11  2  0
 10 12  2  0
 10 13  1  0
 13 14  2  0
 14 15  1  0
 15 16  1  0
 16 17  1  0
 17 18  2  0
 17 19  2  0
 17 20  1  0
 20 21  2  0
 21 22  1  0
 22 23  2  0
 23 24  1  0
 24 25  1  0
 25 26  1  0
 25 27  2  0
 23 28  1  0
 28 29  2  0
 15 30  2  0
 30 31  1  0
 31 32  2  0
 32 33  1  0
  8  3  1  0
 32 13  1  0
 29 20  1  0
  1 34  1  0
  1 35  1  0
  1 36  1  0
  4 37  1  0
  5 38  1  0
  6 39  1  0
  7 40  1  0
 14 41  1  0
 21 42  1  0
 22 43  1  0
 26 44  1  0
 26 45  1  0
 26 46  1  0
 28 47  1  0
 29 48  1  0
 30 49  1  0
 31 50  1  0
 33 51  1  0
 33 52  1  0
 33 53  1  0
M  CHG  3   9  -1  16  -1  24  -1
M  END
>  <UniqueID>  (5) 
5

>  <SMILES>  (5) 
COc1ccccc1[N-]S(=O)(=O)c1cc([N-]S(=O)(=O)c2ccc([N-]C(C)=O)cc2)ccc1C

>  <Energy>  (5) 
67.18635331121408

>  <Genealogy>  (5) 
COc1ccccc1[N-]S(=O)(=O)c1cc([N-]S(=O)(=O)c2ccc([N-]C(C)=O)cc2)ccc1C (protonated)
COc1ccccc1[N-]S(=O)(=O)c1cc([N-]S(=O)(=O)c2ccc([N-]C(C)=O)cc2)ccc1C (3D coordinates assigned)
COc1ccccc1[N-]S(=O)(=O)c1cc([N-]S(=O)(=O)c2ccc([N-]C(C)=O)cc2)ccc1C (optimized conformer: 67.18635331121408 kcal/mol)

>  <smiles>  (5) 
COc1ccccc1NS(=O)(=O)c1cc(NS(=O)(=O)c2ccc(NC(C)=O)cc2)ccc1C

>  <score_type>  (5) 
oracle

>  <origin>  (5) 
adgpu

>  <m_score__min__energy>  (5) 
-11.73

>  <m_primary>  (5) 
energy

$$$$
5:0
     RDKit          3D

 23 24  0  0  0  0  0  0  0  0999 V2000
    0.1210   26.6840  -27.7280 H   0  0  0  0  0  0  0  0  0  0  0  0
   -0.8410   26.4570  -28.0690 N   0  0  0  0  0  0  0  0  0  0  0  0
   -1.1140   25.3160  -28.6110 C   0  0  0  0  0  0  0  0  0  0  0  0
   -2.3760   25.0590  -29.0410 N   0  0  0  0  0  0  0  0  0  0  0  0
   -2.7040   23.8720  -29.6200 C   0  0  0  0  0  0  0  0  0  0  0  0
   -4.1000   23.6670  -30.0730 C   0  0  0  0  0  0  0  0  0  0  0  0
   -4.6690   22.3820  -30.0550 C   0  0  0  0  0  0  0  0  0  0  0  0
   -4.0815   21.5295  -29.6834 H   0  0  0  0  0  0  0  0  0  0  0  0
   -5.9760   22.1800  -30.5060 C   0  0  0  0  0  0  0  0  0  0  0  0
   -6.4156   21.1720  -30.4812 H   0  0  0  0  0  0  0  0  0  0  0  0
   -6.7250   23.2550  -30.9880 C   0  0  0  0  0  0  0  0  0  0  0  0
   -7.7548   23.0945  -31.3399 H   0  0  0  0  0  0  0  0  0  0  0  0
   -6.1660   24.5340  -31.0230 C   0  0  0  0  0  0  0  0  0  0  0  0
   -6.7569   25.3783  -31.4076 H   0  0  0  0  0  0  0  0  0  0  0  0
   -4.8560   24.7490  -30.5710 C   0  0  0  0  0  0  0  0  0  0  0  0
   -4.3100   26.0320  -30.6030 O   0  0  0  0  0  0  0  0  0  0  0  0
   -3.8640   26.4410  -29.7910 H   0  0  0  0  0  0  0  0  0  0  0  0
   -1.7090   22.8810  -29.7640 C   0  0  0  0  0  0  0  0  0  0  0  0
   -1.9940   21.5730  -30.3030 C   0  0  0  0  0  0  0  0  0  0  0  0
   -2.2210   20.5240  -30.7360 N   0  0  0  0  0  0  0  0  0  0  0  0
   -0.4170   23.1690  -29.3150 C   0  0  0  0  0  0  0  0  0  0  0  0
    0.3801   22.4180  -29.4180 H   0  0  0  0  0  0  0  0  0  0  0  0
   -0.1440   24.3740  -28.7520 N   0  0  0  0  0  0  0  0  0  0  0  0
  1  2  1  0
  2  3  2  0
  3  4  1  0
  4  5  2  0
  5  6  1  0
  6  7  2  0
  7  8  1  0
  7  9  1  0
  9 10  1  0
  9 11  2  0
 11 12  1  0
 11 13  1  0
 13 14  1  0
 13 15  2  0
 15 16  1  0
 16 17  1  0
  5 18  1  0
 18 19  1  0
 19 20  3  0
 18 21  2  0
 21 22  1  0
 21 23  1  0
 23  3  1  0
 15  6  1  0
M  CHG  1  23  -1
M  END
>  <UniqueID>  (6) 
6

>  <SMILES>  (6) 
[H]/N=c1/nc(-c2ccccc2O)c(C#N)c[n-]1

>  <Energy>  (6) 
31.157038181549765

>  <Genealogy>  (6) 
N#Cc1c[n-]c(=N)nc1-c1ccccc1O (protonated)
[H]/N=c1/nc(-c2ccccc2O)c(C#N)c[n-]1 (cis-trans isomerization)
[H]/N=c1/nc(-c2ccccc2O)c(C#N)c[n-]1 (3D coordinates assigned)
[H]/N=c1/nc(-c2ccccc2O)c(C#N)c[n-]1 (optimized conformer: 31.157038181549765 kcal/mol)

>  <smiles>  (6) 
N#Cc1c[nH]c(=N)nc1-c1ccccc1O

>  <score_type>  (6) 
oracle

>  <origin>  (6) 
adgpu

>  <m_score__min__energy>  (6) 
-8.0399999999999991

>  <m_primary>  (6) 
energy

$$$$
6:0
     RDKit          3D

 33 35  0  0  0  0  0  0  0  0999 V2000
  -10.3140   20.3370  -31.8470 H   0  0  0  0  0  0  0  0  0  0  0  0
   -9.8540   21.2500  -31.6380 N   0  0  0  0  0  0  0  0  0  0  0  0
   -8.6040   21.4540  -31.9020 C   0  0  0  0  0  0  0  0  0  0  0  0
   -7.8530   20.4700  -32.4630 N   0  0  0  0  0  0  0  0  0  0  0  0
   -6.5400   20.6820  -32.7460 C   0  0  0  0  0  0  0  0  0  0  0  0
   -5.7240   19.6110  -33.3690 C   0  0  0  0  0  0  0  0  0  0  0  0
   -6.3290   18.4300  -33.8420 C   0  0  0  0  0  0  0  0  0  0  0  0
   -7.4171   18.2985  -33.7479 H   0  0  0  0  0  0  0  0  0  0  0  0
   -5.5570   17.4240  -34.4300 C   0  0  0  0  0  0  0  0  0  0  0  0
   -6.0398   16.5066  -34.7977 H   0  0  0  0  0  0  0  0  0  0  0  0
   -4.1750   17.5800  -34.5520 C   0  0  0  0  0  0  0  0  0  0  0  0
   -3.5704   16.7857  -35.0142 H   0  0  0  0  0  0  0  0  0  0  0  0
   -3.5600   18.7450  -34.0870 C   0  0  0  0  0  0  0  0  0  0  0  0
   -2.1860   18.9000  -34.2100 O   0  0  0  0  0  0  0  0  0  0  0  0
   -4.3280   19.7550  -33.4980 C   0  0  0  0  0  0  0  0  0  0  0  0
   -3.8381   20.6695  -33.1324 H   0  0  0  0  0  0  0  0  0  0  0  0
   -5.9850   21.8880  -32.4570 N   0  0  0  0  0  0  0  0  0  0  0  0
   -6.7280   22.8710  -31.8860 C   0  0  0  0  0  0  0  0  0  0  0  0
   -6.1170   24.2090  -31.6130 C   0  0  0  0  0  0  0  0  0  0  0  0
   -5.5796   24.5540  -32.5087 H   0  0  0  0  0  0  0  0  0  0  0  0
   -6.9124   24.9245  -31.3574 H   0  0  0  0  0  0  0  0  0  0  0  0
   -5.1540   24.1080  -30.4620 C   0  0  0  0  0  0  0  0  0  0  0  0
   -5.3510   23.1460  -29.4570 C   0  0  0  0  0  0  0  0  0  0  0  0
   -6.2277   22.4828  -29.4971 H   0  0  0  0  0  0  0  0  0  0  0  0
   -4.4360   23.0290  -28.4060 C   0  0  0  0  0  0  0  0  0  0  0  0
   -4.5994   22.2816  -27.6157 H   0  0  0  0  0  0  0  0  0  0  0  0
   -3.3140   23.8610  -28.3590 C   0  0  0  0  0  0  0  0  0  0  0  0
   -2.5959   23.7683  -27.5309 H   0  0  0  0  0  0  0  0  0  0  0  0
   -3.1030   24.8110  -29.3630 C   0  0  0  0  0  0  0  0  0  0  0  0
   -1.9840   25.6330  -29.3170 O   0  0  0  0  0  0  0  0  0  0  0  0
   -4.0180   24.9320  -30.4150 C   0  0  0  0  0  0  0  0  0  0  0  0
   -3.8467   25.6751  -31.2077 H   0  0  0  0  0  0  0  0  0  0  0  0
   -8.0410   22.6540  -31.6180 N   0  0  0  0  0  0  0  0  0  0  0  0
  1  2  1  0
  2  3  2  0
  3  4  1  0
  4  5  2  0
  5  6  1  0
  6  7  2  0
  7  8  1  0
  7  9  1  0
  9 10  1  0
  9 11  2  0
 11 12  1  0
 11 13  1  0
 13 14  1  0
 13 15  2  0
 15 16  1  0
  5 17  1  0
 17 18  1  0
 18 19  1  0
 19 20  1  0
 19 21  1  0
 19 22  1  0
 22 23  2  0
 23 24  1  0
 23 25  1  0
 25 26  1  0
 25 27  2  0
 27 28  1  0
 27 29  1  0
 29 30  1  0
 29 31  2  0
 31 32  1  0
 18 33  2  0
 33  3  1  0
 15  6  1  0
 31 22  1  0
M  CHG  3  14  -1  17  -1  30  -1
M  END
>  <UniqueID>  (7) 
7

>  <SMILES>  (7) 
[H]/N=c1/nc(Cc2cccc([O-])c2)[n-]c(-c2cccc([O-])c2)n1

>  <Energy>  (7) 
35.753179001781035

>  <Genealogy>  (7) 
N=c1nc(Cc2cccc([O-])c2)[n-]c(-c2cccc([O-])c2)n1 (protonated)
[H]/N=c1/nc(Cc2cccc([O-])c2)[n-]c(-c2cccc([O-])c2)n1 (cis-trans isomerization)
[H]/N=c1/nc(Cc2cccc([O-])c2)[n-]c(-c2cccc([O-])c2)n1 (3D coordinates assigned)
[H]/N=c1/nc(Cc2cccc([O-])c2)[n-]c(-c2cccc([O-])c2)n1 (optimized conformer: 35.753179001781035 kcal/mol)

>  <smiles>  (7) 
N=c1nc(Cc2cccc(O)c2)[nH]c(-c2cccc(O)c2)n1

>  <score_type>  (7) 
oracle

>  <origin>  (7) 
adgpu

>  <m_score__min__energy>  (7) 
-11.140000000000001

>  <m_primary>  (7) 
energy

$$$$
7:0
     RDKit          3D

 58 61  0  0  0  0  0  0  0  0999 V2000
   -7.1300   24.5620  -30.4840 C   0  0  0  0  0  0  0  0  0  0  0  0
   -5.7130   24.0600  -30.4580 C   0  0  0  0  0  0  0  0  0  0  0  0
   -4.7050   24.8760  -29.9140 C   0  0  0  0  0  0  0  0  0  0  0  0
   -3.3800   24.4290  -29.8510 C   0  0  0  0  0  0  0  0  0  0  0  0
   -2.3870   25.2810  -29.2640 N   0  0  0  0  0  0  0  0  0  0  0  0
   -1.1770   24.8540  -28.6230 C   0  0  0  0  0  0  0  0  0  0  0  0
   -0.2720   24.3380  -29.3300 O   0  0  0  0  0  0  0  0  0  0  0  0
   -0.9400   25.0720  -27.1750 C   0  0  0  0  0  0  0  0  0  0  0  0
   -0.9740   26.3630  -26.6230 C   0  0  0  0  0  0  0  0  0  0  0  0
   -0.7550   26.5300  -25.2540 C   0  0  0  0  0  0  0  0  0  0  0  0
   -0.5030   25.4200  -24.4470 C   0  0  0  0  0  0  0  0  0  0  0  0
   -0.4740   24.1440  -25.0250 C   0  0  0  0  0  0  0  0  0  0  0  0
   -0.2240   22.9260  -24.1840 C   0  0  0  0  0  0  0  0  0  0  0  0
   -0.7070   21.7940  -24.8170 F   0  0  0  0  0  0  0  0  0  0  0  0
   -0.8630   23.0690  -22.9650 F   0  0  0  0  0  0  0  0  0  0  0  0
    1.1350   22.7720  -23.9710 F   0  0  0  0  0  0  0  0  0  0  0  0
   -0.7080   24.0080  -26.3590 N   0  0  0  0  0  0  0  0  0  0  0  0
   -3.0460   23.1790  -30.3960 C   0  0  0  0  0  0  0  0  0  0  0  0
   -4.0360   22.3680  -30.9540 C   0  0  0  0  0  0  0  0  0  0  0  0
   -5.3690   22.8000  -30.9940 C   0  0  0  0  0  0  0  0  0  0  0  0
   -6.3640   21.9460  -31.5740 N   0  0  0  0  0  0  0  0  0  0  0  0
   -7.5350   21.5080  -30.8430 C   0  0  0  0  0  0  0  0  0  0  0  0
   -8.2390   20.4950  -31.7380 C   0  0  0  0  0  0  0  0  0  0  0  0
   -7.4210   20.3950  -33.0520 C   0  0  2  0  0  0  0  0  0  0  0  0
   -7.0410   19.0120  -33.4770 N   0  0  1  0  0  0  0  0  0  0  0  0
   -6.0690   18.9290  -34.5920 C   0  0  0  0  0  0  0  0  0  0  0  0
   -5.0150   17.8980  -34.2140 C   0  0  0  0  0  0  0  0  0  0  0  0
   -5.6580   17.0790  -33.1140 C   0  0  0  0  0  0  0  0  0  0  0  0
   -6.5980   18.0620  -32.4190 C   0  0  1  0  0  0  0  0  0  0  0  0
   -5.8900   18.6910  -31.1980 C   0  0  0  0  0  0  0  0  0  0  0  0
   -6.1810   21.2850  -32.8490 C   0  0  0  0  0  0  0  0  0  0  0  0
   -7.4925   24.6904  -29.4534 H   0  0  0  0  0  0  0  0  0  0  0  0
   -7.1672   25.5280  -31.0088 H   0  0  0  0  0  0  0  0  0  0  0  0
   -7.7670   23.8348  -31.0088 H   0  0  0  0  0  0  0  0  0  0  0  0
   -4.9605   25.8761  -29.5340 H   0  0  0  0  0  0  0  0  0  0  0  0
   -1.1715   27.2351  -27.2636 H   0  0  0  0  0  0  0  0  0  0  0  0
   -0.7812   27.5368  -24.8117 H   0  0  0  0  0  0  0  0  0  0  0  0
   -0.3289   25.5454  -23.3681 H   0  0  0  0  0  0  0  0  0  0  0  0
   -2.0005   22.8374  -30.3833 H   0  0  0  0  0  0  0  0  0  0  0  0
   -3.7682   21.3834  -31.3650 H   0  0  0  0  0  0  0  0  0  0  0  0
   -7.2385   21.0375  -29.8940 H   0  0  0  0  0  0  0  0  0  0  0  0
   -8.1945   22.3535  -30.5977 H   0  0  0  0  0  0  0  0  0  0  0  0
   -8.2748   19.5143  -31.2411 H   0  0  0  0  0  0  0  0  0  0  0  0
   -9.2725   20.8097  -31.9452 H   0  0  0  0  0  0  0  0  0  0  0  0
   -8.0574   20.7324  -33.8833 H   0  0  0  0  0  0  0  0  0  0  0  0
   -7.9290   18.5870  -33.8440 H   0  0  0  0  0  0  0  0  0  0  0  0
   -6.5826   18.6186  -35.5139 H   0  0  0  0  0  0  0  0  0  0  0  0
   -5.6020   19.9092  -34.7687 H   0  0  0  0  0  0  0  0  0  0  0  0
   -4.7667   17.2623  -35.0767 H   0  0  0  0  0  0  0  0  0  0  0  0
   -4.0729   18.3644  -33.8901 H   0  0  0  0  0  0  0  0  0  0  0  0
   -6.2201   16.2324  -33.5351 H   0  0  0  0  0  0  0  0  0  0  0  0
   -4.9193   16.6426  -32.4256 H   0  0  0  0  0  0  0  0  0  0  0  0
   -7.4958   17.5978  -31.9849 H   0  0  0  0  0  0  0  0  0  0  0  0
   -6.3346   18.2960  -30.2727 H   0  0  0  0  0  0  0  0  0  0  0  0
   -4.8192   18.4410  -31.2261 H   0  0  0  0  0  0  0  0  0  0  0  0
   -6.0122   19.7838  -31.2261 H   0  0  0  0  0  0  0  0  0  0  0  0
   -5.2688   20.6705  -32.8327 H   0  0  0  0  0  0  0  0  0  0  0  0
   -6.0713   22.0129  -33.6663 H   0  0  0  0  0  0  0  0  0  0  0  0
  1  2  1  0
  2  3  2  0
  3  4  1  0
  4  5  1  0
  5  6  1  0
  6  7  2  0
  6  8  1  0
  8  9  2  0
  9 10  1  0
 10 11  2  0
 11 12  1  0
 12 13  1  0
 13 14  1  0
 13 15  1  0
 13 16  1  0
 12 17  2  0
  4 18  2  0
 18 19  1  0
 19 20  2  0
 20 21  1  0
 21 22  1  0
 22 23  1  0
 23 24  1  0
 24 25  1  0
 25 26  1  0
 26 27  1  0
 27 28  1  0
 28 29  1  0
 29 30  1  0
 24 31  1  0
 20  2  1  0
 31 21  1  0
 17  8  1  0
 29 25  1  0
  1 32  1  0
  1 33  1  0
  1 34  1  0
  3 35  1  0
  9 36  1  0
 10 37  1  0
 11 38  1  0
 18 39  1  0
 19 40  1  0
 22 41  1  0
 22 42  1  0
 23 43  1  0
 23 44  1  0
 24 45  1  6
 25 46  1  6
 26 47  1  0
 26 48  1  0
 27 49  1  0
 27 50  1  0
 28 51  1  0
 28 52  1  0
 29 53  1  1
 30 54  1  0
 30 55  1  0
 30 56  1  0
 31 57  1  0
 31 58  1  0
M  CHG  2   5  -1  25   1
M  END
>  <UniqueID>  (8) 
8

>  <SMILES>  (8) 
Cc1cc([N-]C(=O)c2cccc(C(F)(F)F)n2)ccc1N1CC[C@H]([N@H+]2CCCC2C)C1

>  <Energy>  (8) 
86.88592414517495

>  <Genealogy>  (8) 
Cc1cc([N-]C(=O)c2cccc(C(F)(F)F)n2)ccc1N1CCC([NH+]2CCCC2C)C1 (protonated)
Cc1cc([N-]C(=O)c2cccc(C(F)(F)F)n2)ccc1N1CC[C@H]([N@H+]2CCCC2C)C1 (chirality)
Cc1cc([N-]C(=O)c2cccc(C(F)(F)F)n2)ccc1N1CC[C@H]([N@H+]2CCCC2C)C1 (3D coordinates assigned)
Cc1cc([N-]C(=O)c2cccc(C(F)(F)F)n2)ccc1N1CC[C@H]([N@H+]2CCCC2C)C1 (nonaromatic ring conformer: 86.88592414517495 kcal/mol)

>  <smiles>  (8) 
Cc1cc(NC(=O)c2cccc(C(F)(F)F)n2)ccc1N1CCC(N2CCCC2C)C1

>  <score_type>  (8) 
oracle

>  <origin>  (8) 
adgpu

>  <m_score__min__energy>  (8) 
-10.779999999999999

>  <m_primary>  (8) 
energy

$$$$
8:0
     RDKit          3D

 40 43  0  0  0  0  0  0  0  0999 V2000
   -1.7320   20.7890  -27.0900 C   0  0  0  0  0  0  0  0  0  0  0  0
   -1.5080   22.2610  -27.4280 C   0  0  0  0  0  0  0  0  0  0  0  0
   -1.3780   22.5040  -28.9390 C   0  0  0  0  0  0  0  0  0  0  0  0
   -2.6580   22.9490  -29.5300 N   0  0  0  0  0  0  0  0  0  0  0  0
   -2.8760   24.2900  -29.7200 C   0  0  0  0  0  0  0  0  0  0  0  0
   -1.9130   25.2230  -29.3420 O   0  0  0  0  0  0  0  0  0  0  0  0
   -4.0630   24.7490  -30.2950 C   0  0  0  0  0  0  0  0  0  0  0  0
   -4.2540   26.1170  -30.4720 O   0  0  0  0  0  0  0  0  0  0  0  0
   -5.0470   23.8310  -30.6850 C   0  0  0  0  0  0  0  0  0  0  0  0
   -6.2510   24.2630  -31.2700 C   0  0  0  0  0  0  0  0  0  0  0  0
   -7.2200   23.3360  -31.6600 C   0  0  0  0  0  0  0  0  0  0  0  0
   -8.3730   23.7710  -32.2270 F   0  0  0  0  0  0  0  0  0  0  0  0
   -6.9970   21.9660  -31.4730 C   0  0  0  0  0  0  0  0  0  0  0  0
   -8.2310   20.7700  -31.9860 S   0  0  0  0  0  0  0  0  0  0  0  0
   -6.9900   19.5990  -32.5180 C   0  0  0  0  0  0  0  0  0  0  0  0
   -6.0060   19.9260  -33.3970 N   0  0  0  0  0  0  0  0  0  0  0  0
   -5.3140   18.7820  -33.4890 C   0  0  0  0  0  0  0  0  0  0  0  0
   -4.1800   18.5300  -34.2570 C   0  0  0  0  0  0  0  0  0  0  0  0
   -3.6180   17.2410  -34.1900 C   0  0  0  0  0  0  0  0  0  0  0  0
   -4.1990   16.2500  -33.3660 C   0  0  0  0  0  0  0  0  0  0  0  0
   -5.3460   16.5410  -32.6030 C   0  0  0  0  0  0  0  0  0  0  0  0
   -5.8740   17.8270  -32.6950 C   0  0  0  0  0  0  0  0  0  0  0  0
   -6.9470   18.3210  -32.0620 N   0  0  0  0  0  0  0  0  0  0  0  0
   -5.8060   21.5270  -30.8870 C   0  0  0  0  0  0  0  0  0  0  0  0
   -4.8200   22.4510  -30.4900 C   0  0  0  0  0  0  0  0  0  0  0  0
   -3.6080   22.0280  -29.9070 C   0  0  0  0  0  0  0  0  0  0  0  0
   -3.3980   20.7940  -29.7360 O   0  0  0  0  0  0  0  0  0  0  0  0
   -1.7513   20.6625  -25.9975 H   0  0  0  0  0  0  0  0  0  0  0  0
   -2.6910   20.4571  -27.5145 H   0  0  0  0  0  0  0  0  0  0  0  0
   -0.9151   20.1869  -27.5145 H   0  0  0  0  0  0  0  0  0  0  0  0
   -2.3605   22.8437  -27.0490 H   0  0  0  0  0  0  0  0  0  0  0  0
   -0.5641   22.5724  -26.9568 H   0  0  0  0  0  0  0  0  0  0  0  0
   -0.6164   23.2786  -29.1119 H   0  0  0  0  0  0  0  0  0  0  0  0
   -1.0892   21.5561  -29.4167 H   0  0  0  0  0  0  0  0  0  0  0  0
   -6.4305   25.3377  -31.4213 H   0  0  0  0  0  0  0  0  0  0  0  0
   -3.7388   19.3109  -34.8938 H   0  0  0  0  0  0  0  0  0  0  0  0
   -2.7218   17.0036  -34.7821 H   0  0  0  0  0  0  0  0  0  0  0  0
   -3.7524   15.2458  -33.3207 H   0  0  0  0  0  0  0  0  0  0  0  0
   -5.8087   15.7801  -31.9573 H   0  0  0  0  0  0  0  0  0  0  0  0
   -5.6376   20.4507  -30.7347 H   0  0  0  0  0  0  0  0  0  0  0  0
  1  2  1  0
  2  3  1  0
  3  4  1  0
  4  5  1  0
  5  6  1  0
  5  7  2  0
  7  8  1  0
  7  9  1  0
  9 10  2  0
 10 11  1  0
 11 12  1  0
 11 13  2  0
 13 14  1  0
 14 15  1  0
 15 16  2  0
 16 17  1  0
 17 18  2  0
 18 19  1  0
 19 20  2  0
 20 21  1  0
 21 22  2  0
 22 23  1  0
 13 24  1  0
 24 25  2  0
 25 26  1  0
 26 27  2  0
 26  4  1  0
 25  9  1  0
 23 15  1  0
 22 17  1  0
  1 28  1  0
  1 29  1  0
  1 30  1  0
  2 31  1  0
  2 32  1  0
  3 33  1  0
  3 34  1  0
 10 35  1  0
 18 36  1  0
 19 37  1  0
 20 38  1  0
 21 39  1  0
 24 40  1  0
M  CHG  3   6  -1   8  -1  23  -1
M  END
>  <UniqueID>  (9) 
9

>  <SMILES>  (9) 
CCCn1c([O-])c([O-])c2cc(F)c(Sc3nc4ccccc4[n-]3)cc2c1=O

>  <Energy>  (9) 
80.16150127487026

>  <Genealogy>  (9) 
CCCn1c([O-])c([O-])c2cc(F)c(Sc3nc4ccccc4[n-]3)cc2c1=O (protonated)
CCCn1c([O-])c([O-])c2cc(F)c(Sc3nc4ccccc4[n-]3)cc2c1=O (3D coordinates assigned)
CCCn1c([O-])c([O-])c2cc(F)c(Sc3nc4ccccc4[n-]3)cc2c1=O (optimized conformer: 80.16150127487026 kcal/mol)

>  <smiles>  (9) 
CCCn1c(O)c(O)c2cc(F)c(Sc3nc4ccccc4[nH]3)cc2c1=O

>  <score_type>  (9) 
oracle

>  <origin>  (9) 
adgpu

>  <m_score__min__energy>  (9) 
-13.34

>  <m_primary>  (9) 
energy

$$$$
9:0
     RDKit          3D

 85 86  0  0  0  0  0  0  0  0999 V2000
   -9.7660   21.5900  -31.8420 C   0  0  0  0  0  0  0  0  0  0  0  0
   -8.9470   20.4520  -31.2380 C   0  0  0  0  0  0  0  0  0  0  0  0
   -8.4730   19.4780  -32.3230 C   0  0  0  0  0  0  0  0  0  0  0  0
   -7.4560   18.4760  -31.7600 C   0  0  0  0  0  0  0  0  0  0  0  0
   -7.0680   17.4390  -32.8220 C   0  0  0  0  0  0  0  0  0  0  0  0
   -6.1290   18.0450  -33.8750 C   0  0  0  0  0  0  0  0  0  0  0  0
   -4.9540   17.1190  -34.2460 C   0  0  0  0  0  0  0  0  0  0  0  0
   -3.6700   17.8370  -34.6990 C   0  0  0  0  0  0  0  0  0  0  0  0
   -2.5530   17.8000  -33.6460 C   0  0  0  0  0  0  0  0  0  0  0  0
   -1.7140   19.0850  -33.6980 C   0  0  0  0  0  0  0  0  0  0  0  0
   -2.1750   20.1540  -32.6910 C   0  0  0  0  0  0  0  0  0  0  0  0
   -3.6470   20.0520  -32.2520 C   0  0  0  0  0  0  0  0  0  0  0  0
   -4.5150   21.2160  -32.7600 C   0  0  0  0  0  0  0  0  0  0  0  0
   -5.6300   21.5810  -31.7650 C   0  0  0  0  0  0  0  0  0  0  0  0
   -6.6840   22.5050  -32.3950 C   0  0  0  0  0  0  0  0  0  0  0  0
   -6.8770   23.8030  -31.5940 C   0  0  0  0  0  0  0  0  0  0  0  0
   -6.8850   23.6190  -30.0650 C   0  0  0  0  0  0  0  0  0  0  0  0
   -5.7460   24.3520  -29.3330 C   0  0  0  0  0  0  0  0  0  0  0  0
   -4.8920   25.1800  -30.2470 C   0  0  0  0  0  0  0  0  0  0  0  0
   -5.3580   26.2370  -30.7520 O   0  0  0  0  0  0  0  0  0  0  0  0
   -3.5610   24.8050  -30.4740 O   0  0  0  0  0  0  0  0  0  0  0  0
   -3.1330   23.4480  -30.6160 C   0  0  0  0  0  0  0  0  0  0  0  0
   -2.7630   22.8080  -29.2610 C   0  0  1  0  0  0  0  0  0  0  0  0
   -1.6830   21.7120  -29.4180 C   0  0  0  0  0  0  0  0  0  0  0  0
   -1.8120   20.6910  -28.3800 N   0  0  0  0  0  0  0  0  0  0  0  0
   -2.8350   20.5270  -27.5250 C   0  0  0  0  0  0  0  0  0  0  0  0
   -2.5390   19.4530  -26.7140 C   0  0  0  0  0  0  0  0  0  0  0  0
   -1.3350   18.9470  -27.0550 N   0  0  0  0  0  0  0  0  0  0  0  0
   -0.9210   19.7270  -28.0750 C   0  0  0  0  0  0  0  0  0  0  0  0
   -2.4110   23.8710  -28.2290 C   0  0  0  0  0  0  0  0  0  0  0  0
   -3.2560   24.1930  -27.1460 C   0  0  0  0  0  0  0  0  0  0  0  0
   -2.8680   25.1490  -26.2010 C   0  0  0  0  0  0  0  0  0  0  0  0
   -1.6340   25.7920  -26.3160 C   0  0  0  0  0  0  0  0  0  0  0  0
   -1.1040   27.0860  -25.0180 Br  0  0  0  0  0  0  0  0  0  0  0  0
   -0.7870   25.4830  -27.3830 C   0  0  0  0  0  0  0  0  0  0  0  0
   -1.1710   24.5320  -28.3330 C   0  0  0  0  0  0  0  0  0  0  0  0
  -10.2024   22.1964  -31.0346 H   0  0  0  0  0  0  0  0  0  0  0  0
   -9.1139   22.2214  -32.4633 H   0  0  0  0  0  0  0  0  0  0  0  0
  -10.5719   21.1722  -32.4633 H   0  0  0  0  0  0  0  0  0  0  0  0
   -8.0698   20.8733  -30.7251 H   0  0  0  0  0  0  0  0  0  0  0  0
   -9.5824   19.9024  -30.5280 H   0  0  0  0  0  0  0  0  0  0  0  0
   -9.3406   18.9272  -32.7152 H   0  0  0  0  0  0  0  0  0  0  0  0
   -7.9878   20.0558  -33.1234 H   0  0  0  0  0  0  0  0  0  0  0  0
   -6.5545   19.0187  -31.4395 H   0  0  0  0  0  0  0  0  0  0  0  0
   -7.9117   17.9530  -30.9063 H   0  0  0  0  0  0  0  0  0  0  0  0
   -6.5597   16.5960  -32.3311 H   0  0  0  0  0  0  0  0  0  0  0  0
   -7.9841   17.0994  -33.3274 H   0  0  0  0  0  0  0  0  0  0  0  0
   -6.7115   18.2523  -34.7848 H   0  0  0  0  0  0  0  0  0  0  0  0
   -5.6995   18.9603  -33.4417 H   0  0  0  0  0  0  0  0  0  0  0  0
   -4.7095   16.5095  -33.3635 H   0  0  0  0  0  0  0  0  0  0  0  0
   -5.2930   16.5274  -35.1091 H   0  0  0  0  0  0  0  0  0  0  0  0
   -3.3028   17.3518  -35.6154 H   0  0  0  0  0  0  0  0  0  0  0  0
   -3.9275   18.8934  -34.8656 H   0  0  0  0  0  0  0  0  0  0  0  0
   -3.0022   17.7024  -32.6466 H   0  0  0  0  0  0  0  0  0  0  0  0
   -1.8979   16.9417  -33.8559 H   0  0  0  0  0  0  0  0  0  0  0  0
   -0.6671   18.8276  -33.4793 H   0  0  0  0  0  0  0  0  0  0  0  0
   -1.8341   19.5121  -34.7046 H   0  0  0  0  0  0  0  0  0  0  0  0
   -1.5457   20.0688  -31.7928 H   0  0  0  0  0  0  0  0  0  0  0  0
   -2.0775   21.1205  -33.2070 H   0  0  0  0  0  0  0  0  0  0  0  0
   -4.0629   19.1107  -32.6406 H   0  0  0  0  0  0  0  0  0  0  0  0
   -3.6627   20.0892  -31.1527 H   0  0  0  0  0  0  0  0  0  0  0  0
   -3.8737   22.0965  -32.9133 H   0  0  0  0  0  0  0  0  0  0  0  0
   -4.9895   20.9003  -33.7009 H   0  0  0  0  0  0  0  0  0  0  0  0
   -6.1231   20.6567  -31.4294 H   0  0  0  0  0  0  0  0  0  0  0  0
   -5.1703   22.1158  -30.9208 H   0  0  0  0  0  0  0  0  0  0  0  0
   -6.3633   22.7634  -33.4150 H   0  0  0  0  0  0  0  0  0  0  0  0
   -7.6433   21.9668  -32.3991 H   0  0  0  0  0  0  0  0  0  0  0  0
   -6.0580   24.4903  -31.8524 H   0  0  0  0  0  0  0  0  0  0  0  0
   -7.8694   24.1919  -31.8659 H   0  0  0  0  0  0  0  0  0  0  0  0
   -7.8428   23.9966  -29.6775 H   0  0  0  0  0  0  0  0  0  0  0  0
   -6.7412   22.5449  -29.8761 H   0  0  0  0  0  0  0  0  0  0  0  0
   -6.1876   25.0133  -28.5729 H   0  0  0  0  0  0  0  0  0  0  0  0
   -5.0973   23.5841  -28.8864 H   0  0  0  0  0  0  0  0  0  0  0  0
   -3.9472   22.8657  -31.0721 H   0  0  0  0  0  0  0  0  0  0  0  0
   -2.2333   23.4424  -31.2488 H   0  0  0  0  0  0  0  0  0  0  0  0
   -3.6510   22.2878  -28.8726 H   0  0  0  0  0  0  0  0  0  0  0  0
   -1.7940   21.2373  -30.4041 H   0  0  0  0  0  0  0  0  0  0  0  0
   -0.6930   22.1821  -29.3234 H   0  0  0  0  0  0  0  0  0  0  0  0
   -3.7467   21.1408  -27.4802 H   0  0  0  0  0  0  0  0  0  0  0  0
   -3.1850   19.0671  -25.9116 H   0  0  0  0  0  0  0  0  0  0  0  0
    0.0366   19.5913  -28.5990 H   0  0  0  0  0  0  0  0  0  0  0  0
   -4.2280   23.6882  -27.0438 H   0  0  0  0  0  0  0  0  0  0  0  0
   -3.5379   25.3951  -25.3640 H   0  0  0  0  0  0  0  0  0  0  0  0
    0.1850   25.9895  -27.4760 H   0  0  0  0  0  0  0  0  0  0  0  0
   -0.4979   24.2972  -29.1707 H   0  0  0  0  0  0  0  0  0  0  0  0
  1  2  1  0
  2  3  1  0
  3  4  1  0
  4  5  1  0
  5  6  1  0
  6  7  1  0
  7  8  1  0
  8  9  1  0
  9 10  1  0
 10 11  1  0
 11 12  1  0
 12 13  1  0
 13 14  1  0
 14 15  1  0
 15 16  1  0
 16 17  1  0
 17 18  1  0
 18 19  1  0
 19 20  2  0
 19 21  1  0
 21 22  1  0
 22 23  1  0
 23 24  1  0
 24 25  1  0
 25 26  1  0
 26 27  2  0
 27 28  1  0
 28 29  2  0
 23 30  1  0
 30 31  2  0
 31 32  1  0
 32 33  2  0
 33 34  1  0
 33 35  1  0
 35 36  2  0
 29 25  1  0
 36 30  1  0
  1 37  1  0
  1 38  1  0
  1 39  1  0
  2 40  1  0
  2 41  1  0
  3 42  1  0
  3 43  1  0
  4 44  1  0
  4 45  1  0
  5 46  1  0
  5 47  1  0
  6 48  1  0
  6 49  1  0
  7 50  1  0
  7 51  1  0
  8 52  1  0
  8 53  1  0
  9 54  1  0
  9 55  1  0
 10 56  1  0
 10 57  1  0
 11 58  1  0
 11 59  1  0
 12 60  1  0
 12 61  1  0
 13 62  1  0
 13 63  1  0
 14 64  1  0
 14 65  1  0
 15 66  1  0
 15 67  1  0
 16 68  1  0
 16 69  1  0
 17 70  1  0
 17 71  1  0
 18 72  1  0
 18 73  1  0
 22 74  1  0
 22 75  1  0
 23 76  1  1
 24 77  1  0
 24 78  1  0
 26 79  1  0
 27 80  1  0
 29 81  1  0
 31 82  1  0
 32 83  1  0
 35 84  1  0
 36 85  1  0
M  END
>  <UniqueID>  (10) 
10

>  <SMILES>  (10) 
CCCCCCCCCCCCCCCCCCC(=O)OC[C@@H](Cn1ccnc1)c1ccc(Br)cc1

>  <Energy>  (10) 
80.58318876024441

>  <Genealogy>  (10) 
CCCCCCCCCCCCCCCCCCC(=O)OC[C@@H](Cn1ccnc1)c1ccc(Br)cc1 (chirality)
CCCCCCCCCCCCCCCCCCC(=O)OC[C@@H](Cn1ccnc1)c1ccc(Br)cc1 (3D coordinates assigned)
CCCCCCCCCCCCCCCCCCC(=O)OC[C@@H](Cn1ccnc1)c1ccc(Br)cc1 (optimized conformer: 80.58318876024441 kcal/mol)

>  <smiles>  (10) 
CCCCCCCCCCCCCCCCCCC(=O)OCC(Cn1ccnc1)c1ccc(Br)cc1

>  <score_type>  (10) 
oracle

>  <origin>  (10) 
adgpu

>  <m_score__min__energy>  (10) 
-9.6500000000000004

>  <m_primary>  (10) 
energy

$$$$
10:0
     RDKit          3D

 50 51  0  0  0  0  0  0  0  0999 V2000
   -4.0949   23.7734  -26.1159 H   0  0  0  0  0  0  0  0  0  0  0  0
   -3.4980   24.2160  -26.9270 C   0  0  0  0  0  0  0  0  0  0  0  0
   -3.9190   24.1110  -28.2140 N   0  0  0  0  0  0  0  0  0  0  0  0
   -3.2040   24.6550  -29.2350 C   0  0  0  0  0  0  0  0  0  0  0  0
   -3.5990   24.5530  -30.4720 N   0  0  0  0  0  0  0  0  0  0  0  0
   -4.8240   23.9740  -30.9540 C   0  0  0  0  0  0  0  0  0  0  0  0
   -6.0790   24.5530  -30.6970 C   0  0  0  0  0  0  0  0  0  0  0  0
   -6.1456   25.4752  -30.1011 H   0  0  0  0  0  0  0  0  0  0  0  0
   -7.2420   23.9610  -31.1960 C   0  0  0  0  0  0  0  0  0  0  0  0
   -8.2225   24.4070  -30.9732 H   0  0  0  0  0  0  0  0  0  0  0  0
   -7.1650   22.8060  -31.9760 C   0  0  0  0  0  0  0  0  0  0  0  0
   -8.0866   22.3276  -32.3391 H   0  0  0  0  0  0  0  0  0  0  0  0
   -5.9190   22.2540  -32.2980 C   0  0  0  0  0  0  0  0  0  0  0  0
   -5.8590   21.0760  -33.1170 N   0  0  0  0  0  0  0  0  0  0  0  0
   -5.2800   21.1050  -33.9840 H   0  0  0  0  0  0  0  0  0  0  0  0
   -6.3980   19.8100  -32.7180 C   0  0  0  0  0  0  0  0  0  0  0  0
   -6.7860   19.6220  -31.5350 O   0  0  0  0  0  0  0  0  0  0  0  0
   -6.4880   18.6900  -33.7100 C   0  0  0  0  0  0  0  0  0  0  0  0
   -6.5556   17.7336  -33.1708 H   0  0  0  0  0  0  0  0  0  0  0  0
   -7.3821   18.8384  -34.3334 H   0  0  0  0  0  0  0  0  0  0  0  0
   -5.2970   18.6730  -34.5810 N   0  0  0  0  0  0  0  0  0  0  0  0
   -5.2110   17.4050  -35.3260 C   0  0  0  0  0  0  0  0  0  0  0  0
   -5.1541   16.5661  -34.6167 H   0  0  0  0  0  0  0  0  0  0  0  0
   -6.1034   17.2903  -35.9588 H   0  0  0  0  0  0  0  0  0  0  0  0
   -4.3113   17.4118  -35.9588 H   0  0  0  0  0  0  0  0  0  0  0  0
   -4.0810   18.8480  -33.7730 C   0  0  0  0  0  0  0  0  0  0  0  0
   -4.3419   18.8105  -32.7050 H   0  0  0  0  0  0  0  0  0  0  0  0
   -3.3678   18.0432  -34.0048 H   0  0  0  0  0  0  0  0  0  0  0  0
   -3.6237   19.8212  -34.0048 H   0  0  0  0  0  0  0  0  0  0  0  0
   -4.7500   22.8400  -31.7770 C   0  0  0  0  0  0  0  0  0  0  0  0
   -3.7688   22.4047  -32.0174 H   0  0  0  0  0  0  0  0  0  0  0  0
   -2.0340   25.2890  -28.9640 N   0  0  0  0  0  0  0  0  0  0  0  0
   -1.5710   25.4240  -27.6900 C   0  0  0  0  0  0  0  0  0  0  0  0
   -0.3230   26.1060  -27.4490 N   0  0  0  0  0  0  0  0  0  0  0  0
    0.9330   25.3470  -27.4700 C   0  0  0  0  0  0  0  0  0  0  0  0
    1.5907   25.7229  -26.6724 H   0  0  0  0  0  0  0  0  0  0  0  0
    1.3987   25.4792  -28.4577 H   0  0  0  0  0  0  0  0  0  0  0  0
    0.6920   23.8600  -27.2520 C   0  0  0  0  0  0  0  0  0  0  0  0
    0.6577   23.6484  -26.1731 H   0  0  0  0  0  0  0  0  0  0  0  0
   -0.2645   23.5722  -27.7127 H   0  0  0  0  0  0  0  0  0  0  0  0
    1.5086   23.2848  -27.7127 H   0  0  0  0  0  0  0  0  0  0  0  0
   -0.3140   27.5370  -27.1140 C   0  0  0  0  0  0  0  0  0  0  0  0
    0.7137   27.9206  -27.1963 H   0  0  0  0  0  0  0  0  0  0  0  0
   -0.9768   28.0680  -27.8131 H   0  0  0  0  0  0  0  0  0  0  0  0
   -0.8190   27.7610  -25.6950 C   0  0  0  0  0  0  0  0  0  0  0  0
   -0.0572   27.4231  -24.9771 H   0  0  0  0  0  0  0  0  0  0  0  0
   -1.0181   28.8319  -25.5414 H   0  0  0  0  0  0  0  0  0  0  0  0
   -1.7465   27.1899  -25.5414 H   0  0  0  0  0  0  0  0  0  0  0  0
   -2.3120   24.8830  -26.6330 C   0  0  0  0  0  0  0  0  0  0  0  0
   -1.9652   24.9826  -25.5939 H   0  0  0  0  0  0  0  0  0  0  0  0
  1  2  1  0
  2  3  1  0
  3  4  1  0
  4  5  2  0
  5  6  1  0
  6  7  2  0
  7  8  1  0
  7  9  1  0
  9 10  1  0
  9 11  2  0
 11 12  1  0
 11 13  1  0
 13 14  1  0
 14 15  1  0
 14 16  1  0
 16 17  2  0
 16 18  1  0
 18 19  1  0
 18 20  1  0
 18 21  1  0
 21 22  1  0
 22 23  1  0
 22 24  1  0
 22 25  1  0
 21 26  1  0
 26 27  1  0
 26 28  1  0
 26 29  1  0
 13 30  2  0
 30 31  1  0
  4 32  1  0
 32 33  2  0
 33 34  1  0
 34 35  1  0
 35 36  1  0
 35 37  1  0
 35 38  1  0
 38 39  1  0
 38 40  1  0
 38 41  1  0
 34 42  1  0
 42 43  1  0
 42 44  1  0
 42 45  1  0
 45 46  1  0
 45 47  1  0
 45 48  1  0
 33 49  1  0
 49 50  1  0
 49  2  2  0
 30  6  1  0
M  CHG  1   3  -1
M  END
>  <UniqueID>  (11) 
11

>  <SMILES>  (11) 
CCN(CC)c1cc[n-]/c(=N\c2cccc(NC(=O)CN(C)C)c2)n1

>  <Energy>  (11) 
56.90324298538364

>  <Genealogy>  (11) 
CCN(CC)c1cc[n-]c(=Nc2cccc(NC(=O)CN(C)C)c2)n1 (protonated)
CCN(CC)c1cc[n-]/c(=N\c2cccc(NC(=O)CN(C)C)c2)n1 (cis-trans isomerization)
CCN(CC)c1cc[n-]/c(=N\c2cccc(NC(=O)CN(C)C)c2)n1 (3D coordinates assigned)
CCN(CC)c1cc[n-]/c(=N\c2cccc(NC(=O)CN(C)C)c2)n1 (optimized conformer: 56.90324298538364 kcal/mol)

>  <smiles>  (11) 
CCN(CC)c1cc[nH]c(=Nc2cccc(NC(=O)CN(C)C)c2)n1

>  <score_type>  (11) 
oracle

>  <origin>  (11) 
adgpu

>  <m_score__min__energy>  (11) 
-8.4399999999999995

>  <m_primary>  (11) 
energy

$$$$
11:0
     RDKit          3D

 29 30  0  0  0  0  0  0  0  0999 V2000
   -1.6000   26.0090  -28.9400 O   0  0  0  0  0  0  0  0  0  0  0  0
   -2.0150   24.7330  -29.3040 C   0  0  0  0  0  0  0  0  0  0  0  0
   -1.2940   23.6170  -28.8710 C   0  0  0  0  0  0  0  0  0  0  0  0
   -1.7060   22.3300  -29.2320 C   0  0  0  0  0  0  0  0  0  0  0  0
   -2.8490   22.1520  -30.0290 C   0  0  0  0  0  0  0  0  0  0  0  0
   -3.2660   20.7700  -30.4640 C   0  0  0  0  0  0  0  0  0  0  0  0
   -3.6110   20.7230  -31.9590 C   0  0  0  0  0  0  0  0  0  0  0  0
   -5.0670   20.4050  -32.1870 C   0  0  0  0  0  0  0  0  0  0  0  0
   -6.0390   21.4150  -32.0890 C   0  0  0  0  0  0  0  0  0  0  0  0
   -7.3820   21.1280  -32.3480 C   0  0  0  0  0  0  0  0  0  0  0  0
   -7.7670   19.8300  -32.7120 C   0  0  0  0  0  0  0  0  0  0  0  0
   -9.1030   19.5330  -32.9720 O   0  0  0  0  0  0  0  0  0  0  0  0
   -6.8020   18.8230  -32.8170 C   0  0  0  0  0  0  0  0  0  0  0  0
   -5.4570   19.1080  -32.5600 C   0  0  0  0  0  0  0  0  0  0  0  0
   -3.5650   23.2770  -30.4700 C   0  0  0  0  0  0  0  0  0  0  0  0
   -3.1510   24.5640  -30.1050 C   0  0  0  0  0  0  0  0  0  0  0  0
   -3.8690   25.6700  -30.5430 O   0  0  0  0  0  0  0  0  0  0  0  0
   -0.3999   23.7510  -28.2445 H   0  0  0  0  0  0  0  0  0  0  0  0
   -1.1334   21.4549  -28.8909 H   0  0  0  0  0  0  0  0  0  0  0  0
   -2.4404   20.0704  -30.2669 H   0  0  0  0  0  0  0  0  0  0  0  0
   -4.1656   20.4897  -29.8964 H   0  0  0  0  0  0  0  0  0  0  0  0
   -3.3857   21.7018  -32.4075 H   0  0  0  0  0  0  0  0  0  0  0  0
   -3.0100   19.9277  -32.4241 H   0  0  0  0  0  0  0  0  0  0  0  0
   -5.7416   22.4359  -31.8072 H   0  0  0  0  0  0  0  0  0  0  0  0
   -8.1386   21.9222  -32.2661 H   0  0  0  0  0  0  0  0  0  0  0  0
   -9.4820   19.5770  -33.9110 H   0  0  0  0  0  0  0  0  0  0  0  0
   -7.1017   17.8039  -33.1025 H   0  0  0  0  0  0  0  0  0  0  0  0
   -4.7017   18.3135  -32.6503 H   0  0  0  0  0  0  0  0  0  0  0  0
   -4.4541   23.1466  -31.1044 H   0  0  0  0  0  0  0  0  0  0  0  0
  1  2  1  0
  2  3  2  0
  3  4  1  0
  4  5  2  0
  5  6  1  0
  6  7  1  0
  7  8  1  0
  8  9  2  0
  9 10  1  0
 10 11  2  0
 11 12  1  0
 11 13  1  0
 13 14  2  0
  5 15  1  0
 15 16  2  0
 16 17  1  0
 16  2  1  0
 14  8  1  0
  3 18  1  0
  4 19  1  0
  6 20  1  0
  6 21  1  0
  7 22  1  0
  7 23  1  0
  9 24  1  0
 10 25  1  0
 12 26  1  0
 13 27  1  0
 14 28  1  0
 15 29  1  0
M  CHG  2   1  -1  17  -1
M  END
>  <UniqueID>  (12) 
12

>  <SMILES>  (12) 
[O-]c1ccc(CCc2ccc(O)cc2)cc1[O-]

>  <Energy>  (12) 
25.627935249758746

>  <Genealogy>  (12) 
[O-]c1ccc(CCc2ccc(O)cc2)cc1[O-] (protonated)
[O-]c1ccc(CCc2ccc(O)cc2)cc1[O-] (3D coordinates assigned)
[O-]c1ccc(CCc2ccc(O)cc2)cc1[O-] (optimized conformer: 25.627935249758746 kcal/mol)

>  <smiles>  (12) 
Oc1ccc(CCc2ccc(O)c(O)c2)cc1

>  <score_type>  (12) 
oracle

>  <origin>  (12) 
adgpu

>  <m_score__min__energy>  (12) 
-12.19

>  <m_primary>  (12) 
energy

$$$$
12:0
     RDKit          3D

 57 60  0  0  0  0  0  0  0  0999 V2000
   -3.4440   18.9120  -26.3860 C   0  0  0  0  0  0  0  0  0  0  0  0
   -2.0350   18.7570  -26.2620 O   0  0  0  0  0  0  0  0  0  0  0  0
   -1.1430   18.7390  -27.3450 C   0  0  0  0  0  0  0  0  0  0  0  0
   -0.1240   17.7750  -27.4680 C   0  0  0  0  0  0  0  0  0  0  0  0
    0.7210   17.7810  -28.5810 C   0  0  0  0  0  0  0  0  0  0  0  0
    0.5470   18.7330  -29.5960 C   0  0  0  0  0  0  0  0  0  0  0  0
    1.5720   18.6960  -31.0330 S   0  0  0  0  0  0  0  0  0  0  0  0
    1.5590   20.0570  -31.6710 O   0  0  0  0  0  0  0  0  0  0  0  0
    2.9870   18.3980  -30.6180 O   0  0  0  0  0  0  0  0  0  0  0  0
    1.0550   17.4980  -32.2050 N   0  0  0  0  0  0  0  0  0  0  0  0
   -0.2700   16.9220  -31.8550 C   0  0  0  0  0  0  0  0  0  0  0  0
   -1.4700   17.7350  -32.3840 C   0  0  0  0  0  0  0  0  0  0  0  0
   -1.2200   18.2760  -33.7260 N   0  0  0  0  0  0  0  0  0  0  0  0
   -1.8700   19.4950  -34.1540 C   0  0  0  0  0  0  0  0  0  0  0  0
   -1.2710   20.2800  -34.9390 O   0  0  0  0  0  0  0  0  0  0  0  0
   -3.2110   19.8800  -33.6570 C   0  0  0  0  0  0  0  0  0  0  0  0
   -3.4080   21.0880  -32.9700 C   0  0  0  0  0  0  0  0  0  0  0  0
   -4.6820   21.4500  -32.5240 C   0  0  0  0  0  0  0  0  0  0  0  0
   -5.7820   20.5990  -32.7380 C   0  0  0  0  0  0  0  0  0  0  0  0
   -7.1020   20.9760  -32.2980 N   0  0  0  0  0  0  0  0  0  0  0  0
   -8.1980   20.0440  -32.0820 C   0  0  0  0  0  0  0  0  0  0  0  0
   -9.4490   20.9060  -31.8360 C   0  0  0  0  0  0  0  0  0  0  0  0
   -8.9710   22.3500  -31.6280 C   0  0  0  0  0  0  0  0  0  0  0  0
   -7.5420   22.2880  -31.9920 C   0  0  0  0  0  0  0  0  0  0  0  0
   -6.7760   23.2900  -31.9620 O   0  0  0  0  0  0  0  0  0  0  0  0
   -5.5780   19.3840  -33.4100 C   0  0  0  0  0  0  0  0  0  0  0  0
   -4.3030   19.0210  -33.8510 C   0  0  0  0  0  0  0  0  0  0  0  0
   -0.0600   17.7630  -34.4530 C   0  0  0  0  0  0  0  0  0  0  0  0
    1.1870   18.0030  -33.6020 C   0  0  0  0  0  0  0  0  0  0  0  0
   -0.4480   19.7100  -29.4590 C   0  0  0  0  0  0  0  0  0  0  0  0
   -1.2840   19.7120  -28.3400 C   0  0  0  0  0  0  0  0  0  0  0  0
   -3.8969   18.9618  -25.3848 H   0  0  0  0  0  0  0  0  0  0  0  0
   -3.6640   19.8398  -26.9345 H   0  0  0  0  0  0  0  0  0  0  0  0
   -3.8604   18.0542  -26.9345 H   0  0  0  0  0  0  0  0  0  0  0  0
    0.0074   17.0140  -26.6847 H   0  0  0  0  0  0  0  0  0  0  0  0
    1.5261   17.0358  -28.6613 H   0  0  0  0  0  0  0  0  0  0  0  0
    1.7420   16.7140  -32.1010 H   0  0  0  0  0  0  0  0  0  0  0  0
   -0.3277   15.9074  -32.2759 H   0  0  0  0  0  0  0  0  0  0  0  0
   -0.3399   16.9312  -30.7573 H   0  0  0  0  0  0  0  0  0  0  0  0
   -2.3527   17.0798  -32.4241 H   0  0  0  0  0  0  0  0  0  0  0  0
   -1.6335   18.5821  -31.7015 H   0  0  0  0  0  0  0  0  0  0  0  0
   -2.5535   21.7545  -32.7813 H   0  0  0  0  0  0  0  0  0  0  0  0
   -4.8259   22.4074  -32.0017 H   0  0  0  0  0  0  0  0  0  0  0  0
   -8.3400   19.4095  -32.9692 H   0  0  0  0  0  0  0  0  0  0  0  0
   -7.9962   19.3765  -31.2312 H   0  0  0  0  0  0  0  0  0  0  0  0
  -10.1204   20.8528  -32.7057 H   0  0  0  0  0  0  0  0  0  0  0  0
  -10.0036   20.5475  -30.9563 H   0  0  0  0  0  0  0  0  0  0  0  0
   -9.5156   23.0442  -32.2849 H   0  0  0  0  0  0  0  0  0  0  0  0
   -9.1400   22.7172  -30.6050 H   0  0  0  0  0  0  0  0  0  0  0  0
   -6.4295   18.7115  -33.5911 H   0  0  0  0  0  0  0  0  0  0  0  0
   -4.1542   18.0542  -34.3542 H   0  0  0  0  0  0  0  0  0  0  0  0
   -0.1831   16.6854  -34.6362 H   0  0  0  0  0  0  0  0  0  0  0  0
    0.0377   18.2773  -35.4204 H   0  0  0  0  0  0  0  0  0  0  0  0
    2.0378   17.4938  -34.0782 H   0  0  0  0  0  0  0  0  0  0  0  0
    1.3355   19.0913  -33.5420 H   0  0  0  0  0  0  0  0  0  0  0  0
   -0.5713   20.4788  -30.2361 H   0  0  0  0  0  0  0  0  0  0  0  0
   -2.0599   20.4854  -28.2404 H   0  0  0  0  0  0  0  0  0  0  0  0
  1  2  1  0
  2  3  1  0
  3  4  2  0
  4  5  1  0
  5  6  2  0
  6  7  1  0
  7  8  2  0
  7  9  2  0
  7 10  1  0
 10 11  1  0
 11 12  1  0
 12 13  1  0
 13 14  1  0
 14 15  2  0
 14 16  1  0
 16 17  2  0
 17 18  1  0
 18 19  2  0
 19 20  1  0
 20 21  1  0
 21 22  1  0
 22 23  1  0
 23 24  1  0
 24 25  2  0
 19 26  1  0
 26 27  2  0
 13 28  1  0
 28 29  1  0
  6 30  1  0
 30 31  2  0
 31  3  1  0
 29 10  1  0
 27 16  1  0
 24 20  1  0
  1 32  1  0
  1 33  1  0
  1 34  1  0
  4 35  1  0
  5 36  1  0
 10 37  1  0
 11 38  1  0
 11 39  1  0
 12 40  1  0
 12 41  1  0
 17 42  1  0
 18 43  1  0
 21 44  1  0
 21 45  1  0
 22 46  1  0
 22 47  1  0
 23 48  1  0
 23 49  1  0
 26 50  1  0
 27 51  1  0
 28 52  1  0
 28 53  1  0
 29 54  1  0
 29 55  1  0
 30 56  1  0
 31 57  1  0
M  CHG  1  10   1
M  END
>  <UniqueID>  (13) 
13

>  <SMILES>  (13) 
COc1ccc(S(=O)(=O)[NH+]2CCN(C(=O)c3ccc(N4CCCC4=O)cc3)CC2)cc1

>  <Energy>  (13) 
78.1375695558152

>  <Genealogy>  (13) 
COc1ccc(S(=O)(=O)[NH+]2CCN(C(=O)c3ccc(N4CCCC4=O)cc3)CC2)cc1 (protonated)
COc1ccc(S(=O)(=O)[NH+]2CCN(C(=O)c3ccc(N4CCCC4=O)cc3)CC2)cc1 (3D coordinates assigned)
COc1ccc(S(=O)(=O)[NH+]2CCN(C(=O)c3ccc(N4CCCC4=O)cc3)CC2)cc1 (nonaromatic ring conformer: 78.1375695558152 kcal/mol)

>  <smiles>  (13) 
COc1ccc(S(=O)(=O)N2CCN(C(=O)c3ccc(N4CCCC4=O)cc3)CC2)cc1

>  <score_type>  (13) 
oracle

>  <origin>  (13) 
adgpu

>  <m_score__min__energy>  (13) 
-8.1600000000000001

>  <m_primary>  (13) 
energy

$$$$
13:0
     RDKit          3D

 50 53  0  0  0  0  0  0  0  0999 V2000
   -6.1383   24.8963  -29.8814 H   0  0  0  0  0  0  0  0  0  0  0  0
   -5.8330   24.0160  -30.4660 C   0  0  0  0  0  0  0  0  0  0  0  0
   -6.7700   23.1280  -30.8910 N   0  0  0  0  0  0  0  0  0  0  0  0
   -6.4580   22.0330  -31.6410 C   0  0  0  0  0  0  0  0  0  0  0  0
   -7.5070   21.1240  -32.0590 N   0  0  0  0  0  0  0  0  0  0  0  0
   -7.2090   20.0280  -32.9940 C   0  0  0  0  0  0  0  0  0  0  0  0
   -7.4635   20.3498  -34.0146 H   0  0  0  0  0  0  0  0  0  0  0  0
   -6.1384   19.7881  -32.9143 H   0  0  0  0  0  0  0  0  0  0  0  0
   -8.0160   18.7580  -32.6530 C   0  0  0  0  0  0  0  0  0  0  0  0
   -8.1248   18.1636  -33.5721 H   0  0  0  0  0  0  0  0  0  0  0  0
   -7.4552   18.2348  -31.8645 H   0  0  0  0  0  0  0  0  0  0  0  0
   -9.3640   19.0140  -32.1080 N   0  0  0  0  0  0  0  0  0  0  0  0
   -9.3460   18.8680  -31.0710 H   0  0  0  0  0  0  0  0  0  0  0  0
   -9.8490   20.3710  -32.3700 C   0  0  0  0  0  0  0  0  0  0  0  0
   -9.8864   20.5395  -33.4564 H   0  0  0  0  0  0  0  0  0  0  0  0
  -10.8539   20.4816  -31.9365 H   0  0  0  0  0  0  0  0  0  0  0  0
   -8.9150   21.4020  -31.7310 C   0  0  0  0  0  0  0  0  0  0  0  0
   -9.1786   22.4032  -32.1027 H   0  0  0  0  0  0  0  0  0  0  0  0
   -9.0341   21.3485  -30.6388 H   0  0  0  0  0  0  0  0  0  0  0  0
   -5.1120   21.8220  -31.9960 C   0  0  0  0  0  0  0  0  0  0  0  0
   -4.8328   20.9535  -32.6107 H   0  0  0  0  0  0  0  0  0  0  0  0
   -4.1330   22.7190  -31.5650 C   0  0  0  0  0  0  0  0  0  0  0  0
   -3.0825   22.5640  -31.8519 H   0  0  0  0  0  0  0  0  0  0  0  0
   -4.4850   23.8160  -30.7680 C   0  0  0  0  0  0  0  0  0  0  0  0
   -3.5170   24.7860  -30.3430 N   0  0  0  0  0  0  0  0  0  0  0  0
   -2.7880   24.7260  -29.2670 C   0  0  0  0  0  0  0  0  0  0  0  0
   -1.8720   25.6680  -28.9690 N   0  0  0  0  0  0  0  0  0  0  0  0
   -1.2600   25.4370  -27.7730 C   0  0  0  0  0  0  0  0  0  0  0  0
   -0.2150   26.3570  -27.2490 C   0  0  0  0  0  0  0  0  0  0  0  0
   -0.4900   27.7270  -27.1360 C   0  0  0  0  0  0  0  0  0  0  0  0
   -1.4787   28.1092  -27.4299 H   0  0  0  0  0  0  0  0  0  0  0  0
    0.4760   28.6110  -26.6550 C   0  0  0  0  0  0  0  0  0  0  0  0
    0.2423   29.6831  -26.5782 H   0  0  0  0  0  0  0  0  0  0  0  0
    1.7460   28.1460  -26.2670 C   0  0  0  0  0  0  0  0  0  0  0  0
    2.7230   29.0200  -25.7610 O   0  0  0  0  0  0  0  0  0  0  0  0
    2.5250   29.9180  -24.6740 C   0  0  0  0  0  0  0  0  0  0  0  0
    2.6445   29.3761  -23.7243 H   0  0  0  0  0  0  0  0  0  0  0  0
    3.2658   30.7292  -24.7290 H   0  0  0  0  0  0  0  0  0  0  0  0
    1.5117   30.3425  -24.7290 H   0  0  0  0  0  0  0  0  0  0  0  0
    2.0390   26.7690  -26.3750 C   0  0  0  0  0  0  0  0  0  0  0  0
    3.3690   26.2400  -25.9860 C   0  0  0  0  0  0  0  0  0  0  0  0
    3.8690   25.2650  -26.6110 O   0  0  0  0  0  0  0  0  0  0  0  0
    4.1080   26.8220  -24.9080 N   0  0  0  0  0  0  0  0  0  0  0  0
    3.7910   27.7000  -24.4420 H   0  0  0  0  0  0  0  0  0  0  0  0
    5.0310   26.4210  -24.6310 H   0  0  0  0  0  0  0  0  0  0  0  0
    1.0590   25.8900  -26.8740 C   0  0  0  0  0  0  0  0  0  0  0  0
    1.2928   24.8197  -26.9726 H   0  0  0  0  0  0  0  0  0  0  0  0
   -1.7170   24.2930  -27.1040 C   0  0  0  0  0  0  0  0  0  0  0  0
   -1.3582   23.9295  -26.1298 H   0  0  0  0  0  0  0  0  0  0  0  0
   -2.9080   23.5720  -28.0470 S   0  0  0  0  0  0  0  0  0  0  0  0
  1  2  1  0
  2  3  2  0
  3  4  1  0
  4  5  1  0
  5  6  1  0
  6  7  1  0
  6  8  1  0
  6  9  1  0
  9 10  1  0
  9 11  1  0
  9 12  1  0
 12 13  1  0
 12 14  1  0
 14 15  1  0
 14 16  1  0
 14 17  1  0
 17 18  1  0
 17 19  1  0
  4 20  2  0
 20 21  1  0
 20 22  1  0
 22 23  1  0
 22 24  2  0
 24 25  1  0
 25 26  2  0
 26 27  1  0
 27 28  1  0
 28 29  1  0
 29 30  2  0
 30 31  1  0
 30 32  1  0
 32 33  1  0
 32 34  2  0
 34 35  1  0
 35 36  1  0
 36 37  1  0
 36 38  1  0
 36 39  1  0
 34 40  1  0
 40 41  1  0
 41 42  2  0
 41 43  1  0
 43 44  1  0
 43 45  1  0
 40 46  2  0
 46 47  1  0
 28 48  2  0
 48 49  1  0
 48 50  1  0
 24  2  1  0
 50 26  1  0
 17  5  1  0
 46 29  1  0
M  CHG  1  27  -1
M  END
>  <UniqueID>  (14) 
14

>  <SMILES>  (14) 
COc1ccc(-c2cs/c(=N\c3ccc(N4CCNCC4)nc3)[n-]2)cc1C(N)=O

>  <Energy>  (14) 
102.58743816222156

>  <Genealogy>  (14) 
COc1ccc(-c2csc(=Nc3ccc(N4CCNCC4)nc3)[n-]2)cc1C(N)=O (protonated)
COc1ccc(-c2cs/c(=N\c3ccc(N4CCNCC4)nc3)[n-]2)cc1C(N)=O (cis-trans isomerization)
COc1ccc(-c2cs/c(=N\c3ccc(N4CCNCC4)nc3)[n-]2)cc1C(N)=O (3D coordinates assigned)
COc1ccc(-c2cs/c(=N\c3ccc(N4CCNCC4)nc3)[n-]2)cc1C(N)=O (nonaromatic ring conformer: 102.58743816222156 kcal/mol)

>  <smiles>  (14) 
COc1ccc(-c2csc(=Nc3ccc(N4CCNCC4)nc3)[nH]2)cc1C(N)=O

>  <score_type>  (14) 
oracle

>  <origin>  (14) 
adgpu

>  <m_score__min__energy>  (14) 
-10

>  <m_primary>  (14) 
energy

$$$$
14:0
     RDKit          3D

 42 43  0  0  0  0  0  0  0  0999 V2000
   -9.4620   21.3420  -30.9400 C   0  0  0  0  0  0  0  0  0  0  0  0
   -8.4920   20.4920  -31.7180 C   0  0  0  0  0  0  0  0  0  0  0  0
   -8.6650   19.0980  -31.7430 C   0  0  0  0  0  0  0  0  0  0  0  0
   -7.7800   18.2850  -32.4510 C   0  0  0  0  0  0  0  0  0  0  0  0
   -6.7080   18.8490  -33.1490 C   0  0  0  0  0  0  0  0  0  0  0  0
   -5.5830   17.8090  -34.0210 S   0  0  0  0  0  0  0  0  0  0  0  0
   -6.1780   17.3930  -35.3380 O   0  0  0  0  0  0  0  0  0  0  0  0
   -5.3230   16.5740  -33.2050 O   0  0  0  0  0  0  0  0  0  0  0  0
   -4.0810   18.6370  -34.2920 N   0  0  0  0  0  0  0  0  0  0  0  0
   -3.2550   18.5730  -33.0880 C   0  0  0  0  0  0  0  0  0  0  0  0
   -2.1590   19.6390  -33.1470 C   0  0  0  0  0  0  0  0  0  0  0  0
   -2.5260   20.8490  -32.3260 C   0  0  0  0  0  0  0  0  0  0  0  0
   -3.7700   21.4750  -32.5060 C   0  0  0  0  0  0  0  0  0  0  0  0
   -4.0980   22.6170  -31.7710 C   0  0  0  0  0  0  0  0  0  0  0  0
   -3.1870   23.1490  -30.8500 C   0  0  0  0  0  0  0  0  0  0  0  0
   -3.5950   24.6000  -29.9390 S   0  0  0  0  0  0  0  0  0  0  0  0
   -2.1560   25.2920  -29.2800 N   0  0  0  0  0  0  0  0  0  0  0  0
   -4.5390   24.2510  -28.8220 O   0  0  0  0  0  0  0  0  0  0  0  0
   -4.2660   25.5950  -30.8430 O   0  0  0  0  0  0  0  0  0  0  0  0
   -1.9370   22.5380  -30.6800 C   0  0  0  0  0  0  0  0  0  0  0  0
   -1.6070   21.3950  -31.4150 C   0  0  0  0  0  0  0  0  0  0  0  0
   -6.5170   20.2370  -33.1220 C   0  0  0  0  0  0  0  0  0  0  0  0
   -7.3980   21.0670  -32.4090 C   0  0  0  0  0  0  0  0  0  0  0  0
   -7.1670   22.5560  -32.4030 C   0  0  0  0  0  0  0  0  0  0  0  0
   -9.2952   21.1959  -29.8626 H   0  0  0  0  0  0  0  0  0  0  0  0
   -9.3077   22.4009  -31.1946 H   0  0  0  0  0  0  0  0  0  0  0  0
  -10.4915   21.0500  -31.1946 H   0  0  0  0  0  0  0  0  0  0  0  0
   -9.5062   18.6435  -31.1992 H   0  0  0  0  0  0  0  0  0  0  0  0
   -7.9262   17.1948  -32.4602 H   0  0  0  0  0  0  0  0  0  0  0  0
   -3.8858   18.7478  -32.2040 H   0  0  0  0  0  0  0  0  0  0  0  0
   -2.7883   17.5790  -33.0231 H   0  0  0  0  0  0  0  0  0  0  0  0
   -1.2230   19.2123  -32.7574 H   0  0  0  0  0  0  0  0  0  0  0  0
   -2.0375   19.9540  -34.1939 H   0  0  0  0  0  0  0  0  0  0  0  0
   -4.4898   21.0642  -33.2293 H   0  0  0  0  0  0  0  0  0  0  0  0
   -5.0755   23.1001  -31.9163 H   0  0  0  0  0  0  0  0  0  0  0  0
   -1.6030   25.6680  -30.0830 H   0  0  0  0  0  0  0  0  0  0  0  0
   -1.2135   22.9589  -29.9663 H   0  0  0  0  0  0  0  0  0  0  0  0
   -0.6235   20.9215  -31.2791 H   0  0  0  0  0  0  0  0  0  0  0  0
   -5.6691   20.6809  -33.6643 H   0  0  0  0  0  0  0  0  0  0  0  0
   -7.1114   22.9142  -31.3645 H   0  0  0  0  0  0  0  0  0  0  0  0
   -6.2229   22.7827  -32.9201 H   0  0  0  0  0  0  0  0  0  0  0  0
   -7.9980   23.0581  -32.9201 H   0  0  0  0  0  0  0  0  0  0  0  0
  1  2  1  0
  2  3  2  0
  3  4  1  0
  4  5  2  0
  5  6  1  0
  6  7  2  0
  6  8  2  0
  6  9  1  0
  9 10  1  0
 10 11  1  0
 11 12  1  0
 12 13  2  0
 13 14  1  0
 14 15  2  0
 15 16  1  0
 16 17  1  0
 16 18  2  0
 16 19  2  0
 15 20  1  0
 20 21  2  0
  5 22  1  0
 22 23  2  0
 23 24  1  0
 23  2  1  0
 21 12  1  0
  1 25  1  0
  1 26  1  0
  1 27  1  0
  3 28  1  0
  4 29  1  0
 10 30  1  0
 10 31  1  0
 11 32  1  0
 11 33  1  0
 13 34  1  0
 14 35  1  0
 17 36  1  0
 20 37  1  0
 21 38  1  0
 22 39  1  0
 24 40  1  0
 24 41  1  0
 24 42  1  0
M  CHG  2   9  -1  17  -1
M  END
>  <UniqueID>  (15) 
15

>  <SMILES>  (15) 
Cc1ccc(S(=O)(=O)[N-]CCc2ccc(S([NH-])(=O)=O)cc2)cc1C

>  <Energy>  (15) 
37.31951716451315

>  <Genealogy>  (15) 
Cc1ccc(S(=O)(=O)[N-]CCc2ccc(S([NH-])(=O)=O)cc2)cc1C (protonated)
Cc1ccc(S(=O)(=O)[N-]CCc2ccc(S([NH-])(=O)=O)cc2)cc1C (3D coordinates assigned)
Cc1ccc(S(=O)(=O)[N-]CCc2ccc(S([NH-])(=O)=O)cc2)cc1C (optimized conformer: 37.31951716451315 kcal/mol)

>  <smiles>  (15) 
Cc1ccc(S(=O)(=O)NCCc2ccc(S(N)(=O)=O)cc2)cc1C

>  <score_type>  (15) 
oracle

>  <origin>  (15) 
adgpu

>  <m_score__min__energy>  (15) 
-11.51

>  <m_primary>  (15) 
energy

$$$$
15:0
     RDKit          3D

 30 32  0  0  0  0  0  0  0  0999 V2000
   -3.8690   15.0140  -35.1150 O   0  0  0  0  0  0  0  0  0  0  0  0
   -4.4420   16.1720  -34.6020 C   0  0  0  0  0  0  0  0  0  0  0  0
   -3.7540   17.3850  -34.6770 C   0  0  0  0  0  0  0  0  0  0  0  0
   -4.3280   18.5510  -34.1610 C   0  0  0  0  0  0  0  0  0  0  0  0
   -5.6000   18.5160  -33.5600 C   0  0  0  0  0  0  0  0  0  0  0  0
   -6.2130   19.7520  -33.0100 C   0  0  0  0  0  0  0  0  0  0  0  0
   -5.5380   20.7690  -32.3530 C   0  0  0  0  0  0  0  0  0  0  0  0
   -6.4910   21.7160  -32.0100 C   0  0  0  0  0  0  0  0  0  0  0  0
   -6.2560   22.9960  -31.2920 C   0  0  0  0  0  0  0  0  0  0  0  0
   -7.3210   23.6770  -30.6710 C   0  0  0  0  0  0  0  0  0  0  0  0
   -7.0970   24.8800  -29.9960 C   0  0  0  0  0  0  0  0  0  0  0  0
   -5.8130   25.4220  -29.9340 C   0  0  0  0  0  0  0  0  0  0  0  0
   -4.7460   24.7600  -30.5470 C   0  0  0  0  0  0  0  0  0  0  0  0
   -3.4680   25.3010  -30.4880 O   0  0  0  0  0  0  0  0  0  0  0  0
   -4.9640   23.5530  -31.2230 C   0  0  0  0  0  0  0  0  0  0  0  0
   -7.7050   21.2320  -32.4720 C   0  0  0  0  0  0  0  0  0  0  0  0
   -7.5270   20.0440  -33.0770 N   0  0  0  0  0  0  0  0  0  0  0  0
   -6.2840   17.2860  -33.4900 C   0  0  0  0  0  0  0  0  0  0  0  0
   -5.7060   16.1240  -34.0100 C   0  0  0  0  0  0  0  0  0  0  0  0
   -2.7583   17.4233  -35.1430 H   0  0  0  0  0  0  0  0  0  0  0  0
   -3.7809   19.5031  -34.2254 H   0  0  0  0  0  0  0  0  0  0  0  0
   -4.4589   20.8156  -32.1448 H   0  0  0  0  0  0  0  0  0  0  0  0
   -8.3373   23.2586  -30.7177 H   0  0  0  0  0  0  0  0  0  0  0  0
   -7.9360   25.4013  -29.5119 H   0  0  0  0  0  0  0  0  0  0  0  0
   -5.6407   26.3698  -29.4029 H   0  0  0  0  0  0  0  0  0  0  0  0
   -4.1202   23.0362  -31.7036 H   0  0  0  0  0  0  0  0  0  0  0  0
   -8.6720   21.7443  -32.3602 H   0  0  0  0  0  0  0  0  0  0  0  0
   -8.2860   19.4620  -33.4950 H   0  0  0  0  0  0  0  0  0  0  0  0
   -7.2790   17.2398  -33.0233 H   0  0  0  0  0  0  0  0  0  0  0  0
   -6.2486   15.1688  -33.9527 H   0  0  0  0  0  0  0  0  0  0  0  0
  1  2  1  0
  2  3  2  0
  3  4  1  0
  4  5  2  0
  5  6  1  0
  6  7  2  0
  7  8  1  0
  8  9  1  0
  9 10  2  0
 10 11  1  0
 11 12  2  0
 12 13  1  0
 13 14  1  0
 13 15  2  0
  8 16  2  0
 16 17  1  0
  5 18  1  0
 18 19  2  0
 19  2  1  0
 17  6  1  0
 15  9  1  0
  3 20  1  0
  4 21  1  0
  7 22  1  0
 10 23  1  0
 11 24  1  0
 12 25  1  0
 15 26  1  0
 16 27  1  0
 17 28  1  0
 18 29  1  0
 19 30  1  0
M  CHG  2   1  -1  14  -1
M  END
>  <UniqueID>  (16) 
16

>  <SMILES>  (16) 
[O-]c1ccc(-c2cc(-c3cccc([O-])c3)c[nH]2)cc1

>  <Energy>  (16) 
63.62897971071728

>  <Genealogy>  (16) 
[O-]c1ccc(-c2cc(-c3cccc([O-])c3)c[nH]2)cc1 (protonated)
[O-]c1ccc(-c2cc(-c3cccc([O-])c3)c[nH]2)cc1 (3D coordinates assigned)
[O-]c1ccc(-c2cc(-c3cccc([O-])c3)c[nH]2)cc1 (optimized conformer: 63.62897971071728 kcal/mol)

>  <smiles>  (16) 
Oc1ccc(-c2cc(-c3cccc(O)c3)c[nH]2)cc1

>  <score_type>  (16) 
oracle

>  <origin>  (16) 
adgpu

>  <m_score__min__energy>  (16) 
-10.77

>  <m_primary>  (16) 
energy

$$$$
16:0
     RDKit          3D

 47 50  0  0  0  0  0  0  0  0999 V2000
   -8.6480   21.8060  -31.5540 C   0  0  0  0  0  0  0  0  0  0  0  0
   -8.4340   20.0100  -31.3560 S   0  0  0  0  0  0  0  0  0  0  0  0
   -6.6690   20.0780  -31.6350 C   0  0  0  0  0  0  0  0  0  0  0  0
   -6.0510   19.0800  -32.3110 N   0  0  0  0  0  0  0  0  0  0  0  0
   -4.7160   19.1070  -32.5560 C   0  0  0  0  0  0  0  0  0  0  0  0
   -4.1340   17.9950  -33.3400 C   0  0  0  0  0  0  0  0  0  0  0  0
   -3.4920   18.2350  -34.5680 C   0  0  0  0  0  0  0  0  0  0  0  0
   -2.9240   17.1760  -35.2830 C   0  0  0  0  0  0  0  0  0  0  0  0
   -3.0060   15.8680  -34.7880 C   0  0  0  0  0  0  0  0  0  0  0  0
   -2.4400   14.8070  -35.4900 O   0  0  0  0  0  0  0  0  0  0  0  0
   -3.6650   15.6230  -33.5790 C   0  0  0  0  0  0  0  0  0  0  0  0
   -4.2340   16.6790  -32.8620 C   0  0  0  0  0  0  0  0  0  0  0  0
   -3.9380   20.1870  -32.0680 C   0  0  0  0  0  0  0  0  0  0  0  0
   -2.4750   20.2600  -32.3180 C   0  0  0  0  0  0  0  0  0  0  0  0
   -2.0460   21.0950  -33.1590 O   0  0  0  0  0  0  0  0  0  0  0  0
   -1.5150   19.3750  -31.6120 C   0  0  0  0  0  0  0  0  0  0  0  0
   -1.0540   18.1980  -32.2290 C   0  0  0  0  0  0  0  0  0  0  0  0
   -0.1760   17.3430  -31.5570 C   0  0  0  0  0  0  0  0  0  0  0  0
    0.2570   17.6550  -30.2670 C   0  0  0  0  0  0  0  0  0  0  0  0
   -0.1820   18.8290  -29.6470 C   0  0  0  0  0  0  0  0  0  0  0  0
    0.3590   19.2200  -28.0250 Cl  0  0  0  0  0  0  0  0  0  0  0  0
   -1.0580   19.6900  -30.3180 C   0  0  0  0  0  0  0  0  0  0  0  0
   -4.6060   21.2100  -31.3540 C   0  0  0  0  0  0  0  0  0  0  0  0
   -3.8980   22.3670  -30.7640 C   0  0  0  0  0  0  0  0  0  0  0  0
   -2.7600   22.1830  -29.9570 C   0  0  0  0  0  0  0  0  0  0  0  0
   -2.1150   23.2830  -29.3870 C   0  0  0  0  0  0  0  0  0  0  0  0
   -2.6060   24.5740  -29.6020 C   0  0  0  0  0  0  0  0  0  0  0  0
   -1.9580   25.6650  -29.0330 O   0  0  0  0  0  0  0  0  0  0  0  0
   -3.7490   24.7650  -30.3860 C   0  0  0  0  0  0  0  0  0  0  0  0
   -4.2450   26.0470  -30.5990 O   0  0  0  0  0  0  0  0  0  0  0  0
   -4.3970   23.6650  -30.9590 C   0  0  0  0  0  0  0  0  0  0  0  0
   -5.9500   21.1280  -31.1690 N   0  0  0  0  0  0  0  0  0  0  0  0
   -8.7045   22.2800  -30.5630 H   0  0  0  0  0  0  0  0  0  0  0  0
   -7.7926   22.2182  -32.1094 H   0  0  0  0  0  0  0  0  0  0  0  0
   -9.5763   22.0056  -32.1094 H   0  0  0  0  0  0  0  0  0  0  0  0
   -3.4365   19.2585  -34.9671 H   0  0  0  0  0  0  0  0  0  0  0  0
   -2.4114   17.3705  -36.2367 H   0  0  0  0  0  0  0  0  0  0  0  0
   -1.4940   14.8560  -35.8520 H   0  0  0  0  0  0  0  0  0  0  0  0
   -3.7357   14.5960  -33.1913 H   0  0  0  0  0  0  0  0  0  0  0  0
   -4.7627   16.4780  -31.9186 H   0  0  0  0  0  0  0  0  0  0  0  0
   -1.3868   17.9487  -33.2474 H   0  0  0  0  0  0  0  0  0  0  0  0
    0.1747   16.4220  -32.0457 H   0  0  0  0  0  0  0  0  0  0  0  0
    0.9435   16.9774  -29.7383 H   0  0  0  0  0  0  0  0  0  0  0  0
   -1.3915   20.6185  -29.8314 H   0  0  0  0  0  0  0  0  0  0  0  0
   -2.3766   21.1683  -29.7742 H   0  0  0  0  0  0  0  0  0  0  0  0
   -1.2185   23.1330  -28.7674 H   0  0  0  0  0  0  0  0  0  0  0  0
   -5.3020   23.8179  -31.5653 H   0  0  0  0  0  0  0  0  0  0  0  0
  1  2  1  0
  2  3  1  0
  3  4  2  0
  4  5  1  0
  5  6  1  0
  6  7  2  0
  7  8  1  0
  8  9  2  0
  9 10  1  0
  9 11  1  0
 11 12  2  0
  5 13  2  0
 13 14  1  0
 14 15  2  0
 14 16  1  0
 16 17  2  0
 17 18  1  0
 18 19  2  0
 19 20  1  0
 20 21  1  0
 20 22  2  0
 13 23  1  0
 23 24  1  0
 24 25  2  0
 25 26  1  0
 26 27  2  0
 27 28  1  0
 27 29  1  0
 29 30  1  0
 29 31  2  0
 23 32  2  0
 32  3  1  0
 12  6  1  0
 22 16  1  0
 31 24  1  0
  1 33  1  0
  1 34  1  0
  1 35  1  0
  7 36  1  0
  8 37  1  0
 10 38  1  0
 11 39  1  0
 12 40  1  0
 17 41  1  0
 18 42  1  0
 19 43  1  0
 22 44  1  0
 25 45  1  0
 26 46  1  0
 31 47  1  0
M  CHG  2  28  -1  30  -1
M  END
>  <UniqueID>  (17) 
17

>  <SMILES>  (17) 
CSc1nc(-c2ccc(O)cc2)c(C(=O)c2cccc(Cl)c2)c(-c2ccc([O-])c([O-])c2)n1

>  <Energy>  (17) 
66.92107055199077

>  <Genealogy>  (17) 
CSc1nc(-c2ccc(O)cc2)c(C(=O)c2cccc(Cl)c2)c(-c2ccc([O-])c([O-])c2)n1 (protonated)
CSc1nc(-c2ccc(O)cc2)c(C(=O)c2cccc(Cl)c2)c(-c2ccc([O-])c([O-])c2)n1 (3D coordinates assigned)
CSc1nc(-c2ccc(O)cc2)c(C(=O)c2cccc(Cl)c2)c(-c2ccc([O-])c([O-])c2)n1 (optimized conformer: 66.92107055199077 kcal/mol)

>  <smiles>  (17) 
CSc1nc(-c2ccc(O)cc2)c(C(=O)c2cccc(Cl)c2)c(-c2ccc(O)c(O)c2)n1

>  <score_type>  (17) 
oracle

>  <origin>  (17) 
adgpu

>  <m_score__min__energy>  (17) 
-12.789999999999999

>  <m_primary>  (17) 
energy

$$$$
17:0
     RDKit          3D

 35 37  0  0  0  0  0  0  0  0999 V2000
   -5.0570   26.9280  -29.9520 H   0  0  0  0  0  0  0  0  0  0  0  0
   -5.3300   26.0910  -30.5130 N   0  0  0  0  0  0  0  0  0  0  0  0
   -4.6230   25.0090  -30.5020 C   0  0  0  0  0  0  0  0  0  0  0  0
   -5.0110   23.9430  -31.2460 N   0  0  0  0  0  0  0  0  0  0  0  0
   -4.2850   22.7910  -31.2720 C   0  0  0  0  0  0  0  0  0  0  0  0
   -4.7510   21.6580  -32.1120 C   0  0  0  0  0  0  0  0  0  0  0  0
   -3.8430   20.7600  -32.7060 C   0  0  0  0  0  0  0  0  0  0  0  0
   -2.7626   20.8899  -32.5452 H   0  0  0  0  0  0  0  0  0  0  0  0
   -4.3050   19.7040  -33.4990 C   0  0  0  0  0  0  0  0  0  0  0  0
   -3.5868   19.0059  -33.9538 H   0  0  0  0  0  0  0  0  0  0  0  0
   -5.6750   19.5320  -33.7160 C   0  0  0  0  0  0  0  0  0  0  0  0
   -6.1180   18.4750  -34.5060 O   0  0  0  0  0  0  0  0  0  0  0  0
   -6.8390   18.6040  -35.2080 H   0  0  0  0  0  0  0  0  0  0  0  0
   -6.5850   20.4260  -33.1400 C   0  0  0  0  0  0  0  0  0  0  0  0
   -7.6638   20.2962  -33.3113 H   0  0  0  0  0  0  0  0  0  0  0  0
   -6.1280   21.4830  -32.3480 C   0  0  0  0  0  0  0  0  0  0  0  0
   -6.8505   22.1844  -31.9051 H   0  0  0  0  0  0  0  0  0  0  0  0
   -3.1200   22.7040  -30.4940 C   0  0  0  0  0  0  0  0  0  0  0  0
   -2.5126   21.7869  -30.4981 H   0  0  0  0  0  0  0  0  0  0  0  0
   -2.7430   23.8040  -29.7120 C   0  0  0  0  0  0  0  0  0  0  0  0
   -1.5180   23.7910  -28.8880 C   0  0  0  0  0  0  0  0  0  0  0  0
   -0.4860   24.6290  -29.1130 N   0  0  0  0  0  0  0  0  0  0  0  0
    0.4410   24.3630  -28.2050 N   0  0  0  0  0  0  0  0  0  0  0  0
   -0.0440   23.3750  -27.4310 C   0  0  0  0  0  0  0  0  0  0  0  0
    0.8640   22.6700  -26.0520 S   0  0  0  0  0  0  0  0  0  0  0  0
   -0.0980   23.5800  -24.8050 C   0  0  0  0  0  0  0  0  0  0  0  0
    0.2246   23.2748  -23.7986 H   0  0  0  0  0  0  0  0  0  0  0  0
    0.0670   24.6602  -24.9311 H   0  0  0  0  0  0  0  0  0  0  0  0
   -1.1674   23.3553  -24.9311 H   0  0  0  0  0  0  0  0  0  0  0  0
   -1.2790   22.9990  -27.8180 N   0  0  0  0  0  0  0  0  0  0  0  0
   -2.1360   21.9870  -27.2010 C   0  0  0  0  0  0  0  0  0  0  0  0
   -2.0681   22.0672  -26.1060 H   0  0  0  0  0  0  0  0  0  0  0  0
   -3.1776   22.1468  -27.5165 H   0  0  0  0  0  0  0  0  0  0  0  0
   -1.8068   20.9859  -27.5165 H   0  0  0  0  0  0  0  0  0  0  0  0
   -3.4930   24.9360  -29.7500 N   0  0  0  0  0  0  0  0  0  0  0  0
  1  2  1  0
  2  3  2  0
  3  4  1  0
  4  5  2  0
  5  6  1  0
  6  7  2  0
  7  8  1  0
  7  9  1  0
  9 10  1  0
  9 11  2  0
 11 12  1  0
 12 13  1  0
 11 14  1  0
 14 15  1  0
 14 16  2  0
 16 17  1  0
  5 18  1  0
 18 19  1  0
 18 20  2  0
 20 21  1  0
 21 22  2  0
 22 23  1  0
 23 24  2  0
 24 25  1  0
 25 26  1  0
 26 27  1  0
 26 28  1  0
 26 29  1  0
 24 30  1  0
 30 31  1  0
 31 32  1  0
 31 33  1  0
 31 34  1  0
 20 35  1  0
 35  3  1  0
 16  6  1  0
 30 21  1  0
M  CHG  1  35  -1
M  END
>  <UniqueID>  (18) 
18

>  <SMILES>  (18) 
[H]/N=c1/nc(-c2ccc(O)cc2)cc(-c2nnc(SC)n2C)[n-]1

>  <Energy>  (18) 
76.2031637717545

>  <Genealogy>  (18) 
CSc1nnc(-c2cc(-c3ccc(O)cc3)nc(=N)[n-]2)n1C (protonated)
[H]/N=c1/nc(-c2ccc(O)cc2)cc(-c2nnc(SC)n2C)[n-]1 (cis-trans isomerization)
[H]/N=c1/nc(-c2ccc(O)cc2)cc(-c2nnc(SC)n2C)[n-]1 (3D coordinates assigned)
[H]/N=c1/nc(-c2ccc(O)cc2)cc(-c2nnc(SC)n2C)[n-]1 (optimized conformer: 76.2031637717545 kcal/mol)

>  <smiles>  (18) 
CSc1nnc(-c2cc(-c3ccc(O)cc3)nc(=N)[nH]2)n1C

>  <score_type>  (18) 
oracle

>  <origin>  (18) 
adgpu

>  <m_score__min__energy>  (18) 
-8.9600000000000009

>  <m_primary>  (18) 
energy

$$$$
18:0
     RDKit          3D

 37 39  0  0  0  0  0  0  0  0999 V2000
   -2.4010   16.3120  -33.9050 C   0  0  0  0  0  0  0  0  0  0  0  0
   -2.8600   16.0910  -35.3420 C   0  0  0  0  0  0  0  0  0  0  0  0
   -3.8510   17.0470  -35.7090 O   0  0  0  0  0  0  0  0  0  0  0  0
   -4.4850   17.8800  -34.7830 C   0  0  0  0  0  0  0  0  0  0  0  0
   -5.7780   17.7190  -34.3360 C   0  0  0  0  0  0  0  0  0  0  0  0
   -5.9620   18.7710  -33.4570 C   0  0  0  0  0  0  0  0  0  0  0  0
   -7.2400   19.1120  -32.7990 C   0  0  0  0  0  0  0  0  0  0  0  0
   -7.8810   18.3550  -31.8370 C   0  0  0  0  0  0  0  0  0  0  0  0
   -9.0340   19.0440  -31.5270 C   0  0  0  0  0  0  0  0  0  0  0  0
   -9.0290   20.1730  -32.3200 C   0  0  0  0  0  0  0  0  0  0  0  0
   -7.9510   20.1830  -33.0670 O   0  0  0  0  0  0  0  0  0  0  0  0
   -4.8160   19.4910  -33.3970 N   0  0  0  0  0  0  0  0  0  0  0  0
   -4.5340   20.6380  -32.5800 C   0  0  0  0  0  0  0  0  0  0  0  0
   -3.3690   20.6710  -31.8010 C   0  0  0  0  0  0  0  0  0  0  0  0
   -3.1000   21.7690  -30.9790 C   0  0  0  0  0  0  0  0  0  0  0  0
   -4.0000   22.8410  -30.9190 C   0  0  0  0  0  0  0  0  0  0  0  0
   -3.6670   24.2170  -29.8710 S   0  0  0  0  0  0  0  0  0  0  0  0
   -4.2500   25.6640  -30.6150 N   0  0  0  0  0  0  0  0  0  0  0  0
   -2.1880   24.3350  -29.6390 O   0  0  0  0  0  0  0  0  0  0  0  0
   -4.3490   24.0240  -28.5460 O   0  0  0  0  0  0  0  0  0  0  0  0
   -5.1800   22.7960  -31.6710 C   0  0  0  0  0  0  0  0  0  0  0  0
   -5.4500   21.6980  -32.4920 C   0  0  0  0  0  0  0  0  0  0  0  0
   -3.9150   18.9550  -34.2060 N   0  0  0  0  0  0  0  0  0  0  0  0
   -3.1713   15.9411  -33.2129 H   0  0  0  0  0  0  0  0  0  0  0  0
   -1.4606   15.7679  -33.7327 H   0  0  0  0  0  0  0  0  0  0  0  0
   -2.2399   17.3864  -33.7327 H   0  0  0  0  0  0  0  0  0  0  0  0
   -1.9962   16.1901  -36.0158 H   0  0  0  0  0  0  0  0  0  0  0  0
   -3.2946   15.0837  -35.4225 H   0  0  0  0  0  0  0  0  0  0  0  0
   -6.4978   16.9350  -34.6139 H   0  0  0  0  0  0  0  0  0  0  0  0
   -7.5417   17.4008  -31.4077 H   0  0  0  0  0  0  0  0  0  0  0  0
   -9.8023   18.7527  -30.7956 H   0  0  0  0  0  0  0  0  0  0  0  0
   -9.8104   20.9472  -32.3250 H   0  0  0  0  0  0  0  0  0  0  0  0
   -2.6628   19.8284  -31.8368 H   0  0  0  0  0  0  0  0  0  0  0  0
   -2.1792   21.7915  -30.3776 H   0  0  0  0  0  0  0  0  0  0  0  0
   -3.4860   26.0180  -31.2340 H   0  0  0  0  0  0  0  0  0  0  0  0
   -5.8973   23.6281  -31.6154 H   0  0  0  0  0  0  0  0  0  0  0  0
   -6.3842   21.6642  -33.0717 H   0  0  0  0  0  0  0  0  0  0  0  0
  1  2  1  0
  2  3  1  0
  3  4  1  0
  4  5  1  0
  5  6  2  0
  6  7  1  0
  7  8  2  0
  8  9  1  0
  9 10  2  0
 10 11  1  0
  6 12  1  0
 12 13  1  0
 13 14  2  0
 14 15  1  0
 15 16  2  0
 16 17  1  0
 17 18  1  0
 17 19  2  0
 17 20  2  0
 16 21  1  0
 21 22  2  0
 12 23  1  0
 23  4  2  0
 11  7  1  0
 22 13  1  0
  1 24  1  0
  1 25  1  0
  1 26  1  0
  2 27  1  0
  2 28  1  0
  5 29  1  0
  8 30  1  0
  9 31  1  0
 10 32  1  0
 14 33  1  0
 15 34  1  0
 18 35  1  0
 21 36  1  0
 22 37  1  0
M  CHG  1  18  -1
M  END
>  <UniqueID>  (19) 
19

>  <SMILES>  (19) 
CCOc1cc(-c2ccco2)n(-c2ccc(S([NH-])(=O)=O)cc2)n1

>  <Energy>  (19) 
97.06906380752567

>  <Genealogy>  (19) 
CCOc1cc(-c2ccco2)n(-c2ccc(S([NH-])(=O)=O)cc2)n1 (protonated)
CCOc1cc(-c2ccco2)n(-c2ccc(S([NH-])(=O)=O)cc2)n1 (3D coordinates assigned)
CCOc1cc(-c2ccco2)n(-c2ccc(S([NH-])(=O)=O)cc2)n1 (optimized conformer: 97.06906380752567 kcal/mol)

>  <smiles>  (19) 
CCOc1cc(-c2ccco2)n(-c2ccc(S(N)(=O)=O)cc2)n1

>  <score_type>  (19) 
oracle

>  <origin>  (19) 
adgpu

>  <m_score__min__energy>  (19) 
-9.6899999999999995

>  <m_primary>  (19) 
energy

$$$$
19:0
     RDKit          3D

 45 47  0  0  0  0  0  0  0  0999 V2000
   -1.5610   24.9970  -28.1920 C   0  0  0  0  0  0  0  0  0  0  0  0
   -2.3500   25.2980  -29.3420 O   0  0  0  0  0  0  0  0  0  0  0  0
   -3.6000   24.7070  -29.6300 C   0  0  0  0  0  0  0  0  0  0  0  0
   -3.8890   23.4640  -29.0520 C   0  0  0  0  0  0  0  0  0  0  0  0
   -5.1190   22.8370  -29.2990 C   0  0  0  0  0  0  0  0  0  0  0  0
   -6.0930   23.4700  -30.1060 C   0  0  0  0  0  0  0  0  0  0  0  0
   -7.3990   22.9110  -30.3230 N   0  0  0  0  0  0  0  0  0  0  0  0
   -8.0820   22.5440  -31.8860 S   0  0  0  0  0  0  0  0  0  0  0  0
   -9.5280   23.0110  -31.9110 O   0  0  0  0  0  0  0  0  0  0  0  0
   -7.3060   23.2850  -32.9510 O   0  0  0  0  0  0  0  0  0  0  0  0
   -8.0560   20.8060  -32.2140 C   0  0  0  0  0  0  0  0  0  0  0  0
   -8.8100   19.9310  -31.4160 C   0  0  0  0  0  0  0  0  0  0  0  0
   -8.7080   18.5500  -31.6050 C   0  0  0  0  0  0  0  0  0  0  0  0
   -7.8590   18.0320  -32.5910 C   0  0  0  0  0  0  0  0  0  0  0  0
   -7.1030   18.9010  -33.4030 C   0  0  0  0  0  0  0  0  0  0  0  0
   -6.1960   18.4020  -34.4050 N   0  0  0  0  0  0  0  0  0  0  0  0
   -4.5560   17.9480  -34.0620 S   0  0  0  0  0  0  0  0  0  0  0  0
   -3.8720   17.5270  -35.3300 O   0  0  0  0  0  0  0  0  0  0  0  0
   -4.5510   16.7970  -33.1020 O   0  0  0  0  0  0  0  0  0  0  0  0
   -3.6970   19.3310  -33.4030 C   0  0  0  0  0  0  0  0  0  0  0  0
   -2.4820   19.7200  -33.9810 C   0  0  0  0  0  0  0  0  0  0  0  0
   -1.8010   20.8370  -33.4910 C   0  0  0  0  0  0  0  0  0  0  0  0
   -2.3320   21.5640  -32.4200 C   0  0  0  0  0  0  0  0  0  0  0  0
   -3.5470   21.1820  -31.8430 C   0  0  0  0  0  0  0  0  0  0  0  0
   -4.2320   20.0630  -32.3320 C   0  0  0  0  0  0  0  0  0  0  0  0
   -7.2190   20.2890  -33.2150 C   0  0  0  0  0  0  0  0  0  0  0  0
   -5.7990   24.6990  -30.7110 C   0  0  0  0  0  0  0  0  0  0  0  0
   -4.5660   25.3220  -30.4730 C   0  0  0  0  0  0  0  0  0  0  0  0
   -2.1393   25.2176  -27.2826 H   0  0  0  0  0  0  0  0  0  0  0  0
   -1.2879   23.9315  -28.2034 H   0  0  0  0  0  0  0  0  0  0  0  0
   -0.6476   25.6098  -28.2034 H   0  0  0  0  0  0  0  0  0  0  0  0
   -3.1476   22.9774  -28.4012 H   0  0  0  0  0  0  0  0  0  0  0  0
   -5.3271   21.8487  -28.8632 H   0  0  0  0  0  0  0  0  0  0  0  0
   -9.4809   20.3323  -30.6421 H   0  0  0  0  0  0  0  0  0  0  0  0
   -9.2975   17.8665  -30.9762 H   0  0  0  0  0  0  0  0  0  0  0  0
   -7.7820   16.9438  -32.7320 H   0  0  0  0  0  0  0  0  0  0  0  0
   -6.4720   18.4670  -35.4150 H   0  0  0  0  0  0  0  0  0  0  0  0
   -2.0639   19.1459  -34.8210 H   0  0  0  0  0  0  0  0  0  0  0  0
   -0.8483   21.1446  -33.9467 H   0  0  0  0  0  0  0  0  0  0  0  0
   -1.7916   22.4393  -32.0304 H   0  0  0  0  0  0  0  0  0  0  0  0
   -3.9644   21.7602  -31.0055 H   0  0  0  0  0  0  0  0  0  0  0  0
   -5.1866   19.7586  -31.8780 H   0  0  0  0  0  0  0  0  0  0  0  0
   -6.6490   20.9759  -33.8578 H   0  0  0  0  0  0  0  0  0  0  0  0
   -6.5365   25.1756  -31.3735 H   0  0  0  0  0  0  0  0  0  0  0  0
   -4.3444   26.2924  -30.9412 H   0  0  0  0  0  0  0  0  0  0  0  0
  1  2  1  0
  2  3  1  0
  3  4  2  0
  4  5  1  0
  5  6  2  0
  6  7  1  0
  7  8  1  0
  8  9  2  0
  8 10  2  0
  8 11  1  0
 11 12  2  0
 12 13  1  0
 13 14  2  0
 14 15  1  0
 15 16  1  0
 16 17  1  0
 17 18  2  0
 17 19  2  0
 17 20  1  0
 20 21  2  0
 21 22  1  0
 22 23  2  0
 23 24  1  0
 24 25  2  0
 15 26  2  0
  6 27  1  0
 27 28  2  0
 28  3  1  0
 26 11  1  0
 25 20  1  0
  1 29  1  0
  1 30  1  0
  1 31  1  0
  4 32  1  0
  5 33  1  0
 12 34  1  0
 13 35  1  0
 14 36  1  0
 16 37  1  0
 21 38  1  0
 22 39  1  0
 23 40  1  0
 24 41  1  0
 25 42  1  0
 26 43  1  0
 27 44  1  0
 28 45  1  0
M  CHG  1   7  -1
M  END
>  <UniqueID>  (20) 
20

>  <SMILES>  (20) 
COc1ccc([N-]S(=O)(=O)c2cccc(NS(=O)(=O)c3ccccc3)c2)cc1

>  <Energy>  (20) 
55.48066296315263

>  <Genealogy>  (20) 
COc1ccc([N-]S(=O)(=O)c2cccc(NS(=O)(=O)c3ccccc3)c2)cc1 (protonated)
COc1ccc([N-]S(=O)(=O)c2cccc(NS(=O)(=O)c3ccccc3)c2)cc1 (3D coordinates assigned)
COc1ccc([N-]S(=O)(=O)c2cccc(NS(=O)(=O)c3ccccc3)c2)cc1 (optimized conformer: 55.48066296315263 kcal/mol)

>  <smiles>  (20) 
COc1ccc(NS(=O)(=O)c2cccc(NS(=O)(=O)c3ccccc3)c2)cc1

>  <score_type>  (20) 
oracle

>  <origin>  (20) 
adgpu

>  <m_score__min__energy>  (20) 
-11.25

>  <m_primary>  (20) 
energy

$$$$
20:0
     RDKit          3D

 33 35  0  0  0  0  0  0  0  0999 V2000
    0.5150   25.1850  -24.0850 N   0  0  0  0  0  0  0  0  0  0  0  0
   -0.5400   26.3830  -24.7470 S   0  0  0  0  0  0  0  0  0  0  0  0
   -1.5430   26.7970  -23.7060 O   0  0  0  0  0  0  0  0  0  0  0  0
    0.2610   27.5890  -25.1500 O   0  0  0  0  0  0  0  0  0  0  0  0
   -1.3760   25.7250  -26.1500 C   0  0  0  0  0  0  0  0  0  0  0  0
   -0.8150   25.8460  -27.4260 C   0  0  0  0  0  0  0  0  0  0  0  0
   -1.4840   25.3360  -28.5410 C   0  0  0  0  0  0  0  0  0  0  0  0
   -2.7320   24.7000  -28.4010 C   0  0  0  0  0  0  0  0  0  0  0  0
   -3.4090   24.1780  -29.5640 N   0  0  0  0  0  0  0  0  0  0  0  0
   -3.4830   22.8970  -29.9770 C   0  0  0  0  0  0  0  0  0  0  0  0
   -4.2430   22.9010  -31.1330 C   0  0  0  0  0  0  0  0  0  0  0  0
   -4.6220   21.7420  -31.9760 C   0  0  0  0  0  0  0  0  0  0  0  0
   -3.6460   20.9450  -32.6060 C   0  0  0  0  0  0  0  0  0  0  0  0
   -4.0230   19.8570  -33.3970 C   0  0  0  0  0  0  0  0  0  0  0  0
   -5.3750   19.5500  -33.5720 C   0  0  0  0  0  0  0  0  0  0  0  0
   -5.8440   18.1830  -34.5660 Cl  0  0  0  0  0  0  0  0  0  0  0  0
   -6.3520   20.3320  -32.9520 C   0  0  0  0  0  0  0  0  0  0  0  0
   -5.9800   21.4230  -32.1600 C   0  0  0  0  0  0  0  0  0  0  0  0
   -4.6080   24.1750  -31.3840 N   0  0  0  0  0  0  0  0  0  0  0  0
   -4.0910   24.9230  -30.4210 N   0  0  0  0  0  0  0  0  0  0  0  0
   -3.2910   24.5880  -27.1130 C   0  0  0  0  0  0  0  0  0  0  0  0
   -2.6190   25.0990  -25.9990 C   0  0  0  0  0  0  0  0  0  0  0  0
   -0.0900   24.4520  -23.6510 H   0  0  0  0  0  0  0  0  0  0  0  0
    1.0420   25.6390  -23.3060 H   0  0  0  0  0  0  0  0  0  0  0  0
    0.1572   26.3450  -27.5516 H   0  0  0  0  0  0  0  0  0  0  0  0
   -1.0310   25.4323  -29.5388 H   0  0  0  0  0  0  0  0  0  0  0  0
   -3.0287   22.0211  -29.4907 H   0  0  0  0  0  0  0  0  0  0  0  0
   -2.5797   21.1810  -32.4742 H   0  0  0  0  0  0  0  0  0  0  0  0
   -3.2532   19.2400  -33.8836 H   0  0  0  0  0  0  0  0  0  0  0  0
   -7.4164   20.0893  -33.0869 H   0  0  0  0  0  0  0  0  0  0  0  0
   -6.7550   22.0364  -31.6772 H   0  0  0  0  0  0  0  0  0  0  0  0
   -4.2651   24.0940  -26.9827 H   0  0  0  0  0  0  0  0  0  0  0  0
   -3.0688   25.0089  -24.9992 H   0  0  0  0  0  0  0  0  0  0  0  0
  1  2  1  0
  2  3  2  0
  2  4  2  0
  2  5  1  0
  5  6  2  0
  6  7  1  0
  7  8  2  0
  8  9  1  0
  9 10  1  0
 10 11  2  0
 11 12  1  0
 12 13  2  0
 13 14  1  0
 14 15  2  0
 15 16  1  0
 15 17  1  0
 17 18  2  0
 11 19  1  0
 19 20  2  0
  8 21  1  0
 21 22  2  0
 22  5  1  0
 20  9  1  0
 18 12  1  0
  1 23  1  0
  1 24  1  0
  6 25  1  0
  7 26  1  0
 10 27  1  0
 13 28  1  0
 14 29  1  0
 17 30  1  0
 18 31  1  0
 21 32  1  0
 22 33  1  0
M  END
>  <UniqueID>  (21) 
21

>  <SMILES>  (21) 
NS(=O)(=O)c1ccc(-n2cc(-c3ccc(Cl)cc3)nn2)cc1

>  <Energy>  (21) 
72.8985881929472

>  <Genealogy>  (21) 
NS(=O)(=O)c1ccc(-n2cc(-c3ccc(Cl)cc3)nn2)cc1 (3D coordinates assigned)
NS(=O)(=O)c1ccc(-n2cc(-c3ccc(Cl)cc3)nn2)cc1 (optimized conformer: 72.8985881929472 kcal/mol)

>  <smiles>  (21) 
NS(=O)(=O)c1ccc(-n2cc(-c3ccc(Cl)cc3)nn2)cc1

>  <score_type>  (21) 
oracle

>  <origin>  (21) 
adgpu

>  <m_score__min__energy>  (21) 
-9.4399999999999995

>  <m_primary>  (21) 
energy

$$$$
21:0
     RDKit          3D

 42 44  0  0  0  0  0  0  0  0999 V2000
   -5.9320   26.1610  -29.8580 O   0  0  0  0  0  0  0  0  0  0  0  0
   -5.0460   24.9490  -29.9240 S   0  0  0  0  0  0  0  0  0  0  0  0
   -3.8800   25.2550  -30.8210 O   0  0  0  0  0  0  0  0  0  0  0  0
   -4.4640   24.5610  -28.3380 N   0  0  0  0  0  0  0  0  0  0  0  0
   -3.5590   23.4720  -28.0940 C   0  0  0  0  0  0  0  0  0  0  0  0
   -3.8750   22.1690  -28.5170 C   0  0  0  0  0  0  0  0  0  0  0  0
   -3.0100   21.1070  -28.2420 C   0  0  0  0  0  0  0  0  0  0  0  0
   -1.8270   21.3300  -27.5380 C   0  0  0  0  0  0  0  0  0  0  0  0
   -1.5010   22.6200  -27.1110 C   0  0  0  0  0  0  0  0  0  0  0  0
   -2.3580   23.6940  -27.3870 C   0  0  0  0  0  0  0  0  0  0  0  0
   -1.9770   25.0210  -26.9990 N   0  0  0  0  0  0  0  0  0  0  0  0
   -1.0200   25.7660  -27.8270 C   0  0  0  0  0  0  0  0  0  0  0  0
   -0.6650   27.1150  -27.1910 C   0  0  0  0  0  0  0  0  0  0  0  0
   -0.4070   26.9400  -25.6900 C   0  0  0  0  0  0  0  0  0  0  0  0
   -1.6250   26.3560  -24.9420 C   0  0  0  0  0  0  0  0  0  0  0  0
   -2.6460   25.6650  -25.8630 C   0  0  0  0  0  0  0  0  0  0  0  0
   -5.9170   23.5660  -30.5810 C   0  0  0  0  0  0  0  0  0  0  0  0
   -7.1140   23.1530  -29.9810 C   0  0  0  0  0  0  0  0  0  0  0  0
   -7.8330   22.0780  -30.5130 C   0  0  0  0  0  0  0  0  0  0  0  0
   -7.3580   21.4110  -31.6470 C   0  0  0  0  0  0  0  0  0  0  0  0
   -8.2620   20.0650  -32.3170 Cl  0  0  0  0  0  0  0  0  0  0  0  0
   -6.1640   21.8210  -32.2490 C   0  0  0  0  0  0  0  0  0  0  0  0
   -5.4440   22.8960  -31.7180 C   0  0  0  0  0  0  0  0  0  0  0  0
   -4.6530   25.2540  -27.5800 H   0  0  0  0  0  0  0  0  0  0  0  0
   -4.8091   21.9846  -29.0679 H   0  0  0  0  0  0  0  0  0  0  0  0
   -3.2628   20.0918  -28.5818 H   0  0  0  0  0  0  0  0  0  0  0  0
   -1.1507   20.4906  -27.3189 H   0  0  0  0  0  0  0  0  0  0  0  0
   -0.5674   22.7933  -26.5557 H   0  0  0  0  0  0  0  0  0  0  0  0
   -0.1023   25.1698  -27.9383 H   0  0  0  0  0  0  0  0  0  0  0  0
   -1.4825   25.9552  -28.8070 H   0  0  0  0  0  0  0  0  0  0  0  0
    0.2397   27.5163  -27.6710 H   0  0  0  0  0  0  0  0  0  0  0  0
   -1.5049   27.8111  -27.3325 H   0  0  0  0  0  0  0  0  0  0  0  0
    0.4475   26.2603  -25.5564 H   0  0  0  0  0  0  0  0  0  0  0  0
   -0.2035   27.9356  -25.2688 H   0  0  0  0  0  0  0  0  0  0  0  0
   -1.2622   25.6183  -24.2111 H   0  0  0  0  0  0  0  0  0  0  0  0
   -2.1436   27.2008  -24.4652 H   0  0  0  0  0  0  0  0  0  0  0  0
   -3.1916   24.9028  -25.2875 H   0  0  0  0  0  0  0  0  0  0  0  0
   -3.3402   26.4255  -26.2500 H   0  0  0  0  0  0  0  0  0  0  0  0
   -7.4892   23.6759  -29.0889 H   0  0  0  0  0  0  0  0  0  0  0  0
   -8.7725   21.7568  -30.0395 H   0  0  0  0  0  0  0  0  0  0  0  0
   -5.7907   21.2972  -33.1414 H   0  0  0  0  0  0  0  0  0  0  0  0
   -4.5051   23.2163  -32.1932 H   0  0  0  0  0  0  0  0  0  0  0  0
  1  2  2  0
  2  3  2  0
  2  4  1  0
  4  5  1  0
  5  6  2  0
  6  7  1  0
  7  8  2  0
  8  9  1  0
  9 10  2  0
 10 11  1  0
 11 12  1  0
 12 13  1  0
 13 14  1  0
 14 15  1  0
 15 16  1  0
  2 17  1  0
 17 18  2  0
 18 19  1  0
 19 20  2  0
 20 21  1  0
 20 22  1  0
 22 23  2  0
 10  5  1  0
 16 11  1  0
 23 17  1  0
  4 24  1  0
  6 25  1  0
  7 26  1  0
  8 27  1  0
  9 28  1  0
 12 29  1  0
 12 30  1  0
 13 31  1  0
 13 32  1  0
 14 33  1  0
 14 34  1  0
 15 35  1  0
 15 36  1  0
 16 37  1  0
 16 38  1  0
 18 39  1  0
 19 40  1  0
 22 41  1  0
 23 42  1  0
M  END
>  <UniqueID>  (22) 
22

>  <SMILES>  (22) 
O=S(=O)(Nc1ccccc1N1CCCCC1)c1ccc(Cl)cc1

>  <Energy>  (22) 
51.23942096580996

>  <Genealogy>  (22) 
O=S(=O)(Nc1ccccc1N1CCCCC1)c1ccc(Cl)cc1 (3D coordinates assigned)
O=S(=O)(Nc1ccccc1N1CCCCC1)c1ccc(Cl)cc1 (nonaromatic ring conformer: 51.23942096580996 kcal/mol)

>  <smiles>  (22) 
O=S(=O)(Nc1ccccc1N1CCCCC1)c1ccc(Cl)cc1

>  <score_type>  (22) 
oracle

>  <origin>  (22) 
adgpu

>  <m_score__min__energy>  (22) 
-9.2200000000000006

>  <m_primary>  (22) 
energy

$$$$
22:0
     RDKit          3D

 44 47  0  0  0  0  0  0  0  0999 V2000
   -0.5190   29.9720  -26.8630 C   0  0  0  0  0  0  0  0  0  0  0  0
    0.7250   29.1050  -26.9730 C   0  0  0  0  0  0  0  0  0  0  0  0
    0.5350   27.9040  -26.2300 O   0  0  0  0  0  0  0  0  0  0  0  0
   -0.4480   26.9450  -26.5130 C   0  0  0  0  0  0  0  0  0  0  0  0
   -1.2350   26.3380  -25.4920 C   0  0  0  0  0  0  0  0  0  0  0  0
   -2.2140   25.3790  -25.8160 C   0  0  0  0  0  0  0  0  0  0  0  0
   -2.3790   25.0520  -27.1580 C   0  0  0  0  0  0  0  0  0  0  0  0
   -3.2420   24.1730  -27.6950 N   0  0  0  0  0  0  0  0  0  0  0  0
   -2.9580   24.2700  -29.0220 C   0  0  0  0  0  0  0  0  0  0  0  0
   -3.6610   23.4770  -30.0470 C   0  0  0  0  0  0  0  0  0  0  0  0
   -3.0760   22.9760  -31.1970 C   0  0  0  0  0  0  0  0  0  0  0  0
   -4.0650   22.2890  -31.8760 C   0  0  0  0  0  0  0  0  0  0  0  0
   -3.8650   21.5770  -33.1790 C   0  0  0  0  0  0  0  0  0  0  0  0
   -5.2270   22.3340  -31.1860 N   0  0  0  0  0  0  0  0  0  0  0  0
   -6.4780   21.7420  -31.5740 C   0  0  0  0  0  0  0  0  0  0  0  0
   -7.6540   22.5090  -31.5720 C   0  0  0  0  0  0  0  0  0  0  0  0
   -8.8690   21.9350  -31.9570 C   0  0  0  0  0  0  0  0  0  0  0  0
   -8.9170   20.5950  -32.3490 C   0  0  0  0  0  0  0  0  0  0  0  0
   -7.7500   19.8260  -32.3560 C   0  0  0  0  0  0  0  0  0  0  0  0
   -6.5330   20.3960  -31.9700 C   0  0  0  0  0  0  0  0  0  0  0  0
   -4.9880   23.0640  -30.0730 C   0  0  0  0  0  0  0  0  0  0  0  0
   -5.9660   23.3030  -29.0530 N   0  0  0  0  0  0  0  0  0  0  0  0
   -1.9950   25.1380  -29.2870 O   0  0  0  0  0  0  0  0  0  0  0  0
   -1.6300   25.6280  -28.1350 C   0  0  0  0  0  0  0  0  0  0  0  0
   -0.6540   26.5800  -27.8590 C   0  0  0  0  0  0  0  0  0  0  0  0
   -0.7575   30.1382  -25.8021 H   0  0  0  0  0  0  0  0  0  0  0  0
   -0.3363   30.9394  -27.3537 H   0  0  0  0  0  0  0  0  0  0  0  0
   -1.3634   29.4657  -27.3537 H   0  0  0  0  0  0  0  0  0  0  0  0
    0.9071   28.8576  -28.0292 H   0  0  0  0  0  0  0  0  0  0  0  0
    1.5898   29.6523  -26.5698 H   0  0  0  0  0  0  0  0  0  0  0  0
   -1.0764   26.6211  -24.4410 H   0  0  0  0  0  0  0  0  0  0  0  0
   -2.8269   24.9050  -25.0351 H   0  0  0  0  0  0  0  0  0  0  0  0
   -2.0287   23.1002  -31.5096 H   0  0  0  0  0  0  0  0  0  0  0  0
   -3.5721   20.5344  -32.9860 H   0  0  0  0  0  0  0  0  0  0  0  0
   -4.8027   21.5940  -33.7538 H   0  0  0  0  0  0  0  0  0  0  0  0
   -3.0733   22.0798  -33.7538 H   0  0  0  0  0  0  0  0  0  0  0  0
   -7.6191   23.5651  -31.2664 H   0  0  0  0  0  0  0  0  0  0  0  0
   -9.7883   22.5391  -31.9513 H   0  0  0  0  0  0  0  0  0  0  0  0
   -9.8738   20.1449  -32.6523 H   0  0  0  0  0  0  0  0  0  0  0  0
   -7.7890   18.7712  -32.6655 H   0  0  0  0  0  0  0  0  0  0  0  0
   -5.6161   19.7883  -31.9766 H   0  0  0  0  0  0  0  0  0  0  0  0
   -5.7050   23.7870  -28.1660 H   0  0  0  0  0  0  0  0  0  0  0  0
   -6.9630   23.0250  -29.1690 H   0  0  0  0  0  0  0  0  0  0  0  0
   -0.0610   27.0342  -28.6665 H   0  0  0  0  0  0  0  0  0  0  0  0
  1  2  1  0
  2  3  1  0
  3  4  1  0
  4  5  2  0
  5  6  1  0
  6  7  2  0
  7  8  1  0
  8  9  2  0
  9 10  1  0
 10 11  1  0
 11 12  2  0
 12 13  1  0
 12 14  1  0
 14 15  1  0
 15 16  2  0
 16 17  1  0
 17 18  2  0
 18 19  1  0
 19 20  2  0
 14 21  1  0
 21 22  1  0
  9 23  1  0
 23 24  1  0
 24 25  2  0
 25  4  1  0
 24  7  1  0
 21 10  2  0
 20 15  1  0
  1 26  1  0
  1 27  1  0
  1 28  1  0
  2 29  1  0
  2 30  1  0
  5 31  1  0
  6 32  1  0
 11 33  1  0
 13 34  1  0
 13 35  1  0
 13 36  1  0
 16 37  1  0
 17 38  1  0
 18 39  1  0
 19 40  1  0
 20 41  1  0
 22 42  1  0
 22 43  1  0
 25 44  1  0
M  END
>  <UniqueID>  (23) 
23

>  <SMILES>  (23) 
CCOc1ccc2nc(-c3cc(C)n(-c4ccccc4)c3N)oc2c1

>  <Energy>  (23) 
114.45278040134396

>  <Genealogy>  (23) 
CCOc1ccc2nc(-c3cc(C)n(-c4ccccc4)c3N)oc2c1 (3D coordinates assigned)
CCOc1ccc2nc(-c3cc(C)n(-c4ccccc4)c3N)oc2c1 (optimized conformer: 114.45278040134396 kcal/mol)

>  <smiles>  (23) 
CCOc1ccc2nc(-c3cc(C)n(-c4ccccc4)c3N)oc2c1

>  <score_type>  (23) 
oracle

>  <origin>  (23) 
adgpu

>  <m_score__min__energy>  (23) 
-7.54

>  <m_primary>  (23) 
energy

$$$$
23:0
     RDKit          3D

 32 33  0  0  0  0  0  0  0  0999 V2000
   -4.4910   21.9820  -32.7380 C   0  0  0  0  0  0  0  0  0  0  0  0
   -5.6420   22.2390  -31.8700 N   0  0  0  0  0  0  0  0  0  0  0  0
   -6.8180   21.4050  -31.9480 C   0  0  0  0  0  0  0  0  0  0  0  0
   -8.1050   21.9780  -31.9160 C   0  0  0  0  0  0  0  0  0  0  0  0
   -9.2440   21.1680  -31.9830 C   0  0  0  0  0  0  0  0  0  0  0  0
   -9.1130   19.7830  -32.0790 C   0  0  0  0  0  0  0  0  0  0  0  0
   -7.8440   19.2020  -32.1050 C   0  0  0  0  0  0  0  0  0  0  0  0
   -6.7030   20.0050  -32.0400 C   0  0  0  0  0  0  0  0  0  0  0  0
   -5.5690   23.5730  -30.7500 S   0  0  0  0  0  0  0  0  0  0  0  0
   -5.3790   24.8490  -31.5240 O   0  0  0  0  0  0  0  0  0  0  0  0
   -6.8600   23.6650  -29.9860 O   0  0  0  0  0  0  0  0  0  0  0  0
   -4.2360   23.3620  -29.6190 C   0  0  0  0  0  0  0  0  0  0  0  0
   -4.2470   22.3100  -28.6940 C   0  0  0  0  0  0  0  0  0  0  0  0
   -3.1850   22.1490  -27.8030 C   0  0  0  0  0  0  0  0  0  0  0  0
   -2.1070   23.0370  -27.8250 C   0  0  0  0  0  0  0  0  0  0  0  0
   -2.0810   24.1020  -28.7430 C   0  0  0  0  0  0  0  0  0  0  0  0
   -0.9710   25.0180  -28.7640 N   0  0  0  0  0  0  0  0  0  0  0  0
   -1.1530   26.2370  -28.9630 O   0  0  0  0  0  0  0  0  0  0  0  0
    0.3130   24.5640  -28.5640 O   0  0  0  0  0  0  0  0  0  0  0  0
   -3.1570   24.2560  -29.6390 C   0  0  0  0  0  0  0  0  0  0  0  0
   -3.6028   21.7837  -32.1201 H   0  0  0  0  0  0  0  0  0  0  0  0
   -4.6985   21.1081  -33.3730 H   0  0  0  0  0  0  0  0  0  0  0  0
   -4.3071   22.8612  -33.3730 H   0  0  0  0  0  0  0  0  0  0  0  0
   -8.2150   23.0697  -31.8378 H   0  0  0  0  0  0  0  0  0  0  0  0
  -10.2445   21.6246  -31.9599 H   0  0  0  0  0  0  0  0  0  0  0  0
  -10.0097   19.1483  -32.1342 H   0  0  0  0  0  0  0  0  0  0  0  0
   -7.7423   18.1091  -32.1769 H   0  0  0  0  0  0  0  0  0  0  0  0
   -5.7065   19.5397  -32.0609 H   0  0  0  0  0  0  0  0  0  0  0  0
   -5.0946   21.6093  -28.6699 H   0  0  0  0  0  0  0  0  0  0  0  0
   -3.1969   21.3196  -27.0806 H   0  0  0  0  0  0  0  0  0  0  0  0
   -1.2734   22.9024  -27.1200 H   0  0  0  0  0  0  0  0  0  0  0  0
   -3.1502   25.0858  -30.3611 H   0  0  0  0  0  0  0  0  0  0  0  0
  1  2  1  0
  2  3  1  0
  3  4  2  0
  4  5  1  0
  5  6  2  0
  6  7  1  0
  7  8  2  0
  2  9  1  0
  9 10  2  0
  9 11  2  0
  9 12  1  0
 12 13  2  0
 13 14  1  0
 14 15  2  0
 15 16  1  0
 16 17  1  0
 17 18  2  0
 17 19  1  0
 16 20  2  0
  8  3  1  0
 20 12  1  0
  1 21  1  0
  1 22  1  0
  1 23  1  0
  4 24  1  0
  5 25  1  0
  6 26  1  0
  7 27  1  0
  8 28  1  0
 13 29  1  0
 14 30  1  0
 15 31  1  0
 20 32  1  0
M  CHG  2  17   1  19  -1
M  END
>  <UniqueID>  (24) 
24

>  <SMILES>  (24) 
CN(c1ccccc1)S(=O)(=O)c1cccc([N+](=O)[O-])c1

>  <Energy>  (24) 
37.92907402616896

>  <Genealogy>  (24) 
CN(c1ccccc1)S(=O)(=O)c1cccc([N+](=O)[O-])c1 (3D coordinates assigned)
CN(c1ccccc1)S(=O)(=O)c1cccc([N+](=O)[O-])c1 (optimized conformer: 37.92907402616896 kcal/mol)

>  <smiles>  (24) 
CN(c1ccccc1)S(=O)(=O)c1cccc([N+](=O)[O-])c1

>  <score_type>  (24) 
oracle

>  <origin>  (24) 
adgpu

>  <m_score__min__energy>  (24) 
-8.1099999999999994

>  <m_primary>  (24) 
energy

$$$$
24:0
     RDKit          3D

 32 34  0  0  0  0  0  0  0  0999 V2000
   -5.9590   25.9160  -29.5950 O   0  0  0  0  0  0  0  0  0  0  0  0
   -5.2540   25.1180  -30.2660 C   0  0  0  0  0  0  0  0  0  0  0  0
   -3.8340   25.3070  -30.2950 N   0  0  0  0  0  0  0  0  0  0  0  0
   -2.8550   24.4460  -29.6950 C   0  0  0  0  0  0  0  0  0  0  0  0
   -2.7450   23.0900  -30.0560 C   0  0  0  0  0  0  0  0  0  0  0  0
   -1.7900   22.2750  -29.4390 C   0  0  0  0  0  0  0  0  0  0  0  0
   -0.9540   22.8000  -28.4500 C   0  0  0  0  0  0  0  0  0  0  0  0
   -1.0760   24.1390  -28.0700 C   0  0  0  0  0  0  0  0  0  0  0  0
   -2.0290   24.9580  -28.6860 C   0  0  0  0  0  0  0  0  0  0  0  0
   -5.9200   24.0580  -31.0450 C   0  0  0  0  0  0  0  0  0  0  0  0
   -6.1860   22.7660  -30.6250 C   0  0  0  0  0  0  0  0  0  0  0  0
   -6.7870   22.1680  -31.7180 C   0  0  0  0  0  0  0  0  0  0  0  0
   -7.2790   20.7680  -31.7990 C   0  0  0  0  0  0  0  0  0  0  0  0
   -6.3720   19.6930  -31.8670 C   0  0  0  0  0  0  0  0  0  0  0  0
   -6.8390   18.3770  -31.9460 C   0  0  0  0  0  0  0  0  0  0  0  0
   -8.2100   18.1180  -31.9600 C   0  0  0  0  0  0  0  0  0  0  0  0
   -9.1190   19.1750  -31.8960 C   0  0  0  0  0  0  0  0  0  0  0  0
   -8.6600   20.4930  -31.8170 C   0  0  0  0  0  0  0  0  0  0  0  0
   -6.8510   23.0690  -32.7200 N   0  0  0  0  0  0  0  0  0  0  0  0
   -6.3210   24.2140  -32.3210 N   0  0  0  0  0  0  0  0  0  0  0  0
   -3.4110   22.6705  -30.8244 H   0  0  0  0  0  0  0  0  0  0  0  0
   -1.6970   21.2191  -29.7329 H   0  0  0  0  0  0  0  0  0  0  0  0
   -0.1996   22.1589  -27.9705 H   0  0  0  0  0  0  0  0  0  0  0  0
   -0.4226   24.5497  -27.2862 H   0  0  0  0  0  0  0  0  0  0  0  0
   -2.1300   26.0087  -28.3765 H   0  0  0  0  0  0  0  0  0  0  0  0
   -5.9688   22.3169  -29.6446 H   0  0  0  0  0  0  0  0  0  0  0  0
   -5.2897   19.8894  -31.8579 H   0  0  0  0  0  0  0  0  0  0  0  0
   -6.1231   17.5434  -31.9973 H   0  0  0  0  0  0  0  0  0  0  0  0
   -8.5740   17.0818  -32.0214 H   0  0  0  0  0  0  0  0  0  0  0  0
  -10.1997   18.9704  -31.9078 H   0  0  0  0  0  0  0  0  0  0  0  0
   -9.3825   21.3210  -31.7686 H   0  0  0  0  0  0  0  0  0  0  0  0
   -7.2270   22.9150  -33.6810 H   0  0  0  0  0  0  0  0  0  0  0  0
  1  2  2  0
  2  3  1  0
  3  4  1  0
  4  5  2  0
  5  6  1  0
  6  7  2  0
  7  8  1  0
  8  9  2  0
  2 10  1  0
 10 11  1  0
 11 12  2  0
 12 13  1  0
 13 14  2  0
 14 15  1  0
 15 16  2  0
 16 17  1  0
 17 18  2  0
 12 19  1  0
 19 20  1  0
  9  4  1  0
 20 10  2  0
 18 13  1  0
  5 21  1  0
  6 22  1  0
  7 23  1  0
  8 24  1  0
  9 25  1  0
 11 26  1  0
 14 27  1  0
 15 28  1  0
 16 29  1  0
 17 30  1  0
 18 31  1  0
 19 32  1  0
M  CHG  1   3  -1
M  END
>  <UniqueID>  (25) 
25

>  <SMILES>  (25) 
O=C([N-]c1ccccc1)c1cc(-c2ccccc2)[nH]n1

>  <Energy>  (25) 
71.69303744526256

>  <Genealogy>  (25) 
O=C([N-]c1ccccc1)c1cc(-c2ccccc2)[nH]n1 (protonated)
O=C([N-]c1ccccc1)c1cc(-c2ccccc2)[nH]n1 (3D coordinates assigned)
O=C([N-]c1ccccc1)c1cc(-c2ccccc2)[nH]n1 (optimized conformer: 71.69303744526256 kcal/mol)

>  <smiles>  (25) 
O=C(Nc1ccccc1)c1cc(-c2ccccc2)[nH]n1

>  <score_type>  (25) 
oracle

>  <origin>  (25) 
adgpu

>  <m_score__min__energy>  (25) 
-9.5899999999999999

>  <m_primary>  (25) 
energy

$$$$
25:0
     RDKit          3D

 45 47  0  0  0  0  0  0  0  0999 V2000
   -0.3340   20.8170  -29.5470 C   0  0  0  0  0  0  0  0  0  0  0  0
   -1.3040   21.2690  -30.6060 C   0  0  0  0  0  0  0  0  0  0  0  0
   -2.3290   22.1620  -30.2490 C   0  0  0  0  0  0  0  0  0  0  0  0
   -3.2180   22.6530  -31.2150 C   0  0  0  0  0  0  0  0  0  0  0  0
   -4.4970   23.7770  -30.7670 S   0  0  0  0  0  0  0  0  0  0  0  0
   -3.8020   25.2980  -30.3270 N   0  0  0  0  0  0  0  0  0  0  0  0
   -5.4360   23.9770  -31.9240 O   0  0  0  0  0  0  0  0  0  0  0  0
   -5.2730   23.2210  -29.6050 O   0  0  0  0  0  0  0  0  0  0  0  0
   -3.0910   22.2400  -32.5450 C   0  0  0  0  0  0  0  0  0  0  0  0
   -2.0900   21.3370  -32.9080 C   0  0  0  0  0  0  0  0  0  0  0  0
   -1.2120   20.8230  -31.9470 C   0  0  0  0  0  0  0  0  0  0  0  0
   -0.2130   19.8870  -32.3700 N   0  0  0  0  0  0  0  0  0  0  0  0
   -0.4150   18.9000  -33.3890 C   0  0  0  0  0  0  0  0  0  0  0  0
    0.4570   18.7210  -34.2820 O   0  0  0  0  0  0  0  0  0  0  0  0
   -1.6270   18.0730  -33.3760 C   0  0  0  0  0  0  0  0  0  0  0  0
   -1.6770   16.6990  -33.1810 C   0  0  0  0  0  0  0  0  0  0  0  0
   -2.9780   16.1820  -33.2030 C   0  0  0  0  0  0  0  0  0  0  0  0
   -3.9640   17.1450  -33.4360 C   0  0  0  0  0  0  0  0  0  0  0  0
   -5.4720   16.9310  -33.4210 C   0  0  2  0  0  0  0  0  0  0  0  0
   -5.7820   15.4280  -33.5910 C   0  0  0  0  0  0  0  0  0  0  0  0
   -6.1230   17.7050  -34.6000 C   0  0  0  0  0  0  0  0  0  0  0  0
   -6.0600   19.2270  -34.4170 C   0  0  0  0  0  0  0  0  0  0  0  0
   -6.6650   19.6230  -33.1050 C   0  0  0  0  0  0  0  0  0  0  0  0
   -7.1680   20.7690  -32.9690 O   0  0  0  0  0  0  0  0  0  0  0  0
   -6.6300   18.7250  -31.9900 N   0  0  0  0  0  0  0  0  0  0  0  0
   -6.0620   17.4140  -32.1030 C   0  0  0  0  0  0  0  0  0  0  0  0
   -5.9900   16.6860  -31.0740 O   0  0  0  0  0  0  0  0  0  0  0  0
   -3.1960   18.6430  -33.5690 S   0  0  0  0  0  0  0  0  0  0  0  0
   -0.7590   21.0150  -28.5519 H   0  0  0  0  0  0  0  0  0  0  0  0
   -0.1465   19.7388  -29.6577 H   0  0  0  0  0  0  0  0  0  0  0  0
    0.6122   21.3670  -29.6577 H   0  0  0  0  0  0  0  0  0  0  0  0
   -2.4346   22.4787  -29.2009 H   0  0  0  0  0  0  0  0  0  0  0  0
   -3.5010   25.7620  -31.2140 H   0  0  0  0  0  0  0  0  0  0  0  0
   -3.7821   22.6279  -33.3078 H   0  0  0  0  0  0  0  0  0  0  0  0
   -1.9905   21.0268  -33.9587 H   0  0  0  0  0  0  0  0  0  0  0  0
   -0.7826   16.0780  -33.0247 H   0  0  0  0  0  0  0  0  0  0  0  0
   -3.2034   15.1161  -33.0509 H   0  0  0  0  0  0  0  0  0  0  0  0
   -5.8787   14.9592  -32.6006 H   0  0  0  0  0  0  0  0  0  0  0  0
   -6.7237   15.3084  -34.1468 H   0  0  0  0  0  0  0  0  0  0  0  0
   -4.9645   14.9456  -34.1468 H   0  0  0  0  0  0  0  0  0  0  0  0
   -5.5957   17.4402  -35.5284 H   0  0  0  0  0  0  0  0  0  0  0  0
   -7.1845   17.4191  -34.6388 H   0  0  0  0  0  0  0  0  0  0  0  0
   -5.0094   19.5517  -34.4439 H   0  0  0  0  0  0  0  0  0  0  0  0
   -6.6260   19.7068  -35.2291 H   0  0  0  0  0  0  0  0  0  0  0  0
   -7.0240   19.0350  -31.0730 H   0  0  0  0  0  0  0  0  0  0  0  0
  1  2  1  0
  2  3  2  0
  3  4  1  0
  4  5  1  0
  5  6  1  0
  5  7  2  0
  5  8  2  0
  4  9  2  0
  9 10  1  0
 10 11  2  0
 11 12  1  0
 12 13  1  0
 13 14  2  0
 13 15  1  0
 15 16  2  0
 16 17  1  0
 17 18  2  0
 18 19  1  0
 19 20  1  6
 19 21  1  0
 21 22  1  0
 22 23  1  0
 23 24  2  0
 23 25  1  0
 25 26  1  0
 26 27  2  0
 18 28  1  0
 11  2  1  0
 28 15  1  0
 26 19  1  0
  1 29  1  0
  1 30  1  0
  1 31  1  0
  3 32  1  0
  6 33  1  0
  9 34  1  0
 10 35  1  0
 16 36  1  0
 17 37  1  0
 20 38  1  0
 20 39  1  0
 20 40  1  0
 21 41  1  0
 21 42  1  0
 22 43  1  0
 22 44  1  0
 25 45  1  0
M  CHG  2   6  -1  12  -1
M  END
>  <UniqueID>  (26) 
26

>  <SMILES>  (26) 
Cc1cc(S([NH-])(=O)=O)ccc1[N-]C(=O)c1ccc([C@]2(C)CCC(=O)NC2=O)s1

>  <Energy>  (26) 
76.12621706099331

>  <Genealogy>  (26) 
Cc1cc(S([NH-])(=O)=O)ccc1[N-]C(=O)c1ccc(C2(C)CCC(=O)NC2=O)s1 (protonated)
Cc1cc(S([NH-])(=O)=O)ccc1[N-]C(=O)c1ccc([C@]2(C)CCC(=O)NC2=O)s1 (chirality)
Cc1cc(S([NH-])(=O)=O)ccc1[N-]C(=O)c1ccc([C@]2(C)CCC(=O)NC2=O)s1 (3D coordinates assigned)
Cc1cc(S([NH-])(=O)=O)ccc1[N-]C(=O)c1ccc([C@]2(C)CCC(=O)NC2=O)s1 (nonaromatic ring conformer: 76.12621706099331 kcal/mol)

>  <smiles>  (26) 
Cc1cc(S(N)(=O)=O)ccc1NC(=O)c1ccc(C2(C)CCC(=O)NC2=O)s1

>  <score_type>  (26) 
oracle

>  <origin>  (26) 
adgpu

>  <m_score__min__energy>  (26) 
-11.35

>  <m_primary>  (26) 
energy

$$$$
26:0
     RDKit          3D

 38 39  0  0  0  0  0  0  0  0999 V2000
   -5.5200   20.2930  -32.9400 C   0  0  0  0  0  0  0  0  0  0  0  0
   -6.8730   20.7580  -32.4730 C   0  0  0  0  0  0  0  0  0  0  0  0
   -7.9920   19.9410  -32.7140 C   0  0  0  0  0  0  0  0  0  0  0  0
   -9.2620   20.3320  -32.2890 C   0  0  0  0  0  0  0  0  0  0  0  0
   -9.4320   21.5430  -31.6210 C   0  0  0  0  0  0  0  0  0  0  0  0
   -8.3350   22.3690  -31.3780 C   0  0  0  0  0  0  0  0  0  0  0  0
   -7.0410   21.9960  -31.7980 C   0  0  0  0  0  0  0  0  0  0  0  0
   -5.9060   22.8600  -31.5510 N   0  0  0  0  0  0  0  0  0  0  0  0
   -6.0120   24.2800  -31.2100 C   0  0  0  0  0  0  0  0  0  0  0  0
   -4.6750   24.8150  -30.7740 C   0  0  0  0  0  0  0  0  0  0  0  0
   -4.5740   26.0310  -30.4680 O   0  0  0  0  0  0  0  0  0  0  0  0
   -3.4970   23.9970  -30.7600 N   0  0  0  0  0  0  0  0  0  0  0  0
   -3.1930   22.9620  -29.8160 C   0  0  0  0  0  0  0  0  0  0  0  0
   -3.3420   23.2260  -28.4500 C   0  0  0  0  0  0  0  0  0  0  0  0
   -3.0790   22.2290  -27.5050 C   0  0  0  0  0  0  0  0  0  0  0  0
   -2.6740   20.9540  -27.9200 C   0  0  0  0  0  0  0  0  0  0  0  0
   -2.3600   19.6930  -26.7320 S   0  0  0  0  0  0  0  0  0  0  0  0
   -3.8560   19.0350  -26.1720 N   0  0  0  0  0  0  0  0  0  0  0  0
   -1.5990   20.2690  -25.5700 O   0  0  0  0  0  0  0  0  0  0  0  0
   -1.5340   18.6020  -27.3540 O   0  0  0  0  0  0  0  0  0  0  0  0
   -2.5590   20.6760  -29.2890 C   0  0  0  0  0  0  0  0  0  0  0  0
   -2.8230   21.6730  -30.2330 C   0  0  0  0  0  0  0  0  0  0  0  0
   -4.8860   20.0751  -32.0679 H   0  0  0  0  0  0  0  0  0  0  0  0
   -5.6344   19.3826  -33.5467 H   0  0  0  0  0  0  0  0  0  0  0  0
   -5.0506   21.0814  -33.5467 H   0  0  0  0  0  0  0  0  0  0  0  0
   -7.8647   18.9847  -33.2425 H   0  0  0  0  0  0  0  0  0  0  0  0
  -10.1297   19.6839  -32.4814 H   0  0  0  0  0  0  0  0  0  0  0  0
  -10.4338   21.8482  -31.2846 H   0  0  0  0  0  0  0  0  0  0  0  0
   -8.4806   23.3240  -30.8519 H   0  0  0  0  0  0  0  0  0  0  0  0
   -4.9380   22.4720  -31.6040 H   0  0  0  0  0  0  0  0  0  0  0  0
   -6.3566   24.8400  -32.0919 H   0  0  0  0  0  0  0  0  0  0  0  0
   -6.7298   24.3965  -30.3846 H   0  0  0  0  0  0  0  0  0  0  0  0
   -3.6676   24.2227  -28.1177 H   0  0  0  0  0  0  0  0  0  0  0  0
   -3.1906   22.4469  -26.4326 H   0  0  0  0  0  0  0  0  0  0  0  0
   -3.7760   18.9350  -25.1350 H   0  0  0  0  0  0  0  0  0  0  0  0
   -4.5910   19.7570  -26.3470 H   0  0  0  0  0  0  0  0  0  0  0  0
   -2.2603   19.6709  -29.6215 H   0  0  0  0  0  0  0  0  0  0  0  0
   -2.7406   21.4469  -31.3064 H   0  0  0  0  0  0  0  0  0  0  0  0
  1  2  1  0
  2  3  2  0
  3  4  1  0
  4  5  2  0
  5  6  1  0
  6  7  2  0
  7  8  1  0
  8  9  1  0
  9 10  1  0
 10 11  2  0
 10 12  1  0
 12 13  1  0
 13 14  2  0
 14 15  1  0
 15 16  2  0
 16 17  1  0
 17 18  1  0
 17 19  2  0
 17 20  2  0
 16 21  1  0
 21 22  2  0
  7  2  1  0
 22 13  1  0
  1 23  1  0
  1 24  1  0
  1 25  1  0
  3 26  1  0
  4 27  1  0
  5 28  1  0
  6 29  1  0
  8 30  1  0
  9 31  1  0
  9 32  1  0
 14 33  1  0
 15 34  1  0
 18 35  1  0
 18 36  1  0
 21 37  1  0
 22 38  1  0
M  CHG  1  12  -1
M  END
>  <UniqueID>  (27) 
27

>  <SMILES>  (27) 
Cc1ccccc1NCC(=O)[N-]c1ccc(S(N)(=O)=O)cc1

>  <Energy>  (27) 
41.69318130324732

>  <Genealogy>  (27) 
Cc1ccccc1NCC(=O)[N-]c1ccc(S(N)(=O)=O)cc1 (protonated)
Cc1ccccc1NCC(=O)[N-]c1ccc(S(N)(=O)=O)cc1 (3D coordinates assigned)
Cc1ccccc1NCC(=O)[N-]c1ccc(S(N)(=O)=O)cc1 (optimized conformer: 41.69318130324732 kcal/mol)

>  <smiles>  (27) 
Cc1ccccc1NCC(=O)Nc1ccc(S(N)(=O)=O)cc1

>  <score_type>  (27) 
oracle

>  <origin>  (27) 
adgpu

>  <m_score__min__energy>  (27) 
-9.8399999999999999

>  <m_primary>  (27) 
energy

$$$$
27:0
     RDKit          3D

 37 39  0  0  0  0  0  0  0  0999 V2000
   -8.7260   21.4290  -31.1790 C   0  0  0  0  0  0  0  0  0  0  0  0
   -7.8830   20.3790  -31.8310 C   0  0  0  0  0  0  0  0  0  0  0  0
   -8.2610   19.0830  -31.9440 N   0  0  0  0  0  0  0  0  0  0  0  0
   -7.2920   18.4790  -32.6540 C   0  0  0  0  0  0  0  0  0  0  0  0
   -7.2480   17.1430  -33.0490 C   0  0  0  0  0  0  0  0  0  0  0  0
   -6.1490   16.7220  -33.8210 C   0  0  0  0  0  0  0  0  0  0  0  0
   -5.1350   17.6370  -34.1820 C   0  0  0  0  0  0  0  0  0  0  0  0
   -5.2090   18.9810  -33.7720 C   0  0  0  0  0  0  0  0  0  0  0  0
   -6.3050   19.3670  -33.0000 C   0  0  0  0  0  0  0  0  0  0  0  0
   -6.6610   20.5940  -32.4720 C   0  0  0  0  0  0  0  0  0  0  0  0
   -5.9520   21.9030  -32.6640 C   0  0  0  0  0  0  0  0  0  0  0  0
   -5.2220   22.3120  -31.3810 C   0  0  0  0  0  0  0  0  0  0  0  0
   -6.0940   23.1190  -30.5250 N   0  0  0  0  0  0  0  0  0  0  0  0
   -5.7120   23.8760  -29.5360 C   0  0  0  0  0  0  0  0  0  0  0  0
   -4.3020   24.0020  -29.1120 C   0  0  0  0  0  0  0  0  0  0  0  0
   -3.4290   24.8960  -29.7510 C   0  0  0  0  0  0  0  0  0  0  0  0
   -3.8720   25.6770  -30.8120 O   0  0  0  0  0  0  0  0  0  0  0  0
   -2.1360   24.9940  -29.3390 N   0  0  0  0  0  0  0  0  0  0  0  0
   -1.6670   24.2190  -28.3220 C   0  0  0  0  0  0  0  0  0  0  0  0
   -0.1130   24.3540  -27.8270 S   0  0  0  0  0  0  0  0  0  0  0  0
   -2.4880   23.3250  -27.7150 N   0  0  0  0  0  0  0  0  0  0  0  0
   -3.7860   23.1930  -28.0900 C   0  0  0  0  0  0  0  0  0  0  0  0
   -4.5170   22.3510  -27.5050 O   0  0  0  0  0  0  0  0  0  0  0  0
   -8.6496   21.3339  -30.0858 H   0  0  0  0  0  0  0  0  0  0  0  0
   -8.3737   22.4248  -31.4859 H   0  0  0  0  0  0  0  0  0  0  0  0
   -9.7744   21.3003  -31.4859 H   0  0  0  0  0  0  0  0  0  0  0  0
   -9.1380   18.6480  -31.5790 H   0  0  0  0  0  0  0  0  0  0  0  0
   -8.0461   16.4406  -32.7666 H   0  0  0  0  0  0  0  0  0  0  0  0
   -6.0792   15.6733  -34.1455 H   0  0  0  0  0  0  0  0  0  0  0  0
   -4.2821   17.2966  -34.7875 H   0  0  0  0  0  0  0  0  0  0  0  0
   -4.4281   19.7037  -34.0511 H   0  0  0  0  0  0  0  0  0  0  0  0
   -5.2210   21.8023  -33.4798 H   0  0  0  0  0  0  0  0  0  0  0  0
   -6.6941   22.6760  -32.9124 H   0  0  0  0  0  0  0  0  0  0  0  0
   -4.9168   21.4072  -30.8350 H   0  0  0  0  0  0  0  0  0  0  0  0
   -4.3393   22.9102  -31.6513 H   0  0  0  0  0  0  0  0  0  0  0  0
   -6.4759   24.4491  -28.9901 H   0  0  0  0  0  0  0  0  0  0  0  0
   -1.5010   25.6730  -29.8160 H   0  0  0  0  0  0  0  0  0  0  0  0
  1  2  1  0
  2  3  1  0
  3  4  1  0
  4  5  2  0
  5  6  1  0
  6  7  2  0
  7  8  1  0
  8  9  2  0
  9 10  1  0
 10 11  1  0
 11 12  1  0
 12 13  1  0
 13 14  2  3
 14 15  1  0
 15 16  2  0
 16 17  1  0
 16 18  1  0
 18 19  1  0
 19 20  2  0
 19 21  1  0
 21 22  1  0
 22 23  2  0
 10  2  2  0
 22 15  1  0
  9  4  1  0
  1 24  1  0
  1 25  1  0
  1 26  1  0
  3 27  1  0
  5 28  1  0
  6 29  1  0
  7 30  1  0
  8 31  1  0
 11 32  1  0
 11 33  1  0
 12 34  1  0
 12 35  1  0
 14 36  1  0
 18 37  1  0
M  CHG  2  17  -1  21  -1
M  END
>  <UniqueID>  (28) 
28

>  <SMILES>  (28) 
Cc1[nH]c2ccccc2c1CCN=Cc1c([O-])[nH]c(=S)[n-]c1=O

>  <Energy>  (28) 
75.2109024917438

>  <Genealogy>  (28) 
Cc1[nH]c2ccccc2c1CCN=Cc1c([O-])[nH]c(=S)[n-]c1=O (protonated)
Cc1[nH]c2ccccc2c1CCN=Cc1c([O-])[nH]c(=S)[n-]c1=O (3D coordinates assigned)
Cc1[nH]c2ccccc2c1CCN=Cc1c([O-])[nH]c(=S)[n-]c1=O (optimized conformer: 75.2109024917438 kcal/mol)

>  <smiles>  (28) 
Cc1[nH]c2ccccc2c1CCN=Cc1c(O)[nH]c(=S)[nH]c1=O

>  <score_type>  (28) 
oracle

>  <origin>  (28) 
adgpu

>  <m_score__min__energy>  (28) 
-12.73

>  <m_primary>  (28) 
energy

$$$$
28:0
     RDKit          3D

 51 54  0  0  0  0  0  0  0  0999 V2000
   -5.3660   20.0380  -32.2060 O   0  0  0  0  0  0  0  0  0  0  0  0
   -5.9610   21.0650  -31.9180 C   0  0  0  0  0  0  0  0  0  0  0  0
   -7.2770   20.9570  -31.1940 C   0  0  0  0  0  0  0  0  0  0  0  0
   -8.0000   22.3050  -31.1870 C   0  0  0  0  0  0  0  0  0  0  0  0
   -7.0870   23.4310  -30.6810 C   0  0  0  0  0  0  0  0  0  0  0  0
   -5.6520   23.4270  -31.3050 C   0  0  1  0  0  0  0  0  0  0  0  0
   -4.6160   23.4090  -30.1710 C   0  0  0  0  0  0  0  0  0  0  0  0
   -4.5400   22.3350  -29.2570 C   0  0  0  0  0  0  0  0  0  0  0  0
   -3.6110   22.3480  -28.2150 C   0  0  0  0  0  0  0  0  0  0  0  0
   -2.7650   23.4420  -28.0410 C   0  0  0  0  0  0  0  0  0  0  0  0
   -2.8600   24.5370  -28.8990 C   0  0  0  0  0  0  0  0  0  0  0  0
   -3.7840   24.5350  -29.9490 C   0  0  0  0  0  0  0  0  0  0  0  0
   -3.8600   25.6550  -30.7700 O   0  0  0  0  0  0  0  0  0  0  0  0
   -5.4840   22.3670  -32.3520 N   0  0  1  0  0  0  0  0  0  0  0  0
   -4.2000   22.3730  -33.1190 C   0  0  0  0  0  0  0  0  0  0  0  0
   -3.0790   21.5130  -32.5680 C   0  0  0  0  0  0  0  0  0  0  0  0
   -2.3230   21.9170  -31.4540 C   0  0  0  0  0  0  0  0  0  0  0  0
   -1.2900   21.1120  -30.9680 C   0  0  0  0  0  0  0  0  0  0  0  0
   -1.0200   19.8670  -31.5610 C   0  0  0  0  0  0  0  0  0  0  0  0
    0.0310   19.0470  -31.1260 O   0  0  0  0  0  0  0  0  0  0  0  0
    0.1170   18.4300  -29.8700 C   0  0  0  0  0  0  0  0  0  0  0  0
   -0.4900   19.0520  -28.7710 C   0  0  0  0  0  0  0  0  0  0  0  0
   -0.4140   18.4730  -27.5010 C   0  0  0  0  0  0  0  0  0  0  0  0
    0.2820   17.2750  -27.3170 C   0  0  0  0  0  0  0  0  0  0  0  0
    0.9080   16.6580  -28.4040 C   0  0  0  0  0  0  0  0  0  0  0  0
    0.8320   17.2330  -29.6760 C   0  0  0  0  0  0  0  0  0  0  0  0
   -1.7930   19.4470  -32.6480 C   0  0  0  0  0  0  0  0  0  0  0  0
   -2.8250   20.2520  -33.1360 C   0  0  0  0  0  0  0  0  0  0  0  0
   -7.9077   20.2111  -31.6998 H   0  0  0  0  0  0  0  0  0  0  0  0
   -7.0859   20.6518  -30.1546 H   0  0  0  0  0  0  0  0  0  0  0  0
   -8.3252   22.5415  -32.2109 H   0  0  0  0  0  0  0  0  0  0  0  0
   -8.8632   22.2300  -30.5093 H   0  0  0  0  0  0  0  0  0  0  0  0
   -7.5632   24.3936  -30.9189 H   0  0  0  0  0  0  0  0  0  0  0  0
   -6.9605   23.2717  -29.6000 H   0  0  0  0  0  0  0  0  0  0  0  0
   -5.4830   24.3539  -31.8728 H   0  0  0  0  0  0  0  0  0  0  0  0
   -5.2209   21.4781  -29.3675 H   0  0  0  0  0  0  0  0  0  0  0  0
   -3.5464   21.4911  -27.5283 H   0  0  0  0  0  0  0  0  0  0  0  0
   -2.0237   23.4415  -27.2283 H   0  0  0  0  0  0  0  0  0  0  0  0
   -2.2044   25.4075  -28.7492 H   0  0  0  0  0  0  0  0  0  0  0  0
   -6.1760   22.6280  -33.0960 H   0  0  0  0  0  0  0  0  0  0  0  0
   -4.4184   22.0242  -34.1391 H   0  0  0  0  0  0  0  0  0  0  0  0
   -3.8299   23.4072  -33.0594 H   0  0  0  0  0  0  0  0  0  0  0  0
   -2.5466   22.8746  -30.9610 H   0  0  0  0  0  0  0  0  0  0  0  0
   -0.6844   21.4547  -30.1161 H   0  0  0  0  0  0  0  0  0  0  0  0
   -1.0292   20.0009  -28.9083 H   0  0  0  0  0  0  0  0  0  0  0  0
   -0.9028   18.9611  -26.6449 H   0  0  0  0  0  0  0  0  0  0  0  0
    0.3371   16.8181  -26.3179 H   0  0  0  0  0  0  0  0  0  0  0  0
    1.4613   15.7185  -28.2583 H   0  0  0  0  0  0  0  0  0  0  0  0
    1.3323   16.7488  -30.5276 H   0  0  0  0  0  0  0  0  0  0  0  0
   -1.5870   18.4760  -33.1220 H   0  0  0  0  0  0  0  0  0  0  0  0
   -3.4447   19.8962  -33.9723 H   0  0  0  0  0  0  0  0  0  0  0  0
  1  2  2  0
  2  3  1  0
  3  4  1  0
  4  5  1  0
  5  6  1  0
  6  7  1  0
  7  8  2  0
  8  9  1  0
  9 10  2  0
 10 11  1  0
 11 12  2  0
 12 13  1  0
  6 14  1  0
 14 15  1  0
 15 16  1  0
 16 17  2  0
 17 18  1  0
 18 19  2  0
 19 20  1  0
 20 21  1  0
 21 22  2  0
 22 23  1  0
 23 24  2  0
 24 25  1  0
 25 26  2  0
 19 27  1  0
 27 28  2  0
 14  2  1  0
 28 16  1  0
 12  7  1  0
 26 21  1  0
  3 29  1  0
  3 30  1  0
  4 31  1  0
  4 32  1  0
  5 33  1  0
  5 34  1  0
  6 35  1  6
  8 36  1  0
  9 37  1  0
 10 38  1  0
 11 39  1  0
 14 40  1  6
 15 41  1  0
 15 42  1  0
 17 43  1  0
 18 44  1  0
 22 45  1  0
 23 46  1  0
 24 47  1  0
 25 48  1  0
 26 49  1  0
 27 50  1  0
 28 51  1  0
M  CHG  2  13  -1  14   1
M  END
>  <UniqueID>  (29) 
29

>  <SMILES>  (29) 
O=C1CCC[C@@H](c2ccccc2[O-])[N@H+]1Cc1ccc(Oc2ccccc2)cc1

>  <Energy>  (29) 
82.33610572409643

>  <Genealogy>  (29) 
O=C1CCCC(c2ccccc2[O-])[NH+]1Cc1ccc(Oc2ccccc2)cc1 (protonated)
O=C1CCC[C@@H](c2ccccc2[O-])[N@H+]1Cc1ccc(Oc2ccccc2)cc1 (chirality)
O=C1CCC[C@@H](c2ccccc2[O-])[N@H+]1Cc1ccc(Oc2ccccc2)cc1 (3D coordinates assigned)
O=C1CCC[C@@H](c2ccccc2[O-])[N@H+]1Cc1ccc(Oc2ccccc2)cc1 (nonaromatic ring conformer: 82.33610572409643 kcal/mol)

>  <smiles>  (29) 
O=C1CCCC(c2ccccc2O)N1Cc1ccc(Oc2ccccc2)cc1

>  <score_type>  (29) 
oracle

>  <origin>  (29) 
adgpu

>  <m_score__min__energy>  (29) 
-10.91

>  <m_primary>  (29) 
energy

$$$$
29:0
     RDKit          3D

 53 56  0  0  0  0  0  0  0  0999 V2000
   -7.0210   25.7060  -29.4330 C   0  0  0  0  0  0  0  0  0  0  0  0
   -7.7320   24.9220  -30.3850 O   0  0  0  0  0  0  0  0  0  0  0  0
   -7.2380   23.7460  -30.9680 C   0  0  0  0  0  0  0  0  0  0  0  0
   -8.0540   22.8670  -31.7020 C   0  0  0  0  0  0  0  0  0  0  0  0
   -7.5140   21.7060  -32.2660 C   0  0  0  0  0  0  0  0  0  0  0  0
   -6.1510   21.4050  -32.1070 C   0  0  0  0  0  0  0  0  0  0  0  0
   -5.5870   20.1790  -32.7050 C   0  0  0  0  0  0  0  0  0  0  0  0
   -4.4080   20.1490  -33.3850 N   0  0  0  0  0  0  0  0  0  0  0  0
   -4.3140   18.8540  -33.7290 C   0  0  0  0  0  0  0  0  0  0  0  0
   -3.2990   18.2300  -34.4500 C   0  0  0  0  0  0  0  0  0  0  0  0
   -3.4080   16.8420  -34.6840 C   0  0  0  0  0  0  0  0  0  0  0  0
   -2.3850   16.1810  -35.4490 N   0  0  0  0  0  0  0  0  0  0  0  0
   -0.9740   16.4060  -35.2650 C   0  0  0  0  0  0  0  0  0  0  0  0
   -0.5790   17.2960  -34.4630 O   0  0  0  0  0  0  0  0  0  0  0  0
    0.0350   15.6150  -36.0100 C   0  0  0  0  0  0  0  0  0  0  0  0
   -0.2780   14.3100  -36.4340 C   0  0  0  0  0  0  0  0  0  0  0  0
    0.6600   13.5470  -37.1350 C   0  0  0  0  0  0  0  0  0  0  0  0
    1.9290   14.0690  -37.4130 C   0  0  0  0  0  0  0  0  0  0  0  0
    3.1170   13.1000  -38.2870 S   0  0  0  0  0  0  0  0  0  0  0  0
    2.4470   11.8660  -38.8270 O   0  0  0  0  0  0  0  0  0  0  0  0
    3.6390   13.8910  -39.4540 O   0  0  0  0  0  0  0  0  0  0  0  0
    4.4490   12.6330  -37.2580 N   0  0  0  0  0  0  0  0  0  0  0  0
    5.0930   11.4270  -37.7920 C   0  0  0  0  0  0  0  0  0  0  0  0
    3.9640   12.3870  -35.8940 C   0  0  0  0  0  0  0  0  0  0  0  0
    2.2530   15.3610  -36.9810 C   0  0  0  0  0  0  0  0  0  0  0  0
    1.3160   16.1290  -36.2820 C   0  0  0  0  0  0  0  0  0  0  0  0
   -4.5520   16.1370  -34.2140 C   0  0  0  0  0  0  0  0  0  0  0  0
   -5.5580   16.8050  -33.4890 C   0  0  0  0  0  0  0  0  0  0  0  0
   -5.3940   18.1670  -33.2680 C   0  0  0  0  0  0  0  0  0  0  0  0
   -6.1790   18.9960  -32.6350 O   0  0  0  0  0  0  0  0  0  0  0  0
   -5.3390   22.2860  -31.3750 C   0  0  0  0  0  0  0  0  0  0  0  0
   -5.8800   23.4450  -30.8120 C   0  0  0  0  0  0  0  0  0  0  0  0
   -7.3038   25.3942  -28.4167 H   0  0  0  0  0  0  0  0  0  0  0  0
   -5.9396   25.5615  -29.5733 H   0  0  0  0  0  0  0  0  0  0  0  0
   -7.2702   26.7682  -29.5733 H   0  0  0  0  0  0  0  0  0  0  0  0
   -9.1224   23.0933  -31.8335 H   0  0  0  0  0  0  0  0  0  0  0  0
   -8.1610   21.0244  -32.8377 H   0  0  0  0  0  0  0  0  0  0  0  0
   -2.4378   18.8017  -34.8261 H   0  0  0  0  0  0  0  0  0  0  0  0
   -2.7050   15.5420  -36.2090 H   0  0  0  0  0  0  0  0  0  0  0  0
   -1.2689   13.8871  -36.2119 H   0  0  0  0  0  0  0  0  0  0  0  0
    0.4001   12.5319  -37.4698 H   0  0  0  0  0  0  0  0  0  0  0  0
    5.4316   10.7929  -36.9594 H   0  0  0  0  0  0  0  0  0  0  0  0
    4.3728   10.8691  -38.4084 H   0  0  0  0  0  0  0  0  0  0  0  0
    5.9573   11.7152  -38.4084 H   0  0  0  0  0  0  0  0  0  0  0  0
    4.7020   12.7613  -35.1693 H   0  0  0  0  0  0  0  0  0  0  0  0
    3.0070   12.9087  -35.7454 H   0  0  0  0  0  0  0  0  0  0  0  0
    3.8196   11.3067  -35.7454 H   0  0  0  0  0  0  0  0  0  0  0  0
    3.2502   15.7743  -37.1926 H   0  0  0  0  0  0  0  0  0  0  0  0
    1.5823   17.1410  -35.9429 H   0  0  0  0  0  0  0  0  0  0  0  0
   -4.6512   15.0608  -34.4189 H   0  0  0  0  0  0  0  0  0  0  0  0
   -6.4409   16.2683  -33.1117 H   0  0  0  0  0  0  0  0  0  0  0  0
   -4.2700   22.0625  -31.2438 H   0  0  0  0  0  0  0  0  0  0  0  0
   -5.2327   24.1269  -30.2411 H   0  0  0  0  0  0  0  0  0  0  0  0
  1  2  1  0
  2  3  1  0
  3  4  2  0
  4  5  1  0
  5  6  2  0
  6  7  1  0
  7  8  2  0
  8  9  1  0
  9 10  2  0
 10 11  1  0
 11 12  1  0
 12 13  1  0
 13 14  2  0
 13 15  1  0
 15 16  2  0
 16 17  1  0
 17 18  2  0
 18 19  1  0
 19 20  2  0
 19 21  2  0
 19 22  1  0
 22 23  1  0
 22 24  1  0
 18 25  1  0
 25 26  2  0
 11 27  2  0
 27 28  1  0
 28 29  2  0
 29 30  1  0
  6 31  1  0
 31 32  2  0
 32  3  1  0
 30  7  1  0
 29  9  1  0
 26 15  1  0
  1 33  1  0
  1 34  1  0
  1 35  1  0
  4 36  1  0
  5 37  1  0
 10 38  1  0
 12 39  1  0
 16 40  1  0
 17 41  1  0
 23 42  1  0
 23 43  1  0
 23 44  1  0
 24 45  1  0
 24 46  1  0
 24 47  1  0
 25 48  1  0
 26 49  1  0
 27 50  1  0
 28 51  1  0
 31 52  1  0
 32 53  1  0
M  END
>  <UniqueID>  (30) 
30

>  <SMILES>  (30) 
COc1ccc(-c2nc3cc(NC(=O)c4ccc(S(=O)(=O)N(C)C)cc4)ccc3o2)cc1

>  <Energy>  (30) 
98.74973395408658

>  <Genealogy>  (30) 
COc1ccc(-c2nc3cc(NC(=O)c4ccc(S(=O)(=O)N(C)C)cc4)ccc3o2)cc1 (3D coordinates assigned)
COc1ccc(-c2nc3cc(NC(=O)c4ccc(S(=O)(=O)N(C)C)cc4)ccc3o2)cc1 (optimized conformer: 98.74973395408658 kcal/mol)

>  <smiles>  (30) 
COc1ccc(-c2nc3cc(NC(=O)c4ccc(S(=O)(=O)N(C)C)cc4)ccc3o2)cc1

>  <score_type>  (30) 
oracle

>  <origin>  (30) 
adgpu

>  <m_score__min__energy>  (30) 
-8.1500000000000004

>  <m_primary>  (30) 
energy

$$$$
30:0
     RDKit          3D

 39 42  0  0  0  0  0  0  0  0999 V2000
   -4.7370   11.8910  -33.1270 C   0  0  0  0  0  0  0  0  0  0  0  0
   -4.8240   12.9960  -34.0210 O   0  0  0  0  0  0  0  0  0  0  0  0
   -5.2380   14.2840  -33.6510 C   0  0  0  0  0  0  0  0  0  0  0  0
   -4.5160   15.0770  -32.7390 C   0  0  0  0  0  0  0  0  0  0  0  0
   -4.9700   16.3550  -32.4020 C   0  0  0  0  0  0  0  0  0  0  0  0
   -6.1510   16.8670  -32.9670 C   0  0  0  0  0  0  0  0  0  0  0  0
   -6.6330   18.2260  -32.6090 C   0  0  0  0  0  0  0  0  0  0  0  0
   -7.9820   18.5740  -32.7930 C   0  0  0  0  0  0  0  0  0  0  0  0
   -8.4320   19.8520  -32.4580 C   0  0  0  0  0  0  0  0  0  0  0  0
   -7.5470   20.7960  -31.9370 C   0  0  0  0  0  0  0  0  0  0  0  0
   -6.1930   20.4730  -31.7420 C   0  0  0  0  0  0  0  0  0  0  0  0
   -5.2490   21.4760  -31.1890 C   0  0  0  0  0  0  0  0  0  0  0  0
   -5.3880   22.8630  -31.2920 C   0  0  0  0  0  0  0  0  0  0  0  0
   -4.2910   23.3830  -30.6400 C   0  0  0  0  0  0  0  0  0  0  0  0
   -3.8840   24.6950  -30.4130 C   0  0  0  0  0  0  0  0  0  0  0  0
   -4.5580   25.6710  -30.8360 O   0  0  0  0  0  0  0  0  0  0  0  0
   -2.7280   24.9030  -29.7160 N   0  0  0  0  0  0  0  0  0  0  0  0
   -1.9710   23.8630  -29.2420 C   0  0  0  0  0  0  0  0  0  0  0  0
   -2.3710   22.5320  -29.4640 C   0  0  0  0  0  0  0  0  0  0  0  0
   -3.5500   22.3330  -30.1760 C   0  0  0  0  0  0  0  0  0  0  0  0
   -4.1190   21.1610  -30.5050 N   0  0  0  0  0  0  0  0  0  0  0  0
   -5.7460   19.1830  -32.0840 C   0  0  0  0  0  0  0  0  0  0  0  0
   -6.8690   16.0690  -33.8760 C   0  0  0  0  0  0  0  0  0  0  0  0
   -6.4130   14.7920  -34.2130 C   0  0  0  0  0  0  0  0  0  0  0  0
   -4.7657   12.2556  -32.0896 H   0  0  0  0  0  0  0  0  0  0  0  0
   -5.5844   11.2114  -33.3004 H   0  0  0  0  0  0  0  0  0  0  0  0
   -3.7937   11.3524  -33.3004 H   0  0  0  0  0  0  0  0  0  0  0  0
   -3.5901   14.6888  -32.2895 H   0  0  0  0  0  0  0  0  0  0  0  0
   -4.3980   16.9659  -31.6881 H   0  0  0  0  0  0  0  0  0  0  0  0
   -8.6867   17.8356  -33.2030 H   0  0  0  0  0  0  0  0  0  0  0  0
   -9.4896   20.1161  -32.6055 H   0  0  0  0  0  0  0  0  0  0  0  0
   -7.9115   21.8007  -31.6768 H   0  0  0  0  0  0  0  0  0  0  0  0
   -6.1980   23.4192  -31.7866 H   0  0  0  0  0  0  0  0  0  0  0  0
   -1.0454   24.0700  -28.6848 H   0  0  0  0  0  0  0  0  0  0  0  0
   -1.7769   21.6849  -29.0905 H   0  0  0  0  0  0  0  0  0  0  0  0
   -3.7660   20.2120  -30.2530 H   0  0  0  0  0  0  0  0  0  0  0  0
   -4.6880   18.9195  -31.9386 H   0  0  0  0  0  0  0  0  0  0  0  0
   -7.7967   16.4533  -34.3250 H   0  0  0  0  0  0  0  0  0  0  0  0
   -6.9839   14.1806  -34.9273 H   0  0  0  0  0  0  0  0  0  0  0  0
  1  2  1  0
  2  3  1  0
  3  4  2  0
  4  5  1  0
  5  6  2  0
  6  7  1  0
  7  8  2  0
  8  9  1  0
  9 10  2  0
 10 11  1  0
 11 12  1  0
 12 13  2  0
 13 14  1  0
 14 15  1  0
 15 16  2  0
 15 17  1  0
 17 18  1  0
 18 19  2  0
 19 20  1  0
 20 21  1  0
 11 22  2  0
  6 23  1  0
 23 24  2  0
 24  3  1  0
 22  7  1  0
 21 12  1  0
 20 14  2  0
  1 25  1  0
  1 26  1  0
  1 27  1  0
  4 28  1  0
  5 29  1  0
  8 30  1  0
  9 31  1  0
 10 32  1  0
 13 33  1  0
 18 34  1  0
 19 35  1  0
 21 36  1  0
 22 37  1  0
 23 38  1  0
 24 39  1  0
M  CHG  1  17  -1
M  END
>  <UniqueID>  (31) 
31

>  <SMILES>  (31) 
COc1ccc(-c2cccc(-c3cc4c(=O)[n-]ccc4[nH]3)c2)cc1

>  <Energy>  (31) 
85.61334854023251

>  <Genealogy>  (31) 
COc1ccc(-c2cccc(-c3cc4c(=O)[n-]ccc4[nH]3)c2)cc1 (protonated)
COc1ccc(-c2cccc(-c3cc4c(=O)[n-]ccc4[nH]3)c2)cc1 (3D coordinates assigned)
COc1ccc(-c2cccc(-c3cc4c(=O)[n-]ccc4[nH]3)c2)cc1 (optimized conformer: 85.61334854023251 kcal/mol)

>  <smiles>  (31) 
COc1ccc(-c2cccc(-c3cc4c(=O)[nH]ccc4[nH]3)c2)cc1

>  <score_type>  (31) 
oracle

>  <origin>  (31) 
adgpu

>  <m_score__min__energy>  (31) 
-9.7699999999999996

>  <m_primary>  (31) 
energy

$$$$
31:0
     RDKit          3D

 33 34  0  0  0  0  0  0  0  0999 V2000
   -1.2280   25.7570  -27.8160 C   0  0  0  0  0  0  0  0  0  0  0  0
   -2.0150   25.6580  -28.9670 O   0  0  0  0  0  0  0  0  0  0  0  0
   -2.5450   24.4330  -29.3280 C   0  0  0  0  0  0  0  0  0  0  0  0
   -2.0280   23.2260  -28.8990 C   0  0  0  0  0  0  0  0  0  0  0  0
   -2.5610   22.0060  -29.2630 C   0  0  0  0  0  0  0  0  0  0  0  0
   -1.9250   20.8130  -28.7450 C   0  0  0  0  0  0  0  0  0  0  0  0
   -0.7660   20.3830  -29.3740 C   0  0  0  0  0  0  0  0  0  0  0  0
   -0.2270   21.1250  -30.5120 C   0  0  0  0  0  0  0  0  0  0  0  0
    0.7410   20.4480  -31.2460 O   0  0  0  0  0  0  0  0  0  0  0  0
   -0.1640   19.2570  -28.8890 N   0  0  0  0  0  0  0  0  0  0  0  0
   -0.7030   18.5990  -27.8250 C   0  0  0  0  0  0  0  0  0  0  0  0
   -0.1180   17.5550  -27.3970 N   0  0  0  0  0  0  0  0  0  0  0  0
   -1.8330   19.0340  -27.2260 N   0  0  0  0  0  0  0  0  0  0  0  0
   -2.4640   20.1380  -27.6650 C   0  0  0  0  0  0  0  0  0  0  0  0
   -3.5440   20.5610  -27.1000 N   0  0  0  0  0  0  0  0  0  0  0  0
   -3.6690   21.9580  -30.0990 C   0  0  0  0  0  0  0  0  0  0  0  0
   -4.2050   23.1630  -30.5430 C   0  0  0  0  0  0  0  0  0  0  0  0
   -3.6550   24.3590  -30.1650 C   0  0  0  0  0  0  0  0  0  0  0  0
   -4.2200   25.5550  -30.6300 O   0  0  0  0  0  0  0  0  0  0  0  0
   -1.8688   25.6764  -26.9256 H   0  0  0  0  0  0  0  0  0  0  0  0
   -0.4858   24.9451  -27.8083 H   0  0  0  0  0  0  0  0  0  0  0  0
   -0.7100   26.7274  -27.8083 H   0  0  0  0  0  0  0  0  0  0  0  0
   -1.1502   23.2377  -28.2361 H   0  0  0  0  0  0  0  0  0  0  0  0
   -1.0605   21.3678  -31.1875 H   0  0  0  0  0  0  0  0  0  0  0  0
    0.2678   22.0143  -30.0945 H   0  0  0  0  0  0  0  0  0  0  0  0
    1.3360   19.9800  -30.6140 H   0  0  0  0  0  0  0  0  0  0  0  0
    0.7090   18.9120  -29.3420 H   0  0  0  0  0  0  0  0  0  0  0  0
   -0.4830   17.0100  -26.5850 H   0  0  0  0  0  0  0  0  0  0  0  0
   -2.2240   18.5080  -26.4100 H   0  0  0  0  0  0  0  0  0  0  0  0
   -4.0220   20.1340  -26.2970 H   0  0  0  0  0  0  0  0  0  0  0  0
   -4.1096   20.9964  -30.4011 H   0  0  0  0  0  0  0  0  0  0  0  0
   -5.0823   23.1548  -31.2065 H   0  0  0  0  0  0  0  0  0  0  0  0
   -3.8600   26.4360  -30.2630 H   0  0  0  0  0  0  0  0  0  0  0  0
  1  2  1  0
  2  3  1  0
  3  4  2  0
  4  5  1  0
  5  6  1  0
  6  7  2  0
  7  8  1  0
  8  9  1  0
  7 10  1  0
 10 11  1  0
 11 12  2  3
 11 13  1  0
 13 14  1  0
 14 15  2  3
  5 16  2  0
 16 17  1  0
 17 18  2  0
 18 19  1  0
 18  3  1  0
 14  6  1  0
  1 20  1  0
  1 21  1  0
  1 22  1  0
  4 23  1  0
  8 24  1  0
  8 25  1  0
  9 26  1  0
 10 27  1  0
 12 28  1  0
 13 29  1  0
 15 30  1  0
 16 31  1  0
 17 32  1  0
 19 33  1  0
M  END
>  <smiles>  (32) 
COc1cc(-c2c(CO)[nH]c(=N)[nH]c2=N)ccc1O

>  <score_type>  (32) 
oracle

>  <origin>  (32) 
adgpu

>  <m_score__min__energy>  (32) 
-6.3399999999999999

>  <m_primary>  (32) 
energy

$$$$
32:0
     RDKit          3D

 36 37  0  0  0  0  0  0  0  0999 V2000
   -6.3810   25.6840  -29.3480 C   0  0  0  0  0  0  0  0  0  0  0  0
   -6.9210   24.5640  -30.2520 C   0  0  0  0  0  0  0  0  0  0  0  0
   -5.9340   23.5170  -30.6170 N   0  0  1  0  0  0  0  0  0  0  0  0
   -6.0450   23.0840  -32.0300 C   0  0  0  0  0  0  0  0  0  0  0  0
   -7.0700   21.9810  -32.1900 C   0  0  0  0  0  0  0  0  0  0  0  0
   -8.4120   22.2250  -31.8540 C   0  0  0  0  0  0  0  0  0  0  0  0
   -9.3640   21.2060  -31.9570 C   0  0  0  0  0  0  0  0  0  0  0  0
   -8.9820   19.9340  -32.3910 C   0  0  0  0  0  0  0  0  0  0  0  0
   -7.6490   19.6790  -32.7210 C   0  0  0  0  0  0  0  0  0  0  0  0
   -6.6920   20.6940  -32.6200 C   0  0  0  0  0  0  0  0  0  0  0  0
   -5.4020   20.4180  -32.9390 F   0  0  0  0  0  0  0  0  0  0  0  0
   -4.5760   23.9140  -30.2830 C   0  0  0  0  0  0  0  0  0  0  0  0
   -4.0550   24.8750  -30.8330 O   0  0  0  0  0  0  0  0  0  0  0  0
   -3.7790   23.1370  -29.2690 C   0  0  0  0  0  0  0  0  0  0  0  0
   -3.0770   24.0750  -28.3350 C   0  0  0  0  0  0  0  0  0  0  0  0
   -3.6030   24.4550  -27.0900 C   0  0  0  0  0  0  0  0  0  0  0  0
   -2.7620   25.2840  -26.3620 C   0  0  0  0  0  0  0  0  0  0  0  0
   -1.3660   25.5300  -27.2630 S   0  0  0  0  0  0  0  0  0  0  0  0
   -1.8110   24.5950  -28.5850 C   0  0  0  0  0  0  0  0  0  0  0  0
   -6.5171   25.4018  -28.2936 H   0  0  0  0  0  0  0  0  0  0  0  0
   -5.3107   25.8358  -29.5518 H   0  0  0  0  0  0  0  0  0  0  0  0
   -6.9288   26.6159  -29.5518 H   0  0  0  0  0  0  0  0  0  0  0  0
   -7.7565   24.0766  -29.7282 H   0  0  0  0  0  0  0  0  0  0  0  0
   -7.2166   25.0476  -31.1947 H   0  0  0  0  0  0  0  0  0  0  0  0
   -6.1820   22.6900  -30.0220 H   0  0  0  0  0  0  0  0  0  0  0  0
   -6.3459   23.9445  -32.6456 H   0  0  0  0  0  0  0  0  0  0  0  0
   -5.0668   22.6974  -32.3519 H   0  0  0  0  0  0  0  0  0  0  0  0
   -8.7158   23.2239  -31.5077 H   0  0  0  0  0  0  0  0  0  0  0  0
  -10.4138   21.4058  -31.6963 H   0  0  0  0  0  0  0  0  0  0  0  0
   -9.7315   19.1330  -32.4728 H   0  0  0  0  0  0  0  0  0  0  0  0
   -7.3508   18.6764  -33.0615 H   0  0  0  0  0  0  0  0  0  0  0  0
   -4.4564   22.4896  -28.6928 H   0  0  0  0  0  0  0  0  0  0  0  0
   -3.0304   22.5246  -29.7931 H   0  0  0  0  0  0  0  0  0  0  0  0
   -4.5879   24.1267  -26.7265 H   0  0  0  0  0  0  0  0  0  0  0  0
   -2.9726   25.7064  -25.3684 H   0  0  0  0  0  0  0  0  0  0  0  0
   -1.2080   24.4239  -29.4890 H   0  0  0  0  0  0  0  0  0  0  0  0
  1  2  1  0
  2  3  1  0
  3  4  1  0
  4  5  1  0
  5  6  2  0
  6  7  1  0
  7  8  2  0
  8  9  1  0
  9 10  2  0
 10 11  1  0
  3 12  1  0
 12 13  2  0
 12 14  1  0
 14 15  1  0
 15 16  1  0
 16 17  2  0
 17 18  1  0
 18 19  1  0
 10  5  1  0
 19 15  2  0
  1 20  1  0
  1 21  1  0
  1 22  1  0
  2 23  1  0
  2 24  1  0
  3 25  1  1
  4 26  1  0
  4 27  1  0
  6 28  1  0
  7 29  1  0
  8 30  1  0
  9 31  1  0
 14 32  1  0
 14 33  1  0
 16 34  1  0
 17 35  1  0
 19 36  1  0
M  CHG  1   3   1
M  END
>  <UniqueID>  (33) 
32

>  <SMILES>  (33) 
CC[N@@H+](Cc1ccccc1F)C(=O)Cc1ccsc1

>  <Energy>  (33) 
61.71257364981066

>  <Genealogy>  (33) 
CC[NH+](Cc1ccccc1F)C(=O)Cc1ccsc1 (protonated)
CC[N@@H+](Cc1ccccc1F)C(=O)Cc1ccsc1 (chirality)
CC[N@@H+](Cc1ccccc1F)C(=O)Cc1ccsc1 (3D coordinates assigned)
CC[N@@H+](Cc1ccccc1F)C(=O)Cc1ccsc1 (optimized conformer: 61.71257364981066 kcal/mol)

>  <smiles>  (33) 
CCN(Cc1ccccc1F)C(=O)Cc1ccsc1

>  <score_type>  (33) 
oracle

>  <origin>  (33) 
adgpu

>  <m_score__min__energy>  (33) 
-6.4800000000000004

>  <m_primary>  (33) 
energy

$$$$
33:0
     RDKit          3D

 48 50  0  0  0  0  0  0  0  0999 V2000
   -8.5310   18.3800  -31.8920 C   0  0  0  0  0  0  0  0  0  0  0  0
   -9.1230   19.5670  -32.0290 C   0  0  0  0  0  0  0  0  0  0  0  0
   -8.4720   20.8400  -31.6700 C   0  0  0  0  0  0  0  0  0  0  0  0
   -8.9080   21.4770  -30.6740 O   0  0  0  0  0  0  0  0  0  0  0  0
   -7.3980   21.3840  -32.4550 N   0  0  0  0  0  0  0  0  0  0  0  0
   -6.4300   22.3110  -31.9330 C   0  0  0  0  0  0  0  0  0  0  0  0
   -5.0760   21.9500  -31.8960 C   0  0  0  0  0  0  0  0  0  0  0  0
   -4.1240   22.8280  -31.3660 C   0  0  0  0  0  0  0  0  0  0  0  0
   -4.5100   24.0680  -30.8410 C   0  0  0  0  0  0  0  0  0  0  0  0
   -3.4950   24.9270  -30.3000 N   0  0  0  0  0  0  0  0  0  0  0  0
   -2.6220   24.6970  -28.8160 S   0  0  0  0  0  0  0  0  0  0  0  0
   -3.5140   24.9140  -27.6270 O   0  0  0  0  0  0  0  0  0  0  0  0
   -1.5210   25.7180  -28.7540 O   0  0  0  0  0  0  0  0  0  0  0  0
   -1.9150   23.0810  -28.7810 C   0  0  0  0  0  0  0  0  0  0  0  0
   -1.1100   22.6360  -29.8380 C   0  0  0  0  0  0  0  0  0  0  0  0
   -0.5230   21.3690  -29.7930 C   0  0  0  0  0  0  0  0  0  0  0  0
   -0.7450   20.5130  -28.6950 C   0  0  0  0  0  0  0  0  0  0  0  0
   -0.1460   19.1510  -28.6670 C   0  0  0  0  0  0  0  0  0  0  0  0
    0.4630   18.6130  -29.8170 C   0  0  0  0  0  0  0  0  0  0  0  0
    1.0300   17.3370  -29.7920 C   0  0  0  0  0  0  0  0  0  0  0  0
    0.9960   16.5680  -28.6140 C   0  0  0  0  0  0  0  0  0  0  0  0
    1.5520   15.2830  -28.5390 O   0  0  0  0  0  0  0  0  0  0  0  0
    1.7220   14.5490  -27.3290 C   0  0  0  0  0  0  0  0  0  0  0  0
    0.3850   17.0970  -27.4720 C   0  0  0  0  0  0  0  0  0  0  0  0
   -0.1790   18.3750  -27.4940 C   0  0  0  0  0  0  0  0  0  0  0  0
   -1.5570   20.9670  -27.6380 C   0  0  0  0  0  0  0  0  0  0  0  0
   -2.1320   22.2410  -27.6800 C   0  0  0  0  0  0  0  0  0  0  0  0
   -5.8690   24.4260  -30.8680 C   0  0  0  0  0  0  0  0  0  0  0  0
   -6.8200   23.5540  -31.4030 C   0  0  0  0  0  0  0  0  0  0  0  0
   -9.0664   17.4622  -32.1768 H   0  0  0  0  0  0  0  0  0  0  0  0
   -7.5073   18.3186  -31.4942 H   0  0  0  0  0  0  0  0  0  0  0  0
  -10.1471   19.5978  -32.4294 H   0  0  0  0  0  0  0  0  0  0  0  0
   -7.3320   21.1220  -33.4650 H   0  0  0  0  0  0  0  0  0  0  0  0
   -4.7601   20.9711  -32.2858 H   0  0  0  0  0  0  0  0  0  0  0  0
   -3.0619   22.5416  -31.3616 H   0  0  0  0  0  0  0  0  0  0  0  0
   -0.9393   23.2876  -30.7077 H   0  0  0  0  0  0  0  0  0  0  0  0
    0.1185   21.0361  -30.6222 H   0  0  0  0  0  0  0  0  0  0  0  0
    0.4924   19.2038  -30.7444 H   0  0  0  0  0  0  0  0  0  0  0  0
    1.5053   16.9312  -30.6972 H   0  0  0  0  0  0  0  0  0  0  0  0
    1.5671   15.2179  -26.4696 H   0  0  0  0  0  0  0  0  0  0  0  0
    0.9901   13.7287  -27.2918 H   0  0  0  0  0  0  0  0  0  0  0  0
    2.7400   14.1340  -27.2918 H   0  0  0  0  0  0  0  0  0  0  0  0
    0.3483   16.5011  -26.5481 H   0  0  0  0  0  0  0  0  0  0  0  0
   -0.6528   18.7778  -26.5867 H   0  0  0  0  0  0  0  0  0  0  0  0
   -1.7406   20.3140  -26.7720 H   0  0  0  0  0  0  0  0  0  0  0  0
   -2.7583   22.5860  -26.8441 H   0  0  0  0  0  0  0  0  0  0  0  0
   -6.1857   25.3993  -30.4651 H   0  0  0  0  0  0  0  0  0  0  0  0
   -7.8817   23.8416  -31.4098 H   0  0  0  0  0  0  0  0  0  0  0  0
  1  2  2  0
  2  3  1  0
  3  4  2  0
  3  5  1  0
  5  6  1  0
  6  7  2  0
  7  8  1  0
  8  9  2  0
  9 10  1  0
 10 11  1  0
 11 12  2  0
 11 13  2  0
 11 14  1  0
 14 15  2  0
 15 16  1  0
 16 17  2  0
 17 18  1  0
 18 19  2  0
 19 20  1  0
 20 21  2  0
 21 22  1  0
 22 23  1  0
 21 24  1  0
 24 25  2  0
 17 26  1  0
 26 27  2  0
  9 28  1  0
 28 29  2  0
 29  6  1  0
 27 14  1  0
 25 18  1  0
  1 30  1  0
  1 31  1  0
  2 32  1  0
  5 33  1  0
  7 34  1  0
  8 35  1  0
 15 36  1  0
 16 37  1  0
 19 38  1  0
 20 39  1  0
 23 40  1  0
 23 41  1  0
 23 42  1  0
 24 43  1  0
 25 44  1  0
 26 45  1  0
 27 46  1  0
 28 47  1  0
 29 48  1  0
M  CHG  1  10  -1
M  END
>  <UniqueID>  (34) 
33

>  <SMILES>  (34) 
C=CC(=O)Nc1ccc([N-]S(=O)(=O)c2ccc(-c3ccc(OC)cc3)cc2)cc1

>  <Energy>  (34) 
63.238293029112

>  <Genealogy>  (34) 
C=CC(=O)Nc1ccc([N-]S(=O)(=O)c2ccc(-c3ccc(OC)cc3)cc2)cc1 (protonated)
C=CC(=O)Nc1ccc([N-]S(=O)(=O)c2ccc(-c3ccc(OC)cc3)cc2)cc1 (3D coordinates assigned)
C=CC(=O)Nc1ccc([N-]S(=O)(=O)c2ccc(-c3ccc(OC)cc3)cc2)cc1 (optimized conformer: 63.238293029112 kcal/mol)

>  <smiles>  (34) 
C=CC(=O)Nc1ccc(NS(=O)(=O)c2ccc(-c3ccc(OC)cc3)cc2)cc1

>  <score_type>  (34) 
oracle

>  <origin>  (34) 
adgpu

>  <m_score__min__energy>  (34) 
-9.9199999999999999

>  <m_primary>  (34) 
energy

$$$$
34:0
     RDKit          3D

 45 49  0  0  0  0  0  0  0  0999 V2000
   -6.9960   23.9962  -31.5147 H   0  0  0  0  0  0  0  0  0  0  0  0
   -6.0190   23.5480  -31.2810 C   0  0  0  0  0  0  0  0  0  0  0  0
   -5.1470   24.2930  -30.5760 C   0  0  0  0  0  0  0  0  0  0  0  0
   -5.4750   25.6740  -30.3220 C   0  0  0  0  0  0  0  0  0  0  0  0
   -5.7370   26.7820  -30.1180 N   0  0  0  0  0  0  0  0  0  0  0  0
   -3.9000   23.7620  -29.9850 C   0  0  0  0  0  0  0  0  0  0  0  0
   -3.7700   22.4810  -29.5430 N   0  0  0  0  0  0  0  0  0  0  0  0
   -2.5210   22.4640  -29.0560 C   0  0  0  0  0  0  0  0  0  0  0  0
   -1.8460   21.3920  -28.4780 C   0  0  0  0  0  0  0  0  0  0  0  0
   -2.3235   20.4064  -28.3745 H   0  0  0  0  0  0  0  0  0  0  0  0
   -0.5300   21.6160  -28.0310 C   0  0  0  0  0  0  0  0  0  0  0  0
    0.0376   20.7944  -27.5697 H   0  0  0  0  0  0  0  0  0  0  0  0
    0.0670   22.8900  -28.1710 C   0  0  0  0  0  0  0  0  0  0  0  0
    1.0961   23.0538  -27.8187 H   0  0  0  0  0  0  0  0  0  0  0  0
   -0.6490   23.9500  -28.7590 C   0  0  0  0  0  0  0  0  0  0  0  0
   -0.1995   24.9476  -28.8724 H   0  0  0  0  0  0  0  0  0  0  0  0
   -1.9470   23.6900  -29.1920 C   0  0  0  0  0  0  0  0  0  0  0  0
   -2.8060   24.5410  -29.7720 N   0  0  0  0  0  0  0  0  0  0  0  0
   -5.7660   22.1760  -31.7650 C   0  0  0  0  0  0  0  0  0  0  0  0
   -4.5730   21.6560  -32.2640 C   0  0  0  0  0  0  0  0  0  0  0  0
   -3.6142   22.1947  -32.2851 H   0  0  0  0  0  0  0  0  0  0  0  0
   -4.7600   20.3950  -32.7190 N   0  0  0  0  0  0  0  0  0  0  0  0
   -3.7500   19.5700  -33.3820 C   0  0  0  0  0  0  0  0  0  0  0  0
   -3.7942   18.5473  -32.9794 H   0  0  0  0  0  0  0  0  0  0  0  0
   -3.9504   19.5557  -34.4635 H   0  0  0  0  0  0  0  0  0  0  0  0
   -2.3780   20.1400  -33.1430 C   0  0  0  0  0  0  0  0  0  0  0  0
   -1.8150   20.1380  -31.8570 C   0  0  0  0  0  0  0  0  0  0  0  0
   -2.3842   19.7413  -31.0034 H   0  0  0  0  0  0  0  0  0  0  0  0
   -0.5280   20.6430  -31.6700 C   0  0  0  0  0  0  0  0  0  0  0  0
   -0.0815   20.6480  -30.6647 H   0  0  0  0  0  0  0  0  0  0  0  0
    0.1760   21.1290  -32.7270 N   0  0  0  0  0  0  0  0  0  0  0  0
   -0.3420   21.1400  -33.9840 C   0  0  0  0  0  0  0  0  0  0  0  0
    0.6110   21.7730  -35.3100 Cl  0  0  0  0  0  0  0  0  0  0  0  0
   -1.6280   20.6430  -34.2150 C   0  0  0  0  0  0  0  0  0  0  0  0
   -2.0486   20.6466  -35.2314 H   0  0  0  0  0  0  0  0  0  0  0  0
   -6.0710   20.1220  -32.5480 C   0  0  0  0  0  0  0  0  0  0  0  0
   -6.7660   18.9590  -32.8980 C   0  0  0  0  0  0  0  0  0  0  0  0
   -6.2468   18.1052  -33.3579 H   0  0  0  0  0  0  0  0  0  0  0  0
   -8.1480   18.9150  -32.6440 C   0  0  0  0  0  0  0  0  0  0  0  0
   -8.7222   18.0140  -32.9058 H   0  0  0  0  0  0  0  0  0  0  0  0
   -8.8050   20.0170  -32.0560 C   0  0  0  0  0  0  0  0  0  0  0  0
   -9.8868   19.9690  -31.8625 H   0  0  0  0  0  0  0  0  0  0  0  0
   -8.0850   21.1760  -31.7160 C   0  0  0  0  0  0  0  0  0  0  0  0
   -8.5864   22.0423  -31.2597 H   0  0  0  0  0  0  0  0  0  0  0  0
   -6.7140   21.1920  -31.9760 C   0  0  0  0  0  0  0  0  0  0  0  0
  1  2  1  0
  2  3  2  0
  3  4  1  0
  4  5  3  0
  3  6  1  0
  6  7  2  0
  7  8  1  0
  8  9  2  0
  9 10  1  0
  9 11  1  0
 11 12  1  0
 11 13  2  0
 13 14  1  0
 13 15  1  0
 15 16  1  0
 15 17  2  0
 17 18  1  0
  2 19  1  0
 19 20  2  0
 20 21  1  0
 20 22  1  0
 22 23  1  0
 23 24  1  0
 23 25  1  0
 23 26  1  0
 26 27  2  0
 27 28  1  0
 27 29  1  0
 29 30  1  0
 29 31  2  0
 31 32  1  0
 32 33  1  0
 32 34  2  0
 34 35  1  0
 22 36  1  0
 36 37  2  0
 37 38  1  0
 37 39  1  0
 39 40  1  0
 39 41  2  0
 41 42  1  0
 41 43  1  0
 43 44  1  0
 43 45  2  0
 18  6  1  0
 45 19  1  0
 17  8  1  0
 34 26  1  0
 45 36  1  0
M  CHG  1  18  -1
M  END
>  <UniqueID>  (35) 
34

>  <SMILES>  (35) 
N#C/C(=C/c1cn(Cc2ccnc(Cl)c2)c2ccccc12)c1nc2ccccc2[n-]1

>  <Energy>  (35) 
125.1213144447495

>  <Genealogy>  (35) 
N#CC(=Cc1cn(Cc2ccnc(Cl)c2)c2ccccc12)c1nc2ccccc2[n-]1 (protonated)
N#C/C(=C/c1cn(Cc2ccnc(Cl)c2)c2ccccc12)c1nc2ccccc2[n-]1 (cis-trans isomerization)
N#C/C(=C/c1cn(Cc2ccnc(Cl)c2)c2ccccc12)c1nc2ccccc2[n-]1 (3D coordinates assigned)
N#C/C(=C/c1cn(Cc2ccnc(Cl)c2)c2ccccc12)c1nc2ccccc2[n-]1 (optimized conformer: 125.1213144447495 kcal/mol)

>  <smiles>  (35) 
N#CC(=Cc1cn(Cc2ccnc(Cl)c2)c2ccccc12)c1nc2ccccc2[nH]1

>  <score_type>  (35) 
oracle

>  <origin>  (35) 
adgpu

>  <m_score__min__energy>  (35) 
-10.460000000000001

>  <m_primary>  (35) 
energy

$$$$
35:0
     RDKit          3D

 34 35  0  0  0  0  0  0  0  0999 V2000
   -8.3450   20.4040  -32.7210 C   0  0  0  0  0  0  0  0  0  0  0  0
   -7.5570   21.4930  -32.0460 C   0  0  0  0  0  0  0  0  0  0  0  0
   -8.2240   22.4420  -31.2540 C   0  0  0  0  0  0  0  0  0  0  0  0
   -7.5130   23.4610  -30.6170 C   0  0  0  0  0  0  0  0  0  0  0  0
   -6.1260   23.5570  -30.7760 C   0  0  0  0  0  0  0  0  0  0  0  0
   -5.2260   24.8410  -29.9750 S   0  0  0  0  0  0  0  0  0  0  0  0
   -4.5900   24.2370  -28.4280 C   0  0  0  0  0  0  0  0  0  0  0  0
   -4.0870   25.2830  -30.8510 O   0  0  0  0  0  0  0  0  0  0  0  0
   -6.1240   26.0190  -29.7210 O   0  0  0  0  0  0  0  0  0  0  0  0
   -5.4520   22.6170  -31.5640 C   0  0  0  0  0  0  0  0  0  0  0  0
   -6.1540   21.5750  -32.1960 C   0  0  0  0  0  0  0  0  0  0  0  0
   -5.4540   20.6370  -33.0320 N   0  0  0  0  0  0  0  0  0  0  0  0
   -5.2080   19.2700  -32.6570 C   0  0  0  0  0  0  0  0  0  0  0  0
   -5.6540   18.8190  -31.5680 O   0  0  0  0  0  0  0  0  0  0  0  0
   -4.4100   18.3840  -33.5270 C   0  0  0  0  0  0  0  0  0  0  0  0
   -3.0520   18.6710  -33.7310 C   0  0  0  0  0  0  0  0  0  0  0  0
   -2.2790   17.8590  -34.5610 C   0  0  0  0  0  0  0  0  0  0  0  0
   -2.8670   16.7550  -35.1750 C   0  0  0  0  0  0  0  0  0  0  0  0
   -4.1760   16.4690  -34.9510 N   0  0  0  0  0  0  0  0  0  0  0  0
   -4.9580   17.2430  -34.1520 C   0  0  0  0  0  0  0  0  0  0  0  0
   -6.6130   16.7220  -33.8620 Cl  0  0  0  0  0  0  0  0  0  0  0  0
   -8.8099   19.7615  -31.9587 H   0  0  0  0  0  0  0  0  0  0  0  0
   -9.1283   20.8536  -33.3489 H   0  0  0  0  0  0  0  0  0  0  0  0
   -7.6730   19.8005  -33.3489 H   0  0  0  0  0  0  0  0  0  0  0  0
   -9.3158   22.3819  -31.1345 H   0  0  0  0  0  0  0  0  0  0  0  0
   -8.0447   24.1904  -29.9883 H   0  0  0  0  0  0  0  0  0  0  0  0
   -5.1130   24.7337  -27.5975 H   0  0  0  0  0  0  0  0  0  0  0  0
   -4.7503   23.1506  -28.3648 H   0  0  0  0  0  0  0  0  0  0  0  0
   -3.5133   24.4531  -28.3648 H   0  0  0  0  0  0  0  0  0  0  0  0
   -4.3620   22.6940  -31.6903 H   0  0  0  0  0  0  0  0  0  0  0  0
   -5.1140   20.9670  -33.9630 H   0  0  0  0  0  0  0  0  0  0  0  0
   -2.5950   19.5397  -33.2345 H   0  0  0  0  0  0  0  0  0  0  0  0
   -1.2163   18.0878  -34.7291 H   0  0  0  0  0  0  0  0  0  0  0  0
   -2.2708   16.1146  -35.8416 H   0  0  0  0  0  0  0  0  0  0  0  0
  1  2  1  0
  2  3  2  0
  3  4  1  0
  4  5  2  0
  5  6  1  0
  6  7  1  0
  6  8  2  0
  6  9  2  0
  5 10  1  0
 10 11  2  0
 11 12  1  0
 12 13  1  0
 13 14  2  0
 13 15  1  0
 15 16  2  0
 16 17  1  0
 17 18  2  0
 18 19  1  0
 19 20  2  0
 20 21  1  0
 11  2  1  0
 20 15  1  0
  1 22  1  0
  1 23  1  0
  1 24  1  0
  3 25  1  0
  4 26  1  0
  7 27  1  0
  7 28  1  0
  7 29  1  0
 10 30  1  0
 12 31  1  0
 16 32  1  0
 17 33  1  0
 18 34  1  0
M  END
>  <UniqueID>  (36) 
35

>  <SMILES>  (36) 
Cc1ccc(S(C)(=O)=O)cc1NC(=O)c1cccnc1Cl

>  <Energy>  (36) 
42.51920420641927

>  <Genealogy>  (36) 
Cc1ccc(S(C)(=O)=O)cc1NC(=O)c1cccnc1Cl (3D coordinates assigned)
Cc1ccc(S(C)(=O)=O)cc1NC(=O)c1cccnc1Cl (optimized conformer: 42.51920420641927 kcal/mol)

>  <smiles>  (36) 
Cc1ccc(S(C)(=O)=O)cc1NC(=O)c1cccnc1Cl

>  <score_type>  (36) 
oracle

>  <origin>  (36) 
adgpu

>  <m_score__min__energy>  (36) 
-8.3699999999999992

>  <m_primary>  (36) 
energy

$$$$
36:0
     RDKit          3D

 63 67  0  0  0  0  0  0  0  0999 V2000
   -5.1580   23.9340  -31.6560 O   0  0  0  0  0  0  0  0  0  0  0  0
   -5.9480   23.4080  -30.8240 C   0  0  0  0  0  0  0  0  0  0  0  0
   -5.6670   23.5040  -29.4180 N   0  0  0  0  0  0  0  0  0  0  0  0
   -4.3500   23.7100  -28.8780 C   0  0  0  0  0  0  0  0  0  0  0  0
   -4.2100   24.2100  -27.5750 C   0  0  0  0  0  0  0  0  0  0  0  0
   -2.9410   24.4020  -27.0220 C   0  0  0  0  0  0  0  0  0  0  0  0
   -1.7930   24.0890  -27.7630 C   0  0  0  0  0  0  0  0  0  0  0  0
   -0.1910   24.3610  -27.0760 S   0  0  0  0  0  0  0  0  0  0  0  0
    0.7380   24.8280  -28.1600 O   0  0  0  0  0  0  0  0  0  0  0  0
   -0.2760   25.4480  -26.0400 O   0  0  0  0  0  0  0  0  0  0  0  0
    0.4650   22.9120  -26.3420 N   0  0  0  0  0  0  0  0  0  0  0  0
    0.6700   21.8590  -27.3430 C   0  0  0  0  0  0  0  0  0  0  0  0
   -0.5230   20.9160  -27.2990 C   0  0  0  0  0  0  0  0  0  0  0  0
   -1.2370   21.2180  -25.9960 C   0  0  0  0  0  0  0  0  0  0  0  0
   -0.4600   22.3550  -25.3480 C   0  0  0  0  0  0  0  0  0  0  0  0
   -1.9280   23.5600  -29.0520 C   0  0  0  0  0  0  0  0  0  0  0  0
   -3.1970   23.3680  -29.6070 C   0  0  0  0  0  0  0  0  0  0  0  0
   -7.1780   22.7380  -31.3090 C   0  0  0  0  0  0  0  0  0  0  0  0
   -8.3160   23.4960  -31.6370 C   0  0  0  0  0  0  0  0  0  0  0  0
   -9.4750   22.8690  -32.1010 C   0  0  0  0  0  0  0  0  0  0  0  0
   -9.5090   21.4830  -32.2540 C   0  0  0  0  0  0  0  0  0  0  0  0
   -8.3800   20.7120  -31.9530 C   0  0  0  0  0  0  0  0  0  0  0  0
   -8.4080   18.9630  -32.1910 S   0  0  0  0  0  0  0  0  0  0  0  0
   -9.7880   18.5400  -32.6120 O   0  0  0  0  0  0  0  0  0  0  0  0
   -8.0870   18.2770  -30.8910 O   0  0  0  0  0  0  0  0  0  0  0  0
   -7.2530   18.4710  -33.4100 N   0  0  0  0  0  0  0  0  0  0  0  0
   -6.4630   19.6270  -33.9090 C   0  0  0  0  0  0  0  0  0  0  0  0
   -5.0140   19.6430  -33.4070 C   0  0  0  0  0  0  0  0  0  0  0  0
   -4.3740   18.3380  -33.7610 C   0  0  0  0  0  0  0  0  0  0  0  0
   -3.0610   18.2620  -34.2470 C   0  0  0  0  0  0  0  0  0  0  0  0
   -2.5060   17.0180  -34.5640 C   0  0  0  0  0  0  0  0  0  0  0  0
   -3.2550   15.8500  -34.3850 C   0  0  0  0  0  0  0  0  0  0  0  0
   -4.5600   15.9230  -33.8880 C   0  0  0  0  0  0  0  0  0  0  0  0
   -5.1280   17.1700  -33.5870 C   0  0  0  0  0  0  0  0  0  0  0  0
   -6.4900   17.2800  -32.9520 C   0  0  0  0  0  0  0  0  0  0  0  0
   -7.2210   21.3410  -31.4750 C   0  0  0  0  0  0  0  0  0  0  0  0
   -6.4760   23.5310  -28.7570 H   0  0  0  0  0  0  0  0  0  0  0  0
   -5.1055   24.4527  -26.9841 H   0  0  0  0  0  0  0  0  0  0  0  0
   -2.8426   24.8003  -26.0014 H   0  0  0  0  0  0  0  0  0  0  0  0
    0.7516   22.3085  -28.3437 H   0  0  0  0  0  0  0  0  0  0  0  0
    1.5964   21.3069  -27.1265 H   0  0  0  0  0  0  0  0  0  0  0  0
   -1.1901   21.1014  -28.1538 H   0  0  0  0  0  0  0  0  0  0  0  0
   -0.2104   19.8629  -27.3560 H   0  0  0  0  0  0  0  0  0  0  0  0
   -2.2748   21.5262  -26.1910 H   0  0  0  0  0  0  0  0  0  0  0  0
   -1.2776   20.3334  -25.3434 H   0  0  0  0  0  0  0  0  0  0  0  0
   -1.1572   23.1362  -25.0110 H   0  0  0  0  0  0  0  0  0  0  0  0
    0.1009   21.9811  -24.4787 H   0  0  0  0  0  0  0  0  0  0  0  0
   -1.0314   23.2940  -29.6311 H   0  0  0  0  0  0  0  0  0  0  0  0
   -3.2939   22.9474  -30.6188 H   0  0  0  0  0  0  0  0  0  0  0  0
   -8.2935   24.5903  -31.5275 H   0  0  0  0  0  0  0  0  0  0  0  0
  -10.3631   23.4699  -32.3463 H   0  0  0  0  0  0  0  0  0  0  0  0
  -10.4267   20.9938  -32.6126 H   0  0  0  0  0  0  0  0  0  0  0  0
   -6.4498   19.5906  -35.0083 H   0  0  0  0  0  0  0  0  0  0  0  0
   -6.9470   20.5377  -33.5263 H   0  0  0  0  0  0  0  0  0  0  0  0
   -4.4648   20.4673  -33.8853 H   0  0  0  0  0  0  0  0  0  0  0  0
   -4.9946   19.7886  -32.3168 H   0  0  0  0  0  0  0  0  0  0  0  0
   -2.4684   19.1793  -34.3787 H   0  0  0  0  0  0  0  0  0  0  0  0
   -1.4794   16.9579  -34.9545 H   0  0  0  0  0  0  0  0  0  0  0  0
   -2.8167   14.8727  -34.6356 H   0  0  0  0  0  0  0  0  0  0  0  0
   -5.1415   15.0022  -33.7330 H   0  0  0  0  0  0  0  0  0  0  0  0
   -7.0668   16.3774  -33.2022 H   0  0  0  0  0  0  0  0  0  0  0  0
   -6.3386   17.3848  -31.8675 H   0  0  0  0  0  0  0  0  0  0  0  0
   -6.3363   20.7361  -31.2272 H   0  0  0  0  0  0  0  0  0  0  0  0
  1  2  2  0
  2  3  1  0
  3  4  1  0
  4  5  2  0
  5  6  1  0
  6  7  2  0
  7  8  1  0
  8  9  2  0
  8 10  2  0
  8 11  1  0
 11 12  1  0
 12 13  1  0
 13 14  1  0
 14 15  1  0
  7 16  1  0
 16 17  2  0
  2 18  1  0
 18 19  2  0
 19 20  1  0
 20 21  2  0
 21 22  1  0
 22 23  1  0
 23 24  2  0
 23 25  2  0
 23 26  1  0
 26 27  1  0
 27 28  1  0
 28 29  1  0
 29 30  2  0
 30 31  1  0
 31 32  2  0
 32 33  1  0
 33 34  2  0
 34 35  1  0
 22 36  2  0
 17  4  1  0
 36 18  1  0
 15 11  1  0
 35 26  1  0
 34 29  1  0
  3 37  1  0
  5 38  1  0
  6 39  1  0
 12 40  1  0
 12 41  1  0
 13 42  1  0
 13 43  1  0
 14 44  1  0
 14 45  1  0
 15 46  1  0
 15 47  1  0
 16 48  1  0
 17 49  1  0
 19 50  1  0
 20 51  1  0
 21 52  1  0
 27 53  1  0
 27 54  1  0
 28 55  1  0
 28 56  1  0
 30 57  1  0
 31 58  1  0
 32 59  1  0
 33 60  1  0
 35 61  1  0
 35 62  1  0
 36 63  1  0
M  END
>  <UniqueID>  (37) 
36

>  <SMILES>  (37) 
O=C(Nc1ccc(S(=O)(=O)N2CCCC2)cc1)c1cccc(S(=O)(=O)N2CCc3ccccc3C2)c1

>  <Energy>  (37) 
81.7542087083336

>  <Genealogy>  (37) 
O=C(Nc1ccc(S(=O)(=O)N2CCCC2)cc1)c1cccc(S(=O)(=O)N2CCc3ccccc3C2)c1 (3D coordinates assigned)
O=C(Nc1ccc(S(=O)(=O)N2CCCC2)cc1)c1cccc(S(=O)(=O)N2CCc3ccccc3C2)c1 (nonaromatic ring conformer: 81.7542087083336 kcal/mol)

>  <smiles>  (37) 
O=C(Nc1ccc(S(=O)(=O)N2CCCC2)cc1)c1cccc(S(=O)(=O)N2CCc3ccccc3C2)c1

>  <score_type>  (37) 
oracle

>  <origin>  (37) 
adgpu

>  <m_score__min__energy>  (37) 
-12.5

>  <m_primary>  (37) 
energy

$$$$
37:0
     RDKit          3D

 41 43  0  0  0  0  0  0  0  0999 V2000
   -3.8510   24.1840  -28.0970 O   0  0  0  0  0  0  0  0  0  0  0  0
   -3.1480   24.6790  -29.0190 C   0  0  0  0  0  0  0  0  0  0  0  0
   -1.8750   25.2520  -28.7190 N   0  0  0  0  0  0  0  0  0  0  0  0
   -0.5380   24.3040  -28.1610 S   0  0  0  0  0  0  0  0  0  0  0  0
    0.4750   24.1730  -29.2640 O   0  0  0  0  0  0  0  0  0  0  0  0
    0.1100   24.9990  -26.9960 O   0  0  0  0  0  0  0  0  0  0  0  0
   -1.1080   22.7220  -27.6440 C   0  0  0  0  0  0  0  0  0  0  0  0
   -1.8540   21.9290  -28.5280 C   0  0  0  0  0  0  0  0  0  0  0  0
   -2.3000   20.6640  -28.1330 C   0  0  0  0  0  0  0  0  0  0  0  0
   -2.0010   20.1830  -26.8540 C   0  0  0  0  0  0  0  0  0  0  0  0
   -2.5590   18.5960  -26.3590 Cl  0  0  0  0  0  0  0  0  0  0  0  0
   -1.2520   20.9690  -25.9700 C   0  0  0  0  0  0  0  0  0  0  0  0
   -0.8050   22.2340  -26.3640 C   0  0  0  0  0  0  0  0  0  0  0  0
   -3.6330   24.7140  -30.3680 N   0  0  0  0  0  0  0  0  0  0  0  0
   -4.8070   24.0210  -30.8260 C   0  0  0  0  0  0  0  0  0  0  0  0
   -4.6630   22.8100  -31.5200 C   0  0  0  0  0  0  0  0  0  0  0  0
   -5.7890   22.1050  -31.9560 C   0  0  0  0  0  0  0  0  0  0  0  0
   -7.0720   22.5940  -31.6850 C   0  0  0  0  0  0  0  0  0  0  0  0
   -8.5150   21.6850  -32.2370 S   0  0  0  0  0  0  0  0  0  0  0  0
   -7.5690   20.1960  -32.5580 C   0  0  0  0  0  0  0  0  0  0  0  0
   -6.8680   20.0560  -33.7640 C   0  0  0  0  0  0  0  0  0  0  0  0
   -6.1350   18.8920  -34.0160 C   0  0  0  0  0  0  0  0  0  0  0  0
   -6.0970   17.8690  -33.0640 C   0  0  0  0  0  0  0  0  0  0  0  0
   -6.7910   18.0080  -31.8580 C   0  0  0  0  0  0  0  0  0  0  0  0
   -7.5260   19.1710  -31.6040 C   0  0  0  0  0  0  0  0  0  0  0  0
   -7.2250   23.7910  -30.9760 C   0  0  0  0  0  0  0  0  0  0  0  0
   -6.1000   24.4980  -30.5410 C   0  0  0  0  0  0  0  0  0  0  0  0
   -2.0890   22.3034  -29.5353 H   0  0  0  0  0  0  0  0  0  0  0  0
   -2.8867   20.0463  -28.8289 H   0  0  0  0  0  0  0  0  0  0  0  0
   -1.0149   20.5910  -24.9645 H   0  0  0  0  0  0  0  0  0  0  0  0
   -0.2142   22.8482  -25.6685 H   0  0  0  0  0  0  0  0  0  0  0  0
   -3.1480   25.3580  -31.0350 H   0  0  0  0  0  0  0  0  0  0  0  0
   -3.6575   22.4126  -31.7224 H   0  0  0  0  0  0  0  0  0  0  0  0
   -5.6662   21.1644  -32.5130 H   0  0  0  0  0  0  0  0  0  0  0  0
   -6.8945   20.8619  -34.5122 H   0  0  0  0  0  0  0  0  0  0  0  0
   -5.5880   18.7813  -34.9639 H   0  0  0  0  0  0  0  0  0  0  0  0
   -5.5205   16.9537  -33.2638 H   0  0  0  0  0  0  0  0  0  0  0  0
   -6.7590   17.2030  -31.1091 H   0  0  0  0  0  0  0  0  0  0  0  0
   -8.0705   19.2807  -30.6545 H   0  0  0  0  0  0  0  0  0  0  0  0
   -8.2325   24.1763  -30.7606 H   0  0  0  0  0  0  0  0  0  0  0  0
   -6.2261   25.4317  -29.9732 H   0  0  0  0  0  0  0  0  0  0  0  0
  1  2  2  0
  2  3  1  0
  3  4  1  0
  4  5  2  0
  4  6  2  0
  4  7  1  0
  7  8  2  0
  8  9  1  0
  9 10  2  0
 10 11  1  0
 10 12  1  0
 12 13  2  0
  2 14  1  0
 14 15  1  0
 15 16  2  0
 16 17  1  0
 17 18  2  0
 18 19  1  0
 19 20  1  0
 20 21  2  0
 21 22  1  0
 22 23  2  0
 23 24  1  0
 24 25  2  0
 18 26  1  0
 26 27  2  0
 13  7  1  0
 27 15  1  0
 25 20  1  0
  8 28  1  0
  9 29  1  0
 12 30  1  0
 13 31  1  0
 14 32  1  0
 16 33  1  0
 17 34  1  0
 21 35  1  0
 22 36  1  0
 23 37  1  0
 24 38  1  0
 25 39  1  0
 26 40  1  0
 27 41  1  0
M  CHG  1   3  -1
M  END
>  <UniqueID>  (38) 
37

>  <SMILES>  (38) 
O=C([N-]S(=O)(=O)c1ccc(Cl)cc1)Nc1ccc(Sc2ccccc2)cc1

>  <Energy>  (38) 
44.167044157130746

>  <Genealogy>  (38) 
O=C([N-]S(=O)(=O)c1ccc(Cl)cc1)Nc1ccc(Sc2ccccc2)cc1 (protonated)
O=C([N-]S(=O)(=O)c1ccc(Cl)cc1)Nc1ccc(Sc2ccccc2)cc1 (3D coordinates assigned)
O=C([N-]S(=O)(=O)c1ccc(Cl)cc1)Nc1ccc(Sc2ccccc2)cc1 (optimized conformer: 44.167044157130746 kcal/mol)

>  <smiles>  (38) 
O=C(Nc1ccc(Sc2ccccc2)cc1)NS(=O)(=O)c1ccc(Cl)cc1

>  <score_type>  (38) 
oracle

>  <origin>  (38) 
adgpu

>  <m_score__min__energy>  (38) 
-11.65

>  <m_primary>  (38) 
energy

$$$$
38:0
     RDKit          3D

 41 43  0  0  0  0  0  0  0  0999 V2000
   -4.5020   24.2620  -30.8410 O   0  0  0  0  0  0  0  0  0  0  0  0
   -3.9010   23.2960  -30.2950 C   0  0  0  0  0  0  0  0  0  0  0  0
   -3.5850   23.3650  -28.9230 C   0  0  0  0  0  0  0  0  0  0  0  0
   -3.9450   24.5320  -28.1540 N   0  0  0  0  0  0  0  0  0  0  0  0
   -3.6860   24.6840  -26.7210 C   0  0  0  0  0  0  0  0  0  0  0  0
   -2.3690   25.3770  -26.4920 C   0  0  0  0  0  0  0  0  0  0  0  0
   -1.4500   25.5100  -27.5460 C   0  0  0  0  0  0  0  0  0  0  0  0
   -0.2290   26.1580  -27.3410 C   0  0  0  0  0  0  0  0  0  0  0  0
    0.0870   26.6750  -26.0810 C   0  0  0  0  0  0  0  0  0  0  0  0
   -0.8180   26.5390  -25.0240 C   0  0  0  0  0  0  0  0  0  0  0  0
   -2.0400   25.8910  -25.2250 C   0  0  0  0  0  0  0  0  0  0  0  0
   -2.9190   22.2800  -28.3330 C   0  0  0  0  0  0  0  0  0  0  0  0
   -2.5950   21.1620  -29.0940 C   0  0  0  0  0  0  0  0  0  0  0  0
   -2.9320   21.1280  -30.4430 C   0  0  0  0  0  0  0  0  0  0  0  0
   -3.5680   22.1850  -31.0330 N   0  0  0  0  0  0  0  0  0  0  0  0
   -3.9420   22.0840  -32.4550 C   0  0  0  0  0  0  0  0  0  0  0  0
   -5.2510   21.3520  -32.5970 C   0  0  0  0  0  0  0  0  0  0  0  0
   -5.2750   20.0480  -33.1130 C   0  0  0  0  0  0  0  0  0  0  0  0
   -6.4800   19.3430  -33.2110 C   0  0  0  0  0  0  0  0  0  0  0  0
   -6.4470   17.7120  -33.8690 Cl  0  0  0  0  0  0  0  0  0  0  0  0
   -7.6810   19.9430  -32.7840 C   0  0  0  0  0  0  0  0  0  0  0  0
   -8.9010   19.2690  -32.8650 O   0  0  0  0  0  0  0  0  0  0  0  0
   -7.6560   21.2450  -32.2610 C   0  0  0  0  0  0  0  0  0  0  0  0
   -9.1370   22.0150  -31.7130 Cl  0  0  0  0  0  0  0  0  0  0  0  0
   -6.4480   21.9430  -32.1660 C   0  0  0  0  0  0  0  0  0  0  0  0
   -4.4950   25.2930  -28.6140 H   0  0  0  0  0  0  0  0  0  0  0  0
   -4.4921   25.2807  -26.2691 H   0  0  0  0  0  0  0  0  0  0  0  0
   -3.6471   23.6863  -26.2595 H   0  0  0  0  0  0  0  0  0  0  0  0
   -1.6928   25.1018  -28.5382 H   0  0  0  0  0  0  0  0  0  0  0  0
    0.4843   26.2614  -28.1719 H   0  0  0  0  0  0  0  0  0  0  0  0
    1.0467   27.1883  -25.9214 H   0  0  0  0  0  0  0  0  0  0  0  0
   -0.5677   26.9429  -24.0319 H   0  0  0  0  0  0  0  0  0  0  0  0
   -2.7469   25.7827  -24.3892 H   0  0  0  0  0  0  0  0  0  0  0  0
   -2.6526   22.3138  -27.2663 H   0  0  0  0  0  0  0  0  0  0  0  0
   -2.0753   20.3097  -28.6318 H   0  0  0  0  0  0  0  0  0  0  0  0
   -2.6838   20.2399  -31.0427 H   0  0  0  0  0  0  0  0  0  0  0  0
   -4.0431   23.0948  -32.8770 H   0  0  0  0  0  0  0  0  0  0  0  0
   -3.1598   21.5291  -32.9937 H   0  0  0  0  0  0  0  0  0  0  0  0
   -4.3384   19.5752  -33.4436 H   0  0  0  0  0  0  0  0  0  0  0  0
   -9.3110   18.9810  -33.7460 H   0  0  0  0  0  0  0  0  0  0  0  0
   -6.4363   22.9616  -31.7508 H   0  0  0  0  0  0  0  0  0  0  0  0
  1  2  2  0
  2  3  1  0
  3  4  1  0
  4  5  1  0
  5  6  1  0
  6  7  2  0
  7  8  1  0
  8  9  2  0
  9 10  1  0
 10 11  2  0
  3 12  2  0
 12 13  1  0
 13 14  2  0
 14 15  1  0
 15 16  1  0
 16 17  1  0
 17 18  2  0
 18 19  1  0
 19 20  1  0
 19 21  2  0
 21 22  1  0
 21 23  1  0
 23 24  1  0
 23 25  2  0
 15  2  1  0
 25 17  1  0
 11  6  1  0
  4 26  1  0
  5 27  1  0
  5 28  1  0
  7 29  1  0
  8 30  1  0
  9 31  1  0
 10 32  1  0
 11 33  1  0
 12 34  1  0
 13 35  1  0
 14 36  1  0
 16 37  1  0
 16 38  1  0
 18 39  1  0
 22 40  1  0
 25 41  1  0
M  END
>  <UniqueID>  (39) 
38

>  <SMILES>  (39) 
O=c1c(NCc2ccccc2)cccn1Cc1cc(Cl)c(O)c(Cl)c1

>  <Energy>  (39) 
46.25993576509286

>  <Genealogy>  (39) 
O=c1c(NCc2ccccc2)cccn1Cc1cc(Cl)c(O)c(Cl)c1 (3D coordinates assigned)
O=c1c(NCc2ccccc2)cccn1Cc1cc(Cl)c(O)c(Cl)c1 (optimized conformer: 46.25993576509286 kcal/mol)

>  <smiles>  (39) 
O=c1c(NCc2ccccc2)cccn1Cc1cc(Cl)c(O)c(Cl)c1

>  <score_type>  (39) 
oracle

>  <origin>  (39) 
adgpu

>  <m_score__min__energy>  (39) 
-9.2200000000000006

>  <m_primary>  (39) 
energy

$$$$
39:0
     RDKit          3D

 28 30  0  0  0  0  0  0  0  0999 V2000
   -4.2870   24.1870  -29.0760 C   0  0  0  0  0  0  0  0  0  0  0  0
   -3.8730   23.1850  -29.9570 C   0  0  0  0  0  0  0  0  0  0  0  0
   -4.6140   22.9150  -31.1110 C   0  0  0  0  0  0  0  0  0  0  0  0
   -5.7830   23.6460  -31.3890 C   0  0  0  0  0  0  0  0  0  0  0  0
   -6.5930   23.3570  -32.6260 C   0  0  0  0  0  0  0  0  0  0  0  0
   -7.6490   22.3800  -32.3320 N   0  0  0  0  0  0  0  0  0  0  0  0
   -8.8890   22.7450  -31.9110 C   0  0  0  0  0  0  0  0  0  0  0  0
   -9.8620   21.3970  -31.6040 S   0  0  0  0  0  0  0  0  0  0  0  0
   -8.6510   20.3150  -32.0240 C   0  0  0  0  0  0  0  0  0  0  0  0
   -8.6970   18.9240  -32.0200 C   0  0  0  0  0  0  0  0  0  0  0  0
   -7.5480   18.2220  -32.4070 C   0  0  0  0  0  0  0  0  0  0  0  0
   -6.3840   18.9180  -32.7860 C   0  0  0  0  0  0  0  0  0  0  0  0
   -6.3600   20.3220  -32.7820 C   0  0  0  0  0  0  0  0  0  0  0  0
   -7.5130   21.0210  -32.3930 C   0  0  0  0  0  0  0  0  0  0  0  0
   -6.1880   24.6560  -30.5000 C   0  0  0  0  0  0  0  0  0  0  0  0
   -5.4440   24.9230  -29.3480 C   0  0  0  0  0  0  0  0  0  0  0  0
   -3.7025   24.3969  -28.1681 H   0  0  0  0  0  0  0  0  0  0  0  0
   -2.9619   22.6073  -29.7421 H   0  0  0  0  0  0  0  0  0  0  0  0
   -4.2818   22.1281  -31.8041 H   0  0  0  0  0  0  0  0  0  0  0  0
   -7.0525   24.2901  -32.9841 H   0  0  0  0  0  0  0  0  0  0  0  0
   -5.9283   22.9414  -33.3977 H   0  0  0  0  0  0  0  0  0  0  0  0
   -9.2181   23.7871  -31.7858 H   0  0  0  0  0  0  0  0  0  0  0  0
   -9.6111   18.3901  -31.7210 H   0  0  0  0  0  0  0  0  0  0  0  0
   -7.5551   17.1221  -32.4148 H   0  0  0  0  0  0  0  0  0  0  0  0
   -5.4867   18.3576  -33.0875 H   0  0  0  0  0  0  0  0  0  0  0  0
   -5.4512   20.8657  -33.0793 H   0  0  0  0  0  0  0  0  0  0  0  0
   -7.0959   25.2397  -30.7123 H   0  0  0  0  0  0  0  0  0  0  0  0
   -5.7688   25.7128  -28.6546 H   0  0  0  0  0  0  0  0  0  0  0  0
  1  2  2  0
  2  3  1  0
  3  4  2  0
  4  5  1  0
  5  6  1  0
  6  7  2  0
  7  8  1  0
  8  9  1  0
  9 10  2  0
 10 11  1  0
 11 12  2  0
 12 13  1  0
 13 14  2  0
  4 15  1  0
 15 16  2  0
 16  1  1  0
 14  6  1  0
 14  9  1  0
  1 17  1  0
  2 18  1  0
  3 19  1  0
  5 20  1  0
  5 21  1  0
  7 22  1  0
 10 23  1  0
 11 24  1  0
 12 25  1  0
 13 26  1  0
 15 27  1  0
 16 28  1  0
M  CHG  1   6   1
M  END
>  <UniqueID>  (40) 
39

>  <SMILES>  (40) 
c1ccc(C[n+]2csc3ccccc32)cc1

>  <Energy>  (40) 
64.68719094467332

>  <Genealogy>  (40) 
c1ccc(C[n+]2csc3ccccc32)cc1 (3D coordinates assigned)
c1ccc(C[n+]2csc3ccccc32)cc1 (optimized conformer: 64.68719094467332 kcal/mol)

>  <smiles>  (40) 
c1ccc(C[n+]2csc3ccccc32)cc1

>  <score_type>  (40) 
oracle

>  <origin>  (40) 
adgpu

>  <m_score__min__energy>  (40) 
-6.3799999999999999

>  <m_primary>  (40) 
energy

$$$$
40:0
     RDKit          3D

 43 45  0  0  1  0  0  0  0  0999 V2000
   -9.0910   18.5770  -31.6910 C   0  0  0  0  0  0  0  0  0  0  0  0
   -7.7580   18.6600  -32.3600 C   0  0  0  0  0  0  0  0  0  0  0  0
   -6.8580   17.6170  -32.3020 C   0  0  0  0  0  0  0  0  0  0  0  0
   -5.6340   17.7140  -32.9260 C   0  0  0  0  0  0  0  0  0  0  0  0
   -5.3030   18.8690  -33.6190 C   0  0  0  0  0  0  0  0  0  0  0  0
   -4.0250   18.9070  -34.2420 N   0  0  0  0  0  0  0  0  0  0  0  0
   -3.1000   19.5600  -33.6270 C   0  0  0  0  0  0  0  0  0  0  0  0
   -3.3250   20.2050  -32.4060 C   0  0  0  0  0  0  0  0  0  0  0  0
   -2.3370   20.8980  -31.7580 C   0  0  0  0  0  0  0  0  0  0  0  0
   -2.5820   21.5690  -30.4810 C   0  0  0  0  0  0  0  0  0  0  0  0
   -1.7350   21.3810  -29.4010 C   0  0  0  0  0  0  0  0  0  0  0  0
   -1.9590   22.0170  -28.1740 C   0  0  0  0  0  0  0  0  0  0  0  0
   -3.0370   22.8540  -28.0040 C   0  0  0  0  0  0  0  0  0  0  0  0
   -3.9040   23.0570  -29.0850 C   0  0  0  0  0  0  0  0  0  0  0  0
   -4.9880   23.9280  -28.8500 N   0  0  0  0  0  0  0  0  0  0  0  0
   -5.7060   24.9560  -30.0210 S   0  0  0  0  0  0  0  0  0  0  0  0
   -6.8480   24.0990  -31.0640 C   0  0  0  0  0  0  0  0  0  0  0  0
   -4.6460   25.6460  -30.8500 O   0  0  0  0  0  0  0  0  0  0  0  0
   -6.4710   26.0540  -29.3160 O   0  0  0  0  0  0  0  0  0  0  0  0
   -3.6520   22.4150  -30.2760 C   0  0  0  0  0  0  0  0  0  0  0  0
   -1.1240   20.9250  -32.3610 N   0  0  0  0  0  0  0  0  0  0  0  0
   -0.9000   20.2990  -33.5480 C   0  0  0  0  0  0  0  0  0  0  0  0
   -1.8760   19.6340  -34.1580 N   0  0  0  0  0  0  0  0  0  0  0  0
   -6.2030   19.9150  -33.6790 C   0  0  0  0  0  0  0  0  0  0  0  0
   -7.4320   19.8070  -33.0480 C   0  0  0  0  0  0  0  0  0  0  0  0
   -8.9546   18.5855  -30.5995 H   0  0  0  0  0  0  0  0  0  0  0  0
   -9.7058   19.4386  -31.9904 H   0  0  0  0  0  0  0  0  0  0  0  0
   -9.5942   17.6458  -31.9904 H   0  0  0  0  0  0  0  0  0  0  0  0
   -7.1196   16.7003  -31.7531 H   0  0  0  0  0  0  0  0  0  0  0  0
   -4.9210   16.8779  -32.8749 H   0  0  0  0  0  0  0  0  0  0  0  0
   -4.3259   20.1540  -31.9525 H   0  0  0  0  0  0  0  0  0  0  0  0
   -0.8656   20.7160  -29.5101 H   0  0  0  0  0  0  0  0  0  0  0  0
   -1.2657   21.8455  -27.3374 H   0  0  0  0  0  0  0  0  0  0  0  0
   -3.2144   23.3531  -27.0399 H   0  0  0  0  0  0  0  0  0  0  0  0
   -5.3700   23.9270  -27.8560 H   0  0  0  0  0  0  0  0  0  0  0  0
   -7.5741   23.5541  -30.4428 H   0  0  0  0  0  0  0  0  0  0  0  0
   -7.3793   24.8232  -31.6990 H   0  0  0  0  0  0  0  0  0  0  0  0
   -6.3011   23.3865  -31.6990 H   0  0  0  0  0  0  0  0  0  0  0  0
   -4.3444   22.5866  -31.1134 H   0  0  0  0  0  0  0  0  0  0  0  0
   -0.3160   21.4170  -31.9550 H   0  0  0  0  0  0  0  0  0  0  0  0
    0.0985   20.3436  -34.0074 H   0  0  0  0  0  0  0  0  0  0  0  0
   -5.9444   20.8330  -34.2272 H   0  0  0  0  0  0  0  0  0  0  0  0
   -8.1489   20.6399  -33.0970 H   0  0  0  0  0  0  0  0  0  0  0  0
  1  2  1  0
  2  3  2  0
  3  4  1  0
  4  5  2  0
  5  6  1  0
  6  7  2  0
  7  8  1  0
  8  9  2  0
  9 10  1  0
 10 11  2  0
 11 12  1  0
 12 13  2  0
 13 14  1  0
 14 15  1  0
 15 16  1  0
 16 17  1  0
 16 18  2  0
 16 19  2  0
 14 20  2  0
  9 21  1  0
 21 22  1  0
 22 23  2  0
  5 24  1  0
 24 25  2  0
 25  2  1  0
 23  7  1  0
 20 10  1  0
  1 26  1  0
  1 27  1  0
  1 28  1  0
  3 29  1  0
  4 30  1  0
  8 31  1  0
 11 32  1  0
 12 33  1  0
 13 34  1  0
 15 35  1  0
 17 36  1  0
 17 37  1  0
 17 38  1  0
 20 39  1  0
 21 40  1  0
 22 41  1  0
 24 42  1  0
 25 43  1  0
M  END
>  <smiles>  (41) 
Cc1ccc(N=c2cc(-c3cccc(NS(C)(=O)=O)c3)[nH]cn2)cc1

>  <score_type>  (41) 
oracle

>  <origin>  (41) 
adgpu

>  <m_score__min__energy>  (41) 
-9.1500000000000004

>  <m_primary>  (41) 
energy

$$$$
41:0
     RDKit          3D

 40 42  0  0  0  0  0  0  0  0999 V2000
   -2.8680   15.6650  -35.9770 C   0  0  0  0  0  0  0  0  0  0  0  0
   -3.8740   16.0890  -34.9480 C   0  0  0  0  0  0  0  0  0  0  0  0
   -4.6210   17.2610  -35.1310 C   0  0  0  0  0  0  0  0  0  0  0  0
   -5.5330   17.6750  -34.1550 C   0  0  0  0  0  0  0  0  0  0  0  0
   -5.6860   16.9390  -32.9690 C   0  0  0  0  0  0  0  0  0  0  0  0
   -6.6340   17.3360  -31.9650 N   0  0  0  0  0  0  0  0  0  0  0  0
   -7.1630   18.6650  -31.8470 C   0  0  0  0  0  0  0  0  0  0  0  0
   -8.6920   18.8500  -31.2740 S   0  0  0  0  0  0  0  0  0  0  0  0
   -6.3540   19.8060  -32.1960 N   0  0  0  0  0  0  0  0  0  0  0  0
   -6.7420   21.1710  -31.9670 C   0  0  0  0  0  0  0  0  0  0  0  0
   -8.0750   21.5470  -32.1710 C   0  0  0  0  0  0  0  0  0  0  0  0
   -8.4880   22.8500  -31.9170 C   0  0  0  0  0  0  0  0  0  0  0  0
   -7.5840   23.7960  -31.4400 C   0  0  0  0  0  0  0  0  0  0  0  0
   -6.2320   23.4550  -31.2010 C   0  0  0  0  0  0  0  0  0  0  0  0
   -5.8170   22.1190  -31.4690 C   0  0  0  0  0  0  0  0  0  0  0  0
   -4.4790   21.7710  -31.2480 C   0  0  0  0  0  0  0  0  0  0  0  0
   -3.5840   22.7130  -30.7670 C   0  0  0  0  0  0  0  0  0  0  0  0
   -4.0110   24.0130  -30.5060 C   0  0  0  0  0  0  0  0  0  0  0  0
   -3.1660   24.8410  -30.0690 O   0  0  0  0  0  0  0  0  0  0  0  0
   -5.3200   24.3810  -30.7200 N   0  0  0  0  0  0  0  0  0  0  0  0
   -5.7410   25.7680  -30.4350 C   0  0  0  0  0  0  0  0  0  0  0  0
   -4.9430   15.7640  -32.7900 C   0  0  0  0  0  0  0  0  0  0  0  0
   -4.0310   15.3490  -33.7660 C   0  0  0  0  0  0  0  0  0  0  0  0
   -1.9666   15.2851  -35.4738 H   0  0  0  0  0  0  0  0  0  0  0  0
   -3.2987   14.8719  -36.6058 H   0  0  0  0  0  0  0  0  0  0  0  0
   -2.6010   16.5271  -36.6058 H   0  0  0  0  0  0  0  0  0  0  0  0
   -4.4893   17.8574  -36.0459 H   0  0  0  0  0  0  0  0  0  0  0  0
   -6.1337   18.5821  -34.3173 H   0  0  0  0  0  0  0  0  0  0  0  0
   -6.9570   16.6160  -31.2790 H   0  0  0  0  0  0  0  0  0  0  0  0
   -5.4100   19.6450  -32.6120 H   0  0  0  0  0  0  0  0  0  0  0  0
   -8.8014   20.8056  -32.5352 H   0  0  0  0  0  0  0  0  0  0  0  0
   -9.5354   23.1356  -32.0939 H   0  0  0  0  0  0  0  0  0  0  0  0
   -7.9263   24.8233  -31.2463 H   0  0  0  0  0  0  0  0  0  0  0  0
   -4.1372   20.7465  -31.4569 H   0  0  0  0  0  0  0  0  0  0  0  0
   -2.5347   22.4339  -30.5910 H   0  0  0  0  0  0  0  0  0  0  0  0
   -5.7874   25.9208  -29.3467 H   0  0  0  0  0  0  0  0  0  0  0  0
   -5.0151   26.4689  -30.8731 H   0  0  0  0  0  0  0  0  0  0  0  0
   -6.7340   25.9471  -30.8731 H   0  0  0  0  0  0  0  0  0  0  0  0
   -5.0778   15.1651  -31.8772 H   0  0  0  0  0  0  0  0  0  0  0  0
   -3.4343   14.4388  -33.6064 H   0  0  0  0  0  0  0  0  0  0  0  0
  1  2  1  0
  2  3  2  0
  3  4  1  0
  4  5  2  0
  5  6  1  0
  6  7  1  0
  7  8  2  0
  7  9  1  0
  9 10  1  0
 10 11  2  0
 11 12  1  0
 12 13  2  0
 13 14  1  0
 14 15  2  0
 15 16  1  0
 16 17  2  0
 17 18  1  0
 18 19  2  0
 18 20  1  0
 20 21  1  0
  5 22  1  0
 22 23  2  0
 23  2  1  0
 15 10  1  0
 20 14  1  0
  1 24  1  0
  1 25  1  0
  1 26  1  0
  3 27  1  0
  4 28  1  0
  6 29  1  0
  9 30  1  0
 11 31  1  0
 12 32  1  0
 13 33  1  0
 16 34  1  0
 17 35  1  0
 21 36  1  0
 21 37  1  0
 21 38  1  0
 22 39  1  0
 23 40  1  0
M  END
>  <UniqueID>  (42) 
40

>  <SMILES>  (42) 
Cc1ccc(NC(=S)Nc2cccc3c2ccc(=O)n3C)cc1

>  <Energy>  (42) 
63.02750356150624

>  <Genealogy>  (42) 
Cc1ccc(NC(=S)Nc2cccc3c2ccc(=O)n3C)cc1 (3D coordinates assigned)
Cc1ccc(NC(=S)Nc2cccc3c2ccc(=O)n3C)cc1 (optimized conformer: 63.02750356150624 kcal/mol)

>  <smiles>  (42) 
Cc1ccc(NC(=S)Nc2cccc3c2ccc(=O)n3C)cc1

>  <score_type>  (42) 
oracle

>  <origin>  (42) 
adgpu

>  <m_score__min__energy>  (42) 
-8.3900000000000006

>  <m_primary>  (42) 
energy

$$$$
42:0
     RDKit          3D

 40 43  0  0  0  0  0  0  0  0999 V2000
   -1.5435   13.6704  -37.9633 H   0  0  0  0  0  0  0  0  0  0  0  0
   -2.0380   13.8830  -37.0040 C   0  0  0  0  0  0  0  0  0  0  0  0
   -2.6990   12.8610  -36.3160 C   0  0  0  0  0  0  0  0  0  0  0  0
   -2.7281   11.8450  -36.7366 H   0  0  0  0  0  0  0  0  0  0  0  0
   -3.3230   13.1290  -35.0940 C   0  0  0  0  0  0  0  0  0  0  0  0
   -3.8518   12.3253  -34.5607 H   0  0  0  0  0  0  0  0  0  0  0  0
   -3.2770   14.4230  -34.5440 C   0  0  0  0  0  0  0  0  0  0  0  0
   -3.9040   14.7360  -33.3290 O   0  0  0  0  0  0  0  0  0  0  0  0
   -4.9820   15.6190  -33.1730 C   0  0  0  0  0  0  0  0  0  0  0  0
   -5.2460   16.1420  -31.9030 C   0  0  0  0  0  0  0  0  0  0  0  0
   -4.6052   15.8633  -31.0535 H   0  0  0  0  0  0  0  0  0  0  0  0
   -6.3180   17.0160  -31.7060 C   0  0  0  0  0  0  0  0  0  0  0  0
   -6.5176   17.4160  -30.7010 H   0  0  0  0  0  0  0  0  0  0  0  0
   -7.1400   17.3870  -32.7760 C   0  0  0  0  0  0  0  0  0  0  0  0
   -8.2420   18.2740  -32.5210 N   0  0  0  0  0  0  0  0  0  0  0  0
   -8.1580   19.5350  -32.2140 C   0  0  0  0  0  0  0  0  0  0  0  0
   -7.0420   20.1950  -32.0240 O   0  0  0  0  0  0  0  0  0  0  0  0
   -7.4240   21.4170  -31.7160 C   0  0  0  0  0  0  0  0  0  0  0  0
   -6.4970   22.5250  -31.4180 C   0  0  0  0  0  0  0  0  0  0  0  0
   -5.1060   22.3200  -31.4280 C   0  0  0  0  0  0  0  0  0  0  0  0
   -4.7014   21.3240  -31.6611 H   0  0  0  0  0  0  0  0  0  0  0  0
   -4.2340   23.3760  -31.1430 C   0  0  0  0  0  0  0  0  0  0  0  0
   -3.1468   23.2089  -31.1533 H   0  0  0  0  0  0  0  0  0  0  0  0
   -4.7430   24.6440  -30.8450 C   0  0  0  0  0  0  0  0  0  0  0  0
   -3.8760   25.6920  -30.5630 O   0  0  0  0  0  0  0  0  0  0  0  0
   -6.1250   24.8570  -30.8320 C   0  0  0  0  0  0  0  0  0  0  0  0
   -6.5250   25.8547  -30.5981 H   0  0  0  0  0  0  0  0  0  0  0  0
   -6.9990   23.8030  -31.1160 C   0  0  0  0  0  0  0  0  0  0  0  0
   -8.0854   23.9748  -31.1030 H   0  0  0  0  0  0  0  0  0  0  0  0
   -8.7720   21.5240  -31.7060 N   0  0  0  0  0  0  0  0  0  0  0  0
   -9.2270   20.3230  -32.0230 N   0  0  0  0  0  0  0  0  0  0  0  0
  -10.2350   20.0630  -32.0990 H   0  0  0  0  0  0  0  0  0  0  0  0
   -6.9070   16.8230  -34.0450 C   0  0  0  0  0  0  0  0  0  0  0  0
   -7.5720   17.0718  -34.8852 H   0  0  0  0  0  0  0  0  0  0  0  0
   -5.8340   15.9480  -34.2420 C   0  0  0  0  0  0  0  0  0  0  0  0
   -5.6558   15.5153  -35.2375 H   0  0  0  0  0  0  0  0  0  0  0  0
   -2.6290   15.4450  -35.2500 C   0  0  0  0  0  0  0  0  0  0  0  0
   -2.6103   16.4657  -34.8404 H   0  0  0  0  0  0  0  0  0  0  0  0
   -2.0060   15.1750  -36.4720 C   0  0  0  0  0  0  0  0  0  0  0  0
   -1.4900   15.9803  -37.0154 H   0  0  0  0  0  0  0  0  0  0  0  0
  1  2  1  0
  2  3  2  0
  3  4  1  0
  3  5  1  0
  5  6  1  0
  5  7  2  0
  7  8  1  0
  8  9  1  0
  9 10  2  0
 10 11  1  0
 10 12  1  0
 12 13  1  0
 12 14  2  0
 14 15  1  0
 15 16  2  0
 16 17  1  0
 17 18  1  0
 18 19  1  0
 19 20  2  0
 20 21  1  0
 20 22  1  0
 22 23  1  0
 22 24  2  0
 24 25  1  0
 24 26  1  0
 26 27  1  0
 26 28  2  0
 28 29  1  0
 18 30  2  0
 30 31  1  0
 31 32  1  0
 14 33  1  0
 33 34  1  0
 33 35  2  0
 35 36  1  0
  7 37  1  0
 37 38  1  0
 37 39  2  0
 39 40  1  0
 39  2  1  0
 35  9  1  0
 31 16  1  0
 28 19  1  0
M  CHG  1  25  -1
M  END
>  <UniqueID>  (43) 
41

>  <SMILES>  (43) 
[O-]c1ccc(-c2n[nH]/c(=N/c3ccc(Oc4ccccc4)cc3)o2)cc1

>  <Energy>  (43) 
92.4601676018085

>  <Genealogy>  (43) 
[O-]c1ccc(-c2n[nH]c(=Nc3ccc(Oc4ccccc4)cc3)o2)cc1 (protonated)
[O-]c1ccc(-c2n[nH]/c(=N/c3ccc(Oc4ccccc4)cc3)o2)cc1 (cis-trans isomerization)
[O-]c1ccc(-c2n[nH]/c(=N/c3ccc(Oc4ccccc4)cc3)o2)cc1 (3D coordinates assigned)
[O-]c1ccc(-c2n[nH]/c(=N/c3ccc(Oc4ccccc4)cc3)o2)cc1 (optimized conformer: 92.4601676018085 kcal/mol)

>  <smiles>  (43) 
Oc1ccc(-c2n[nH]c(=Nc3ccc(Oc4ccccc4)cc3)o2)cc1

>  <score_type>  (43) 
oracle

>  <origin>  (43) 
adgpu

>  <m_score__min__energy>  (43) 
-10.390000000000001

>  <m_primary>  (43) 
energy

$$$$
43:0
     RDKit          3D

 43 46  0  0  0  0  0  0  0  0999 V2000
   -0.9520   27.2300  -23.3410 N   0  0  0  0  0  0  0  0  0  0  0  0
   -0.6050   27.8190  -24.9290 S   0  0  0  0  0  0  0  0  0  0  0  0
   -1.2600   29.1600  -25.1170 O   0  0  0  0  0  0  0  0  0  0  0  0
    0.8800   27.9790  -25.0980 O   0  0  0  0  0  0  0  0  0  0  0  0
   -1.2090   26.6750  -26.1220 C   0  0  0  0  0  0  0  0  0  0  0  0
   -0.6610   26.6600  -27.4100 C   0  0  0  0  0  0  0  0  0  0  0  0
   -1.1250   25.7510  -28.3640 C   0  0  0  0  0  0  0  0  0  0  0  0
   -2.1480   24.8340  -28.0450 C   0  0  0  0  0  0  0  0  0  0  0  0
   -2.6440   23.8860  -29.0150 N   0  0  0  0  0  0  0  0  0  0  0  0
   -3.9210   23.4760  -29.1860 C   0  0  0  0  0  0  0  0  0  0  0  0
   -3.9620   22.5850  -30.2390 C   0  0  0  0  0  0  0  0  0  0  0  0
   -5.1870   21.9940  -30.8220 C   0  0  0  0  0  0  0  0  0  0  0  0
   -5.1730   20.6700  -31.2920 C   0  0  0  0  0  0  0  0  0  0  0  0
   -6.3310   20.1000  -31.8280 C   0  0  0  0  0  0  0  0  0  0  0  0
   -7.5150   20.8400  -31.8910 C   0  0  0  0  0  0  0  0  0  0  0  0
   -9.0980   20.0590  -32.6210 Br  0  0  0  0  0  0  0  0  0  0  0  0
   -7.5400   22.1530  -31.4120 C   0  0  0  0  0  0  0  0  0  0  0  0
   -6.3860   22.7270  -30.8710 C   0  0  0  0  0  0  0  0  0  0  0  0
   -2.6420   22.4810  -30.6660 C   0  0  0  0  0  0  0  0  0  0  0  0
   -2.0890   21.6030  -31.7190 C   0  0  0  0  0  0  0  0  0  0  0  0
   -2.6970   21.5090  -32.9820 C   0  0  0  0  0  0  0  0  0  0  0  0
   -2.1550   20.6550  -33.9460 C   0  0  0  0  0  0  0  0  0  0  0  0
   -1.0550   19.9100  -33.6570 N   0  0  0  0  0  0  0  0  0  0  0  0
   -0.4570   19.9670  -32.4380 C   0  0  0  0  0  0  0  0  0  0  0  0
   -0.9660   20.8080  -31.4450 C   0  0  0  0  0  0  0  0  0  0  0  0
   -1.8710   23.2850  -29.9080 N   0  0  0  0  0  0  0  0  0  0  0  0
   -2.6870   24.8540  -26.7440 C   0  0  0  0  0  0  0  0  0  0  0  0
   -2.2200   25.7640  -25.7910 C   0  0  0  0  0  0  0  0  0  0  0  0
   -1.9810   27.3330  -23.1930 H   0  0  0  0  0  0  0  0  0  0  0  0
   -0.4850   27.8760  -22.6670 H   0  0  0  0  0  0  0  0  0  0  0  0
    0.1392   27.3677  -27.6724 H   0  0  0  0  0  0  0  0  0  0  0  0
   -0.6883   25.7505  -29.3736 H   0  0  0  0  0  0  0  0  0  0  0  0
   -4.7841   23.7991  -28.5854 H   0  0  0  0  0  0  0  0  0  0  0  0
   -4.2465   20.0795  -31.2378 H   0  0  0  0  0  0  0  0  0  0  0  0
   -6.3105   19.0656  -32.2015 H   0  0  0  0  0  0  0  0  0  0  0  0
   -8.4711   22.7366  -31.4610 H   0  0  0  0  0  0  0  0  0  0  0  0
   -6.4159   23.7556  -30.4823 H   0  0  0  0  0  0  0  0  0  0  0  0
   -3.5937   22.1037  -33.2105 H   0  0  0  0  0  0  0  0  0  0  0  0
   -2.6192   20.5853  -34.9408 H   0  0  0  0  0  0  0  0  0  0  0  0
    0.4299   19.3496  -32.2325 H   0  0  0  0  0  0  0  0  0  0  0  0
   -0.4891   20.8465  -30.4545 H   0  0  0  0  0  0  0  0  0  0  0  0
   -3.4843   24.1457  -26.4747 H   0  0  0  0  0  0  0  0  0  0  0  0
   -2.6480   25.7645  -24.7777 H   0  0  0  0  0  0  0  0  0  0  0  0
  1  2  1  0
  2  3  2  0
  2  4  2  0
  2  5  1  0
  5  6  2  0
  6  7  1  0
  7  8  2  0
  8  9  1  0
  9 10  1  0
 10 11  2  0
 11 12  1  0
 12 13  2  0
 13 14  1  0
 14 15  2  0
 15 16  1  0
 15 17  1  0
 17 18  2  0
 11 19  1  0
 19 20  1  0
 20 21  2  0
 21 22  1  0
 22 23  2  0
 23 24  1  0
 24 25  2  0
 19 26  2  0
  8 27  1  0
 27 28  2  0
 28  5  1  0
 26  9  1  0
 18 12  1  0
 25 20  1  0
  1 29  1  0
  1 30  1  0
  6 31  1  0
  7 32  1  0
 10 33  1  0
 13 34  1  0
 14 35  1  0
 17 36  1  0
 18 37  1  0
 21 38  1  0
 22 39  1  0
 24 40  1  0
 25 41  1  0
 27 42  1  0
 28 43  1  0
M  END
>  <UniqueID>  (44) 
42

>  <SMILES>  (44) 
NS(=O)(=O)c1ccc(-n2cc(-c3ccc(Br)cc3)c(-c3ccncc3)n2)cc1

>  <Energy>  (44) 
87.80398622589449

>  <Genealogy>  (44) 
NS(=O)(=O)c1ccc(-n2cc(-c3ccc(Br)cc3)c(-c3ccncc3)n2)cc1 (3D coordinates assigned)
NS(=O)(=O)c1ccc(-n2cc(-c3ccc(Br)cc3)c(-c3ccncc3)n2)cc1 (optimized conformer: 87.80398622589449 kcal/mol)

>  <smiles>  (44) 
NS(=O)(=O)c1ccc(-n2cc(-c3ccc(Br)cc3)c(-c3ccncc3)n2)cc1

>  <score_type>  (44) 
oracle

>  <origin>  (44) 
adgpu

>  <m_score__min__energy>  (44) 
-8.8699999999999992

>  <m_primary>  (44) 
energy

$$$$
44:0
     RDKit          3D

 49 51  0  0  0  0  0  0  0  0999 V2000
   -0.1930   22.8170  -24.0390 C   0  0  0  0  0  0  0  0  0  0  0  0
    0.1710   22.7060  -25.4100 O   0  0  0  0  0  0  0  0  0  0  0  0
   -0.5740   23.2360  -26.4740 C   0  0  0  0  0  0  0  0  0  0  0  0
   -0.4870   24.6070  -26.7310 C   0  0  0  0  0  0  0  0  0  0  0  0
   -1.2080   25.1790  -27.7850 C   0  0  0  0  0  0  0  0  0  0  0  0
   -2.0330   24.3860  -28.5950 C   0  0  0  0  0  0  0  0  0  0  0  0
   -2.7450   24.9230  -29.7180 N   0  0  0  0  0  0  0  0  0  0  0  0
   -4.2210   24.2640  -30.3480 S   0  0  0  0  0  0  0  0  0  0  0  0
   -5.1240   23.9000  -29.2050 O   0  0  0  0  0  0  0  0  0  0  0  0
   -4.8880   25.3120  -31.1940 O   0  0  0  0  0  0  0  0  0  0  0  0
   -3.8600   22.8010  -31.2790 C   0  0  0  0  0  0  0  0  0  0  0  0
   -2.5170   22.4260  -31.4340 C   0  0  0  0  0  0  0  0  0  0  0  0
   -2.1600   21.3260  -32.2340 C   0  0  0  0  0  0  0  0  0  0  0  0
   -0.7840   20.9710  -32.4440 N   0  0  0  0  0  0  0  0  0  0  0  0
   -0.0840   21.1490  -33.6830 C   0  0  0  0  0  0  0  0  0  0  0  0
    1.2180   20.4590  -33.9090 C   0  0  0  0  0  0  0  0  0  0  0  0
   -0.5210   21.9460  -34.5560 O   0  0  0  0  0  0  0  0  0  0  0  0
   -3.1650   20.6130  -32.8960 C   0  0  0  0  0  0  0  0  0  0  0  0
   -4.5060   20.9630  -32.7330 C   0  0  0  0  0  0  0  0  0  0  0  0
   -4.8660   22.0480  -31.9180 C   0  0  0  0  0  0  0  0  0  0  0  0
   -6.2550   22.3680  -31.7550 N   0  0  0  0  0  0  0  0  0  0  0  0
   -6.8670   23.5420  -32.3540 C   0  0  0  0  0  0  0  0  0  0  0  0
   -8.3680   23.2800  -32.3290 C   0  0  0  0  0  0  0  0  0  0  0  0
   -8.5780   22.0970  -31.3870 C   0  0  0  0  0  0  0  0  0  0  0  0
   -7.2250   21.4060  -31.2670 C   0  0  0  0  0  0  0  0  0  0  0  0
   -2.1390   23.0170  -28.3250 C   0  0  0  0  0  0  0  0  0  0  0  0
   -1.4090   22.4390  -27.2830 C   0  0  0  0  0  0  0  0  0  0  0  0
    0.6691   22.5541  -23.4083 H   0  0  0  0  0  0  0  0  0  0  0  0
   -0.5028   23.8504  -23.8244 H   0  0  0  0  0  0  0  0  0  0  0  0
   -1.0267   22.1323  -23.8244 H   0  0  0  0  0  0  0  0  0  0  0  0
    0.1531   25.2411  -26.1000 H   0  0  0  0  0  0  0  0  0  0  0  0
   -1.1269   26.2586  -27.9795 H   0  0  0  0  0  0  0  0  0  0  0  0
   -1.7314   23.0011  -30.9220 H   0  0  0  0  0  0  0  0  0  0  0  0
   -0.2500   20.5710  -31.6390 H   0  0  0  0  0  0  0  0  0  0  0  0
    1.6772   20.2157  -32.9395 H   0  0  0  0  0  0  0  0  0  0  0  0
    1.0482   19.5325  -34.4771 H   0  0  0  0  0  0  0  0  0  0  0  0
    1.8893   21.1197  -34.4771 H   0  0  0  0  0  0  0  0  0  0  0  0
   -2.8963   19.7702  -33.5499 H   0  0  0  0  0  0  0  0  0  0  0  0
   -5.2873   20.3841  -33.2472 H   0  0  0  0  0  0  0  0  0  0  0  0
   -6.6246   24.4418  -31.7695 H   0  0  0  0  0  0  0  0  0  0  0  0
   -6.5011   23.7145  -33.3769 H   0  0  0  0  0  0  0  0  0  0  0  0
   -8.9034   24.1651  -31.9549 H   0  0  0  0  0  0  0  0  0  0  0  0
   -8.7541   23.0641  -33.3361 H   0  0  0  0  0  0  0  0  0  0  0  0
   -8.9153   22.4494  -30.4011 H   0  0  0  0  0  0  0  0  0  0  0  0
   -9.3471   21.4102  -31.7701 H   0  0  0  0  0  0  0  0  0  0  0  0
   -7.0166   21.1479  -30.2182 H   0  0  0  0  0  0  0  0  0  0  0  0
   -7.1934   20.4675  -31.8399 H   0  0  0  0  0  0  0  0  0  0  0  0
   -2.8029   22.3902  -28.9385 H   0  0  0  0  0  0  0  0  0  0  0  0
   -1.4863   21.3582  -27.0934 H   0  0  0  0  0  0  0  0  0  0  0  0
  1  2  1  0
  2  3  1  0
  3  4  2  0
  4  5  1  0
  5  6  2  0
  6  7  1  0
  7  8  1  0
  8  9  2  0
  8 10  2  0
  8 11  1  0
 11 12  2  0
 12 13  1  0
 13 14  1  0
 14 15  1  0
 15 16  1  0
 15 17  2  0
 13 18  2  0
 18 19  1  0
 19 20  2  0
 20 21  1  0
 21 22  1  0
 22 23  1  0
 23 24  1  0
 24 25  1  0
  6 26  1  0
 26 27  2  0
 27  3  1  0
 20 11  1  0
 25 21  1  0
  1 28  1  0
  1 29  1  0
  1 30  1  0
  4 31  1  0
  5 32  1  0
 12 33  1  0
 14 34  1  0
 16 35  1  0
 16 36  1  0
 16 37  1  0
 18 38  1  0
 19 39  1  0
 22 40  1  0
 22 41  1  0
 23 42  1  0
 23 43  1  0
 24 44  1  0
 24 45  1  0
 25 46  1  0
 25 47  1  0
 26 48  1  0
 27 49  1  0
M  CHG  1   7  -1
M  END
>  <UniqueID>  (45) 
43

>  <SMILES>  (45) 
COc1ccc([N-]S(=O)(=O)c2cc(NC(C)=O)ccc2N2CCCC2)cc1

>  <Energy>  (45) 
60.11868674474317

>  <Genealogy>  (45) 
COc1ccc([N-]S(=O)(=O)c2cc(NC(C)=O)ccc2N2CCCC2)cc1 (protonated)
COc1ccc([N-]S(=O)(=O)c2cc(NC(C)=O)ccc2N2CCCC2)cc1 (3D coordinates assigned)
COc1ccc([N-]S(=O)(=O)c2cc(NC(C)=O)ccc2N2CCCC2)cc1 (nonaromatic ring conformer: 60.11868674474317 kcal/mol)

>  <smiles>  (45) 
COc1ccc(NS(=O)(=O)c2cc(NC(C)=O)ccc2N2CCCC2)cc1

>  <score_type>  (45) 
oracle

>  <origin>  (45) 
adgpu

>  <m_score__min__energy>  (45) 
-9.7300000000000004

>  <m_primary>  (45) 
energy

$$$$
45:0
     RDKit          3D

 63 66  0  0  0  0  0  0  0  0999 V2000
   -9.7900   21.9110  -30.9600 C   0  0  0  0  0  0  0  0  0  0  0  0
   -8.7550   21.0420  -30.5040 O   0  0  0  0  0  0  0  0  0  0  0  0
   -8.0470   20.1490  -31.3240 C   0  0  0  0  0  0  0  0  0  0  0  0
   -8.4770   18.8250  -31.5340 C   0  0  0  0  0  0  0  0  0  0  0  0
   -7.7510   17.9670  -32.3650 C   0  0  0  0  0  0  0  0  0  0  0  0
   -6.5810   18.4160  -32.9890 C   0  0  0  0  0  0  0  0  0  0  0  0
   -5.7040   17.3800  -34.1130 S   0  0  0  0  0  0  0  0  0  0  0  0
   -5.3130   18.1700  -35.3300 O   0  0  0  0  0  0  0  0  0  0  0  0
   -6.5730   16.2290  -34.5370 O   0  0  0  0  0  0  0  0  0  0  0  0
   -4.2700   16.7790  -33.3520 N   0  0  0  0  0  0  0  0  0  0  0  0
   -3.0890   16.5320  -34.1140 C   0  0  0  0  0  0  0  0  0  0  0  0
   -2.9330   15.2820  -34.7350 C   0  0  0  0  0  0  0  0  0  0  0  0
   -1.8510   15.0490  -35.5880 C   0  0  0  0  0  0  0  0  0  0  0  0
   -0.9150   16.0610  -35.8260 C   0  0  0  0  0  0  0  0  0  0  0  0
   -1.0550   17.3080  -35.2040 C   0  0  0  0  0  0  0  0  0  0  0  0
   -2.1320   17.5530  -34.3320 C   0  0  0  0  0  0  0  0  0  0  0  0
   -2.2550   18.8900  -33.7030 C   0  0  0  0  0  0  0  0  0  0  0  0
   -1.7470   19.8890  -34.2830 O   0  0  0  0  0  0  0  0  0  0  0  0
   -2.9370   19.0520  -32.4470 N   0  0  0  0  0  0  0  0  0  0  0  0
   -3.1520   20.3220  -31.8110 C   0  0  0  0  0  0  0  0  0  0  0  0
   -3.1150   20.4550  -30.4100 C   0  0  0  0  0  0  0  0  0  0  0  0
   -3.3750   21.6930  -29.8120 C   0  0  0  0  0  0  0  0  0  0  0  0
   -3.6750   22.8110  -30.6050 C   0  0  0  0  0  0  0  0  0  0  0  0
   -4.0360   24.3680  -29.8670 S   0  0  0  0  0  0  0  0  0  0  0  0
   -4.2240   25.4130  -30.9330 O   0  0  0  0  0  0  0  0  0  0  0  0
   -5.3110   24.2510  -29.0810 O   0  0  0  0  0  0  0  0  0  0  0  0
   -2.7280   24.8140  -28.7990 N   0  0  0  0  0  0  0  0  0  0  0  0
   -3.0050   24.4020  -27.4230 C   0  0  0  0  0  0  0  0  0  0  0  0
   -1.6550   24.2060  -26.7510 C   0  0  0  0  0  0  0  0  0  0  0  0
   -0.6650   24.0010  -27.8870 C   0  0  0  0  0  0  0  0  0  0  0  0
   -1.4840   24.1350  -29.1650 C   0  0  0  0  0  0  0  0  0  0  0  0
   -3.7320   22.6750  -32.0000 C   0  0  0  0  0  0  0  0  0  0  0  0
   -3.4820   21.4360  -32.5990 C   0  0  0  0  0  0  0  0  0  0  0  0
   -6.1420   19.7300  -32.7750 C   0  0  0  0  0  0  0  0  0  0  0  0
   -6.8760   20.6050  -31.9520 C   0  0  0  0  0  0  0  0  0  0  0  0
   -6.4790   21.9370  -31.7430 O   0  0  0  0  0  0  0  0  0  0  0  0
   -7.1570   23.0720  -32.2750 C   0  0  0  0  0  0  0  0  0  0  0  0
  -10.3100   22.3476  -30.0946 H   0  0  0  0  0  0  0  0  0  0  0  0
   -9.3516   22.7156  -31.5686 H   0  0  0  0  0  0  0  0  0  0  0  0
  -10.5066   21.3400  -31.5686 H   0  0  0  0  0  0  0  0  0  0  0  0
   -9.3910   18.4631  -31.0405 H   0  0  0  0  0  0  0  0  0  0  0  0
   -8.0998   16.9367  -32.5290 H   0  0  0  0  0  0  0  0  0  0  0  0
   -3.6657   14.4829  -34.5491 H   0  0  0  0  0  0  0  0  0  0  0  0
   -1.7351   14.0685  -36.0730 H   0  0  0  0  0  0  0  0  0  0  0  0
   -0.0676   15.8771  -36.5028 H   0  0  0  0  0  0  0  0  0  0  0  0
   -0.3181   18.1012  -35.3984 H   0  0  0  0  0  0  0  0  0  0  0  0
   -3.3610   18.2140  -31.9920 H   0  0  0  0  0  0  0  0  0  0  0  0
   -2.8807   19.5822  -29.7829 H   0  0  0  0  0  0  0  0  0  0  0  0
   -3.3441   21.7901  -28.7167 H   0  0  0  0  0  0  0  0  0  0  0  0
   -3.5796   25.1815  -26.9013 H   0  0  0  0  0  0  0  0  0  0  0  0
   -3.6004   23.4775  -27.3968 H   0  0  0  0  0  0  0  0  0  0  0  0
   -1.3858   25.0948  -26.1615 H   0  0  0  0  0  0  0  0  0  0  0  0
   -1.6635   23.3530  -26.0566 H   0  0  0  0  0  0  0  0  0  0  0  0
    0.1239   24.7668  -27.8531 H   0  0  0  0  0  0  0  0  0  0  0  0
   -0.1639   23.0239  -27.8222 H   0  0  0  0  0  0  0  0  0  0  0  0
   -0.9323   24.7295  -29.9081 H   0  0  0  0  0  0  0  0  0  0  0  0
   -1.6874   23.1495  -29.6093 H   0  0  0  0  0  0  0  0  0  0  0  0
   -3.9744   23.5467  -32.6256 H   0  0  0  0  0  0  0  0  0  0  0  0
   -3.5442   21.3340  -33.6925 H   0  0  0  0  0  0  0  0  0  0  0  0
   -5.2160   20.0804  -33.2543 H   0  0  0  0  0  0  0  0  0  0  0  0
   -7.5300   23.6964  -31.4498 H   0  0  0  0  0  0  0  0  0  0  0  0
   -6.4611   23.6584  -32.8929 H   0  0  0  0  0  0  0  0  0  0  0  0
   -8.0032   22.7373  -32.8929 H   0  0  0  0  0  0  0  0  0  0  0  0
  1  2  1  0
  2  3  1  0
  3  4  2  0
  4  5  1  0
  5  6  2  0
  6  7  1  0
  7  8  2  0
  7  9  2  0
  7 10  1  0
 10 11  1  0
 11 12  2  0
 12 13  1  0
 13 14  2  0
 14 15  1  0
 15 16  2  0
 16 17  1  0
 17 18  2  0
 17 19  1  0
 19 20  1  0
 20 21  2  0
 21 22  1  0
 22 23  2  0
 23 24  1  0
 24 25  2  0
 24 26  2  0
 24 27  1  0
 27 28  1  0
 28 29  1  0
 29 30  1  0
 30 31  1  0
 23 32  1  0
 32 33  2  0
  6 34  1  0
 34 35  2  0
 35 36  1  0
 36 37  1  0
 35  3  1  0
 16 11  1  0
 33 20  1  0
 31 27  1  0
  1 38  1  0
  1 39  1  0
  1 40  1  0
  4 41  1  0
  5 42  1  0
 12 43  1  0
 13 44  1  0
 14 45  1  0
 15 46  1  0
 19 47  1  0
 21 48  1  0
 22 49  1  0
 28 50  1  0
 28 51  1  0
 29 52  1  0
 29 53  1  0
 30 54  1  0
 30 55  1  0
 31 56  1  0
 31 57  1  0
 32 58  1  0
 33 59  1  0
 34 60  1  0
 37 61  1  0
 37 62  1  0
 37 63  1  0
M  CHG  1  10  -1
M  END
>  <UniqueID>  (46) 
44

>  <SMILES>  (46) 
COc1ccc(S(=O)(=O)[N-]c2ccccc2C(=O)Nc2ccc(S(=O)(=O)N3CCCC3)cc2)cc1OC

>  <Energy>  (46) 
82.18435082576899

>  <Genealogy>  (46) 
COc1ccc(S(=O)(=O)[N-]c2ccccc2C(=O)Nc2ccc(S(=O)(=O)N3CCCC3)cc2)cc1OC (protonated)
COc1ccc(S(=O)(=O)[N-]c2ccccc2C(=O)Nc2ccc(S(=O)(=O)N3CCCC3)cc2)cc1OC (3D coordinates assigned)
COc1ccc(S(=O)(=O)[N-]c2ccccc2C(=O)Nc2ccc(S(=O)(=O)N3CCCC3)cc2)cc1OC (nonaromatic ring conformer: 82.18435082576899 kcal/mol)

>  <smiles>  (46) 
COc1ccc(S(=O)(=O)Nc2ccccc2C(=O)Nc2ccc(S(=O)(=O)N3CCCC3)cc2)cc1OC

>  <score_type>  (46) 
oracle

>  <origin>  (46) 
adgpu

>  <m_score__min__energy>  (46) 
-9.7899999999999991

>  <m_primary>  (46) 
energy

$$$$
46:0
     RDKit          3D

 31 33  0  0  0  0  0  0  0  0999 V2000
    0.0470   24.1100  -28.0300 C   0  0  0  0  0  0  0  0  0  0  0  0
   -1.1750   23.4790  -28.6510 C   0  0  0  0  0  0  0  0  0  0  0  0
   -1.3490   22.0760  -28.6030 C   0  0  0  0  0  0  0  0  0  0  0  0
   -0.4170   21.2340  -27.9910 O   0  0  0  0  0  0  0  0  0  0  0  0
   -2.4800   21.4940  -29.1770 C   0  0  0  0  0  0  0  0  0  0  0  0
   -3.4480   22.2770  -29.8020 C   0  0  0  0  0  0  0  0  0  0  0  0
   -4.5130   21.6860  -30.3360 O   0  0  0  0  0  0  0  0  0  0  0  0
   -5.4890   22.3520  -30.9490 C   0  0  0  0  0  0  0  0  0  0  0  0
   -6.6320   21.5880  -31.5100 C   0  0  0  0  0  0  0  0  0  0  0  0
   -6.3930   20.3630  -32.1590 C   0  0  0  0  0  0  0  0  0  0  0  0
   -7.4530   19.6210  -32.6890 C   0  0  0  0  0  0  0  0  0  0  0  0
   -8.7650   20.0860  -32.5680 C   0  0  0  0  0  0  0  0  0  0  0  0
   -9.8170   19.3470  -33.0940 O   0  0  0  0  0  0  0  0  0  0  0  0
   -9.0180   21.2940  -31.9130 C   0  0  0  0  0  0  0  0  0  0  0  0
   -7.9600   22.0410  -31.3830 C   0  0  0  0  0  0  0  0  0  0  0  0
   -5.4050   23.7500  -31.0610 C   0  0  0  0  0  0  0  0  0  0  0  0
   -4.3080   24.4170  -30.5160 C   0  0  0  0  0  0  0  0  0  0  0  0
   -4.2420   25.6720  -30.6230 O   0  0  0  0  0  0  0  0  0  0  0  0
   -3.2970   23.6800  -29.8640 C   0  0  0  0  0  0  0  0  0  0  0  0
   -2.1530   24.2780  -29.2850 C   0  0  0  0  0  0  0  0  0  0  0  0
   -1.9840   25.6610  -29.3350 O   0  0  0  0  0  0  0  0  0  0  0  0
   -0.0353   24.0675  -26.9339 H   0  0  0  0  0  0  0  0  0  0  0  0
    0.9456   23.5632  -28.3517 H   0  0  0  0  0  0  0  0  0  0  0  0
    0.1215   25.1593  -28.3517 H   0  0  0  0  0  0  0  0  0  0  0  0
    0.2900   20.7230  -28.5030 H   0  0  0  0  0  0  0  0  0  0  0  0
   -2.6089   20.4024  -29.1354 H   0  0  0  0  0  0  0  0  0  0  0  0
   -5.3638   19.9858  -32.2503 H   0  0  0  0  0  0  0  0  0  0  0  0
   -7.2535   18.6689  -33.2025 H   0  0  0  0  0  0  0  0  0  0  0  0
  -10.0511   21.6586  -31.8137 H   0  0  0  0  0  0  0  0  0  0  0  0
   -8.1666   22.9884  -30.8636 H   0  0  0  0  0  0  0  0  0  0  0  0
   -6.1979   24.3138  -31.5743 H   0  0  0  0  0  0  0  0  0  0  0  0
  1  2  1  0
  2  3  2  0
  3  4  1  0
  3  5  1  0
  5  6  2  0
  6  7  1  0
  7  8  1  0
  8  9  1  0
  9 10  2  0
 10 11  1  0
 11 12  2  0
 12 13  1  0
 12 14  1  0
 14 15  2  0
  8 16  2  0
 16 17  1  0
 17 18  2  0
 17 19  1  0
 19 20  2  0
 20 21  1  0
 20  2  1  0
 19  6  1  0
 15  9  1  0
  1 22  1  0
  1 23  1  0
  1 24  1  0
  4 25  1  0
  5 26  1  0
 10 27  1  0
 11 28  1  0
 14 29  1  0
 15 30  1  0
 16 31  1  0
M  CHG  2  13  -1  21  -1
M  END
>  <UniqueID>  (47) 
45

>  <SMILES>  (47) 
Cc1c(O)cc2oc(-c3ccc([O-])cc3)cc(=O)c2c1[O-]

>  <Energy>  (47) 
46.39993448086732

>  <Genealogy>  (47) 
Cc1c(O)cc2oc(-c3ccc([O-])cc3)cc(=O)c2c1[O-] (protonated)
Cc1c(O)cc2oc(-c3ccc([O-])cc3)cc(=O)c2c1[O-] (3D coordinates assigned)
Cc1c(O)cc2oc(-c3ccc([O-])cc3)cc(=O)c2c1[O-] (optimized conformer: 46.39993448086732 kcal/mol)

>  <smiles>  (47) 
Cc1c(O)cc2oc(-c3ccc(O)cc3)cc(=O)c2c1O

>  <score_type>  (47) 
oracle

>  <origin>  (47) 
adgpu

>  <m_score__min__energy>  (47) 
-10.17

>  <m_primary>  (47) 
energy

$$$$
47:0
     RDKit          3D

 74 77  0  0  0  0  0  0  0  0999 V2000
   -1.4220   19.0740  -27.4740 C   0  0  0  0  0  0  0  0  0  0  0  0
   -1.5360   20.5030  -27.9310 C   0  0  0  0  0  0  0  0  0  0  0  0
   -1.6050   21.5260  -26.9720 C   0  0  0  0  0  0  0  0  0  0  0  0
   -1.7070   22.8630  -27.3600 C   0  0  0  0  0  0  0  0  0  0  0  0
   -1.7430   23.2060  -28.7190 C   0  0  0  0  0  0  0  0  0  0  0  0
   -1.8130   24.6230  -29.1390 C   0  0  0  0  0  0  0  0  0  0  0  0
   -0.7590   25.2910  -29.3120 O   0  0  0  0  0  0  0  0  0  0  0  0
   -3.0810   25.2430  -29.3630 N   0  0  0  0  0  0  0  0  0  0  0  0
   -4.2340   24.5600  -29.8700 C   0  0  0  0  0  0  0  0  0  0  0  0
   -4.6720   23.3420  -29.3220 C   0  0  0  0  0  0  0  0  0  0  0  0
   -5.8520   22.7490  -29.7760 C   0  0  0  0  0  0  0  0  0  0  0  0
   -6.6290   23.3740  -30.7660 C   0  0  0  0  0  0  0  0  0  0  0  0
   -7.9480   22.7720  -31.2090 C   0  0  0  0  0  0  0  0  0  0  0  0
   -7.8050   21.6730  -32.1910 N   0  0  0  0  0  0  0  0  0  0  0  0
   -6.4130   21.4200  -32.6370 C   0  0  0  0  0  0  0  0  0  0  0  0
   -5.8690   20.1000  -32.0740 C   0  0  0  0  0  0  0  0  0  0  0  0
   -6.6810   18.9470  -32.5260 N   0  0  0  0  0  0  0  0  0  0  0  0
   -6.4800   17.7980  -31.6300 C   0  0  0  0  0  0  0  0  0  0  0  0
   -8.1260   19.2590  -32.6910 C   0  0  0  0  0  0  0  0  0  0  0  0
   -8.5670   20.4550  -31.8350 C   0  0  0  0  0  0  0  0  0  0  0  0
   -6.1580   24.5640  -31.3480 C   0  0  0  0  0  0  0  0  0  0  0  0
   -4.9770   25.1550  -30.8940 C   0  0  0  0  0  0  0  0  0  0  0  0
   -1.6660   22.1870  -29.6820 C   0  0  0  0  0  0  0  0  0  0  0  0
   -1.5680   20.8350  -29.3050 C   0  0  0  0  0  0  0  0  0  0  0  0
   -1.4290   19.8150  -30.3150 N   0  0  0  0  0  0  0  0  0  0  0  0
   -1.9240   19.9660  -31.6560 C   0  0  0  0  0  0  0  0  0  0  0  0
   -2.9370   20.6900  -31.8630 O   0  0  0  0  0  0  0  0  0  0  0  0
   -1.2770   19.2640  -32.7950 C   0  0  0  0  0  0  0  0  0  0  0  0
   -1.3720   17.8700  -32.9260 C   0  0  0  0  0  0  0  0  0  0  0  0
   -0.7480   17.2180  -33.9860 C   0  0  0  0  0  0  0  0  0  0  0  0
   -0.0100   17.9400  -34.9220 C   0  0  0  0  0  0  0  0  0  0  0  0
    0.1180   19.3440  -34.8230 C   0  0  0  0  0  0  0  0  0  0  0  0
    0.9470   20.1060  -35.8790 C   0  0  0  0  0  0  0  0  0  0  0  0
    0.3250   21.5000  -36.1110 C   0  0  0  0  0  0  0  0  0  0  0  0
    2.3980   20.2680  -35.3770 C   0  0  0  0  0  0  0  0  0  0  0  0
    1.0030   19.3860  -37.2470 C   0  0  0  0  0  0  0  0  0  0  0  0
   -0.5260   19.9900  -33.7410 C   0  0  0  0  0  0  0  0  0  0  0  0
   -1.4193   19.0398  -26.3745 H   0  0  0  0  0  0  0  0  0  0  0  0
   -2.2770   18.4973  -27.8567 H   0  0  0  0  0  0  0  0  0  0  0  0
   -0.4864   18.6402  -27.8567 H   0  0  0  0  0  0  0  0  0  0  0  0
   -1.5784   21.2710  -25.9023 H   0  0  0  0  0  0  0  0  0  0  0  0
   -1.7594   23.6519  -26.5953 H   0  0  0  0  0  0  0  0  0  0  0  0
   -4.0826   22.8537  -28.5319 H   0  0  0  0  0  0  0  0  0  0  0  0
   -6.1756   21.7855  -29.3555 H   0  0  0  0  0  0  0  0  0  0  0  0
   -8.4649   22.3785  -30.3213 H   0  0  0  0  0  0  0  0  0  0  0  0
   -8.5143   23.5733  -31.7061 H   0  0  0  0  0  0  0  0  0  0  0  0
   -6.3933   21.3742  -33.7359 H   0  0  0  0  0  0  0  0  0  0  0  0
   -5.7792   22.2389  -32.2658 H   0  0  0  0  0  0  0  0  0  0  0  0
   -4.8325   19.9645  -32.4165 H   0  0  0  0  0  0  0  0  0  0  0  0
   -5.9131   20.1465  -30.9759 H   0  0  0  0  0  0  0  0  0  0  0  0
   -6.5388   18.1339  -30.5842 H   0  0  0  0  0  0  0  0  0  0  0  0
   -7.2602   17.0456  -31.8179 H   0  0  0  0  0  0  0  0  0  0  0  0
   -5.4908   17.3552  -31.8179 H   0  0  0  0  0  0  0  0  0  0  0  0
   -8.3189   19.4912  -33.7488 H   0  0  0  0  0  0  0  0  0  0  0  0
   -8.6992   18.3801  -32.3607 H   0  0  0  0  0  0  0  0  0  0  0  0
   -9.6386   20.6400  -32.0007 H   0  0  0  0  0  0  0  0  0  0  0  0
   -8.3752   20.2186  -30.7780 H   0  0  0  0  0  0  0  0  0  0  0  0
   -6.7237   25.0328  -32.1667 H   0  0  0  0  0  0  0  0  0  0  0  0
   -4.6287   26.0957  -31.3454 H   0  0  0  0  0  0  0  0  0  0  0  0
   -1.6826   22.4504  -30.7499 H   0  0  0  0  0  0  0  0  0  0  0  0
   -1.0000   18.9000  -30.0550 H   0  0  0  0  0  0  0  0  0  0  0  0
   -1.9429   17.2890  -32.1867 H   0  0  0  0  0  0  0  0  0  0  0  0
   -0.8380   16.1262  -34.0853 H   0  0  0  0  0  0  0  0  0  0  0  0
    0.4806   17.4088  -35.7509 H   0  0  0  0  0  0  0  0  0  0  0  0
    0.1138   21.9733  -35.1408 H   0  0  0  0  0  0  0  0  0  0  0  0
    1.0292   22.1259  -36.6788 H   0  0  0  0  0  0  0  0  0  0  0  0
   -0.6112   21.3939  -36.6788 H   0  0  0  0  0  0  0  0  0  0  0  0
    2.4075   20.2691  -34.2770 H   0  0  0  0  0  0  0  0  0  0  0  0
    3.0098   19.4326  -35.7481 H   0  0  0  0  0  0  0  0  0  0  0  0
    2.8105   21.2178  -35.7481 H   0  0  0  0  0  0  0  0  0  0  0  0
    1.0874   18.3010  -37.0871 H   0  0  0  0  0  0  0  0  0  0  0  0
    0.0853   19.6029  -37.8133 H   0  0  0  0  0  0  0  0  0  0  0  0
    1.8762   19.7422  -37.8133 H   0  0  0  0  0  0  0  0  0  0  0  0
   -0.4386   21.0815  -33.6362 H   0  0  0  0  0  0  0  0  0  0  0  0
  1  2  1  0
  2  3  2  0
  3  4  1  0
  4  5  2  0
  5  6  1  0
  6  7  2  0
  6  8  1  0
  8  9  1  0
  9 10  2  0
 10 11  1  0
 11 12  2  0
 12 13  1  0
 13 14  1  0
 14 15  1  0
 15 16  1  0
 16 17  1  0
 17 18  1  0
 17 19  1  0
 19 20  1  0
 12 21  1  0
 21 22  2  0
  5 23  1  0
 23 24  2  0
 24 25  1  0
 25 26  1  0
 26 27  2  0
 26 28  1  0
 28 29  2  0
 29 30  1  0
 30 31  2  0
 31 32  1  0
 32 33  1  0
 33 34  1  0
 33 35  1  0
 33 36  1  0
 32 37  2  0
 24  2  1  0
 37 28  1  0
 22  9  1  0
 20 14  1  0
  1 38  1  0
  1 39  1  0
  1 40  1  0
  3 41  1  0
  4 42  1  0
 10 43  1  0
 11 44  1  0
 13 45  1  0
 13 46  1  0
 15 47  1  0
 15 48  1  0
 16 49  1  0
 16 50  1  0
 18 51  1  0
 18 52  1  0
 18 53  1  0
 19 54  1  0
 19 55  1  0
 20 56  1  0
 20 57  1  0
 21 58  1  0
 22 59  1  0
 23 60  1  0
 25 61  1  0
 29 62  1  0
 30 63  1  0
 31 64  1  0
 34 65  1  0
 34 66  1  0
 34 67  1  0
 35 68  1  0
 35 69  1  0
 35 70  1  0
 36 71  1  0
 36 72  1  0
 36 73  1  0
 37 74  1  0
M  CHG  1   8  -1
M  END
>  <UniqueID>  (48) 
46

>  <SMILES>  (48) 
Cc1ccc(C(=O)[N-]c2ccc(CN3CCN(C)CC3)cc2)cc1NC(=O)c1cccc(C(C)(C)C)c1

>  <Energy>  (48) 
104.23505831678236

>  <Genealogy>  (48) 
Cc1ccc(C(=O)[N-]c2ccc(CN3CCN(C)CC3)cc2)cc1NC(=O)c1cccc(C(C)(C)C)c1 (protonated)
Cc1ccc(C(=O)[N-]c2ccc(CN3CCN(C)CC3)cc2)cc1NC(=O)c1cccc(C(C)(C)C)c1 (3D coordinates assigned)
Cc1ccc(C(=O)[N-]c2ccc(CN3CCN(C)CC3)cc2)cc1NC(=O)c1cccc(C(C)(C)C)c1 (nonaromatic ring conformer: 104.23505831678236 kcal/mol)

>  <smiles>  (48) 
Cc1ccc(C(=O)Nc2ccc(CN3CCN(C)CC3)cc2)cc1NC(=O)c1cccc(C(C)(C)C)c1

>  <score_type>  (48) 
oracle

>  <origin>  (48) 
adgpu

>  <m_score__min__energy>  (48) 
-12.27

>  <m_primary>  (48) 
energy

$$$$
