0:0
     RDKit          3D

 41 43  0  0  0  0  0  0  0  0999 V2000
   -3.7600   25.2930  -29.9460 O   0  0  0  0  0  0  0  0  0  0  0  0
   -3.6900   24.1260  -29.4710 C   0  0  0  0  0  0  0  0  0  0  0  0
   -3.2390   23.9360  -28.1210 N   0  0  0  0  0  0  0  0  0  0  0  0
   -2.5240   24.9410  -27.3830 C   0  0  0  0  0  0  0  0  0  0  0  0
   -2.7080   25.0330  -25.9950 C   0  0  0  0  0  0  0  0  0  0  0  0
   -2.0190   25.9960  -25.2520 C   0  0  0  0  0  0  0  0  0  0  0  0
   -1.1310   26.8670  -25.8870 C   0  0  0  0  0  0  0  0  0  0  0  0
   -0.9210   26.7680  -27.2650 C   0  0  0  0  0  0  0  0  0  0  0  0
   -1.6030   25.8030  -28.0150 C   0  0  0  0  0  0  0  0  0  0  0  0
   -1.3370   25.6890  -29.3750 O   0  0  0  0  0  0  0  0  0  0  0  0
   -4.1170   22.9740  -30.3010 C   0  0  0  0  0  0  0  0  0  0  0  0
   -3.5340   21.7070  -30.1070 C   0  0  0  0  0  0  0  0  0  0  0  0
   -3.9330   20.6150  -30.8830 C   0  0  0  0  0  0  0  0  0  0  0  0
   -4.9190   20.7690  -31.8660 C   0  0  0  0  0  0  0  0  0  0  0  0
   -5.4290   19.3860  -32.8420 S   0  0  0  0  0  0  0  0  0  0  0  0
   -4.8100   18.1360  -32.2820 O   0  0  0  0  0  0  0  0  0  0  0  0
   -4.9220   19.5660  -34.2460 O   0  0  0  0  0  0  0  0  0  0  0  0
   -7.1650   19.1890  -32.8860 N   0  0  0  0  0  0  0  0  0  0  0  0
   -7.6300   18.1980  -31.9190 C   0  0  0  0  0  0  0  0  0  0  0  0
   -9.0730   18.5540  -31.5990 C   0  0  0  0  0  0  0  0  0  0  0  0
   -9.2290   20.0110  -32.0100 C   0  0  0  0  0  0  0  0  0  0  0  0
   -7.8670   20.4250  -32.5470 C   0  0  0  0  0  0  0  0  0  0  0  0
   -5.5180   22.0220  -32.0500 C   0  0  0  0  0  0  0  0  0  0  0  0
   -5.1210   23.1150  -31.2760 C   0  0  0  0  0  0  0  0  0  0  0  0
   -3.6020   23.1120  -27.5910 H   0  0  0  0  0  0  0  0  0  0  0  0
   -3.3988   24.3430  -25.4883 H   0  0  0  0  0  0  0  0  0  0  0  0
   -2.1765   26.0678  -24.1657 H   0  0  0  0  0  0  0  0  0  0  0  0
   -0.5970   27.6308  -25.3026 H   0  0  0  0  0  0  0  0  0  0  0  0
   -0.2168   27.4513  -27.7623 H   0  0  0  0  0  0  0  0  0  0  0  0
   -2.7581   21.5755  -29.3384 H   0  0  0  0  0  0  0  0  0  0  0  0
   -3.4706   19.6302  -30.7210 H   0  0  0  0  0  0  0  0  0  0  0  0
   -7.5744   17.1885  -32.3523 H   0  0  0  0  0  0  0  0  0  0  0  0
   -7.0076   18.2035  -31.0120 H   0  0  0  0  0  0  0  0  0  0  0  0
   -9.7629   17.9164  -32.1713 H   0  0  0  0  0  0  0  0  0  0  0  0
   -9.3063   18.4013  -30.5349 H   0  0  0  0  0  0  0  0  0  0  0  0
   -9.9975   20.1109  -32.7907 H   0  0  0  0  0  0  0  0  0  0  0  0
   -9.5469   20.6428  -31.1675 H   0  0  0  0  0  0  0  0  0  0  0  0
   -7.9857   21.0531  -33.4422 H   0  0  0  0  0  0  0  0  0  0  0  0
   -7.3065   21.0115  -31.8041 H   0  0  0  0  0  0  0  0  0  0  0  0
   -6.3053   22.1458  -32.8082 H   0  0  0  0  0  0  0  0  0  0  0  0
   -5.5976   24.0943  -31.4303 H   0  0  0  0  0  0  0  0  0  0  0  0
  1  2  2  0
  2  3  1  0
  3  4  1  0
  4  5  2  0
  5  6  1  0
  6  7  2  0
  7  8  1  0
  8  9  2  0
  9 10  1  0
  2 11  1  0
 11 12  2  0
 12 13  1  0
 13 14  2  0
 14 15  1  0
 15 16  2  0
 15 17  2  0
 15 18  1  0
 18 19  1  0
 19 20  1  0
 20 21  1  0
 21 22  1  0
 14 23  1  0
 23 24  2  0
  9  4  1  0
 24 11  1  0
 22 18  1  0
  3 25  1  0
  5 26  1  0
  6 27  1  0
  7 28  1  0
  8 29  1  0
 12 30  1  0
 13 31  1  0
 19 32  1  0
 19 33  1  0
 20 34  1  0
 20 35  1  0
 21 36  1  0
 21 37  1  0
 22 38  1  0
 22 39  1  0
 23 40  1  0
 24 41  1  0
M  CHG  1  10  -1
M  END
>  <UniqueID>  (1) 
1

>  <SMILES>  (1) 
O=C(Nc1ccccc1[O-])c1ccc(S(=O)(=O)N2CCCC2)cc1

>  <Energy>  (1) 
50.71674499891741

>  <Genealogy>  (1) 
O=C(Nc1ccccc1[O-])c1ccc(S(=O)(=O)N2CCCC2)cc1 (protonated)
O=C(Nc1ccccc1[O-])c1ccc(S(=O)(=O)N2CCCC2)cc1 (3D coordinates assigned)
O=C(Nc1ccccc1[O-])c1ccc(S(=O)(=O)N2CCCC2)cc1 (nonaromatic ring conformer: 50.71674499891741 kcal/mol)

>  <smiles>  (1) 
O=C(Nc1ccccc1O)c1ccc(S(=O)(=O)N2CCCC2)cc1

>  <score_type>  (1) 
oracle

>  <origin>  (1) 
adgpu

>  <m_score__min__energy>  (1) 
-12.01

>  <m_primary>  (1) 
energy

$$$$
1:0
     RDKit          3D

 51 53  0  0  0  0  0  0  0  0999 V2000
   -9.4340   19.2600  -32.7220 C   0  0  0  0  0  0  0  0  0  0  0  0
   -8.3630   19.2720  -31.6330 C   0  0  0  0  0  0  0  0  0  0  0  0
   -7.5480   20.5620  -31.6790 C   0  0  0  0  0  0  0  0  0  0  0  0
   -8.1810   21.7910  -31.3420 C   0  0  0  0  0  0  0  0  0  0  0  0
   -9.6040   21.8610  -30.8410 C   0  0  0  0  0  0  0  0  0  0  0  0
   -7.4560   22.9790  -31.4300 C   0  0  0  0  0  0  0  0  0  0  0  0
   -6.1380   22.9740  -31.8800 C   0  0  0  0  0  0  0  0  0  0  0  0
   -5.3690   24.1860  -31.9680 N   0  0  0  0  0  0  0  0  0  0  0  0
   -5.1730   25.1490  -30.9270 C   0  0  0  0  0  0  0  0  0  0  0  0
   -6.1320   25.8600  -30.5240 O   0  0  0  0  0  0  0  0  0  0  0  0
   -3.8690   25.2920  -30.3530 N   0  0  0  0  0  0  0  0  0  0  0  0
   -3.2130   24.3600  -29.4790 C   0  0  0  0  0  0  0  0  0  0  0  0
   -3.7270   23.0740  -29.2550 C   0  0  0  0  0  0  0  0  0  0  0  0
   -3.0900   22.2080  -28.3690 C   0  0  0  0  0  0  0  0  0  0  0  0
   -1.9330   22.6040  -27.6920 C   0  0  0  0  0  0  0  0  0  0  0  0
   -1.2250   21.4580  -26.5590 Cl  0  0  0  0  0  0  0  0  0  0  0  0
   -1.3970   23.8950  -27.9050 C   0  0  0  0  0  0  0  0  0  0  0  0
    0.0620   24.4320  -27.0450 S   0  0  0  0  0  0  0  0  0  0  0  0
    0.6670   23.2840  -26.2840 O   0  0  0  0  0  0  0  0  0  0  0  0
    1.0940   24.9230  -28.0220 O   0  0  0  0  0  0  0  0  0  0  0  0
   -0.3790   25.7850  -25.9550 C   0  0  0  0  0  0  0  0  0  0  0  0
   -1.8550   25.9010  -25.6080 C   0  0  0  0  0  0  0  0  0  0  0  0
   -0.8740   25.3430  -24.5890 C   0  0  0  0  0  0  0  0  0  0  0  0
   -2.0670   24.7770  -28.7820 C   0  0  0  0  0  0  0  0  0  0  0  0
   -1.6050   26.0750  -28.9690 O   0  0  0  0  0  0  0  0  0  0  0  0
   -5.5300   21.7550  -32.1880 C   0  0  0  0  0  0  0  0  0  0  0  0
   -4.3230   21.7650  -32.5620 O   0  0  0  0  0  0  0  0  0  0  0  0
   -6.2250   20.5680  -32.0970 N   0  0  0  0  0  0  0  0  0  0  0  0
   -5.4970   19.3130  -32.4120 C   0  0  0  0  0  0  0  0  0  0  0  0
   -5.7190   18.8870  -33.8690 C   0  0  0  0  0  0  0  0  0  0  0  0
   -6.2930   17.6300  -33.9180 F   0  0  0  0  0  0  0  0  0  0  0  0
   -6.5460   19.7820  -34.5210 F   0  0  0  0  0  0  0  0  0  0  0  0
   -4.5010   18.8450  -34.5230 F   0  0  0  0  0  0  0  0  0  0  0  0
  -10.4304   19.2488  -32.2562 H   0  0  0  0  0  0  0  0  0  0  0  0
   -9.3315   20.1594  -33.3470 H   0  0  0  0  0  0  0  0  0  0  0  0
   -9.3114   18.3632  -33.3470 H   0  0  0  0  0  0  0  0  0  0  0  0
   -8.8492   19.1889  -30.6498 H   0  0  0  0  0  0  0  0  0  0  0  0
   -7.6839   18.4231  -31.8010 H   0  0  0  0  0  0  0  0  0  0  0  0
   -9.6059   21.8611  -29.7410 H   0  0  0  0  0  0  0  0  0  0  0  0
  -10.0772   22.7835  -31.2085 H   0  0  0  0  0  0  0  0  0  0  0  0
  -10.1654   20.9894  -31.2085 H   0  0  0  0  0  0  0  0  0  0  0  0
   -7.9296   23.9289  -31.1413 H   0  0  0  0  0  0  0  0  0  0  0  0
   -4.6365   22.7482  -29.7810 H   0  0  0  0  0  0  0  0  0  0  0  0
   -3.5018   21.2020  -28.2004 H   0  0  0  0  0  0  0  0  0  0  0  0
    0.3807   26.4862  -26.3308 H   0  0  0  0  0  0  0  0  0  0  0  0
   -2.3072   26.8914  -25.4513 H   0  0  0  0  0  0  0  0  0  0  0  0
   -2.7916   25.5456  -26.0623 H   0  0  0  0  0  0  0  0  0  0  0  0
   -0.6169   25.9296  -23.6947 H   0  0  0  0  0  0  0  0  0  0  0  0
   -0.8075   24.4161  -24.0003 H   0  0  0  0  0  0  0  0  0  0  0  0
   -4.4213   19.4720  -32.2457 H   0  0  0  0  0  0  0  0  0  0  0  0
   -5.8802   18.5170  -31.7566 H   0  0  0  0  0  0  0  0  0  0  0  0
  1  2  1  0
  2  3  1  0
  3  4  2  0
  4  5  1  0
  4  6  1  0
  6  7  2  0
  7  8  1  0
  8  9  1  0
  9 10  2  0
  9 11  1  0
 11 12  1  0
 12 13  2  0
 13 14  1  0
 14 15  2  0
 15 16  1  0
 15 17  1  0
 17 18  1  0
 18 19  2  0
 18 20  2  0
 18 21  1  0
 21 22  1  0
 22 23  1  0
 17 24  2  0
 24 25  1  0
  7 26  1  0
 26 27  2  0
 26 28  1  0
 28 29  1  0
 29 30  1  0
 30 31  1  0
 30 32  1  0
 30 33  1  0
 28  3  1  0
 24 12  1  0
 23 21  1  0
  1 34  1  0
  1 35  1  0
  1 36  1  0
  2 37  1  0
  2 38  1  0
  5 39  1  0
  5 40  1  0
  5 41  1  0
  6 42  1  0
 13 43  1  0
 14 44  1  0
 21 45  1  0
 22 46  1  0
 22 47  1  0
 23 48  1  0
 23 49  1  0
 29 50  1  0
 29 51  1  0
M  CHG  3   8  -1  11  -1  25  -1
M  END
>  <UniqueID>  (2) 
2

>  <SMILES>  (2) 
CCc1c(C)cc([N-]C(=O)[N-]c2ccc(Cl)c(S(=O)(=O)C3CC3)c2[O-])c(=O)n1CC(F)(F)F

>  <Energy>  (2) 
331.00402266497446

>  <Genealogy>  (2) 
CCc1c(C)cc([N-]C(=O)[N-]c2ccc(Cl)c(S(=O)(=O)C3CC3)c2[O-])c(=O)n1CC(F)(F)F (protonated)
CCc1c(C)cc([N-]C(=O)[N-]c2ccc(Cl)c(S(=O)(=O)C3CC3)c2[O-])c(=O)n1CC(F)(F)F (3D coordinates assigned)
CCc1c(C)cc([N-]C(=O)[N-]c2ccc(Cl)c(S(=O)(=O)C3CC3)c2[O-])c(=O)n1CC(F)(F)F (nonaromatic ring conformer: 331.00402266497446 kcal/mol)

>  <smiles>  (2) 
CCc1c(C)cc(NC(=O)Nc2ccc(Cl)c(S(=O)(=O)C3CC3)c2O)c(=O)n1CC(F)(F)F

>  <score_type>  (2) 
oracle

>  <origin>  (2) 
adgpu

>  <m_score__min__energy>  (2) 
-15.960000000000001

>  <m_primary>  (2) 
energy

$$$$
2:0
     RDKit          3D

 46 46  0  0  0  0  0  0  0  0999 V2000
   -9.1040   21.6170  -30.5990 C   0  0  0  0  0  0  0  0  0  0  0  0
   -9.6730   21.1710  -31.9450 C   0  0  0  0  0  0  0  0  0  0  0  0
   -9.1100   19.8180  -32.4120 C   0  0  0  0  0  0  0  0  0  0  0  0
   -7.5840   19.7190  -32.2370 C   0  0  0  0  0  0  0  0  0  0  0  0
   -6.8990   19.9450  -33.5210 N   0  0  0  0  0  0  0  0  0  0  0  0
   -6.0860   18.7860  -33.9330 C   0  0  0  0  0  0  0  0  0  0  0  0
   -4.5730   19.0980  -33.9280 C   0  0  0  0  0  0  0  0  0  0  0  0
   -4.2690   20.3830  -33.2760 N   0  0  0  0  0  0  0  0  0  0  0  0
   -4.2040   20.2630  -31.8140 C   0  0  0  0  0  0  0  0  0  0  0  0
   -3.8730   21.6060  -31.2110 C   0  0  0  0  0  0  0  0  0  0  0  0
   -2.6840   21.7510  -30.4870 C   0  0  0  0  0  0  0  0  0  0  0  0
   -2.3340   22.9810  -29.9440 C   0  0  0  0  0  0  0  0  0  0  0  0
   -3.1580   24.0930  -30.1200 C   0  0  0  0  0  0  0  0  0  0  0  0
   -2.7530   25.2930  -29.5470 O   0  0  0  0  0  0  0  0  0  0  0  0
   -4.3600   23.9840  -30.8640 C   0  0  0  0  0  0  0  0  0  0  0  0
   -5.2190   25.0800  -31.0700 O   0  0  0  0  0  0  0  0  0  0  0  0
   -6.0760   25.6880  -30.1090 C   0  0  0  0  0  0  0  0  0  0  0  0
   -4.7130   22.7230  -31.4230 C   0  0  0  0  0  0  0  0  0  0  0  0
   -5.8730   22.5120  -32.1970 O   0  0  0  0  0  0  0  0  0  0  0  0
   -6.9850   23.3880  -32.3330 C   0  0  0  0  0  0  0  0  0  0  0  0
   -9.6865   21.1604  -29.7852 H   0  0  0  0  0  0  0  0  0  0  0  0
   -8.0538   21.2990  -30.5213 H   0  0  0  0  0  0  0  0  0  0  0  0
   -9.1620   22.7127  -30.5213 H   0  0  0  0  0  0  0  0  0  0  0  0
  -10.7657   21.0840  -31.8530 H   0  0  0  0  0  0  0  0  0  0  0  0
   -9.3848   21.9250  -32.6923 H   0  0  0  0  0  0  0  0  0  0  0  0
   -9.5844   19.0177  -31.8252 H   0  0  0  0  0  0  0  0  0  0  0  0
   -9.3291   19.7189  -33.4854 H   0  0  0  0  0  0  0  0  0  0  0  0
   -7.2533   20.4777  -31.5124 H   0  0  0  0  0  0  0  0  0  0  0  0
   -7.3334   18.7113  -31.8741 H   0  0  0  0  0  0  0  0  0  0  0  0
   -6.3000   20.8010  -33.4610 H   0  0  0  0  0  0  0  0  0  0  0  0
   -7.6220   20.1070  -34.2620 H   0  0  0  0  0  0  0  0  0  0  0  0
   -6.2778   17.9548  -33.2385 H   0  0  0  0  0  0  0  0  0  0  0  0
   -6.3716   18.5242  -34.9625 H   0  0  0  0  0  0  0  0  0  0  0  0
   -4.0481   18.2952  -33.3894 H   0  0  0  0  0  0  0  0  0  0  0  0
   -4.2399   19.1646  -34.9742 H   0  0  0  0  0  0  0  0  0  0  0  0
   -4.9990   21.0880  -33.5340 H   0  0  0  0  0  0  0  0  0  0  0  0
   -5.1762   19.9192  -31.4312 H   0  0  0  0  0  0  0  0  0  0  0  0
   -3.4238   19.5373  -31.5410 H   0  0  0  0  0  0  0  0  0  0  0  0
   -2.0214   20.8842  -30.3468 H   0  0  0  0  0  0  0  0  0  0  0  0
   -1.4002   23.0789  -29.3710 H   0  0  0  0  0  0  0  0  0  0  0  0
   -5.7258   25.4396  -29.0962 H   0  0  0  0  0  0  0  0  0  0  0  0
   -6.0624   26.7796  -30.2442 H   0  0  0  0  0  0  0  0  0  0  0  0
   -7.1018   25.3145  -30.2442 H   0  0  0  0  0  0  0  0  0  0  0  0
   -7.3496   23.6752  -31.3357 H   0  0  0  0  0  0  0  0  0  0  0  0
   -6.6770   24.2887  -32.8842 H   0  0  0  0  0  0  0  0  0  0  0  0
   -7.7885   22.8777  -32.8842 H   0  0  0  0  0  0  0  0  0  0  0  0
  1  2  1  0
  2  3  1  0
  3  4  1  0
  4  5  1  0
  5  6  1  0
  6  7  1  0
  7  8  1  0
  8  9  1  0
  9 10  1  0
 10 11  2  0
 11 12  1  0
 12 13  2  0
 13 14  1  0
 13 15  1  0
 15 16  1  0
 16 17  1  0
 15 18  2  0
 18 19  1  0
 19 20  1  0
 18 10  1  0
  1 21  1  0
  1 22  1  0
  1 23  1  0
  2 24  1  0
  2 25  1  0
  3 26  1  0
  3 27  1  0
  4 28  1  0
  4 29  1  0
  5 30  1  0
  5 31  1  0
  6 32  1  0
  6 33  1  0
  7 34  1  0
  7 35  1  0
  8 36  1  0
  9 37  1  0
  9 38  1  0
 11 39  1  0
 12 40  1  0
 17 41  1  0
 17 42  1  0
 17 43  1  0
 20 44  1  0
 20 45  1  0
 20 46  1  0
M  CHG  2   5   1  14  -1
M  END
>  <UniqueID>  (3) 
3

>  <SMILES>  (3) 
CCCC[NH2+]CCNCc1ccc([O-])c(OC)c1OC

>  <Energy>  (3) 
42.39246479771058

>  <Genealogy>  (3) 
CCCC[NH2+]CCNCc1ccc([O-])c(OC)c1OC (protonated)
CCCC[NH2+]CCNCc1ccc([O-])c(OC)c1OC (3D coordinates assigned)
CCCC[NH2+]CCNCc1ccc([O-])c(OC)c1OC (optimized conformer: 42.39246479771058 kcal/mol)

>  <smiles>  (3) 
CCCCNCCNCc1ccc(O)c(OC)c1OC

>  <score_type>  (3) 
oracle

>  <origin>  (3) 
adgpu

>  <m_score__min__energy>  (3) 
-8.1799999999999997

>  <m_primary>  (3) 
energy

$$$$
3:0
     RDKit          3D

 60 63  0  0  0  0  0  0  0  0999 V2000
   -8.9640   20.3790  -32.8960 N   0  0  0  0  0  0  0  0  0  0  0  0
   -8.0870   21.2550  -32.1770 C   0  0  0  0  0  0  0  0  0  0  0  0
   -8.5300   22.5440  -31.8420 C   0  0  0  0  0  0  0  0  0  0  0  0
   -7.6770   23.4430  -31.2020 C   0  0  0  0  0  0  0  0  0  0  0  0
   -6.3630   23.0710  -30.8910 C   0  0  0  0  0  0  0  0  0  0  0  0
   -5.2900   24.1990  -30.0610 S   0  0  0  0  0  0  0  0  0  0  0  0
   -4.4170   24.8730  -31.0810 O   0  0  0  0  0  0  0  0  0  0  0  0
   -6.1150   25.2620  -29.3890 O   0  0  0  0  0  0  0  0  0  0  0  0
   -4.2800   23.4100  -28.8670 N   0  0  0  0  0  0  0  0  0  0  0  0
   -3.9820   24.2740  -27.7050 C   0  0  0  0  0  0  0  0  0  0  0  0
   -2.5710   24.8840  -27.7570 C   0  0  0  0  0  0  0  0  0  0  0  0
   -2.1570   25.0550  -29.0920 O   0  0  0  0  0  0  0  0  0  0  0  0
   -1.9250   23.7930  -29.6850 C   0  0  0  0  0  0  0  0  0  0  0  0
   -3.0810   22.7880  -29.4600 C   0  0  0  0  0  0  0  0  0  0  0  0
   -5.9110   21.7900  -31.2280 C   0  0  0  0  0  0  0  0  0  0  0  0
   -6.7700   20.8660  -31.8420 C   0  0  0  0  0  0  0  0  0  0  0  0
   -6.2830   19.5450  -32.1130 N   0  0  0  0  0  0  0  0  0  0  0  0
   -6.1740   19.0320  -33.4510 C   0  0  0  0  0  0  0  0  0  0  0  0
   -6.6620   19.6900  -34.4110 O   0  0  0  0  0  0  0  0  0  0  0  0
   -5.5180   17.7300  -33.7190 C   0  0  0  0  0  0  0  0  0  0  0  0
   -6.2940   16.5720  -33.9000 C   0  0  0  0  0  0  0  0  0  0  0  0
   -5.6830   15.3410  -34.1530 C   0  0  0  0  0  0  0  0  0  0  0  0
   -4.2870   15.2450  -34.2230 C   0  0  0  0  0  0  0  0  0  0  0  0
   -3.5180   13.6950  -34.5570 S   0  0  0  0  0  0  0  0  0  0  0  0
   -2.0390   13.9110  -34.7160 O   0  0  0  0  0  0  0  0  0  0  0  0
   -4.0420   13.1650  -35.8630 O   0  0  0  0  0  0  0  0  0  0  0  0
   -3.7920   12.5020  -33.3050 N   0  0  0  0  0  0  0  0  0  0  0  0
   -2.5740   12.1530  -32.5470 C   0  0  0  0  0  0  0  0  0  0  0  0
   -2.3870   13.0240  -31.2970 C   0  0  0  0  0  0  0  0  0  0  0  0
   -3.5500   13.0130  -30.4990 O   0  0  0  0  0  0  0  0  0  0  0  0
   -4.6030   13.6200  -31.2130 C   0  0  0  0  0  0  0  0  0  0  0  0
   -4.9640   12.7960  -32.4570 C   0  0  0  0  0  0  0  0  0  0  0  0
   -3.5090   16.4010  -34.0730 C   0  0  0  0  0  0  0  0  0  0  0  0
   -4.1170   17.6330  -33.8190 C   0  0  0  0  0  0  0  0  0  0  0  0
   -9.8470   20.0190  -32.4740 H   0  0  0  0  0  0  0  0  0  0  0  0
   -8.6980   20.0200  -33.8400 H   0  0  0  0  0  0  0  0  0  0  0  0
   -9.5586   22.8478  -32.0863 H   0  0  0  0  0  0  0  0  0  0  0  0
   -8.0379   24.4486  -30.9403 H   0  0  0  0  0  0  0  0  0  0  0  0
   -4.7170   25.0920  -27.6786 H   0  0  0  0  0  0  0  0  0  0  0  0
   -4.0359   23.6449  -26.8043 H   0  0  0  0  0  0  0  0  0  0  0  0
   -2.5804   25.8616  -27.2528 H   0  0  0  0  0  0  0  0  0  0  0  0
   -1.8701   24.2035  -27.2514 H   0  0  0  0  0  0  0  0  0  0  0  0
   -1.7920   23.9353  -30.7676 H   0  0  0  0  0  0  0  0  0  0  0  0
   -1.0283   23.3696  -29.2089 H   0  0  0  0  0  0  0  0  0  0  0  0
   -3.3574   22.3492  -30.4301 H   0  0  0  0  0  0  0  0  0  0  0  0
   -2.7214   22.0270  -28.7518 H   0  0  0  0  0  0  0  0  0  0  0  0
   -4.8714   21.5046  -31.0092 H   0  0  0  0  0  0  0  0  0  0  0  0
   -6.2570   18.8680  -31.3180 H   0  0  0  0  0  0  0  0  0  0  0  0
   -7.3906   16.6353  -33.8420 H   0  0  0  0  0  0  0  0  0  0  0  0
   -6.3012   14.4428  -34.2979 H   0  0  0  0  0  0  0  0  0  0  0  0
   -2.6423   11.1001  -32.2358 H   0  0  0  0  0  0  0  0  0  0  0  0
   -1.7104   12.3260  -33.2060 H   0  0  0  0  0  0  0  0  0  0  0  0
   -1.5428   12.6343  -30.7092 H   0  0  0  0  0  0  0  0  0  0  0  0
   -2.1879   14.0581  -31.6150 H   0  0  0  0  0  0  0  0  0  0  0  0
   -5.4856   13.6938  -30.5607 H   0  0  0  0  0  0  0  0  0  0  0  0
   -4.2799   14.6211  -31.5346 H   0  0  0  0  0  0  0  0  0  0  0  0
   -5.4106   11.8448  -32.1317 H   0  0  0  0  0  0  0  0  0  0  0  0
   -5.6677   13.3913  -33.0573 H   0  0  0  0  0  0  0  0  0  0  0  0
   -2.4139   16.3380  -34.1557 H   0  0  0  0  0  0  0  0  0  0  0  0
   -3.4969   18.5332  -33.6963 H   0  0  0  0  0  0  0  0  0  0  0  0
  1  2  1  0
  2  3  2  0
  3  4  1  0
  4  5  2  0
  5  6  1  0
  6  7  2  0
  6  8  2  0
  6  9  1  0
  9 10  1  0
 10 11  1  0
 11 12  1  0
 12 13  1  0
 13 14  1  0
  5 15  1  0
 15 16  2  0
 16 17  1  0
 17 18  1  0
 18 19  2  0
 18 20  1  0
 20 21  2  0
 21 22  1  0
 22 23  2  0
 23 24  1  0
 24 25  2  0
 24 26  2  0
 24 27  1  0
 27 28  1  0
 28 29  1  0
 29 30  1  0
 30 31  1  0
 31 32  1  0
 23 33  1  0
 33 34  2  0
 16  2  1  0
 34 20  1  0
 14  9  1  0
 32 27  1  0
  1 35  1  0
  1 36  1  0
  3 37  1  0
  4 38  1  0
 10 39  1  0
 10 40  1  0
 11 41  1  0
 11 42  1  0
 13 43  1  0
 13 44  1  0
 14 45  1  0
 14 46  1  0
 15 47  1  0
 17 48  1  0
 21 49  1  0
 22 50  1  0
 28 51  1  0
 28 52  1  0
 29 53  1  0
 29 54  1  0
 31 55  1  0
 31 56  1  0
 32 57  1  0
 32 58  1  0
 33 59  1  0
 34 60  1  0
M  END
>  <UniqueID>  (4) 
4

>  <SMILES>  (4) 
Nc1ccc(S(=O)(=O)N2CCOCC2)cc1NC(=O)c1ccc(S(=O)(=O)N2CCOCC2)cc1

>  <Energy>  (4) 
85.58371949504168

>  <Genealogy>  (4) 
Nc1ccc(S(=O)(=O)N2CCOCC2)cc1NC(=O)c1ccc(S(=O)(=O)N2CCOCC2)cc1 (3D coordinates assigned)
Nc1ccc(S(=O)(=O)N2CCOCC2)cc1NC(=O)c1ccc(S(=O)(=O)N2CCOCC2)cc1 (nonaromatic ring conformer: 85.58371949504168 kcal/mol)

>  <smiles>  (4) 
Nc1ccc(S(=O)(=O)N2CCOCC2)cc1NC(=O)c1ccc(S(=O)(=O)N2CCOCC2)cc1

>  <score_type>  (4) 
oracle

>  <origin>  (4) 
adgpu

>  <m_score__min__energy>  (4) 
-9.9600000000000009

>  <m_primary>  (4) 
energy

$$$$
4:0
     RDKit          3D

 46 47  0  0  0  0  0  0  0  0999 V2000
   -7.6420   17.7980  -31.7520 C   0  0  0  0  0  0  0  0  0  0  0  0
   -8.9930   18.4790  -31.5540 C   0  0  0  0  0  0  0  0  0  0  0  0
   -9.3160   19.4190  -32.7170 C   0  0  0  0  0  0  0  0  0  0  0  0
   -8.9890   21.1590  -32.2600 S   0  0  0  0  0  0  0  0  0  0  0  0
   -7.1960   21.0030  -32.3090 C   0  0  0  0  0  0  0  0  0  0  0  0
   -6.6510   20.0910  -33.1560 N   0  0  0  0  0  0  0  0  0  0  0  0
   -5.3100   19.8880  -33.2640 C   0  0  0  0  0  0  0  0  0  0  0  0
   -4.8140   18.8880  -34.1860 N   0  0  0  0  0  0  0  0  0  0  0  0
   -5.7230   18.1390  -35.0610 C   0  0  0  0  0  0  0  0  0  0  0  0
   -3.3720   18.6190  -34.2330 C   0  0  0  0  0  0  0  0  0  0  0  0
   -4.4440   20.6610  -32.4700 C   0  0  0  0  0  0  0  0  0  0  0  0
   -4.9620   21.6270  -31.5950 C   0  0  0  0  0  0  0  0  0  0  0  0
   -4.0190   22.4330  -30.7810 C   0  0  0  0  0  0  0  0  0  0  0  0
   -4.2530   23.8040  -30.5840 C   0  0  0  0  0  0  0  0  0  0  0  0
   -3.3750   24.5660  -29.8070 C   0  0  0  0  0  0  0  0  0  0  0  0
   -2.2610   23.9640  -29.2070 C   0  0  0  0  0  0  0  0  0  0  0  0
   -1.1480   24.9280  -28.2420 S   0  0  0  0  0  0  0  0  0  0  0  0
   -1.5360   24.7280  -26.5190 C   0  0  0  0  0  0  0  0  0  0  0  0
    0.2640   24.4790  -28.4970 O   0  0  0  0  0  0  0  0  0  0  0  0
   -1.2680   26.3770  -28.6200 O   0  0  0  0  0  0  0  0  0  0  0  0
   -2.0270   22.5960  -29.3980 C   0  0  0  0  0  0  0  0  0  0  0  0
   -2.9030   21.8340  -30.1750 C   0  0  0  0  0  0  0  0  0  0  0  0
   -6.3610   21.8010  -31.5080 C   0  0  0  0  0  0  0  0  0  0  0  0
   -6.9390   22.7450  -30.5770 C   0  0  0  0  0  0  0  0  0  0  0  0
   -7.4010   23.5010  -29.8320 N   0  0  0  0  0  0  0  0  0  0  0  0
   -7.1972   17.5738  -30.7713 H   0  0  0  0  0  0  0  0  0  0  0  0
   -7.7817   16.8626  -32.3137 H   0  0  0  0  0  0  0  0  0  0  0  0
   -6.9732   18.4667  -32.3137 H   0  0  0  0  0  0  0  0  0  0  0  0
   -9.7761   17.7094  -31.4869 H   0  0  0  0  0  0  0  0  0  0  0  0
   -8.9510   19.0723  -30.6287 H   0  0  0  0  0  0  0  0  0  0  0  0
   -8.6912   19.1502  -33.5815 H   0  0  0  0  0  0  0  0  0  0  0  0
  -10.3823   19.3157  -32.9666 H   0  0  0  0  0  0  0  0  0  0  0  0
   -6.4275   17.5585  -34.4472 H   0  0  0  0  0  0  0  0  0  0  0  0
   -6.2826   18.8416  -35.6959 H   0  0  0  0  0  0  0  0  0  0  0  0
   -5.1404   17.4553  -35.6959 H   0  0  0  0  0  0  0  0  0  0  0  0
   -2.9791   18.5457  -33.2082 H   0  0  0  0  0  0  0  0  0  0  0  0
   -3.1928   17.6719  -34.7630 H   0  0  0  0  0  0  0  0  0  0  0  0
   -2.8634   19.4378  -34.7630 H   0  0  0  0  0  0  0  0  0  0  0  0
   -3.3567   20.5075  -32.5355 H   0  0  0  0  0  0  0  0  0  0  0  0
   -5.1315   24.2806  -31.0434 H   0  0  0  0  0  0  0  0  0  0  0  0
   -3.5594   25.6413  -29.6664 H   0  0  0  0  0  0  0  0  0  0  0  0
   -0.7224   25.1474  -25.9089 H   0  0  0  0  0  0  0  0  0  0  0  0
   -2.4743   25.2548  -26.2909 H   0  0  0  0  0  0  0  0  0  0  0  0
   -1.6513   23.6581  -26.2909 H   0  0  0  0  0  0  0  0  0  0  0  0
   -1.1503   22.1201  -28.9345 H   0  0  0  0  0  0  0  0  0  0  0  0
   -2.7174   20.7586  -30.3128 H   0  0  0  0  0  0  0  0  0  0  0  0
  1  2  1  0
  2  3  1  0
  3  4  1  0
  4  5  1  0
  5  6  2  0
  6  7  1  0
  7  8  1  0
  8  9  1  0
  8 10  1  0
  7 11  2  0
 11 12  1  0
 12 13  1  0
 13 14  2  0
 14 15  1  0
 15 16  2  0
 16 17  1  0
 17 18  1  0
 17 19  2  0
 17 20  2  0
 16 21  1  0
 21 22  2  0
 12 23  2  0
 23 24  1  0
 24 25  3  0
 23  5  1  0
 22 13  1  0
  1 26  1  0
  1 27  1  0
  1 28  1  0
  2 29  1  0
  2 30  1  0
  3 31  1  0
  3 32  1  0
  9 33  1  0
  9 34  1  0
  9 35  1  0
 10 36  1  0
 10 37  1  0
 10 38  1  0
 11 39  1  0
 14 40  1  0
 15 41  1  0
 18 42  1  0
 18 43  1  0
 18 44  1  0
 21 45  1  0
 22 46  1  0
M  END
>  <UniqueID>  (5) 
5

>  <SMILES>  (5) 
CCCSc1nc(N(C)C)cc(-c2ccc(S(C)(=O)=O)cc2)c1C#N

>  <Energy>  (5) 
41.60958410277297

>  <Genealogy>  (5) 
CCCSc1nc(N(C)C)cc(-c2ccc(S(C)(=O)=O)cc2)c1C#N (3D coordinates assigned)
CCCSc1nc(N(C)C)cc(-c2ccc(S(C)(=O)=O)cc2)c1C#N (optimized conformer: 41.60958410277297 kcal/mol)

>  <smiles>  (5) 
CCCSc1nc(N(C)C)cc(-c2ccc(S(C)(=O)=O)cc2)c1C#N

>  <score_type>  (5) 
oracle

>  <origin>  (5) 
adgpu

>  <m_score__min__energy>  (5) 
-8.8100000000000005

>  <m_primary>  (5) 
energy

$$$$
5:0
     RDKit          3D

 61 64  0  0  0  0  0  0  0  0999 V2000
   -9.7380   20.3130  -32.3940 C   0  0  0  0  0  0  0  0  0  0  0  0
   -8.4210   21.0020  -32.1470 C   0  0  0  0  0  0  0  0  0  0  0  0
   -8.4150   22.3990  -32.0100 C   0  0  0  0  0  0  0  0  0  0  0  0
   -7.2240   23.0880  -31.7950 C   0  0  0  0  0  0  0  0  0  0  0  0
   -6.0120   22.3990  -31.7220 C   0  0  0  0  0  0  0  0  0  0  0  0
   -4.8000   23.1420  -31.5390 N   0  0  0  0  0  0  0  0  0  0  0  0
   -4.7480   24.3690  -30.7920 C   0  0  0  0  0  0  0  0  0  0  0  0
   -5.8110   24.9740  -30.4870 O   0  0  0  0  0  0  0  0  0  0  0  0
   -3.4940   24.9440  -30.4090 N   0  0  0  0  0  0  0  0  0  0  0  0
   -2.7170   24.5680  -29.2630 C   0  0  0  0  0  0  0  0  0  0  0  0
   -3.1260   23.5260  -28.4100 C   0  0  0  0  0  0  0  0  0  0  0  0
   -2.3590   23.1940  -27.2890 C   0  0  0  0  0  0  0  0  0  0  0  0
   -1.1820   23.8990  -27.0020 C   0  0  0  0  0  0  0  0  0  0  0  0
   -0.2110   23.4750  -25.5870 S   0  0  0  0  0  0  0  0  0  0  0  0
   -0.7950   22.2500  -24.9430 O   0  0  0  0  0  0  0  0  0  0  0  0
    1.1850   23.1470  -26.0350 O   0  0  0  0  0  0  0  0  0  0  0  0
   -0.1400   24.7600  -24.4050 N   0  0  0  0  0  0  0  0  0  0  0  0
   -1.2050   25.7420  -24.5960 C   0  0  0  0  0  0  0  0  0  0  0  0
   -0.7010   27.0450  -23.9930 C   0  0  0  0  0  0  0  0  0  0  0  0
    0.8130   26.8990  -23.9290 C   0  0  0  0  0  0  0  0  0  0  0  0
    1.1100   25.5150  -24.4880 C   0  0  0  0  0  0  0  0  0  0  0  0
   -0.7970   24.9620  -27.8310 C   0  0  0  0  0  0  0  0  0  0  0  0
   -1.5640   25.2960  -28.9520 C   0  0  0  0  0  0  0  0  0  0  0  0
   -6.0030   20.9950  -31.7950 C   0  0  0  0  0  0  0  0  0  0  0  0
   -4.7970   20.3190  -31.6420 O   0  0  0  0  0  0  0  0  0  0  0  0
   -7.2060   20.2800  -32.0050 C   0  0  0  0  0  0  0  0  0  0  0  0
   -7.1800   18.5050  -32.1420 S   0  0  0  0  0  0  0  0  0  0  0  0
   -6.1570   17.9070  -31.2170 O   0  0  0  0  0  0  0  0  0  0  0  0
   -8.5260   17.9710  -31.7340 O   0  0  0  0  0  0  0  0  0  0  0  0
   -6.8500   18.0370  -33.7980 N   0  0  0  0  0  0  0  0  0  0  0  0
   -5.8100   18.8810  -34.4120 C   0  0  0  0  0  0  0  0  0  0  0  0
   -4.3890   18.5330  -33.9030 C   0  0  0  0  0  0  0  0  0  0  0  0
   -4.3100   17.2690  -33.2670 O   0  0  0  0  0  0  0  0  0  0  0  0
   -5.0350   16.3100  -34.0040 C   0  0  0  0  0  0  0  0  0  0  0  0
   -6.5460   16.5950  -33.9160 C   0  0  0  0  0  0  0  0  0  0  0  0
  -10.2091   20.0665  -31.4310 H   0  0  0  0  0  0  0  0  0  0  0  0
  -10.3995   20.9806  -32.9656 H   0  0  0  0  0  0  0  0  0  0  0  0
   -9.5668   19.3889  -32.9656 H   0  0  0  0  0  0  0  0  0  0  0  0
   -9.3616   22.9557  -32.0732 H   0  0  0  0  0  0  0  0  0  0  0  0
   -7.2383   24.1821  -31.6820 H   0  0  0  0  0  0  0  0  0  0  0  0
   -3.9050   22.6820  -31.8200 H   0  0  0  0  0  0  0  0  0  0  0  0
   -4.0512   22.9715  -28.6257 H   0  0  0  0  0  0  0  0  0  0  0  0
   -2.6810   22.3752  -26.6288 H   0  0  0  0  0  0  0  0  0  0  0  0
   -1.4128   25.8742  -25.6681 H   0  0  0  0  0  0  0  0  0  0  0  0
   -2.1393   25.4155  -24.1159 H   0  0  0  0  0  0  0  0  0  0  0  0
   -0.9793   27.8974  -24.6301 H   0  0  0  0  0  0  0  0  0  0  0  0
   -1.1371   27.2334  -23.0009 H   0  0  0  0  0  0  0  0  0  0  0  0
    1.3004   27.6733  -24.5396 H   0  0  0  0  0  0  0  0  0  0  0  0
    1.1920   27.0155  -22.9030 H   0  0  0  0  0  0  0  0  0  0  0  0
    1.4405   25.5901  -25.5345 H   0  0  0  0  0  0  0  0  0  0  0  0
    1.9134   25.0202  -23.9226 H   0  0  0  0  0  0  0  0  0  0  0  0
    0.1123   25.5359  -27.5989 H   0  0  0  0  0  0  0  0  0  0  0  0
   -1.2585   26.1363  -29.5928 H   0  0  0  0  0  0  0  0  0  0  0  0
   -5.8389   18.7396  -35.5025 H   0  0  0  0  0  0  0  0  0  0  0  0
   -6.0188   19.9248  -34.1347 H   0  0  0  0  0  0  0  0  0  0  0  0
   -3.7016   18.5342  -34.7618 H   0  0  0  0  0  0  0  0  0  0  0  0
   -4.1199   19.2904  -33.1520 H   0  0  0  0  0  0  0  0  0  0  0  0
   -4.7197   16.3481  -35.0572 H   0  0  0  0  0  0  0  0  0  0  0  0
   -4.8351   15.3126  -33.5854 H   0  0  0  0  0  0  0  0  0  0  0  0
   -7.0306   16.2066  -34.8239 H   0  0  0  0  0  0  0  0  0  0  0  0
   -6.9244   16.1009  -33.0090 H   0  0  0  0  0  0  0  0  0  0  0  0
  1  2  1  0
  2  3  2  0
  3  4  1  0
  4  5  2  0
  5  6  1  0
  6  7  1  0
  7  8  2  0
  7  9  1  0
  9 10  1  0
 10 11  2  0
 11 12  1  0
 12 13  2  0
 13 14  1  0
 14 15  2  0
 14 16  2  0
 14 17  1  0
 17 18  1  0
 18 19  1  0
 19 20  1  0
 20 21  1  0
 13 22  1  0
 22 23  2  0
  5 24  1  0
 24 25  1  0
 24 26  2  0
 26 27  1  0
 27 28  2  0
 27 29  2  0
 27 30  1  0
 30 31  1  0
 31 32  1  0
 32 33  1  0
 33 34  1  0
 34 35  1  0
 26  2  1  0
 35 30  1  0
 23 10  1  0
 21 17  1  0
  1 36  1  0
  1 37  1  0
  1 38  1  0
  3 39  1  0
  4 40  1  0
  6 41  1  0
 11 42  1  0
 12 43  1  0
 18 44  1  0
 18 45  1  0
 19 46  1  0
 19 47  1  0
 20 48  1  0
 20 49  1  0
 21 50  1  0
 21 51  1  0
 22 52  1  0
 23 53  1  0
 31 54  1  0
 31 55  1  0
 32 56  1  0
 32 57  1  0
 34 58  1  0
 34 59  1  0
 35 60  1  0
 35 61  1  0
M  CHG  2   9  -1  25  -1
M  END
>  <UniqueID>  (6) 
6

>  <SMILES>  (6) 
Cc1ccc(NC(=O)[N-]c2ccc(S(=O)(=O)N3CCCC3)cc2)c([O-])c1S(=O)(=O)N1CCOCC1

>  <Energy>  (6) 
87.76659151575345

>  <Genealogy>  (6) 
Cc1ccc(NC(=O)[N-]c2ccc(S(=O)(=O)N3CCCC3)cc2)c([O-])c1S(=O)(=O)N1CCOCC1 (protonated)
Cc1ccc(NC(=O)[N-]c2ccc(S(=O)(=O)N3CCCC3)cc2)c([O-])c1S(=O)(=O)N1CCOCC1 (3D coordinates assigned)
Cc1ccc(NC(=O)[N-]c2ccc(S(=O)(=O)N3CCCC3)cc2)c([O-])c1S(=O)(=O)N1CCOCC1 (nonaromatic ring conformer: 87.76659151575345 kcal/mol)

>  <smiles>  (6) 
Cc1ccc(NC(=O)Nc2ccc(S(=O)(=O)N3CCCC3)cc2)c(O)c1S(=O)(=O)N1CCOCC1

>  <score_type>  (6) 
oracle

>  <origin>  (6) 
adgpu

>  <m_score__min__energy>  (6) 
-14.02

>  <m_primary>  (6) 
energy

$$$$
6:0
     RDKit          3D

 41 43  0  0  0  0  0  0  0  0999 V2000
   -9.6350   20.2070  -32.3280 C   0  0  0  0  0  0  0  0  0  0  0  0
   -8.3820   21.0050  -32.0780 C   0  0  0  0  0  0  0  0  0  0  0  0
   -8.4850   22.4040  -32.0410 C   0  0  0  0  0  0  0  0  0  0  0  0
   -7.3620   23.1990  -31.8250 C   0  0  0  0  0  0  0  0  0  0  0  0
   -6.1060   22.6100  -31.6300 C   0  0  0  0  0  0  0  0  0  0  0  0
   -4.9250   23.4060  -31.4480 N   0  0  0  0  0  0  0  0  0  0  0  0
   -4.8810   24.7410  -30.9330 C   0  0  0  0  0  0  0  0  0  0  0  0
   -5.8930   25.4810  -31.0640 O   0  0  0  0  0  0  0  0  0  0  0  0
   -3.6700   25.2670  -30.3760 N   0  0  0  0  0  0  0  0  0  0  0  0
   -2.8990   24.6570  -29.3330 C   0  0  0  0  0  0  0  0  0  0  0  0
   -3.3890   23.4880  -28.7340 C   0  0  0  0  0  0  0  0  0  0  0  0
   -2.6750   22.8650  -27.7060 C   0  0  0  0  0  0  0  0  0  0  0  0
   -1.4730   23.4160  -27.2560 C   0  0  0  0  0  0  0  0  0  0  0  0
   -0.9910   24.5980  -27.8230 C   0  0  0  0  0  0  0  0  0  0  0  0
   -1.7040   25.2310  -28.8480 C   0  0  0  0  0  0  0  0  0  0  0  0
   -1.2380   26.4410  -29.3470 O   0  0  0  0  0  0  0  0  0  0  0  0
   -5.9830   21.2150  -31.6800 C   0  0  0  0  0  0  0  0  0  0  0  0
   -4.7200   20.6470  -31.5400 O   0  0  0  0  0  0  0  0  0  0  0  0
   -7.1160   20.3940  -31.8690 C   0  0  0  0  0  0  0  0  0  0  0  0
   -6.8920   18.6290  -31.8980 S   0  0  0  0  0  0  0  0  0  0  0  0
   -8.2020   17.8940  -31.9080 O   0  0  0  0  0  0  0  0  0  0  0  0
   -6.1480   18.1960  -30.6650 O   0  0  0  0  0  0  0  0  0  0  0  0
   -5.9830   18.1970  -33.3090 N   0  0  0  0  0  0  0  0  0  0  0  0
   -4.7990   18.8970  -33.7780 C   0  0  0  0  0  0  0  0  0  0  0  0
   -4.2590   18.0460  -34.9530 C   0  0  0  0  0  0  0  0  0  0  0  0
   -5.0890   16.8470  -35.0140 N   0  0  0  0  0  0  0  0  0  0  0  0
   -6.0880   16.9900  -34.0300 C   0  0  0  0  0  0  0  0  0  0  0  0
   -6.9720   16.1190  -33.8150 O   0  0  0  0  0  0  0  0  0  0  0  0
  -10.0852   19.9203  -31.3661 H   0  0  0  0  0  0  0  0  0  0  0  0
  -10.3499   20.8165  -32.9002 H   0  0  0  0  0  0  0  0  0  0  0  0
   -9.3849   19.3014  -32.9002 H   0  0  0  0  0  0  0  0  0  0  0  0
   -9.4665   22.8795  -32.1846 H   0  0  0  0  0  0  0  0  0  0  0  0
   -7.4617   24.2943  -31.8074 H   0  0  0  0  0  0  0  0  0  0  0  0
   -4.3421   23.0578  -29.0753 H   0  0  0  0  0  0  0  0  0  0  0  0
   -3.0601   21.9404  -27.2513 H   0  0  0  0  0  0  0  0  0  0  0  0
   -0.9060   22.9191  -26.4551 H   0  0  0  0  0  0  0  0  0  0  0  0
   -0.0472   25.0333  -27.4626 H   0  0  0  0  0  0  0  0  0  0  0  0
   -5.0608   19.9081  -34.1232 H   0  0  0  0  0  0  0  0  0  0  0  0
   -4.0507   19.0163  -32.9806 H   0  0  0  0  0  0  0  0  0  0  0  0
   -4.3345   18.6084  -35.8953 H   0  0  0  0  0  0  0  0  0  0  0  0
   -3.2000   17.7888  -34.8033 H   0  0  0  0  0  0  0  0  0  0  0  0
  1  2  1  0
  2  3  2  0
  3  4  1  0
  4  5  2  0
  5  6  1  0
  6  7  1  0
  7  8  2  0
  7  9  1  0
  9 10  1  0
 10 11  2  0
 11 12  1  0
 12 13  2  0
 13 14  1  0
 14 15  2  0
 15 16  1  0
  5 17  1  0
 17 18  1  0
 17 19  2  0
 19 20  1  0
 20 21  2  0
 20 22  2  0
 20 23  1  0
 23 24  1  0
 24 25  1  0
 25 26  1  0
 26 27  1  0
 27 28  2  0
 19  2  1  0
 27 23  1  0
 15 10  1  0
  1 29  1  0
  1 30  1  0
  1 31  1  0
  3 32  1  0
  4 33  1  0
 11 34  1  0
 12 35  1  0
 13 36  1  0
 14 37  1  0
 24 38  1  0
 24 39  1  0
 25 40  1  0
 25 41  1  0
M  CHG  5   6  -1   9  -1  16  -1  18  -1  26  -1
M  END
>  <UniqueID>  (7) 
7

>  <SMILES>  (7) 
Cc1ccc([N-]C(=O)[N-]c2ccccc2[O-])c([O-])c1S(=O)(=O)N1CC[N-]C1=O

>  <Energy>  (7) 
71.06944552405407

>  <Genealogy>  (7) 
Cc1ccc([N-]C(=O)[N-]c2ccccc2[O-])c([O-])c1S(=O)(=O)N1CC[N-]C1=O (protonated)
Cc1ccc([N-]C(=O)[N-]c2ccccc2[O-])c([O-])c1S(=O)(=O)N1CC[N-]C1=O (3D coordinates assigned)
Cc1ccc([N-]C(=O)[N-]c2ccccc2[O-])c([O-])c1S(=O)(=O)N1CC[N-]C1=O (nonaromatic ring conformer: 71.06944552405407 kcal/mol)

>  <smiles>  (7) 
Cc1ccc(NC(=O)Nc2ccccc2O)c(O)c1S(=O)(=O)N1CCNC1=O

>  <score_type>  (7) 
oracle

>  <origin>  (7) 
adgpu

>  <m_score__min__energy>  (7) 
-14.68

>  <m_primary>  (7) 
energy

$$$$
7:0
     RDKit          3D

 59 62  0  0  0  0  0  0  0  0999 V2000
   -0.2500   20.7620  -34.7420 C   0  0  0  0  0  0  0  0  0  0  0  0
    0.2650   20.2700  -33.4140 C   0  0  0  0  0  0  0  0  0  0  0  0
    1.5820   19.7930  -33.3500 C   0  0  0  0  0  0  0  0  0  0  0  0
    2.1030   19.3070  -32.1570 C   0  0  0  0  0  0  0  0  0  0  0  0
    1.3210   19.2800  -31.0090 C   0  0  0  0  0  0  0  0  0  0  0  0
   -0.0100   19.7430  -31.0380 C   0  0  0  0  0  0  0  0  0  0  0  0
   -0.8170   19.7120  -29.8520 N   0  0  0  0  0  0  0  0  0  0  0  0
   -0.4970   20.5480  -28.3620 S   0  0  0  0  0  0  0  0  0  0  0  0
   -1.3880   19.9900  -27.2910 O   0  0  0  0  0  0  0  0  0  0  0  0
    0.9350   20.3010  -27.9860 O   0  0  0  0  0  0  0  0  0  0  0  0
   -0.7480   22.2960  -28.5380 C   0  0  0  0  0  0  0  0  0  0  0  0
   -1.8090   22.7470  -29.3390 C   0  0  0  0  0  0  0  0  0  0  0  0
   -2.0610   24.1090  -29.5170 C   0  0  0  0  0  0  0  0  0  0  0  0
   -3.1650   24.5150  -30.3390 N   0  0  0  0  0  0  0  0  0  0  0  0
   -4.4020   23.7960  -30.3940 C   0  0  0  0  0  0  0  0  0  0  0  0
   -4.5710   22.7660  -29.6900 O   0  0  0  0  0  0  0  0  0  0  0  0
   -5.4600   24.2870  -31.2250 N   0  0  0  0  0  0  0  0  0  0  0  0
   -6.3920   23.4680  -32.0010 C   0  0  0  0  0  0  0  0  0  0  0  0
   -5.8040   22.0680  -32.2680 C   0  0  0  0  0  0  0  0  0  0  0  0
   -6.8400   21.1660  -32.9450 C   0  0  0  0  0  0  0  0  0  0  0  0
   -8.1660   21.0640  -32.1600 C   0  0  0  0  0  0  0  0  0  0  0  0
   -8.2570   22.0260  -30.9670 C   0  0  0  0  0  0  0  0  0  0  0  0
   -7.8000   23.4380  -31.3460 C   0  0  0  0  0  0  0  0  0  0  0  0
   -1.2600   25.0510  -28.8570 C   0  0  0  0  0  0  0  0  0  0  0  0
   -1.5430   26.4080  -28.9670 O   0  0  0  0  0  0  0  0  0  0  0  0
   -0.1830   24.6290  -28.0690 C   0  0  0  0  0  0  0  0  0  0  0  0
    0.5990   25.5570  -27.4520 N   0  0  0  0  0  0  0  0  0  0  0  0
    1.6610   25.2090  -26.6830 C   0  0  0  0  0  0  0  0  0  0  0  0
    1.9850   23.8660  -26.5100 C   0  0  0  0  0  0  0  0  0  0  0  0
    1.2050   22.8850  -27.1230 C   0  0  0  0  0  0  0  0  0  0  0  0
    0.0930   23.2480  -27.9100 C   0  0  0  0  0  0  0  0  0  0  0  0
   -0.5570   20.2260  -32.2540 C   0  0  0  0  0  0  0  0  0  0  0  0
   -2.2490   20.7920  -32.3320 S   0  0  0  0  0  0  0  0  0  0  0  0
   -2.9360   20.3450  -33.8530 N   0  0  0  0  0  0  0  0  0  0  0  0
   -2.3500   22.2820  -32.1810 O   0  0  0  0  0  0  0  0  0  0  0  0
   -3.0430   20.1630  -31.2230 O   0  0  0  0  0  0  0  0  0  0  0  0
   -1.0362   21.5130  -34.5750 H   0  0  0  0  0  0  0  0  0  0  0  0
    0.5755   21.2155  -35.3102 H   0  0  0  0  0  0  0  0  0  0  0  0
   -0.6653   19.9166  -35.3102 H   0  0  0  0  0  0  0  0  0  0  0  0
    2.2093   19.8036  -34.2536 H   0  0  0  0  0  0  0  0  0  0  0  0
    3.1400   18.9418  -32.1214 H   0  0  0  0  0  0  0  0  0  0  0  0
    1.7440   18.8941  -30.0698 H   0  0  0  0  0  0  0  0  0  0  0  0
   -2.4566   22.0109  -29.8378 H   0  0  0  0  0  0  0  0  0  0  0  0
   -3.1280   25.4610  -30.7820 H   0  0  0  0  0  0  0  0  0  0  0  0
   -6.5335   23.9337  -32.9874 H   0  0  0  0  0  0  0  0  0  0  0  0
   -4.9257   22.1642  -32.9233 H   0  0  0  0  0  0  0  0  0  0  0  0
   -5.5157   21.6164  -31.3073 H   0  0  0  0  0  0  0  0  0  0  0  0
   -7.0561   21.5714  -33.9445 H   0  0  0  0  0  0  0  0  0  0  0  0
   -6.4104   20.1545  -32.9924 H   0  0  0  0  0  0  0  0  0  0  0  0
   -8.9944   21.2866  -32.8486 H   0  0  0  0  0  0  0  0  0  0  0  0
   -8.2188   20.0436  -31.7527 H   0  0  0  0  0  0  0  0  0  0  0  0
   -9.3005   22.0690  -30.6217 H   0  0  0  0  0  0  0  0  0  0  0  0
   -7.5956   21.6518  -30.1717 H   0  0  0  0  0  0  0  0  0  0  0  0
   -8.5254   23.8619  -32.0560 H   0  0  0  0  0  0  0  0  0  0  0  0
   -7.7419   24.0241  -30.4170 H   0  0  0  0  0  0  0  0  0  0  0  0
    2.2662   25.9879  -26.1961 H   0  0  0  0  0  0  0  0  0  0  0  0
    2.8504   23.5803  -25.8940 H   0  0  0  0  0  0  0  0  0  0  0  0
    1.4590   21.8228  -26.9916 H   0  0  0  0  0  0  0  0  0  0  0  0
   -2.7970   21.1500  -34.5060 H   0  0  0  0  0  0  0  0  0  0  0  0
  1  2  1  0
  2  3  2  0
  3  4  1  0
  4  5  2  0
  5  6  1  0
  6  7  1  0
  7  8  1  0
  8  9  2  0
  8 10  2  0
  8 11  1  0
 11 12  2  0
 12 13  1  0
 13 14  1  0
 14 15  1  0
 15 16  2  0
 15 17  1  0
 17 18  1  0
 18 19  1  0
 19 20  1  0
 20 21  1  0
 21 22  1  0
 22 23  1  0
 13 24  2  0
 24 25  1  0
 24 26  1  0
 26 27  2  0
 27 28  1  0
 28 29  2  0
 29 30  1  0
 30 31  2  0
  6 32  2  0
 32 33  1  0
 33 34  1  0
 33 35  2  0
 33 36  2  0
 32  2  1  0
 31 11  1  0
 23 18  1  0
 31 26  1  0
  1 37  1  0
  1 38  1  0
  1 39  1  0
  3 40  1  0
  4 41  1  0
  5 42  1  0
 12 43  1  0
 14 44  1  0
 18 45  1  0
 19 46  1  0
 19 47  1  0
 20 48  1  0
 20 49  1  0
 21 50  1  0
 21 51  1  0
 22 52  1  0
 22 53  1  0
 23 54  1  0
 23 55  1  0
 28 56  1  0
 29 57  1  0
 30 58  1  0
 34 59  1  0
M  CHG  4   7  -1  17  -1  25  -1  34  -1
M  END
>  <UniqueID>  (8) 
8

>  <SMILES>  (8) 
Cc1cccc([N-]S(=O)(=O)c2cc(NC(=O)[N-]C3CCCCC3)c([O-])c3ncccc23)c1S([NH-])(=O)=O

>  <Energy>  (8) 
83.21039355918637

>  <Genealogy>  (8) 
Cc1cccc([N-]S(=O)(=O)c2cc(NC(=O)[N-]C3CCCCC3)c([O-])c3ncccc23)c1S([NH-])(=O)=O (protonated)
Cc1cccc([N-]S(=O)(=O)c2cc(NC(=O)[N-]C3CCCCC3)c([O-])c3ncccc23)c1S([NH-])(=O)=O (3D coordinates assigned)
Cc1cccc([N-]S(=O)(=O)c2cc(NC(=O)[N-]C3CCCCC3)c([O-])c3ncccc23)c1S([NH-])(=O)=O (nonaromatic ring conformer: 83.21039355918637 kcal/mol)

>  <smiles>  (8) 
Cc1cccc(NS(=O)(=O)c2cc(NC(=O)NC3CCCCC3)c(O)c3ncccc23)c1S(N)(=O)=O

>  <score_type>  (8) 
oracle

>  <origin>  (8) 
adgpu

>  <m_score__min__energy>  (8) 
-14.630000000000001

>  <m_primary>  (8) 
energy

$$$$
8:0
     RDKit          3D

 66 70  0  0  0  0  0  0  0  0999 V2000
   -9.0090   18.7000  -31.6170 C   0  0  0  0  0  0  0  0  0  0  0  0
   -8.5490   19.6950  -32.6770 C   0  0  0  0  0  0  0  0  0  0  0  0
   -7.1160   20.0860  -32.4470 C   0  0  0  0  0  0  0  0  0  0  0  0
   -6.6450   21.3450  -32.1420 C   0  0  0  0  0  0  0  0  0  0  0  0
   -7.2830   22.5620  -31.9170 C   0  0  0  0  0  0  0  0  0  0  0  0
   -6.4770   23.6660  -31.5820 C   0  0  0  0  0  0  0  0  0  0  0  0
   -5.0730   23.5270  -31.4630 C   0  0  0  0  0  0  0  0  0  0  0  0
   -4.3030   24.6450  -31.0080 N   0  0  0  0  0  0  0  0  0  0  0  0
   -3.8730   24.8730  -29.6560 C   0  0  0  0  0  0  0  0  0  0  0  0
   -4.6940   24.6920  -28.7200 O   0  0  0  0  0  0  0  0  0  0  0  0
   -2.5330   25.2790  -29.3320 N   0  0  0  0  0  0  0  0  0  0  0  0
   -1.5250   24.4690  -28.7070 C   0  0  0  0  0  0  0  0  0  0  0  0
   -0.5780   25.1030  -27.9040 C   0  0  0  0  0  0  0  0  0  0  0  0
    0.4910   24.3880  -27.3810 C   0  0  0  0  0  0  0  0  0  0  0  0
    0.6200   23.0230  -27.6380 C   0  0  0  0  0  0  0  0  0  0  0  0
    1.7370   22.3690  -27.1310 O   0  0  0  0  0  0  0  0  0  0  0  0
   -0.3580   22.3320  -28.3900 C   0  0  0  0  0  0  0  0  0  0  0  0
   -0.1630   20.5730  -28.6500 S   0  0  0  0  0  0  0  0  0  0  0  0
    0.7950   19.9880  -27.6520 O   0  0  0  0  0  0  0  0  0  0  0  0
   -1.4840   19.8960  -28.4140 O   0  0  0  0  0  0  0  0  0  0  0  0
    0.3770   20.1550  -30.3250 C   0  0  0  0  0  0  0  0  0  0  0  0
   -0.1990   21.1920  -31.4060 C   0  0  0  0  0  0  0  0  0  0  0  0
   -1.6120   20.7850  -32.0140 C   0  0  1  0  0  0  0  0  0  0  0  0
   -1.6440   20.5040  -33.5830 C   0  0  0  0  0  0  0  0  0  0  0  0
   -1.8770   19.0540  -33.9900 N   0  0  0  0  0  0  0  0  0  0  0  0
   -3.2430   18.8380  -34.4920 C   0  0  0  0  0  0  0  0  0  0  0  0
   -1.4450   17.9570  -33.0430 C   0  0  0  0  0  0  0  0  0  0  0  0
   -0.9750   18.6030  -31.7520 C   0  0  1  0  0  0  0  0  0  0  0  0
    0.0860   18.6190  -30.6590 C   0  0  0  0  0  0  0  0  0  0  0  0
   -1.9990   19.5680  -31.3450 N   0  0  0  0  0  0  0  0  0  0  0  0
   -1.4590   23.0740  -28.9130 C   0  0  0  0  0  0  0  0  0  0  0  0
   -2.5010   22.4830  -29.6300 O   0  0  0  0  0  0  0  0  0  0  0  0
   -4.4590   22.2870  -31.7560 C   0  0  0  0  0  0  0  0  0  0  0  0
   -5.2840   21.2140  -32.0780 C   0  0  0  0  0  0  0  0  0  0  0  0
   -4.9180   19.9460  -32.3380 N   0  0  0  0  0  0  0  0  0  0  0  0
   -6.0390   19.2700  -32.5720 N   0  0  0  0  0  0  0  0  0  0  0  0
   -6.0620   17.8430  -32.8770 C   0  0  0  0  0  0  0  0  0  0  0  0
   -8.8171   19.1151  -30.6166 H   0  0  0  0  0  0  0  0  0  0  0  0
  -10.0861   18.5104  -31.7349 H   0  0  0  0  0  0  0  0  0  0  0  0
   -8.4556   17.7567  -31.7349 H   0  0  0  0  0  0  0  0  0  0  0  0
   -8.6431   19.2338  -33.6712 H   0  0  0  0  0  0  0  0  0  0  0  0
   -9.1773   20.5958  -32.6152 H   0  0  0  0  0  0  0  0  0  0  0  0
   -8.3759   22.6570  -31.9980 H   0  0  0  0  0  0  0  0  0  0  0  0
   -6.9429   24.6476  -31.4107 H   0  0  0  0  0  0  0  0  0  0  0  0
   -0.6784   26.1760  -27.6835 H   0  0  0  0  0  0  0  0  0  0  0  0
    1.2406   24.9008  -26.7604 H   0  0  0  0  0  0  0  0  0  0  0  0
    1.4701   20.2639  -30.3817 H   0  0  0  0  0  0  0  0  0  0  0  0
   -0.3024   22.1738  -30.9208 H   0  0  0  0  0  0  0  0  0  0  0  0
    0.5137   21.2027  -32.2438 H   0  0  0  0  0  0  0  0  0  0  0  0
   -2.2840   21.6421  -31.8593 H   0  0  0  0  0  0  0  0  0  0  0  0
   -2.4511   21.1112  -34.0187 H   0  0  0  0  0  0  0  0  0  0  0  0
   -0.6413   20.7623  -33.9544 H   0  0  0  0  0  0  0  0  0  0  0  0
   -3.9329   18.7289  -33.6423 H   0  0  0  0  0  0  0  0  0  0  0  0
   -3.5490   19.6989  -35.1045 H   0  0  0  0  0  0  0  0  0  0  0  0
   -3.2684   17.9247  -35.1045 H   0  0  0  0  0  0  0  0  0  0  0  0
   -2.2931   17.2874  -32.8371 H   0  0  0  0  0  0  0  0  0  0  0  0
   -0.6318   17.3668  -33.4907 H   0  0  0  0  0  0  0  0  0  0  0  0
   -1.5598   17.8726  -31.1736 H   0  0  0  0  0  0  0  0  0  0  0  0
   -0.2847   18.0997  -29.7630 H   0  0  0  0  0  0  0  0  0  0  0  0
    1.0012   18.1050  -30.9879 H   0  0  0  0  0  0  0  0  0  0  0  0
   -2.9740   19.2830  -31.5970 H   0  0  0  0  0  0  0  0  0  0  0  0
   -3.3280   22.9560  -29.9470 H   0  0  0  0  0  0  0  0  0  0  0  0
   -3.3651   22.1747  -31.7301 H   0  0  0  0  0  0  0  0  0  0  0  0
   -6.0713   17.2678  -31.9394 H   0  0  0  0  0  0  0  0  0  0  0  0
   -6.9641   17.6073  -33.4607 H   0  0  0  0  0  0  0  0  0  0  0  0
   -5.1680   17.5784  -33.4607 H   0  0  0  0  0  0  0  0  0  0  0  0
  1  2  1  0
  2  3  1  0
  3  4  2  0
  4  5  1  0
  5  6  2  0
  6  7  1  0
  7  8  1  0
  8  9  1  0
  9 10  2  0
  9 11  1  0
 11 12  1  0
 12 13  2  0
 13 14  1  0
 14 15  2  0
 15 16  1  0
 15 17  1  0
 17 18  1  0
 18 19  2  0
 18 20  2  0
 18 21  1  0
 21 22  1  0
 22 23  1  0
 23 24  1  0
 24 25  1  0
 25 26  1  0
 25 27  1  0
 27 28  1  0
 28 29  1  0
 28 30  1  0
 17 31  2  0
 31 32  1  0
  7 33  2  0
 33 34  1  0
 34 35  2  0
 35 36  1  0
 36 37  1  0
 36  3  1  0
 34  4  1  0
 31 12  1  0
 29 21  1  0
 30 23  1  0
  1 38  1  0
  1 39  1  0
  1 40  1  0
  2 41  1  0
  2 42  1  0
  5 43  1  0
  6 44  1  0
 13 45  1  0
 14 46  1  0
 21 47  1  0
 22 48  1  0
 22 49  1  0
 23 50  1  6
 24 51  1  0
 24 52  1  0
 26 53  1  0
 26 54  1  0
 26 55  1  0
 27 56  1  0
 27 57  1  0
 28 58  1  6
 29 59  1  0
 29 60  1  0
 30 61  1  0
 32 62  1  0
 33 63  1  0
 37 64  1  0
 37 65  1  0
 37 66  1  0
M  CHG  3   8  -1  11  -1  16  -1
M  END
>  <UniqueID>  (9) 
9

>  <SMILES>  (9) 
CCc1c2ccc([N-]C(=O)[N-]c3ccc([O-])c(S(=O)(=O)C4C[C@H]5CN(C)C[C@H](C4)N5)c3O)cc2nn1C

>  <Energy>  (9) 
228.22020661315645

>  <Genealogy>  (9) 
CCc1c2ccc([N-]C(=O)[N-]c3ccc([O-])c(S(=O)(=O)C4CC5CN(C)CC(C4)N5)c3O)cc2nn1C (protonated)
CCc1c2ccc([N-]C(=O)[N-]c3ccc([O-])c(S(=O)(=O)C4C[C@H]5CN(C)C[C@H](C4)N5)c3O)cc2nn1C (chirality)
CCc1c2ccc([N-]C(=O)[N-]c3ccc([O-])c(S(=O)(=O)C4C[C@H]5CN(C)C[C@H](C4)N5)c3O)cc2nn1C (3D coordinates assigned)
CCc1c2ccc([N-]C(=O)[N-]c3ccc([O-])c(S(=O)(=O)C4C[C@H]5CN(C)C[C@H](C4)N5)c3O)cc2nn1C (nonaromatic ring conformer: 228.22020661315645 kcal/mol)

>  <smiles>  (9) 
CCc1c2ccc(NC(=O)Nc3ccc(O)c(S(=O)(=O)C4CC5CN(C)CC(C4)N5)c3O)cc2nn1C

>  <score_type>  (9) 
oracle

>  <origin>  (9) 
adgpu

>  <m_score__min__energy>  (9) 
-13.789999999999999

>  <m_primary>  (9) 
energy

$$$$
9:0
     RDKit          3D

 65 68  0  0  0  0  0  0  0  0999 V2000
   -9.4040   19.4700  -32.3020 C   0  0  0  0  0  0  0  0  0  0  0  0
   -7.9670   19.1850  -32.6380 C   0  0  0  0  0  0  0  0  0  0  0  0
   -7.2580   20.0660  -33.4570 C   0  0  0  0  0  0  0  0  0  0  0  0
   -5.9320   19.7930  -33.7970 C   0  0  0  0  0  0  0  0  0  0  0  0
   -5.2880   18.6350  -33.3340 C   0  0  0  0  0  0  0  0  0  0  0  0
   -3.5970   18.4260  -33.8320 S   0  0  0  0  0  0  0  0  0  0  0  0
   -3.4580   17.6350  -35.1030 O   0  0  0  0  0  0  0  0  0  0  0  0
   -2.8910   17.6750  -32.7350 O   0  0  0  0  0  0  0  0  0  0  0  0
   -2.8960   20.0180  -34.0320 N   0  0  0  0  0  0  0  0  0  0  0  0
   -1.4270   19.9510  -34.2620 C   0  0  0  0  0  0  0  0  0  0  0  0
   -0.6130   20.8430  -33.3130 C   0  0  0  0  0  0  0  0  0  0  0  0
   -1.0420   20.5920  -31.8570 C   0  0  0  0  0  0  0  0  0  0  0  0
   -0.2680   21.3640  -30.8680 N   0  0  0  0  0  0  0  0  0  0  0  0
   -0.6820   21.0530  -29.1980 S   0  0  0  0  0  0  0  0  0  0  0  0
    0.5620   21.1420  -28.3580 O   0  0  0  0  0  0  0  0  0  0  0  0
   -1.2780   19.6790  -29.0410 O   0  0  0  0  0  0  0  0  0  0  0  0
   -1.8200   22.2800  -28.6470 C   0  0  0  0  0  0  0  0  0  0  0  0
   -1.7360   22.7530  -27.3310 C   0  0  0  0  0  0  0  0  0  0  0  0
   -2.6030   23.7530  -26.8870 C   0  0  0  0  0  0  0  0  0  0  0  0
   -3.5610   24.2850  -27.7530 C   0  0  0  0  0  0  0  0  0  0  0  0
   -3.6610   23.8140  -29.0730 C   0  0  0  0  0  0  0  0  0  0  0  0
   -4.8830   24.4780  -30.1620 S   0  0  0  0  0  0  0  0  0  0  0  0
   -6.0610   24.9480  -29.3500 O   0  0  0  0  0  0  0  0  0  0  0  0
   -4.3130   25.6730  -30.8790 O   0  0  0  0  0  0  0  0  0  0  0  0
   -5.4080   23.3090  -31.3560 N   0  0  0  0  0  0  0  0  0  0  0  0
   -5.9240   22.0920  -30.7230 C   0  0  0  0  0  0  0  0  0  0  0  0
   -7.4390   22.1600  -30.7600 C   0  0  0  0  0  0  0  0  0  0  0  0
   -7.7520   23.0390  -31.9470 C   0  0  0  0  0  0  0  0  0  0  0  0
   -6.4860   23.8430  -32.2030 C   0  0  0  0  0  0  0  0  0  0  0  0
   -2.7880   22.8100  -29.5160 C   0  0  0  0  0  0  0  0  0  0  0  0
   -2.5690   20.7510  -31.6470 C   0  0  0  0  0  0  0  0  0  0  0  0
   -3.3280   20.9560  -32.9720 C   0  0  0  0  0  0  0  0  0  0  0  0
   -6.0100   17.7190  -32.5250 C   0  0  0  0  0  0  0  0  0  0  0  0
   -5.3940   16.4550  -31.9800 C   0  0  0  0  0  0  0  0  0  0  0  0
   -7.3470   18.0110  -32.1870 C   0  0  0  0  0  0  0  0  0  0  0  0
   -9.5271   19.4944  -31.2092 H   0  0  0  0  0  0  0  0  0  0  0  0
   -9.6935   20.4431  -32.7255 H   0  0  0  0  0  0  0  0  0  0  0  0
  -10.0430   18.6811  -32.7255 H   0  0  0  0  0  0  0  0  0  0  0  0
   -7.7453   20.9769  -33.8350 H   0  0  0  0  0  0  0  0  0  0  0  0
   -5.3824   20.4974  -34.4387 H   0  0  0  0  0  0  0  0  0  0  0  0
   -1.1010   18.9094  -34.1249 H   0  0  0  0  0  0  0  0  0  0  0  0
   -1.2442   20.3165  -35.2832 H   0  0  0  0  0  0  0  0  0  0  0  0
    0.4566   20.6108  -33.4227 H   0  0  0  0  0  0  0  0  0  0  0  0
   -0.7937   21.8982  -33.5657 H   0  0  0  0  0  0  0  0  0  0  0  0
   -0.7990   19.5356  -31.6697 H   0  0  0  0  0  0  0  0  0  0  0  0
   -0.9843   22.3350  -26.6452 H   0  0  0  0  0  0  0  0  0  0  0  0
   -2.5315   24.1226  -25.8534 H   0  0  0  0  0  0  0  0  0  0  0  0
   -4.2397   25.0756  -27.4004 H   0  0  0  0  0  0  0  0  0  0  0  0
   -5.5751   21.2062  -31.2741 H   0  0  0  0  0  0  0  0  0  0  0  0
   -5.5669   22.0162  -29.6854 H   0  0  0  0  0  0  0  0  0  0  0  0
   -7.8695   21.1569  -30.8954 H   0  0  0  0  0  0  0  0  0  0  0  0
   -7.8617   22.5559  -29.8248 H   0  0  0  0  0  0  0  0  0  0  0  0
   -8.0014   22.4249  -32.8249 H   0  0  0  0  0  0  0  0  0  0  0  0
   -8.6172   23.6906  -31.7552 H   0  0  0  0  0  0  0  0  0  0  0  0
   -6.2012   23.7576  -33.2621 H   0  0  0  0  0  0  0  0  0  0  0  0
   -6.6603   24.9024  -31.9638 H   0  0  0  0  0  0  0  0  0  0  0  0
   -2.8615   22.4361  -30.5479 H   0  0  0  0  0  0  0  0  0  0  0  0
   -2.9540   19.8449  -31.1564 H   0  0  0  0  0  0  0  0  0  0  0  0
   -2.7301   21.6455  -31.0274 H   0  0  0  0  0  0  0  0  0  0  0  0
   -4.4023   20.8077  -32.7881 H   0  0  0  0  0  0  0  0  0  0  0  0
   -3.1108   21.9754  -33.3235 H   0  0  0  0  0  0  0  0  0  0  0  0
   -5.4084   16.4846  -30.8805 H   0  0  0  0  0  0  0  0  0  0  0  0
   -5.9695   15.5857  -32.3310 H   0  0  0  0  0  0  0  0  0  0  0  0
   -4.3548   16.3727  -32.3310 H   0  0  0  0  0  0  0  0  0  0  0  0
   -7.9129   17.3067  -31.5595 H   0  0  0  0  0  0  0  0  0  0  0  0
  1  2  1  0
  2  3  2  0
  3  4  1  0
  4  5  2  0
  5  6  1  0
  6  7  2  0
  6  8  2  0
  6  9  1  0
  9 10  1  0
 10 11  1  0
 11 12  1  0
 12 13  1  0
 13 14  1  0
 14 15  2  0
 14 16  2  0
 14 17  1  0
 17 18  2  0
 18 19  1  0
 19 20  2  0
 20 21  1  0
 21 22  1  0
 22 23  2  0
 22 24  2  0
 22 25  1  0
 25 26  1  0
 26 27  1  0
 27 28  1  0
 28 29  1  0
 21 30  2  0
 12 31  1  0
 31 32  1  0
  5 33  1  0
 33 34  1  0
 33 35  2  0
 35  2  1  0
 32  9  1  0
 30 17  1  0
 29 25  1  0
  1 36  1  0
  1 37  1  0
  1 38  1  0
  3 39  1  0
  4 40  1  0
 10 41  1  0
 10 42  1  0
 11 43  1  0
 11 44  1  0
 12 45  1  0
 18 46  1  0
 19 47  1  0
 20 48  1  0
 26 49  1  0
 26 50  1  0
 27 51  1  0
 27 52  1  0
 28 53  1  0
 28 54  1  0
 29 55  1  0
 29 56  1  0
 30 57  1  0
 31 58  1  0
 31 59  1  0
 32 60  1  0
 32 61  1  0
 34 62  1  0
 34 63  1  0
 34 64  1  0
 35 65  1  0
M  CHG  1  13  -1
M  END
>  <UniqueID>  (10) 
10

>  <SMILES>  (10) 
Cc1ccc(S(=O)(=O)N2CCC([N-]S(=O)(=O)c3cccc(S(=O)(=O)N4CCCC4)c3)CC2)c(C)c1

>  <Energy>  (10) 
79.91603591266616

>  <Genealogy>  (10) 
Cc1ccc(S(=O)(=O)N2CCC([N-]S(=O)(=O)c3cccc(S(=O)(=O)N4CCCC4)c3)CC2)c(C)c1 (protonated)
Cc1ccc(S(=O)(=O)N2CCC([N-]S(=O)(=O)c3cccc(S(=O)(=O)N4CCCC4)c3)CC2)c(C)c1 (3D coordinates assigned)
Cc1ccc(S(=O)(=O)N2CCC([N-]S(=O)(=O)c3cccc(S(=O)(=O)N4CCCC4)c3)CC2)c(C)c1 (nonaromatic ring conformer: 79.91603591266616 kcal/mol)

>  <smiles>  (10) 
Cc1ccc(S(=O)(=O)N2CCC(NS(=O)(=O)c3cccc(S(=O)(=O)N4CCCC4)c3)CC2)c(C)c1

>  <score_type>  (10) 
oracle

>  <origin>  (10) 
adgpu

>  <m_score__min__energy>  (10) 
-12.91

>  <m_primary>  (10) 
energy

$$$$
10:0
     RDKit          3D

 37 39  0  0  0  0  0  0  0  0999 V2000
   -9.8060   21.6420  -31.2460 C   0  0  0  0  0  0  0  0  0  0  0  0
   -9.0620   20.6440  -31.9310 O   0  0  0  0  0  0  0  0  0  0  0  0
   -7.7020   20.7070  -32.1610 C   0  0  0  0  0  0  0  0  0  0  0  0
   -6.9540   21.8570  -32.0170 C   0  0  0  0  0  0  0  0  0  0  0  0
   -5.6050   21.8670  -32.2570 C   0  0  0  0  0  0  0  0  0  0  0  0
   -4.7160   23.0360  -32.1210 C   0  0  0  0  0  0  0  0  0  0  0  0
   -4.2140   23.3080  -30.7820 C   0  0  0  0  0  0  0  0  0  0  0  0
   -3.9090   22.2190  -29.9630 C   0  0  0  0  0  0  0  0  0  0  0  0
   -3.4600   22.3720  -28.7050 N   0  0  0  0  0  0  0  0  0  0  0  0
   -3.2960   23.6040  -28.2070 C   0  0  0  0  0  0  0  0  0  0  0  0
   -2.8680   23.7400  -27.0040 N   0  0  0  0  0  0  0  0  0  0  0  0
   -3.5690   24.6980  -28.9380 N   0  0  0  0  0  0  0  0  0  0  0  0
   -4.0250   24.5470  -30.2170 C   0  0  0  0  0  0  0  0  0  0  0  0
   -4.2430   25.6330  -30.8610 N   0  0  0  0  0  0  0  0  0  0  0  0
   -5.0010   20.6670  -32.6540 C   0  0  0  0  0  0  0  0  0  0  0  0
   -5.7330   19.5080  -32.8030 C   0  0  0  0  0  0  0  0  0  0  0  0
   -5.1080   18.3280  -33.2000 C   0  0  0  0  0  0  0  0  0  0  0  0
   -5.8710   17.1660  -33.3450 C   0  0  0  0  0  0  0  0  0  0  0  0
   -5.0190   15.5280  -33.8930 Br  0  0  0  0  0  0  0  0  0  0  0  0
   -7.2380   17.1680  -33.0980 C   0  0  0  0  0  0  0  0  0  0  0  0
   -7.8090   18.3650  -32.7070 C   0  0  0  0  0  0  0  0  0  0  0  0
   -7.0910   19.5120  -32.5580 C   0  0  0  0  0  0  0  0  0  0  0  0
   -9.6992   21.4987  -30.1606 H   0  0  0  0  0  0  0  0  0  0  0  0
   -9.4273   22.6368  -31.5235 H   0  0  0  0  0  0  0  0  0  0  0  0
  -10.8675   21.5632  -31.5235 H   0  0  0  0  0  0  0  0  0  0  0  0
   -7.4514   22.7864  -31.7026 H   0  0  0  0  0  0  0  0  0  0  0  0
   -3.8489   22.8768  -32.7788 H   0  0  0  0  0  0  0  0  0  0  0  0
   -5.3320   23.9075  -32.3877 H   0  0  0  0  0  0  0  0  0  0  0  0
   -4.0405   21.2018  -30.3604 H   0  0  0  0  0  0  0  0  0  0  0  0
   -3.2400   21.5490  -28.1120 H   0  0  0  0  0  0  0  0  0  0  0  0
   -2.6410   22.9230  -26.3960 H   0  0  0  0  0  0  0  0  0  0  0  0
   -3.4240   25.6170  -28.5010 H   0  0  0  0  0  0  0  0  0  0  0  0
   -4.5710   25.6670  -31.8380 H   0  0  0  0  0  0  0  0  0  0  0  0
   -3.9190   20.6489  -32.8512 H   0  0  0  0  0  0  0  0  0  0  0  0
   -4.0260   18.3110  -33.3972 H   0  0  0  0  0  0  0  0  0  0  0  0
   -7.8413   16.2549  -33.2089 H   0  0  0  0  0  0  0  0  0  0  0  0
   -8.8905   18.3917  -32.5077 H   0  0  0  0  0  0  0  0  0  0  0  0
  1  2  1  0
  2  3  1  0
  3  4  2  0
  4  5  1  0
  5  6  1  0
  6  7  1  0
  7  8  2  0
  8  9  1  0
  9 10  1  0
 10 11  2  3
 10 12  1  0
 12 13  1  0
 13 14  2  3
  5 15  2  0
 15 16  1  0
 16 17  2  0
 17 18  1  0
 18 19  1  0
 18 20  2  0
 20 21  1  0
 21 22  2  0
 22  3  1  0
 13  7  1  0
 22 16  1  0
  1 23  1  0
  1 24  1  0
  1 25  1  0
  4 26  1  0
  6 27  1  0
  6 28  1  0
  8 29  1  0
  9 30  1  0
 11 31  1  0
 12 32  1  0
 14 33  1  0
 15 34  1  0
 17 35  1  0
 20 36  1  0
 21 37  1  0
M  END
>  <smiles>  (11) 
COc1cc(Cc2c[nH]c(=N)[nH]c2=N)cc2cc(Br)ccc12

>  <score_type>  (11) 
oracle

>  <origin>  (11) 
adgpu

>  <m_score__min__energy>  (11) 
-8.4299999999999997

>  <m_primary>  (11) 
energy

$$$$
11:0
     RDKit          3D

 59 62  0  0  0  0  0  0  0  0999 V2000
   -9.6230   21.7030  -32.4780 O   0  0  0  0  0  0  0  0  0  0  0  0
   -8.9100   21.5060  -31.1680 S   0  0  0  0  0  0  0  0  0  0  0  0
   -9.8450   21.8460  -30.0390 O   0  0  0  0  0  0  0  0  0  0  0  0
   -8.4280   19.8460  -31.0270 N   0  0  0  0  0  0  0  0  0  0  0  0
   -7.4400   19.2130  -31.8500 C   0  0  0  0  0  0  0  0  0  0  0  0
   -6.7150   18.0960  -31.4080 C   0  0  0  0  0  0  0  0  0  0  0  0
   -5.6880   17.5710  -32.1930 C   0  0  0  0  0  0  0  0  0  0  0  0
   -5.3870   18.1380  -33.4370 C   0  0  0  0  0  0  0  0  0  0  0  0
   -4.0410   17.5170  -34.3930 S   0  0  0  0  0  0  0  0  0  0  0  0
   -3.7050   16.1260  -33.9290 O   0  0  0  0  0  0  0  0  0  0  0  0
   -4.4550   17.4390  -35.8360 O   0  0  0  0  0  0  0  0  0  0  0  0
   -2.6200   18.5230  -34.2420 N   0  0  0  0  0  0  0  0  0  0  0  0
   -2.9970   19.9160  -33.9570 C   0  0  0  0  0  0  0  0  0  0  0  0
   -1.7340   20.7850  -33.7800 C   0  0  0  0  0  0  0  0  0  0  0  0
   -0.5470   20.0260  -33.9240 O   0  0  0  0  0  0  0  0  0  0  0  0
   -0.5370   18.9730  -32.9820 C   0  0  0  0  0  0  0  0  0  0  0  0
   -1.7270   18.0130  -33.1910 C   0  0  0  0  0  0  0  0  0  0  0  0
   -6.1480   19.2160  -33.9040 C   0  0  0  0  0  0  0  0  0  0  0  0
   -7.1690   19.7490  -33.1140 C   0  0  0  0  0  0  0  0  0  0  0  0
   -7.4870   22.5450  -31.1350 C   0  0  0  0  0  0  0  0  0  0  0  0
   -7.6180   23.9330  -31.1960 C   0  0  0  0  0  0  0  0  0  0  0  0
   -6.4910   24.7470  -31.0890 C   0  0  0  0  0  0  0  0  0  0  0  0
   -5.2170   24.1910  -30.9250 C   0  0  0  0  0  0  0  0  0  0  0  0
   -4.1410   25.0760  -30.8340 O   0  0  0  0  0  0  0  0  0  0  0  0
   -5.0710   22.7810  -30.8710 C   0  0  0  0  0  0  0  0  0  0  0  0
   -3.5160   21.9610  -30.6220 S   0  0  0  0  0  0  0  0  0  0  0  0
   -2.5110   22.5880  -31.5500 O   0  0  0  0  0  0  0  0  0  0  0  0
   -3.6090   20.5110  -31.0060 O   0  0  0  0  0  0  0  0  0  0  0  0
   -2.9050   22.1110  -28.9860 N   0  0  0  0  0  0  0  0  0  0  0  0
   -1.5850   22.7640  -28.9120 C   0  0  0  0  0  0  0  0  0  0  0  0
   -1.6850   24.2860  -28.7420 C   0  0  0  0  0  0  0  0  0  0  0  0
   -2.5190   24.6150  -27.6510 O   0  0  0  0  0  0  0  0  0  0  0  0
   -3.8310   24.1780  -27.9270 C   0  0  0  0  0  0  0  0  0  0  0  0
   -3.8840   22.6480  -28.0220 C   0  0  0  0  0  0  0  0  0  0  0  0
   -6.2180   21.9770  -30.9820 C   0  0  0  0  0  0  0  0  0  0  0  0
   -6.9570   17.6330  -30.4400 H   0  0  0  0  0  0  0  0  0  0  0  0
   -5.1114   16.7065  -31.8323 H   0  0  0  0  0  0  0  0  0  0  0  0
   -3.5941   20.3090  -34.7931 H   0  0  0  0  0  0  0  0  0  0  0  0
   -3.5857   19.9454  -33.0282 H   0  0  0  0  0  0  0  0  0  0  0  0
   -1.7411   21.5816  -34.5385 H   0  0  0  0  0  0  0  0  0  0  0  0
   -1.7489   21.2055  -32.7637 H   0  0  0  0  0  0  0  0  0  0  0  0
    0.4007   18.4078  -33.0883 H   0  0  0  0  0  0  0  0  0  0  0  0
   -0.6201   19.4103  -31.9761 H   0  0  0  0  0  0  0  0  0  0  0  0
   -1.3470   17.0241  -33.4870 H   0  0  0  0  0  0  0  0  0  0  0  0
   -2.2918   17.9355  -32.2502 H   0  0  0  0  0  0  0  0  0  0  0  0
   -5.9414   19.6445  -34.8958 H   0  0  0  0  0  0  0  0  0  0  0  0
   -7.7639   20.5954  -33.4877 H   0  0  0  0  0  0  0  0  0  0  0  0
   -8.6118   24.3856  -31.3287 H   0  0  0  0  0  0  0  0  0  0  0  0
   -6.6046   25.8402  -31.1341 H   0  0  0  0  0  0  0  0  0  0  0  0
   -3.8240   25.6650  -31.5900 H   0  0  0  0  0  0  0  0  0  0  0  0
   -1.0351   22.3496  -28.0541 H   0  0  0  0  0  0  0  0  0  0  0  0
   -1.0648   22.5695  -29.8615 H   0  0  0  0  0  0  0  0  0  0  0  0
   -0.6798   24.6958  -28.5640 H   0  0  0  0  0  0  0  0  0  0  0  0
   -2.1169   24.7155  -29.6580 H   0  0  0  0  0  0  0  0  0  0  0  0
   -4.5003   24.5132  -27.1210 H   0  0  0  0  0  0  0  0  0  0  0  0
   -4.1503   24.6034  -28.8898 H   0  0  0  0  0  0  0  0  0  0  0  0
   -3.6712   22.2247  -27.0293 H   0  0  0  0  0  0  0  0  0  0  0  0
   -4.8884   22.3679  -28.3723 H   0  0  0  0  0  0  0  0  0  0  0  0
   -6.1162   20.8822  -30.9480 H   0  0  0  0  0  0  0  0  0  0  0  0
  1  2  2  0
  2  3  2  0
  2  4  1  0
  4  5  1  0
  5  6  2  0
  6  7  1  0
  7  8  2  0
  8  9  1  0
  9 10  2  0
  9 11  2  0
  9 12  1  0
 12 13  1  0
 13 14  1  0
 14 15  1  0
 15 16  1  0
 16 17  1  0
  8 18  1  0
 18 19  2  0
  2 20  1  0
 20 21  2  0
 21 22  1  0
 22 23  2  0
 23 24  1  0
 23 25  1  0
 25 26  1  0
 26 27  2  0
 26 28  2  0
 26 29  1  0
 29 30  1  0
 30 31  1  0
 31 32  1  0
 32 33  1  0
 33 34  1  0
 25 35  2  0
 19  5  1  0
 35 20  1  0
 17 12  1  0
 34 29  1  0
  6 36  1  0
  7 37  1  0
 13 38  1  0
 13 39  1  0
 14 40  1  0
 14 41  1  0
 16 42  1  0
 16 43  1  0
 17 44  1  0
 17 45  1  0
 18 46  1  0
 19 47  1  0
 21 48  1  0
 22 49  1  0
 24 50  1  0
 30 51  1  0
 30 52  1  0
 31 53  1  0
 31 54  1  0
 33 55  1  0
 33 56  1  0
 34 57  1  0
 34 58  1  0
 35 59  1  0
M  CHG  1   4  -1
M  END
>  <UniqueID>  (12) 
11

>  <SMILES>  (12) 
O=S(=O)([N-]c1ccc(S(=O)(=O)N2CCOCC2)cc1)c1ccc(O)c(S(=O)(=O)N2CCOCC2)c1

>  <Energy>  (12) 
79.28398776965909

>  <Genealogy>  (12) 
O=S(=O)([N-]c1ccc(S(=O)(=O)N2CCOCC2)cc1)c1ccc(O)c(S(=O)(=O)N2CCOCC2)c1 (protonated)
O=S(=O)([N-]c1ccc(S(=O)(=O)N2CCOCC2)cc1)c1ccc(O)c(S(=O)(=O)N2CCOCC2)c1 (3D coordinates assigned)
O=S(=O)([N-]c1ccc(S(=O)(=O)N2CCOCC2)cc1)c1ccc(O)c(S(=O)(=O)N2CCOCC2)c1 (nonaromatic ring conformer: 79.28398776965909 kcal/mol)

>  <smiles>  (12) 
O=S(=O)(Nc1ccc(S(=O)(=O)N2CCOCC2)cc1)c1ccc(O)c(S(=O)(=O)N2CCOCC2)c1

>  <score_type>  (12) 
oracle

>  <origin>  (12) 
adgpu

>  <m_score__min__energy>  (12) 
-11.32

>  <m_primary>  (12) 
energy

$$$$
12:0
     RDKit          3D

 42 44  0  0  0  0  0  0  0  0999 V2000
   -6.9230   20.7860  -33.8450 O   0  0  0  0  0  0  0  0  0  0  0  0
   -7.3220   20.5720  -32.4110 S   0  0  0  0  0  0  0  0  0  0  0  0
   -8.7950   20.8470  -32.2940 O   0  0  0  0  0  0  0  0  0  0  0  0
   -6.4410   21.7170  -31.3930 C   0  0  0  0  0  0  0  0  0  0  0  0
   -7.1370   22.6090  -30.5670 C   0  0  0  0  0  0  0  0  0  0  0  0
   -6.4410   23.5190  -29.7670 C   0  0  0  0  0  0  0  0  0  0  0  0
   -5.0380   23.5590  -29.7850 C   0  0  0  0  0  0  0  0  0  0  0  0
   -4.3520   24.5130  -28.9500 N   0  0  0  0  0  0  0  0  0  0  0  0
   -3.8410   24.2220  -27.6090 C   0  0  0  0  0  0  0  0  0  0  0  0
   -2.3580   23.9410  -27.6460 C   0  0  0  0  0  0  0  0  0  0  0  0
   -1.8270   22.9170  -26.8430 C   0  0  0  0  0  0  0  0  0  0  0  0
   -0.4590   22.6320  -26.8700 C   0  0  0  0  0  0  0  0  0  0  0  0
    0.3900   23.3550  -27.7090 C   0  0  0  0  0  0  0  0  0  0  0  0
   -0.1280   24.3620  -28.5280 C   0  0  0  0  0  0  0  0  0  0  0  0
   -1.4970   24.6540  -28.5070 C   0  0  0  0  0  0  0  0  0  0  0  0
   -1.9870   25.6520  -29.3430 O   0  0  0  0  0  0  0  0  0  0  0  0
   -4.3430   22.6640  -30.6200 C   0  0  0  0  0  0  0  0  0  0  0  0
   -5.0410   21.7550  -31.4200 C   0  0  0  0  0  0  0  0  0  0  0  0
   -7.0200   18.9060  -31.9800 N   0  0  0  0  0  0  0  0  0  0  0  0
   -5.5950   18.5820  -32.0060 C   0  0  0  0  0  0  0  0  0  0  0  0
   -5.5010   17.0830  -32.2470 C   0  0  0  0  0  0  0  0  0  0  0  0
   -6.8450   16.6850  -32.8390 C   0  0  0  0  0  0  0  0  0  0  0  0
   -7.6490   17.9730  -32.9130 C   0  0  0  0  0  0  0  0  0  0  0  0
   -8.2367   22.5930  -30.5481 H   0  0  0  0  0  0  0  0  0  0  0  0
   -6.9976   24.2103  -29.1172 H   0  0  0  0  0  0  0  0  0  0  0  0
   -4.1710   25.4700  -29.3320 H   0  0  0  0  0  0  0  0  0  0  0  0
   -4.0271   25.0882  -26.9570 H   0  0  0  0  0  0  0  0  0  0  0  0
   -4.3576   23.3313  -27.2220 H   0  0  0  0  0  0  0  0  0  0  0  0
   -2.4930   22.3356  -26.1885 H   0  0  0  0  0  0  0  0  0  0  0  0
   -0.0509   21.8366  -26.2290 H   0  0  0  0  0  0  0  0  0  0  0  0
    1.4671   23.1323  -27.7257 H   0  0  0  0  0  0  0  0  0  0  0  0
    0.5426   24.9274  -29.1918 H   0  0  0  0  0  0  0  0  0  0  0  0
   -3.2434   22.6801  -30.6431 H   0  0  0  0  0  0  0  0  0  0  0  0
   -4.4878   21.0655  -32.0746 H   0  0  0  0  0  0  0  0  0  0  0  0
   -5.0947   19.1302  -32.8179 H   0  0  0  0  0  0  0  0  0  0  0  0
   -5.1036   18.8665  -31.0639 H   0  0  0  0  0  0  0  0  0  0  0  0
   -4.6875   16.8566  -32.9520 H   0  0  0  0  0  0  0  0  0  0  0  0
   -5.2824   16.5321  -31.3203 H   0  0  0  0  0  0  0  0  0  0  0  0
   -6.7117   16.2560  -33.8431 H   0  0  0  0  0  0  0  0  0  0  0  0
   -7.3506   15.9208  -32.2305 H   0  0  0  0  0  0  0  0  0  0  0  0
   -7.6220   18.3802  -33.9345 H   0  0  0  0  0  0  0  0  0  0  0  0
   -8.7040   17.8001  -32.6538 H   0  0  0  0  0  0  0  0  0  0  0  0
  1  2  2  0
  2  3  2  0
  2  4  1  0
  4  5  2  0
  5  6  1  0
  6  7  2  0
  7  8  1  0
  8  9  1  0
  9 10  1  0
 10 11  2  0
 11 12  1  0
 12 13  2  0
 13 14  1  0
 14 15  2  0
 15 16  1  0
  7 17  1  0
 17 18  2  0
  2 19  1  0
 19 20  1  0
 20 21  1  0
 21 22  1  0
 22 23  1  0
 18  4  1  0
 23 19  1  0
 15 10  1  0
  5 24  1  0
  6 25  1  0
  8 26  1  0
  9 27  1  0
  9 28  1  0
 11 29  1  0
 12 30  1  0
 13 31  1  0
 14 32  1  0
 17 33  1  0
 18 34  1  0
 20 35  1  0
 20 36  1  0
 21 37  1  0
 21 38  1  0
 22 39  1  0
 22 40  1  0
 23 41  1  0
 23 42  1  0
M  CHG  1  16  -1
M  END
>  <UniqueID>  (13) 
12

>  <SMILES>  (13) 
O=S(=O)(c1ccc(NCc2ccccc2[O-])cc1)N1CCCC1

>  <Energy>  (13) 
44.55668634556489

>  <Genealogy>  (13) 
O=S(=O)(c1ccc(NCc2ccccc2[O-])cc1)N1CCCC1 (protonated)
O=S(=O)(c1ccc(NCc2ccccc2[O-])cc1)N1CCCC1 (3D coordinates assigned)
O=S(=O)(c1ccc(NCc2ccccc2[O-])cc1)N1CCCC1 (nonaromatic ring conformer: 44.55668634556489 kcal/mol)

>  <smiles>  (13) 
O=S(=O)(c1ccc(NCc2ccccc2O)cc1)N1CCCC1

>  <score_type>  (13) 
oracle

>  <origin>  (13) 
adgpu

>  <m_score__min__energy>  (13) 
-11.960000000000001

>  <m_primary>  (13) 
energy

$$$$
13:0
     RDKit          3D

 51 53  0  0  0  0  0  0  0  0999 V2000
   -1.8510   25.4800  -26.7950 C   0  0  0  0  0  0  0  0  0  0  0  0
   -1.4210   25.3470  -28.2250 C   0  0  0  0  0  0  0  0  0  0  0  0
   -0.1940   25.2700  -28.4880 O   0  0  0  0  0  0  0  0  0  0  0  0
   -2.3650   25.2910  -29.3030 N   0  0  0  0  0  0  0  0  0  0  0  0
   -3.2480   24.2030  -29.6050 C   0  0  0  0  0  0  0  0  0  0  0  0
   -2.7250   22.9080  -29.6790 C   0  0  0  0  0  0  0  0  0  0  0  0
   -3.5540   21.8300  -29.9860 C   0  0  0  0  0  0  0  0  0  0  0  0
   -4.9130   22.0380  -30.2340 C   0  0  0  0  0  0  0  0  0  0  0  0
   -5.4520   23.3360  -30.1860 C   0  0  0  0  0  0  0  0  0  0  0  0
   -6.8450   23.5840  -30.4380 N   0  0  0  0  0  0  0  0  0  0  0  0
   -7.6220   23.1790  -31.9340 S   0  0  0  0  0  0  0  0  0  0  0  0
   -6.8010   23.7070  -33.0750 O   0  0  0  0  0  0  0  0  0  0  0  0
   -8.9830   23.8100  -31.9750 O   0  0  0  0  0  0  0  0  0  0  0  0
   -7.8000   21.4300  -32.0420 C   0  0  0  0  0  0  0  0  0  0  0  0
   -8.9650   20.7990  -31.5890 C   0  0  0  0  0  0  0  0  0  0  0  0
   -9.1070   19.4150  -31.7210 C   0  0  0  0  0  0  0  0  0  0  0  0
   -8.0860   18.6560  -32.3020 C   0  0  0  0  0  0  0  0  0  0  0  0
   -6.9130   19.2760  -32.7450 C   0  0  0  0  0  0  0  0  0  0  0  0
   -5.6220   18.3230  -33.4830 S   0  0  0  0  0  0  0  0  0  0  0  0
   -6.1610   17.6070  -34.6860 O   0  0  0  0  0  0  0  0  0  0  0  0
   -5.1500   17.2890  -32.5010 O   0  0  0  0  0  0  0  0  0  0  0  0
   -4.2740   19.3300  -33.9620 N   0  0  0  0  0  0  0  0  0  0  0  0
   -3.1560   18.5210  -34.5080 C   0  0  0  0  0  0  0  0  0  0  0  0
   -1.9940   18.3600  -33.5170 C   0  0  0  0  0  0  0  0  0  0  0  0
   -1.4280   19.7270  -33.0980 C   0  0  0  0  0  0  0  0  0  0  0  0
   -2.5010   20.8310  -33.0750 C   0  0  0  0  0  0  0  0  0  0  0  0
   -3.8960   20.2400  -32.8580 C   0  0  0  0  0  0  0  0  0  0  0  0
   -6.7750   20.6650  -32.6110 C   0  0  0  0  0  0  0  0  0  0  0  0
   -4.6070   24.4150  -29.8890 C   0  0  0  0  0  0  0  0  0  0  0  0
   -1.0111   25.2202  -26.1339 H   0  0  0  0  0  0  0  0  0  0  0  0
   -2.1633   26.5167  -26.6009 H   0  0  0  0  0  0  0  0  0  0  0  0
   -2.6941   24.8006  -26.6009 H   0  0  0  0  0  0  0  0  0  0  0  0
   -1.6539   22.7391  -29.4940 H   0  0  0  0  0  0  0  0  0  0  0  0
   -3.1370   20.8132  -30.0331 H   0  0  0  0  0  0  0  0  0  0  0  0
   -5.5642   21.1829  -30.4678 H   0  0  0  0  0  0  0  0  0  0  0  0
   -7.4600   23.8800  -29.6490 H   0  0  0  0  0  0  0  0  0  0  0  0
   -9.7687   21.3928  -31.1291 H   0  0  0  0  0  0  0  0  0  0  0  0
  -10.0241   18.9214  -31.3671 H   0  0  0  0  0  0  0  0  0  0  0  0
   -8.2058   17.5680  -32.4109 H   0  0  0  0  0  0  0  0  0  0  0  0
   -3.5386   17.5223  -34.7652 H   0  0  0  0  0  0  0  0  0  0  0  0
   -2.7662   19.0502  -35.3900 H   0  0  0  0  0  0  0  0  0  0  0  0
   -2.3557   17.8318  -32.6225 H   0  0  0  0  0  0  0  0  0  0  0  0
   -1.1937   17.7870  -34.0082 H   0  0  0  0  0  0  0  0  0  0  0  0
   -0.9954   19.6353  -32.0908 H   0  0  0  0  0  0  0  0  0  0  0  0
   -0.6697   20.0152  -33.8409 H   0  0  0  0  0  0  0  0  0  0  0  0
   -2.2771   21.5325  -32.2578 H   0  0  0  0  0  0  0  0  0  0  0  0
   -2.4887   21.3500  -34.0448 H   0  0  0  0  0  0  0  0  0  0  0  0
   -3.9036   19.6781  -31.9124 H   0  0  0  0  0  0  0  0  0  0  0  0
   -4.6213   21.0664  -32.8265 H   0  0  0  0  0  0  0  0  0  0  0  0
   -5.8538   21.1575  -32.9558 H   0  0  0  0  0  0  0  0  0  0  0  0
   -5.0125   25.4375  -29.8784 H   0  0  0  0  0  0  0  0  0  0  0  0
  1  2  1  0
  2  3  2  0
  2  4  1  0
  4  5  1  0
  5  6  2  0
  6  7  1  0
  7  8  2  0
  8  9  1  0
  9 10  1  0
 10 11  1  0
 11 12  2  0
 11 13  2  0
 11 14  1  0
 14 15  2  0
 15 16  1  0
 16 17  2  0
 17 18  1  0
 18 19  1  0
 19 20  2  0
 19 21  2  0
 19 22  1  0
 22 23  1  0
 23 24  1  0
 24 25  1  0
 25 26  1  0
 26 27  1  0
 18 28  2  0
  9 29  2  0
 29  5  1  0
 28 14  1  0
 27 22  1  0
  1 30  1  0
  1 31  1  0
  1 32  1  0
  6 33  1  0
  7 34  1  0
  8 35  1  0
 10 36  1  0
 15 37  1  0
 16 38  1  0
 17 39  1  0
 23 40  1  0
 23 41  1  0
 24 42  1  0
 24 43  1  0
 25 44  1  0
 25 45  1  0
 26 46  1  0
 26 47  1  0
 27 48  1  0
 27 49  1  0
 28 50  1  0
 29 51  1  0
M  CHG  1   4  -1
M  END
>  <UniqueID>  (14) 
13

>  <SMILES>  (14) 
CC(=O)[N-]c1cccc(NS(=O)(=O)c2cccc(S(=O)(=O)N3CCCCC3)c2)c1

>  <Energy>  (14) 
61.5560499735872

>  <Genealogy>  (14) 
CC(=O)[N-]c1cccc(NS(=O)(=O)c2cccc(S(=O)(=O)N3CCCCC3)c2)c1 (protonated)
CC(=O)[N-]c1cccc(NS(=O)(=O)c2cccc(S(=O)(=O)N3CCCCC3)c2)c1 (3D coordinates assigned)
CC(=O)[N-]c1cccc(NS(=O)(=O)c2cccc(S(=O)(=O)N3CCCCC3)c2)c1 (nonaromatic ring conformer: 61.5560499735872 kcal/mol)

>  <smiles>  (14) 
CC(=O)Nc1cccc(NS(=O)(=O)c2cccc(S(=O)(=O)N3CCCCC3)c2)c1

>  <score_type>  (14) 
oracle

>  <origin>  (14) 
adgpu

>  <m_score__min__energy>  (14) 
-12.039999999999999

>  <m_primary>  (14) 
energy

$$$$
14:0
     RDKit          3D

 42 44  0  0  0  0  0  0  0  0999 V2000
   -7.0878   22.2857  -31.6694 H   0  0  0  0  0  0  0  0  0  0  0  0
   -6.0450   22.0920  -31.9610 C   0  0  0  0  0  0  0  0  0  0  0  0
   -5.5040   20.8100  -32.9090 S   0  0  0  0  0  0  0  0  0  0  0  0
   -3.9000   21.2970  -32.8230 C   0  0  0  0  0  0  0  0  0  0  0  0
   -2.9210   20.6680  -33.3950 N   0  0  0  0  0  0  0  0  0  0  0  0
   -1.5330   21.1020  -33.3060 C   0  0  0  0  0  0  0  0  0  0  0  0
   -1.2442   21.1923  -32.2484 H   0  0  0  0  0  0  0  0  0  0  0  0
   -0.8854   20.3635  -33.8012 H   0  0  0  0  0  0  0  0  0  0  0  0
   -1.4215   22.0779  -33.8012 H   0  0  0  0  0  0  0  0  0  0  0  0
   -3.7460   22.4210  -32.0880 N   0  0  0  0  0  0  0  0  0  0  0  0
   -4.9400   22.8640  -31.6110 C   0  0  0  0  0  0  0  0  0  0  0  0
   -5.0520   24.3060  -30.6250 S   0  0  0  0  0  0  0  0  0  0  0  0
   -5.7210   23.9760  -29.3210 O   0  0  0  0  0  0  0  0  0  0  0  0
   -5.8570   25.3540  -31.3410 O   0  0  0  0  0  0  0  0  0  0  0  0
   -3.4580   24.9260  -30.3510 N   0  0  0  0  0  0  0  0  0  0  0  0
   -2.5960   24.3830  -29.3490 C   0  0  0  0  0  0  0  0  0  0  0  0
   -2.8190   23.0810  -28.8860 C   0  0  0  0  0  0  0  0  0  0  0  0
   -3.6586   22.4944  -29.2873 H   0  0  0  0  0  0  0  0  0  0  0  0
   -1.9790   22.5200  -27.9140 C   0  0  0  0  0  0  0  0  0  0  0  0
   -2.2870   20.8890  -27.3270 S   0  0  0  0  0  0  0  0  0  0  0  0
   -1.5860   20.7150  -26.0080 O   0  0  0  0  0  0  0  0  0  0  0  0
   -3.7630   20.7000  -27.1110 O   0  0  0  0  0  0  0  0  0  0  0  0
   -1.6780   19.7330  -28.4940 N   0  0  0  0  0  0  0  0  0  0  0  0
   -0.9820   18.6020  -27.8420 C   0  0  0  0  0  0  0  0  0  0  0  0
   -1.3250   18.5318  -26.7992 H   0  0  0  0  0  0  0  0  0  0  0  0
   -1.2216   17.6918  -28.4113 H   0  0  0  0  0  0  0  0  0  0  0  0
    0.5500   18.7640  -27.8470 C   0  0  0  0  0  0  0  0  0  0  0  0
    0.9738   18.2340  -26.9813 H   0  0  0  0  0  0  0  0  0  0  0  0
    0.9514   18.3424  -28.7803 H   0  0  0  0  0  0  0  0  0  0  0  0
    0.8980   20.1290  -27.7730 O   0  0  0  0  0  0  0  0  0  0  0  0
    0.5430   20.7920  -28.9740 C   0  0  0  0  0  0  0  0  0  0  0  0
    0.5357   21.8754  -28.7840 H   0  0  0  0  0  0  0  0  0  0  0  0
    1.2862   20.5052  -29.7326 H   0  0  0  0  0  0  0  0  0  0  0  0
   -0.8450   20.3820  -29.5210 C   0  0  0  0  0  0  0  0  0  0  0  0
   -1.3640   21.2825  -29.8811 H   0  0  0  0  0  0  0  0  0  0  0  0
   -0.6873   19.6587  -30.3346 H   0  0  0  0  0  0  0  0  0  0  0  0
   -0.9090   23.2710  -27.4080 C   0  0  0  0  0  0  0  0  0  0  0  0
   -0.2526   22.8405  -26.6374 H   0  0  0  0  0  0  0  0  0  0  0  0
   -0.6740   24.5650  -27.8800 C   0  0  0  0  0  0  0  0  0  0  0  0
    0.1691   25.1491  -27.4824 H   0  0  0  0  0  0  0  0  0  0  0  0
   -1.5080   25.1200  -28.8570 C   0  0  0  0  0  0  0  0  0  0  0  0
   -1.2360   26.3930  -29.3450 O   0  0  0  0  0  0  0  0  0  0  0  0
  1  2  1  0
  2  3  1  0
  3  4  1  0
  4  5  2  0
  5  6  1  0
  6  7  1  0
  6  8  1  0
  6  9  1  0
  4 10  1  0
 10 11  1  0
 11 12  1  0
 12 13  2  0
 12 14  2  0
 12 15  1  0
 15 16  1  0
 16 17  2  0
 17 18  1  0
 17 19  1  0
 19 20  1  0
 20 21  2  0
 20 22  2  0
 20 23  1  0
 23 24  1  0
 24 25  1  0
 24 26  1  0
 24 27  1  0
 27 28  1  0
 27 29  1  0
 27 30  1  0
 30 31  1  0
 31 32  1  0
 31 33  1  0
 31 34  1  0
 34 35  1  0
 34 36  1  0
 19 37  2  0
 37 38  1  0
 37 39  1  0
 39 40  1  0
 39 41  2  0
 41 42  1  0
 11  2  2  0
 41 16  1  0
 34 23  1  0
M  CHG  3  10  -1  15  -1  42  -1
M  END
>  <UniqueID>  (15) 
14

>  <SMILES>  (15) 
C/N=c1\[n-]c(S(=O)(=O)[N-]c2cc(S(=O)(=O)N3CCOCC3)ccc2[O-])cs1

>  <Energy>  (15) 
89.87660060274852

>  <Genealogy>  (15) 
CN=c1[n-]c(S(=O)(=O)[N-]c2cc(S(=O)(=O)N3CCOCC3)ccc2[O-])cs1 (protonated)
C/N=c1\[n-]c(S(=O)(=O)[N-]c2cc(S(=O)(=O)N3CCOCC3)ccc2[O-])cs1 (cis-trans isomerization)
C/N=c1\[n-]c(S(=O)(=O)[N-]c2cc(S(=O)(=O)N3CCOCC3)ccc2[O-])cs1 (3D coordinates assigned)
C/N=c1\[n-]c(S(=O)(=O)[N-]c2cc(S(=O)(=O)N3CCOCC3)ccc2[O-])cs1 (nonaromatic ring conformer: 89.87660060274852 kcal/mol)

>  <smiles>  (15) 
CN=c1[nH]c(S(=O)(=O)Nc2cc(S(=O)(=O)N3CCOCC3)ccc2O)cs1

>  <score_type>  (15) 
oracle

>  <origin>  (15) 
adgpu

>  <m_score__min__energy>  (15) 
-12.609999999999999

>  <m_primary>  (15) 
energy

$$$$
15:0
     RDKit          3D

 59 62  0  0  0  0  0  0  0  0999 V2000
   -5.8990   25.5900  -30.5820 O   0  0  0  0  0  0  0  0  0  0  0  0
   -4.9720   24.7740  -30.8350 C   0  0  0  0  0  0  0  0  0  0  0  0
   -5.3130   23.3940  -31.3590 C   0  0  0  0  0  0  0  0  0  0  0  0
   -4.1150   22.5870  -31.7120 N   0  0  0  0  0  0  0  0  0  0  0  0
   -4.1940   22.1620  -33.1430 C   0  0  0  0  0  0  0  0  0  0  0  0
   -3.6350   20.7580  -33.3920 C   0  0  0  0  0  0  0  0  0  0  0  0
   -4.3460   19.8140  -32.5310 N   0  0  0  0  0  0  0  0  0  0  0  0
   -4.9290   18.6270  -33.0860 C   0  0  0  0  0  0  0  0  0  0  0  0
   -4.0970   17.5690  -33.4770 C   0  0  0  0  0  0  0  0  0  0  0  0
   -4.6450   16.4130  -34.0400 C   0  0  0  0  0  0  0  0  0  0  0  0
   -6.0280   16.3130  -34.2170 C   0  0  0  0  0  0  0  0  0  0  0  0
   -6.8640   17.3620  -33.8250 C   0  0  0  0  0  0  0  0  0  0  0  0
   -6.3200   18.5230  -33.2630 C   0  0  0  0  0  0  0  0  0  0  0  0
   -7.3960   19.8260  -32.7720 Cl  0  0  0  0  0  0  0  0  0  0  0  0
   -4.6540   20.1850  -31.1490 C   0  0  0  0  0  0  0  0  0  0  0  0
   -3.8990   21.4640  -30.7540 C   0  0  0  0  0  0  0  0  0  0  0  0
   -3.6340   25.1190  -30.4490 N   0  0  0  0  0  0  0  0  0  0  0  0
   -2.8940   24.5480  -29.3640 C   0  0  0  0  0  0  0  0  0  0  0  0
   -3.5210   23.7580  -28.3890 C   0  0  0  0  0  0  0  0  0  0  0  0
   -2.7750   23.1940  -27.3520 C   0  0  0  0  0  0  0  0  0  0  0  0
   -1.3900   23.3890  -27.2920 C   0  0  0  0  0  0  0  0  0  0  0  0
   -0.4550   22.6950  -25.9690 S   0  0  0  0  0  0  0  0  0  0  0  0
   -1.1850   21.4950  -25.4320 O   0  0  0  0  0  0  0  0  0  0  0  0
    0.8640   22.2190  -26.5120 O   0  0  0  0  0  0  0  0  0  0  0  0
   -0.1520   23.8250  -24.6650 N   0  0  0  0  0  0  0  0  0  0  0  0
   -1.0480   24.9990  -24.6780 C   0  0  0  0  0  0  0  0  0  0  0  0
   -0.4670   26.1730  -25.4750 C   0  0  0  0  0  0  0  0  0  0  0  0
    0.8320   26.4860  -25.0240 O   0  0  0  0  0  0  0  0  0  0  0  0
    1.6900   25.4030  -25.3010 C   0  0  0  0  0  0  0  0  0  0  0  0
    1.2770   24.1590  -24.4990 C   0  0  0  0  0  0  0  0  0  0  0  0
   -0.7600   24.1620  -28.2760 C   0  0  0  0  0  0  0  0  0  0  0  0
   -1.5050   24.7200  -29.3190 C   0  0  0  0  0  0  0  0  0  0  0  0
   -5.8803   22.8567  -30.5847 H   0  0  0  0  0  0  0  0  0  0  0  0
   -5.8974   23.5305  -32.2808 H   0  0  0  0  0  0  0  0  0  0  0  0
   -3.2780   23.2130  -31.6370 H   0  0  0  0  0  0  0  0  0  0  0  0
   -5.2491   22.1774  -33.4536 H   0  0  0  0  0  0  0  0  0  0  0  0
   -3.5791   22.8644  -33.7249 H   0  0  0  0  0  0  0  0  0  0  0  0
   -3.7828   20.4818  -34.4464 H   0  0  0  0  0  0  0  0  0  0  0  0
   -2.5587   20.7362  -33.1658 H   0  0  0  0  0  0  0  0  0  0  0  0
   -3.0085   17.6487  -33.3402 H   0  0  0  0  0  0  0  0  0  0  0  0
   -3.9892   15.5835  -34.3432 H   0  0  0  0  0  0  0  0  0  0  0  0
   -6.4594   15.4062  -34.6660 H   0  0  0  0  0  0  0  0  0  0  0  0
   -7.9524   17.2752  -33.9584 H   0  0  0  0  0  0  0  0  0  0  0  0
   -5.7359   20.3592  -31.0535 H   0  0  0  0  0  0  0  0  0  0  0  0
   -4.3413   19.3673  -30.4830 H   0  0  0  0  0  0  0  0  0  0  0  0
   -4.2433   21.7811  -29.7586 H   0  0  0  0  0  0  0  0  0  0  0  0
   -2.8247   21.2276  -30.7605 H   0  0  0  0  0  0  0  0  0  0  0  0
   -4.6055   23.5820  -28.4416 H   0  0  0  0  0  0  0  0  0  0  0  0
   -3.2777   22.5940  -26.5791 H   0  0  0  0  0  0  0  0  0  0  0  0
   -2.0069   24.7058  -25.1304 H   0  0  0  0  0  0  0  0  0  0  0  0
   -1.1765   25.3326  -23.6377 H   0  0  0  0  0  0  0  0  0  0  0  0
   -0.4239   25.9006  -26.5399 H   0  0  0  0  0  0  0  0  0  0  0  0
   -1.1128   27.0520  -25.3323 H   0  0  0  0  0  0  0  0  0  0  0  0
    1.6427   25.1713  -26.3753 H   0  0  0  0  0  0  0  0  0  0  0  0
    2.7143   25.6830  -25.0138 H   0  0  0  0  0  0  0  0  0  0  0  0
    1.8804   23.3044  -24.8389 H   0  0  0  0  0  0  0  0  0  0  0  0
    1.4466   24.3775  -23.4343 H   0  0  0  0  0  0  0  0  0  0  0  0
    0.3259   24.3307  -28.2277 H   0  0  0  0  0  0  0  0  0  0  0  0
   -0.9983   25.2962  -30.1072 H   0  0  0  0  0  0  0  0  0  0  0  0
  1  2  2  0
  2  3  1  0
  3  4  1  0
  4  5  1  0
  5  6  1  0
  6  7  1  0
  7  8  1  0
  8  9  2  0
  9 10  1  0
 10 11  2  0
 11 12  1  0
 12 13  2  0
 13 14  1  0
  7 15  1  0
 15 16  1  0
  2 17  1  0
 17 18  1  0
 18 19  2  0
 19 20  1  0
 20 21  2  0
 21 22  1  0
 22 23  2  0
 22 24  2  0
 22 25  1  0
 25 26  1  0
 26 27  1  0
 27 28  1  0
 28 29  1  0
 29 30  1  0
 21 31  1  0
 31 32  2  0
 16  4  1  0
 32 18  1  0
 13  8  1  0
 30 25  1  0
  3 33  1  0
  3 34  1  0
  4 35  1  0
  5 36  1  0
  5 37  1  0
  6 38  1  0
  6 39  1  0
  9 40  1  0
 10 41  1  0
 11 42  1  0
 12 43  1  0
 15 44  1  0
 15 45  1  0
 16 46  1  0
 16 47  1  0
 19 48  1  0
 20 49  1  0
 26 50  1  0
 26 51  1  0
 27 52  1  0
 27 53  1  0
 29 54  1  0
 29 55  1  0
 30 56  1  0
 30 57  1  0
 31 58  1  0
 32 59  1  0
M  CHG  2   4   1  17  -1
M  END
>  <UniqueID>  (16) 
15

>  <SMILES>  (16) 
O=C(C[NH+]1CCN(c2ccccc2Cl)CC1)[N-]c1ccc(S(=O)(=O)N2CCOCC2)cc1

>  <Energy>  (16) 
87.45334813539414

>  <Genealogy>  (16) 
O=C(C[NH+]1CCN(c2ccccc2Cl)CC1)[N-]c1ccc(S(=O)(=O)N2CCOCC2)cc1 (protonated)
O=C(C[NH+]1CCN(c2ccccc2Cl)CC1)[N-]c1ccc(S(=O)(=O)N2CCOCC2)cc1 (3D coordinates assigned)
O=C(C[NH+]1CCN(c2ccccc2Cl)CC1)[N-]c1ccc(S(=O)(=O)N2CCOCC2)cc1 (nonaromatic ring conformer: 87.45334813539414 kcal/mol)

>  <smiles>  (16) 
O=C(CN1CCN(c2ccccc2Cl)CC1)Nc1ccc(S(=O)(=O)N2CCOCC2)cc1

>  <score_type>  (16) 
oracle

>  <origin>  (16) 
adgpu

>  <m_score__min__energy>  (16) 
-10.41

>  <m_primary>  (16) 
energy

$$$$
16:0
     RDKit          3D

 66 70  0  0  0  0  0  0  0  0999 V2000
   -5.7000   18.1030  -35.3530 O   0  0  0  0  0  0  0  0  0  0  0  0
   -5.4100   18.7410  -34.3080 C   0  0  0  0  0  0  0  0  0  0  0  0
   -4.0570   19.1860  -34.1380 N   0  0  0  0  0  0  0  0  0  0  0  0
   -2.9890   18.4520  -33.5220 C   0  0  0  0  0  0  0  0  0  0  0  0
   -2.8240   17.0760  -33.7580 C   0  0  0  0  0  0  0  0  0  0  0  0
   -1.7720   16.3740  -33.1610 C   0  0  0  0  0  0  0  0  0  0  0  0
   -1.6710   14.6270  -33.3660 S   0  0  0  0  0  0  0  0  0  0  0  0
   -0.9060   14.0170  -32.2260 O   0  0  0  0  0  0  0  0  0  0  0  0
   -0.9490   14.3310  -34.6500 O   0  0  0  0  0  0  0  0  0  0  0  0
   -3.2840   13.9530  -33.4240 N   0  0  0  0  0  0  0  0  0  0  0  0
   -3.9530   14.3680  -34.6800 C   0  0  0  0  0  0  0  0  0  0  0  0
   -5.4760   14.2560  -34.5740 C   0  0  0  0  0  0  0  0  0  0  0  0
   -6.0200   15.1940  -33.4820 C   0  0  0  0  0  0  0  0  0  0  0  0
   -4.9930   15.4690  -32.3680 C   0  0  0  0  0  0  0  0  0  0  0  0
   -4.0400   14.2780  -32.1870 C   0  0  0  0  0  0  0  0  0  0  0  0
   -0.8550   17.0540  -32.3530 C   0  0  0  0  0  0  0  0  0  0  0  0
   -0.9940   18.4260  -32.1350 C   0  0  0  0  0  0  0  0  0  0  0  0
   -2.0580   19.1350  -32.7130 C   0  0  0  0  0  0  0  0  0  0  0  0
   -2.2350   20.5300  -32.4070 N   0  0  0  0  0  0  0  0  0  0  0  0
   -2.1090   20.9960  -31.0170 C   0  0  0  0  0  0  0  0  0  0  0  0
   -2.5090   22.4690  -30.8850 C   0  0  0  0  0  0  0  0  0  0  0  0
   -3.7360   22.7150  -31.6510 N   0  0  0  0  0  0  0  0  0  0  0  0
   -4.8590   23.3640  -31.0350 C   0  0  0  0  0  0  0  0  0  0  0  0
   -6.1070   22.7210  -31.0010 C   0  0  0  0  0  0  0  0  0  0  0  0
   -7.2050   23.3450  -30.3970 C   0  0  0  0  0  0  0  0  0  0  0  0
   -7.0660   24.6170  -29.8370 C   0  0  0  0  0  0  0  0  0  0  0  0
   -5.8250   25.2610  -29.8650 C   0  0  0  0  0  0  0  0  0  0  0  0
   -4.7210   24.6400  -30.4610 C   0  0  0  0  0  0  0  0  0  0  0  0
   -3.4980   25.2990  -30.4910 O   0  0  0  0  0  0  0  0  0  0  0  0
   -3.8410   22.2680  -33.0480 C   0  0  0  0  0  0  0  0  0  0  0  0
   -2.6030   21.4740  -33.4720 C   0  0  0  0  0  0  0  0  0  0  0  0
   -6.4820   19.0600  -33.3320 C   0  0  0  0  0  0  0  0  0  0  0  0
   -7.0410   20.3500  -33.2540 C   0  0  0  0  0  0  0  0  0  0  0  0
   -8.0980   20.6090  -32.3800 C   0  0  0  0  0  0  0  0  0  0  0  0
   -8.6050   19.5740  -31.5940 C   0  0  0  0  0  0  0  0  0  0  0  0
   -8.0580   18.3310  -31.6780 N   0  0  0  0  0  0  0  0  0  0  0  0
   -7.0270   18.0520  -32.5210 C   0  0  0  0  0  0  0  0  0  0  0  0
   -3.5279   16.5473  -34.4175 H   0  0  0  0  0  0  0  0  0  0  0  0
   -3.6867   15.4129  -34.8973 H   0  0  0  0  0  0  0  0  0  0  0  0
   -3.6152   13.6994  -35.4855 H   0  0  0  0  0  0  0  0  0  0  0  0
   -5.9255   14.5290  -35.5402 H   0  0  0  0  0  0  0  0  0  0  0  0
   -5.7350   13.2202  -34.3092 H   0  0  0  0  0  0  0  0  0  0  0  0
   -6.2990   16.1509  -33.9472 H   0  0  0  0  0  0  0  0  0  0  0  0
   -6.8863   14.6981  -33.0198 H   0  0  0  0  0  0  0  0  0  0  0  0
   -4.4065   16.3612  -32.6325 H   0  0  0  0  0  0  0  0  0  0  0  0
   -5.5357   15.6283  -31.4245 H   0  0  0  0  0  0  0  0  0  0  0  0
   -3.3220   14.5203  -31.3896 H   0  0  0  0  0  0  0  0  0  0  0  0
   -4.6516   13.4000  -31.9321 H   0  0  0  0  0  0  0  0  0  0  0  0
   -0.0220   16.5063  -31.8880 H   0  0  0  0  0  0  0  0  0  0  0  0
   -0.2637   18.9553  -31.5052 H   0  0  0  0  0  0  0  0  0  0  0  0
   -2.7632   20.3882  -30.3747 H   0  0  0  0  0  0  0  0  0  0  0  0
   -1.0576   20.8930  -30.7104 H   0  0  0  0  0  0  0  0  0  0  0  0
   -2.6845   22.7074  -29.8256 H   0  0  0  0  0  0  0  0  0  0  0  0
   -1.7003   23.1042  -31.2756 H   0  0  0  0  0  0  0  0  0  0  0  0
   -6.2222   21.7237  -31.4505 H   0  0  0  0  0  0  0  0  0  0  0  0
   -8.1781   22.8331  -30.3634 H   0  0  0  0  0  0  0  0  0  0  0  0
   -7.9324   25.1120  -29.3741 H   0  0  0  0  0  0  0  0  0  0  0  0
   -5.7159   26.2596  -29.4169 H   0  0  0  0  0  0  0  0  0  0  0  0
   -4.7302   21.6291  -33.1540 H   0  0  0  0  0  0  0  0  0  0  0  0
   -3.9213   23.1563  -33.6918 H   0  0  0  0  0  0  0  0  0  0  0  0
   -2.8233   20.9173  -34.3948 H   0  0  0  0  0  0  0  0  0  0  0  0
   -1.7677   22.1670  -33.6510 H   0  0  0  0  0  0  0  0  0  0  0  0
   -6.6426   21.1580  -33.8852 H   0  0  0  0  0  0  0  0  0  0  0  0
   -8.5271   21.6195  -32.3116 H   0  0  0  0  0  0  0  0  0  0  0  0
   -9.4444   19.7622  -30.9084 H   0  0  0  0  0  0  0  0  0  0  0  0
   -6.6186   17.0317  -32.5673 H   0  0  0  0  0  0  0  0  0  0  0  0
  1  2  2  0
  2  3  1  0
  3  4  1  0
  4  5  2  0
  5  6  1  0
  6  7  1  0
  7  8  2  0
  7  9  2  0
  7 10  1  0
 10 11  1  0
 11 12  1  0
 12 13  1  0
 13 14  1  0
 14 15  1  0
  6 16  2  0
 16 17  1  0
 17 18  2  0
 18 19  1  0
 19 20  1  0
 20 21  1  0
 21 22  1  0
 22 23  1  0
 23 24  2  0
 24 25  1  0
 25 26  2  0
 26 27  1  0
 27 28  2  0
 28 29  1  0
 22 30  1  0
 30 31  1  0
  2 32  1  0
 32 33  2  0
 33 34  1  0
 34 35  2  0
 35 36  1  0
 36 37  2  0
 18  4  1  0
 31 19  1  0
 37 32  1  0
 15 10  1  0
 28 23  1  0
  5 38  1  0
 11 39  1  0
 11 40  1  0
 12 41  1  0
 12 42  1  0
 13 43  1  0
 13 44  1  0
 14 45  1  0
 14 46  1  0
 15 47  1  0
 15 48  1  0
 16 49  1  0
 17 50  1  0
 20 51  1  0
 20 52  1  0
 21 53  1  0
 21 54  1  0
 24 55  1  0
 25 56  1  0
 26 57  1  0
 27 58  1  0
 30 59  1  0
 30 60  1  0
 31 61  1  0
 31 62  1  0
 33 63  1  0
 34 64  1  0
 35 65  1  0
 37 66  1  0
M  CHG  2   3  -1  29  -1
M  END
>  <UniqueID>  (17) 
16

>  <SMILES>  (17) 
O=C([N-]c1cc(S(=O)(=O)N2CCCCC2)ccc1N1CCN(c2ccccc2[O-])CC1)c1cccnc1

>  <Energy>  (17) 
91.4834275678228

>  <Genealogy>  (17) 
O=C([N-]c1cc(S(=O)(=O)N2CCCCC2)ccc1N1CCN(c2ccccc2[O-])CC1)c1cccnc1 (protonated)
O=C([N-]c1cc(S(=O)(=O)N2CCCCC2)ccc1N1CCN(c2ccccc2[O-])CC1)c1cccnc1 (3D coordinates assigned)
O=C([N-]c1cc(S(=O)(=O)N2CCCCC2)ccc1N1CCN(c2ccccc2[O-])CC1)c1cccnc1 (nonaromatic ring conformer: 91.4834275678228 kcal/mol)

>  <smiles>  (17) 
O=C(Nc1cc(S(=O)(=O)N2CCCCC2)ccc1N1CCN(c2ccccc2O)CC1)c1cccnc1

>  <score_type>  (17) 
oracle

>  <origin>  (17) 
adgpu

>  <m_score__min__energy>  (17) 
-14.34

>  <m_primary>  (17) 
energy

$$$$
17:0
     RDKit          3D

 51 55  0  0  0  0  0  0  0  0999 V2000
   -0.4770   23.4660  -28.6580 C   0  0  0  0  0  0  0  0  0  0  0  0
   -1.3950   22.9720  -29.7240 C   0  0  0  0  0  0  0  0  0  0  0  0
   -2.7330   23.3270  -29.8590 C   0  0  0  0  0  0  0  0  0  0  0  0
   -3.1720   22.6060  -30.9510 C   0  0  0  0  0  0  0  0  0  0  0  0
   -4.4210   22.5460  -31.5840 C   0  0  0  0  0  0  0  0  0  0  0  0
   -5.5640   23.2630  -31.0760 N   0  0  0  0  0  0  0  0  0  0  0  0
   -6.0740   22.9680  -29.7280 C   0  0  0  0  0  0  0  0  0  0  0  0
   -7.5840   22.6830  -29.7810 C   0  0  0  0  0  0  0  0  0  0  0  0
   -7.9460   22.2130  -31.1320 N   0  0  0  0  0  0  0  0  0  0  0  0
   -9.2750   21.5630  -31.1810 C   0  0  0  0  0  0  0  0  0  0  0  0
   -9.3200   20.5710  -32.3490 C   0  0  0  0  0  0  0  0  0  0  0  0
   -8.1150   19.6650  -32.3410 C   0  0  0  0  0  0  0  0  0  0  0  0
   -7.9540   18.7100  -31.3080 C   0  0  0  0  0  0  0  0  0  0  0  0
   -6.9090   17.7730  -31.3510 C   0  0  0  0  0  0  0  0  0  0  0  0
   -6.0270   17.8020  -32.4320 C   0  0  0  0  0  0  0  0  0  0  0  0
   -4.9870   16.9480  -32.6080 N   0  0  0  0  0  0  0  0  0  0  0  0
   -4.3240   17.2160  -33.7560 C   0  0  0  0  0  0  0  0  0  0  0  0
   -3.3220   16.5600  -34.1410 O   0  0  0  0  0  0  0  0  0  0  0  0
   -4.9910   18.5180  -34.6060 S   0  0  0  0  0  0  0  0  0  0  0  0
   -6.1830   18.7430  -33.4400 C   0  0  0  0  0  0  0  0  0  0  0  0
   -7.2120   19.6800  -33.4240 C   0  0  0  0  0  0  0  0  0  0  0  0
   -7.7940   23.2870  -32.1350 C   0  0  0  0  0  0  0  0  0  0  0  0
   -6.4430   24.0170  -31.9770 C   0  0  0  0  0  0  0  0  0  0  0  0
   -4.5280   21.7070  -32.7190 C   0  0  0  0  0  0  0  0  0  0  0  0
   -3.4180   20.9630  -33.1730 C   0  0  0  0  0  0  0  0  0  0  0  0
   -2.1830   21.0450  -32.5090 C   0  0  0  0  0  0  0  0  0  0  0  0
   -2.0950   21.8820  -31.4000 C   0  0  0  0  0  0  0  0  0  0  0  0
   -1.0420   22.1050  -30.6540 O   0  0  0  0  0  0  0  0  0  0  0  0
   -0.9042   23.2361  -27.6707 H   0  0  0  0  0  0  0  0  0  0  0  0
    0.5008   22.9723  -28.7584 H   0  0  0  0  0  0  0  0  0  0  0  0
   -0.3504   24.5541  -28.7584 H   0  0  0  0  0  0  0  0  0  0  0  0
   -3.3111   24.0251  -29.2358 H   0  0  0  0  0  0  0  0  0  0  0  0
   -5.5519   22.0867  -29.3270 H   0  0  0  0  0  0  0  0  0  0  0  0
   -5.8960   23.8381  -29.0790 H   0  0  0  0  0  0  0  0  0  0  0  0
   -7.8375   21.9082  -29.0425 H   0  0  0  0  0  0  0  0  0  0  0  0
   -8.1404   23.6035  -29.5504 H   0  0  0  0  0  0  0  0  0  0  0  0
   -9.4550   21.0263  -30.2378 H   0  0  0  0  0  0  0  0  0  0  0  0
  -10.0513   22.3294  -31.3227 H   0  0  0  0  0  0  0  0  0  0  0  0
  -10.2299   19.9587  -32.2649 H   0  0  0  0  0  0  0  0  0  0  0  0
   -9.3216   21.1405  -33.2901 H   0  0  0  0  0  0  0  0  0  0  0  0
   -8.6562   18.7020  -30.4614 H   0  0  0  0  0  0  0  0  0  0  0  0
   -6.7880   17.0307  -30.5483 H   0  0  0  0  0  0  0  0  0  0  0  0
   -4.7320   16.1800  -31.9470 H   0  0  0  0  0  0  0  0  0  0  0  0
   -7.3183   20.4142  -34.2362 H   0  0  0  0  0  0  0  0  0  0  0  0
   -7.8476   22.8469  -33.1417 H   0  0  0  0  0  0  0  0  0  0  0  0
   -8.6024   24.0178  -31.9854 H   0  0  0  0  0  0  0  0  0  0  0  0
   -5.9618   24.1088  -32.9619 H   0  0  0  0  0  0  0  0  0  0  0  0
   -6.6214   25.0161  -31.5527 H   0  0  0  0  0  0  0  0  0  0  0  0
   -5.4869   21.6341  -33.2531 H   0  0  0  0  0  0  0  0  0  0  0  0
   -3.5209   20.3132  -34.0546 H   0  0  0  0  0  0  0  0  0  0  0  0
   -1.3134   20.4665  -32.8541 H   0  0  0  0  0  0  0  0  0  0  0  0
  1  2  1  0
  2  3  2  0
  3  4  1  0
  4  5  2  0
  5  6  1  0
  6  7  1  0
  7  8  1  0
  8  9  1  0
  9 10  1  0
 10 11  1  0
 11 12  1  0
 12 13  2  0
 13 14  1  0
 14 15  2  0
 15 16  1  0
 16 17  1  0
 17 18  2  0
 17 19  1  0
 19 20  1  0
 20 21  2  0
  9 22  1  0
 22 23  1  0
  5 24  1  0
 24 25  2  0
 25 26  1  0
 26 27  2  0
 27 28  1  0
 28  2  1  0
 27  4  1  0
 23  6  1  0
 21 12  1  0
 20 15  1  0
  1 29  1  0
  1 30  1  0
  1 31  1  0
  3 32  1  0
  7 33  1  0
  7 34  1  0
  8 35  1  0
  8 36  1  0
 10 37  1  0
 10 38  1  0
 11 39  1  0
 11 40  1  0
 13 41  1  0
 14 42  1  0
 16 43  1  0
 21 44  1  0
 22 45  1  0
 22 46  1  0
 23 47  1  0
 23 48  1  0
 24 49  1  0
 25 50  1  0
 26 51  1  0
M  END
>  <UniqueID>  (18) 
17

>  <SMILES>  (18) 
Cc1cc2c(N3CCN(CCc4ccc5[nH]c(=O)sc5c4)CC3)cccc2o1

>  <Energy>  (18) 
131.5320181525087

>  <Genealogy>  (18) 
Cc1cc2c(N3CCN(CCc4ccc5[nH]c(=O)sc5c4)CC3)cccc2o1 (3D coordinates assigned)
Cc1cc2c(N3CCN(CCc4ccc5[nH]c(=O)sc5c4)CC3)cccc2o1 (nonaromatic ring conformer: 131.5320181525087 kcal/mol)

>  <smiles>  (18) 
Cc1cc2c(N3CCN(CCc4ccc5[nH]c(=O)sc5c4)CC3)cccc2o1

>  <score_type>  (18) 
oracle

>  <origin>  (18) 
adgpu

>  <m_score__min__energy>  (18) 
-9.6999999999999993

>  <m_primary>  (18) 
energy

$$$$
18:0
     RDKit          3D

 52 55  0  0  0  0  0  0  0  0999 V2000
   -8.7760   18.7540  -30.8420 O   0  0  0  0  0  0  0  0  0  0  0  0
   -8.4190   19.3940  -32.1540 S   0  0  0  0  0  0  0  0  0  0  0  0
   -9.6050   19.2740  -33.0710 O   0  0  0  0  0  0  0  0  0  0  0  0
   -7.0310   18.5810  -32.8630 C   0  0  0  0  0  0  0  0  0  0  0  0
   -6.4290   19.0840  -34.0200 C   0  0  0  0  0  0  0  0  0  0  0  0
   -5.3150   18.4430  -34.5630 C   0  0  0  0  0  0  0  0  0  0  0  0
   -4.7970   17.2950  -33.9350 C   0  0  0  0  0  0  0  0  0  0  0  0
   -3.6440   16.6000  -34.4600 N   0  0  0  0  0  0  0  0  0  0  0  0
   -3.7540   15.2230  -34.9590 C   0  0  0  0  0  0  0  0  0  0  0  0
   -2.6610   14.9430  -35.9950 C   0  0  0  0  0  0  0  0  0  0  0  0
   -1.3870   15.3000  -35.4930 O   0  0  0  0  0  0  0  0  0  0  0  0
   -1.3320   16.6990  -35.3000 C   0  0  0  0  0  0  0  0  0  0  0  0
   -2.3010   17.1340  -34.1970 C   0  0  0  0  0  0  0  0  0  0  0  0
   -5.4050   16.8310  -32.8050 N   0  0  0  0  0  0  0  0  0  0  0  0
   -6.4920   17.4400  -32.2620 C   0  0  0  0  0  0  0  0  0  0  0  0
   -8.0210   21.0880  -31.9020 C   0  0  0  0  0  0  0  0  0  0  0  0
   -8.9730   22.0850  -32.1560 C   0  0  0  0  0  0  0  0  0  0  0  0
   -8.6470   23.4310  -31.9710 C   0  0  0  0  0  0  0  0  0  0  0  0
   -7.3680   23.7890  -31.5400 C   0  0  0  0  0  0  0  0  0  0  0  0
   -6.4030   22.8010  -31.3000 C   0  0  0  0  0  0  0  0  0  0  0  0
   -4.7930   23.2440  -30.7410 S   0  0  0  0  0  0  0  0  0  0  0  0
   -4.6500   22.9050  -29.2820 O   0  0  0  0  0  0  0  0  0  0  0  0
   -4.6040   24.7270  -30.9080 O   0  0  0  0  0  0  0  0  0  0  0  0
   -3.6000   22.3950  -31.6900 N   0  0  0  0  0  0  0  0  0  0  0  0
   -4.1160   22.0600  -33.0170 C   0  0  0  0  0  0  0  0  0  0  0  0
   -3.3640   20.8200  -33.4740 C   0  0  0  0  0  0  0  0  0  0  0  0
   -2.7970   20.2010  -32.2060 C   0  0  0  0  0  0  0  0  0  0  0  0
   -3.2440   21.1150  -31.0760 C   0  0  0  0  0  0  0  0  0  0  0  0
   -6.7350   21.4510  -31.4780 C   0  0  0  0  0  0  0  0  0  0  0  0
   -6.8338   19.9858  -34.5027 H   0  0  0  0  0  0  0  0  0  0  0  0
   -4.8440   18.8330  -35.4774 H   0  0  0  0  0  0  0  0  0  0  0  0
   -3.6445   14.5226  -34.1179 H   0  0  0  0  0  0  0  0  0  0  0  0
   -4.7379   15.0923  -35.4332 H   0  0  0  0  0  0  0  0  0  0  0  0
   -2.6638   13.8708  -36.2409 H   0  0  0  0  0  0  0  0  0  0  0  0
   -2.8659   15.5435  -36.8936 H   0  0  0  0  0  0  0  0  0  0  0  0
   -0.3087   16.9837  -35.0140 H   0  0  0  0  0  0  0  0  0  0  0  0
   -1.6195   17.1960  -36.2382 H   0  0  0  0  0  0  0  0  0  0  0  0
   -1.9427   16.7548  -33.2286 H   0  0  0  0  0  0  0  0  0  0  0  0
   -2.3501   18.2327  -34.1760 H   0  0  0  0  0  0  0  0  0  0  0  0
   -6.9486   17.0339  -31.3473 H   0  0  0  0  0  0  0  0  0  0  0  0
   -9.9795   21.8070  -32.5019 H   0  0  0  0  0  0  0  0  0  0  0  0
   -9.3991   24.2099  -32.1652 H   0  0  0  0  0  0  0  0  0  0  0  0
   -7.1170   24.8492  -31.3884 H   0  0  0  0  0  0  0  0  0  0  0  0
   -5.1948   21.8517  -32.9635 H   0  0  0  0  0  0  0  0  0  0  0  0
   -3.9728   22.8932  -33.7208 H   0  0  0  0  0  0  0  0  0  0  0  0
   -4.0477   20.1173  -33.9728 H   0  0  0  0  0  0  0  0  0  0  0  0
   -2.5733   21.0650  -34.1984 H   0  0  0  0  0  0  0  0  0  0  0  0
   -3.1963   19.1863  -32.0612 H   0  0  0  0  0  0  0  0  0  0  0  0
   -1.7017   20.1098  -32.2496 H   0  0  0  0  0  0  0  0  0  0  0  0
   -4.1163   20.6848  -30.5623 H   0  0  0  0  0  0  0  0  0  0  0  0
   -2.4467   21.2414  -30.3288 H   0  0  0  0  0  0  0  0  0  0  0  0
   -5.9827   20.6723  -31.2840 H   0  0  0  0  0  0  0  0  0  0  0  0
  1  2  2  0
  2  3  2  0
  2  4  1  0
  4  5  2  0
  5  6  1  0
  6  7  2  0
  7  8  1  0
  8  9  1  0
  9 10  1  0
 10 11  1  0
 11 12  1  0
 12 13  1  0
  7 14  1  0
 14 15  2  0
  2 16  1  0
 16 17  2  0
 17 18  1  0
 18 19  2  0
 19 20  1  0
 20 21  1  0
 21 22  2  0
 21 23  2  0
 21 24  1  0
 24 25  1  0
 25 26  1  0
 26 27  1  0
 27 28  1  0
 20 29  2  0
 15  4  1  0
 29 16  1  0
 13  8  1  0
 28 24  1  0
  5 30  1  0
  6 31  1  0
  9 32  1  0
  9 33  1  0
 10 34  1  0
 10 35  1  0
 12 36  1  0
 12 37  1  0
 13 38  1  0
 13 39  1  0
 15 40  1  0
 17 41  1  0
 18 42  1  0
 19 43  1  0
 25 44  1  0
 25 45  1  0
 26 46  1  0
 26 47  1  0
 27 48  1  0
 27 49  1  0
 28 50  1  0
 28 51  1  0
 29 52  1  0
M  END
>  <UniqueID>  (19) 
18

>  <SMILES>  (19) 
O=S(=O)(c1ccc(N2CCOCC2)nc1)c1cccc(S(=O)(=O)N2CCCC2)c1

>  <Energy>  (19) 
61.13676922311485

>  <Genealogy>  (19) 
O=S(=O)(c1ccc(N2CCOCC2)nc1)c1cccc(S(=O)(=O)N2CCCC2)c1 (3D coordinates assigned)
O=S(=O)(c1ccc(N2CCOCC2)nc1)c1cccc(S(=O)(=O)N2CCCC2)c1 (nonaromatic ring conformer: 61.13676922311485 kcal/mol)

>  <smiles>  (19) 
O=S(=O)(c1ccc(N2CCOCC2)nc1)c1cccc(S(=O)(=O)N2CCCC2)c1

>  <score_type>  (19) 
oracle

>  <origin>  (19) 
adgpu

>  <m_score__min__energy>  (19) 
-9.8200000000000003

>  <m_primary>  (19) 
energy

$$$$
19:0
     RDKit          3D

 43 45  0  0  0  0  0  0  0  0999 V2000
   -9.0990   20.1240  -32.0810 C   0  0  0  0  0  0  0  0  0  0  0  0
   -7.3730   19.7430  -32.5080 S   0  0  0  0  0  0  0  0  0  0  0  0
   -6.7600   21.3170  -31.9170 C   0  0  0  0  0  0  0  0  0  0  0  0
   -7.1090   21.7590  -30.6830 N   0  0  0  0  0  0  0  0  0  0  0  0
   -6.6550   22.9500  -30.2130 C   0  0  0  0  0  0  0  0  0  0  0  0
   -5.8150   23.7480  -31.0050 C   0  0  0  0  0  0  0  0  0  0  0  0
   -5.3100   25.0500  -30.5180 C   0  0  0  0  0  0  0  0  0  0  0  0
   -6.1180   25.9210  -30.0930 O   0  0  0  0  0  0  0  0  0  0  0  0
   -3.9000   25.3050  -30.4790 N   0  0  0  0  0  0  0  0  0  0  0  0
   -2.9030   24.4130  -29.9620 C   0  0  0  0  0  0  0  0  0  0  0  0
   -2.9970   23.0510  -30.2770 C   0  0  0  0  0  0  0  0  0  0  0  0
   -2.0440   22.1410  -29.8030 C   0  0  0  0  0  0  0  0  0  0  0  0
   -2.1930   20.4350  -30.2150 S   0  0  0  0  0  0  0  0  0  0  0  0
   -3.6530   20.1020  -30.3400 O   0  0  0  0  0  0  0  0  0  0  0  0
   -1.6000   19.5910  -29.1210 O   0  0  0  0  0  0  0  0  0  0  0  0
   -1.3700   20.1440  -31.7320 N   0  0  0  0  0  0  0  0  0  0  0  0
   -1.4190   21.3230  -32.6150 C   0  0  0  0  0  0  0  0  0  0  0  0
   -2.8160   21.5230  -33.2500 C   0  0  0  0  0  0  0  0  0  0  0  0
   -3.6340   20.3680  -33.1960 O   0  0  0  0  0  0  0  0  0  0  0  0
   -2.8810   19.2210  -33.5170 C   0  0  0  0  0  0  0  0  0  0  0  0
   -1.8640   18.9200  -32.4020 C   0  0  0  0  0  0  0  0  0  0  0  0
   -0.9720   22.6020  -29.0280 C   0  0  0  0  0  0  0  0  0  0  0  0
   -0.8510   23.9630  -28.7390 C   0  0  0  0  0  0  0  0  0  0  0  0
   -1.8000   24.8730  -29.2140 C   0  0  0  0  0  0  0  0  0  0  0  0
   -1.6170   26.2290  -28.9680 O   0  0  0  0  0  0  0  0  0  0  0  0
   -5.4720   23.2650  -32.2770 C   0  0  0  0  0  0  0  0  0  0  0  0
   -5.9490   22.0680  -32.7050 N   0  0  0  0  0  0  0  0  0  0  0  0
   -9.2092   20.1483  -30.9868 H   0  0  0  0  0  0  0  0  0  0  0  0
   -9.3723   21.1041  -32.4989 H   0  0  0  0  0  0  0  0  0  0  0  0
   -9.7595   19.3500  -32.4989 H   0  0  0  0  0  0  0  0  0  0  0  0
   -6.9467   23.2900  -29.2084 H   0  0  0  0  0  0  0  0  0  0  0  0
   -3.8277   22.6929  -30.9029 H   0  0  0  0  0  0  0  0  0  0  0  0
   -1.1669   22.2170  -32.0258 H   0  0  0  0  0  0  0  0  0  0  0  0
   -0.6983   21.1631  -33.4305 H   0  0  0  0  0  0  0  0  0  0  0  0
   -3.3277   22.3369  -32.7154 H   0  0  0  0  0  0  0  0  0  0  0  0
   -2.6567   21.7561  -34.3132 H   0  0  0  0  0  0  0  0  0  0  0  0
   -3.5589   18.3623  -33.6313 H   0  0  0  0  0  0  0  0  0  0  0  0
   -2.3385   19.4008  -34.4569 H   0  0  0  0  0  0  0  0  0  0  0  0
   -2.3461   18.2778  -31.6503 H   0  0  0  0  0  0  0  0  0  0  0  0
   -0.9991   18.4243  -32.8670 H   0  0  0  0  0  0  0  0  0  0  0  0
   -0.2244   21.8910  -28.6465 H   0  0  0  0  0  0  0  0  0  0  0  0
   -0.0045   24.3208  -28.1345 H   0  0  0  0  0  0  0  0  0  0  0  0
   -4.8145   23.8581  -32.9296 H   0  0  0  0  0  0  0  0  0  0  0  0
  1  2  1  0
  2  3  1  0
  3  4  2  0
  4  5  1  0
  5  6  2  0
  6  7  1  0
  7  8  2  0
  7  9  1  0
  9 10  1  0
 10 11  2  0
 11 12  1  0
 12 13  1  0
 13 14  2  0
 13 15  2  0
 13 16  1  0
 16 17  1  0
 17 18  1  0
 18 19  1  0
 19 20  1  0
 20 21  1  0
 12 22  2  0
 22 23  1  0
 23 24  2  0
 24 25  1  0
  6 26  1  0
 26 27  2  0
 27  3  1  0
 24 10  1  0
 21 16  1  0
  1 28  1  0
  1 29  1  0
  1 30  1  0
  5 31  1  0
 11 32  1  0
 17 33  1  0
 17 34  1  0
 18 35  1  0
 18 36  1  0
 20 37  1  0
 20 38  1  0
 21 39  1  0
 21 40  1  0
 22 41  1  0
 23 42  1  0
 26 43  1  0
M  CHG  2   9  -1  25  -1
M  END
>  <UniqueID>  (20) 
19

>  <SMILES>  (20) 
CSc1ncc(C(=O)[N-]c2cc(S(=O)(=O)N3CCOCC3)ccc2[O-])cn1

>  <Energy>  (20) 
58.75123520289862

>  <Genealogy>  (20) 
CSc1ncc(C(=O)[N-]c2cc(S(=O)(=O)N3CCOCC3)ccc2[O-])cn1 (protonated)
CSc1ncc(C(=O)[N-]c2cc(S(=O)(=O)N3CCOCC3)ccc2[O-])cn1 (3D coordinates assigned)
CSc1ncc(C(=O)[N-]c2cc(S(=O)(=O)N3CCOCC3)ccc2[O-])cn1 (nonaromatic ring conformer: 58.75123520289862 kcal/mol)

>  <smiles>  (20) 
CSc1ncc(C(=O)Nc2cc(S(=O)(=O)N3CCOCC3)ccc2O)cn1

>  <score_type>  (20) 
oracle

>  <origin>  (20) 
adgpu

>  <m_score__min__energy>  (20) 
-12.59

>  <m_primary>  (20) 
energy

$$$$
20:0
     RDKit          3D

 44 46  0  0  0  0  0  0  0  0999 V2000
   -4.8030   24.4850  -28.2940 N   0  0  0  0  0  0  0  0  0  0  0  0
   -3.7820   24.5380  -29.6890 S   0  0  0  0  0  0  0  0  0  0  0  0
   -4.4660   25.3240  -30.7710 O   0  0  0  0  0  0  0  0  0  0  0  0
   -2.4830   25.2110  -29.3440 O   0  0  0  0  0  0  0  0  0  0  0  0
   -3.4620   22.8960  -30.2360 C   0  0  0  0  0  0  0  0  0  0  0  0
   -2.5910   22.0560  -29.5300 C   0  0  0  0  0  0  0  0  0  0  0  0
   -2.3420   20.7590  -29.9870 C   0  0  0  0  0  0  0  0  0  0  0  0
   -2.9430   20.3020  -31.1640 C   0  0  0  0  0  0  0  0  0  0  0  0
   -3.7860   21.1450  -31.8990 C   0  0  0  0  0  0  0  0  0  0  0  0
   -4.3890   20.6470  -33.1050 N   0  0  0  0  0  0  0  0  0  0  0  0
   -5.6640   20.5520  -33.3660 C   0  0  0  0  0  0  0  0  0  0  0  0
   -6.7300   21.1100  -32.5000 C   0  0  0  0  0  0  0  0  0  0  0  0
   -7.0010   22.4900  -32.5380 C   0  0  0  0  0  0  0  0  0  0  0  0
   -8.0200   23.0340  -31.7560 C   0  0  0  0  0  0  0  0  0  0  0  0
   -8.7910   22.2070  -30.9410 C   0  0  0  0  0  0  0  0  0  0  0  0
   -8.5500   20.8330  -30.9090 C   0  0  0  0  0  0  0  0  0  0  0  0
   -7.5250   20.2640  -31.6900 C   0  0  0  0  0  0  0  0  0  0  0  0
   -7.2600   18.8470  -31.6350 N   0  0  0  0  0  0  0  0  0  0  0  0
   -7.5110   17.9270  -32.7450 C   0  0  0  0  0  0  0  0  0  0  0  0
   -6.2180   17.3370  -33.2440 C   0  0  0  0  0  0  0  0  0  0  0  0
   -5.4530   16.4910  -32.4280 C   0  0  0  0  0  0  0  0  0  0  0  0
   -4.2670   15.9450  -32.9250 C   0  0  0  0  0  0  0  0  0  0  0  0
   -3.8600   16.2340  -34.1890 N   0  0  0  0  0  0  0  0  0  0  0  0
   -4.5820   17.0520  -35.0010 C   0  0  0  0  0  0  0  0  0  0  0  0
   -5.7740   17.6180  -34.5440 C   0  0  0  0  0  0  0  0  0  0  0  0
   -4.0740   22.4310  -31.4070 C   0  0  0  0  0  0  0  0  0  0  0  0
   -4.8970   25.4640  -27.9440 H   0  0  0  0  0  0  0  0  0  0  0  0
   -5.7500   24.1900  -28.6210 H   0  0  0  0  0  0  0  0  0  0  0  0
   -2.1019   22.4182  -28.6137 H   0  0  0  0  0  0  0  0  0  0  0  0
   -1.6719   20.0963  -29.4197 H   0  0  0  0  0  0  0  0  0  0  0  0
   -2.7530   19.2766  -31.5139 H   0  0  0  0  0  0  0  0  0  0  0  0
   -5.9660   20.0262  -34.2838 H   0  0  0  0  0  0  0  0  0  0  0  0
   -6.4045   23.1453  -33.1897 H   0  0  0  0  0  0  0  0  0  0  0  0
   -8.2152   24.1162  -31.7826 H   0  0  0  0  0  0  0  0  0  0  0  0
   -9.5912   22.6384  -30.3217 H   0  0  0  0  0  0  0  0  0  0  0  0
   -9.1671   20.1872  -30.2670 H   0  0  0  0  0  0  0  0  0  0  0  0
   -6.7970   18.4460  -30.7880 H   0  0  0  0  0  0  0  0  0  0  0  0
   -8.1700   17.1161  -32.4011 H   0  0  0  0  0  0  0  0  0  0  0  0
   -7.9890   18.4819  -33.5658 H   0  0  0  0  0  0  0  0  0  0  0  0
   -5.7841   16.2592  -31.4049 H   0  0  0  0  0  0  0  0  0  0  0  0
   -3.6614   15.2798  -32.2919 H   0  0  0  0  0  0  0  0  0  0  0  0
   -4.2264   17.2681  -36.0193 H   0  0  0  0  0  0  0  0  0  0  0  0
   -6.3602   18.2793  -35.1989 H   0  0  0  0  0  0  0  0  0  0  0  0
   -4.7844   23.0756  -31.9453 H   0  0  0  0  0  0  0  0  0  0  0  0
  1  2  1  0
  2  3  2  0
  2  4  2  0
  2  5  1  0
  5  6  2  0
  6  7  1  0
  7  8  2  0
  8  9  1  0
  9 10  1  0
 10 11  2  3
 11 12  1  0
 12 13  2  0
 13 14  1  0
 14 15  2  0
 15 16  1  0
 16 17  2  0
 17 18  1  0
 18 19  1  0
 19 20  1  0
 20 21  2  0
 21 22  1  0
 22 23  2  0
 23 24  1  0
 24 25  2  0
  9 26  2  0
 26  5  1  0
 17 12  1  0
 25 20  1  0
  1 27  1  0
  1 28  1  0
  6 29  1  0
  7 30  1  0
  8 31  1  0
 11 32  1  0
 13 33  1  0
 14 34  1  0
 15 35  1  0
 16 36  1  0
 18 37  1  0
 19 38  1  0
 19 39  1  0
 21 40  1  0
 22 41  1  0
 24 42  1  0
 25 43  1  0
 26 44  1  0
M  END
>  <UniqueID>  (21) 
20

>  <SMILES>  (21) 
NS(=O)(=O)c1cccc(N=Cc2ccccc2NCc2ccncc2)c1

>  <Energy>  (21) 
57.15273915696552

>  <Genealogy>  (21) 
NS(=O)(=O)c1cccc(N=Cc2ccccc2NCc2ccncc2)c1 (3D coordinates assigned)
NS(=O)(=O)c1cccc(N=Cc2ccccc2NCc2ccncc2)c1 (optimized conformer: 57.15273915696552 kcal/mol)

>  <smiles>  (21) 
NS(=O)(=O)c1cccc(N=Cc2ccccc2NCc2ccncc2)c1

>  <score_type>  (21) 
oracle

>  <origin>  (21) 
adgpu

>  <m_score__min__energy>  (21) 
-9.5600000000000005

>  <m_primary>  (21) 
energy

$$$$
21:0
     RDKit          3D

 42 44  0  0  0  0  0  0  0  0999 V2000
   -5.8550   26.0570  -30.2530 O   0  0  0  0  0  0  0  0  0  0  0  0
   -5.0000   25.3030  -30.7880 C   0  0  0  0  0  0  0  0  0  0  0  0
   -3.6650   25.2950  -30.2740 N   0  0  0  0  0  0  0  0  0  0  0  0
   -3.0460   24.2310  -29.5360 C   0  0  0  0  0  0  0  0  0  0  0  0
   -3.7730   23.1090  -29.1000 C   0  0  0  0  0  0  0  0  0  0  0  0
   -3.1290   22.0800  -28.4050 C   0  0  0  0  0  0  0  0  0  0  0  0
   -1.7540   22.1540  -28.1480 C   0  0  0  0  0  0  0  0  0  0  0  0
   -0.9520   20.8380  -27.2950 S   0  0  0  0  0  0  0  0  0  0  0  0
    0.5010   21.1730  -27.0970 O   0  0  0  0  0  0  0  0  0  0  0  0
   -1.5910   20.6930  -25.9420 O   0  0  0  0  0  0  0  0  0  0  0  0
   -1.1230   19.3340  -28.1780 N   0  0  0  0  0  0  0  0  0  0  0  0
   -0.5420   19.4180  -29.5300 C   0  0  0  0  0  0  0  0  0  0  0  0
    1.0050   19.4020  -29.5050 C   0  0  0  0  0  0  0  0  0  0  0  0
    1.5480   18.9060  -28.2930 O   0  0  0  0  0  0  0  0  0  0  0  0
    0.8250   17.7760  -27.8600 C   0  0  0  0  0  0  0  0  0  0  0  0
   -0.5900   18.1850  -27.4120 C   0  0  0  0  0  0  0  0  0  0  0  0
   -1.0220   23.2560  -28.6120 C   0  0  0  0  0  0  0  0  0  0  0  0
   -1.6660   24.2830  -29.3070 C   0  0  0  0  0  0  0  0  0  0  0  0
   -5.3630   24.4640  -31.8910 N   0  0  0  0  0  0  0  0  0  0  0  0
   -6.2100   23.3090  -31.8250 C   0  0  0  0  0  0  0  0  0  0  0  0
   -7.4950   23.4510  -31.2860 C   0  0  0  0  0  0  0  0  0  0  0  0
   -8.3580   22.3550  -31.2140 C   0  0  0  0  0  0  0  0  0  0  0  0
   -7.9510   21.1110  -31.7000 C   0  0  0  0  0  0  0  0  0  0  0  0
   -6.6830   20.9620  -32.2710 C   0  0  0  0  0  0  0  0  0  0  0  0
   -6.1970   19.4020  -32.9130 Cl  0  0  0  0  0  0  0  0  0  0  0  0
   -5.8120   22.0610  -32.3450 C   0  0  0  0  0  0  0  0  0  0  0  0
   -4.6180   21.9200  -32.9730 F   0  0  0  0  0  0  0  0  0  0  0  0
   -4.8513   23.0403  -29.3061 H   0  0  0  0  0  0  0  0  0  0  0  0
   -3.7048   21.2090  -28.0588 H   0  0  0  0  0  0  0  0  0  0  0  0
   -0.8954   18.5602  -30.1210 H   0  0  0  0  0  0  0  0  0  0  0  0
   -0.8621   20.3713  -29.9758 H   0  0  0  0  0  0  0  0  0  0  0  0
    1.3596   18.7672  -30.3304 H   0  0  0  0  0  0  0  0  0  0  0  0
    1.3400   20.4449  -29.6056 H   0  0  0  0  0  0  0  0  0  0  0  0
    0.7493   17.0550  -28.6873 H   0  0  0  0  0  0  0  0  0  0  0  0
    1.3514   17.3197  -27.0087 H   0  0  0  0  0  0  0  0  0  0  0  0
   -1.2644   17.3270  -27.5501 H   0  0  0  0  0  0  0  0  0  0  0  0
   -0.5289   18.4894  -26.3567 H   0  0  0  0  0  0  0  0  0  0  0  0
    0.0611   23.3123  -28.4286 H   0  0  0  0  0  0  0  0  0  0  0  0
   -1.0836   25.1396  -29.6773 H   0  0  0  0  0  0  0  0  0  0  0  0
   -7.8269   24.4326  -30.9168 H   0  0  0  0  0  0  0  0  0  0  0  0
   -9.3593   22.4721  -30.7739 H   0  0  0  0  0  0  0  0  0  0  0  0
   -8.6285   20.2470  -31.6337 H   0  0  0  0  0  0  0  0  0  0  0  0
  1  2  2  0
  2  3  1  0
  3  4  1  0
  4  5  2  0
  5  6  1  0
  6  7  2  0
  7  8  1  0
  8  9  2  0
  8 10  2  0
  8 11  1  0
 11 12  1  0
 12 13  1  0
 13 14  1  0
 14 15  1  0
 15 16  1  0
  7 17  1  0
 17 18  2  0
  2 19  1  0
 19 20  1  0
 20 21  2  0
 21 22  1  0
 22 23  2  0
 23 24  1  0
 24 25  1  0
 24 26  2  0
 26 27  1  0
 18  4  1  0
 26 20  1  0
 16 11  1  0
  5 28  1  0
  6 29  1  0
 12 30  1  0
 12 31  1  0
 13 32  1  0
 13 33  1  0
 15 34  1  0
 15 35  1  0
 16 36  1  0
 16 37  1  0
 17 38  1  0
 18 39  1  0
 21 40  1  0
 22 41  1  0
 23 42  1  0
M  CHG  2   3  -1  19  -1
M  END
>  <UniqueID>  (22) 
21

>  <SMILES>  (22) 
O=C([N-]c1ccc(S(=O)(=O)N2CCOCC2)cc1)[N-]c1cccc(Cl)c1F

>  <Energy>  (22) 
63.08644956308312

>  <Genealogy>  (22) 
O=C([N-]c1ccc(S(=O)(=O)N2CCOCC2)cc1)[N-]c1cccc(Cl)c1F (protonated)
O=C([N-]c1ccc(S(=O)(=O)N2CCOCC2)cc1)[N-]c1cccc(Cl)c1F (3D coordinates assigned)
O=C([N-]c1ccc(S(=O)(=O)N2CCOCC2)cc1)[N-]c1cccc(Cl)c1F (nonaromatic ring conformer: 63.08644956308312 kcal/mol)

>  <smiles>  (22) 
O=C(Nc1ccc(S(=O)(=O)N2CCOCC2)cc1)Nc1cccc(Cl)c1F

>  <score_type>  (22) 
oracle

>  <origin>  (22) 
adgpu

>  <m_score__min__energy>  (22) 
-11.6

>  <m_primary>  (22) 
energy

$$$$
22:0
     RDKit          3D

 48 50  0  0  0  0  0  0  0  0999 V2000
   -0.8510   28.4540  -25.9390 C   0  0  0  0  0  0  0  0  0  0  0  0
   -0.4580   27.0390  -25.8860 N   0  0  0  0  0  0  0  0  0  0  0  0
   -1.6590   26.1710  -25.8680 C   0  0  0  0  0  0  0  0  0  0  0  0
   -1.3480   24.7240  -25.4230 C   0  0  0  0  0  0  0  0  0  0  0  0
    0.1410   24.3580  -25.5560 C   0  0  0  0  0  0  0  0  0  0  0  0
    0.6170   24.1430  -27.2830 S   0  0  0  0  0  0  0  0  0  0  0  0
    1.1330   25.4440  -27.8340 O   0  0  0  0  0  0  0  0  0  0  0  0
    1.7380   23.1500  -27.3920 O   0  0  0  0  0  0  0  0  0  0  0  0
   -0.7990   23.6270  -28.2410 C   0  0  0  0  0  0  0  0  0  0  0  0
   -1.1300   22.2540  -28.3850 C   0  0  0  0  0  0  0  0  0  0  0  0
   -0.2710   20.9530  -27.5660 Cl  0  0  0  0  0  0  0  0  0  0  0  0
   -2.2150   21.8750  -29.1800 C   0  0  0  0  0  0  0  0  0  0  0  0
   -2.9810   22.8290  -29.8400 C   0  0  0  0  0  0  0  0  0  0  0  0
   -2.6800   24.1900  -29.7110 C   0  0  0  0  0  0  0  0  0  0  0  0
   -3.4880   25.1920  -30.3450 N   0  0  0  0  0  0  0  0  0  0  0  0
   -4.9050   25.1340  -30.5400 C   0  0  0  0  0  0  0  0  0  0  0  0
   -5.4620   26.0280  -31.2290 O   0  0  0  0  0  0  0  0  0  0  0  0
   -5.6600   24.0160  -30.0520 N   0  0  0  0  0  0  0  0  0  0  0  0
   -6.3730   23.0550  -30.8430 C   0  0  0  0  0  0  0  0  0  0  0  0
   -7.7780   23.0340  -30.9050 C   0  0  0  0  0  0  0  0  0  0  0  0
   -8.4340   22.0640  -31.6680 C   0  0  0  0  0  0  0  0  0  0  0  0
   -7.6980   21.0970  -32.3610 C   0  0  0  0  0  0  0  0  0  0  0  0
   -8.3610   20.1380  -33.1180 O   0  0  0  0  0  0  0  0  0  0  0  0
   -6.2980   21.0980  -32.2850 C   0  0  0  0  0  0  0  0  0  0  0  0
   -5.2690   19.7780  -33.2130 Br  0  0  0  0  0  0  0  0  0  0  0  0
   -5.6430   22.0700  -31.5200 C   0  0  0  0  0  0  0  0  0  0  0  0
   -1.6200   24.5950  -28.8830 C   0  0  0  0  0  0  0  0  0  0  0  0
   -1.4240   25.9700  -28.7230 O   0  0  0  0  0  0  0  0  0  0  0  0
    1.0380   25.3860  -24.8230 C   0  0  0  0  0  0  0  0  0  0  0  0
    0.4020   26.7820  -24.7190 C   0  0  0  0  0  0  0  0  0  0  0  0
   -0.9591   28.8431  -24.9158 H   0  0  0  0  0  0  0  0  0  0  0  0
   -0.0787   29.0294  -26.4704 H   0  0  0  0  0  0  0  0  0  0  0  0
   -1.8094   28.5487  -26.4704 H   0  0  0  0  0  0  0  0  0  0  0  0
   -2.3934   26.6022  -25.1718 H   0  0  0  0  0  0  0  0  0  0  0  0
   -2.0481   26.1241  -26.8958 H   0  0  0  0  0  0  0  0  0  0  0  0
   -1.6436   24.6106  -24.3695 H   0  0  0  0  0  0  0  0  0  0  0  0
   -1.9118   24.0493  -26.0840 H   0  0  0  0  0  0  0  0  0  0  0  0
    0.2955   23.3870  -25.0627 H   0  0  0  0  0  0  0  0  0  0  0  0
   -2.4659   20.8091  -29.2848 H   0  0  0  0  0  0  0  0  0  0  0  0
   -3.8279   22.5128  -30.4668 H   0  0  0  0  0  0  0  0  0  0  0  0
   -8.3624   23.7835  -30.3512 H   0  0  0  0  0  0  0  0  0  0  0  0
   -9.5326   22.0609  -31.7238 H   0  0  0  0  0  0  0  0  0  0  0  0
   -4.5453   22.0602  -31.4499 H   0  0  0  0  0  0  0  0  0  0  0  0
   -0.8370   26.3840  -28.0150 H   0  0  0  0  0  0  0  0  0  0  0  0
    1.2350   25.0153  -23.8063 H   0  0  0  0  0  0  0  0  0  0  0  0
    1.9613   25.4913  -25.4116 H   0  0  0  0  0  0  0  0  0  0  0  0
   -0.2037   26.8376  -23.8024 H   0  0  0  0  0  0  0  0  0  0  0  0
    1.2004   27.5380  -24.6890 H   0  0  0  0  0  0  0  0  0  0  0  0
  1  2  1  0
  2  3  1  0
  3  4  1  0
  4  5  1  0
  5  6  1  0
  6  7  2  0
  6  8  2  0
  6  9  1  0
  9 10  2  0
 10 11  1  0
 10 12  1  0
 12 13  2  0
 13 14  1  0
 14 15  1  0
 15 16  1  0
 16 17  2  0
 16 18  1  0
 18 19  1  0
 19 20  2  0
 20 21  1  0
 21 22  2  0
 22 23  1  0
 22 24  1  0
 24 25  1  0
 24 26  2  0
 14 27  2  0
 27 28  1  0
  5 29  1  0
 29 30  1  0
 30  2  1  0
 27  9  1  0
 26 19  1  0
  1 31  1  0
  1 32  1  0
  1 33  1  0
  3 34  1  0
  3 35  1  0
  4 36  1  0
  4 37  1  0
  5 38  1  0
 12 39  1  0
 13 40  1  0
 20 41  1  0
 21 42  1  0
 26 43  1  0
 28 44  1  0
 29 45  1  0
 29 46  1  0
 30 47  1  0
 30 48  1  0
M  CHG  3  15  -1  18  -1  23  -1
M  END
>  <UniqueID>  (23) 
22

>  <SMILES>  (23) 
CN1CCC(S(=O)(=O)c2c(Cl)ccc([N-]C(=O)[N-]c3ccc([O-])c(Br)c3)c2O)CC1

>  <Energy>  (23) 
67.1013709261804

>  <Genealogy>  (23) 
CN1CCC(S(=O)(=O)c2c(Cl)ccc([N-]C(=O)[N-]c3ccc([O-])c(Br)c3)c2O)CC1 (protonated)
CN1CCC(S(=O)(=O)c2c(Cl)ccc([N-]C(=O)[N-]c3ccc([O-])c(Br)c3)c2O)CC1 (3D coordinates assigned)
CN1CCC(S(=O)(=O)c2c(Cl)ccc([N-]C(=O)[N-]c3ccc([O-])c(Br)c3)c2O)CC1 (nonaromatic ring conformer: 67.1013709261804 kcal/mol)

>  <smiles>  (23) 
CN1CCC(S(=O)(=O)c2c(Cl)ccc(NC(=O)Nc3ccc(O)c(Br)c3)c2O)CC1

>  <score_type>  (23) 
oracle

>  <origin>  (23) 
adgpu

>  <m_score__min__energy>  (23) 
-12.35

>  <m_primary>  (23) 
energy

$$$$
23:0
     RDKit          3D

 63 66  0  0  0  0  0  0  0  0999 V2000
   -1.5830   21.1160  -33.4660 C   0  0  0  0  0  0  0  0  0  0  0  0
   -1.9900   19.6730  -33.4730 C   0  0  0  0  0  0  0  0  0  0  0  0
   -1.2510   18.7260  -32.7520 C   0  0  0  0  0  0  0  0  0  0  0  0
   -1.6540   17.3890  -32.7240 C   0  0  0  0  0  0  0  0  0  0  0  0
   -2.8050   16.9770  -33.4170 C   0  0  0  0  0  0  0  0  0  0  0  0
   -3.2420   15.5380  -33.3450 C   0  0  0  0  0  0  0  0  0  0  0  0
   -3.5570   17.9310  -34.1370 C   0  0  0  0  0  0  0  0  0  0  0  0
   -5.0520   17.4720  -35.0350 S   0  0  0  0  0  0  0  0  0  0  0  0
   -6.1040   18.7490  -34.2580 C   0  0  0  0  0  0  0  0  0  0  0  0
   -6.6950   18.2330  -32.9780 C   0  0  0  0  0  0  0  0  0  0  0  0
   -7.1610   17.0630  -32.9430 O   0  0  0  0  0  0  0  0  0  0  0  0
   -6.8430   19.0740  -31.8270 N   0  0  0  0  0  0  0  0  0  0  0  0
   -7.4370   20.3800  -31.8390 C   0  0  0  0  0  0  0  0  0  0  0  0
   -8.8240   20.5140  -31.6560 C   0  0  0  0  0  0  0  0  0  0  0  0
   -9.4280   21.7710  -31.7200 C   0  0  0  0  0  0  0  0  0  0  0  0
   -8.6560   22.9040  -31.9690 C   0  0  0  0  0  0  0  0  0  0  0  0
   -7.2780   22.7840  -32.1650 C   0  0  0  0  0  0  0  0  0  0  0  0
   -6.6530   21.5220  -32.1250 C   0  0  0  0  0  0  0  0  0  0  0  0
   -5.1830   21.4230  -32.3200 C   0  0  0  0  0  0  0  0  0  0  0  0
   -4.6980   21.5510  -33.4740 O   0  0  0  0  0  0  0  0  0  0  0  0
   -4.2940   21.1090  -31.2380 N   0  0  0  0  0  0  0  0  0  0  0  0
   -3.5090   22.0490  -30.4920 C   0  0  0  0  0  0  0  0  0  0  0  0
   -2.2080   21.7000  -30.1150 C   0  0  0  0  0  0  0  0  0  0  0  0
   -1.4260   22.5840  -29.3690 C   0  0  0  0  0  0  0  0  0  0  0  0
   -1.9290   23.8470  -29.0180 C   0  0  0  0  0  0  0  0  0  0  0  0
   -0.9770   24.9740  -28.0490 S   0  0  0  0  0  0  0  0  0  0  0  0
   -1.2400   26.3630  -28.5700 O   0  0  0  0  0  0  0  0  0  0  0  0
    0.4870   24.6520  -28.2140 O   0  0  0  0  0  0  0  0  0  0  0  0
   -1.4280   24.8790  -26.3530 N   0  0  0  0  0  0  0  0  0  0  0  0
   -0.2310   24.9040  -25.4940 C   0  0  0  0  0  0  0  0  0  0  0  0
   -0.0690   26.3100  -24.9220 C   0  0  0  0  0  0  0  0  0  0  0  0
   -1.2530   27.0990  -25.4390 C   0  0  0  0  0  0  0  0  0  0  0  0
   -2.2180   26.0500  -25.9590 C   0  0  0  0  0  0  0  0  0  0  0  0
   -3.2180   24.2120  -29.4240 C   0  0  0  0  0  0  0  0  0  0  0  0
   -4.0060   23.3200  -30.1580 C   0  0  0  0  0  0  0  0  0  0  0  0
   -3.1560   19.2740  -34.1420 C   0  0  0  0  0  0  0  0  0  0  0  0
   -1.4848   21.4642  -32.4272 H   0  0  0  0  0  0  0  0  0  0  0  0
   -0.6184   21.2274  -33.9828 H   0  0  0  0  0  0  0  0  0  0  0  0
   -2.3472   21.7150  -33.9828 H   0  0  0  0  0  0  0  0  0  0  0  0
   -0.3487   19.0371  -32.2051 H   0  0  0  0  0  0  0  0  0  0  0  0
   -1.0662   16.6533  -32.1554 H   0  0  0  0  0  0  0  0  0  0  0  0
   -3.3340   15.2350  -32.2916 H   0  0  0  0  0  0  0  0  0  0  0  0
   -4.2150   15.4248  -33.8454 H   0  0  0  0  0  0  0  0  0  0  0  0
   -2.4962   14.9028  -33.8454 H   0  0  0  0  0  0  0  0  0  0  0  0
   -5.4944   19.6390  -34.0428 H   0  0  0  0  0  0  0  0  0  0  0  0
   -6.9200   19.0076  -34.9488 H   0  0  0  0  0  0  0  0  0  0  0  0
   -9.4379   19.6223  -31.4610 H   0  0  0  0  0  0  0  0  0  0  0  0
  -10.5140   21.8671  -31.5738 H   0  0  0  0  0  0  0  0  0  0  0  0
   -9.1324   23.8946  -32.0113 H   0  0  0  0  0  0  0  0  0  0  0  0
   -6.6746   23.6844  -32.3525 H   0  0  0  0  0  0  0  0  0  0  0  0
   -1.7981   20.7223  -30.4083 H   0  0  0  0  0  0  0  0  0  0  0  0
   -0.4134   22.2902  -29.0555 H   0  0  0  0  0  0  0  0  0  0  0  0
   -0.3494   24.1816  -24.6729 H   0  0  0  0  0  0  0  0  0  0  0  0
    0.6584   24.6337  -26.0822 H   0  0  0  0  0  0  0  0  0  0  0  0
   -0.0779   26.2805  -23.8224 H   0  0  0  0  0  0  0  0  0  0  0  0
    0.8861   26.7646  -25.2240 H   0  0  0  0  0  0  0  0  0  0  0  0
   -1.7141   27.6823  -24.6284 H   0  0  0  0  0  0  0  0  0  0  0  0
   -0.9641   27.8207  -26.2172 H   0  0  0  0  0  0  0  0  0  0  0  0
   -2.9320   25.7727  -25.1695 H   0  0  0  0  0  0  0  0  0  0  0  0
   -2.7871   26.4390  -26.8162 H   0  0  0  0  0  0  0  0  0  0  0  0
   -3.6129   25.2053  -29.1644 H   0  0  0  0  0  0  0  0  0  0  0  0
   -5.0175   23.6141  -30.4747 H   0  0  0  0  0  0  0  0  0  0  0  0
   -3.7613   20.0217  -34.6755 H   0  0  0  0  0  0  0  0  0  0  0  0
  1  2  1  0
  2  3  2  0
  3  4  1  0
  4  5  2  0
  5  6  1  0
  5  7  1  0
  7  8  1  0
  8  9  1  0
  9 10  1  0
 10 11  2  0
 10 12  1  0
 12 13  1  0
 13 14  2  0
 14 15  1  0
 15 16  2  0
 16 17  1  0
 17 18  2  0
 18 19  1  0
 19 20  2  0
 19 21  1  0
 21 22  1  0
 22 23  2  0
 23 24  1  0
 24 25  2  0
 25 26  1  0
 26 27  2  0
 26 28  2  0
 26 29  1  0
 29 30  1  0
 30 31  1  0
 31 32  1  0
 32 33  1  0
 25 34  1  0
 34 35  2  0
  7 36  2  0
 36  2  1  0
 18 13  1  0
 35 22  1  0
 33 29  1  0
  1 37  1  0
  1 38  1  0
  1 39  1  0
  3 40  1  0
  4 41  1  0
  6 42  1  0
  6 43  1  0
  6 44  1  0
  9 45  1  0
  9 46  1  0
 14 47  1  0
 15 48  1  0
 16 49  1  0
 17 50  1  0
 23 51  1  0
 24 52  1  0
 30 53  1  0
 30 54  1  0
 31 55  1  0
 31 56  1  0
 32 57  1  0
 32 58  1  0
 33 59  1  0
 33 60  1  0
 34 61  1  0
 35 62  1  0
 36 63  1  0
M  CHG  2  12  -1  21  -1
M  END
>  <UniqueID>  (24) 
23

>  <SMILES>  (24) 
Cc1ccc(C)c(SCC(=O)[N-]c2ccccc2C(=O)[N-]c2ccc(S(=O)(=O)N3CCCC3)cc2)c1

>  <Energy>  (24) 
76.52569964414369

>  <Genealogy>  (24) 
Cc1ccc(C)c(SCC(=O)[N-]c2ccccc2C(=O)[N-]c2ccc(S(=O)(=O)N3CCCC3)cc2)c1 (protonated)
Cc1ccc(C)c(SCC(=O)[N-]c2ccccc2C(=O)[N-]c2ccc(S(=O)(=O)N3CCCC3)cc2)c1 (3D coordinates assigned)
Cc1ccc(C)c(SCC(=O)[N-]c2ccccc2C(=O)[N-]c2ccc(S(=O)(=O)N3CCCC3)cc2)c1 (nonaromatic ring conformer: 76.52569964414369 kcal/mol)

>  <smiles>  (24) 
Cc1ccc(C)c(SCC(=O)Nc2ccccc2C(=O)Nc2ccc(S(=O)(=O)N3CCCC3)cc2)c1

>  <score_type>  (24) 
oracle

>  <origin>  (24) 
adgpu

>  <m_score__min__energy>  (24) 
-12.25

>  <m_primary>  (24) 
energy

$$$$
24:0
     RDKit          3D

 44 46  0  0  0  0  0  0  0  0999 V2000
   -2.8901   21.4522  -29.5927 H   0  0  0  0  0  0  0  0  0  0  0  0
   -3.1430   22.5190  -29.6820 C   0  0  0  0  0  0  0  0  0  0  0  0
   -4.1890   22.8690  -30.3680 N   0  0  0  0  0  0  0  0  0  0  0  0
   -5.0890   21.9830  -31.0520 C   0  0  0  0  0  0  0  0  0  0  0  0
   -6.4560   22.1690  -31.1770 C   0  0  0  0  0  0  0  0  0  0  0  0
   -7.2330   23.3470  -30.6680 C   0  0  0  0  0  0  0  0  0  0  0  0
   -7.2292   23.3412  -29.5680 H   0  0  0  0  0  0  0  0  0  0  0  0
   -6.7700   24.2763  -31.0314 H   0  0  0  0  0  0  0  0  0  0  0  0
   -8.2695   23.2873  -31.0314 H   0  0  0  0  0  0  0  0  0  0  0  0
   -6.9710   21.1470  -31.9050 N   0  0  0  0  0  0  0  0  0  0  0  0
   -8.3750   20.9940  -32.2930 C   0  0  0  0  0  0  0  0  0  0  0  0
   -8.9996   20.9259  -31.3901 H   0  0  0  0  0  0  0  0  0  0  0  0
   -8.6872   21.8634  -32.8902 H   0  0  0  0  0  0  0  0  0  0  0  0
   -8.4926   20.0777  -32.8902 H   0  0  0  0  0  0  0  0  0  0  0  0
   -5.9880   20.3020  -32.2100 N   0  0  0  0  0  0  0  0  0  0  0  0
   -6.1320   19.0690  -32.9380 C   0  0  0  0  0  0  0  0  0  0  0  0
   -6.8150   17.9840  -32.3640 C   0  0  0  0  0  0  0  0  0  0  0  0
   -7.2347   18.0753  -31.3513 H   0  0  0  0  0  0  0  0  0  0  0  0
   -6.9640   16.7880  -33.0740 C   0  0  0  0  0  0  0  0  0  0  0  0
   -7.4938   15.9394  -32.6167 H   0  0  0  0  0  0  0  0  0  0  0  0
   -6.4400   16.6710  -34.3640 C   0  0  0  0  0  0  0  0  0  0  0  0
   -6.5517   15.7280  -34.9193 H   0  0  0  0  0  0  0  0  0  0  0  0
   -5.7730   17.7530  -34.9500 C   0  0  0  0  0  0  0  0  0  0  0  0
   -5.3679   17.6623  -35.9687 H   0  0  0  0  0  0  0  0  0  0  0  0
   -5.6210   18.9490  -34.2420 C   0  0  0  0  0  0  0  0  0  0  0  0
   -5.0998   19.7988  -34.7069 H   0  0  0  0  0  0  0  0  0  0  0  0
   -4.8340   20.7910  -31.7110 C   0  0  0  0  0  0  0  0  0  0  0  0
   -3.7170   20.2160  -31.8220 O   0  0  0  0  0  0  0  0  0  0  0  0
   -2.2790   23.5310  -29.0140 C   0  0  0  0  0  0  0  0  0  0  0  0
   -2.4270   24.8830  -29.3450 C   0  0  0  0  0  0  0  0  0  0  0  0
   -3.3590   25.2930  -30.2920 O   0  0  0  0  0  0  0  0  0  0  0  0
   -1.6600   25.8160  -28.7360 N   0  0  0  0  0  0  0  0  0  0  0  0
   -0.7290   25.4890  -27.8070 C   0  0  0  0  0  0  0  0  0  0  0  0
    0.1140   26.7200  -27.1150 S   0  0  0  0  0  0  0  0  0  0  0  0
   -0.5260   24.1680  -27.4650 N   0  0  0  0  0  0  0  0  0  0  0  0
    0.4830   23.7800  -26.4540 C   0  0  0  0  0  0  0  0  0  0  0  0
    1.3154   24.4986  -26.4796 H   0  0  0  0  0  0  0  0  0  0  0  0
    0.8469   22.7682  -26.6859 H   0  0  0  0  0  0  0  0  0  0  0  0
   -0.1320   23.7740  -25.0570 C   0  0  0  0  0  0  0  0  0  0  0  0
    0.6694   23.7818  -24.3035 H   0  0  0  0  0  0  0  0  0  0  0  0
   -0.7631   24.6660  -24.9304 H   0  0  0  0  0  0  0  0  0  0  0  0
   -0.7455   22.8698  -24.9304 H   0  0  0  0  0  0  0  0  0  0  0  0
   -1.3060   23.1940  -28.0450 C   0  0  0  0  0  0  0  0  0  0  0  0
   -1.1560   21.9860  -27.7040 O   0  0  0  0  0  0  0  0  0  0  0  0
  1  2  1  0
  2  3  2  0
  3  4  1  0
  4  5  2  0
  5  6  1  0
  6  7  1  0
  6  8  1  0
  6  9  1  0
  5 10  1  0
 10 11  1  0
 11 12  1  0
 11 13  1  0
 11 14  1  0
 10 15  1  0
 15 16  1  0
 16 17  2  0
 17 18  1  0
 17 19  1  0
 19 20  1  0
 19 21  2  0
 21 22  1  0
 21 23  1  0
 23 24  1  0
 23 25  2  0
 25 26  1  0
 15 27  1  0
 27 28  2  0
  2 29  1  0
 29 30  2  0
 30 31  1  0
 30 32  1  0
 32 33  1  0
 33 34  2  0
 33 35  1  0
 35 36  1  0
 36 37  1  0
 36 38  1  0
 36 39  1  0
 39 40  1  0
 39 41  1  0
 39 42  1  0
 35 43  1  0
 43 44  2  0
 27  4  1  0
 43 29  1  0
 25 16  1  0
M  CHG  2  31  -1  32  -1
M  END
>  <UniqueID>  (25) 
24

>  <SMILES>  (25) 
CCn1c(=S)[n-]c([O-])c(/C=N/c2c(C)n(C)n(-c3ccccc3)c2=O)c1=O

>  <Energy>  (25) 
95.85791694653835

>  <Genealogy>  (25) 
CCn1c(=S)[n-]c([O-])c(C=Nc2c(C)n(C)n(-c3ccccc3)c2=O)c1=O (protonated)
CCn1c(=S)[n-]c([O-])c(/C=N/c2c(C)n(C)n(-c3ccccc3)c2=O)c1=O (cis-trans isomerization)
CCn1c(=S)[n-]c([O-])c(/C=N/c2c(C)n(C)n(-c3ccccc3)c2=O)c1=O (3D coordinates assigned)
CCn1c(=S)[n-]c([O-])c(/C=N/c2c(C)n(C)n(-c3ccccc3)c2=O)c1=O (optimized conformer: 95.85791694653835 kcal/mol)

>  <smiles>  (25) 
CCn1c(=S)[nH]c(O)c(C=Nc2c(C)n(C)n(-c3ccccc3)c2=O)c1=O

>  <score_type>  (25) 
oracle

>  <origin>  (25) 
adgpu

>  <m_score__min__energy>  (25) 
-12.369999999999999

>  <m_primary>  (25) 
energy

$$$$
25:0
     RDKit          3D

 41 43  0  0  0  0  0  0  0  0999 V2000
   -3.1270   23.0810  -28.3860 O   0  0  0  0  0  0  0  0  0  0  0  0
   -3.4040   22.5750  -29.5060 C   0  0  0  0  0  0  0  0  0  0  0  0
   -2.6370   21.4490  -29.9560 N   0  0  0  0  0  0  0  0  0  0  0  0
   -2.0030   21.3110  -31.2360 C   0  0  0  0  0  0  0  0  0  0  0  0
   -2.7480   21.2750  -32.4300 C   0  0  0  0  0  0  0  0  0  0  0  0
   -2.0970   21.1390  -33.6600 C   0  0  0  0  0  0  0  0  0  0  0  0
   -0.7030   21.0540  -33.7100 C   0  0  0  0  0  0  0  0  0  0  0  0
    0.1850   20.8650  -35.3910 Br  0  0  0  0  0  0  0  0  0  0  0  0
    0.0430   21.1150  -32.5280 C   0  0  0  0  0  0  0  0  0  0  0  0
   -0.6060   21.2520  -31.2970 C   0  0  0  0  0  0  0  0  0  0  0  0
   -4.5490   23.1090  -30.2860 C   0  0  0  0  0  0  0  0  0  0  0  0
   -5.6450   22.2790  -30.5810 C   0  0  0  0  0  0  0  0  0  0  0  0
   -6.7280   22.7630  -31.3260 C   0  0  0  0  0  0  0  0  0  0  0  0
   -8.0930   21.7110  -31.6980 S   0  0  0  0  0  0  0  0  0  0  0  0
   -9.2670   22.5440  -32.1290 O   0  0  0  0  0  0  0  0  0  0  0  0
   -8.4760   20.9720  -30.4450 O   0  0  0  0  0  0  0  0  0  0  0  0
   -7.6630   20.5540  -32.9410 N   0  0  0  0  0  0  0  0  0  0  0  0
   -8.2690   19.2320  -32.7000 C   0  0  0  0  0  0  0  0  0  0  0  0
   -7.5780   18.4720  -31.5430 C   0  0  0  0  0  0  0  0  0  0  0  0
   -6.2930   18.9750  -31.2220 O   0  0  0  0  0  0  0  0  0  0  0  0
   -5.5740   19.2640  -32.3990 C   0  0  0  0  0  0  0  0  0  0  0  0
   -6.1970   20.4680  -33.1270 C   0  0  0  0  0  0  0  0  0  0  0  0
   -6.7360   24.0950  -31.7520 C   0  0  0  0  0  0  0  0  0  0  0  0
   -5.6610   24.9340  -31.4510 C   0  0  0  0  0  0  0  0  0  0  0  0
   -4.5680   24.4490  -30.7240 C   0  0  0  0  0  0  0  0  0  0  0  0
   -3.5040   25.3040  -30.4570 O   0  0  0  0  0  0  0  0  0  0  0  0
   -3.8446   21.3540  -32.3952 H   0  0  0  0  0  0  0  0  0  0  0  0
   -2.6832   21.0988  -34.5899 H   0  0  0  0  0  0  0  0  0  0  0  0
    1.1407   21.0552  -32.5670 H   0  0  0  0  0  0  0  0  0  0  0  0
   -0.0151   21.3138  -30.3712 H   0  0  0  0  0  0  0  0  0  0  0  0
   -5.6520   21.2389  -30.2231 H   0  0  0  0  0  0  0  0  0  0  0  0
   -9.3309   19.3701  -32.4483 H   0  0  0  0  0  0  0  0  0  0  0  0
   -8.1479   18.6341  -33.6154 H   0  0  0  0  0  0  0  0  0  0  0  0
   -8.2142   18.5469  -30.6488 H   0  0  0  0  0  0  0  0  0  0  0  0
   -7.4438   17.4319  -31.8748 H   0  0  0  0  0  0  0  0  0  0  0  0
   -4.5313   19.4981  -32.1383 H   0  0  0  0  0  0  0  0  0  0  0  0
   -5.6104   18.3879  -33.0632 H   0  0  0  0  0  0  0  0  0  0  0  0
   -5.7386   21.3894  -32.7385 H   0  0  0  0  0  0  0  0  0  0  0  0
   -6.0062   20.3400  -34.2027 H   0  0  0  0  0  0  0  0  0  0  0  0
   -7.5909   24.4827  -32.3254 H   0  0  0  0  0  0  0  0  0  0  0  0
   -5.6734   25.9813  -31.7870 H   0  0  0  0  0  0  0  0  0  0  0  0
  1  2  2  0
  2  3  1  0
  3  4  1  0
  4  5  2  0
  5  6  1  0
  6  7  2  0
  7  8  1  0
  7  9  1  0
  9 10  2  0
  2 11  1  0
 11 12  2  0
 12 13  1  0
 13 14  1  0
 14 15  2  0
 14 16  2  0
 14 17  1  0
 17 18  1  0
 18 19  1  0
 19 20  1  0
 20 21  1  0
 21 22  1  0
 13 23  2  0
 23 24  1  0
 24 25  2  0
 25 26  1  0
 10  4  1  0
 25 11  1  0
 22 17  1  0
  5 27  1  0
  6 28  1  0
  9 29  1  0
 10 30  1  0
 12 31  1  0
 18 32  1  0
 18 33  1  0
 19 34  1  0
 19 35  1  0
 21 36  1  0
 21 37  1  0
 22 38  1  0
 22 39  1  0
 23 40  1  0
 24 41  1  0
M  CHG  2   3  -1  26  -1
M  END
>  <UniqueID>  (26) 
25

>  <SMILES>  (26) 
O=C([N-]c1ccc(Br)cc1)c1cc(S(=O)(=O)N2CCOCC2)ccc1[O-]

>  <Energy>  (26) 
60.51959955322881

>  <Genealogy>  (26) 
O=C([N-]c1ccc(Br)cc1)c1cc(S(=O)(=O)N2CCOCC2)ccc1[O-] (protonated)
O=C([N-]c1ccc(Br)cc1)c1cc(S(=O)(=O)N2CCOCC2)ccc1[O-] (3D coordinates assigned)
O=C([N-]c1ccc(Br)cc1)c1cc(S(=O)(=O)N2CCOCC2)ccc1[O-] (nonaromatic ring conformer: 60.51959955322881 kcal/mol)

>  <smiles>  (26) 
O=C(Nc1ccc(Br)cc1)c1cc(S(=O)(=O)N2CCOCC2)ccc1O

>  <score_type>  (26) 
oracle

>  <origin>  (26) 
adgpu

>  <m_score__min__energy>  (26) 
-12.69

>  <m_primary>  (26) 
energy

$$$$
26:0
     RDKit          3D

 56 59  0  0  0  0  0  0  0  0999 V2000
   -3.8380   15.4270  -32.7370 N   0  0  0  0  0  0  0  0  0  0  0  0
   -4.5430   16.3390  -33.3330 C   0  0  0  0  0  0  0  0  0  0  0  0
   -4.3800   16.6720  -34.6250 N   0  0  0  0  0  0  0  0  0  0  0  0
   -5.1310   17.6180  -35.2250 C   0  0  0  0  0  0  0  0  0  0  0  0
   -6.1020   18.2860  -34.5370 N   0  0  0  0  0  0  0  0  0  0  0  0
   -6.3090   17.9970  -33.2490 C   0  0  0  0  0  0  0  0  0  0  0  0
   -5.5380   17.0170  -32.6100 C   0  0  0  0  0  0  0  0  0  0  0  0
   -5.9680   16.9460  -31.3350 N   0  0  0  0  0  0  0  0  0  0  0  0
   -6.9760   17.8480  -31.1740 C   0  0  0  0  0  0  0  0  0  0  0  0
   -7.1760   18.4910  -32.3700 N   0  0  0  0  0  0  0  0  0  0  0  0
   -8.2070   19.5010  -32.4900 C   0  0  0  0  0  0  0  0  0  0  0  0
   -7.8000   20.8260  -31.9600 C   0  0  0  0  0  0  0  0  0  0  0  0
   -8.3840   21.4270  -30.8640 C   0  0  0  0  0  0  0  0  0  0  0  0
   -7.9700   22.6900  -30.4190 C   0  0  0  0  0  0  0  0  0  0  0  0
   -6.9620   23.3240  -31.1020 C   0  0  0  0  0  0  0  0  0  0  0  0
   -6.4060   24.6460  -30.7400 C   0  0  0  0  0  0  0  0  0  0  0  0
   -5.0520   24.5330  -30.0640 C   0  0  0  0  0  0  0  0  0  0  0  0
   -4.1040   24.9300  -30.7750 O   0  0  0  0  0  0  0  0  0  0  0  0
   -4.9630   24.0230  -28.7630 N   0  0  0  0  0  0  0  0  0  0  0  0
   -3.8710   23.8340  -27.8880 C   0  0  0  0  0  0  0  0  0  0  0  0
   -2.6410   23.2480  -28.3990 C   0  0  0  0  0  0  0  0  0  0  0  0
   -2.5770   22.1040  -29.2960 C   0  0  0  0  0  0  0  0  0  0  0  0
   -2.3820   20.9120  -28.9420 O   0  0  0  0  0  0  0  0  0  0  0  0
   -2.7500   22.3400  -30.6780 N   0  0  0  0  0  0  0  0  0  0  0  0
   -2.7400   21.4320  -31.7390 C   0  0  0  0  0  0  0  0  0  0  0  0
   -3.6260   20.4200  -31.9720 C   0  0  0  0  0  0  0  0  0  0  0  0
   -3.5820   19.5590  -33.0610 C   0  0  0  0  0  0  0  0  0  0  0  0
   -2.5620   19.7540  -33.9650 C   0  0  0  0  0  0  0  0  0  0  0  0
   -1.6480   20.7390  -33.7970 C   0  0  0  0  0  0  0  0  0  0  0  0
   -0.5860   20.9790  -34.6940 O   0  0  0  0  0  0  0  0  0  0  0  0
   -1.7110   21.5950  -32.6900 C   0  0  0  0  0  0  0  0  0  0  0  0
   -6.3710   22.7090  -32.2180 C   0  0  0  0  0  0  0  0  0  0  0  0
   -6.7710   21.4680  -32.6610 C   0  0  0  0  0  0  0  0  0  0  0  0
   -3.1070   14.9240  -33.2770 H   0  0  0  0  0  0  0  0  0  0  0  0
   -3.6220   16.1390  -35.1360 H   0  0  0  0  0  0  0  0  0  0  0  0
   -4.9582   17.8548  -36.2852 H   0  0  0  0  0  0  0  0  0  0  0  0
   -7.5345   18.0300  -30.2440 H   0  0  0  0  0  0  0  0  0  0  0  0
   -8.4614   19.6145  -33.5541 H   0  0  0  0  0  0  0  0  0  0  0  0
   -9.0647   19.1616  -31.8907 H   0  0  0  0  0  0  0  0  0  0  0  0
   -9.1906   20.9046  -30.3287 H   0  0  0  0  0  0  0  0  0  0  0  0
   -8.4412   23.1616  -29.5440 H   0  0  0  0  0  0  0  0  0  0  0  0
   -6.2961   25.2466  -31.6550 H   0  0  0  0  0  0  0  0  0  0  0  0
   -7.0992   25.1209  -30.0301 H   0  0  0  0  0  0  0  0  0  0  0  0
   -5.9250   23.7190  -28.3620 H   0  0  0  0  0  0  0  0  0  0  0  0
   -3.6107   24.8226  -27.4818 H   0  0  0  0  0  0  0  0  0  0  0  0
   -4.2383   23.0842  -27.1718 H   0  0  0  0  0  0  0  0  0  0  0  0
   -2.1225   24.0635  -28.9245 H   0  0  0  0  0  0  0  0  0  0  0  0
   -2.2324   22.8048  -27.4789 H   0  0  0  0  0  0  0  0  0  0  0  0
   -2.9090   23.3720  -30.9300 H   0  0  0  0  0  0  0  0  0  0  0  0
   -4.4361   20.2755  -31.2421 H   0  0  0  0  0  0  0  0  0  0  0  0
   -4.3261   18.7600  -33.1947 H   0  0  0  0  0  0  0  0  0  0  0  0
   -2.4879   19.0953  -34.8429 H   0  0  0  0  0  0  0  0  0  0  0  0
   -0.8130   21.4810  -35.5460 H   0  0  0  0  0  0  0  0  0  0  0  0
   -0.9618   22.3903  -32.5629 H   0  0  0  0  0  0  0  0  0  0  0  0
   -5.5658   23.2336  -32.7533 H   0  0  0  0  0  0  0  0  0  0  0  0
   -6.2986   20.9968  -33.5356 H   0  0  0  0  0  0  0  0  0  0  0  0
  1  2  2  3
  2  3  1  0
  3  4  1  0
  4  5  2  0
  5  6  1  0
  6  7  2  0
  7  8  1  0
  8  9  2  0
  9 10  1  0
 10 11  1  0
 11 12  1  0
 12 13  2  0
 13 14  1  0
 14 15  2  0
 15 16  1  0
 16 17  1  0
 17 18  2  0
 17 19  1  0
 19 20  1  0
 20 21  1  0
 21 22  1  0
 22 23  2  0
 22 24  1  0
 24 25  1  0
 25 26  2  0
 26 27  1  0
 27 28  2  0
 28 29  1  0
 29 30  1  0
 29 31  2  0
 15 32  1  0
 32 33  2  0
  7  2  1  0
 33 12  1  0
 10  6  1  0
 31 25  1  0
  1 34  1  0
  3 35  1  0
  4 36  1  0
  9 37  1  0
 11 38  1  0
 11 39  1  0
 13 40  1  0
 14 41  1  0
 16 42  1  0
 16 43  1  0
 19 44  1  0
 20 45  1  0
 20 46  1  0
 21 47  1  0
 21 48  1  0
 24 49  1  0
 26 50  1  0
 27 51  1  0
 28 52  1  0
 30 53  1  0
 31 54  1  0
 32 55  1  0
 33 56  1  0
M  END
>  <smiles>  (27) 
N=c1[nH]cnc2c1ncn2Cc1ccc(CC(=O)NCCC(=O)Nc2cccc(O)c2)cc1

>  <score_type>  (27) 
oracle

>  <origin>  (27) 
adgpu

>  <m_score__min__energy>  (27) 
-9.5

>  <m_primary>  (27) 
energy

$$$$
27:0
     RDKit          3D

 41 43  0  0  0  0  0  0  0  0999 V2000
   -3.6970   24.0730  -27.0790 O   0  0  0  0  0  0  0  0  0  0  0  0
   -2.9520   24.5660  -27.9700 C   0  0  0  0  0  0  0  0  0  0  0  0
   -3.4990   24.8830  -29.2610 N   0  0  0  0  0  0  0  0  0  0  0  0
   -4.6950   24.2840  -29.7900 C   0  0  0  0  0  0  0  0  0  0  0  0
   -5.3380   24.8810  -30.8850 C   0  0  0  0  0  0  0  0  0  0  0  0
   -6.4870   24.3050  -31.4330 C   0  0  0  0  0  0  0  0  0  0  0  0
   -6.9990   23.1120  -30.9060 C   0  0  0  0  0  0  0  0  0  0  0  0
   -8.4390   22.3720  -31.6120 S   0  0  0  0  0  0  0  0  0  0  0  0
   -9.3500   21.9080  -30.5080 O   0  0  0  0  0  0  0  0  0  0  0  0
   -9.1780   23.4030  -32.4210 O   0  0  0  0  0  0  0  0  0  0  0  0
   -8.0330   21.0160  -32.6400 N   0  0  0  0  0  0  0  0  0  0  0  0
   -8.7080   19.7920  -32.1680 C   0  0  0  0  0  0  0  0  0  0  0  0
   -7.9960   18.5410  -32.7060 C   0  0  0  0  0  0  0  0  0  0  0  0
   -6.6360   18.4290  -32.3040 O   0  0  0  0  0  0  0  0  0  0  0  0
   -6.0380   19.6680  -31.9540 C   0  0  0  0  0  0  0  0  0  0  0  0
   -6.5690   20.8540  -32.7800 C   0  0  0  0  0  0  0  0  0  0  0  0
   -6.3550   22.5060  -29.8190 C   0  0  0  0  0  0  0  0  0  0  0  0
   -5.2050   23.0820  -29.2700 C   0  0  0  0  0  0  0  0  0  0  0  0
   -1.5330   24.8570  -27.6530 C   0  0  0  0  0  0  0  0  0  0  0  0
   -1.1770   25.6020  -26.5160 C   0  0  0  0  0  0  0  0  0  0  0  0
    0.1660   25.8690  -26.2420 C   0  0  0  0  0  0  0  0  0  0  0  0
    1.1480   25.3940  -27.1100 C   0  0  0  0  0  0  0  0  0  0  0  0
    0.7950   24.6810  -28.2110 N   0  0  0  0  0  0  0  0  0  0  0  0
   -0.5050   24.4080  -28.5020 C   0  0  0  0  0  0  0  0  0  0  0  0
   -3.0700   25.6720  -29.7950 H   0  0  0  0  0  0  0  0  0  0  0  0
   -4.9345   25.8095  -31.3152 H   0  0  0  0  0  0  0  0  0  0  0  0
   -6.9916   24.7901  -32.2816 H   0  0  0  0  0  0  0  0  0  0  0  0
   -8.6930   19.7719  -31.0683 H   0  0  0  0  0  0  0  0  0  0  0  0
   -9.7453   19.7951  -32.5340 H   0  0  0  0  0  0  0  0  0  0  0  0
   -8.5370   17.6537  -32.3455 H   0  0  0  0  0  0  0  0  0  0  0  0
   -7.9970   18.6224  -33.8030 H   0  0  0  0  0  0  0  0  0  0  0  0
   -6.2391   19.8650  -30.8906 H   0  0  0  0  0  0  0  0  0  0  0  0
   -4.9614   19.5812  -32.1624 H   0  0  0  0  0  0  0  0  0  0  0  0
   -6.0754   21.7751  -32.4367 H   0  0  0  0  0  0  0  0  0  0  0  0
   -6.3490   20.6556  -33.8394 H   0  0  0  0  0  0  0  0  0  0  0  0
   -6.7558   21.5732  -29.3957 H   0  0  0  0  0  0  0  0  0  0  0  0
   -4.6968   22.5916  -28.4266 H   0  0  0  0  0  0  0  0  0  0  0  0
   -1.9592   25.9763  -25.8392 H   0  0  0  0  0  0  0  0  0  0  0  0
    0.4463   26.4484  -25.3500 H   0  0  0  0  0  0  0  0  0  0  0  0
    2.2092   25.5967  -26.9032 H   0  0  0  0  0  0  0  0  0  0  0  0
   -0.7541   23.8330  -29.4061 H   0  0  0  0  0  0  0  0  0  0  0  0
  1  2  2  0
  2  3  1  0
  3  4  1  0
  4  5  2  0
  5  6  1  0
  6  7  2  0
  7  8  1  0
  8  9  2  0
  8 10  2  0
  8 11  1  0
 11 12  1  0
 12 13  1  0
 13 14  1  0
 14 15  1  0
 15 16  1  0
  7 17  1  0
 17 18  2  0
  2 19  1  0
 19 20  2  0
 20 21  1  0
 21 22  2  0
 22 23  1  0
 23 24  2  0
 18  4  1  0
 24 19  1  0
 16 11  1  0
  3 25  1  0
  5 26  1  0
  6 27  1  0
 12 28  1  0
 12 29  1  0
 13 30  1  0
 13 31  1  0
 15 32  1  0
 15 33  1  0
 16 34  1  0
 16 35  1  0
 17 36  1  0
 18 37  1  0
 20 38  1  0
 21 39  1  0
 22 40  1  0
 24 41  1  0
M  END
>  <UniqueID>  (28) 
26

>  <SMILES>  (28) 
O=C(Nc1ccc(S(=O)(=O)N2CCOCC2)cc1)c1cccnc1

>  <Energy>  (28) 
60.63867763521063

>  <Genealogy>  (28) 
O=C(Nc1ccc(S(=O)(=O)N2CCOCC2)cc1)c1cccnc1 (3D coordinates assigned)
O=C(Nc1ccc(S(=O)(=O)N2CCOCC2)cc1)c1cccnc1 (nonaromatic ring conformer: 60.63867763521063 kcal/mol)

>  <smiles>  (28) 
O=C(Nc1ccc(S(=O)(=O)N2CCOCC2)cc1)c1cccnc1

>  <score_type>  (28) 
oracle

>  <origin>  (28) 
adgpu

>  <m_score__min__energy>  (28) 
-8.5399999999999991

>  <m_primary>  (28) 
energy

$$$$
28:0
     RDKit          3D

 50 53  0  0  0  0  0  0  0  0999 V2000
   -4.2750   24.9550  -31.0650 O   0  0  0  0  0  0  0  0  0  0  0  0
   -5.3810   24.1100  -30.4950 S   0  0  0  0  0  0  0  0  0  0  0  0
   -6.6740   24.8710  -30.5670 O   0  0  0  0  0  0  0  0  0  0  0  0
   -5.0060   23.7880  -28.8290 N   0  0  0  0  0  0  0  0  0  0  0  0
   -3.6620   23.7240  -28.3230 C   0  0  0  0  0  0  0  0  0  0  0  0
   -3.0820   22.4730  -28.0660 C   0  0  0  0  0  0  0  0  0  0  0  0
   -1.7410   22.3770  -27.6850 C   0  0  0  0  0  0  0  0  0  0  0  0
   -0.9640   23.5340  -27.5430 C   0  0  0  0  0  0  0  0  0  0  0  0
    0.7600   23.4120  -27.1900 S   0  0  0  0  0  0  0  0  0  0  0  0
    1.5340   24.2060  -28.2060 O   0  0  0  0  0  0  0  0  0  0  0  0
    1.1900   21.9760  -27.2970 O   0  0  0  0  0  0  0  0  0  0  0  0
    1.1200   24.0090  -25.5860 N   0  0  0  0  0  0  0  0  0  0  0  0
    0.0140   23.7300  -24.6350 C   0  0  0  0  0  0  0  0  0  0  0  0
   -0.8530   24.9650  -24.3430 C   0  0  0  0  0  0  0  0  0  0  0  0
   -0.0100   26.1110  -23.7610 C   0  0  0  0  0  0  0  0  0  0  0  0
    1.4420   26.1010  -24.2740 C   0  0  0  0  0  0  0  0  0  0  0  0
    1.5370   25.4280  -25.6470 C   0  0  0  0  0  0  0  0  0  0  0  0
   -1.5540   24.7890  -27.7410 C   0  0  0  0  0  0  0  0  0  0  0  0
   -2.8900   24.8850  -28.1330 C   0  0  0  0  0  0  0  0  0  0  0  0
   -5.5600   22.5890  -31.4020 C   0  0  0  0  0  0  0  0  0  0  0  0
   -4.4100   22.0160  -31.9630 C   0  0  0  0  0  0  0  0  0  0  0  0
   -4.4940   20.8890  -32.7750 C   0  0  0  0  0  0  0  0  0  0  0  0
   -5.7240   20.2920  -33.0380 C   0  0  0  0  0  0  0  0  0  0  0  0
   -5.7290   18.7650  -34.2040 Br  0  0  0  0  0  0  0  0  0  0  0  0
   -6.8940   20.8050  -32.4380 C   0  0  0  0  0  0  0  0  0  0  0  0
   -8.1480   20.2010  -32.6460 C   0  0  0  0  0  0  0  0  0  0  0  0
   -9.2560   20.6860  -32.0300 N   0  0  0  0  0  0  0  0  0  0  0  0
   -9.2020   21.7530  -31.1970 C   0  0  0  0  0  0  0  0  0  0  0  0
   -7.9900   22.3970  -30.9580 C   0  0  0  0  0  0  0  0  0  0  0  0
   -6.8140   21.9480  -31.5930 C   0  0  0  0  0  0  0  0  0  0  0  0
   -5.7950   23.4790  -28.2160 H   0  0  0  0  0  0  0  0  0  0  0  0
   -3.6877   21.5601  -28.1652 H   0  0  0  0  0  0  0  0  0  0  0  0
   -1.2941   21.3898  -27.4960 H   0  0  0  0  0  0  0  0  0  0  0  0
   -0.6268   22.9452  -25.0632 H   0  0  0  0  0  0  0  0  0  0  0  0
    0.4691   23.4153  -23.6843 H   0  0  0  0  0  0  0  0  0  0  0  0
   -1.3217   25.3037  -25.2787 H   0  0  0  0  0  0  0  0  0  0  0  0
   -1.6189   24.6861  -23.6044 H   0  0  0  0  0  0  0  0  0  0  0  0
   -0.4755   27.0675  -24.0410 H   0  0  0  0  0  0  0  0  0  0  0  0
    0.0225   25.9783  -22.6695 H   0  0  0  0  0  0  0  0  0  0  0  0
    1.8011   27.1375  -24.3563 H   0  0  0  0  0  0  0  0  0  0  0  0
    2.0600   25.5331  -23.5629 H   0  0  0  0  0  0  0  0  0  0  0  0
    0.8841   25.9623  -26.3528 H   0  0  0  0  0  0  0  0  0  0  0  0
    2.5854   25.4656  -25.9778 H   0  0  0  0  0  0  0  0  0  0  0  0
   -0.9616   25.7030  -27.5868 H   0  0  0  0  0  0  0  0  0  0  0  0
   -3.3424   25.8746  -28.2945 H   0  0  0  0  0  0  0  0  0  0  0  0
   -3.4265   22.4640  -31.7582 H   0  0  0  0  0  0  0  0  0  0  0  0
   -3.5787   20.4652  -33.2138 H   0  0  0  0  0  0  0  0  0  0  0  0
   -8.2308   19.3298  -33.3124 H   0  0  0  0  0  0  0  0  0  0  0  0
  -10.1190   22.1124  -30.7073 H   0  0  0  0  0  0  0  0  0  0  0  0
   -7.9505   23.2568  -30.2731 H   0  0  0  0  0  0  0  0  0  0  0  0
  1  2  2  0
  2  3  2  0
  2  4  1  0
  4  5  1  0
  5  6  2  0
  6  7  1  0
  7  8  2  0
  8  9  1  0
  9 10  2  0
  9 11  2  0
  9 12  1  0
 12 13  1  0
 13 14  1  0
 14 15  1  0
 15 16  1  0
 16 17  1  0
  8 18  1  0
 18 19  2  0
  2 20  1  0
 20 21  2  0
 21 22  1  0
 22 23  2  0
 23 24  1  0
 23 25  1  0
 25 26  2  0
 26 27  1  0
 27 28  2  0
 28 29  1  0
 29 30  2  0
 19  5  1  0
 30 20  1  0
 17 12  1  0
 30 25  1  0
  4 31  1  0
  6 32  1  0
  7 33  1  0
 13 34  1  0
 13 35  1  0
 14 36  1  0
 14 37  1  0
 15 38  1  0
 15 39  1  0
 16 40  1  0
 16 41  1  0
 17 42  1  0
 17 43  1  0
 18 44  1  0
 19 45  1  0
 21 46  1  0
 22 47  1  0
 26 48  1  0
 28 49  1  0
 29 50  1  0
M  END
>  <UniqueID>  (29) 
27

>  <SMILES>  (29) 
O=S(=O)(Nc1ccc(S(=O)(=O)N2CCCCC2)cc1)c1ccc(Br)c2cnccc12

>  <Energy>  (29) 
68.89055895075103

>  <Genealogy>  (29) 
O=S(=O)(Nc1ccc(S(=O)(=O)N2CCCCC2)cc1)c1ccc(Br)c2cnccc12 (3D coordinates assigned)
O=S(=O)(Nc1ccc(S(=O)(=O)N2CCCCC2)cc1)c1ccc(Br)c2cnccc12 (nonaromatic ring conformer: 68.89055895075103 kcal/mol)

>  <smiles>  (29) 
O=S(=O)(Nc1ccc(S(=O)(=O)N2CCCCC2)cc1)c1ccc(Br)c2cnccc12

>  <score_type>  (29) 
oracle

>  <origin>  (29) 
adgpu

>  <m_score__min__energy>  (29) 
-11.82

>  <m_primary>  (29) 
energy

$$$$
29:0
     RDKit          3D

 65 68  0  0  0  0  0  0  0  0999 V2000
    0.2450   21.3600  -35.5540 C   0  0  0  0  0  0  0  0  0  0  0  0
    0.2880   20.7450  -34.1560 C   0  0  0  0  0  0  0  0  0  0  0  0
   -0.0320   19.2400  -34.1750 C   0  0  0  0  0  0  0  0  0  0  0  0
   -0.9880   18.8780  -33.1130 N   0  0  0  0  0  0  0  0  0  0  0  0
   -0.7740   19.2600  -31.7340 C   0  0  0  0  0  0  0  0  0  0  0  0
   -0.0070   18.5790  -31.0010 O   0  0  0  0  0  0  0  0  0  0  0  0
   -1.4440   20.4320  -31.1460 C   0  0  0  0  0  0  0  0  0  0  0  0
   -2.8270   20.4080  -30.9230 C   0  0  0  0  0  0  0  0  0  0  0  0
   -3.4800   21.5450  -30.4370 C   0  0  0  0  0  0  0  0  0  0  0  0
   -2.7520   22.7110  -30.1580 C   0  0  0  0  0  0  0  0  0  0  0  0
   -3.5820   24.1780  -29.6390 S   0  0  0  0  0  0  0  0  0  0  0  0
   -4.3910   23.8820  -28.4070 O   0  0  0  0  0  0  0  0  0  0  0  0
   -2.5550   25.2130  -29.2760 O   0  0  0  0  0  0  0  0  0  0  0  0
   -4.6400   24.8220  -30.8790 N   0  0  0  0  0  0  0  0  0  0  0  0
   -5.3490   23.7680  -31.6380 C   0  0  0  0  0  0  0  0  0  0  0  0
   -6.8200   23.6140  -31.2150 C   0  0  0  0  0  0  0  0  0  0  0  0
   -6.9760   23.9270  -29.8520 O   0  0  0  0  0  0  0  0  0  0  0  0
   -6.7870   25.3160  -29.6540 C   0  0  0  0  0  0  0  0  0  0  0  0
   -5.5340   25.8770  -30.3690 C   0  0  0  0  0  0  0  0  0  0  0  0
   -1.3590   22.7130  -30.3200 C   0  0  0  0  0  0  0  0  0  0  0  0
   -0.7090   21.5790  -30.8150 C   0  0  0  0  0  0  0  0  0  0  0  0
   -2.1990   18.1870  -33.4780 C   0  0  0  0  0  0  0  0  0  0  0  0
   -3.3630   18.9010  -33.8310 C   0  0  0  0  0  0  0  0  0  0  0  0
   -3.2990   20.3370  -33.8880 N   0  0  0  0  0  0  0  0  0  0  0  0
   -4.5250   18.2170  -34.1350 N   0  0  0  0  0  0  0  0  0  0  0  0
   -5.7380   18.9240  -34.6050 C   0  0  0  0  0  0  0  0  0  0  0  0
   -6.6830   19.1820  -33.4570 C   0  0  0  0  0  0  0  0  0  0  0  0
   -6.9540   20.4930  -33.0290 C   0  0  0  0  0  0  0  0  0  0  0  0
   -7.8500   20.7200  -31.9790 C   0  0  0  0  0  0  0  0  0  0  0  0
   -8.4760   19.6430  -31.3460 C   0  0  0  0  0  0  0  0  0  0  0  0
   -8.2100   18.3360  -31.7610 C   0  0  0  0  0  0  0  0  0  0  0  0
   -7.3200   18.1050  -32.8140 C   0  0  0  0  0  0  0  0  0  0  0  0
   -4.5290   16.8410  -34.0840 C   0  0  0  0  0  0  0  0  0  0  0  0
   -5.5730   16.1850  -34.3480 O   0  0  0  0  0  0  0  0  0  0  0  0
   -3.4060   16.1580  -33.7530 N   0  0  0  0  0  0  0  0  0  0  0  0
   -2.2510   16.7920  -33.4570 C   0  0  0  0  0  0  0  0  0  0  0  0
   -1.2330   16.1140  -33.1550 O   0  0  0  0  0  0  0  0  0  0  0  0
    0.1685   22.4542  -35.4710 H   0  0  0  0  0  0  0  0  0  0  0  0
    1.1637   21.0969  -36.0987 H   0  0  0  0  0  0  0  0  0  0  0  0
   -0.6282   20.9716  -36.0987 H   0  0  0  0  0  0  0  0  0  0  0  0
    1.2947   20.8882  -33.7364 H   0  0  0  0  0  0  0  0  0  0  0  0
   -0.4754   21.2457  -33.5423 H   0  0  0  0  0  0  0  0  0  0  0  0
   -0.4665   18.9792  -35.1513 H   0  0  0  0  0  0  0  0  0  0  0  0
    0.9024   18.6860  -34.0020 H   0  0  0  0  0  0  0  0  0  0  0  0
   -3.4005   19.4926  -31.1307 H   0  0  0  0  0  0  0  0  0  0  0  0
   -4.5675   21.5249  -30.2731 H   0  0  0  0  0  0  0  0  0  0  0  0
   -5.3160   24.0229  -32.7075 H   0  0  0  0  0  0  0  0  0  0  0  0
   -4.8434   22.8136  -31.4294 H   0  0  0  0  0  0  0  0  0  0  0  0
   -7.4425   24.2932  -31.8160 H   0  0  0  0  0  0  0  0  0  0  0  0
   -7.1300   22.5713  -31.3784 H   0  0  0  0  0  0  0  0  0  0  0  0
   -7.6722   25.8457  -30.0359 H   0  0  0  0  0  0  0  0  0  0  0  0
   -6.6407   25.4719  -28.5750 H   0  0  0  0  0  0  0  0  0  0  0  0
   -5.8623   26.4976  -31.2158 H   0  0  0  0  0  0  0  0  0  0  0  0
   -4.9661   26.4592  -29.6284 H   0  0  0  0  0  0  0  0  0  0  0  0
   -0.7769   23.6086  -30.0570 H   0  0  0  0  0  0  0  0  0  0  0  0
    0.3832   21.5865  -30.9453 H   0  0  0  0  0  0  0  0  0  0  0  0
   -3.9090   20.9240  -33.2760 H   0  0  0  0  0  0  0  0  0  0  0  0
   -2.7430   20.8490  -34.6030 H   0  0  0  0  0  0  0  0  0  0  0  0
   -5.4450   19.8843  -35.0544 H   0  0  0  0  0  0  0  0  0  0  0  0
   -6.2485   18.2947  -35.3489 H   0  0  0  0  0  0  0  0  0  0  0  0
   -6.4598   21.3435  -33.5214 H   0  0  0  0  0  0  0  0  0  0  0  0
   -8.0622   21.7483  -31.6510 H   0  0  0  0  0  0  0  0  0  0  0  0
   -9.1792   19.8246  -30.5198 H   0  0  0  0  0  0  0  0  0  0  0  0
   -8.7007   17.4888  -31.2594 H   0  0  0  0  0  0  0  0  0  0  0  0
   -7.1165   17.0749  -33.1418 H   0  0  0  0  0  0  0  0  0  0  0  0
  1  2  1  0
  2  3  1  0
  3  4  1  0
  4  5  1  0
  5  6  2  0
  5  7  1  0
  7  8  2  0
  8  9  1  0
  9 10  2  0
 10 11  1  0
 11 12  2  0
 11 13  2  0
 11 14  1  0
 14 15  1  0
 15 16  1  0
 16 17  1  0
 17 18  1  0
 18 19  1  0
 10 20  1  0
 20 21  2  0
  4 22  1  0
 22 23  2  0
 23 24  1  0
 23 25  1  0
 25 26  1  0
 26 27  1  0
 27 28  2  0
 28 29  1  0
 29 30  2  0
 30 31  1  0
 31 32  2  0
 25 33  1  0
 33 34  2  0
 33 35  1  0
 35 36  1  0
 36 37  2  0
 21  7  1  0
 36 22  1  0
 19 14  1  0
 32 27  1  0
  1 38  1  0
  1 39  1  0
  1 40  1  0
  2 41  1  0
  2 42  1  0
  3 43  1  0
  3 44  1  0
  8 45  1  0
  9 46  1  0
 15 47  1  0
 15 48  1  0
 16 49  1  0
 16 50  1  0
 18 51  1  0
 18 52  1  0
 19 53  1  0
 19 54  1  0
 20 55  1  0
 21 56  1  0
 24 57  1  0
 24 58  1  0
 26 59  1  0
 26 60  1  0
 28 61  1  0
 29 62  1  0
 30 63  1  0
 31 64  1  0
 32 65  1  0
M  CHG  1  35  -1
M  END
>  <UniqueID>  (30) 
28

>  <SMILES>  (30) 
CCCN(C(=O)c1ccc(S(=O)(=O)N2CCOCC2)cc1)c1c(N)n(Cc2ccccc2)c(=O)[n-]c1=O

>  <Energy>  (30) 
95.16904410893062

>  <Genealogy>  (30) 
CCCN(C(=O)c1ccc(S(=O)(=O)N2CCOCC2)cc1)c1c(N)n(Cc2ccccc2)c(=O)[n-]c1=O (protonated)
CCCN(C(=O)c1ccc(S(=O)(=O)N2CCOCC2)cc1)c1c(N)n(Cc2ccccc2)c(=O)[n-]c1=O (3D coordinates assigned)
CCCN(C(=O)c1ccc(S(=O)(=O)N2CCOCC2)cc1)c1c(N)n(Cc2ccccc2)c(=O)[n-]c1=O (nonaromatic ring conformer: 95.16904410893062 kcal/mol)

>  <smiles>  (30) 
CCCN(C(=O)c1ccc(S(=O)(=O)N2CCOCC2)cc1)c1c(N)n(Cc2ccccc2)c(=O)[nH]c1=O

>  <score_type>  (30) 
oracle

>  <origin>  (30) 
adgpu

>  <m_score__min__energy>  (30) 
-10.550000000000001

>  <m_primary>  (30) 
energy

$$$$
30:0
     RDKit          3D

 44 46  0  0  0  0  0  0  0  0999 V2000
   -0.1190   20.4940  -34.0680 H   0  0  0  0  0  0  0  0  0  0  0  0
   -0.6510   20.0010  -33.3160 N   0  0  0  0  0  0  0  0  0  0  0  0
   -1.8790   20.2970  -33.0350 C   0  0  0  0  0  0  0  0  0  0  0  0
   -2.5190   19.6230  -32.0450 N   0  0  0  0  0  0  0  0  0  0  0  0
   -3.8070   19.9050  -31.7220 C   0  0  0  0  0  0  0  0  0  0  0  0
   -4.3048   19.3500  -30.9132 H   0  0  0  0  0  0  0  0  0  0  0  0
   -4.5020   20.9010  -32.4170 C   0  0  0  0  0  0  0  0  0  0  0  0
   -5.9110   21.2680  -32.0410 C   0  0  0  0  0  0  0  0  0  0  0  0
   -6.5408   21.2681  -32.9429 H   0  0  0  0  0  0  0  0  0  0  0  0
   -6.2958   20.5332  -31.3184 H   0  0  0  0  0  0  0  0  0  0  0  0
   -5.9350   22.6360  -31.4160 C   0  0  0  0  0  0  0  0  0  0  0  0
   -7.1450   23.1900  -30.9700 C   0  0  0  0  0  0  0  0  0  0  0  0
   -8.0869   22.6418  -31.1191 H   0  0  0  0  0  0  0  0  0  0  0  0
   -7.1570   24.4360  -30.3370 C   0  0  0  0  0  0  0  0  0  0  0  0
   -8.1102   24.8747  -30.0067 H   0  0  0  0  0  0  0  0  0  0  0  0
   -5.9620   25.1250  -30.1230 C   0  0  0  0  0  0  0  0  0  0  0  0
   -5.9771   26.1088  -29.6311 H   0  0  0  0  0  0  0  0  0  0  0  0
   -4.7390   24.5660  -30.5340 C   0  0  0  0  0  0  0  0  0  0  0  0
   -3.4910   25.2340  -30.3090 N   0  0  0  0  0  0  0  0  0  0  0  0
   -2.4810   24.8360  -29.3710 C   0  0  0  0  0  0  0  0  0  0  0  0
   -1.7900   25.7280  -28.8100 O   0  0  0  0  0  0  0  0  0  0  0  0
   -2.2150   23.4130  -29.0580 C   0  0  0  0  0  0  0  0  0  0  0  0
   -1.1500   22.7780  -29.7170 C   0  0  0  0  0  0  0  0  0  0  0  0
   -0.5704   23.3300  -30.4715 H   0  0  0  0  0  0  0  0  0  0  0  0
   -0.8190   21.4540  -29.4250 C   0  0  0  0  0  0  0  0  0  0  0  0
    0.0152   20.9690  -29.9531 H   0  0  0  0  0  0  0  0  0  0  0  0
   -1.5430   20.7410  -28.4640 C   0  0  0  0  0  0  0  0  0  0  0  0
   -1.2010   19.3110  -28.1680 C   0  0  0  0  0  0  0  0  0  0  0  0
   -1.1650   19.1605  -27.0789 H   0  0  0  0  0  0  0  0  0  0  0  0
   -1.9671   18.6530  -28.6040 H   0  0  0  0  0  0  0  0  0  0  0  0
   -0.2201   19.0708  -28.6040 H   0  0  0  0  0  0  0  0  0  0  0  0
   -2.6380   21.3500  -27.8340 C   0  0  0  0  0  0  0  0  0  0  0  0
   -3.2235   20.7830  -27.0953 H   0  0  0  0  0  0  0  0  0  0  0  0
   -2.9970   22.6750  -28.1340 C   0  0  0  0  0  0  0  0  0  0  0  0
   -4.2060   23.2570  -27.4480 C   0  0  0  0  0  0  0  0  0  0  0  0
   -4.0748   23.1938  -26.3577 H   0  0  0  0  0  0  0  0  0  0  0  0
   -4.3233   24.3103  -27.7428 H   0  0  0  0  0  0  0  0  0  0  0  0
   -5.1024   22.6917  -27.7428 H   0  0  0  0  0  0  0  0  0  0  0  0
   -4.7360   23.3350  -31.2010 C   0  0  0  0  0  0  0  0  0  0  0  0
   -3.7862   22.9116  -31.5598 H   0  0  0  0  0  0  0  0  0  0  0  0
   -3.8210   21.5940  -33.4250 C   0  0  0  0  0  0  0  0  0  0  0  0
   -4.3313   22.3948  -33.9802 H   0  0  0  0  0  0  0  0  0  0  0  0
   -2.5320   21.2810  -33.7200 N   0  0  0  0  0  0  0  0  0  0  0  0
   -2.0460   21.8110  -34.4780 H   0  0  0  0  0  0  0  0  0  0  0  0
  1  2  1  0
  2  3  2  0
  3  4  1  0
  4  5  2  0
  5  6  1  0
  5  7  1  0
  7  8  1  0
  8  9  1  0
  8 10  1  0
  8 11  1  0
 11 12  2  0
 12 13  1  0
 12 14  1  0
 14 15  1  0
 14 16  2  0
 16 17  1  0
 16 18  1  0
 18 19  1  0
 19 20  1  0
 20 21  2  0
 20 22  1  0
 22 23  2  0
 23 24  1  0
 23 25  1  0
 25 26  1  0
 25 27  2  0
 27 28  1  0
 28 29  1  0
 28 30  1  0
 28 31  1  0
 27 32  1  0
 32 33  1  0
 32 34  2  0
 34 35  1  0
 35 36  1  0
 35 37  1  0
 35 38  1  0
 18 39  2  0
 39 40  1  0
  7 41  2  0
 41 42  1  0
 41 43  1  0
 43 44  1  0
 43  3  1  0
 39 11  1  0
 34 22  1  0
M  CHG  1  19  -1
M  END
>  <UniqueID>  (31) 
29

>  <SMILES>  (31) 
[H]/N=c1/ncc(Cc2cccc([N-]C(=O)c3ccc(C)cc3C)c2)c[nH]1

>  <Energy>  (31) 
53.31422017438556

>  <Genealogy>  (31) 
Cc1ccc(C(=O)[N-]c2cccc(Cc3cnc(=N)[nH]c3)c2)c(C)c1 (protonated)
[H]/N=c1/ncc(Cc2cccc([N-]C(=O)c3ccc(C)cc3C)c2)c[nH]1 (cis-trans isomerization)
[H]/N=c1/ncc(Cc2cccc([N-]C(=O)c3ccc(C)cc3C)c2)c[nH]1 (3D coordinates assigned)
[H]/N=c1/ncc(Cc2cccc([N-]C(=O)c3ccc(C)cc3C)c2)c[nH]1 (optimized conformer: 53.31422017438556 kcal/mol)

>  <smiles>  (31) 
Cc1ccc(C(=O)Nc2cccc(Cc3cnc(=N)[nH]c3)c2)c(C)c1

>  <score_type>  (31) 
oracle

>  <origin>  (31) 
adgpu

>  <m_score__min__energy>  (31) 
-10.539999999999999

>  <m_primary>  (31) 
energy

$$$$
31:0
     RDKit          3D

 60 63  0  0  0  0  0  0  0  0999 V2000
   -2.1310   22.6310  -28.2270 O   0  0  0  0  0  0  0  0  0  0  0  0
   -2.0190   23.3560  -29.5400 S   0  0  0  0  0  0  0  0  0  0  0  0
   -1.7260   24.8050  -29.2650 O   0  0  0  0  0  0  0  0  0  0  0  0
   -0.7260   22.6820  -30.4770 N   0  0  0  0  0  0  0  0  0  0  0  0
   -0.6410   21.2910  -30.7960 C   0  0  0  0  0  0  0  0  0  0  0  0
   -0.1790   20.3550  -29.8580 C   0  0  0  0  0  0  0  0  0  0  0  0
   -0.0840   19.0060  -30.2050 C   0  0  0  0  0  0  0  0  0  0  0  0
   -0.4630   18.5810  -31.4790 C   0  0  0  0  0  0  0  0  0  0  0  0
   -0.9480   19.5040  -32.4150 C   0  0  0  0  0  0  0  0  0  0  0  0
   -1.4530   18.9650  -34.0160 S   0  0  0  0  0  0  0  0  0  0  0  0
   -2.5800   19.8420  -34.4840 O   0  0  0  0  0  0  0  0  0  0  0  0
   -0.3060   19.1480  -34.9740 O   0  0  0  0  0  0  0  0  0  0  0  0
   -1.9860   17.2970  -34.0540 N   0  0  0  0  0  0  0  0  0  0  0  0
   -2.6010   16.8860  -35.3330 C   0  0  0  0  0  0  0  0  0  0  0  0
   -4.1160   17.1230  -35.3880 C   0  0  0  0  0  0  0  0  0  0  0  0
   -4.8120   16.5320  -34.1690 C   0  0  0  0  0  0  0  0  0  0  0  0
   -4.2100   17.1080  -32.8960 C   0  0  0  0  0  0  0  0  0  0  0  0
   -2.7000   16.8510  -32.8410 C   0  0  0  0  0  0  0  0  0  0  0  0
   -1.0000   20.8640  -32.0800 C   0  0  0  0  0  0  0  0  0  0  0  0
   -3.5090   23.2440  -30.4810 C   0  0  0  0  0  0  0  0  0  0  0  0
   -3.9320   21.9790  -30.9100 C   0  0  0  0  0  0  0  0  0  0  0  0
   -5.0890   21.8370  -31.6860 C   0  0  0  0  0  0  0  0  0  0  0  0
   -5.5860   20.2390  -32.2480 S   0  0  0  0  0  0  0  0  0  0  0  0
   -5.1550   19.2020  -31.2450 O   0  0  0  0  0  0  0  0  0  0  0  0
   -4.8970   19.9400  -33.5530 O   0  0  0  0  0  0  0  0  0  0  0  0
   -7.3150   20.1410  -32.4760 N   0  0  0  0  0  0  0  0  0  0  0  0
   -7.7890   18.7650  -32.2600 C   0  0  0  0  0  0  0  0  0  0  0  0
   -9.3270   18.7100  -32.3480 C   0  0  0  0  0  0  0  0  0  0  0  0
   -9.8760   19.9620  -32.7150 O   0  0  0  0  0  0  0  0  0  0  0  0
   -9.5360   20.9380  -31.7470 C   0  0  0  0  0  0  0  0  0  0  0  0
   -8.0090   21.0600  -31.5620 C   0  0  0  0  0  0  0  0  0  0  0  0
   -5.8400   22.9700  -32.0170 C   0  0  0  0  0  0  0  0  0  0  0  0
   -5.4280   24.2340  -31.5900 C   0  0  0  0  0  0  0  0  0  0  0  0
   -4.2620   24.3790  -30.8300 C   0  0  0  0  0  0  0  0  0  0  0  0
   -3.8660   25.6520  -30.4390 O   0  0  0  0  0  0  0  0  0  0  0  0
    0.1085   20.6844  -28.8486 H   0  0  0  0  0  0  0  0  0  0  0  0
    0.2906   18.2762  -29.4722 H   0  0  0  0  0  0  0  0  0  0  0  0
   -0.3807   17.5179  -31.7493 H   0  0  0  0  0  0  0  0  0  0  0  0
   -2.1294   17.4580  -36.1457 H   0  0  0  0  0  0  0  0  0  0  0  0
   -2.4391   15.8029  -35.4365 H   0  0  0  0  0  0  0  0  0  0  0  0
   -4.3086   18.2055  -35.4211 H   0  0  0  0  0  0  0  0  0  0  0  0
   -4.5126   16.6301  -36.2878 H   0  0  0  0  0  0  0  0  0  0  0  0
   -5.8840   16.7757  -34.2077 H   0  0  0  0  0  0  0  0  0  0  0  0
   -4.6774   15.4403  -34.1703 H   0  0  0  0  0  0  0  0  0  0  0  0
   -4.3921   18.1925  -32.8700 H   0  0  0  0  0  0  0  0  0  0  0  0
   -4.6818   16.6188  -32.0311 H   0  0  0  0  0  0  0  0  0  0  0  0
   -2.2859   17.3882  -31.9750 H   0  0  0  0  0  0  0  0  0  0  0  0
   -2.5579   15.7631  -32.7613 H   0  0  0  0  0  0  0  0  0  0  0  0
   -1.3247   21.6000  -32.8302 H   0  0  0  0  0  0  0  0  0  0  0  0
   -3.3490   21.0879  -30.6343 H   0  0  0  0  0  0  0  0  0  0  0  0
   -7.3576   18.1075  -33.0291 H   0  0  0  0  0  0  0  0  0  0  0  0
   -7.4752   18.4308  -31.2601 H   0  0  0  0  0  0  0  0  0  0  0  0
   -9.6144   17.9606  -33.1002 H   0  0  0  0  0  0  0  0  0  0  0  0
   -9.7177   18.4423  -31.3552 H   0  0  0  0  0  0  0  0  0  0  0  0
   -9.9338   21.9116  -32.0692 H   0  0  0  0  0  0  0  0  0  0  0  0
   -9.9715   20.6293  -30.7852 H   0  0  0  0  0  0  0  0  0  0  0  0
   -7.6975   22.0926  -31.7783 H   0  0  0  0  0  0  0  0  0  0  0  0
   -7.7498   20.8007  -30.5249 H   0  0  0  0  0  0  0  0  0  0  0  0
   -6.7572   22.8648  -32.6150 H   0  0  0  0  0  0  0  0  0  0  0  0
   -6.0234   25.1209  -31.8526 H   0  0  0  0  0  0  0  0  0  0  0  0
  1  2  2  0
  2  3  2  0
  2  4  1  0
  4  5  1  0
  5  6  2  0
  6  7  1  0
  7  8  2  0
  8  9  1  0
  9 10  1  0
 10 11  2  0
 10 12  2  0
 10 13  1  0
 13 14  1  0
 14 15  1  0
 15 16  1  0
 16 17  1  0
 17 18  1  0
  9 19  2  0
  2 20  1  0
 20 21  2  0
 21 22  1  0
 22 23  1  0
 23 24  2  0
 23 25  2  0
 23 26  1  0
 26 27  1  0
 27 28  1  0
 28 29  1  0
 29 30  1  0
 30 31  1  0
 22 32  2  0
 32 33  1  0
 33 34  2  0
 34 35  1  0
 19  5  1  0
 34 20  1  0
 18 13  1  0
 31 26  1  0
  6 36  1  0
  7 37  1  0
  8 38  1  0
 14 39  1  0
 14 40  1  0
 15 41  1  0
 15 42  1  0
 16 43  1  0
 16 44  1  0
 17 45  1  0
 17 46  1  0
 18 47  1  0
 18 48  1  0
 19 49  1  0
 21 50  1  0
 27 51  1  0
 27 52  1  0
 28 53  1  0
 28 54  1  0
 30 55  1  0
 30 56  1  0
 31 57  1  0
 31 58  1  0
 32 59  1  0
 33 60  1  0
M  CHG  2   4  -1  35  -1
M  END
>  <UniqueID>  (32) 
30

>  <SMILES>  (32) 
O=S(=O)([N-]c1cccc(S(=O)(=O)N2CCCCC2)c1)c1cc(S(=O)(=O)N2CCOCC2)ccc1[O-]

>  <Energy>  (32) 
75.49387308159353

>  <Genealogy>  (32) 
O=S(=O)([N-]c1cccc(S(=O)(=O)N2CCCCC2)c1)c1cc(S(=O)(=O)N2CCOCC2)ccc1[O-] (protonated)
O=S(=O)([N-]c1cccc(S(=O)(=O)N2CCCCC2)c1)c1cc(S(=O)(=O)N2CCOCC2)ccc1[O-] (3D coordinates assigned)
O=S(=O)([N-]c1cccc(S(=O)(=O)N2CCCCC2)c1)c1cc(S(=O)(=O)N2CCOCC2)ccc1[O-] (nonaromatic ring conformer: 75.49387308159353 kcal/mol)

>  <smiles>  (32) 
O=S(=O)(Nc1cccc(S(=O)(=O)N2CCCCC2)c1)c1cc(S(=O)(=O)N2CCOCC2)ccc1O

>  <score_type>  (32) 
oracle

>  <origin>  (32) 
adgpu

>  <m_score__min__energy>  (32) 
-15.66

>  <m_primary>  (32) 
energy

$$$$
32:0
     RDKit          3D

 51 54  0  0  0  0  0  0  0  0999 V2000
   -6.8180   17.9030  -32.0630 C   0  0  0  0  0  0  0  0  0  0  0  0
   -6.3240   16.6900  -32.7760 C   0  0  0  0  0  0  0  0  0  0  0  0
   -5.2210   15.9350  -32.4430 C   0  0  0  0  0  0  0  0  0  0  0  0
   -5.2370   14.9160  -33.3760 C   0  0  0  0  0  0  0  0  0  0  0  0
   -4.2640   13.7730  -33.4790 C   0  0  0  0  0  0  0  0  0  0  0  0
   -2.9660   14.1270  -34.1140 N   0  0  0  0  0  0  0  0  0  0  0  0
   -1.9010   14.4830  -33.1330 C   0  0  0  0  0  0  0  0  0  0  0  0
   -1.8960   15.9720  -32.7220 C   0  0  0  0  0  0  0  0  0  0  0  0
   -2.2830   16.8440  -33.8340 N   0  0  0  0  0  0  0  0  0  0  0  0
   -2.8280   18.1570  -33.5730 C   0  0  0  0  0  0  0  0  0  0  0  0
   -2.2330   19.0110  -32.6340 C   0  0  0  0  0  0  0  0  0  0  0  0
   -2.7800   20.2230  -32.3670 N   0  0  0  0  0  0  0  0  0  0  0  0
   -3.9120   20.6390  -32.9980 C   0  0  0  0  0  0  0  0  0  0  0  0
   -4.4360   21.8000  -32.7390 N   0  0  0  0  0  0  0  0  0  0  0  0
   -3.8930   22.7680  -31.7860 C   0  0  0  0  0  0  0  0  0  0  0  0
   -5.0070   23.5170  -31.0970 C   0  0  0  0  0  0  0  0  0  0  0  0
   -6.3050   22.9800  -31.0690 C   0  0  0  0  0  0  0  0  0  0  0  0
   -7.3360   23.6590  -30.4130 C   0  0  0  0  0  0  0  0  0  0  0  0
   -7.0820   24.8790  -29.7820 C   0  0  0  0  0  0  0  0  0  0  0  0
   -5.7940   25.4210  -29.8020 C   0  0  0  0  0  0  0  0  0  0  0  0
   -4.7560   24.7450  -30.4540 C   0  0  0  0  0  0  0  0  0  0  0  0
   -3.4800   25.2980  -30.4580 O   0  0  0  0  0  0  0  0  0  0  0  0
   -4.5100   19.8280  -33.9070 N   0  0  0  0  0  0  0  0  0  0  0  0
   -3.9980   18.6070  -34.2060 C   0  0  0  0  0  0  0  0  0  0  0  0
   -2.2060   16.2910  -35.1850 C   0  0  0  0  0  0  0  0  0  0  0  0
   -3.1140   15.0630  -35.2710 C   0  0  0  0  0  0  0  0  0  0  0  0
   -6.2770   15.0890  -34.2160 N   0  0  0  0  0  0  0  0  0  0  0  0
   -6.9090   16.1580  -33.8230 O   0  0  0  0  0  0  0  0  0  0  0  0
   -6.7524   17.7420  -30.9768 H   0  0  0  0  0  0  0  0  0  0  0  0
   -6.2012   18.7696  -32.3431 H   0  0  0  0  0  0  0  0  0  0  0  0
   -7.8648   18.0921  -32.3431 H   0  0  0  0  0  0  0  0  0  0  0  0
   -4.5002   16.1031  -31.6293 H   0  0  0  0  0  0  0  0  0  0  0  0
   -4.0605   13.4017  -32.4638 H   0  0  0  0  0  0  0  0  0  0  0  0
   -4.7343   13.0173  -34.1254 H   0  0  0  0  0  0  0  0  0  0  0  0
   -2.6380   13.2210  -34.5330 H   0  0  0  0  0  0  0  0  0  0  0  0
   -2.0474   13.8751  -32.2280 H   0  0  0  0  0  0  0  0  0  0  0  0
   -0.9371   14.2860  -33.6250 H   0  0  0  0  0  0  0  0  0  0  0  0
   -2.6053   16.1152  -31.8935 H   0  0  0  0  0  0  0  0  0  0  0  0
   -0.8735   16.2395  -32.4172 H   0  0  0  0  0  0  0  0  0  0  0  0
   -1.3178   18.6965  -32.1110 H   0  0  0  0  0  0  0  0  0  0  0  0
   -3.2945   22.2361  -31.0318 H   0  0  0  0  0  0  0  0  0  0  0  0
   -3.2653   23.4884  -32.3310 H   0  0  0  0  0  0  0  0  0  0  0  0
   -6.5110   22.0204  -31.5658 H   0  0  0  0  0  0  0  0  0  0  0  0
   -8.3494   23.2316  -30.3937 H   0  0  0  0  0  0  0  0  0  0  0  0
   -7.8956   25.4131  -29.2694 H   0  0  0  0  0  0  0  0  0  0  0  0
   -5.5953   26.3815  -29.3040 H   0  0  0  0  0  0  0  0  0  0  0  0
   -4.5012   17.9679  -34.9465 H   0  0  0  0  0  0  0  0  0  0  0  0
   -2.5372   17.0466  -35.9126 H   0  0  0  0  0  0  0  0  0  0  0  0
   -1.1686   16.0036  -35.4112 H   0  0  0  0  0  0  0  0  0  0  0  0
   -4.1587   15.4050  -35.3102 H   0  0  0  0  0  0  0  0  0  0  0  0
   -2.8214   14.5080  -36.1745 H   0  0  0  0  0  0  0  0  0  0  0  0
  1  2  1  0
  2  3  2  0
  3  4  1  0
  4  5  1  0
  5  6  1  0
  6  7  1  0
  7  8  1  0
  8  9  1  0
  9 10  1  0
 10 11  1  0
 11 12  2  0
 12 13  1  0
 13 14  2  3
 14 15  1  0
 15 16  1  0
 16 17  2  0
 17 18  1  0
 18 19  2  0
 19 20  1  0
 20 21  2  0
 21 22  1  0
 13 23  1  0
 23 24  1  0
  9 25  1  0
 25 26  1  0
  4 27  2  0
 27 28  1  0
 28  2  1  0
 26  6  1  0
 24 10  2  0
 21 16  1  0
  1 29  1  0
  1 30  1  0
  1 31  1  0
  3 32  1  0
  5 33  1  0
  5 34  1  0
  6 35  1  0
  7 36  1  0
  7 37  1  0
  8 38  1  0
  8 39  1  0
 11 40  1  0
 15 41  1  0
 15 42  1  0
 17 43  1  0
 18 44  1  0
 19 45  1  0
 20 46  1  0
 24 47  1  0
 25 48  1  0
 25 49  1  0
 26 50  1  0
 26 51  1  0
M  CHG  3   6   1  22  -1  23  -1
M  END
>  <UniqueID>  (33) 
31

>  <SMILES>  (33) 
Cc1cc(C[NH+]2CCN(c3cnc(=NCc4ccccc4[O-])[n-]c3)CC2)no1

>  <Energy>  (33) 
97.7275825377559

>  <Genealogy>  (33) 
Cc1cc(C[NH+]2CCN(c3cnc(=NCc4ccccc4[O-])[n-]c3)CC2)no1 (protonated)
Cc1cc(C[NH+]2CCN(c3cnc(=NCc4ccccc4[O-])[n-]c3)CC2)no1 (3D coordinates assigned)
Cc1cc(C[NH+]2CCN(c3cnc(=NCc4ccccc4[O-])[n-]c3)CC2)no1 (nonaromatic ring conformer: 97.7275825377559 kcal/mol)

>  <smiles>  (33) 
Cc1cc(CN2CCN(c3cnc(=NCc4ccccc4O)[nH]c3)CC2)no1

>  <score_type>  (33) 
oracle

>  <origin>  (33) 
adgpu

>  <m_score__min__energy>  (33) 
-11.890000000000001

>  <m_primary>  (33) 
energy

$$$$
33:0
     RDKit          3D

 54 57  0  0  1  0  0  0  0  0999 V2000
   -4.6020   24.1830  -30.8820 O   0  0  0  0  0  0  0  0  0  0  0  0
   -5.0850   23.0570  -30.6000 C   0  0  0  0  0  0  0  0  0  0  0  0
   -4.3400   22.1950  -29.7510 N   0  0  0  0  0  0  0  0  0  0  0  0
   -3.0720   22.5430  -29.2040 C   0  0  0  0  0  0  0  0  0  0  0  0
   -2.8110   22.3120  -27.8620 C   0  0  0  0  0  0  0  0  0  0  0  0
   -1.5800   22.6480  -27.3280 C   0  0  0  0  0  0  0  0  0  0  0  0
   -0.5980   23.2230  -28.1450 C   0  0  0  0  0  0  0  0  0  0  0  0
    0.9490   23.6280  -27.4010 S   0  0  0  0  0  0  0  0  0  0  0  0
    1.8560   22.4070  -27.4420 O   0  0  0  0  0  0  0  0  0  0  0  0
    1.6200   24.7690  -28.1020 O   0  0  0  0  0  0  0  0  0  0  0  0
    0.6230   23.9600  -25.7390 N   0  0  0  0  0  0  0  0  0  0  0  0
    0.0400   25.0680  -25.4270 C   0  0  0  0  0  0  0  0  0  0  0  0
   -0.2230   25.3350  -24.0870 C   0  0  0  0  0  0  0  0  0  0  0  0
   -0.8470   26.5180  -23.7200 C   0  0  0  0  0  0  0  0  0  0  0  0
   -1.1910   27.3940  -24.6950 N   0  0  0  0  0  0  0  0  0  0  0  0
   -0.9260   27.1130  -25.9810 C   0  0  0  0  0  0  0  0  0  0  0  0
   -0.3210   25.9720  -26.3530 N   0  0  0  0  0  0  0  0  0  0  0  0
   -0.8430   23.4590  -29.4840 C   0  0  0  0  0  0  0  0  0  0  0  0
   -2.0880   23.1120  -29.9940 C   0  0  0  0  0  0  0  0  0  0  0  0
   -6.3700   22.7070  -31.1560 C   0  0  0  0  0  0  0  0  0  0  0  0
   -7.2650   23.7290  -31.4050 C   0  0  0  0  0  0  0  0  0  0  0  0
   -8.5110   23.4180  -31.9410 C   0  0  0  0  0  0  0  0  0  0  0  0
   -8.8670   22.1160  -32.2260 C   0  0  0  0  0  0  0  0  0  0  0  0
   -7.9800   21.0860  -31.9810 C   0  0  0  0  0  0  0  0  0  0  0  0
   -8.3650   19.4180  -32.3190 S   0  0  0  0  0  0  0  0  0  0  0  0
   -8.2940   18.6860  -30.9920 O   0  0  0  0  0  0  0  0  0  0  0  0
   -9.7890   19.3430  -32.8090 O   0  0  0  0  0  0  0  0  0  0  0  0
   -7.2440   18.6970  -33.3860 N   0  0  0  0  0  0  0  0  0  0  0  0
   -6.4930   17.6940  -32.6610 C   0  0  0  0  0  0  0  0  0  0  0  0
   -5.3870   18.4880  -32.0400 C   0  0  0  0  0  0  0  0  0  0  0  0
   -5.0050   19.4490  -33.1630 C   0  0  0  0  0  0  0  0  0  0  0  0
   -6.2850   19.6490  -33.9060 C   0  0  0  0  0  0  0  0  0  0  0  0
   -6.7480   21.4130  -31.4480 C   0  0  0  0  0  0  0  0  0  0  0  0
   -4.7140   21.2550  -29.4990 H   0  0  0  0  0  0  0  0  0  0  0  0
   -3.5834   21.8612  -27.2215 H   0  0  0  0  0  0  0  0  0  0  0  0
   -1.3725   22.4640  -26.2635 H   0  0  0  0  0  0  0  0  0  0  0  0
    0.0650   24.6052  -23.3160 H   0  0  0  0  0  0  0  0  0  0  0  0
   -1.0575   26.7398  -22.6633 H   0  0  0  0  0  0  0  0  0  0  0  0
   -1.6610   28.2920  -24.4530 H   0  0  0  0  0  0  0  0  0  0  0  0
   -1.2133   27.8400  -26.7549 H   0  0  0  0  0  0  0  0  0  0  0  0
   -0.0737   23.9092  -30.1286 H   0  0  0  0  0  0  0  0  0  0  0  0
   -2.2981   23.2950  -31.0581 H   0  0  0  0  0  0  0  0  0  0  0  0
   -6.9971   24.7725  -31.1831 H   0  0  0  0  0  0  0  0  0  0  0  0
   -9.2277   24.2280  -32.1418 H   0  0  0  0  0  0  0  0  0  0  0  0
   -9.8587   21.8978  -32.6490 H   0  0  0  0  0  0  0  0  0  0  0  0
   -7.1151   17.2132  -31.8917 H   0  0  0  0  0  0  0  0  0  0  0  0
   -6.1332   16.8745  -33.3004 H   0  0  0  0  0  0  0  0  0  0  0  0
   -5.7384   19.0332  -31.1516 H   0  0  0  0  0  0  0  0  0  0  0  0
   -4.5485   17.8713  -31.6842 H   0  0  0  0  0  0  0  0  0  0  0  0
   -4.6346   20.4013  -32.7557 H   0  0  0  0  0  0  0  0  0  0  0  0
   -4.1972   19.0609  -33.8008 H   0  0  0  0  0  0  0  0  0  0  0  0
   -6.6524   20.6743  -33.7518 H   0  0  0  0  0  0  0  0  0  0  0  0
   -6.1343   19.4967  -34.9849 H   0  0  0  0  0  0  0  0  0  0  0  0
   -6.0333   20.6014  -31.2466 H   0  0  0  0  0  0  0  0  0  0  0  0
  1  2  2  0
  2  3  1  0
  3  4  1  0
  4  5  2  0
  5  6  1  0
  6  7  2  0
  7  8  1  0
  8  9  2  0
  8 10  2  0
  8 11  1  0
 11 12  2  0
 12 13  1  0
 13 14  2  0
 14 15  1  0
 15 16  1  0
 16 17  2  0
  7 18  1  0
 18 19  2  0
  2 20  1  0
 20 21  2  0
 21 22  1  0
 22 23  2  0
 23 24  1  0
 24 25  1  0
 25 26  2  0
 25 27  2  0
 25 28  1  0
 28 29  1  0
 29 30  1  0
 30 31  1  0
 31 32  1  0
 24 33  2  0
 19  4  1  0
 33 20  1  0
 17 12  1  0
 32 28  1  0
  3 34  1  0
  5 35  1  0
  6 36  1  0
 13 37  1  0
 14 38  1  0
 15 39  1  0
 16 40  1  0
 18 41  1  0
 19 42  1  0
 21 43  1  0
 22 44  1  0
 23 45  1  0
 29 46  1  0
 29 47  1  0
 30 48  1  0
 30 49  1  0
 31 50  1  0
 31 51  1  0
 32 52  1  0
 32 53  1  0
 33 54  1  0
M  END
>  <smiles>  (34) 
O=C(Nc1ccc(S(=O)(=O)N=c2cc[nH]cn2)cc1)c1cccc(S(=O)(=O)N2CCCC2)c1

>  <score_type>  (34) 
oracle

>  <origin>  (34) 
adgpu

>  <m_score__min__energy>  (34) 
-10.66

>  <m_primary>  (34) 
energy

$$$$
34:0
     RDKit          3D

 43 45  0  0  0  0  0  0  0  0999 V2000
   -3.8660   25.4790  -30.9790 O   0  0  0  0  0  0  0  0  0  0  0  0
   -4.7710   24.7900  -30.4380 C   0  0  0  0  0  0  0  0  0  0  0  0
   -6.0370   24.6110  -31.0880 N   0  0  0  0  0  0  0  0  0  0  0  0
   -6.6120   23.3630  -31.5010 C   0  0  0  0  0  0  0  0  0  0  0  0
   -8.0050   23.2570  -31.5780 C   0  0  0  0  0  0  0  0  0  0  0  0
   -8.6030   22.0540  -31.9610 C   0  0  0  0  0  0  0  0  0  0  0  0
   -7.8120   20.9410  -32.2560 C   0  0  0  0  0  0  0  0  0  0  0  0
   -6.4160   21.0240  -32.1580 C   0  0  0  0  0  0  0  0  0  0  0  0
   -5.4170   19.6130  -32.5160 S   0  0  0  0  0  0  0  0  0  0  0  0
   -5.7650   19.0960  -33.8840 O   0  0  0  0  0  0  0  0  0  0  0  0
   -5.7180   18.5280  -31.5180 O   0  0  0  0  0  0  0  0  0  0  0  0
   -3.7140   19.9940  -32.4620 N   0  0  0  0  0  0  0  0  0  0  0  0
   -3.3280   20.4490  -31.1140 C   0  0  0  0  0  0  0  0  0  0  0  0
   -1.8850   20.9920  -31.1160 C   0  0  0  0  0  0  0  0  0  0  0  0
   -1.2250   20.6860  -32.3290 O   0  0  0  0  0  0  0  0  0  0  0  0
   -1.8740   21.3400  -33.4060 C   0  0  0  0  0  0  0  0  0  0  0  0
   -3.3840   21.0230  -33.4580 C   0  0  0  0  0  0  0  0  0  0  0  0
   -5.8190   22.2330  -31.7700 C   0  0  0  0  0  0  0  0  0  0  0  0
   -4.5580   24.2730  -29.1220 N   0  0  0  0  0  0  0  0  0  0  0  0
   -3.4160   23.5070  -28.7140 C   0  0  0  0  0  0  0  0  0  0  0  0
   -3.6270   22.2510  -28.1300 C   0  0  0  0  0  0  0  0  0  0  0  0
   -2.5430   21.4720  -27.7140 C   0  0  0  0  0  0  0  0  0  0  0  0
   -1.2390   21.9520  -27.8610 C   0  0  0  0  0  0  0  0  0  0  0  0
   -0.1630   21.1760  -27.4510 O   0  0  0  0  0  0  0  0  0  0  0  0
   -1.0190   23.2180  -28.4120 C   0  0  0  0  0  0  0  0  0  0  0  0
   -2.1020   24.0090  -28.8250 C   0  0  0  0  0  0  0  0  0  0  0  0
   -1.8760   25.2950  -29.3130 O   0  0  0  0  0  0  0  0  0  0  0  0
   -8.6334   24.1266  -31.3354 H   0  0  0  0  0  0  0  0  0  0  0  0
   -9.6985   21.9830  -32.0304 H   0  0  0  0  0  0  0  0  0  0  0  0
   -8.2854   19.9977  -32.5658 H   0  0  0  0  0  0  0  0  0  0  0  0
   -4.0137   21.2464  -30.7917 H   0  0  0  0  0  0  0  0  0  0  0  0
   -3.3843   19.5955  -30.4224 H   0  0  0  0  0  0  0  0  0  0  0  0
   -1.9125   22.0842  -30.9881 H   0  0  0  0  0  0  0  0  0  0  0  0
   -1.3335   20.5185  -30.2904 H   0  0  0  0  0  0  0  0  0  0  0  0
   -1.7441   22.4262  -33.2905 H   0  0  0  0  0  0  0  0  0  0  0  0
   -1.4214   20.9791  -34.3414 H   0  0  0  0  0  0  0  0  0  0  0  0
   -3.9562   21.9371  -33.2413 H   0  0  0  0  0  0  0  0  0  0  0  0
   -3.6417   20.6519  -34.4609 H   0  0  0  0  0  0  0  0  0  0  0  0
   -4.7249   22.2974  -31.6757 H   0  0  0  0  0  0  0  0  0  0  0  0
   -4.6524   21.8753  -27.9979 H   0  0  0  0  0  0  0  0  0  0  0  0
   -2.7169   20.4804  -27.2706 H   0  0  0  0  0  0  0  0  0  0  0  0
    0.0082   23.5959  -28.5223 H   0  0  0  0  0  0  0  0  0  0  0  0
   -2.4150   25.6750  -30.0830 H   0  0  0  0  0  0  0  0  0  0  0  0
  1  2  2  0
  2  3  1  0
  3  4  1  0
  4  5  2  0
  5  6  1  0
  6  7  2  0
  7  8  1  0
  8  9  1  0
  9 10  2  0
  9 11  2  0
  9 12  1  0
 12 13  1  0
 13 14  1  0
 14 15  1  0
 15 16  1  0
 16 17  1  0
  8 18  2  0
  2 19  1  0
 19 20  1  0
 20 21  2  0
 21 22  1  0
 22 23  2  0
 23 24  1  0
 23 25  1  0
 25 26  2  0
 26 27  1  0
 18  4  1  0
 26 20  1  0
 17 12  1  0
  5 28  1  0
  6 29  1  0
  7 30  1  0
 13 31  1  0
 13 32  1  0
 14 33  1  0
 14 34  1  0
 16 35  1  0
 16 36  1  0
 17 37  1  0
 17 38  1  0
 18 39  1  0
 21 40  1  0
 22 41  1  0
 25 42  1  0
 27 43  1  0
M  CHG  3   3  -1  19  -1  24  -1
M  END
>  <UniqueID>  (35) 
32

>  <SMILES>  (35) 
O=C([N-]c1cccc(S(=O)(=O)N2CCOCC2)c1)[N-]c1ccc([O-])cc1O

>  <Energy>  (35) 
59.50833922694265

>  <Genealogy>  (35) 
O=C([N-]c1cccc(S(=O)(=O)N2CCOCC2)c1)[N-]c1ccc([O-])cc1O (protonated)
O=C([N-]c1cccc(S(=O)(=O)N2CCOCC2)c1)[N-]c1ccc([O-])cc1O (3D coordinates assigned)
O=C([N-]c1cccc(S(=O)(=O)N2CCOCC2)c1)[N-]c1ccc([O-])cc1O (nonaromatic ring conformer: 59.50833922694265 kcal/mol)

>  <smiles>  (35) 
O=C(Nc1cccc(S(=O)(=O)N2CCOCC2)c1)Nc1ccc(O)cc1O

>  <score_type>  (35) 
oracle

>  <origin>  (35) 
adgpu

>  <m_score__min__energy>  (35) 
-12.460000000000001

>  <m_primary>  (35) 
energy

$$$$
35:0
     RDKit          3D

 38 39  0  0  0  0  0  0  0  0999 V2000
   -1.5780   26.7490  -25.1460 C   0  0  0  0  0  0  0  0  0  0  0  0
   -0.5830   25.7580  -25.7580 C   0  0  0  0  0  0  0  0  0  0  0  0
   -0.5030   24.4770  -24.9230 C   0  0  0  0  0  0  0  0  0  0  0  0
   -0.9700   25.4350  -27.1750 C   0  0  0  0  0  0  0  0  0  0  0  0
   -1.5000   24.2380  -27.6160 C   0  0  0  0  0  0  0  0  0  0  0  0
   -1.6760   24.4550  -28.9680 C   0  0  0  0  0  0  0  0  0  0  0  0
   -2.1920   23.5550  -29.9040 O   0  0  0  0  0  0  0  0  0  0  0  0
   -3.5500   23.1310  -29.9020 C   0  0  0  0  0  0  0  0  0  0  0  0
   -4.4250   24.2450  -30.3960 C   0  0  0  0  0  0  0  0  0  0  0  0
   -3.8730   25.2950  -30.8230 O   0  0  0  0  0  0  0  0  0  0  0  0
   -5.8690   24.1540  -30.3600 N   0  0  0  0  0  0  0  0  0  0  0  0
   -6.6760   25.2400  -29.7930 C   0  0  0  0  0  0  0  0  0  0  0  0
   -6.5340   23.0510  -31.0100 C   0  0  0  0  0  0  0  0  0  0  0  0
   -5.9060   22.3580  -32.0600 C   0  0  0  0  0  0  0  0  0  0  0  0
   -6.5570   21.2920  -32.6890 C   0  0  0  0  0  0  0  0  0  0  0  0
   -7.8360   20.9100  -32.2780 C   0  0  0  0  0  0  0  0  0  0  0  0
   -8.4690   21.5950  -31.2360 C   0  0  0  0  0  0  0  0  0  0  0  0
   -7.8220   22.6610  -30.6030 C   0  0  0  0  0  0  0  0  0  0  0  0
   -1.2820   25.6690  -29.2690 O   0  0  0  0  0  0  0  0  0  0  0  0
   -0.8490   26.2910  -28.2110 N   0  0  0  0  0  0  0  0  0  0  0  0
   -1.5226   26.6938  -24.0488 H   0  0  0  0  0  0  0  0  0  0  0  0
   -1.3291   27.7688  -25.4749 H   0  0  0  0  0  0  0  0  0  0  0  0
   -2.5967   26.4960  -25.4749 H   0  0  0  0  0  0  0  0  0  0  0  0
    0.4113   26.2285  -25.7611 H   0  0  0  0  0  0  0  0  0  0  0  0
   -0.5191   24.7347  -23.8537 H   0  0  0  0  0  0  0  0  0  0  0  0
   -1.3626   23.8320  -25.1577 H   0  0  0  0  0  0  0  0  0  0  0  0
    0.4302   23.9440  -25.1577 H   0  0  0  0  0  0  0  0  0  0  0  0
   -1.7264   23.3333  -27.0327 H   0  0  0  0  0  0  0  0  0  0  0  0
   -3.6619   22.2576  -30.5612 H   0  0  0  0  0  0  0  0  0  0  0  0
   -3.8468   22.8596  -28.8782 H   0  0  0  0  0  0  0  0  0  0  0  0
   -6.6386   25.1897  -28.6948 H   0  0  0  0  0  0  0  0  0  0  0  0
   -6.2763   26.2080  -30.1295 H   0  0  0  0  0  0  0  0  0  0  0  0
   -7.7181   25.1366  -30.1295 H   0  0  0  0  0  0  0  0  0  0  0  0
   -4.8990   22.6554  -32.3879 H   0  0  0  0  0  0  0  0  0  0  0  0
   -6.0605   20.7531  -33.5094 H   0  0  0  0  0  0  0  0  0  0  0  0
   -8.3453   20.0705  -32.7738 H   0  0  0  0  0  0  0  0  0  0  0  0
   -9.4771   21.2949  -30.9139 H   0  0  0  0  0  0  0  0  0  0  0  0
   -8.3229   23.1967  -29.7832 H   0  0  0  0  0  0  0  0  0  0  0  0
  1  2  1  0
  2  3  1  0
  2  4  1  0
  4  5  1  0
  5  6  2  0
  6  7  1  0
  7  8  1  0
  8  9  1  0
  9 10  2  0
  9 11  1  0
 11 12  1  0
 11 13  1  0
 13 14  2  0
 14 15  1  0
 15 16  2  0
 16 17  1  0
 17 18  2  0
  6 19  1  0
 19 20  1  0
 20  4  2  0
 18 13  1  0
  1 21  1  0
  1 22  1  0
  1 23  1  0
  2 24  1  0
  3 25  1  0
  3 26  1  0
  3 27  1  0
  5 28  1  0
  8 29  1  0
  8 30  1  0
 12 31  1  0
 12 32  1  0
 12 33  1  0
 14 34  1  0
 15 35  1  0
 16 36  1  0
 17 37  1  0
 18 38  1  0
M  END
>  <UniqueID>  (36) 
33

>  <SMILES>  (36) 
CC(C)c1cc(OCC(=O)N(C)c2ccccc2)on1

>  <Energy>  (36) 
66.82241021678816

>  <Genealogy>  (36) 
CC(C)c1cc(OCC(=O)N(C)c2ccccc2)on1 (3D coordinates assigned)
CC(C)c1cc(OCC(=O)N(C)c2ccccc2)on1 (optimized conformer: 66.82241021678816 kcal/mol)

>  <smiles>  (36) 
CC(C)c1cc(OCC(=O)N(C)c2ccccc2)on1

>  <score_type>  (36) 
oracle

>  <origin>  (36) 
adgpu

>  <m_score__min__energy>  (36) 
-7.9900000000000002

>  <m_primary>  (36) 
energy

$$$$
36:0
     RDKit          3D

 36 39  0  0  0  0  0  0  0  0999 V2000
   -1.0887   19.4190  -30.4439 H   0  0  0  0  0  0  0  0  0  0  0  0
   -1.4570   20.4480  -30.3190 C   0  0  0  0  0  0  0  0  0  0  0  0
   -2.6300   20.9040  -30.8150 N   0  0  0  0  0  0  0  0  0  0  0  0
   -2.8190   22.2150  -30.5170 C   0  0  0  0  0  0  0  0  0  0  0  0
   -1.8140   22.8280  -29.7620 C   0  0  0  0  0  0  0  0  0  0  0  0
   -0.6310   21.6600  -29.4840 S   0  0  0  0  0  0  0  0  0  0  0  0
   -1.9300   24.1900  -29.3430 C   0  0  0  0  0  0  0  0  0  0  0  0
   -1.0310   24.8210  -28.6400 N   0  0  0  0  0  0  0  0  0  0  0  0
    0.2470   24.3230  -28.1470 C   0  0  0  0  0  0  0  0  0  0  0  0
    0.2416   24.3251  -27.0470 H   0  0  0  0  0  0  0  0  0  0  0  0
    0.4058   23.2972  -28.5110 H   0  0  0  0  0  0  0  0  0  0  0  0
    1.0580   24.9709  -28.5110 H   0  0  0  0  0  0  0  0  0  0  0  0
   -3.0670   24.8740  -29.6920 N   0  0  0  0  0  0  0  0  0  0  0  0
   -4.0310   24.2640  -30.4360 C   0  0  0  0  0  0  0  0  0  0  0  0
   -3.9320   22.9720  -30.8670 C   0  0  0  0  0  0  0  0  0  0  0  0
   -5.1290   22.7290  -31.5290 C   0  0  0  0  0  0  0  0  0  0  0  0
   -5.5600   21.4900  -32.2010 C   0  0  0  0  0  0  0  0  0  0  0  0
   -4.6840   20.8290  -33.0750 C   0  0  0  0  0  0  0  0  0  0  0  0
   -3.6807   21.2405  -33.2594 H   0  0  0  0  0  0  0  0  0  0  0  0
   -5.0800   19.6510  -33.7120 C   0  0  0  0  0  0  0  0  0  0  0  0
   -4.3932   19.1462  -34.4073 H   0  0  0  0  0  0  0  0  0  0  0  0
   -6.3450   19.1120  -33.4690 C   0  0  0  0  0  0  0  0  0  0  0  0
   -6.6595   18.1949  -33.9886 H   0  0  0  0  0  0  0  0  0  0  0  0
   -7.2160   19.7370  -32.5640 C   0  0  0  0  0  0  0  0  0  0  0  0
   -8.5830   19.1710  -32.3160 C   0  0  0  0  0  0  0  0  0  0  0  0
   -8.7587   19.0982  -31.2326 H   0  0  0  0  0  0  0  0  0  0  0  0
   -9.3399   19.8297  -32.7668 H   0  0  0  0  0  0  0  0  0  0  0  0
   -8.6527   18.1700  -32.7668 H   0  0  0  0  0  0  0  0  0  0  0  0
   -6.8210   20.9290  -31.9370 C   0  0  0  0  0  0  0  0  0  0  0  0
   -7.5038   21.4279  -31.2335 H   0  0  0  0  0  0  0  0  0  0  0  0
   -5.8970   23.8470  -31.4580 N   0  0  0  0  0  0  0  0  0  0  0  0
   -5.2130   24.7820  -30.8060 N   0  0  0  0  0  0  0  0  0  0  0  0
   -5.7380   26.0970  -30.4670 C   0  0  0  0  0  0  0  0  0  0  0  0
   -5.7807   26.2039  -29.3730 H   0  0  0  0  0  0  0  0  0  0  0  0
   -5.0809   26.8733  -30.8859 H   0  0  0  0  0  0  0  0  0  0  0  0
   -6.7491   26.2073  -30.8859 H   0  0  0  0  0  0  0  0  0  0  0  0
  1  2  1  0
  2  3  2  0
  3  4  1  0
  4  5  2  0
  5  6  1  0
  5  7  1  0
  7  8  2  0
  8  9  1  0
  9 10  1  0
  9 11  1  0
  9 12  1  0
  7 13  1  0
 13 14  1  0
 14 15  2  0
 15 16  1  0
 16 17  1  0
 17 18  2  0
 18 19  1  0
 18 20  1  0
 20 21  1  0
 20 22  2  0
 22 23  1  0
 22 24  1  0
 24 25  1  0
 25 26  1  0
 25 27  1  0
 25 28  1  0
 24 29  2  0
 29 30  1  0
 16 31  2  0
 31 32  1  0
 32 33  1  0
 33 34  1  0
 33 35  1  0
 33 36  1  0
  6  2  1  0
 32 14  1  0
 15  4  1  0
 29 17  1  0
M  CHG  1  13  -1
M  END
>  <UniqueID>  (37) 
34

>  <SMILES>  (37) 
C/N=c1/[n-]c2c(c(-c3cccc(C)c3)nn2C)c2ncsc12

>  <Energy>  (37) 
124.3167512225848

>  <Genealogy>  (37) 
CN=c1[n-]c2c(c(-c3cccc(C)c3)nn2C)c2ncsc12 (protonated)
C/N=c1/[n-]c2c(c(-c3cccc(C)c3)nn2C)c2ncsc12 (cis-trans isomerization)
C/N=c1/[n-]c2c(c(-c3cccc(C)c3)nn2C)c2ncsc12 (3D coordinates assigned)
C/N=c1/[n-]c2c(c(-c3cccc(C)c3)nn2C)c2ncsc12 (optimized conformer: 124.3167512225848 kcal/mol)

>  <smiles>  (37) 
CN=c1[nH]c2c(c(-c3cccc(C)c3)nn2C)c2ncsc12

>  <score_type>  (37) 
oracle

>  <origin>  (37) 
adgpu

>  <m_score__min__energy>  (37) 
-9.1999999999999993

>  <m_primary>  (37) 
energy

$$$$
37:0
     RDKit          3D

 54 58  0  0  0  0  0  0  0  0999 V2000
   -4.1590   26.1620  -29.8710 H   0  0  0  0  0  0  0  0  0  0  0  0
   -3.8880   25.3080  -30.4060 N   0  0  0  0  0  0  0  0  0  0  0  0
   -4.7750   24.4560  -30.8080 C   0  0  0  0  0  0  0  0  0  0  0  0
   -4.4500   23.3410  -31.5110 N   0  0  0  0  0  0  0  0  0  0  0  0
   -5.6520   22.7740  -31.7190 C   0  0  0  0  0  0  0  0  0  0  0  0
   -5.9290   21.5980  -32.4120 C   0  0  0  0  0  0  0  0  0  0  0  0
   -5.1212   21.0029  -32.8629 H   0  0  0  0  0  0  0  0  0  0  0  0
   -7.2810   21.1910  -32.5190 C   0  0  0  0  0  0  0  0  0  0  0  0
   -7.6440   20.0050  -33.2460 N   0  0  0  0  0  0  0  0  0  0  0  0
   -8.5640   19.9930  -33.7400 H   0  0  0  0  0  0  0  0  0  0  0  0
   -6.7990   18.8480  -33.3650 C   0  0  0  0  0  0  0  0  0  0  0  0
   -6.7210   17.9010  -32.3330 C   0  0  0  0  0  0  0  0  0  0  0  0
   -7.3194   18.0354  -31.4199 H   0  0  0  0  0  0  0  0  0  0  0  0
   -5.8880   16.7900  -32.4600 C   0  0  0  0  0  0  0  0  0  0  0  0
   -5.8315   16.0544  -31.6441 H   0  0  0  0  0  0  0  0  0  0  0  0
   -5.1220   16.6030  -33.6190 C   0  0  0  0  0  0  0  0  0  0  0  0
   -4.1980   15.4540  -33.6860 C   0  0  0  0  0  0  0  0  0  0  0  0
   -4.6580   14.3270  -34.0170 O   0  0  0  0  0  0  0  0  0  0  0  0
   -2.7960   15.6070  -33.3780 N   0  0  0  0  0  0  0  0  0  0  0  0
   -2.1040   14.5780  -32.6550 C   0  0  0  0  0  0  0  0  0  0  0  0
   -0.7050   14.6030  -32.5720 C   0  0  0  0  0  0  0  0  0  0  0  0
   -0.1378   15.3863  -33.0962 H   0  0  0  0  0  0  0  0  0  0  0  0
   -0.0290   13.6340  -31.8240 C   0  0  0  0  0  0  0  0  0  0  0  0
    1.0689   13.6560  -31.7602 H   0  0  0  0  0  0  0  0  0  0  0  0
   -0.7480   12.6370  -31.1570 C   0  0  0  0  0  0  0  0  0  0  0  0
   -0.2155   11.8754  -30.5685 H   0  0  0  0  0  0  0  0  0  0  0  0
   -2.1430   12.6080  -31.2380 C   0  0  0  0  0  0  0  0  0  0  0  0
   -2.7079   11.8229  -30.7141 H   0  0  0  0  0  0  0  0  0  0  0  0
   -2.8210   13.5770  -31.9850 C   0  0  0  0  0  0  0  0  0  0  0  0
   -3.9190   13.5535  -32.0468 H   0  0  0  0  0  0  0  0  0  0  0  0
   -2.1080   16.8440  -33.6420 C   0  0  0  0  0  0  0  0  0  0  0  0
   -2.3220   17.9650  -32.8220 C   0  0  0  0  0  0  0  0  0  0  0  0
   -3.0113   17.8942  -31.9677 H   0  0  0  0  0  0  0  0  0  0  0  0
   -1.6640   19.1690  -33.0860 C   0  0  0  0  0  0  0  0  0  0  0  0
   -1.8312   20.0397  -32.4349 H   0  0  0  0  0  0  0  0  0  0  0  0
   -0.7940   19.2700  -34.1750 C   0  0  0  0  0  0  0  0  0  0  0  0
    0.0330   20.7810  -34.5020 Cl  0  0  0  0  0  0  0  0  0  0  0  0
   -0.5840   18.1640  -35.0050 C   0  0  0  0  0  0  0  0  0  0  0  0
    0.0969   18.2438  -35.8652 H   0  0  0  0  0  0  0  0  0  0  0  0
   -1.2390   16.9570  -34.7420 C   0  0  0  0  0  0  0  0  0  0  0  0
   -1.0736   16.0907  -35.3994 H   0  0  0  0  0  0  0  0  0  0  0  0
   -5.2260   17.5290  -34.6810 C   0  0  0  0  0  0  0  0  0  0  0  0
   -4.4570   17.3780  -35.8810 N   0  0  0  0  0  0  0  0  0  0  0  0
   -4.8180   17.7420  -36.7910 H   0  0  0  0  0  0  0  0  0  0  0  0
   -3.5210   16.9170  -35.8850 H   0  0  0  0  0  0  0  0  0  0  0  0
   -6.0750   18.6380  -34.5460 C   0  0  0  0  0  0  0  0  0  0  0  0
   -6.1734   19.3513  -35.3776 H   0  0  0  0  0  0  0  0  0  0  0  0
   -8.3020   21.9950  -31.9510 C   0  0  0  0  0  0  0  0  0  0  0  0
   -9.3540   21.6906  -32.0540 H   0  0  0  0  0  0  0  0  0  0  0  0
   -7.9850   23.1780  -31.2570 C   0  0  0  0  0  0  0  0  0  0  0  0
   -8.7701   23.8025  -30.8058 H   0  0  0  0  0  0  0  0  0  0  0  0
   -6.6410   23.5280  -31.1630 C   0  0  0  0  0  0  0  0  0  0  0  0
   -6.1020   24.6040  -30.5770 N   0  0  0  0  0  0  0  0  0  0  0  0
   -6.5910   25.3750  -30.0700 H   0  0  0  0  0  0  0  0  0  0  0  0
  1  2  1  0
  2  3  2  0
  3  4  1  0
  4  5  1  0
  5  6  2  0
  6  7  1  0
  6  8  1  0
  8  9  1  0
  9 10  1  0
  9 11  1  0
 11 12  2  0
 12 13  1  0
 12 14  1  0
 14 15  1  0
 14 16  2  0
 16 17  1  0
 17 18  2  0
 17 19  1  0
 19 20  1  0
 20 21  2  0
 21 22  1  0
 21 23  1  0
 23 24  1  0
 23 25  2  0
 25 26  1  0
 25 27  1  0
 27 28  1  0
 27 29  2  0
 29 30  1  0
 19 31  1  0
 31 32  2  0
 32 33  1  0
 32 34  1  0
 34 35  1  0
 34 36  2  0
 36 37  1  0
 36 38  1  0
 38 39  1  0
 38 40  2  0
 40 41  1  0
 16 42  1  0
 42 43  1  0
 43 44  1  0
 43 45  1  0
 42 46  2  0
 46 47  1  0
  8 48  2  0
 48 49  1  0
 48 50  1  0
 50 51  1  0
 50 52  2  0
 52 53  1  0
 53 54  1  0
 53  3  1  0
 52  5  1  0
 46 11  1  0
 29 20  1  0
 40 31  1  0
M  CHG  1   4  -1
M  END
>  <UniqueID>  (38) 
35

>  <SMILES>  (38) 
[H]/N=c1/[n-]c2cc(Nc3ccc(C(=O)N(c4ccccc4)c4ccc(Cl)cc4)c(N)c3)ccc2[nH]1

>  <Energy>  (38) 
121.52760287353173

>  <Genealogy>  (38) 
N=c1[n-]c2cc(Nc3ccc(C(=O)N(c4ccccc4)c4ccc(Cl)cc4)c(N)c3)ccc2[nH]1 (protonated)
[H]/N=c1/[n-]c2cc(Nc3ccc(C(=O)N(c4ccccc4)c4ccc(Cl)cc4)c(N)c3)ccc2[nH]1 (cis-trans isomerization)
[H]/N=c1/[n-]c2cc(Nc3ccc(C(=O)N(c4ccccc4)c4ccc(Cl)cc4)c(N)c3)ccc2[nH]1 (3D coordinates assigned)
[H]/N=c1/[n-]c2cc(Nc3ccc(C(=O)N(c4ccccc4)c4ccc(Cl)cc4)c(N)c3)ccc2[nH]1 (optimized conformer: 121.52760287353173 kcal/mol)

>  <smiles>  (38) 
N=c1[nH]c2ccc(Nc3ccc(C(=O)N(c4ccccc4)c4ccc(Cl)cc4)c(N)c3)cc2[nH]1

>  <score_type>  (38) 
oracle

>  <origin>  (38) 
adgpu

>  <m_score__min__energy>  (38) 
-11.08

>  <m_primary>  (38) 
energy

$$$$
38:0
     RDKit          3D

 46 49  0  0  0  0  0  0  0  0999 V2000
   -5.3100   26.2531  -30.9771 H   0  0  0  0  0  0  0  0  0  0  0  0
   -4.9910   25.2090  -30.8430 C   0  0  0  0  0  0  0  0  0  0  0  0
   -3.9790   24.9130  -29.9890 N   0  0  0  0  0  0  0  0  0  0  0  0
   -3.5750   23.6270  -29.7970 C   0  0  0  0  0  0  0  0  0  0  0  0
   -2.5940   23.3390  -28.9910 N   0  0  0  0  0  0  0  0  0  0  0  0
   -1.8760   24.2510  -28.1430 C   0  0  0  0  0  0  0  0  0  0  0  0
   -2.5050   24.9470  -27.0960 C   0  0  0  0  0  0  0  0  0  0  0  0
   -3.5843   24.8203  -26.9253 H   0  0  0  0  0  0  0  0  0  0  0  0
   -1.7660   25.7990  -26.2710 C   0  0  0  0  0  0  0  0  0  0  0  0
   -2.2713   26.3463  -25.4616 H   0  0  0  0  0  0  0  0  0  0  0  0
   -0.3820   25.9640  -26.4650 C   0  0  0  0  0  0  0  0  0  0  0  0
    0.3980   26.8340  -25.6240 N   0  0  0  0  0  0  0  0  0  0  0  0
    1.3700   27.0870  -25.9110 H   0  0  0  0  0  0  0  0  0  0  0  0
   -0.2180   27.6380  -24.2130 S   0  0  0  0  0  0  0  0  0  0  0  0
   -1.2430   26.7550  -23.5600 O   0  0  0  0  0  0  0  0  0  0  0  0
   -0.8740   28.9320  -24.6040 O   0  0  0  0  0  0  0  0  0  0  0  0
    1.0950   27.9330  -23.0480 C   0  0  0  0  0  0  0  0  0  0  0  0
    0.7032   27.8450  -22.0239 H   0  0  0  0  0  0  0  0  0  0  0  0
    1.8935   27.1919  -23.2001 H   0  0  0  0  0  0  0  0  0  0  0  0
    1.4997   28.9445  -23.2001 H   0  0  0  0  0  0  0  0  0  0  0  0
    0.2490   25.2310  -27.4900 C   0  0  0  0  0  0  0  0  0  0  0  0
    1.6190   25.3500  -27.7010 O   0  0  0  0  0  0  0  0  0  0  0  0
   -0.4950   24.3790  -28.3110 C   0  0  0  0  0  0  0  0  0  0  0  0
    0.0126   23.8026  -29.0985 H   0  0  0  0  0  0  0  0  0  0  0  0
   -4.1780   22.6260  -30.4900 N   0  0  0  0  0  0  0  0  0  0  0  0
   -5.1840   22.8740  -31.3710 C   0  0  0  0  0  0  0  0  0  0  0  0
   -5.8190   21.7430  -32.0740 C   0  0  0  0  0  0  0  0  0  0  0  0
   -5.1760   20.8850  -32.9620 C   0  0  0  0  0  0  0  0  0  0  0  0
   -4.1149   20.9523  -33.2440 H   0  0  0  0  0  0  0  0  0  0  0  0
   -6.0430   19.9560  -33.4290 N   0  0  0  0  0  0  0  0  0  0  0  0
   -5.7450   18.9110  -34.4030 C   0  0  0  0  0  0  0  0  0  0  0  0
   -5.4803   17.9828  -33.8755 H   0  0  0  0  0  0  0  0  0  0  0  0
   -6.6287   18.7350  -35.0339 H   0  0  0  0  0  0  0  0  0  0  0  0
   -4.9013   19.2276  -35.0339 H   0  0  0  0  0  0  0  0  0  0  0  0
   -7.2370   20.2320  -32.8680 C   0  0  0  0  0  0  0  0  0  0  0  0
   -8.4530   19.5790  -33.0840 C   0  0  0  0  0  0  0  0  0  0  0  0
   -8.5162   18.7039  -33.7475 H   0  0  0  0  0  0  0  0  0  0  0  0
   -9.5930   20.0740  -32.4280 C   0  0  0  0  0  0  0  0  0  0  0  0
  -10.5636   19.5758  -32.5684 H   0  0  0  0  0  0  0  0  0  0  0  0
   -9.5010   21.2050  -31.5910 C   0  0  0  0  0  0  0  0  0  0  0  0
  -10.4017   21.5858  -31.0874 H   0  0  0  0  0  0  0  0  0  0  0  0
   -8.2670   21.8500  -31.3950 C   0  0  0  0  0  0  0  0  0  0  0  0
   -8.1896   22.7433  -30.7578 H   0  0  0  0  0  0  0  0  0  0  0  0
   -7.1420   21.3220  -32.0340 C   0  0  0  0  0  0  0  0  0  0  0  0
   -5.6260   24.1900  -31.5500 C   0  0  0  0  0  0  0  0  0  0  0  0
   -6.4572   24.4150  -32.2344 H   0  0  0  0  0  0  0  0  0  0  0  0
  1  2  1  0
  2  3  1  0
  3  4  1  0
  4  5  2  0
  5  6  1  0
  6  7  2  0
  7  8  1  0
  7  9  1  0
  9 10  1  0
  9 11  2  0
 11 12  1  0
 12 13  1  0
 12 14  1  0
 14 15  2  0
 14 16  2  0
 14 17  1  0
 17 18  1  0
 17 19  1  0
 17 20  1  0
 11 21  1  0
 21 22  1  0
 21 23  2  0
 23 24  1  0
  4 25  1  0
 25 26  2  0
 26 27  1  0
 27 28  2  0
 28 29  1  0
 28 30  1  0
 30 31  1  0
 31 32  1  0
 31 33  1  0
 31 34  1  0
 30 35  1  0
 35 36  2  0
 36 37  1  0
 36 38  1  0
 38 39  1  0
 38 40  2  0
 40 41  1  0
 40 42  1  0
 42 43  1  0
 42 44  2  0
 26 45  1  0
 45 46  1  0
 45  2  2  0
 23  6  1  0
 44 27  1  0
 44 35  1  0
M  CHG  2   3  -1  22  -1
M  END
>  <UniqueID>  (39) 
36

>  <SMILES>  (39) 
Cn1cc(-c2cc[n-]/c(=N\c3ccc(NS(C)(=O)=O)c([O-])c3)n2)c2ccccc21

>  <Energy>  (39) 
94.63573088486635

>  <Genealogy>  (39) 
Cn1cc(-c2cc[n-]c(=Nc3ccc(NS(C)(=O)=O)c([O-])c3)n2)c2ccccc21 (protonated)
Cn1cc(-c2cc[n-]/c(=N\c3ccc(NS(C)(=O)=O)c([O-])c3)n2)c2ccccc21 (cis-trans isomerization)
Cn1cc(-c2cc[n-]/c(=N\c3ccc(NS(C)(=O)=O)c([O-])c3)n2)c2ccccc21 (3D coordinates assigned)
Cn1cc(-c2cc[n-]/c(=N\c3ccc(NS(C)(=O)=O)c([O-])c3)n2)c2ccccc21 (optimized conformer: 94.63573088486635 kcal/mol)

>  <smiles>  (39) 
Cn1cc(-c2cc[nH]c(=Nc3ccc(NS(C)(=O)=O)c(O)c3)n2)c2ccccc21

>  <score_type>  (39) 
oracle

>  <origin>  (39) 
adgpu

>  <m_score__min__energy>  (39) 
-11.609999999999999

>  <m_primary>  (39) 
energy

$$$$
39:0
     RDKit          3D

 47 50  0  0  0  0  0  0  0  0999 V2000
   -8.8330   22.9370  -31.9640 C   0  0  0  0  0  0  0  0  0  0  0  0
   -7.4410   22.9310  -31.4100 C   0  0  0  0  0  0  0  0  0  0  0  0
   -6.8560   23.9820  -30.7340 C   0  0  0  0  0  0  0  0  0  0  0  0
   -5.6070   23.5050  -30.3800 C   0  0  0  0  0  0  0  0  0  0  0  0
   -4.5730   24.2470  -29.6450 C   0  0  0  0  0  0  0  0  0  0  0  0
   -3.8420   25.0720  -30.2570 O   0  0  0  0  0  0  0  0  0  0  0  0
   -4.4020   24.0380  -28.2360 N   0  0  0  0  0  0  0  0  0  0  0  0
   -3.2670   24.5310  -27.5100 C   0  0  0  0  0  0  0  0  0  0  0  0
   -3.4810   25.2660  -26.3350 C   0  0  0  0  0  0  0  0  0  0  0  0
   -2.3990   25.7450  -25.5930 C   0  0  0  0  0  0  0  0  0  0  0  0
   -1.0930   25.4810  -26.0100 C   0  0  0  0  0  0  0  0  0  0  0  0
   -0.8660   24.7250  -27.1630 C   0  0  0  0  0  0  0  0  0  0  0  0
   -1.9440   24.2360  -27.9130 C   0  0  0  0  0  0  0  0  0  0  0  0
   -1.5920   23.1890  -29.3340 S   0  0  0  0  0  0  0  0  0  0  0  0
   -1.7120   21.6760  -28.3800 C   0  0  0  0  0  0  0  0  0  0  0  0
   -0.5620   20.9240  -28.1080 C   0  0  0  0  0  0  0  0  0  0  0  0
   -0.6560   19.7460  -27.3600 C   0  0  0  0  0  0  0  0  0  0  0  0
   -1.9000   19.3160  -26.8850 C   0  0  0  0  0  0  0  0  0  0  0  0
   -3.0500   20.0610  -27.1620 C   0  0  0  0  0  0  0  0  0  0  0  0
   -2.9580   21.2380  -27.9110 C   0  0  0  0  0  0  0  0  0  0  0  0
   -5.4520   22.2440  -30.8300 N   0  0  0  0  0  0  0  0  0  0  0  0
   -6.5620   21.9030  -31.4660 N   0  0  0  0  0  0  0  0  0  0  0  0
   -6.7440   20.6150  -32.0760 C   0  0  0  0  0  0  0  0  0  0  0  0
   -5.9030   20.1780  -33.1130 C   0  0  0  0  0  0  0  0  0  0  0  0
   -6.0780   18.9110  -33.6790 C   0  0  0  0  0  0  0  0  0  0  0  0
   -7.0890   18.0670  -33.2090 C   0  0  0  0  0  0  0  0  0  0  0  0
   -7.2570   16.8400  -33.7590 F   0  0  0  0  0  0  0  0  0  0  0  0
   -7.9180   18.4850  -32.1650 C   0  0  0  0  0  0  0  0  0  0  0  0
   -7.7430   19.7510  -31.5950 C   0  0  0  0  0  0  0  0  0  0  0  0
   -9.5572   22.9401  -31.1360 H   0  0  0  0  0  0  0  0  0  0  0  0
   -8.9781   23.8358  -32.5814 H   0  0  0  0  0  0  0  0  0  0  0  0
   -8.9858   22.0395  -32.5814 H   0  0  0  0  0  0  0  0  0  0  0  0
   -7.2850   24.9730  -30.5245 H   0  0  0  0  0  0  0  0  0  0  0  0
   -5.1960   23.6360  -27.6890 H   0  0  0  0  0  0  0  0  0  0  0  0
   -4.5079   25.4666  -25.9955 H   0  0  0  0  0  0  0  0  0  0  0  0
   -2.5760   26.3309  -24.6790 H   0  0  0  0  0  0  0  0  0  0  0  0
   -0.2421   25.8684  -25.4305 H   0  0  0  0  0  0  0  0  0  0  0  0
    0.1645   24.5125  -27.4837 H   0  0  0  0  0  0  0  0  0  0  0  0
    0.4159   21.2602  -28.4830 H   0  0  0  0  0  0  0  0  0  0  0  0
    0.2481   19.1574  -27.1451 H   0  0  0  0  0  0  0  0  0  0  0  0
   -1.9730   18.3915  -26.2935 H   0  0  0  0  0  0  0  0  0  0  0  0
   -4.0279   19.7210  -26.7904 H   0  0  0  0  0  0  0  0  0  0  0  0
   -3.8643   21.8207  -28.1324 H   0  0  0  0  0  0  0  0  0  0  0  0
   -5.1024   20.8360  -33.4819 H   0  0  0  0  0  0  0  0  0  0  0  0
   -5.4195   18.5781  -34.4948 H   0  0  0  0  0  0  0  0  0  0  0  0
   -8.7089   17.8184  -31.7908 H   0  0  0  0  0  0  0  0  0  0  0  0
   -8.3908   20.0718  -30.7659 H   0  0  0  0  0  0  0  0  0  0  0  0
  1  2  1  0
  2  3  2  0
  3  4  1  0
  4  5  1  0
  5  6  2  0
  5  7  1  0
  7  8  1  0
  8  9  2  0
  9 10  1  0
 10 11  2  0
 11 12  1  0
 12 13  2  0
 13 14  1  0
 14 15  1  0
 15 16  2  0
 16 17  1  0
 17 18  2  0
 18 19  1  0
 19 20  2  0
  4 21  2  0
 21 22  1  0
 22 23  1  0
 23 24  2  0
 24 25  1  0
 25 26  2  0
 26 27  1  0
 26 28  1  0
 28 29  2  0
 22  2  1  0
 29 23  1  0
 13  8  1  0
 20 15  1  0
  1 30  1  0
  1 31  1  0
  1 32  1  0
  3 33  1  0
  7 34  1  0
  9 35  1  0
 10 36  1  0
 11 37  1  0
 12 38  1  0
 16 39  1  0
 17 40  1  0
 18 41  1  0
 19 42  1  0
 20 43  1  0
 24 44  1  0
 25 45  1  0
 28 46  1  0
 29 47  1  0
M  END
>  <UniqueID>  (40) 
37

>  <SMILES>  (40) 
Cc1cc(C(=O)Nc2ccccc2Sc2ccccc2)nn1-c1ccc(F)cc1

>  <Energy>  (40) 
85.61004772132341

>  <Genealogy>  (40) 
Cc1cc(C(=O)Nc2ccccc2Sc2ccccc2)nn1-c1ccc(F)cc1 (3D coordinates assigned)
Cc1cc(C(=O)Nc2ccccc2Sc2ccccc2)nn1-c1ccc(F)cc1 (optimized conformer: 85.61004772132341 kcal/mol)

>  <smiles>  (40) 
Cc1cc(C(=O)Nc2ccccc2Sc2ccccc2)nn1-c1ccc(F)cc1

>  <score_type>  (40) 
oracle

>  <origin>  (40) 
adgpu

>  <m_score__min__energy>  (40) 
-10.359999999999999

>  <m_primary>  (40) 
energy

$$$$
40:0
     RDKit          3D

 64 67  0  0  0  0  0  0  0  0999 V2000
   -9.0190   21.5080  -31.5700 C   0  0  0  0  0  0  0  0  0  0  0  0
   -9.1070   20.1880  -32.3280 C   0  0  0  0  0  0  0  0  0  0  0  0
   -7.9210   20.0130  -33.1690 N   0  0  0  0  0  0  0  0  0  0  0  0
   -7.0570   18.5880  -32.6750 S   0  0  0  0  0  0  0  0  0  0  0  0
   -7.5510   17.4090  -33.4640 O   0  0  0  0  0  0  0  0  0  0  0  0
   -7.3030   18.3230  -31.2150 O   0  0  0  0  0  0  0  0  0  0  0  0
   -5.3330   18.7920  -32.9740 C   0  0  0  0  0  0  0  0  0  0  0  0
   -4.4870   17.6850  -33.1050 C   0  0  0  0  0  0  0  0  0  0  0  0
   -3.1230   17.8730  -33.3340 C   0  0  0  0  0  0  0  0  0  0  0  0
   -2.6060   19.1780  -33.4160 C   0  0  0  0  0  0  0  0  0  0  0  0
   -1.2080   19.4140  -33.6750 N   0  0  0  0  0  0  0  0  0  0  0  0
   -0.8340   20.4200  -34.6730 C   0  0  0  0  0  0  0  0  0  0  0  0
   -0.1540   18.7670  -32.8780 C   0  0  0  0  0  0  0  0  0  0  0  0
   -0.4340   18.9080  -31.4040 C   0  0  0  0  0  0  0  0  0  0  0  0
   -0.2330   17.9190  -30.6460 O   0  0  0  0  0  0  0  0  0  0  0  0
   -0.9050   20.1490  -30.8400 N   0  0  0  0  0  0  0  0  0  0  0  0
   -0.5990   21.4500  -31.4530 C   0  0  0  0  0  0  0  0  0  0  0  0
   -1.8870   22.2650  -31.5800 C   0  0  0  0  0  0  0  0  0  0  0  0
   -2.6430   22.2620  -30.3190 N   0  0  0  0  0  0  0  0  0  0  0  0
   -3.8680   23.0110  -30.2260 C   0  0  0  0  0  0  0  0  0  0  0  0
   -4.9520   22.6570  -31.0420 C   0  0  0  0  0  0  0  0  0  0  0  0
   -6.1660   23.3290  -30.9110 C   0  0  0  0  0  0  0  0  0  0  0  0
   -6.3030   24.3200  -29.9930 N   0  0  0  0  0  0  0  0  0  0  0  0
   -5.2750   24.6920  -29.1880 C   0  0  0  0  0  0  0  0  0  0  0  0
   -4.0250   24.0600  -29.2870 C   0  0  0  0  0  0  0  0  0  0  0  0
   -2.9070   24.5310  -28.4390 C   0  0  0  0  0  0  0  0  0  0  0  0
   -3.0860   24.7080  -27.0590 C   0  0  0  0  0  0  0  0  0  0  0  0
   -2.0260   25.1590  -26.2700 C   0  0  0  0  0  0  0  0  0  0  0  0
   -0.7960   25.4360  -26.8690 C   0  0  0  0  0  0  0  0  0  0  0  0
   -0.6390   25.2700  -28.2090 N   0  0  0  0  0  0  0  0  0  0  0  0
   -1.6550   24.8310  -28.9990 C   0  0  0  0  0  0  0  0  0  0  0  0
   -2.1540   21.5010  -29.1600 C   0  0  0  0  0  0  0  0  0  0  0  0
   -1.6940   20.1040  -29.5970 C   0  0  0  0  0  0  0  0  0  0  0  0
   -3.4560   20.2360  -33.2950 N   0  0  0  0  0  0  0  0  0  0  0  0
   -4.7870   20.0760  -33.0730 C   0  0  0  0  0  0  0  0  0  0  0  0
   -9.0321   21.3110  -30.4879 H   0  0  0  0  0  0  0  0  0  0  0  0
   -8.0845   22.0229  -31.8376 H   0  0  0  0  0  0  0  0  0  0  0  0
   -9.8768   22.1424  -31.8376 H   0  0  0  0  0  0  0  0  0  0  0  0
   -9.1689   19.3583  -31.6085 H   0  0  0  0  0  0  0  0  0  0  0  0
  -10.0034   20.1969  -32.9655 H   0  0  0  0  0  0  0  0  0  0  0  0
   -8.2390   19.8460  -34.1520 H   0  0  0  0  0  0  0  0  0  0  0  0
   -4.8968   16.6671  -33.0275 H   0  0  0  0  0  0  0  0  0  0  0  0
   -2.4566   17.0055  -33.4496 H   0  0  0  0  0  0  0  0  0  0  0  0
   -0.4943   21.3336  -34.1632 H   0  0  0  0  0  0  0  0  0  0  0  0
   -0.0216   20.0277  -35.3024 H   0  0  0  0  0  0  0  0  0  0  0  0
   -1.7053   20.6537  -35.3024 H   0  0  0  0  0  0  0  0  0  0  0  0
   -0.1113   17.6986  -33.1362 H   0  0  0  0  0  0  0  0  0  0  0  0
    0.8064   19.2542  -33.1023 H   0  0  0  0  0  0  0  0  0  0  0  0
    0.1191   21.9938  -30.8216 H   0  0  0  0  0  0  0  0  0  0  0  0
   -0.1623   21.2935  -32.4504 H   0  0  0  0  0  0  0  0  0  0  0  0
   -1.6312   23.3021  -31.8428 H   0  0  0  0  0  0  0  0  0  0  0  0
   -2.5120   21.8101  -32.3626 H   0  0  0  0  0  0  0  0  0  0  0  0
   -4.8446   21.8514  -31.7833 H   0  0  0  0  0  0  0  0  0  0  0  0
   -7.0160   23.0556  -31.5535 H   0  0  0  0  0  0  0  0  0  0  0  0
   -5.4226   25.4957  -28.4516 H   0  0  0  0  0  0  0  0  0  0  0  0
   -4.0613   24.4915  -26.5985 H   0  0  0  0  0  0  0  0  0  0  0  0
   -2.1590   25.2947  -25.1865 H   0  0  0  0  0  0  0  0  0  0  0  0
    0.0467   25.7888  -26.2563 H   0  0  0  0  0  0  0  0  0  0  0  0
   -1.4954   24.7105  -30.0807 H   0  0  0  0  0  0  0  0  0  0  0  0
   -1.3074   22.0362  -28.7052 H   0  0  0  0  0  0  0  0  0  0  0  0
   -2.9699   21.3973  -28.4295 H   0  0  0  0  0  0  0  0  0  0  0  0
   -1.0755   19.6675  -28.7989 H   0  0  0  0  0  0  0  0  0  0  0  0
   -2.5896   19.4933  -29.7838 H   0  0  0  0  0  0  0  0  0  0  0  0
   -5.4364   20.9580  -32.9709 H   0  0  0  0  0  0  0  0  0  0  0  0
  1  2  1  0
  2  3  1  0
  3  4  1  0
  4  5  2  0
  4  6  2  0
  4  7  1  0
  7  8  2  0
  8  9  1  0
  9 10  2  0
 10 11  1  0
 11 12  1  0
 11 13  1  0
 13 14  1  0
 14 15  2  0
 14 16  1  0
 16 17  1  0
 17 18  1  0
 18 19  1  0
 19 20  1  0
 20 21  2  0
 21 22  1  0
 22 23  2  0
 23 24  1  0
 24 25  2  0
 25 26  1  0
 26 27  2  0
 27 28  1  0
 28 29  2  0
 29 30  1  0
 30 31  2  0
 19 32  1  0
 32 33  1  0
 10 34  1  0
 34 35  2  0
 35  7  1  0
 33 16  1  0
 25 20  1  0
 31 26  1  0
  1 36  1  0
  1 37  1  0
  1 38  1  0
  2 39  1  0
  2 40  1  0
  3 41  1  0
  8 42  1  0
  9 43  1  0
 12 44  1  0
 12 45  1  0
 12 46  1  0
 13 47  1  0
 13 48  1  0
 17 49  1  0
 17 50  1  0
 18 51  1  0
 18 52  1  0
 21 53  1  0
 22 54  1  0
 24 55  1  0
 27 56  1  0
 28 57  1  0
 29 58  1  0
 31 59  1  0
 32 60  1  0
 32 61  1  0
 33 62  1  0
 33 63  1  0
 35 64  1  0
M  END
>  <UniqueID>  (41) 
38

>  <SMILES>  (41) 
CCNS(=O)(=O)c1ccc(N(C)CC(=O)N2CCN(c3ccncc3-c3cccnc3)CC2)nc1

>  <Energy>  (41) 
78.39825063827918

>  <Genealogy>  (41) 
CCNS(=O)(=O)c1ccc(N(C)CC(=O)N2CCN(c3ccncc3-c3cccnc3)CC2)nc1 (3D coordinates assigned)
CCNS(=O)(=O)c1ccc(N(C)CC(=O)N2CCN(c3ccncc3-c3cccnc3)CC2)nc1 (nonaromatic ring conformer: 78.39825063827918 kcal/mol)

>  <smiles>  (41) 
CCNS(=O)(=O)c1ccc(N(C)CC(=O)N2CCN(c3ccncc3-c3cccnc3)CC2)nc1

>  <score_type>  (41) 
oracle

>  <origin>  (41) 
adgpu

>  <m_score__min__energy>  (41) 
-9.8900000000000006

>  <m_primary>  (41) 
energy

$$$$
41:0
     RDKit          3D

 60 63  0  0  0  0  0  0  0  0999 V2000
   -4.9880   18.5500  -34.9180 O   0  0  0  0  0  0  0  0  0  0  0  0
   -4.9670   18.9950  -33.7390 C   0  0  0  0  0  0  0  0  0  0  0  0
   -3.7090   19.2020  -33.0750 N   0  0  0  0  0  0  0  0  0  0  0  0
   -2.4600   19.3800  -33.7640 C   0  0  0  0  0  0  0  0  0  0  0  0
   -1.8290   20.6350  -33.8220 C   0  0  0  0  0  0  0  0  0  0  0  0
   -0.5950   20.7750  -34.4650 C   0  0  0  0  0  0  0  0  0  0  0  0
    0.0300   19.6630  -35.0450 C   0  0  0  0  0  0  0  0  0  0  0  0
    1.6030   19.8350  -35.8310 S   0  0  0  0  0  0  0  0  0  0  0  0
    1.5180   19.2930  -37.2310 O   0  0  0  0  0  0  0  0  0  0  0  0
    1.9560   21.2950  -35.9180 O   0  0  0  0  0  0  0  0  0  0  0  0
    2.8540   18.9830  -34.9550 N   0  0  0  0  0  0  0  0  0  0  0  0
    2.2870   18.1390  -33.8730 C   0  0  0  0  0  0  0  0  0  0  0  0
    2.4850   18.7430  -32.4760 C   0  0  0  0  0  0  0  0  0  0  0  0
    3.9790   18.9640  -32.1740 C   0  0  0  0  0  0  0  0  0  0  0  0
    4.7950   19.3050  -33.4350 C   0  0  0  0  0  0  0  0  0  0  0  0
    3.9070   19.9260  -34.5180 C   0  0  0  0  0  0  0  0  0  0  0  0
   -0.5950   18.4100  -34.9830 C   0  0  0  0  0  0  0  0  0  0  0  0
   -1.8260   18.2690  -34.3370 C   0  0  0  0  0  0  0  0  0  0  0  0
   -6.2430   19.2490  -33.0310 C   0  0  0  0  0  0  0  0  0  0  0  0
   -7.1930   18.2230  -32.8880 C   0  0  0  0  0  0  0  0  0  0  0  0
   -8.3910   18.4590  -32.2080 C   0  0  0  0  0  0  0  0  0  0  0  0
   -8.6600   19.7200  -31.6730 C   0  0  0  0  0  0  0  0  0  0  0  0
   -7.7350   20.7610  -31.8290 C   0  0  0  0  0  0  0  0  0  0  0  0
   -8.0730   22.3580  -31.1660 S   0  0  0  0  0  0  0  0  0  0  0  0
   -9.1350   23.0290  -31.9940 O   0  0  0  0  0  0  0  0  0  0  0  0
   -8.5920   22.2050  -29.7620 O   0  0  0  0  0  0  0  0  0  0  0  0
   -6.6170   23.3230  -31.1460 N   0  0  0  0  0  0  0  0  0  0  0  0
   -6.8650   24.6030  -30.4560 C   0  0  0  0  0  0  0  0  0  0  0  0
   -5.5410   25.3170  -30.1180 C   0  0  0  0  0  0  0  0  0  0  0  0
   -4.4700   24.7660  -30.8580 O   0  0  0  0  0  0  0  0  0  0  0  0
   -4.2480   23.4260  -30.4540 C   0  0  0  0  0  0  0  0  0  0  0  0
   -5.5410   22.5810  -30.4750 C   0  0  0  0  0  0  0  0  0  0  0  0
   -6.5310   20.5220  -32.5060 C   0  0  0  0  0  0  0  0  0  0  0  0
   -3.6860   19.1250  -32.0320 H   0  0  0  0  0  0  0  0  0  0  0  0
   -2.3080   21.5106  -33.3596 H   0  0  0  0  0  0  0  0  0  0  0  0
   -0.1129   21.7624  -34.5157 H   0  0  0  0  0  0  0  0  0  0  0  0
    1.2087   18.0165  -34.0524 H   0  0  0  0  0  0  0  0  0  0  0  0
    2.8184   17.1761  -33.8938 H   0  0  0  0  0  0  0  0  0  0  0  0
    1.9614   19.7090  -32.4248 H   0  0  0  0  0  0  0  0  0  0  0  0
    2.0780   18.0427  -31.7317 H   0  0  0  0  0  0  0  0  0  0  0  0
    4.0745   19.7934  -31.4578 H   0  0  0  0  0  0  0  0  0  0  0  0
    4.3780   18.0247  -31.7634 H   0  0  0  0  0  0  0  0  0  0  0  0
    5.5874   20.0195  -33.1674 H   0  0  0  0  0  0  0  0  0  0  0  0
    5.2291   18.3751  -33.8312 H   0  0  0  0  0  0  0  0  0  0  0  0
    3.4316   20.8326  -34.1154 H   0  0  0  0  0  0  0  0  0  0  0  0
    4.5370   20.1700  -35.3861 H   0  0  0  0  0  0  0  0  0  0  0  0
   -0.1148   17.5346  -35.4445 H   0  0  0  0  0  0  0  0  0  0  0  0
   -2.3011   17.2786  -34.2777 H   0  0  0  0  0  0  0  0  0  0  0  0
   -6.9924   17.2287  -33.3137 H   0  0  0  0  0  0  0  0  0  0  0  0
   -9.1250   17.6477  -32.0939 H   0  0  0  0  0  0  0  0  0  0  0  0
   -9.5992   19.8967  -31.1283 H   0  0  0  0  0  0  0  0  0  0  0  0
   -7.4668   25.2523  -31.1088 H   0  0  0  0  0  0  0  0  0  0  0  0
   -7.3998   24.3960  -29.5173 H   0  0  0  0  0  0  0  0  0  0  0  0
   -5.6353   26.3856  -30.3614 H   0  0  0  0  0  0  0  0  0  0  0  0
   -5.3332   25.1851  -29.0459 H   0  0  0  0  0  0  0  0  0  0  0  0
   -3.5162   22.9684  -31.1359 H   0  0  0  0  0  0  0  0  0  0  0  0
   -3.8778   23.4456  -29.4184 H   0  0  0  0  0  0  0  0  0  0  0  0
   -5.3536   21.6422  -31.0167 H   0  0  0  0  0  0  0  0  0  0  0  0
   -5.8450   22.3615  -29.4409 H   0  0  0  0  0  0  0  0  0  0  0  0
   -5.8039   21.3383  -32.6280 H   0  0  0  0  0  0  0  0  0  0  0  0
  1  2  2  0
  2  3  1  0
  3  4  1  0
  4  5  2  0
  5  6  1  0
  6  7  2  0
  7  8  1  0
  8  9  2  0
  8 10  2  0
  8 11  1  0
 11 12  1  0
 12 13  1  0
 13 14  1  0
 14 15  1  0
 15 16  1  0
  7 17  1  0
 17 18  2  0
  2 19  1  0
 19 20  2  0
 20 21  1  0
 21 22  2  0
 22 23  1  0
 23 24  1  0
 24 25  2  0
 24 26  2  0
 24 27  1  0
 27 28  1  0
 28 29  1  0
 29 30  1  0
 30 31  1  0
 31 32  1  0
 23 33  2  0
 18  4  1  0
 33 19  1  0
 16 11  1  0
 32 27  1  0
  3 34  1  0
  5 35  1  0
  6 36  1  0
 12 37  1  0
 12 38  1  0
 13 39  1  0
 13 40  1  0
 14 41  1  0
 14 42  1  0
 15 43  1  0
 15 44  1  0
 16 45  1  0
 16 46  1  0
 17 47  1  0
 18 48  1  0
 20 49  1  0
 21 50  1  0
 22 51  1  0
 28 52  1  0
 28 53  1  0
 29 54  1  0
 29 55  1  0
 31 56  1  0
 31 57  1  0
 32 58  1  0
 32 59  1  0
 33 60  1  0
M  END
>  <UniqueID>  (42) 
39

>  <SMILES>  (42) 
O=C(Nc1ccc(S(=O)(=O)N2CCCCC2)cc1)c1cccc(S(=O)(=O)N2CCOCC2)c1

>  <Energy>  (42) 
79.09184137571089

>  <Genealogy>  (42) 
O=C(Nc1ccc(S(=O)(=O)N2CCCCC2)cc1)c1cccc(S(=O)(=O)N2CCOCC2)c1 (3D coordinates assigned)
O=C(Nc1ccc(S(=O)(=O)N2CCCCC2)cc1)c1cccc(S(=O)(=O)N2CCOCC2)c1 (nonaromatic ring conformer: 79.09184137571089 kcal/mol)

>  <smiles>  (42) 
O=C(Nc1ccc(S(=O)(=O)N2CCCCC2)cc1)c1cccc(S(=O)(=O)N2CCOCC2)c1

>  <score_type>  (42) 
oracle

>  <origin>  (42) 
adgpu

>  <m_score__min__energy>  (42) 
-11.06

>  <m_primary>  (42) 
energy

$$$$
42:0
     RDKit          3D

 79 83  0  0  1  0  0  0  0  0999 V2000
   -9.1100   18.6340  -31.5560 C   0  0  0  0  0  0  0  0  0  0  0  0
   -7.7190   18.4810  -31.3600 O   0  0  0  0  0  0  0  0  0  0  0  0
   -6.8210   18.3290  -32.4260 C   0  0  0  0  0  0  0  0  0  0  0  0
   -6.2680   17.0740  -32.7020 C   0  0  0  0  0  0  0  0  0  0  0  0
   -5.3830   16.9070  -33.7460 C   0  0  0  0  0  0  0  0  0  0  0  0
   -4.8370   15.6220  -33.9980 N   0  0  0  0  0  0  0  0  0  0  0  0
   -5.7460   14.5040  -34.2020 C   0  0  0  0  0  0  0  0  0  0  0  0
   -4.9400   13.2160  -34.0880 C   0  0  0  0  0  0  0  0  0  0  0  0
   -4.0840   13.2900  -32.9100 N   0  0  0  0  0  0  0  0  0  0  0  0
   -3.4880   11.9930  -32.6840 C   0  0  0  0  0  0  0  0  0  0  0  0
   -3.0560   14.2750  -33.0510 C   0  0  0  0  0  0  0  0  0  0  0  0
   -3.4250   15.3360  -34.0710 C   0  0  0  0  0  0  0  0  0  0  0  0
   -5.0790   18.0260  -34.4890 C   0  0  0  0  0  0  0  0  0  0  0  0
   -5.6300   19.2770  -34.2150 C   0  0  0  0  0  0  0  0  0  0  0  0
   -6.5050   19.4440  -33.1830 C   0  0  0  0  0  0  0  0  0  0  0  0
   -7.0970   20.6950  -32.8550 N   0  0  0  0  0  0  0  0  0  0  0  0
   -6.4770   21.5130  -32.0780 C   0  0  0  0  0  0  0  0  0  0  0  0
   -7.0160   22.7040  -31.7500 N   0  0  0  0  0  0  0  0  0  0  0  0
   -6.3950   23.5800  -30.9440 C   0  0  0  0  0  0  0  0  0  0  0  0
   -5.1650   23.2820  -30.4160 C   0  0  0  0  0  0  0  0  0  0  0  0
   -4.3350   24.3800  -29.3730 Cl  0  0  0  0  0  0  0  0  0  0  0  0
   -4.6050   22.0750  -30.7390 C   0  0  0  0  0  0  0  0  0  0  0  0
   -3.4670   21.6880  -30.3110 N   0  0  0  0  0  0  0  0  0  0  0  0
   -2.6460   22.4550  -29.4510 C   0  0  0  0  0  0  0  0  0  0  0  0
   -1.7530   23.4090  -29.9420 C   0  0  0  0  0  0  0  0  0  0  0  0
   -0.9340   24.1360  -29.0690 C   0  0  0  0  0  0  0  0  0  0  0  0
   -0.9580   23.9580  -27.7130 C   0  0  0  0  0  0  0  0  0  0  0  0
   -0.1420   24.7000  -26.8380 N   0  0  0  0  0  0  0  0  0  0  0  0
    0.4610   24.1430  -25.6220 C   0  0  0  0  0  0  0  0  0  0  0  0
    1.9350   24.2760  -25.7460 C   0  0  0  0  0  0  0  0  0  0  0  0
    2.4620   25.3270  -26.5000 N   0  0  0  0  0  0  0  0  0  0  0  0
    3.9990   25.0990  -27.1650 S   0  0  0  0  0  0  0  0  0  0  0  0
    4.0140   25.1840  -28.9350 C   0  0  0  0  0  0  0  0  0  0  0  0
    4.9250   26.1730  -26.6400 O   0  0  0  0  0  0  0  0  0  0  0  0
    4.5650   23.7790  -26.7260 O   0  0  0  0  0  0  0  0  0  0  0  0
    1.6500   26.3330  -27.0360 C   0  0  0  0  0  0  0  0  0  0  0  0
    0.1790   26.1220  -27.0520 C   0  0  0  0  0  0  0  0  0  0  0  0
   -1.8460   23.0070  -27.2250 C   0  0  0  0  0  0  0  0  0  0  0  0
   -2.6700   22.2720  -28.0650 C   0  0  0  0  0  0  0  0  0  0  0  0
   -3.5560   21.3180  -27.5300 O   0  0  0  0  0  0  0  0  0  0  0  0
   -3.1360   20.0260  -27.1750 C   0  0  0  0  0  0  0  0  0  0  0  0
   -5.2740   21.2300  -31.5570 N   0  0  0  0  0  0  0  0  0  0  0  0
   -9.6139   18.6894  -30.5798 H   0  0  0  0  0  0  0  0  0  0  0  0
   -9.3013   19.5586  -32.1204 H   0  0  0  0  0  0  0  0  0  0  0  0
   -9.4976   17.7731  -32.1204 H   0  0  0  0  0  0  0  0  0  0  0  0
   -6.5425   16.2102  -32.0787 H   0  0  0  0  0  0  0  0  0  0  0  0
   -6.5352   14.5197  -33.4358 H   0  0  0  0  0  0  0  0  0  0  0  0
   -6.2199   14.5722  -35.1923 H   0  0  0  0  0  0  0  0  0  0  0  0
   -5.6248   12.3605  -33.9923 H   0  0  0  0  0  0  0  0  0  0  0  0
   -4.3207   13.0862  -34.9878 H   0  0  0  0  0  0  0  0  0  0  0  0
   -3.4045   11.8113  -31.6023 H   0  0  0  0  0  0  0  0  0  0  0  0
   -4.1190   11.2152  -33.1388 H   0  0  0  0  0  0  0  0  0  0  0  0
   -2.4868   11.9653  -33.1388 H   0  0  0  0  0  0  0  0  0  0  0  0
   -2.8919   14.7596  -32.0772 H   0  0  0  0  0  0  0  0  0  0  0  0
   -2.1443   13.7685  -33.4006 H   0  0  0  0  0  0  0  0  0  0  0  0
   -2.8563   16.2543  -33.8631 H   0  0  0  0  0  0  0  0  0  0  0  0
   -3.1834   14.9670  -35.0787 H   0  0  0  0  0  0  0  0  0  0  0  0
   -4.3758   17.9292  -35.3293 H   0  0  0  0  0  0  0  0  0  0  0  0
   -5.3553   20.1400  -34.8393 H   0  0  0  0  0  0  0  0  0  0  0  0
   -7.9520   22.9390  -32.1490 H   0  0  0  0  0  0  0  0  0  0  0  0
   -6.8749   24.5408  -30.7062 H   0  0  0  0  0  0  0  0  0  0  0  0
   -1.6920   23.5915  -31.0250 H   0  0  0  0  0  0  0  0  0  0  0  0
   -0.2431   24.8807  -29.4911 H   0  0  0  0  0  0  0  0  0  0  0  0
    0.1077   24.6984  -24.7406 H   0  0  0  0  0  0  0  0  0  0  0  0
    0.1787   23.0867  -25.5015 H   0  0  0  0  0  0  0  0  0  0  0  0
    2.3356   24.3789  -24.7267 H   0  0  0  0  0  0  0  0  0  0  0  0
    2.2334   23.3768  -26.3050 H   0  0  0  0  0  0  0  0  0  0  0  0
    4.1971   26.2217  -29.2507 H   0  0  0  0  0  0  0  0  0  0  0  0
    4.8116   24.5355  -29.3265 H   0  0  0  0  0  0  0  0  0  0  0  0
    3.0426   24.8476  -29.3265 H   0  0  0  0  0  0  0  0  0  0  0  0
    1.8407   27.2480  -26.4561 H   0  0  0  0  0  0  0  0  0  0  0  0
    1.9293   26.3672  -28.0994 H   0  0  0  0  0  0  0  0  0  0  0  0
   -0.2811   26.7210  -26.2523 H   0  0  0  0  0  0  0  0  0  0  0  0
   -0.2135   26.4312  -28.0320 H   0  0  0  0  0  0  0  0  0  0  0  0
   -1.8971   22.8317  -26.1403 H   0  0  0  0  0  0  0  0  0  0  0  0
   -3.1074   19.9380  -26.0789 H   0  0  0  0  0  0  0  0  0  0  0  0
   -3.8399   19.2863  -27.5840 H   0  0  0  0  0  0  0  0  0  0  0  0
   -2.1316   19.8416  -27.5840 H   0  0  0  0  0  0  0  0  0  0  0  0
   -4.8580   20.3110  -31.8090 H   0  0  0  0  0  0  0  0  0  0  0  0
  1  2  1  0
  2  3  1  0
  3  4  2  0
  4  5  1  0
  5  6  1  0
  6  7  1  0
  7  8  1  0
  8  9  1  0
  9 10  1  0
  9 11  1  0
 11 12  1  0
  5 13  2  0
 13 14  1  0
 14 15  2  0
 15 16  1  0
 16 17  2  0
 17 18  1  0
 18 19  1  0
 19 20  2  0
 20 21  1  0
 20 22  1  0
 22 23  2  0
 23 24  1  0
 24 25  2  0
 25 26  1  0
 26 27  2  0
 27 28  1  0
 28 29  1  0
 29 30  1  0
 30 31  1  0
 31 32  1  0
 32 33  1  0
 32 34  2  0
 32 35  2  0
 31 36  1  0
 36 37  1  0
 27 38  1  0
 38 39  2  0
 39 40  1  0
 40 41  1  0
 22 42  1  0
 15  3  1  0
 42 17  1  0
 12  6  1  0
 39 24  1  0
 37 28  1  0
  1 43  1  0
  1 44  1  0
  1 45  1  0
  4 46  1  0
  7 47  1  0
  7 48  1  0
  8 49  1  0
  8 50  1  0
 10 51  1  0
 10 52  1  0
 10 53  1  0
 11 54  1  0
 11 55  1  0
 12 56  1  0
 12 57  1  0
 13 58  1  0
 14 59  1  0
 18 60  1  0
 19 61  1  0
 25 62  1  0
 26 63  1  0
 29 64  1  0
 29 65  1  0
 30 66  1  0
 30 67  1  0
 33 68  1  0
 33 69  1  0
 33 70  1  0
 36 71  1  0
 36 72  1  0
 37 73  1  0
 37 74  1  0
 38 75  1  0
 41 76  1  0
 41 77  1  0
 41 78  1  0
 42 79  1  0
M  END
>  <smiles>  (43) 
COc1cc(N2CCN(C)CC2)ccc1N=c1[nH]cc(Cl)c(=Nc2ccc(N3CCN(S(C)(=O)=O)CC3)cc2OC)[nH]1

>  <score_type>  (43) 
oracle

>  <origin>  (43) 
adgpu

>  <m_score__min__energy>  (43) 
-8.9800000000000004

>  <m_primary>  (43) 
energy

$$$$
43:0
     RDKit          3D

 46 48  0  0  0  0  0  0  0  0999 V2000
   -6.1590   17.6820  -32.6670 C   0  0  0  0  0  0  0  0  0  0  0  0
   -6.5420   18.8990  -33.4480 C   0  0  0  0  0  0  0  0  0  0  0  0
   -6.0510   19.0680  -34.5990 O   0  0  0  0  0  0  0  0  0  0  0  0
   -7.4080   19.8980  -32.8770 N   0  0  0  0  0  0  0  0  0  0  0  0
   -8.8240   19.5370  -32.6940 C   0  0  0  0  0  0  0  0  0  0  0  0
   -9.6830   20.7470  -32.3240 C   0  0  0  0  0  0  0  0  0  0  0  0
   -9.0860   21.4730  -31.1220 C   0  0  0  0  0  0  0  0  0  0  0  0
   -7.6690   21.8820  -31.4110 C   0  0  0  0  0  0  0  0  0  0  0  0
   -7.1440   23.0350  -30.8090 C   0  0  0  0  0  0  0  0  0  0  0  0
   -5.8380   23.4480  -31.0870 C   0  0  0  0  0  0  0  0  0  0  0  0
   -5.2270   24.9400  -30.3790 S   0  0  0  0  0  0  0  0  0  0  0  0
   -5.7180   25.1100  -28.9660 O   0  0  0  0  0  0  0  0  0  0  0  0
   -5.7110   26.0960  -31.2090 O   0  0  0  0  0  0  0  0  0  0  0  0
   -3.4930   24.9200  -30.3830 N   0  0  0  0  0  0  0  0  0  0  0  0
   -2.6760   24.2750  -29.4000 C   0  0  0  0  0  0  0  0  0  0  0  0
   -1.5760   24.9190  -28.8070 C   0  0  0  0  0  0  0  0  0  0  0  0
   -0.8180   24.2670  -27.8240 C   0  0  0  0  0  0  0  0  0  0  0  0
    0.3180   24.9850  -27.1540 C   0  0  0  0  0  0  0  0  0  0  0  0
   -1.1730   22.9720  -27.4190 C   0  0  0  0  0  0  0  0  0  0  0  0
   -2.2500   22.3100  -28.0260 C   0  0  0  0  0  0  0  0  0  0  0  0
   -2.6450   20.9310  -27.5820 C   0  0  0  0  0  0  0  0  0  0  0  0
   -2.9990   22.9690  -29.0120 C   0  0  0  0  0  0  0  0  0  0  0  0
   -5.0480   22.6960  -31.9620 C   0  0  0  0  0  0  0  0  0  0  0  0
   -5.5550   21.5360  -32.5500 C   0  0  0  0  0  0  0  0  0  0  0  0
   -6.8620   21.0950  -32.2620 C   0  0  0  0  0  0  0  0  0  0  0  0
   -6.2277   17.9002  -31.5910 H   0  0  0  0  0  0  0  0  0  0  0  0
   -6.8406   16.8558  -32.9178 H   0  0  0  0  0  0  0  0  0  0  0  0
   -5.1271   17.3951  -32.9178 H   0  0  0  0  0  0  0  0  0  0  0  0
   -9.2041   19.1056  -33.6318 H   0  0  0  0  0  0  0  0  0  0  0  0
   -8.8850   18.8130  -31.8681 H   0  0  0  0  0  0  0  0  0  0  0  0
   -9.7260   21.4367  -33.1798 H   0  0  0  0  0  0  0  0  0  0  0  0
  -10.6953   20.4018  -32.0668 H   0  0  0  0  0  0  0  0  0  0  0  0
   -9.6854   22.3694  -30.9050 H   0  0  0  0  0  0  0  0  0  0  0  0
   -9.0934   20.7960  -30.2551 H   0  0  0  0  0  0  0  0  0  0  0  0
   -7.7647   23.6184  -30.1130 H   0  0  0  0  0  0  0  0  0  0  0  0
   -1.3084   25.9403  -29.1160 H   0  0  0  0  0  0  0  0  0  0  0  0
    0.2042   24.9131  -26.0623 H   0  0  0  0  0  0  0  0  0  0  0  0
    1.2708   24.5247  -27.4545 H   0  0  0  0  0  0  0  0  0  0  0  0
    0.3111   26.0431  -27.4545 H   0  0  0  0  0  0  0  0  0  0  0  0
   -0.6036   22.4730  -26.6210 H   0  0  0  0  0  0  0  0  0  0  0  0
   -2.6570   20.8891  -26.4829 H   0  0  0  0  0  0  0  0  0  0  0  0
   -3.6471   20.6942  -27.9689 H   0  0  0  0  0  0  0  0  0  0  0  0
   -1.9203   20.1996  -27.9689 H   0  0  0  0  0  0  0  0  0  0  0  0
   -3.8485   22.4547  -29.4851 H   0  0  0  0  0  0  0  0  0  0  0  0
   -4.0215   23.0203  -32.1882 H   0  0  0  0  0  0  0  0  0  0  0  0
   -4.9274   20.9598  -33.2458 H   0  0  0  0  0  0  0  0  0  0  0  0
  1  2  1  0
  2  3  2  0
  2  4  1  0
  4  5  1  0
  5  6  1  0
  6  7  1  0
  7  8  1  0
  8  9  2  0
  9 10  1  0
 10 11  1  0
 11 12  2  0
 11 13  2  0
 11 14  1  0
 14 15  1  0
 15 16  2  0
 16 17  1  0
 17 18  1  0
 17 19  2  0
 19 20  1  0
 20 21  1  0
 20 22  2  0
 10 23  2  0
 23 24  1  0
 24 25  2  0
 25  4  1  0
 25  8  1  0
 22 15  1  0
  1 26  1  0
  1 27  1  0
  1 28  1  0
  5 29  1  0
  5 30  1  0
  6 31  1  0
  6 32  1  0
  7 33  1  0
  7 34  1  0
  9 35  1  0
 16 36  1  0
 18 37  1  0
 18 38  1  0
 18 39  1  0
 19 40  1  0
 21 41  1  0
 21 42  1  0
 21 43  1  0
 22 44  1  0
 23 45  1  0
 24 46  1  0
M  CHG  1  14  -1
M  END
>  <UniqueID>  (44) 
40

>  <SMILES>  (44) 
CC(=O)N1CCCc2cc(S(=O)(=O)[N-]c3cc(C)cc(C)c3)ccc21

>  <Energy>  (44) 
53.257355684183175

>  <Genealogy>  (44) 
CC(=O)N1CCCc2cc(S(=O)(=O)[N-]c3cc(C)cc(C)c3)ccc21 (protonated)
CC(=O)N1CCCc2cc(S(=O)(=O)[N-]c3cc(C)cc(C)c3)ccc21 (3D coordinates assigned)
CC(=O)N1CCCc2cc(S(=O)(=O)[N-]c3cc(C)cc(C)c3)ccc21 (nonaromatic ring conformer: 53.257355684183175 kcal/mol)

>  <smiles>  (44) 
CC(=O)N1CCCc2cc(S(=O)(=O)Nc3cc(C)cc(C)c3)ccc21

>  <score_type>  (44) 
oracle

>  <origin>  (44) 
adgpu

>  <m_score__min__energy>  (44) 
-11.24

>  <m_primary>  (44) 
energy

$$$$
44:0
     RDKit          3D

 74 78  0  0  0  0  0  0  0  0999 V2000
   -0.4410   28.5810  -35.7380 C   0  0  0  0  0  0  0  0  0  0  0  0
    0.4510   27.3670  -35.6720 C   0  0  0  0  0  0  0  0  0  0  0  0
   -0.1020   26.0950  -35.9040 C   0  0  0  0  0  0  0  0  0  0  0  0
    0.7060   24.9510  -35.8680 C   0  0  0  0  0  0  0  0  0  0  0  0
    0.1720   23.6790  -36.0980 C   0  0  0  0  0  0  0  0  0  0  0  0
    1.0020   22.5470  -36.0990 C   0  0  0  0  0  0  0  0  0  0  0  0
    0.4060   21.1780  -36.3690 C   0  0  0  0  0  0  0  0  0  0  0  0
    0.8980   20.1130  -35.4640 N   0  0  0  0  0  0  0  0  0  0  0  0
    0.9870   18.7560  -36.0620 C   0  0  0  0  0  0  0  0  0  0  0  0
    0.9990   18.8490  -37.6080 C   0  0  0  0  0  0  0  0  0  0  0  0
    1.6340   17.6180  -38.2910 C   0  0  0  0  0  0  0  0  0  0  0  0
    1.4410   16.3410  -37.4610 C   0  0  0  0  0  0  0  0  0  0  0  0
    2.0840   16.4560  -36.0620 C   0  0  0  0  0  0  0  0  0  0  0  0
    2.1730   17.9070  -35.5460 C   0  0  0  0  0  0  0  0  0  0  0  0
    0.2920   20.2170  -33.8170 S   0  0  0  0  0  0  0  0  0  0  0  0
    0.4740   21.6090  -33.2830 O   0  0  0  0  0  0  0  0  0  0  0  0
    1.0330   19.2610  -32.9250 O   0  0  0  0  0  0  0  0  0  0  0  0
   -1.4320   19.8480  -33.7860 C   0  0  0  0  0  0  0  0  0  0  0  0
   -2.3680   20.8210  -33.4040 C   0  0  0  0  0  0  0  0  0  0  0  0
   -3.7280   20.5020  -33.3470 C   0  0  0  0  0  0  0  0  0  0  0  0
   -4.1650   19.2100  -33.6690 C   0  0  0  0  0  0  0  0  0  0  0  0
   -5.8780   18.8110  -33.5530 S   0  0  0  0  0  0  0  0  0  0  0  0
   -6.6560   19.6580  -34.5200 O   0  0  0  0  0  0  0  0  0  0  0  0
   -6.0510   17.3700  -33.9450 O   0  0  0  0  0  0  0  0  0  0  0  0
   -6.4350   19.0470  -31.9080 N   0  0  0  0  0  0  0  0  0  0  0  0
   -7.5990   18.1940  -31.5880 C   0  0  0  0  0  0  0  0  0  0  0  0
   -8.9160   18.7930  -32.1030 C   0  0  0  0  0  0  0  0  0  0  0  0
   -9.0960   20.1050  -31.6090 O   0  0  0  0  0  0  0  0  0  0  0  0
   -8.0670   20.9400  -32.1000 C   0  0  0  0  0  0  0  0  0  0  0  0
   -6.6920   20.4700  -31.5980 C   0  0  0  0  0  0  0  0  0  0  0  0
   -3.2330   18.2470  -34.0790 C   0  0  0  0  0  0  0  0  0  0  0  0
   -1.8730   18.5670  -34.1420 C   0  0  0  0  0  0  0  0  0  0  0  0
    2.3670   22.7180  -35.7910 C   0  0  0  0  0  0  0  0  0  0  0  0
    3.1420   21.7280  -35.7130 O   0  0  0  0  0  0  0  0  0  0  0  0
    2.8620   23.9640  -35.5580 N   0  0  0  0  0  0  0  0  0  0  0  0
    2.0800   25.0730  -35.5980 C   0  0  0  0  0  0  0  0  0  0  0  0
    2.6370   26.3330  -35.3640 C   0  0  0  0  0  0  0  0  0  0  0  0
    1.8380   27.4880  -35.4100 C   0  0  0  0  0  0  0  0  0  0  0  0
    2.4700   28.8330  -35.1620 C   0  0  0  0  0  0  0  0  0  0  0  0
   -0.6848   28.9128  -34.7179 H   0  0  0  0  0  0  0  0  0  0  0  0
    0.0793   29.3897  -36.2721 H   0  0  0  0  0  0  0  0  0  0  0  0
   -1.3682   28.3261  -36.2721 H   0  0  0  0  0  0  0  0  0  0  0  0
   -1.1771   25.9975  -36.1153 H   0  0  0  0  0  0  0  0  0  0  0  0
   -0.9069   23.5648  -36.2795 H   0  0  0  0  0  0  0  0  0  0  0  0
   -0.6860   21.2488  -36.2570 H   0  0  0  0  0  0  0  0  0  0  0  0
    0.7122   20.8947  -37.3869 H   0  0  0  0  0  0  0  0  0  0  0  0
    0.0853   18.2199  -35.7312 H   0  0  0  0  0  0  0  0  0  0  0  0
   -0.0387   18.9464  -37.9596 H   0  0  0  0  0  0  0  0  0  0  0  0
    1.6122   19.7219  -37.8763 H   0  0  0  0  0  0  0  0  0  0  0  0
    1.1653   17.4764  -39.2760 H   0  0  0  0  0  0  0  0  0  0  0  0
    2.7142   17.8014  -38.3891 H   0  0  0  0  0  0  0  0  0  0  0  0
    0.3635   16.1545  -37.3421 H   0  0  0  0  0  0  0  0  0  0  0  0
    1.9325   15.5132  -37.9931 H   0  0  0  0  0  0  0  0  0  0  0  0
    1.4818   15.8699  -35.3522 H   0  0  0  0  0  0  0  0  0  0  0  0
    3.1134   16.0774  -36.1457 H   0  0  0  0  0  0  0  0  0  0  0  0
    2.1570   17.8987  -34.4461 H   0  0  0  0  0  0  0  0  0  0  0  0
    3.1083   18.3524  -35.9160 H   0  0  0  0  0  0  0  0  0  0  0  0
   -2.0311   21.8366  -33.1489 H   0  0  0  0  0  0  0  0  0  0  0  0
   -4.4582   21.2685  -33.0481 H   0  0  0  0  0  0  0  0  0  0  0  0
   -5.6450   18.7320  -31.2960 H   0  0  0  0  0  0  0  0  0  0  0  0
   -7.4533   17.2073  -32.0518 H   0  0  0  0  0  0  0  0  0  0  0  0
   -7.6691   18.1152  -30.4931 H   0  0  0  0  0  0  0  0  0  0  0  0
   -8.8942   18.8211  -33.2024 H   0  0  0  0  0  0  0  0  0  0  0  0
   -9.7497   18.1664  -31.7533 H   0  0  0  0  0  0  0  0  0  0  0  0
   -8.0767   20.9148  -33.1997 H   0  0  0  0  0  0  0  0  0  0  0  0
   -8.2422   21.9636  -31.7374 H   0  0  0  0  0  0  0  0  0  0  0  0
   -5.9132   21.0820  -32.0764 H   0  0  0  0  0  0  0  0  0  0  0  0
   -6.6778   20.5828  -30.5039 H   0  0  0  0  0  0  0  0  0  0  0  0
   -3.5720   17.2368  -34.3520 H   0  0  0  0  0  0  0  0  0  0  0  0
   -1.1468   17.8098  -34.4724 H   0  0  0  0  0  0  0  0  0  0  0  0
    3.7107   26.4215  -35.1418 H   0  0  0  0  0  0  0  0  0  0  0  0
    2.5512   29.0058  -34.0787 H   0  0  0  0  0  0  0  0  0  0  0  0
    3.4730   28.8556  -35.6131 H   0  0  0  0  0  0  0  0  0  0  0  0
    1.8472   29.6195  -35.6131 H   0  0  0  0  0  0  0  0  0  0  0  0
  1  2  1  0
  2  3  2  0
  3  4  1  0
  4  5  1  0
  5  6  2  0
  6  7  1  0
  7  8  1  0
  8  9  1  0
  9 10  1  0
 10 11  1  0
 11 12  1  0
 12 13  1  0
 13 14  1  0
  8 15  1  0
 15 16  2  0
 15 17  2  0
 15 18  1  0
 18 19  2  0
 19 20  1  0
 20 21  2  0
 21 22  1  0
 22 23  2  0
 22 24  2  0
 22 25  1  0
 25 26  1  0
 26 27  1  0
 27 28  1  0
 28 29  1  0
 29 30  1  0
 21 31  1  0
 31 32  2  0
  6 33  1  0
 33 34  2  0
 33 35  1  0
 35 36  1  0
 36 37  1  0
 37 38  2  0
 38 39  1  0
 38  2  1  0
 36  4  2  0
 14  9  1  0
 32 18  1  0
 30 25  1  0
  1 40  1  0
  1 41  1  0
  1 42  1  0
  3 43  1  0
  5 44  1  0
  7 45  1  0
  7 46  1  0
  9 47  1  0
 10 48  1  0
 10 49  1  0
 11 50  1  0
 11 51  1  0
 12 52  1  0
 12 53  1  0
 13 54  1  0
 13 55  1  0
 14 56  1  0
 14 57  1  0
 19 58  1  0
 20 59  1  0
 25 60  1  0
 26 61  1  0
 26 62  1  0
 27 63  1  0
 27 64  1  0
 29 65  1  0
 29 66  1  0
 30 67  1  0
 30 68  1  0
 31 69  1  0
 32 70  1  0
 37 71  1  0
 39 72  1  0
 39 73  1  0
 39 74  1  0
M  CHG  2  25   1  35  -1
M  END
>  <UniqueID>  (45) 
41

>  <SMILES>  (45) 
Cc1cc2cc(CN(C3CCCCC3)S(=O)(=O)c3ccc(S(=O)(=O)[NH+]4CCOCC4)cc3)c(=O)[n-]c2cc1C

>  <Energy>  (45) 
97.08702487335184

>  <Genealogy>  (45) 
Cc1cc2cc(CN(C3CCCCC3)S(=O)(=O)c3ccc(S(=O)(=O)[NH+]4CCOCC4)cc3)c(=O)[n-]c2cc1C (protonated)
Cc1cc2cc(CN(C3CCCCC3)S(=O)(=O)c3ccc(S(=O)(=O)[NH+]4CCOCC4)cc3)c(=O)[n-]c2cc1C (3D coordinates assigned)
Cc1cc2cc(CN(C3CCCCC3)S(=O)(=O)c3ccc(S(=O)(=O)[NH+]4CCOCC4)cc3)c(=O)[n-]c2cc1C (nonaromatic ring conformer: 97.08702487335184 kcal/mol)

>  <smiles>  (45) 
Cc1cc2cc(CN(C3CCCCC3)S(=O)(=O)c3ccc(S(=O)(=O)N4CCOCC4)cc3)c(=O)[nH]c2cc1C

>  <score_type>  (45) 
oracle

>  <origin>  (45) 
adgpu

>  <m_score__min__energy>  (45) 
-12.359999999999999

>  <m_primary>  (45) 
energy

$$$$
45:0
     RDKit          3D

 52 55  0  0  0  0  0  0  0  0999 V2000
   -4.9090   23.6840  -31.4600 O   0  0  0  0  0  0  0  0  0  0  0  0
   -3.7630   23.5230  -30.9600 C   0  0  0  0  0  0  0  0  0  0  0  0
   -3.2110   24.5690  -30.1530 N   0  0  0  0  0  0  0  0  0  0  0  0
   -2.4790   24.3780  -28.9360 C   0  0  0  0  0  0  0  0  0  0  0  0
   -2.7930   23.2830  -28.1300 C   0  0  0  0  0  0  0  0  0  0  0  0
   -2.0890   23.0510  -26.9510 C   0  0  0  0  0  0  0  0  0  0  0  0
   -1.0780   23.9260  -26.5420 C   0  0  0  0  0  0  0  0  0  0  0  0
   -0.1950   23.5130  -25.0760 Cl  0  0  0  0  0  0  0  0  0  0  0  0
   -0.7870   25.0790  -27.3090 C   0  0  0  0  0  0  0  0  0  0  0  0
    0.4820   26.2180  -26.8090 S   0  0  0  0  0  0  0  0  0  0  0  0
    0.7780   26.0610  -25.3430 O   0  0  0  0  0  0  0  0  0  0  0  0
    1.7550   25.9440  -27.5610 O   0  0  0  0  0  0  0  0  0  0  0  0
   -0.1080   27.8850  -27.0950 C   0  0  0  0  0  0  0  0  0  0  0  0
   -0.8540   28.4910  -25.9190 C   0  0  0  0  0  0  0  0  0  0  0  0
    0.5480   28.9710  -26.2590 C   0  0  0  0  0  0  0  0  0  0  0  0
   -1.4950   25.2960  -28.5120 C   0  0  0  0  0  0  0  0  0  0  0  0
   -1.2360   26.4230  -29.2860 O   0  0  0  0  0  0  0  0  0  0  0  0
   -3.0330   22.3020  -31.1850 N   0  0  0  0  0  0  0  0  0  0  0  0
   -3.5080   21.2190  -32.0000 C   0  0  0  0  0  0  0  0  0  0  0  0
   -2.7290   20.7830  -33.0830 C   0  0  0  0  0  0  0  0  0  0  0  0
   -3.1600   19.7210  -33.8810 C   0  0  0  0  0  0  0  0  0  0  0  0
   -4.3620   19.0710  -33.5930 C   0  0  0  0  0  0  0  0  0  0  0  0
   -5.1340   19.4690  -32.4920 C   0  0  0  0  0  0  0  0  0  0  0  0
   -6.6450   18.6330  -32.1150 S   0  0  0  0  0  0  0  0  0  0  0  0
   -6.3910   17.6350  -31.0190 O   0  0  0  0  0  0  0  0  0  0  0  0
   -7.1020   17.8790  -33.3320 O   0  0  0  0  0  0  0  0  0  0  0  0
   -7.9160   19.7210  -31.6100 N   0  0  0  0  0  0  0  0  0  0  0  0
   -9.1520   19.5110  -32.3610 C   0  0  0  0  0  0  0  0  0  0  0  0
   -9.9110   20.8270  -32.3130 C   0  0  0  0  0  0  0  0  0  0  0  0
   -8.8700   21.8800  -31.9610 C   0  0  0  0  0  0  0  0  0  0  0  0
   -7.5590   21.1210  -31.8280 C   0  0  0  0  0  0  0  0  0  0  0  0
   -4.7050   20.5440  -31.7000 C   0  0  0  0  0  0  0  0  0  0  0  0
   -3.6014   22.5990  -28.4277 H   0  0  0  0  0  0  0  0  0  0  0  0
   -2.3305   22.1715  -26.3360 H   0  0  0  0  0  0  0  0  0  0  0  0
   -0.3034   27.7524  -28.1694 H   0  0  0  0  0  0  0  0  0  0  0  0
   -1.7183   29.1482  -26.0955 H   0  0  0  0  0  0  0  0  0  0  0  0
   -1.3421   28.0911  -25.0180 H   0  0  0  0  0  0  0  0  0  0  0  0
    0.6982   29.9754  -26.6817 H   0  0  0  0  0  0  0  0  0  0  0  0
    1.4946   29.0623  -25.7062 H   0  0  0  0  0  0  0  0  0  0  0  0
   -2.0610   22.2280  -30.8120 H   0  0  0  0  0  0  0  0  0  0  0  0
   -1.7734   21.2807  -33.3046 H   0  0  0  0  0  0  0  0  0  0  0  0
   -2.5516   19.3960  -34.7379 H   0  0  0  0  0  0  0  0  0  0  0  0
   -4.7045   18.2438  -34.2321 H   0  0  0  0  0  0  0  0  0  0  0  0
   -8.9233   19.2413  -33.4026 H   0  0  0  0  0  0  0  0  0  0  0  0
   -9.7463   18.6915  -31.9306 H   0  0  0  0  0  0  0  0  0  0  0  0
  -10.3646   21.0458  -33.2909 H   0  0  0  0  0  0  0  0  0  0  0  0
  -10.7308   20.8005  -31.5800 H   0  0  0  0  0  0  0  0  0  0  0  0
   -8.7994   22.6337  -32.7591 H   0  0  0  0  0  0  0  0  0  0  0  0
   -9.1276   22.4178  -31.0367 H   0  0  0  0  0  0  0  0  0  0  0  0
   -6.9644   21.2237  -32.7478 H   0  0  0  0  0  0  0  0  0  0  0  0
   -6.9526   21.5129  -30.9981 H   0  0  0  0  0  0  0  0  0  0  0  0
   -5.3093   20.8617  -30.8375 H   0  0  0  0  0  0  0  0  0  0  0  0
  1  2  2  0
  2  3  1  0
  3  4  1  0
  4  5  2  0
  5  6  1  0
  6  7  2  0
  7  8  1  0
  7  9  1  0
  9 10  1  0
 10 11  2  0
 10 12  2  0
 10 13  1  0
 13 14  1  0
 14 15  1  0
  9 16  2  0
 16 17  1  0
  2 18  1  0
 18 19  1  0
 19 20  2  0
 20 21  1  0
 21 22  2  0
 22 23  1  0
 23 24  1  0
 24 25  2  0
 24 26  2  0
 24 27  1  0
 27 28  1  0
 28 29  1  0
 29 30  1  0
 30 31  1  0
 23 32  2  0
 16  4  1  0
 32 19  1  0
 15 13  1  0
 31 27  1  0
  5 33  1  0
  6 34  1  0
 13 35  1  0
 14 36  1  0
 14 37  1  0
 15 38  1  0
 15 39  1  0
 18 40  1  0
 20 41  1  0
 21 42  1  0
 22 43  1  0
 28 44  1  0
 28 45  1  0
 29 46  1  0
 29 47  1  0
 30 48  1  0
 30 49  1  0
 31 50  1  0
 31 51  1  0
 32 52  1  0
M  CHG  2   3  -1  17  -1
M  END
>  <UniqueID>  (46) 
42

>  <SMILES>  (46) 
O=C([N-]c1ccc(Cl)c(S(=O)(=O)C2CC2)c1[O-])Nc1cccc(S(=O)(=O)N2CCCC2)c1

>  <Energy>  (46) 
331.043854703734

>  <Genealogy>  (46) 
O=C([N-]c1ccc(Cl)c(S(=O)(=O)C2CC2)c1[O-])Nc1cccc(S(=O)(=O)N2CCCC2)c1 (protonated)
O=C([N-]c1ccc(Cl)c(S(=O)(=O)C2CC2)c1[O-])Nc1cccc(S(=O)(=O)N2CCCC2)c1 (3D coordinates assigned)
O=C([N-]c1ccc(Cl)c(S(=O)(=O)C2CC2)c1[O-])Nc1cccc(S(=O)(=O)N2CCCC2)c1 (nonaromatic ring conformer: 331.043854703734 kcal/mol)

>  <smiles>  (46) 
O=C(Nc1cccc(S(=O)(=O)N2CCCC2)c1)Nc1ccc(Cl)c(S(=O)(=O)C2CC2)c1O

>  <score_type>  (46) 
oracle

>  <origin>  (46) 
adgpu

>  <m_score__min__energy>  (46) 
-15.75

>  <m_primary>  (46) 
energy

$$$$
46:0
     RDKit          3D

 51 54  0  0  0  0  0  0  0  0999 V2000
   -8.8410   23.3570  -32.2790 C   0  0  0  0  0  0  0  0  0  0  0  0
   -7.5450   22.8880  -31.6900 C   0  0  0  0  0  0  0  0  0  0  0  0
   -6.6110   23.5710  -31.0410 N   0  0  0  0  0  0  0  0  0  0  0  0
   -5.5990   22.8470  -30.6650 N   0  0  0  0  0  0  0  0  0  0  0  0
   -4.4140   23.1300  -29.9430 C   0  0  0  0  0  0  0  0  0  0  0  0
   -4.4430   23.6690  -28.6540 C   0  0  0  0  0  0  0  0  0  0  0  0
   -3.2750   23.9180  -27.9400 C   0  0  0  0  0  0  0  0  0  0  0  0
   -2.0340   23.6500  -28.4600 C   0  0  0  0  0  0  0  0  0  0  0  0
   -0.5300   23.8460  -27.6340 S   0  0  0  0  0  0  0  0  0  0  0  0
   -0.0390   22.5240  -27.0490 O   0  0  0  0  0  0  0  0  0  0  0  0
    0.5760   24.2140  -28.6360 O   0  0  0  0  0  0  0  0  0  0  0  0
   -0.4620   25.0060  -26.4120 N   0  0  0  0  0  0  0  0  0  0  0  0
   -1.2530   26.1700  -26.5610 C   0  0  0  0  0  0  0  0  0  0  0  0
   -2.0210   26.4040  -25.2640 C   0  0  0  0  0  0  0  0  0  0  0  0
   -1.0520   26.6360  -24.2180 N   0  0  0  0  0  0  0  0  0  0  0  0
   -0.3730   27.8910  -24.3670 C   0  0  0  0  0  0  0  0  0  0  0  0
   -0.0940   25.5850  -24.0990 C   0  0  0  0  0  0  0  0  0  0  0  0
   -0.3410   24.4670  -25.0910 C   0  0  0  0  0  0  0  0  0  0  0  0
   -2.0070   23.1180  -29.7420 C   0  0  0  0  0  0  0  0  0  0  0  0
   -3.1550   22.8650  -30.4640 C   0  0  0  0  0  0  0  0  0  0  0  0
   -5.8860   21.5790  -31.1030 C   0  0  0  0  0  0  0  0  0  0  0  0
   -7.1030   21.5800  -31.7500 C   0  0  0  0  0  0  0  0  0  0  0  0
   -7.8500   20.5120  -32.3650 C   0  0  0  0  0  0  0  0  0  0  0  0
   -9.1210   20.5160  -32.1960 O   0  0  0  0  0  0  0  0  0  0  0  0
   -7.3280   19.4600  -33.1410 N   0  0  0  0  0  0  0  0  0  0  0  0
   -6.8230   18.3870  -32.6290 C   0  0  0  0  0  0  0  0  0  0  0  0
   -6.3100   17.3540  -33.2960 N   0  0  0  0  0  0  0  0  0  0  0  0
   -5.8800   16.4350  -32.4620 N   0  0  0  0  0  0  0  0  0  0  0  0
   -6.1160   16.8740  -31.2430 N   0  0  0  0  0  0  0  0  0  0  0  0
   -6.6930   18.0670  -31.3210 N   0  0  0  0  0  0  0  0  0  0  0  0
   -9.5413   23.6104  -31.4694 H   0  0  0  0  0  0  0  0  0  0  0  0
   -8.6608   24.2469  -32.8999 H   0  0  0  0  0  0  0  0  0  0  0  0
   -9.2721   22.5578  -32.8999 H   0  0  0  0  0  0  0  0  0  0  0  0
   -5.4137   23.9023  -28.1922 H   0  0  0  0  0  0  0  0  0  0  0  0
   -3.3489   24.3426  -26.9279 H   0  0  0  0  0  0  0  0  0  0  0  0
   -0.6053   27.0343  -26.7696 H   0  0  0  0  0  0  0  0  0  0  0  0
   -1.9563   26.0427  -27.3972 H   0  0  0  0  0  0  0  0  0  0  0  0
   -2.6764   27.2811  -25.3693 H   0  0  0  0  0  0  0  0  0  0  0  0
   -2.6476   25.5324  -25.0236 H   0  0  0  0  0  0  0  0  0  0  0  0
   -0.1482   28.3065  -23.3736 H   0  0  0  0  0  0  0  0  0  0  0  0
    0.5649   27.7370  -24.9208 H   0  0  0  0  0  0  0  0  0  0  0  0
   -1.0150   28.5918  -24.9208 H   0  0  0  0  0  0  0  0  0  0  0  0
    0.9095   25.9994  -24.2757 H   0  0  0  0  0  0  0  0  0  0  0  0
   -0.1818   25.1626  -23.0871 H   0  0  0  0  0  0  0  0  0  0  0  0
    0.5013   23.7601  -25.0612 H   0  0  0  0  0  0  0  0  0  0  0  0
   -1.2728   23.9463  -24.8254 H   0  0  0  0  0  0  0  0  0  0  0  0
   -1.0331   22.8895  -30.1996 H   0  0  0  0  0  0  0  0  0  0  0  0
   -3.0707   22.4433  -31.4765 H   0  0  0  0  0  0  0  0  0  0  0  0
   -5.2439   20.6974  -30.9599 H   0  0  0  0  0  0  0  0  0  0  0  0
   -5.8710   16.3410  -30.3900 H   0  0  0  0  0  0  0  0  0  0  0  0
   -6.9720   18.5940  -30.4730 H   0  0  0  0  0  0  0  0  0  0  0  0
  1  2  1  0
  2  3  2  0
  3  4  1  0
  4  5  1  0
  5  6  2  0
  6  7  1  0
  7  8  2  0
  8  9  1  0
  9 10  2  0
  9 11  2  0
  9 12  1  0
 12 13  1  0
 13 14  1  0
 14 15  1  0
 15 16  1  0
 15 17  1  0
 17 18  1  0
  8 19  1  0
 19 20  2  0
  4 21  1  0
 21 22  2  0
 22 23  1  0
 23 24  2  0
 23 25  1  0
 25 26  2  3
 26 27  1  0
 27 28  2  0
 28 29  1  0
 29 30  1  0
 22  2  1  0
 30 26  1  0
 20  5  1  0
 18 12  1  0
  1 31  1  0
  1 32  1  0
  1 33  1  0
  6 34  1  0
  7 35  1  0
 13 36  1  0
 13 37  1  0
 14 38  1  0
 14 39  1  0
 16 40  1  0
 16 41  1  0
 16 42  1  0
 17 43  1  0
 17 44  1  0
 18 45  1  0
 18 46  1  0
 19 47  1  0
 20 48  1  0
 21 49  1  0
 29 50  1  0
 30 51  1  0
M  END
>  <smiles>  (47) 
Cc1nn(-c2ccc(S(=O)(=O)N3CCN(C)CC3)cc2)cc1C(=O)N=c1nn[nH][nH]1

>  <score_type>  (47) 
oracle

>  <origin>  (47) 
adgpu

>  <m_score__min__energy>  (47) 
-9.4299999999999997

>  <m_primary>  (47) 
energy

$$$$
47:0
     RDKit          3D

 59 62  0  0  0  0  0  0  0  0999 V2000
   -3.2530   21.7710  -30.5660 O   0  0  0  0  0  0  0  0  0  0  0  0
   -4.0170   22.3060  -31.4160 C   0  0  0  0  0  0  0  0  0  0  0  0
   -3.9690   21.8910  -32.7920 N   0  0  0  0  0  0  0  0  0  0  0  0
   -3.0490   20.9060  -33.2910 C   0  0  0  0  0  0  0  0  0  0  0  0
   -1.6920   21.2240  -33.4740 C   0  0  0  0  0  0  0  0  0  0  0  0
   -0.8000   20.2770  -33.9950 C   0  0  0  0  0  0  0  0  0  0  0  0
    0.9080   20.6800  -34.1810 S   0  0  0  0  0  0  0  0  0  0  0  0
    1.5280   19.7450  -35.1820 O   0  0  0  0  0  0  0  0  0  0  0  0
    1.6120   20.4880  -32.8660 O   0  0  0  0  0  0  0  0  0  0  0  0
    1.1210   22.3270  -34.7190 N   0  0  0  0  0  0  0  0  0  0  0  0
    2.4720   22.5160  -35.2720 C   0  0  0  0  0  0  0  0  0  0  0  0
    2.7480   24.0130  -35.5130 C   0  0  0  0  0  0  0  0  0  0  0  0
    1.4540   24.8240  -35.7080 C   0  0  0  0  0  0  0  0  0  0  0  0
    0.3950   24.0020  -36.4480 C   0  0  0  0  0  0  0  0  0  0  0  0
    0.0880   22.6740  -35.7190 C   0  0  0  0  0  0  0  0  0  0  0  0
   -1.2720   19.0110  -34.3590 C   0  0  0  0  0  0  0  0  0  0  0  0
   -2.6230   18.6930  -34.2050 C   0  0  0  0  0  0  0  0  0  0  0  0
   -3.5150   19.6330  -33.6720 C   0  0  0  0  0  0  0  0  0  0  0  0
   -4.8910   19.2730  -33.4930 N   0  0  0  0  0  0  0  0  0  0  0  0
   -5.5500   19.5610  -32.2130 C   0  0  0  0  0  0  0  0  0  0  0  0
   -7.0380   19.1990  -32.2610 C   0  0  0  0  0  0  0  0  0  0  0  0
   -7.2460   17.7650  -32.7720 C   0  0  0  0  0  0  0  0  0  0  0  0
   -6.4090   17.4180  -34.0260 C   0  0  0  0  0  0  0  0  0  0  0  0
   -5.6190   18.6090  -34.5790 C   0  0  0  0  0  0  0  0  0  0  0  0
   -4.9440   23.3700  -30.9750 C   0  0  0  0  0  0  0  0  0  0  0  0
   -6.3300   23.1460  -31.0570 C   0  0  0  0  0  0  0  0  0  0  0  0
   -7.2330   24.1280  -30.6400 C   0  0  0  0  0  0  0  0  0  0  0  0
   -6.7640   25.3460  -30.1460 C   0  0  0  0  0  0  0  0  0  0  0  0
   -5.3910   25.5900  -30.0780 C   0  0  0  0  0  0  0  0  0  0  0  0
   -4.4790   24.6150  -30.4990 C   0  0  0  0  0  0  0  0  0  0  0  0
   -3.1200   24.9090  -30.4690 O   0  0  0  0  0  0  0  0  0  0  0  0
   -4.6500   22.3000  -33.4700 H   0  0  0  0  0  0  0  0  0  0  0  0
   -1.3266   22.2262  -33.2056 H   0  0  0  0  0  0  0  0  0  0  0  0
    3.2131   22.1203  -34.5620 H   0  0  0  0  0  0  0  0  0  0  0  0
    2.5440   21.9806  -36.2302 H   0  0  0  0  0  0  0  0  0  0  0  0
    3.2905   24.4164  -34.6453 H   0  0  0  0  0  0  0  0  0  0  0  0
    3.3411   24.1006  -36.4352 H   0  0  0  0  0  0  0  0  0  0  0  0
    1.0599   25.1142  -34.7229 H   0  0  0  0  0  0  0  0  0  0  0  0
    1.6873   25.7154  -36.3088 H   0  0  0  0  0  0  0  0  0  0  0  0
   -0.5304   24.5927  -36.5171 H   0  0  0  0  0  0  0  0  0  0  0  0
    0.7853   23.7614  -37.4479 H   0  0  0  0  0  0  0  0  0  0  0  0
   -0.8813   22.7679  -35.2074 H   0  0  0  0  0  0  0  0  0  0  0  0
    0.0701   21.8739  -36.4737 H   0  0  0  0  0  0  0  0  0  0  0  0
   -0.5763   18.2635  -34.7680 H   0  0  0  0  0  0  0  0  0  0  0  0
   -2.9888   17.6995  -34.5036 H   0  0  0  0  0  0  0  0  0  0  0  0
   -5.0637   18.9748  -31.4194 H   0  0  0  0  0  0  0  0  0  0  0  0
   -5.4604   20.6384  -32.0103 H   0  0  0  0  0  0  0  0  0  0  0  0
   -7.4605   19.2838  -31.2489 H   0  0  0  0  0  0  0  0  0  0  0  0
   -7.5422   19.8909  -32.9517 H   0  0  0  0  0  0  0  0  0  0  0  0
   -6.9699   17.0674  -31.9676 H   0  0  0  0  0  0  0  0  0  0  0  0
   -8.3039   17.6797  -33.0610 H   0  0  0  0  0  0  0  0  0  0  0  0
   -5.6986   16.6209  -33.7615 H   0  0  0  0  0  0  0  0  0  0  0  0
   -7.1136   17.1035  -34.8100 H   0  0  0  0  0  0  0  0  0  0  0  0
   -4.9025   18.2525  -35.3337 H   0  0  0  0  0  0  0  0  0  0  0  0
   -6.3170   19.3249  -35.0375 H   0  0  0  0  0  0  0  0  0  0  0  0
   -6.7062   22.1909  -31.4522 H   0  0  0  0  0  0  0  0  0  0  0  0
   -8.3152   23.9405  -30.7013 H   0  0  0  0  0  0  0  0  0  0  0  0
   -7.4763   26.1140  -29.8101 H   0  0  0  0  0  0  0  0  0  0  0  0
   -5.0243   26.5525  -29.6919 H   0  0  0  0  0  0  0  0  0  0  0  0
  1  2  2  0
  2  3  1  0
  3  4  1  0
  4  5  2  0
  5  6  1  0
  6  7  1  0
  7  8  2  0
  7  9  2  0
  7 10  1  0
 10 11  1  0
 11 12  1  0
 12 13  1  0
 13 14  1  0
 14 15  1  0
  6 16  2  0
 16 17  1  0
 17 18  2  0
 18 19  1  0
 19 20  1  0
 20 21  1  0
 21 22  1  0
 22 23  1  0
 23 24  1  0
  2 25  1  0
 25 26  2  0
 26 27  1  0
 27 28  2  0
 28 29  1  0
 29 30  2  0
 30 31  1  0
 18  4  1  0
 24 19  1  0
 30 25  1  0
 15 10  1  0
  3 32  1  0
  5 33  1  0
 11 34  1  0
 11 35  1  0
 12 36  1  0
 12 37  1  0
 13 38  1  0
 13 39  1  0
 14 40  1  0
 14 41  1  0
 15 42  1  0
 15 43  1  0
 16 44  1  0
 17 45  1  0
 20 46  1  0
 20 47  1  0
 21 48  1  0
 21 49  1  0
 22 50  1  0
 22 51  1  0
 23 52  1  0
 23 53  1  0
 24 54  1  0
 24 55  1  0
 26 56  1  0
 27 57  1  0
 28 58  1  0
 29 59  1  0
M  CHG  1  31  -1
M  END
>  <UniqueID>  (48) 
43

>  <SMILES>  (48) 
O=C(Nc1cc(S(=O)(=O)N2CCCCC2)ccc1N1CCCCC1)c1ccccc1[O-]

>  <Energy>  (48) 
77.18523634351025

>  <Genealogy>  (48) 
O=C(Nc1cc(S(=O)(=O)N2CCCCC2)ccc1N1CCCCC1)c1ccccc1[O-] (protonated)
O=C(Nc1cc(S(=O)(=O)N2CCCCC2)ccc1N1CCCCC1)c1ccccc1[O-] (3D coordinates assigned)
O=C(Nc1cc(S(=O)(=O)N2CCCCC2)ccc1N1CCCCC1)c1ccccc1[O-] (nonaromatic ring conformer: 77.18523634351025 kcal/mol)

>  <smiles>  (48) 
O=C(Nc1cc(S(=O)(=O)N2CCCCC2)ccc1N1CCCCC1)c1ccccc1O

>  <score_type>  (48) 
oracle

>  <origin>  (48) 
adgpu

>  <m_score__min__energy>  (48) 
-12.73

>  <m_primary>  (48) 
energy

$$$$
48:0
     RDKit          3D

 36 37  0  0  0  0  0  0  0  0999 V2000
   -3.0750   23.3800  -28.4270 C   0  0  0  0  0  0  0  0  0  0  0  0
   -2.7430   24.5610  -29.2880 C   0  0  0  0  0  0  0  0  0  0  0  0
   -1.7160   25.2390  -29.0210 O   0  0  0  0  0  0  0  0  0  0  0  0
   -3.5340   24.9180  -30.4290 N   0  0  0  0  0  0  0  0  0  0  0  0
   -4.7680   24.3150  -30.8390 C   0  0  0  0  0  0  0  0  0  0  0  0
   -5.9740   24.8790  -30.4050 C   0  0  0  0  0  0  0  0  0  0  0  0
   -7.1950   24.3010  -30.7620 C   0  0  0  0  0  0  0  0  0  0  0  0
   -7.2200   23.1360  -31.5380 C   0  0  0  0  0  0  0  0  0  0  0  0
   -8.7890   22.3930  -31.9980 S   0  0  0  0  0  0  0  0  0  0  0  0
   -8.6050   20.9400  -30.9040 C   0  0  0  0  0  0  0  0  0  0  0  0
   -8.7820   19.6530  -31.6640 C   0  0  0  0  0  0  0  0  0  0  0  0
   -9.7020   19.5730  -32.5200 O   0  0  0  0  0  0  0  0  0  0  0  0
   -7.8910   18.5410  -31.5040 N   0  0  0  0  0  0  0  0  0  0  0  0
   -6.7330   18.2680  -32.3050 C   0  0  0  0  0  0  0  0  0  0  0  0
   -5.8740   17.2040  -31.9850 C   0  0  0  0  0  0  0  0  0  0  0  0
   -4.7600   16.9320  -32.7840 C   0  0  0  0  0  0  0  0  0  0  0  0
   -4.5070   17.7060  -33.9170 C   0  0  0  0  0  0  0  0  0  0  0  0
   -5.3730   18.7470  -34.2610 C   0  0  0  0  0  0  0  0  0  0  0  0
   -6.4910   19.0280  -33.4670 C   0  0  0  0  0  0  0  0  0  0  0  0
   -7.3400   20.0690  -33.8430 O   0  0  0  0  0  0  0  0  0  0  0  0
   -6.0190   22.5540  -31.9580 C   0  0  0  0  0  0  0  0  0  0  0  0
   -4.7970   23.1330  -31.6010 C   0  0  0  0  0  0  0  0  0  0  0  0
   -2.9950   23.6646  -27.3675 H   0  0  0  0  0  0  0  0  0  0  0  0
   -4.1015   23.0474  -28.6408 H   0  0  0  0  0  0  0  0  0  0  0  0
   -2.3722   22.5612  -28.6408 H   0  0  0  0  0  0  0  0  0  0  0  0
   -5.9600   25.7832  -29.7788 H   0  0  0  0  0  0  0  0  0  0  0  0
   -8.1380   24.7620  -30.4329 H   0  0  0  0  0  0  0  0  0  0  0  0
   -7.6009   20.9551  -30.4551 H   0  0  0  0  0  0  0  0  0  0  0  0
   -9.3815   20.9920  -30.1266 H   0  0  0  0  0  0  0  0  0  0  0  0
   -6.0789   16.5818  -31.1014 H   0  0  0  0  0  0  0  0  0  0  0  0
   -4.0822   16.1071  -32.5194 H   0  0  0  0  0  0  0  0  0  0  0  0
   -3.6249   17.4964  -34.5399 H   0  0  0  0  0  0  0  0  0  0  0  0
   -5.1753   19.3488  -35.1603 H   0  0  0  0  0  0  0  0  0  0  0  0
   -8.3480   19.9710  -33.8500 H   0  0  0  0  0  0  0  0  0  0  0  0
   -6.0359   21.6399  -32.5697 H   0  0  0  0  0  0  0  0  0  0  0  0
   -3.8546   22.6621  -31.9174 H   0  0  0  0  0  0  0  0  0  0  0  0
  1  2  1  0
  2  3  2  0
  2  4  1  0
  4  5  1  0
  5  6  2  0
  6  7  1  0
  7  8  2  0
  8  9  1  0
  9 10  1  0
 10 11  1  0
 11 12  2  0
 11 13  1  0
 13 14  1  0
 14 15  2  0
 15 16  1  0
 16 17  2  0
 17 18  1  0
 18 19  2  0
 19 20  1  0
  8 21  1  0
 21 22  2  0
 22  5  1  0
 19 14  1  0
  1 23  1  0
  1 24  1  0
  1 25  1  0
  6 26  1  0
  7 27  1  0
 10 28  1  0
 10 29  1  0
 15 30  1  0
 16 31  1  0
 17 32  1  0
 18 33  1  0
 20 34  1  0
 21 35  1  0
 22 36  1  0
M  CHG  2   4  -1  13  -1
M  END
>  <UniqueID>  (49) 
44

>  <SMILES>  (49) 
CC(=O)[N-]c1ccc(SCC(=O)[N-]c2ccccc2O)cc1

>  <Energy>  (49) 
40.34420839288746

>  <Genealogy>  (49) 
CC(=O)[N-]c1ccc(SCC(=O)[N-]c2ccccc2O)cc1 (protonated)
CC(=O)[N-]c1ccc(SCC(=O)[N-]c2ccccc2O)cc1 (3D coordinates assigned)
CC(=O)[N-]c1ccc(SCC(=O)[N-]c2ccccc2O)cc1 (optimized conformer: 40.34420839288746 kcal/mol)

>  <smiles>  (49) 
CC(=O)Nc1ccc(SCC(=O)Nc2ccccc2O)cc1

>  <score_type>  (49) 
oracle

>  <origin>  (49) 
adgpu

>  <m_score__min__energy>  (49) 
-10.369999999999999

>  <m_primary>  (49) 
energy

$$$$
