0:0
     RDKit          3D

 56 59  0  0  0  0  0  0  0  0999 V2000
    0.7170   19.7420  -29.5260 N   0  0  0  0  0  0  0  0  0  0  0  0
    1.2540   20.3260  -28.2960 C   0  0  0  0  0  0  0  0  0  0  0  0
    0.5430   21.6130  -27.9660 C   0  0  0  0  0  0  0  0  0  0  0  0
    0.9760   22.4040  -26.8910 C   0  0  0  0  0  0  0  0  0  0  0  0
    0.2890   23.5710  -26.5530 C   0  0  0  0  0  0  0  0  0  0  0  0
   -0.8390   23.9580  -27.2820 C   0  0  0  0  0  0  0  0  0  0  0  0
   -1.2890   23.1780  -28.3620 C   0  0  0  0  0  0  0  0  0  0  0  0
   -2.4970   23.5710  -29.1300 C   0  0  0  0  0  0  0  0  0  0  0  0
   -3.3600   22.5780  -29.6240 C   0  0  0  0  0  0  0  0  0  0  0  0
   -4.5060   22.9140  -30.3650 C   0  0  0  0  0  0  0  0  0  0  0  0
   -5.3950   21.8500  -30.8970 C   0  0  0  0  0  0  0  0  0  0  0  0
   -6.7360   22.1350  -31.2090 C   0  0  0  0  0  0  0  0  0  0  0  0
   -7.5680   21.1450  -31.7360 C   0  0  0  0  0  0  0  0  0  0  0  0
   -7.0730   19.8540  -31.9650 C   0  0  0  0  0  0  0  0  0  0  0  0
   -8.1040   18.6310  -32.7100 S   0  0  0  0  0  0  0  0  0  0  0  0
   -8.7160   17.7760  -31.6340 O   0  0  0  0  0  0  0  0  0  0  0  0
   -9.2190   19.3100  -33.4550 O   0  0  0  0  0  0  0  0  0  0  0  0
   -7.2040   17.6290  -33.8290 N   0  0  0  0  0  0  0  0  0  0  0  0
   -6.6490   16.4450  -33.1350 C   0  0  0  0  0  0  0  0  0  0  0  0
   -5.4820   15.8290  -33.9100 C   0  0  0  0  0  0  0  0  0  0  0  0
   -4.3110   16.8250  -34.0210 C   0  0  0  0  0  0  0  0  0  0  0  0
   -4.7810   18.2910  -34.0410 C   0  0  0  0  0  0  0  0  0  0  0  0
   -6.2110   18.4230  -34.5960 C   0  0  0  0  0  0  0  0  0  0  0  0
   -5.7450   19.5570  -31.6360 C   0  0  0  0  0  0  0  0  0  0  0  0
   -4.9110   20.5470  -31.1070 C   0  0  0  0  0  0  0  0  0  0  0  0
   -4.7910   24.2680  -30.5990 C   0  0  0  0  0  0  0  0  0  0  0  0
   -3.9390   25.2620  -30.1130 C   0  0  0  0  0  0  0  0  0  0  0  0
   -2.7930   24.9230  -29.3910 C   0  0  0  0  0  0  0  0  0  0  0  0
   -1.9430   25.9350  -28.9570 O   0  0  0  0  0  0  0  0  0  0  0  0
   -0.5970   21.9990  -28.6900 C   0  0  0  0  0  0  0  0  0  0  0  0
    1.2260   18.8590  -29.7590 H   0  0  0  0  0  0  0  0  0  0  0  0
    0.8140   20.4220  -30.3150 H   0  0  0  0  0  0  0  0  0  0  0  0
   -0.2940   19.5230  -29.3890 H   0  0  0  0  0  0  0  0  0  0  0  0
    1.1170   19.6147  -27.4682 H   0  0  0  0  0  0  0  0  0  0  0  0
    2.3234   20.5387  -28.4416 H   0  0  0  0  0  0  0  0  0  0  0  0
    1.8613   22.1029  -26.3117 H   0  0  0  0  0  0  0  0  0  0  0  0
    0.6362   24.1877  -25.7108 H   0  0  0  0  0  0  0  0  0  0  0  0
   -1.3776   24.8776  -27.0094 H   0  0  0  0  0  0  0  0  0  0  0  0
   -3.1347   21.5194  -29.4273 H   0  0  0  0  0  0  0  0  0  0  0  0
   -7.1331   23.1462  -31.0365 H   0  0  0  0  0  0  0  0  0  0  0  0
   -8.6164   21.3795  -31.9724 H   0  0  0  0  0  0  0  0  0  0  0  0
   -6.2943   16.7494  -32.1392 H   0  0  0  0  0  0  0  0  0  0  0  0
   -7.4448   15.6897  -33.0566 H   0  0  0  0  0  0  0  0  0  0  0  0
   -5.1381   14.9253  -33.3856 H   0  0  0  0  0  0  0  0  0  0  0  0
   -5.8267   15.5763  -34.9236 H   0  0  0  0  0  0  0  0  0  0  0  0
   -3.6429   16.6809  -33.1591 H   0  0  0  0  0  0  0  0  0  0  0  0
   -3.7945   16.6276  -34.9719 H   0  0  0  0  0  0  0  0  0  0  0  0
   -4.7590   18.6864  -33.0148 H   0  0  0  0  0  0  0  0  0  0  0  0
   -4.1048   18.8590  -34.6969 H   0  0  0  0  0  0  0  0  0  0  0  0
   -6.5052   19.4823  -34.5598 H   0  0  0  0  0  0  0  0  0  0  0  0
   -6.2027   18.0355  -35.6254 H   0  0  0  0  0  0  0  0  0  0  0  0
   -5.3559   18.5404  -31.7943 H   0  0  0  0  0  0  0  0  0  0  0  0
   -3.8685   20.3044  -30.8533 H   0  0  0  0  0  0  0  0  0  0  0  0
   -5.6899   24.5477  -31.1680 H   0  0  0  0  0  0  0  0  0  0  0  0
   -4.1726   26.3204  -30.3005 H   0  0  0  0  0  0  0  0  0  0  0  0
   -0.9518   21.3727  -29.5218 H   0  0  0  0  0  0  0  0  0  0  0  0
  1  2  1  0
  2  3  1  0
  3  4  2  0
  4  5  1  0
  5  6  2  0
  6  7  1  0
  7  8  1  0
  8  9  2  0
  9 10  1  0
 10 11  1  0
 11 12  2  0
 12 13  1  0
 13 14  2  0
 14 15  1  0
 15 16  2  0
 15 17  2  0
 15 18  1  0
 18 19  1  0
 19 20  1  0
 20 21  1  0
 21 22  1  0
 22 23  1  0
 14 24  1  0
 24 25  2  0
 10 26  2  0
 26 27  1  0
 27 28  2  0
 28 29  1  0
  7 30  2  0
 30  3  1  0
 28  8  1  0
 25 11  1  0
 23 18  1  0
  1 31  1  0
  1 32  1  0
  1 33  1  0
  2 34  1  0
  2 35  1  0
  4 36  1  0
  5 37  1  0
  6 38  1  0
  9 39  1  0
 12 40  1  0
 13 41  1  0
 19 42  1  0
 19 43  1  0
 20 44  1  0
 20 45  1  0
 21 46  1  0
 21 47  1  0
 22 48  1  0
 22 49  1  0
 23 50  1  0
 23 51  1  0
 24 52  1  0
 25 53  1  0
 26 54  1  0
 27 55  1  0
 30 56  1  0
M  CHG  2   1   1  29  -1
M  END
>  <UniqueID>  (1) 
1

>  <SMILES>  (1) 
[NH3+]Cc1cccc(-c2cc(-c3ccc(S(=O)(=O)N4CCCCC4)cc3)ccc2[O-])c1

>  <Energy>  (1) 
74.2061127392913

>  <Genealogy>  (1) 
[NH3+]Cc1cccc(-c2cc(-c3ccc(S(=O)(=O)N4CCCCC4)cc3)ccc2[O-])c1 (protonated)
[NH3+]Cc1cccc(-c2cc(-c3ccc(S(=O)(=O)N4CCCCC4)cc3)ccc2[O-])c1 (3D coordinates assigned)
[NH3+]Cc1cccc(-c2cc(-c3ccc(S(=O)(=O)N4CCCCC4)cc3)ccc2[O-])c1 (nonaromatic ring conformer: 74.2061127392913 kcal/mol)

>  <smiles>  (1) 
NCc1cccc(-c2cc(-c3ccc(S(=O)(=O)N4CCCCC4)cc3)ccc2O)c1

>  <score_type>  (1) 
oracle

>  <origin>  (1) 
adgpu

>  <m_score__min__energy>  (1) 
-11.98

>  <m_primary>  (1) 
energy

$$$$
1:0
     RDKit          3D

 61 64  0  0  0  0  0  0  0  0999 V2000
   -0.4720   22.7840  -24.7830 C   0  0  0  0  0  0  0  0  0  0  0  0
   -0.6950   22.3810  -26.2180 C   0  0  0  0  0  0  0  0  0  0  0  0
   -1.2670   21.1260  -26.4760 C   0  0  0  0  0  0  0  0  0  0  0  0
   -1.4590   20.6870  -27.7830 C   0  0  0  0  0  0  0  0  0  0  0  0
   -1.1050   21.4970  -28.8610 C   0  0  0  0  0  0  0  0  0  0  0  0
   -1.2370   20.9540  -30.1850 N   0  0  0  0  0  0  0  0  0  0  0  0
   -2.1620   21.4490  -31.1610 C   0  0  0  0  0  0  0  0  0  0  0  0
   -2.6670   20.6500  -31.9920 O   0  0  0  0  0  0  0  0  0  0  0  0
   -2.5270   22.8340  -31.1670 N   0  0  0  0  0  0  0  0  0  0  0  0
   -3.8090   23.3540  -30.8060 C   0  0  0  0  0  0  0  0  0  0  0  0
   -4.9430   22.5930  -31.1120 C   0  0  0  0  0  0  0  0  0  0  0  0
   -6.2170   23.0290  -30.7290 C   0  0  0  0  0  0  0  0  0  0  0  0
   -7.6410   22.0630  -31.1370 S   0  0  0  0  0  0  0  0  0  0  0  0
   -8.5890   22.0670  -29.9690 O   0  0  0  0  0  0  0  0  0  0  0  0
   -8.3400   22.7010  -32.3070 O   0  0  0  0  0  0  0  0  0  0  0  0
   -7.2480   20.4060  -31.5360 N   0  0  0  0  0  0  0  0  0  0  0  0
   -6.5690   20.2940  -32.8250 C   0  0  0  0  0  0  0  0  0  0  0  0
   -6.8540   18.8900  -33.3390 C   0  0  0  0  0  0  0  0  0  0  0  0
   -8.0740   18.4130  -32.5640 C   0  0  0  0  0  0  0  0  0  0  0  0
   -8.4400   19.5670  -31.6430 C   0  0  0  0  0  0  0  0  0  0  0  0
   -6.3540   24.2420  -30.0370 C   0  0  0  0  0  0  0  0  0  0  0  0
   -5.2220   25.0010  -29.7220 C   0  0  0  0  0  0  0  0  0  0  0  0
   -3.9480   24.5570  -30.0930 C   0  0  0  0  0  0  0  0  0  0  0  0
   -2.8300   25.2990  -29.7270 O   0  0  0  0  0  0  0  0  0  0  0  0
   -0.6090   22.7990  -28.6230 C   0  0  0  0  0  0  0  0  0  0  0  0
   -0.4440   23.7020  -29.6760 O   0  0  0  0  0  0  0  0  0  0  0  0
   -0.3150   23.2130  -27.3040 C   0  0  0  0  0  0  0  0  0  0  0  0
    0.5180   24.7620  -27.0180 S   0  0  0  0  0  0  0  0  0  0  0  0
    1.0470   24.7710  -25.6110 O   0  0  0  0  0  0  0  0  0  0  0  0
    1.6930   24.9100  -27.9470 O   0  0  0  0  0  0  0  0  0  0  0  0
   -0.6110   26.0840  -27.2450 N   0  0  0  0  0  0  0  0  0  0  0  0
   -0.2920   27.2410  -26.3800 C   0  0  0  0  0  0  0  0  0  0  0  0
   -1.1360   27.2720  -25.0910 C   0  0  0  0  0  0  0  0  0  0  0  0
   -1.4690   25.9630  -24.6850 O   0  0  0  0  0  0  0  0  0  0  0  0
   -2.3740   25.3790  -25.6060 C   0  0  0  0  0  0  0  0  0  0  0  0
   -2.0070   25.6420  -27.0860 C   0  0  0  0  0  0  0  0  0  0  0  0
   -0.8958   22.0180  -24.1169 H   0  0  0  0  0  0  0  0  0  0  0  0
    0.6072   22.8792  -24.5923 H   0  0  0  0  0  0  0  0  0  0  0  0
   -0.9645   23.7489  -24.5923 H   0  0  0  0  0  0  0  0  0  0  0  0
   -1.5670   20.4819  -25.6362 H   0  0  0  0  0  0  0  0  0  0  0  0
   -1.8934   19.6932  -27.9666 H   0  0  0  0  0  0  0  0  0  0  0  0
   -4.8323   21.6445  -31.6579 H   0  0  0  0  0  0  0  0  0  0  0  0
   -6.9610   21.0436  -33.5281 H   0  0  0  0  0  0  0  0  0  0  0  0
   -5.4880   20.4702  -32.7234 H   0  0  0  0  0  0  0  0  0  0  0  0
   -7.0681   18.9117  -34.4177 H   0  0  0  0  0  0  0  0  0  0  0  0
   -5.9928   18.2207  -33.1966 H   0  0  0  0  0  0  0  0  0  0  0  0
   -8.9038   18.1898  -33.2507 H   0  0  0  0  0  0  0  0  0  0  0  0
   -7.8685   17.4894  -32.0029 H   0  0  0  0  0  0  0  0  0  0  0  0
   -9.2739   20.1439  -32.0694 H   0  0  0  0  0  0  0  0  0  0  0  0
   -8.7599   19.2023  -30.6558 H   0  0  0  0  0  0  0  0  0  0  0  0
   -7.3527   24.5964  -29.7419 H   0  0  0  0  0  0  0  0  0  0  0  0
   -5.3339   25.9516  -29.1800 H   0  0  0  0  0  0  0  0  0  0  0  0
   -1.2020   23.9880  -30.2820 H   0  0  0  0  0  0  0  0  0  0  0  0
    0.7713   27.1904  -26.1030 H   0  0  0  0  0  0  0  0  0  0  0  0
   -0.5218   28.1539  -26.9490 H   0  0  0  0  0  0  0  0  0  0  0  0
   -0.5594   27.7625  -24.2929 H   0  0  0  0  0  0  0  0  0  0  0  0
   -2.0637   27.8295  -25.2874 H   0  0  0  0  0  0  0  0  0  0  0  0
   -2.3873   24.2919  -25.4388 H   0  0  0  0  0  0  0  0  0  0  0  0
   -3.3566   25.8411  -25.4301 H   0  0  0  0  0  0  0  0  0  0  0  0
   -2.1512   24.7128  -27.6568 H   0  0  0  0  0  0  0  0  0  0  0  0
   -2.6593   26.4463  -27.4570 H   0  0  0  0  0  0  0  0  0  0  0  0
  1  2  1  0
  2  3  2  0
  3  4  1  0
  4  5  2  0
  5  6  1  0
  6  7  1  0
  7  8  2  0
  7  9  1  0
  9 10  1  0
 10 11  2  0
 11 12  1  0
 12 13  1  0
 13 14  2  0
 13 15  2  0
 13 16  1  0
 16 17  1  0
 17 18  1  0
 18 19  1  0
 19 20  1  0
 12 21  2  0
 21 22  1  0
 22 23  2  0
 23 24  1  0
  5 25  1  0
 25 26  1  0
 25 27  2  0
 27 28  1  0
 28 29  2  0
 28 30  2  0
 28 31  1  0
 31 32  1  0
 32 33  1  0
 33 34  1  0
 34 35  1  0
 35 36  1  0
 27  2  1  0
 36 31  1  0
 23 10  1  0
 20 16  1  0
  1 37  1  0
  1 38  1  0
  1 39  1  0
  3 40  1  0
  4 41  1  0
 11 42  1  0
 17 43  1  0
 17 44  1  0
 18 45  1  0
 18 46  1  0
 19 47  1  0
 19 48  1  0
 20 49  1  0
 20 50  1  0
 21 51  1  0
 22 52  1  0
 26 53  1  0
 32 54  1  0
 32 55  1  0
 33 56  1  0
 33 57  1  0
 35 58  1  0
 35 59  1  0
 36 60  1  0
 36 61  1  0
M  CHG  3   6  -1   9  -1  24  -1
M  END
>  <UniqueID>  (2) 
2

>  <SMILES>  (2) 
Cc1ccc([N-]C(=O)[N-]c2cc(S(=O)(=O)N3CCCC3)ccc2[O-])c(O)c1S(=O)(=O)N1CCOCC1

>  <Energy>  (2) 
91.02480016487499

>  <Genealogy>  (2) 
Cc1ccc([N-]C(=O)[N-]c2cc(S(=O)(=O)N3CCCC3)ccc2[O-])c(O)c1S(=O)(=O)N1CCOCC1 (protonated)
Cc1ccc([N-]C(=O)[N-]c2cc(S(=O)(=O)N3CCCC3)ccc2[O-])c(O)c1S(=O)(=O)N1CCOCC1 (3D coordinates assigned)
Cc1ccc([N-]C(=O)[N-]c2cc(S(=O)(=O)N3CCCC3)ccc2[O-])c(O)c1S(=O)(=O)N1CCOCC1 (nonaromatic ring conformer: 91.02480016487499 kcal/mol)

>  <smiles>  (2) 
Cc1ccc(NC(=O)Nc2cc(S(=O)(=O)N3CCCC3)ccc2O)c(O)c1S(=O)(=O)N1CCOCC1

>  <score_type>  (2) 
oracle

>  <origin>  (2) 
adgpu

>  <m_score__min__energy>  (2) 
-14.960000000000001

>  <m_primary>  (2) 
energy

$$$$
2:0
     RDKit          3D

 55 58  0  0  0  0  0  0  0  0999 V2000
   -3.9540   25.2220  -30.5160 O   0  0  0  0  0  0  0  0  0  0  0  0
   -3.6610   23.9990  -30.4380 C   0  0  0  0  0  0  0  0  0  0  0  0
   -4.2390   23.0910  -31.3850 N   0  0  0  0  0  0  0  0  0  0  0  0
   -5.6380   22.7950  -31.5200 C   0  0  0  0  0  0  0  0  0  0  0  0
   -6.6150   23.8050  -31.4620 C   0  0  0  0  0  0  0  0  0  0  0  0
   -7.9650   23.4840  -31.6160 C   0  0  0  0  0  0  0  0  0  0  0  0
   -8.3500   22.1590  -31.8290 C   0  0  0  0  0  0  0  0  0  0  0  0
   -7.3860   21.1470  -31.8970 C   0  0  0  0  0  0  0  0  0  0  0  0
   -7.8670   19.4750  -32.1700 S   0  0  0  0  0  0  0  0  0  0  0  0
   -9.0240   19.4530  -33.1290 O   0  0  0  0  0  0  0  0  0  0  0  0
   -8.2950   18.8540  -30.8670 O   0  0  0  0  0  0  0  0  0  0  0  0
   -6.5310   18.5760  -32.8440 N   0  0  0  0  0  0  0  0  0  0  0  0
   -6.8960   17.1800  -33.0830 C   0  0  0  0  0  0  0  0  0  0  0  0
   -5.9990   16.6880  -34.2060 C   0  0  0  0  0  0  0  0  0  0  0  0
   -5.5560   17.9420  -34.9410 C   0  0  0  0  0  0  0  0  0  0  0  0
   -6.1380   19.1060  -34.1500 C   0  0  0  0  0  0  0  0  0  0  0  0
   -6.0280   21.4730  -31.7670 C   0  0  0  0  0  0  0  0  0  0  0  0
   -2.7080   23.5480  -29.3970 C   0  0  0  0  0  0  0  0  0  0  0  0
   -2.8120   22.2430  -28.8870 C   0  0  0  0  0  0  0  0  0  0  0  0
   -1.9090   21.7800  -27.9190 C   0  0  0  0  0  0  0  0  0  0  0  0
   -2.0330   20.1310  -27.2990 S   0  0  0  0  0  0  0  0  0  0  0  0
   -1.4920   20.0870  -25.8970 O   0  0  0  0  0  0  0  0  0  0  0  0
   -3.4800   19.7300  -27.2500 O   0  0  0  0  0  0  0  0  0  0  0  0
   -1.1590   18.9870  -28.2980 N   0  0  0  0  0  0  0  0  0  0  0  0
   -0.2310   18.1710  -27.4980 C   0  0  0  0  0  0  0  0  0  0  0  0
    1.1960   18.5010  -27.9230 C   0  0  0  0  0  0  0  0  0  0  0  0
    1.0780   19.7120  -28.8180 C   0  0  0  0  0  0  0  0  0  0  0  0
   -0.3540   19.6800  -29.3100 C   0  0  0  0  0  0  0  0  0  0  0  0
   -0.8980   22.6320  -27.4560 C   0  0  0  0  0  0  0  0  0  0  0  0
   -0.8000   23.9370  -27.9430 C   0  0  0  0  0  0  0  0  0  0  0  0
   -1.7030   24.4010  -28.9040 C   0  0  0  0  0  0  0  0  0  0  0  0
   -1.6030   25.7180  -29.3440 O   0  0  0  0  0  0  0  0  0  0  0  0
   -6.3149   24.8500  -31.2950 H   0  0  0  0  0  0  0  0  0  0  0  0
   -8.7266   24.2764  -31.5694 H   0  0  0  0  0  0  0  0  0  0  0  0
   -9.4152   21.9096  -31.9438 H   0  0  0  0  0  0  0  0  0  0  0  0
   -6.7303   16.5826  -32.1744 H   0  0  0  0  0  0  0  0  0  0  0  0
   -7.9586   17.0861  -33.3514 H   0  0  0  0  0  0  0  0  0  0  0  0
   -5.1291   16.1524  -33.7982 H   0  0  0  0  0  0  0  0  0  0  0  0
   -6.5215   15.9847  -34.8711 H   0  0  0  0  0  0  0  0  0  0  0  0
   -4.4581   18.0051  -34.9658 H   0  0  0  0  0  0  0  0  0  0  0  0
   -5.9015   17.9458  -35.9853 H   0  0  0  0  0  0  0  0  0  0  0  0
   -5.3819   19.8953  -34.0263 H   0  0  0  0  0  0  0  0  0  0  0  0
   -7.0000   19.5462  -34.6726 H   0  0  0  0  0  0  0  0  0  0  0  0
   -5.2652   20.6859  -31.8596 H   0  0  0  0  0  0  0  0  0  0  0  0
   -3.6093   21.5781  -29.2504 H   0  0  0  0  0  0  0  0  0  0  0  0
   -0.3621   18.4000  -26.4301 H   0  0  0  0  0  0  0  0  0  0  0  0
   -0.4342   17.1022  -27.6603 H   0  0  0  0  0  0  0  0  0  0  0  0
    1.8159   18.7311  -27.0439 H   0  0  0  0  0  0  0  0  0  0  0  0
    1.6749   17.6559  -28.4392 H   0  0  0  0  0  0  0  0  0  0  0  0
    1.2744   20.6346  -28.2521 H   0  0  0  0  0  0  0  0  0  0  0  0
    1.8049   19.6953  -29.6434 H   0  0  0  0  0  0  0  0  0  0  0  0
   -0.7262   20.7061  -29.4462 H   0  0  0  0  0  0  0  0  0  0  0  0
   -0.4174   19.1577  -30.2760 H   0  0  0  0  0  0  0  0  0  0  0  0
   -0.1786   22.2716  -26.7059 H   0  0  0  0  0  0  0  0  0  0  0  0
   -0.0086   24.6030  -27.5687 H   0  0  0  0  0  0  0  0  0  0  0  0
  1  2  2  0
  2  3  1  0
  3  4  1  0
  4  5  2  0
  5  6  1  0
  6  7  2  0
  7  8  1  0
  8  9  1  0
  9 10  2  0
  9 11  2  0
  9 12  1  0
 12 13  1  0
 13 14  1  0
 14 15  1  0
 15 16  1  0
  8 17  2  0
  2 18  1  0
 18 19  2  0
 19 20  1  0
 20 21  1  0
 21 22  2  0
 21 23  2  0
 21 24  1  0
 24 25  1  0
 25 26  1  0
 26 27  1  0
 27 28  1  0
 20 29  2  0
 29 30  1  0
 30 31  2  0
 31 32  1  0
 17  4  1  0
 31 18  1  0
 16 12  1  0
 28 24  1  0
  5 33  1  0
  6 34  1  0
  7 35  1  0
 13 36  1  0
 13 37  1  0
 14 38  1  0
 14 39  1  0
 15 40  1  0
 15 41  1  0
 16 42  1  0
 16 43  1  0
 17 44  1  0
 19 45  1  0
 25 46  1  0
 25 47  1  0
 26 48  1  0
 26 49  1  0
 27 50  1  0
 27 51  1  0
 28 52  1  0
 28 53  1  0
 29 54  1  0
 30 55  1  0
M  CHG  2   3  -1  32  -1
M  END
>  <UniqueID>  (3) 
3

>  <SMILES>  (3) 
O=C([N-]c1cccc(S(=O)(=O)N2CCCC2)c1)c1cc(S(=O)(=O)N2CCCC2)ccc1[O-]

>  <Energy>  (3) 
66.09835984420934

>  <Genealogy>  (3) 
O=C([N-]c1cccc(S(=O)(=O)N2CCCC2)c1)c1cc(S(=O)(=O)N2CCCC2)ccc1[O-] (protonated)
O=C([N-]c1cccc(S(=O)(=O)N2CCCC2)c1)c1cc(S(=O)(=O)N2CCCC2)ccc1[O-] (3D coordinates assigned)
O=C([N-]c1cccc(S(=O)(=O)N2CCCC2)c1)c1cc(S(=O)(=O)N2CCCC2)ccc1[O-] (nonaromatic ring conformer: 66.09835984420934 kcal/mol)

>  <smiles>  (3) 
O=C(Nc1cccc(S(=O)(=O)N2CCCC2)c1)c1cc(S(=O)(=O)N2CCCC2)ccc1O

>  <score_type>  (3) 
oracle

>  <origin>  (3) 
adgpu

>  <m_score__min__energy>  (3) 
-15.19

>  <m_primary>  (3) 
energy

$$$$
3:0
     RDKit          3D

 56 59  0  0  0  0  0  0  0  0999 V2000
   -7.8070   23.4270  -32.3120 C   0  0  0  0  0  0  0  0  0  0  0  0
   -6.4250   23.3340  -31.7190 C   0  0  0  0  0  0  0  0  0  0  0  0
   -5.7740   24.5170  -31.3330 C   0  0  0  0  0  0  0  0  0  0  0  0
   -4.4860   24.4820  -30.7950 C   0  0  0  0  0  0  0  0  0  0  0  0
   -3.8720   25.6760  -30.4270 O   0  0  0  0  0  0  0  0  0  0  0  0
   -3.8220   23.2560  -30.6320 C   0  0  0  0  0  0  0  0  0  0  0  0
   -2.4220   23.1980  -30.0790 C   0  0  0  0  0  0  0  0  0  0  0  0
   -1.9000   21.5050  -29.8720 S   0  0  0  0  0  0  0  0  0  0  0  0
   -0.7850   21.4280  -28.8690 O   0  0  0  0  0  0  0  0  0  0  0  0
   -3.0520   20.6760  -29.3800 O   0  0  0  0  0  0  0  0  0  0  0  0
   -1.3340   20.8880  -31.4210 C   0  0  0  0  0  0  0  0  0  0  0  0
   -1.7800   21.4680  -32.6120 C   0  0  0  0  0  0  0  0  0  0  0  0
   -1.3510   20.9630  -33.8400 C   0  0  0  0  0  0  0  0  0  0  0  0
   -0.4660   19.8680  -33.8720 C   0  0  0  0  0  0  0  0  0  0  0  0
   -0.0010   19.3070  -35.1200 N   0  0  0  0  0  0  0  0  0  0  0  0
   -0.2640   17.8890  -35.4070 C   0  0  0  0  0  0  0  0  0  0  0  0
    0.7690   17.3440  -36.3990 C   0  0  0  0  0  0  0  0  0  0  0  0
    0.8550   18.1780  -37.5370 O   0  0  0  0  0  0  0  0  0  0  0  0
    1.3800   19.4350  -37.1600 C   0  0  0  0  0  0  0  0  0  0  0  0
    0.4130   20.1750  -36.2300 C   0  0  0  0  0  0  0  0  0  0  0  0
   -0.0560   19.3200  -32.6920 N   0  0  0  0  0  0  0  0  0  0  0  0
   -0.4620   19.7960  -31.4850 C   0  0  0  0  0  0  0  0  0  0  0  0
   -4.4570   22.0720  -31.0400 C   0  0  0  0  0  0  0  0  0  0  0  0
   -5.7510   22.0960  -31.5860 C   0  0  0  0  0  0  0  0  0  0  0  0
   -6.4960   20.5680  -32.0850 S   0  0  0  0  0  0  0  0  0  0  0  0
   -7.6190   20.2110  -31.1510 O   0  0  0  0  0  0  0  0  0  0  0  0
   -7.0380   20.7190  -33.4800 O   0  0  0  0  0  0  0  0  0  0  0  0
   -5.3050   19.3090  -32.0380 N   0  0  0  0  0  0  0  0  0  0  0  0
   -4.8530   18.5570  -33.1720 C   0  0  0  0  0  0  0  0  0  0  0  0
   -3.5740   17.9920  -33.1410 C   0  0  0  0  0  0  0  0  0  0  0  0
   -3.1080   17.2480  -34.2270 C   0  0  0  0  0  0  0  0  0  0  0  0
   -3.9350   17.0730  -35.3390 C   0  0  0  0  0  0  0  0  0  0  0  0
   -5.1760   17.6290  -35.3580 N   0  0  0  0  0  0  0  0  0  0  0  0
   -5.6500   18.3590  -34.3120 C   0  0  0  0  0  0  0  0  0  0  0  0
   -8.5506   23.4770  -31.5029 H   0  0  0  0  0  0  0  0  0  0  0  0
   -7.8794   24.3320  -32.9330 H   0  0  0  0  0  0  0  0  0  0  0  0
   -8.0000   22.5398  -32.9330 H   0  0  0  0  0  0  0  0  0  0  0  0
   -6.2852   25.4832  -31.4560 H   0  0  0  0  0  0  0  0  0  0  0  0
   -1.7371   23.7053  -30.7744 H   0  0  0  0  0  0  0  0  0  0  0  0
   -2.4064   23.6969  -29.0988 H   0  0  0  0  0  0  0  0  0  0  0  0
   -2.4703   22.3239  -32.5812 H   0  0  0  0  0  0  0  0  0  0  0  0
   -1.7022   21.4177  -34.7780 H   0  0  0  0  0  0  0  0  0  0  0  0
   -0.2069   17.3132  -34.4715 H   0  0  0  0  0  0  0  0  0  0  0  0
   -1.2670   17.7945  -35.8486 H   0  0  0  0  0  0  0  0  0  0  0  0
    1.7526   17.2993  -35.9085 H   0  0  0  0  0  0  0  0  0  0  0  0
    0.4571   16.3389  -36.7190 H   0  0  0  0  0  0  0  0  0  0  0  0
    2.3366   19.2839  -36.6384 H   0  0  0  0  0  0  0  0  0  0  0  0
    1.5279   20.0402  -38.0666 H   0  0  0  0  0  0  0  0  0  0  0  0
    0.9126   21.0672  -35.8246 H   0  0  0  0  0  0  0  0  0  0  0  0
   -0.4787   20.4668  -36.8043 H   0  0  0  0  0  0  0  0  0  0  0  0
   -0.1048   19.3224  -30.5586 H   0  0  0  0  0  0  0  0  0  0  0  0
   -3.9331   21.1110  -30.9304 H   0  0  0  0  0  0  0  0  0  0  0  0
   -2.9331   18.1341  -32.2584 H   0  0  0  0  0  0  0  0  0  0  0  0
   -2.1014   16.8049  -34.2070 H   0  0  0  0  0  0  0  0  0  0  0  0
   -3.5825   16.4854  -36.1995 H   0  0  0  0  0  0  0  0  0  0  0  0
   -6.6589   18.7948  -34.3591 H   0  0  0  0  0  0  0  0  0  0  0  0
  1  2  1  0
  2  3  2  0
  3  4  1  0
  4  5  1  0
  4  6  2  0
  6  7  1  0
  7  8  1  0
  8  9  2  0
  8 10  2  0
  8 11  1  0
 11 12  2  0
 12 13  1  0
 13 14  2  0
 14 15  1  0
 15 16  1  0
 16 17  1  0
 17 18  1  0
 18 19  1  0
 19 20  1  0
 14 21  1  0
 21 22  2  0
  6 23  1  0
 23 24  2  0
 24 25  1  0
 25 26  2  0
 25 27  2  0
 25 28  1  0
 28 29  1  0
 29 30  2  0
 30 31  1  0
 31 32  2  0
 32 33  1  0
 33 34  2  0
 24  2  1  0
 34 29  1  0
 22 11  1  0
 20 15  1  0
  1 35  1  0
  1 36  1  0
  1 37  1  0
  3 38  1  0
  7 39  1  0
  7 40  1  0
 12 41  1  0
 13 42  1  0
 16 43  1  0
 16 44  1  0
 17 45  1  0
 17 46  1  0
 19 47  1  0
 19 48  1  0
 20 49  1  0
 20 50  1  0
 22 51  1  0
 23 52  1  0
 30 53  1  0
 31 54  1  0
 32 55  1  0
 34 56  1  0
M  CHG  2   5  -1  28  -1
M  END
>  <UniqueID>  (4) 
4

>  <SMILES>  (4) 
Cc1cc([O-])c(CS(=O)(=O)c2ccc(N3CCOCC3)nc2)cc1S(=O)(=O)[N-]c1cccnc1

>  <Energy>  (4) 
68.0591622088151

>  <Genealogy>  (4) 
Cc1cc([O-])c(CS(=O)(=O)c2ccc(N3CCOCC3)nc2)cc1S(=O)(=O)[N-]c1cccnc1 (protonated)
Cc1cc([O-])c(CS(=O)(=O)c2ccc(N3CCOCC3)nc2)cc1S(=O)(=O)[N-]c1cccnc1 (3D coordinates assigned)
Cc1cc([O-])c(CS(=O)(=O)c2ccc(N3CCOCC3)nc2)cc1S(=O)(=O)[N-]c1cccnc1 (nonaromatic ring conformer: 68.0591622088151 kcal/mol)

>  <smiles>  (4) 
Cc1cc(O)c(CS(=O)(=O)c2ccc(N3CCOCC3)nc2)cc1S(=O)(=O)Nc1cccnc1

>  <score_type>  (4) 
oracle

>  <origin>  (4) 
adgpu

>  <m_score__min__energy>  (4) 
-12.92

>  <m_primary>  (4) 
energy

$$$$
4:0
     RDKit          3D

 53 55  0  0  0  0  0  0  0  0999 V2000
   -2.3760   25.4740  -26.3510 C   0  0  0  0  0  0  0  0  0  0  0  0
   -1.9720   25.6610  -27.7040 O   0  0  0  0  0  0  0  0  0  0  0  0
   -1.7300   24.6180  -28.6120 C   0  0  0  0  0  0  0  0  0  0  0  0
   -0.6250   23.7540  -28.4810 C   0  0  0  0  0  0  0  0  0  0  0  0
   -0.4310   22.7120  -29.3910 C   0  0  0  0  0  0  0  0  0  0  0  0
   -1.3390   22.5110  -30.4350 C   0  0  0  0  0  0  0  0  0  0  0  0
   -1.1480   21.1280  -31.5100 S   0  0  0  0  0  0  0  0  0  0  0  0
   -1.2940   21.5910  -32.9340 O   0  0  0  0  0  0  0  0  0  0  0  0
    0.2300   20.5540  -31.3360 O   0  0  0  0  0  0  0  0  0  0  0  0
   -2.3230   19.8870  -31.2020 N   0  0  0  0  0  0  0  0  0  0  0  0
   -3.1570   19.2960  -32.2030 C   0  0  0  0  0  0  0  0  0  0  0  0
   -4.5340   19.1340  -31.9870 C   0  0  0  0  0  0  0  0  0  0  0  0
   -5.3500   18.5590  -32.9700 C   0  0  0  0  0  0  0  0  0  0  0  0
   -7.0760   18.3290  -32.6730 S   0  0  0  0  0  0  0  0  0  0  0  0
   -7.5970   17.2630  -33.5950 O   0  0  0  0  0  0  0  0  0  0  0  0
   -7.2760   17.8580  -31.2590 O   0  0  0  0  0  0  0  0  0  0  0  0
   -7.9820   19.8020  -32.9340 N   0  0  0  0  0  0  0  0  0  0  0  0
   -7.0940   20.9840  -33.0140 C   0  0  0  0  0  0  0  0  0  0  0  0
   -7.1520   21.8340  -31.7330 C   0  0  0  0  0  0  0  0  0  0  0  0
   -8.4580   22.3060  -31.4340 O   0  0  0  0  0  0  0  0  0  0  0  0
   -9.4960   21.4060  -31.8050 C   0  0  0  0  0  0  0  0  0  0  0  0
   -9.0440   19.9420  -31.9200 C   0  0  0  0  0  0  0  0  0  0  0  0
   -4.7830   18.1650  -34.1900 C   0  0  0  0  0  0  0  0  0  0  0  0
   -3.4210   18.3600  -34.4270 C   0  0  0  0  0  0  0  0  0  0  0  0
   -2.6050   18.9280  -33.4440 C   0  0  0  0  0  0  0  0  0  0  0  0
   -1.2480   19.1060  -33.7170 O   0  0  0  0  0  0  0  0  0  0  0  0
   -2.4350   23.3710  -30.5760 C   0  0  0  0  0  0  0  0  0  0  0  0
   -2.6240   24.4390  -29.6810 C   0  0  0  0  0  0  0  0  0  0  0  0
   -3.7660   25.3000  -29.7820 N   0  0  0  0  0  0  0  0  0  0  0  0
   -5.0180   24.9910  -30.4080 C   0  0  0  0  0  0  0  0  0  0  0  0
   -6.3330   25.2590  -29.7390 C   0  0  0  0  0  0  0  0  0  0  0  0
   -5.0120   24.4430  -31.5420 O   0  0  0  0  0  0  0  0  0  0  0  0
   -1.5860   25.8397  -25.6786 H   0  0  0  0  0  0  0  0  0  0  0  0
   -3.3043   26.0340  -26.1648 H   0  0  0  0  0  0  0  0  0  0  0  0
   -2.5497   24.4039  -26.1648 H   0  0  0  0  0  0  0  0  0  0  0  0
    0.0892   23.9007  -27.6574 H   0  0  0  0  0  0  0  0  0  0  0  0
    0.4392   22.0473  -29.2858 H   0  0  0  0  0  0  0  0  0  0  0  0
   -4.9776   19.4621  -31.0354 H   0  0  0  0  0  0  0  0  0  0  0  0
   -6.0598   20.6419  -33.1671 H   0  0  0  0  0  0  0  0  0  0  0  0
   -7.4338   21.6090  -33.8530 H   0  0  0  0  0  0  0  0  0  0  0  0
   -6.8003   21.2208  -30.8902 H   0  0  0  0  0  0  0  0  0  0  0  0
   -6.5149   22.7157  -31.8963 H   0  0  0  0  0  0  0  0  0  0  0  0
  -10.2910   21.4638  -31.0469 H   0  0  0  0  0  0  0  0  0  0  0  0
   -9.8396   21.7118  -32.8042 H   0  0  0  0  0  0  0  0  0  0  0  0
   -8.6597   19.6052  -30.9459 H   0  0  0  0  0  0  0  0  0  0  0  0
   -9.9054   19.3289  -32.2233 H   0  0  0  0  0  0  0  0  0  0  0  0
   -5.4131   17.7008  -34.9630 H   0  0  0  0  0  0  0  0  0  0  0  0
   -2.9870   18.0648  -35.3937 H   0  0  0  0  0  0  0  0  0  0  0  0
   -0.6160   19.5490  -33.0610 H   0  0  0  0  0  0  0  0  0  0  0  0
   -3.1536   23.2099  -31.3931 H   0  0  0  0  0  0  0  0  0  0  0  0
   -6.2012   25.2321  -28.6473 H   0  0  0  0  0  0  0  0  0  0  0  0
   -6.7019   26.2508  -30.0395 H   0  0  0  0  0  0  0  0  0  0  0  0
   -7.0606   24.4907  -30.0395 H   0  0  0  0  0  0  0  0  0  0  0  0
  1  2  1  0
  2  3  1  0
  3  4  2  0
  4  5  1  0
  5  6  2  0
  6  7  1  0
  7  8  2  0
  7  9  2  0
  7 10  1  0
 10 11  1  0
 11 12  2  0
 12 13  1  0
 13 14  1  0
 14 15  2  0
 14 16  2  0
 14 17  1  0
 17 18  1  0
 18 19  1  0
 19 20  1  0
 20 21  1  0
 21 22  1  0
 13 23  2  0
 23 24  1  0
 24 25  2  0
 25 26  1  0
  6 27  1  0
 27 28  2  0
 28 29  1  0
 29 30  1  0
 30 31  1  0
 30 32  2  0
 28  3  1  0
 25 11  1  0
 22 17  1  0
  1 33  1  0
  1 34  1  0
  1 35  1  0
  4 36  1  0
  5 37  1  0
 12 38  1  0
 18 39  1  0
 18 40  1  0
 19 41  1  0
 19 42  1  0
 21 43  1  0
 21 44  1  0
 22 45  1  0
 22 46  1  0
 23 47  1  0
 24 48  1  0
 26 49  1  0
 27 50  1  0
 31 51  1  0
 31 52  1  0
 31 53  1  0
M  CHG  2  10  -1  29  -1
M  END
>  <UniqueID>  (5) 
5

>  <SMILES>  (5) 
COc1ccc(S(=O)(=O)[N-]c2cc(S(=O)(=O)N3CCOCC3)ccc2O)cc1[N-]C(C)=O

>  <Energy>  (5) 
75.47252986961395

>  <Genealogy>  (5) 
COc1ccc(S(=O)(=O)[N-]c2cc(S(=O)(=O)N3CCOCC3)ccc2O)cc1[N-]C(C)=O (protonated)
COc1ccc(S(=O)(=O)[N-]c2cc(S(=O)(=O)N3CCOCC3)ccc2O)cc1[N-]C(C)=O (3D coordinates assigned)
COc1ccc(S(=O)(=O)[N-]c2cc(S(=O)(=O)N3CCOCC3)ccc2O)cc1[N-]C(C)=O (nonaromatic ring conformer: 75.47252986961395 kcal/mol)

>  <smiles>  (5) 
COc1ccc(S(=O)(=O)Nc2cc(S(=O)(=O)N3CCOCC3)ccc2O)cc1NC(C)=O

>  <score_type>  (5) 
oracle

>  <origin>  (5) 
adgpu

>  <m_score__min__energy>  (5) 
-11

>  <m_primary>  (5) 
energy

$$$$
5:0
     RDKit          3D

 44 46  0  0  0  0  0  0  0  0999 V2000
   -2.5810   20.2720  -27.3960 C   0  0  0  0  0  0  0  0  0  0  0  0
   -2.3370   21.6940  -27.8100 C   0  0  0  0  0  0  0  0  0  0  0  0
   -1.3270   22.4420  -27.1950 C   0  0  0  0  0  0  0  0  0  0  0  0
   -1.0800   23.7550  -27.5980 C   0  0  0  0  0  0  0  0  0  0  0  0
   -1.8270   24.3370  -28.6290 C   0  0  0  0  0  0  0  0  0  0  0  0
   -1.5870   25.6780  -28.9320 O   0  0  0  0  0  0  0  0  0  0  0  0
   -2.8100   23.5700  -29.3010 C   0  0  0  0  0  0  0  0  0  0  0  0
   -3.5550   24.0910  -30.4660 C   0  0  0  0  0  0  0  0  0  0  0  0
   -3.8150   25.3230  -30.5380 O   0  0  0  0  0  0  0  0  0  0  0  0
   -4.0780   23.1840  -31.4460 N   0  0  0  0  0  0  0  0  0  0  0  0
   -5.4330   22.7230  -31.5460 C   0  0  0  0  0  0  0  0  0  0  0  0
   -6.5250   23.6090  -31.5380 C   0  0  0  0  0  0  0  0  0  0  0  0
   -7.8270   23.1190  -31.6690 C   0  0  0  0  0  0  0  0  0  0  0  0
   -8.0510   21.7500  -31.8280 C   0  0  0  0  0  0  0  0  0  0  0  0
   -6.9670   20.8610  -31.8700 C   0  0  0  0  0  0  0  0  0  0  0  0
   -7.2440   19.1350  -32.1130 S   0  0  0  0  0  0  0  0  0  0  0  0
   -6.4140   18.3590  -31.1290 O   0  0  0  0  0  0  0  0  0  0  0  0
   -8.6910   18.8230  -31.8440 O   0  0  0  0  0  0  0  0  0  0  0  0
   -6.8380   18.6270  -33.7400 N   0  0  0  0  0  0  0  0  0  0  0  0
   -5.6460   19.3260  -34.2310 C   0  0  0  0  0  0  0  0  0  0  0  0
   -4.4430   18.4160  -34.0350 C   0  0  0  0  0  0  0  0  0  0  0  0
   -5.0080   17.0360  -33.7650 C   0  0  0  0  0  0  0  0  0  0  0  0
   -6.5220   17.1950  -33.7860 C   0  0  0  0  0  0  0  0  0  0  0  0
   -5.6630   21.3530  -31.7270 C   0  0  0  0  0  0  0  0  0  0  0  0
   -3.0630   22.2550  -28.8700 C   0  0  0  0  0  0  0  0  0  0  0  0
   -2.5922   20.2066  -26.2980 H   0  0  0  0  0  0  0  0  0  0  0  0
   -3.5500   19.9356  -27.7933 H   0  0  0  0  0  0  0  0  0  0  0  0
   -1.7796   19.6318  -27.7933 H   0  0  0  0  0  0  0  0  0  0  0  0
   -0.7254   21.9933  -26.3908 H   0  0  0  0  0  0  0  0  0  0  0  0
   -0.2909   24.3382  -27.1008 H   0  0  0  0  0  0  0  0  0  0  0  0
   -1.6110   26.0480  -29.8730 H   0  0  0  0  0  0  0  0  0  0  0  0
   -6.3539   24.6901  -31.4284 H   0  0  0  0  0  0  0  0  0  0  0  0
   -8.6789   23.8145  -31.6468 H   0  0  0  0  0  0  0  0  0  0  0  0
   -9.0785   21.3684  -31.9204 H   0  0  0  0  0  0  0  0  0  0  0  0
   -5.7655   19.5594  -35.2993 H   0  0  0  0  0  0  0  0  0  0  0  0
   -5.5037   20.2662  -33.6779 H   0  0  0  0  0  0  0  0  0  0  0  0
   -3.8201   18.4041  -34.9416 H   0  0  0  0  0  0  0  0  0  0  0  0
   -3.8052   18.7610  -33.2078 H   0  0  0  0  0  0  0  0  0  0  0  0
   -4.6862   16.3311  -34.5457 H   0  0  0  0  0  0  0  0  0  0  0  0
   -4.6567   16.6364  -32.8022 H   0  0  0  0  0  0  0  0  0  0  0  0
   -6.9291   16.7542  -34.7079 H   0  0  0  0  0  0  0  0  0  0  0  0
   -6.9679   16.6816  -32.9214 H   0  0  0  0  0  0  0  0  0  0  0  0
   -4.8117   20.6570  -31.7571 H   0  0  0  0  0  0  0  0  0  0  0  0
   -3.8403   21.6594  -29.3710 H   0  0  0  0  0  0  0  0  0  0  0  0
  1  2  1  0
  2  3  2  0
  3  4  1  0
  4  5  2  0
  5  6  1  0
  5  7  1  0
  7  8  1  0
  8  9  2  0
  8 10  1  0
 10 11  1  0
 11 12  2  0
 12 13  1  0
 13 14  2  0
 14 15  1  0
 15 16  1  0
 16 17  2  0
 16 18  2  0
 16 19  1  0
 19 20  1  0
 20 21  1  0
 21 22  1  0
 22 23  1  0
 15 24  2  0
  7 25  2  0
 25  2  1  0
 24 11  1  0
 23 19  1  0
  1 26  1  0
  1 27  1  0
  1 28  1  0
  3 29  1  0
  4 30  1  0
  6 31  1  0
 12 32  1  0
 13 33  1  0
 14 34  1  0
 20 35  1  0
 20 36  1  0
 21 37  1  0
 21 38  1  0
 22 39  1  0
 22 40  1  0
 23 41  1  0
 23 42  1  0
 24 43  1  0
 25 44  1  0
M  CHG  1  10  -1
M  END
>  <UniqueID>  (6) 
6

>  <SMILES>  (6) 
Cc1ccc(O)c(C(=O)[N-]c2cccc(S(=O)(=O)N3CCCC3)c2)c1

>  <Energy>  (6) 
53.427635623978475

>  <Genealogy>  (6) 
Cc1ccc(O)c(C(=O)[N-]c2cccc(S(=O)(=O)N3CCCC3)c2)c1 (protonated)
Cc1ccc(O)c(C(=O)[N-]c2cccc(S(=O)(=O)N3CCCC3)c2)c1 (3D coordinates assigned)
Cc1ccc(O)c(C(=O)[N-]c2cccc(S(=O)(=O)N3CCCC3)c2)c1 (nonaromatic ring conformer: 53.427635623978475 kcal/mol)

>  <smiles>  (6) 
Cc1ccc(O)c(C(=O)Nc2cccc(S(=O)(=O)N3CCCC3)c2)c1

>  <score_type>  (6) 
oracle

>  <origin>  (6) 
adgpu

>  <m_score__min__energy>  (6) 
-11.369999999999999

>  <m_primary>  (6) 
energy

$$$$
6:0
     RDKit          3D

 41 42  0  0  0  0  0  0  0  0999 V2000
   -7.2340   25.1060  -29.7100 C   0  0  0  0  0  0  0  0  0  0  0  0
   -6.0730   25.7650  -29.7140 C   0  0  0  0  0  0  0  0  0  0  0  0
   -5.1420   25.6820  -30.8890 C   0  0  0  0  0  0  0  0  0  0  0  0
   -3.8140   25.2520  -30.4610 N   0  0  0  0  0  0  0  0  0  0  0  0
   -3.5480   24.0360  -29.7510 C   0  0  0  0  0  0  0  0  0  0  0  0
   -3.8920   23.9400  -28.5440 O   0  0  0  0  0  0  0  0  0  0  0  0
   -2.8700   22.8980  -30.3980 C   0  0  0  0  0  0  0  0  0  0  0  0
   -1.5080   22.6900  -30.1350 C   0  0  0  0  0  0  0  0  0  0  0  0
   -0.8310   21.6200  -30.7210 C   0  0  0  0  0  0  0  0  0  0  0  0
   -1.5050   20.7560  -31.5830 C   0  0  0  0  0  0  0  0  0  0  0  0
   -2.8580   20.9580  -31.8630 C   0  0  0  0  0  0  0  0  0  0  0  0
   -3.5580   22.0260  -31.2750 C   0  0  0  0  0  0  0  0  0  0  0  0
   -5.2690   22.2750  -31.6640 S   0  0  0  0  0  0  0  0  0  0  0  0
   -5.3900   23.3670  -32.6890 O   0  0  0  0  0  0  0  0  0  0  0  0
   -6.0200   22.6880  -30.4280 O   0  0  0  0  0  0  0  0  0  0  0  0
   -6.0090   20.8030  -32.2920 C   0  0  0  0  0  0  0  0  0  0  0  0
   -5.3970   20.0910  -33.3320 C   0  0  0  0  0  0  0  0  0  0  0  0
   -5.9720   18.9060  -33.8150 C   0  0  0  0  0  0  0  0  0  0  0  0
   -5.2860   18.1200  -34.8940 C   0  0  0  0  0  0  0  0  0  0  0  0
   -7.1520   18.4210  -33.2290 C   0  0  0  0  0  0  0  0  0  0  0  0
   -7.7770   19.1340  -32.1960 C   0  0  0  0  0  0  0  0  0  0  0  0
   -9.0160   18.5920  -31.5470 C   0  0  0  0  0  0  0  0  0  0  0  0
   -7.1930   20.3180  -31.7210 C   0  0  0  0  0  0  0  0  0  0  0  0
   -7.9043   25.1779  -28.8408 H   0  0  0  0  0  0  0  0  0  0  0  0
   -7.5204   24.4911  -30.5759 H   0  0  0  0  0  0  0  0  0  0  0  0
   -5.7944   26.3776  -28.8439 H   0  0  0  0  0  0  0  0  0  0  0  0
   -5.5400   24.9583  -31.6155 H   0  0  0  0  0  0  0  0  0  0  0  0
   -5.0618   26.6776  -31.3498 H   0  0  0  0  0  0  0  0  0  0  0  0
   -0.9703   23.3747  -29.4626 H   0  0  0  0  0  0  0  0  0  0  0  0
    0.2349   21.4580  -30.5028 H   0  0  0  0  0  0  0  0  0  0  0  0
   -0.9695   19.9129  -32.0438 H   0  0  0  0  0  0  0  0  0  0  0  0
   -3.3806   20.2756  -32.5495 H   0  0  0  0  0  0  0  0  0  0  0  0
   -4.4603   20.4633  -33.7723 H   0  0  0  0  0  0  0  0  0  0  0  0
   -4.6282   17.3663  -34.4367 H   0  0  0  0  0  0  0  0  0  0  0  0
   -6.0402   17.6183  -35.5180 H   0  0  0  0  0  0  0  0  0  0  0  0
   -4.6869   18.7994  -35.5180 H   0  0  0  0  0  0  0  0  0  0  0  0
   -7.5891   17.4755  -33.5825 H   0  0  0  0  0  0  0  0  0  0  0  0
   -8.9078   18.6393  -30.4534 H   0  0  0  0  0  0  0  0  0  0  0  0
   -9.8844   19.1925  -31.8559 H   0  0  0  0  0  0  0  0  0  0  0  0
   -9.1644   17.5467  -31.8559 H   0  0  0  0  0  0  0  0  0  0  0  0
   -7.6675   20.8687  -30.8954 H   0  0  0  0  0  0  0  0  0  0  0  0
  1  2  2  0
  2  3  1  0
  3  4  1  0
  4  5  1  0
  5  6  2  0
  5  7  1  0
  7  8  2  0
  8  9  1  0
  9 10  2  0
 10 11  1  0
 11 12  2  0
 12 13  1  0
 13 14  2  0
 13 15  2  0
 13 16  1  0
 16 17  2  0
 17 18  1  0
 18 19  1  0
 18 20  2  0
 20 21  1  0
 21 22  1  0
 21 23  2  0
 12  7  1  0
 23 16  1  0
  1 24  1  0
  1 25  1  0
  2 26  1  0
  3 27  1  0
  3 28  1  0
  8 29  1  0
  9 30  1  0
 10 31  1  0
 11 32  1  0
 17 33  1  0
 19 34  1  0
 19 35  1  0
 19 36  1  0
 20 37  1  0
 22 38  1  0
 22 39  1  0
 22 40  1  0
 23 41  1  0
M  CHG  1   4  -1
M  END
>  <UniqueID>  (7) 
7

>  <SMILES>  (7) 
C=CC[N-]C(=O)c1ccccc1S(=O)(=O)c1cc(C)cc(C)c1

>  <Energy>  (7) 
45.22672896614059

>  <Genealogy>  (7) 
C=CC[N-]C(=O)c1ccccc1S(=O)(=O)c1cc(C)cc(C)c1 (protonated)
C=CC[N-]C(=O)c1ccccc1S(=O)(=O)c1cc(C)cc(C)c1 (3D coordinates assigned)
C=CC[N-]C(=O)c1ccccc1S(=O)(=O)c1cc(C)cc(C)c1 (optimized conformer: 45.22672896614059 kcal/mol)

>  <smiles>  (7) 
C=CCNC(=O)c1ccccc1S(=O)(=O)c1cc(C)cc(C)c1

>  <score_type>  (7) 
oracle

>  <origin>  (7) 
adgpu

>  <m_score__min__energy>  (7) 
-9.7400000000000002

>  <m_primary>  (7) 
energy

$$$$
7:0
     RDKit          3D

 56 59  0  0  0  0  0  0  0  0999 V2000
   -2.9440   22.8180  -28.6710 O   0  0  0  0  0  0  0  0  0  0  0  0
   -3.3450   22.4550  -29.8110 C   0  0  0  0  0  0  0  0  0  0  0  0
   -2.6480   21.4210  -30.5300 N   0  0  0  0  0  0  0  0  0  0  0  0
   -1.4970   20.7230  -30.0240 C   0  0  0  0  0  0  0  0  0  0  0  0
   -0.4370   20.4280  -30.8940 C   0  0  0  0  0  0  0  0  0  0  0  0
    0.6840   19.7310  -30.4330 C   0  0  0  0  0  0  0  0  0  0  0  0
    0.7490   19.3020  -29.1020 C   0  0  0  0  0  0  0  0  0  0  0  0
    2.1740   18.4470  -28.5200 S   0  0  0  0  0  0  0  0  0  0  0  0
    3.1100   19.4300  -27.8720 O   0  0  0  0  0  0  0  0  0  0  0  0
    2.8870   17.8010  -29.6780 O   0  0  0  0  0  0  0  0  0  0  0  0
    1.6890   17.2470  -27.3500 N   0  0  0  0  0  0  0  0  0  0  0  0
    0.9680   16.1450  -27.9870 C   0  0  0  0  0  0  0  0  0  0  0  0
    1.1870   14.9210  -27.1120 C   0  0  0  0  0  0  0  0  0  0  0  0
    2.4200   15.2370  -26.2780 C   0  0  0  0  0  0  0  0  0  0  0  0
    2.8480   16.6330  -26.7050 C   0  0  0  0  0  0  0  0  0  0  0  0
   -0.3160   19.5780  -28.2340 C   0  0  0  0  0  0  0  0  0  0  0  0
   -1.4360   20.2750  -28.6920 C   0  0  0  0  0  0  0  0  0  0  0  0
   -4.5420   23.1020  -30.3870 C   0  0  0  0  0  0  0  0  0  0  0  0
   -5.6890   22.3280  -30.6290 C   0  0  0  0  0  0  0  0  0  0  0  0
   -6.8400   22.9090  -31.1800 C   0  0  0  0  0  0  0  0  0  0  0  0
   -8.2780   21.9340  -31.4670 S   0  0  0  0  0  0  0  0  0  0  0  0
   -9.3260   22.7680  -32.1520 O   0  0  0  0  0  0  0  0  0  0  0  0
   -8.8280   21.4630  -30.1510 O   0  0  0  0  0  0  0  0  0  0  0  0
   -7.8530   20.5540  -32.4480 N   0  0  0  0  0  0  0  0  0  0  0  0
   -7.7330   19.3420  -31.6370 C   0  0  0  0  0  0  0  0  0  0  0  0
   -6.7610   18.4300  -32.3670 C   0  0  0  0  0  0  0  0  0  0  0  0
   -5.9790   19.3390  -33.3030 C   0  0  0  0  0  0  0  0  0  0  0  0
   -6.5460   20.7320  -33.0790 C   0  0  0  0  0  0  0  0  0  0  0  0
   -6.8510   24.2780  -31.4730 C   0  0  0  0  0  0  0  0  0  0  0  0
   -5.7230   25.0600  -31.2180 C   0  0  0  0  0  0  0  0  0  0  0  0
   -4.5730   24.4830  -30.6690 C   0  0  0  0  0  0  0  0  0  0  0  0
   -3.4850   25.2990  -30.3770 O   0  0  0  0  0  0  0  0  0  0  0  0
   -2.9560   21.1910  -31.5010 H   0  0  0  0  0  0  0  0  0  0  0  0
   -0.4880   20.7470  -31.9455 H   0  0  0  0  0  0  0  0  0  0  0  0
    1.5177   19.5190  -31.1185 H   0  0  0  0  0  0  0  0  0  0  0  0
   -0.1049   16.3795  -28.0504 H   0  0  0  0  0  0  0  0  0  0  0  0
    1.3314   15.9717  -29.0107 H   0  0  0  0  0  0  0  0  0  0  0  0
    0.3158   14.7514  -26.4622 H   0  0  0  0  0  0  0  0  0  0  0  0
    1.3208   14.0081  -27.7110 H   0  0  0  0  0  0  0  0  0  0  0  0
    2.1743   15.2206  -25.2059 H   0  0  0  0  0  0  0  0  0  0  0  0
    3.2199   14.4980  -26.4331 H   0  0  0  0  0  0  0  0  0  0  0  0
    3.1500   17.2225  -25.8268 H   0  0  0  0  0  0  0  0  0  0  0  0
    3.7074   16.5918  -27.3904 H   0  0  0  0  0  0  0  0  0  0  0  0
   -0.2695   19.2440  -27.1870 H   0  0  0  0  0  0  0  0  0  0  0  0
   -2.2742   20.4746  -28.0082 H   0  0  0  0  0  0  0  0  0  0  0  0
   -5.6842   21.2557  -30.3839 H   0  0  0  0  0  0  0  0  0  0  0  0
   -7.3447   19.5899  -30.6381 H   0  0  0  0  0  0  0  0  0  0  0  0
   -8.7101   18.8554  -31.5012 H   0  0  0  0  0  0  0  0  0  0  0  0
   -6.0837   17.9389  -31.6528 H   0  0  0  0  0  0  0  0  0  0  0  0
   -7.2824   17.6308  -32.9142 H   0  0  0  0  0  0  0  0  0  0  0  0
   -4.9073   19.3153  -33.0563 H   0  0  0  0  0  0  0  0  0  0  0  0
   -6.0719   19.0231  -34.3526 H   0  0  0  0  0  0  0  0  0  0  0  0
   -5.8820   21.3107  -32.4201 H   0  0  0  0  0  0  0  0  0  0  0  0
   -6.6348   21.2817  -34.0277 H   0  0  0  0  0  0  0  0  0  0  0  0
   -7.7513   24.7389  -31.9055 H   0  0  0  0  0  0  0  0  0  0  0  0
   -5.7386   26.1352  -31.4499 H   0  0  0  0  0  0  0  0  0  0  0  0
  1  2  2  0
  2  3  1  0
  3  4  1  0
  4  5  2  0
  5  6  1  0
  6  7  2  0
  7  8  1  0
  8  9  2  0
  8 10  2  0
  8 11  1  0
 11 12  1  0
 12 13  1  0
 13 14  1  0
 14 15  1  0
  7 16  1  0
 16 17  2  0
  2 18  1  0
 18 19  2  0
 19 20  1  0
 20 21  1  0
 21 22  2  0
 21 23  2  0
 21 24  1  0
 24 25  1  0
 25 26  1  0
 26 27  1  0
 27 28  1  0
 20 29  2  0
 29 30  1  0
 30 31  2  0
 31 32  1  0
 17  4  1  0
 31 18  1  0
 15 11  1  0
 28 24  1  0
  3 33  1  0
  5 34  1  0
  6 35  1  0
 12 36  1  0
 12 37  1  0
 13 38  1  0
 13 39  1  0
 14 40  1  0
 14 41  1  0
 15 42  1  0
 15 43  1  0
 16 44  1  0
 17 45  1  0
 19 46  1  0
 25 47  1  0
 25 48  1  0
 26 49  1  0
 26 50  1  0
 27 51  1  0
 27 52  1  0
 28 53  1  0
 28 54  1  0
 29 55  1  0
 30 56  1  0
M  CHG  1  32  -1
M  END
>  <UniqueID>  (8) 
8

>  <SMILES>  (8) 
O=C(Nc1ccc(S(=O)(=O)N2CCCC2)cc1)c1cc(S(=O)(=O)N2CCCC2)ccc1[O-]

>  <Energy>  (8) 
67.85797803082944

>  <Genealogy>  (8) 
O=C(Nc1ccc(S(=O)(=O)N2CCCC2)cc1)c1cc(S(=O)(=O)N2CCCC2)ccc1[O-] (protonated)
O=C(Nc1ccc(S(=O)(=O)N2CCCC2)cc1)c1cc(S(=O)(=O)N2CCCC2)ccc1[O-] (3D coordinates assigned)
O=C(Nc1ccc(S(=O)(=O)N2CCCC2)cc1)c1cc(S(=O)(=O)N2CCCC2)ccc1[O-] (nonaromatic ring conformer: 67.85797803082944 kcal/mol)

>  <smiles>  (8) 
O=C(Nc1ccc(S(=O)(=O)N2CCCC2)cc1)c1cc(S(=O)(=O)N2CCCC2)ccc1O

>  <score_type>  (8) 
oracle

>  <origin>  (8) 
adgpu

>  <m_score__min__energy>  (8) 
-12.460000000000001

>  <m_primary>  (8) 
energy

$$$$
8:0
     RDKit          3D

 30 31  0  0  0  0  0  0  0  0999 V2000
   -2.0100   25.3020  -29.3410 N   0  0  0  0  0  0  0  0  0  0  0  0
   -2.8310   24.2220  -28.2690 S   0  0  0  0  0  0  0  0  0  0  0  0
   -2.7270   24.7560  -26.8690 O   0  0  0  0  0  0  0  0  0  0  0  0
   -4.2770   24.1470  -28.6720 O   0  0  0  0  0  0  0  0  0  0  0  0
   -2.1230   22.6040  -28.3360 C   0  0  0  0  0  0  0  0  0  0  0  0
   -1.7000   21.9760  -27.1530 C   0  0  0  0  0  0  0  0  0  0  0  0
   -1.1420   20.6960  -27.1920 C   0  0  0  0  0  0  0  0  0  0  0  0
   -1.0090   20.0290  -28.4090 C   0  0  0  0  0  0  0  0  0  0  0  0
   -1.4210   20.6430  -29.5940 C   0  0  0  0  0  0  0  0  0  0  0  0
   -1.9620   21.9430  -29.5720 C   0  0  0  0  0  0  0  0  0  0  0  0
   -2.4070   22.5840  -30.7780 N   0  0  0  0  0  0  0  0  0  0  0  0
   -3.2400   22.0130  -31.7960 C   0  0  0  0  0  0  0  0  0  0  0  0
   -2.7240   21.2960  -32.6960 O   0  0  0  0  0  0  0  0  0  0  0  0
   -4.6990   22.3090  -31.8360 C   0  0  0  0  0  0  0  0  0  0  0  0
   -5.6010   21.2800  -32.1790 C   0  0  0  0  0  0  0  0  0  0  0  0
   -6.9770   21.5200  -32.2330 C   0  0  0  0  0  0  0  0  0  0  0  0
   -8.1620   20.0940  -32.7070 Br  0  0  0  0  0  0  0  0  0  0  0  0
   -7.4750   22.7930  -31.9430 C   0  0  0  0  0  0  0  0  0  0  0  0
   -8.8420   23.0430  -31.9940 O   0  0  0  0  0  0  0  0  0  0  0  0
   -6.5980   23.8230  -31.5980 C   0  0  0  0  0  0  0  0  0  0  0  0
   -5.2150   23.5930  -31.5390 C   0  0  0  0  0  0  0  0  0  0  0  0
   -4.3680   24.6400  -31.1780 O   0  0  0  0  0  0  0  0  0  0  0  0
   -2.5400   25.3010  -30.2420 H   0  0  0  0  0  0  0  0  0  0  0  0
   -1.8088   22.4955  -26.1895 H   0  0  0  0  0  0  0  0  0  0  0  0
   -0.8072   20.2139  -26.2617 H   0  0  0  0  0  0  0  0  0  0  0  0
   -0.5787   19.0170  -28.4361 H   0  0  0  0  0  0  0  0  0  0  0  0
   -1.3223   20.1080  -30.5500 H   0  0  0  0  0  0  0  0  0  0  0  0
   -5.2162   20.2750  -32.4071 H   0  0  0  0  0  0  0  0  0  0  0  0
   -6.9946   24.8235  -31.3705 H   0  0  0  0  0  0  0  0  0  0  0  0
   -3.5070   24.4780  -30.6690 H   0  0  0  0  0  0  0  0  0  0  0  0
  1  2  1  0
  2  3  2  0
  2  4  2  0
  2  5  1  0
  5  6  2  0
  6  7  1  0
  7  8  2  0
  8  9  1  0
  9 10  2  0
 10 11  1  0
 11 12  1  0
 12 13  2  0
 12 14  1  0
 14 15  2  0
 15 16  1  0
 16 17  1  0
 16 18  2  0
 18 19  1  0
 18 20  1  0
 20 21  2  0
 21 22  1  0
 10  5  1  0
 21 14  1  0
  1 23  1  0
  6 24  1  0
  7 25  1  0
  8 26  1  0
  9 27  1  0
 15 28  1  0
 20 29  1  0
 22 30  1  0
M  CHG  3   1  -1  11  -1  19  -1
M  END
>  <UniqueID>  (9) 
9

>  <SMILES>  (9) 
[NH-]S(=O)(=O)c1ccccc1[N-]C(=O)c1cc(Br)c([O-])cc1O

>  <Energy>  (9) 
37.87752769909139

>  <Genealogy>  (9) 
[NH-]S(=O)(=O)c1ccccc1[N-]C(=O)c1cc(Br)c([O-])cc1O (protonated)
[NH-]S(=O)(=O)c1ccccc1[N-]C(=O)c1cc(Br)c([O-])cc1O (3D coordinates assigned)
[NH-]S(=O)(=O)c1ccccc1[N-]C(=O)c1cc(Br)c([O-])cc1O (optimized conformer: 37.87752769909139 kcal/mol)

>  <smiles>  (9) 
NS(=O)(=O)c1ccccc1NC(=O)c1cc(Br)c(O)cc1O

>  <score_type>  (9) 
oracle

>  <origin>  (9) 
adgpu

>  <m_score__min__energy>  (9) 
-10.19

>  <m_primary>  (9) 
energy

$$$$
9:0
     RDKit          3D

 61 65  0  0  0  0  0  0  0  0999 V2000
   -9.0080   20.2020  -31.6620 O   0  0  0  0  0  0  0  0  0  0  0  0
   -7.7860   20.3730  -31.9220 C   0  0  0  0  0  0  0  0  0  0  0  0
   -7.1440   21.6000  -31.5370 N   0  0  0  0  0  0  0  0  0  0  0  0
   -7.8580   22.6610  -30.8310 C   0  0  0  0  0  0  0  0  0  0  0  0
   -7.0070   23.8880  -30.7380 C   0  0  0  0  0  0  0  0  0  0  0  0
   -7.0900   24.8550  -29.7570 C   0  0  0  0  0  0  0  0  0  0  0  0
   -6.1140   25.7780  -30.0640 C   0  0  0  0  0  0  0  0  0  0  0  0
   -5.5000   25.3200  -31.2130 C   0  0  0  0  0  0  0  0  0  0  0  0
   -6.0550   24.1920  -31.5910 O   0  0  0  0  0  0  0  0  0  0  0  0
   -7.0220   19.3020  -32.6060 C   0  0  0  0  0  0  0  0  0  0  0  0
   -7.5020   17.9790  -32.5780 C   0  0  0  0  0  0  0  0  0  0  0  0
   -6.8220   16.9620  -33.2510 C   0  0  0  0  0  0  0  0  0  0  0  0
   -5.6560   17.2490  -33.9620 C   0  0  0  0  0  0  0  0  0  0  0  0
   -5.1630   18.5550  -34.0000 C   0  0  0  0  0  0  0  0  0  0  0  0
   -5.8360   19.5850  -33.3290 C   0  0  0  0  0  0  0  0  0  0  0  0
   -5.2880   20.9060  -33.3640 N   0  0  0  0  0  0  0  0  0  0  0  0
   -3.9110   21.1280  -33.0630 C   0  0  0  0  0  0  0  0  0  0  0  0
   -3.2200   21.8140  -32.0810 C   0  0  0  0  0  0  0  0  0  0  0  0
   -3.5980   22.6430  -30.9820 N   0  0  0  0  0  0  0  0  0  0  0  0
   -2.7160   22.9140  -29.8860 C   0  0  0  0  0  0  0  0  0  0  0  0
   -2.0370   21.8530  -29.2750 C   0  0  0  0  0  0  0  0  0  0  0  0
   -1.1400   22.0950  -28.2320 C   0  0  0  0  0  0  0  0  0  0  0  0
   -0.8810   23.4050  -27.8210 C   0  0  0  0  0  0  0  0  0  0  0  0
   -1.5120   24.4850  -28.4570 C   0  0  0  0  0  0  0  0  0  0  0  0
   -1.1560   25.8670  -28.0710 C   0  0  0  0  0  0  0  0  0  0  0  0
   -1.2270   26.7820  -28.9370 O   0  0  0  0  0  0  0  0  0  0  0  0
   -0.7840   26.1970  -26.7180 N   0  0  0  0  0  0  0  0  0  0  0  0
    0.2790   27.1700  -26.4550 C   0  0  0  0  0  0  0  0  0  0  0  0
   -0.0750   27.9970  -25.2140 C   0  0  0  0  0  0  0  0  0  0  0  0
   -0.4020   27.1570  -24.1210 O   0  0  0  0  0  0  0  0  0  0  0  0
   -1.5820   26.4300  -24.4130 C   0  0  0  0  0  0  0  0  0  0  0  0
   -1.3460   25.4640  -25.5770 C   0  0  0  0  0  0  0  0  0  0  0  0
   -2.4530   24.2360  -29.4740 C   0  0  0  0  0  0  0  0  0  0  0  0
   -3.1200   25.2980  -30.0800 O   0  0  0  0  0  0  0  0  0  0  0  0
   -2.0260   21.3360  -32.5910 C   0  0  0  0  0  0  0  0  0  0  0  0
   -0.8120   21.4610  -32.2790 O   0  0  0  0  0  0  0  0  0  0  0  0
   -2.7160   20.6710  -33.5840 C   0  0  0  0  0  0  0  0  0  0  0  0
   -2.3920   19.9330  -34.5510 O   0  0  0  0  0  0  0  0  0  0  0  0
   -6.1430   21.7630  -31.7900 H   0  0  0  0  0  0  0  0  0  0  0  0
   -8.7825   22.9013  -31.3766 H   0  0  0  0  0  0  0  0  0  0  0  0
   -8.0986   22.3151  -29.8149 H   0  0  0  0  0  0  0  0  0  0  0  0
   -7.7888   24.8831  -28.9079 H   0  0  0  0  0  0  0  0  0  0  0  0
   -5.8726   26.6949  -29.5062 H   0  0  0  0  0  0  0  0  0  0  0  0
   -4.6717   25.8238  -31.7326 H   0  0  0  0  0  0  0  0  0  0  0  0
   -8.4210   17.7443  -32.0209 H   0  0  0  0  0  0  0  0  0  0  0  0
   -7.2064   15.9318  -33.2207 H   0  0  0  0  0  0  0  0  0  0  0  0
   -5.1246   16.4455  -34.4931 H   0  0  0  0  0  0  0  0  0  0  0  0
   -4.2420   18.7764  -34.5593 H   0  0  0  0  0  0  0  0  0  0  0  0
   -5.8330   21.6700  -33.8230 H   0  0  0  0  0  0  0  0  0  0  0  0
   -4.5420   23.0860  -30.9910 H   0  0  0  0  0  0  0  0  0  0  0  0
   -2.2110   20.8226  -29.6184 H   0  0  0  0  0  0  0  0  0  0  0  0
   -0.6369   21.2532  -27.7336 H   0  0  0  0  0  0  0  0  0  0  0  0
   -0.1790   23.5907  -26.9948 H   0  0  0  0  0  0  0  0  0  0  0  0
    1.2267   26.6389  -26.2826 H   0  0  0  0  0  0  0  0  0  0  0  0
    0.3837   27.8392  -27.3217 H   0  0  0  0  0  0  0  0  0  0  0  0
    0.7871   28.6234  -24.9411 H   0  0  0  0  0  0  0  0  0  0  0  0
   -0.9480   28.6241  -25.4478 H   0  0  0  0  0  0  0  0  0  0  0  0
   -1.8832   25.8573  -23.5234 H   0  0  0  0  0  0  0  0  0  0  0  0
   -2.3743   27.1388  -24.6957 H   0  0  0  0  0  0  0  0  0  0  0  0
   -0.6426   24.6783  -25.2641 H   0  0  0  0  0  0  0  0  0  0  0  0
   -2.3017   25.0060  -25.8716 H   0  0  0  0  0  0  0  0  0  0  0  0
  1  2  2  0
  2  3  1  0
  3  4  1  0
  4  5  1  0
  5  6  2  0
  6  7  1  0
  7  8  2  0
  8  9  1  0
  2 10  1  0
 10 11  2  0
 11 12  1  0
 12 13  2  0
 13 14  1  0
 14 15  2  0
 15 16  1  0
 16 17  1  0
 17 18  2  0
 18 19  1  0
 19 20  1  0
 20 21  2  0
 21 22  1  0
 22 23  2  0
 23 24  1  0
 24 25  1  0
 25 26  2  0
 25 27  1  0
 27 28  1  0
 28 29  1  0
 29 30  1  0
 30 31  1  0
 31 32  1  0
 24 33  2  0
 33 34  1  0
 18 35  1  0
 35 36  2  0
 35 37  1  0
 37 38  2  0
  9  5  1  0
 15 10  1  0
 37 17  1  0
 33 20  1  0
 32 27  1  0
  3 39  1  0
  4 40  1  0
  4 41  1  0
  6 42  1  0
  7 43  1  0
  8 44  1  0
 11 45  1  0
 12 46  1  0
 13 47  1  0
 14 48  1  0
 16 49  1  0
 19 50  1  0
 21 51  1  0
 22 52  1  0
 23 53  1  0
 28 54  1  0
 28 55  1  0
 29 56  1  0
 29 57  1  0
 31 58  1  0
 31 59  1  0
 32 60  1  0
 32 61  1  0
M  CHG  1  34  -1
M  END
>  <UniqueID>  (10) 
10

>  <SMILES>  (10) 
O=C(NCc1ccco1)c1ccccc1Nc1c(Nc2cccc(C(=O)N3CCOCC3)c2[O-])c(=O)c1=O

>  <Energy>  (10) 
102.68176872991458

>  <Genealogy>  (10) 
O=C(NCc1ccco1)c1ccccc1Nc1c(Nc2cccc(C(=O)N3CCOCC3)c2[O-])c(=O)c1=O (protonated)
O=C(NCc1ccco1)c1ccccc1Nc1c(Nc2cccc(C(=O)N3CCOCC3)c2[O-])c(=O)c1=O (3D coordinates assigned)
O=C(NCc1ccco1)c1ccccc1Nc1c(Nc2cccc(C(=O)N3CCOCC3)c2[O-])c(=O)c1=O (nonaromatic ring conformer: 102.68176872991458 kcal/mol)

>  <smiles>  (10) 
O=C(NCc1ccco1)c1ccccc1Nc1c(Nc2cccc(C(=O)N3CCOCC3)c2O)c(=O)c1=O

>  <score_type>  (10) 
oracle

>  <origin>  (10) 
adgpu

>  <m_score__min__energy>  (10) 
-13.5

>  <m_primary>  (10) 
energy

$$$$
10:0
     RDKit          3D

 48 52  0  0  0  0  0  0  0  0999 V2000
    0.2980   21.3340  -34.1340 C   0  0  0  0  0  0  0  0  0  0  0  0
   -0.9260   20.4920  -33.9670 C   0  0  0  0  0  0  0  0  0  0  0  0
   -2.1060   21.0550  -33.4380 C   0  0  0  0  0  0  0  0  0  0  0  0
   -3.2050   20.2140  -33.2990 C   0  0  0  0  0  0  0  0  0  0  0  0
   -4.4770   20.4690  -32.8380 C   0  0  0  0  0  0  0  0  0  0  0  0
   -5.1450   19.2490  -32.9310 C   0  0  0  0  0  0  0  0  0  0  0  0
   -6.5650   19.0340  -32.5930 C   0  0  0  0  0  0  0  0  0  0  0  0
   -7.1010   17.7560  -32.3600 C   0  0  0  0  0  0  0  0  0  0  0  0
   -8.4410   17.7670  -31.9930 C   0  0  0  0  0  0  0  0  0  0  0  0
   -8.9750   19.3590  -31.9710 S   0  0  0  0  0  0  0  0  0  0  0  0
   -7.5070   20.0500  -32.4200 C   0  0  0  0  0  0  0  0  0  0  0  0
   -7.3050   21.4410  -32.7000 N   0  0  0  0  0  0  0  0  0  0  0  0
   -7.7550   22.6750  -31.5700 S   0  0  0  0  0  0  0  0  0  0  0  0
   -8.5700   23.7230  -32.2750 O   0  0  0  0  0  0  0  0  0  0  0  0
   -8.5810   22.0600  -30.4760 O   0  0  0  0  0  0  0  0  0  0  0  0
   -6.3080   23.4260  -30.9100 C   0  0  0  0  0  0  0  0  0  0  0  0
   -6.2950   24.8080  -30.5990 C   0  0  0  0  0  0  0  0  0  0  0  0
   -5.1440   25.4080  -30.0550 C   0  0  0  0  0  0  0  0  0  0  0  0
   -4.0330   24.5970  -29.8380 C   0  0  0  0  0  0  0  0  0  0  0  0
   -2.8410   24.9530  -29.3410 N   0  0  0  0  0  0  0  0  0  0  0  0
   -2.1560   23.7800  -29.3550 C   0  0  0  0  0  0  0  0  0  0  0  0
   -0.7300   23.6780  -28.9310 C   0  0  0  0  0  0  0  0  0  0  0  0
   -2.8510   22.7230  -29.8500 N   0  0  0  0  0  0  0  0  0  0  0  0
   -4.0400   23.2710  -30.1410 C   0  0  0  0  0  0  0  0  0  0  0  0
   -5.1570   22.6420  -30.6830 C   0  0  0  0  0  0  0  0  0  0  0  0
   -4.3330   18.2910  -33.4410 N   0  0  0  0  0  0  0  0  0  0  0  0
   -3.1510   18.8960  -33.6550 C   0  0  0  0  0  0  0  0  0  0  0  0
   -1.9790   18.3460  -34.1790 C   0  0  0  0  0  0  0  0  0  0  0  0
   -1.8950   16.9070  -34.5800 C   0  0  0  0  0  0  0  0  0  0  0  0
   -0.8940   19.1670  -34.3170 N   0  0  0  0  0  0  0  0  0  0  0  0
    0.6936   21.6062  -33.1444 H   0  0  0  0  0  0  0  0  0  0  0  0
    1.0595   20.7677  -34.6903 H   0  0  0  0  0  0  0  0  0  0  0  0
    0.0414   22.2477  -34.6903 H   0  0  0  0  0  0  0  0  0  0  0  0
   -2.1551   22.1148  -33.1475 H   0  0  0  0  0  0  0  0  0  0  0  0
   -4.8786   21.4267  -32.4753 H   0  0  0  0  0  0  0  0  0  0  0  0
   -6.5134   16.8314  -32.4591 H   0  0  0  0  0  0  0  0  0  0  0  0
   -9.0497   16.8818  -31.7566 H   0  0  0  0  0  0  0  0  0  0  0  0
   -6.8670   21.7360  -33.5990 H   0  0  0  0  0  0  0  0  0  0  0  0
   -7.1920   25.4172  -30.7842 H   0  0  0  0  0  0  0  0  0  0  0  0
   -5.1227   26.4801  -29.8098 H   0  0  0  0  0  0  0  0  0  0  0  0
   -0.6735   23.6740  -27.8325 H   0  0  0  0  0  0  0  0  0  0  0  0
   -0.2964   22.7465  -29.3239 H   0  0  0  0  0  0  0  0  0  0  0  0
   -0.1682   24.5383  -29.3239 H   0  0  0  0  0  0  0  0  0  0  0  0
   -5.1430   21.5693  -30.9263 H   0  0  0  0  0  0  0  0  0  0  0  0
   -4.5810   17.3040  -33.6690 H   0  0  0  0  0  0  0  0  0  0  0  0
   -1.8582   16.2769  -33.6791 H   0  0  0  0  0  0  0  0  0  0  0  0
   -2.7791   16.6407  -35.1778 H   0  0  0  0  0  0  0  0  0  0  0  0
   -0.9859   16.7454  -35.1778 H   0  0  0  0  0  0  0  0  0  0  0  0
  1  2  1  0
  2  3  2  0
  3  4  1  0
  4  5  1  0
  5  6  2  0
  6  7  1  0
  7  8  1  0
  8  9  2  0
  9 10  1  0
 10 11  1  0
 11 12  1  0
 12 13  1  0
 13 14  2  0
 13 15  2  0
 13 16  1  0
 16 17  2  0
 17 18  1  0
 18 19  2  0
 19 20  1  0
 20 21  1  0
 21 22  1  0
 21 23  2  0
 23 24  1  0
 24 25  2  0
  6 26  1  0
 26 27  1  0
 27 28  1  0
 28 29  1  0
 28 30  2  0
 30  2  1  0
 27  4  2  0
 11  7  2  0
 25 16  1  0
 24 19  1  0
  1 31  1  0
  1 32  1  0
  1 33  1  0
  3 34  1  0
  5 35  1  0
  8 36  1  0
  9 37  1  0
 12 38  1  0
 17 39  1  0
 18 40  1  0
 22 41  1  0
 22 42  1  0
 22 43  1  0
 25 44  1  0
 26 45  1  0
 29 46  1  0
 29 47  1  0
 29 48  1  0
M  CHG  1  20  -1
M  END
>  <UniqueID>  (11) 
11

>  <SMILES>  (11) 
Cc1cc2cc(-c3ccsc3NS(=O)(=O)c3ccc4[n-]c(C)nc4c3)[nH]c2c(C)n1

>  <Energy>  (11) 
149.19266197780445

>  <Genealogy>  (11) 
Cc1cc2cc(-c3ccsc3NS(=O)(=O)c3ccc4[n-]c(C)nc4c3)[nH]c2c(C)n1 (protonated)
Cc1cc2cc(-c3ccsc3NS(=O)(=O)c3ccc4[n-]c(C)nc4c3)[nH]c2c(C)n1 (3D coordinates assigned)
Cc1cc2cc(-c3ccsc3NS(=O)(=O)c3ccc4[n-]c(C)nc4c3)[nH]c2c(C)n1 (optimized conformer: 149.19266197780445 kcal/mol)

>  <smiles>  (11) 
Cc1cc2cc(-c3ccsc3NS(=O)(=O)c3ccc4[nH]c(C)nc4c3)[nH]c2c(C)n1

>  <score_type>  (11) 
oracle

>  <origin>  (11) 
adgpu

>  <m_score__min__energy>  (11) 
-11.08

>  <m_primary>  (11) 
energy

$$$$
11:0
     RDKit          3D

 42 44  0  0  0  0  0  0  0  0999 V2000
   -6.4020   25.7840  -29.8260 O   0  0  0  0  0  0  0  0  0  0  0  0
   -5.1920   24.9200  -30.0420 S   0  0  0  0  0  0  0  0  0  0  0  0
   -4.1980   25.6710  -30.8830 O   0  0  0  0  0  0  0  0  0  0  0  0
   -4.4710   24.5440  -28.5090 N   0  0  0  0  0  0  0  0  0  0  0  0
   -3.2510   23.7910  -28.3680 C   0  0  0  0  0  0  0  0  0  0  0  0
   -3.2500   22.4920  -27.8220 C   0  0  0  0  0  0  0  0  0  0  0  0
   -2.0540   21.7840  -27.6820 C   0  0  0  0  0  0  0  0  0  0  0  0
   -0.8480   22.3550  -28.0930 C   0  0  0  0  0  0  0  0  0  0  0  0
   -0.8360   23.6360  -28.6470 C   0  0  0  0  0  0  0  0  0  0  0  0
   -2.0290   24.3540  -28.7880 C   0  0  0  0  0  0  0  0  0  0  0  0
   -1.9900   25.6310  -29.3370 O   0  0  0  0  0  0  0  0  0  0  0  0
   -5.6950   23.4350  -30.8450 C   0  0  0  0  0  0  0  0  0  0  0  0
   -4.7980   22.7580  -31.6810 C   0  0  0  0  0  0  0  0  0  0  0  0
   -5.1990   21.6030  -32.3570 C   0  0  0  0  0  0  0  0  0  0  0  0
   -6.5030   21.1120  -32.1970 C   0  0  0  0  0  0  0  0  0  0  0  0
   -7.0430   19.6850  -33.0770 S   0  0  0  0  0  0  0  0  0  0  0  0
   -6.5390   19.7790  -34.4900 O   0  0  0  0  0  0  0  0  0  0  0  0
   -8.5460   19.6300  -33.1020 O   0  0  0  0  0  0  0  0  0  0  0  0
   -6.3980   18.2470  -32.3130 N   0  0  0  0  0  0  0  0  0  0  0  0
   -7.1650   17.0630  -32.7150 C   0  0  0  0  0  0  0  0  0  0  0  0
   -6.4740   16.4360  -33.9160 C   0  0  0  0  0  0  0  0  0  0  0  0
   -5.0830   17.0390  -33.9460 C   0  0  0  0  0  0  0  0  0  0  0  0
   -5.0260   17.9970  -32.7650 C   0  0  0  0  0  0  0  0  0  0  0  0
   -7.3980   21.7830  -31.3540 C   0  0  0  0  0  0  0  0  0  0  0  0
   -6.9950   22.9380  -30.6780 C   0  0  0  0  0  0  0  0  0  0  0  0
   -5.0250   24.7910  -27.6590 H   0  0  0  0  0  0  0  0  0  0  0  0
   -4.1974   22.0324  -27.5039 H   0  0  0  0  0  0  0  0  0  0  0  0
   -2.0624   20.7738  -27.2467 H   0  0  0  0  0  0  0  0  0  0  0  0
    0.0923   21.7955  -27.9802 H   0  0  0  0  0  0  0  0  0  0  0  0
    0.1145   24.0828  -28.9740 H   0  0  0  0  0  0  0  0  0  0  0  0
   -3.7731   23.1375  -31.8059 H   0  0  0  0  0  0  0  0  0  0  0  0
   -4.4912   21.0781  -33.0155 H   0  0  0  0  0  0  0  0  0  0  0  0
   -7.1982   16.3413  -31.8855 H   0  0  0  0  0  0  0  0  0  0  0  0
   -8.1955   17.3472  -32.9745 H   0  0  0  0  0  0  0  0  0  0  0  0
   -6.4167   15.3437  -33.7992 H   0  0  0  0  0  0  0  0  0  0  0  0
   -7.0227   16.6310  -34.8492 H   0  0  0  0  0  0  0  0  0  0  0  0
   -4.3213   16.2526  -33.8394 H   0  0  0  0  0  0  0  0  0  0  0  0
   -4.8833   17.5538  -34.8974 H   0  0  0  0  0  0  0  0  0  0  0  0
   -4.4408   17.5480  -31.9489 H   0  0  0  0  0  0  0  0  0  0  0  0
   -4.5457   18.9406  -33.0633 H   0  0  0  0  0  0  0  0  0  0  0  0
   -8.4209   21.3999  -31.2236 H   0  0  0  0  0  0  0  0  0  0  0  0
   -7.6999   23.4585  -30.0131 H   0  0  0  0  0  0  0  0  0  0  0  0
  1  2  2  0
  2  3  2  0
  2  4  1  0
  4  5  1  0
  5  6  2  0
  6  7  1  0
  7  8  2  0
  8  9  1  0
  9 10  2  0
 10 11  1  0
  2 12  1  0
 12 13  2  0
 13 14  1  0
 14 15  2  0
 15 16  1  0
 16 17  2  0
 16 18  2  0
 16 19  1  0
 19 20  1  0
 20 21  1  0
 21 22  1  0
 22 23  1  0
 15 24  1  0
 24 25  2  0
 10  5  1  0
 25 12  1  0
 23 19  1  0
  4 26  1  0
  6 27  1  0
  7 28  1  0
  8 29  1  0
  9 30  1  0
 13 31  1  0
 14 32  1  0
 20 33  1  0
 20 34  1  0
 21 35  1  0
 21 36  1  0
 22 37  1  0
 22 38  1  0
 23 39  1  0
 23 40  1  0
 24 41  1  0
 25 42  1  0
M  CHG  1  11  -1
M  END
>  <UniqueID>  (12) 
12

>  <SMILES>  (12) 
O=S(=O)(Nc1ccccc1[O-])c1ccc(S(=O)(=O)N2CCCC2)cc1

>  <Energy>  (12) 
47.495414448581

>  <Genealogy>  (12) 
O=S(=O)(Nc1ccccc1[O-])c1ccc(S(=O)(=O)N2CCCC2)cc1 (protonated)
O=S(=O)(Nc1ccccc1[O-])c1ccc(S(=O)(=O)N2CCCC2)cc1 (3D coordinates assigned)
O=S(=O)(Nc1ccccc1[O-])c1ccc(S(=O)(=O)N2CCCC2)cc1 (nonaromatic ring conformer: 47.495414448581 kcal/mol)

>  <smiles>  (12) 
O=S(=O)(Nc1ccccc1O)c1ccc(S(=O)(=O)N2CCCC2)cc1

>  <score_type>  (12) 
oracle

>  <origin>  (12) 
adgpu

>  <m_score__min__energy>  (12) 
-13.24

>  <m_primary>  (12) 
energy

$$$$
12:0
     RDKit          3D

 49 51  0  0  0  0  0  0  0  0999 V2000
   -3.5050   25.2140  -30.5630 N   0  0  0  0  0  0  0  0  0  0  0  0
   -5.0890   25.1400  -29.8770 S   0  0  0  0  0  0  0  0  0  0  0  0
   -4.9850   24.9060  -28.3960 O   0  0  0  0  0  0  0  0  0  0  0  0
   -5.7960   26.4440  -30.1100 O   0  0  0  0  0  0  0  0  0  0  0  0
   -5.9930   23.8280  -30.6260 C   0  0  0  0  0  0  0  0  0  0  0  0
   -6.8730   23.0530  -29.8590 C   0  0  0  0  0  0  0  0  0  0  0  0
   -7.5760   21.9960  -30.4470 C   0  0  0  0  0  0  0  0  0  0  0  0
   -7.4090   21.7070  -31.8100 C   0  0  0  0  0  0  0  0  0  0  0  0
   -8.1270   20.5470  -32.4400 C   0  0  0  0  0  0  0  0  0  0  0  0
   -7.4500   19.3020  -32.0710 N   0  0  0  0  0  0  0  0  0  0  0  0
   -6.0990   19.0250  -33.1290 S   0  0  0  0  0  0  0  0  0  0  0  0
   -6.4710   19.4230  -34.5300 O   0  0  0  0  0  0  0  0  0  0  0  0
   -5.7420   17.5660  -33.1080 O   0  0  0  0  0  0  0  0  0  0  0  0
   -4.7160   19.9630  -32.5750 C   0  0  0  0  0  0  0  0  0  0  0  0
   -3.8000   20.4920  -33.4930 C   0  0  0  0  0  0  0  0  0  0  0  0
   -2.7260   21.2660  -33.0460 C   0  0  0  0  0  0  0  0  0  0  0  0
   -2.5640   21.5190  -31.6820 C   0  0  0  0  0  0  0  0  0  0  0  0
   -3.4770   20.9940  -30.7500 C   0  0  0  0  0  0  0  0  0  0  0  0
   -3.3000   21.2380  -29.3020 C   0  0  0  0  0  0  0  0  0  0  0  0
   -3.9050   22.2060  -28.7650 O   0  0  0  0  0  0  0  0  0  0  0  0
   -2.4440   20.4040  -28.4970 N   0  0  0  0  0  0  0  0  0  0  0  0
   -1.2160   19.8210  -29.0460 C   0  0  0  0  0  0  0  0  0  0  0  0
   -0.1270   19.8220  -27.9700 C   0  0  0  0  0  0  0  0  0  0  0  0
   -0.5930   19.2040  -26.7830 O   0  0  0  0  0  0  0  0  0  0  0  0
   -1.6420   19.9720  -26.2240 C   0  0  0  0  0  0  0  0  0  0  0  0
   -2.8590   19.9960  -27.1540 C   0  0  0  0  0  0  0  0  0  0  0  0
   -4.5420   20.2010  -31.2060 C   0  0  0  0  0  0  0  0  0  0  0  0
   -6.5140   22.4730  -32.5720 C   0  0  0  0  0  0  0  0  0  0  0  0
   -5.8110   23.5290  -31.9840 C   0  0  0  0  0  0  0  0  0  0  0  0
   -3.4950   26.0270  -31.2180 H   0  0  0  0  0  0  0  0  0  0  0  0
   -7.0116   23.2764  -28.7909 H   0  0  0  0  0  0  0  0  0  0  0  0
   -8.2624   21.3890  -29.8384 H   0  0  0  0  0  0  0  0  0  0  0  0
   -9.1668   20.5201  -32.0822 H   0  0  0  0  0  0  0  0  0  0  0  0
   -8.1213   20.6598  -33.5342 H   0  0  0  0  0  0  0  0  0  0  0  0
   -8.1210   18.5100  -32.2110 H   0  0  0  0  0  0  0  0  0  0  0  0
   -3.9264   20.2977  -34.5683 H   0  0  0  0  0  0  0  0  0  0  0  0
   -2.0067   21.6769  -33.7697 H   0  0  0  0  0  0  0  0  0  0  0  0
   -1.7187   22.1315  -31.3352 H   0  0  0  0  0  0  0  0  0  0  0  0
   -1.4125   18.7878  -29.3682 H   0  0  0  0  0  0  0  0  0  0  0  0
   -0.8807   20.4158  -29.9084 H   0  0  0  0  0  0  0  0  0  0  0  0
    0.7494   19.2718  -28.3431 H   0  0  0  0  0  0  0  0  0  0  0  0
    0.1437   20.8637  -27.7428 H   0  0  0  0  0  0  0  0  0  0  0  0
   -1.9350   19.5327  -25.2590 H   0  0  0  0  0  0  0  0  0  0  0  0
   -1.2862   21.0035  -26.0850 H   0  0  0  0  0  0  0  0  0  0  0  0
   -3.3055   18.9917  -27.1983 H   0  0  0  0  0  0  0  0  0  0  0  0
   -3.5994   20.7120  -26.7676 H   0  0  0  0  0  0  0  0  0  0  0  0
   -5.2453   19.7632  -30.4823 H   0  0  0  0  0  0  0  0  0  0  0  0
   -6.3646   22.2417  -33.6370 H   0  0  0  0  0  0  0  0  0  0  0  0
   -5.1131   24.1270  -32.5884 H   0  0  0  0  0  0  0  0  0  0  0  0
  1  2  1  0
  2  3  2  0
  2  4  2  0
  2  5  1  0
  5  6  2  0
  6  7  1  0
  7  8  2  0
  8  9  1  0
  9 10  1  0
 10 11  1  0
 11 12  2  0
 11 13  2  0
 11 14  1  0
 14 15  2  0
 15 16  1  0
 16 17  2  0
 17 18  1  0
 18 19  1  0
 19 20  2  0
 19 21  1  0
 21 22  1  0
 22 23  1  0
 23 24  1  0
 24 25  1  0
 25 26  1  0
 18 27  2  0
  8 28  1  0
 28 29  2  0
 29  5  1  0
 27 14  1  0
 26 21  1  0
  1 30  1  0
  6 31  1  0
  7 32  1  0
  9 33  1  0
  9 34  1  0
 10 35  1  0
 15 36  1  0
 16 37  1  0
 17 38  1  0
 22 39  1  0
 22 40  1  0
 23 41  1  0
 23 42  1  0
 25 43  1  0
 25 44  1  0
 26 45  1  0
 26 46  1  0
 27 47  1  0
 28 48  1  0
 29 49  1  0
M  CHG  1   1  -1
M  END
>  <UniqueID>  (13) 
13

>  <SMILES>  (13) 
[NH-]S(=O)(=O)c1ccc(CNS(=O)(=O)c2cccc(C(=O)N3CCOCC3)c2)cc1

>  <Energy>  (13) 
53.15676370377985

>  <Genealogy>  (13) 
[NH-]S(=O)(=O)c1ccc(CNS(=O)(=O)c2cccc(C(=O)N3CCOCC3)c2)cc1 (protonated)
[NH-]S(=O)(=O)c1ccc(CNS(=O)(=O)c2cccc(C(=O)N3CCOCC3)c2)cc1 (3D coordinates assigned)
[NH-]S(=O)(=O)c1ccc(CNS(=O)(=O)c2cccc(C(=O)N3CCOCC3)c2)cc1 (nonaromatic ring conformer: 53.15676370377985 kcal/mol)

>  <smiles>  (13) 
NS(=O)(=O)c1ccc(CNS(=O)(=O)c2cccc(C(=O)N3CCOCC3)c2)cc1

>  <score_type>  (13) 
oracle

>  <origin>  (13) 
adgpu

>  <m_score__min__energy>  (13) 
-11.94

>  <m_primary>  (13) 
energy

$$$$
13:0
     RDKit          3D

 66 70  0  0  0  0  0  0  0  0999 V2000
   -3.0190   20.8270  -33.6710 C   0  0  0  0  0  0  0  0  0  0  0  0
   -3.5660   19.7390  -32.7470 C   0  0  2  0  0  0  0  0  0  0  0  0
   -2.9190   18.3540  -33.0400 C   0  0  0  0  0  0  0  0  0  0  0  0
   -4.0800   17.5130  -33.4480 C   0  0  0  0  0  0  0  0  0  0  0  0
   -4.0830   16.1680  -33.8200 C   0  0  0  0  0  0  0  0  0  0  0  0
   -5.3100   15.5590  -34.1300 C   0  0  0  0  0  0  0  0  0  0  0  0
   -6.5050   16.3010  -34.0660 C   0  0  0  0  0  0  0  0  0  0  0  0
   -6.4770   17.6530  -33.6870 C   0  0  0  0  0  0  0  0  0  0  0  0
   -5.2420   18.2300  -33.3770 C   0  0  0  0  0  0  0  0  0  0  0  0
   -5.0060   19.5640  -32.9640 N   0  0  0  0  0  0  0  0  0  0  0  0
   -6.2150   20.6050  -32.2790 S   0  0  0  0  0  0  0  0  0  0  0  0
   -7.1910   20.9800  -33.3610 O   0  0  0  0  0  0  0  0  0  0  0  0
   -6.9550   19.8670  -31.2000 O   0  0  0  0  0  0  0  0  0  0  0  0
   -5.5190   22.0750  -31.5890 C   0  0  0  0  0  0  0  0  0  0  0  0
   -5.9580   23.3100  -32.0840 C   0  0  0  0  0  0  0  0  0  0  0  0
   -5.4140   24.5000  -31.6020 C   0  0  0  0  0  0  0  0  0  0  0  0
   -4.4260   24.4750  -30.6170 C   0  0  0  0  0  0  0  0  0  0  0  0
   -3.8550   25.6740  -30.2030 O   0  0  0  0  0  0  0  0  0  0  0  0
   -4.0050   23.2450  -30.0740 C   0  0  0  0  0  0  0  0  0  0  0  0
   -2.9940   23.1780  -29.0570 N   0  0  0  0  0  0  0  0  0  0  0  0
   -1.6390   23.6260  -29.1990 C   0  0  0  0  0  0  0  0  0  0  0  0
   -1.4130   24.8530  -29.3590 O   0  0  0  0  0  0  0  0  0  0  0  0
   -0.5360   22.7120  -29.1520 N   0  0  0  0  0  0  0  0  0  0  0  0
   -0.3170   21.6310  -30.0680 C   0  0  0  0  0  0  0  0  0  0  0  0
    0.0630   20.3810  -29.5660 C   0  0  0  0  0  0  0  0  0  0  0  0
    0.2980   19.3130  -30.4360 C   0  0  0  0  0  0  0  0  0  0  0  0
    0.1840   19.4930  -31.8200 C   0  0  0  0  0  0  0  0  0  0  0  0
    0.5220   18.1540  -32.9200 S   0  0  0  0  0  0  0  0  0  0  0  0
    2.0000   18.0910  -33.1880 O   0  0  0  0  0  0  0  0  0  0  0  0
    0.1130   16.8730  -32.2470 O   0  0  0  0  0  0  0  0  0  0  0  0
   -0.3740   18.3270  -34.4160 N   0  0  0  0  0  0  0  0  0  0  0  0
    0.0780   19.4850  -35.2130 C   0  0  0  0  0  0  0  0  0  0  0  0
    1.4340   19.2440  -35.9070 C   0  0  0  0  0  0  0  0  0  0  0  0
    1.6010   17.8070  -36.4320 C   0  0  0  0  0  0  0  0  0  0  0  0
    0.2600   17.0840  -36.5380 C   0  0  0  0  0  0  0  0  0  0  0  0
   -0.4460   17.0490  -35.1710 C   0  0  0  0  0  0  0  0  0  0  0  0
   -0.1820   20.7470  -32.3260 C   0  0  0  0  0  0  0  0  0  0  0  0
   -0.4300   21.8110  -31.4560 C   0  0  0  0  0  0  0  0  0  0  0  0
   -4.5460   22.0480  -30.5700 C   0  0  0  0  0  0  0  0  0  0  0  0
   -4.1270   20.8400  -30.0230 O   0  0  0  0  0  0  0  0  0  0  0  0
   -2.6062   21.6481  -33.0665 H   0  0  0  0  0  0  0  0  0  0  0  0
   -2.2261   20.4045  -34.3057 H   0  0  0  0  0  0  0  0  0  0  0  0
   -3.8310   21.2114  -34.3057 H   0  0  0  0  0  0  0  0  0  0  0  0
   -3.3388   20.0634  -31.7208 H   0  0  0  0  0  0  0  0  0  0  0  0
   -2.1810   18.4277  -33.8523 H   0  0  0  0  0  0  0  0  0  0  0  0
   -2.3716   17.9436  -32.1787 H   0  0  0  0  0  0  0  0  0  0  0  0
   -3.1442   15.5969  -33.8694 H   0  0  0  0  0  0  0  0  0  0  0  0
   -5.3375   14.4993  -34.4237 H   0  0  0  0  0  0  0  0  0  0  0  0
   -7.4630   15.8204  -34.3135 H   0  0  0  0  0  0  0  0  0  0  0  0
   -7.4038   18.2432  -33.6354 H   0  0  0  0  0  0  0  0  0  0  0  0
   -6.7380   23.3411  -32.8590 H   0  0  0  0  0  0  0  0  0  0  0  0
   -5.7655   25.4633  -32.0003 H   0  0  0  0  0  0  0  0  0  0  0  0
    0.1772   20.2386  -28.4813 H   0  0  0  0  0  0  0  0  0  0  0  0
    0.5735   18.3275  -30.0323 H   0  0  0  0  0  0  0  0  0  0  0  0
   -0.6778   19.6971  -35.9836 H   0  0  0  0  0  0  0  0  0  0  0  0
    0.2069   20.3310  -34.5219 H   0  0  0  0  0  0  0  0  0  0  0  0
    1.5203   19.9383  -36.7558 H   0  0  0  0  0  0  0  0  0  0  0  0
    2.2195   19.4100  -35.1550 H   0  0  0  0  0  0  0  0  0  0  0  0
    2.0659   17.8434  -37.4283 H   0  0  0  0  0  0  0  0  0  0  0  0
    2.2330   17.2541  -35.7215 H   0  0  0  0  0  0  0  0  0  0  0  0
   -0.3790   17.6116  -37.2615 H   0  0  0  0  0  0  0  0  0  0  0  0
    0.4393   16.0511  -36.8711 H   0  0  0  0  0  0  0  0  0  0  0  0
   -1.5058   16.8050  -35.3361 H   0  0  0  0  0  0  0  0  0  0  0  0
    0.0755   16.2936  -34.5648 H   0  0  0  0  0  0  0  0  0  0  0  0
   -0.2744   20.8941  -33.4122 H   0  0  0  0  0  0  0  0  0  0  0  0
   -0.7149   22.7938  -31.8596 H   0  0  0  0  0  0  0  0  0  0  0  0
  1  2  1  0
  2  3  1  0
  3  4  1  0
  4  5  2  0
  5  6  1  0
  6  7  2  0
  7  8  1  0
  8  9  2  0
  9 10  1  0
 10 11  1  0
 11 12  2  0
 11 13  2  0
 11 14  1  0
 14 15  2  0
 15 16  1  0
 16 17  2  0
 17 18  1  0
 17 19  1  0
 19 20  1  0
 20 21  1  0
 21 22  2  0
 21 23  1  0
 23 24  1  0
 24 25  2  0
 25 26  1  0
 26 27  2  0
 27 28  1  0
 28 29  2  0
 28 30  2  0
 28 31  1  0
 31 32  1  0
 32 33  1  0
 33 34  1  0
 34 35  1  0
 35 36  1  0
 27 37  1  0
 37 38  2  0
 19 39  2  0
 39 40  1  0
 10  2  1  0
 39 14  1  0
  9  4  1  0
 38 24  1  0
 36 31  1  0
  1 41  1  0
  1 42  1  0
  1 43  1  0
  2 44  1  1
  3 45  1  0
  3 46  1  0
  5 47  1  0
  6 48  1  0
  7 49  1  0
  8 50  1  0
 15 51  1  0
 16 52  1  0
 25 53  1  0
 26 54  1  0
 32 55  1  0
 32 56  1  0
 33 57  1  0
 33 58  1  0
 34 59  1  0
 34 60  1  0
 35 61  1  0
 35 62  1  0
 36 63  1  0
 36 64  1  0
 37 65  1  0
 38 66  1  0
M  CHG  4  18  -1  20  -1  23  -1  40  -1
M  END
>  <UniqueID>  (14) 
14

>  <SMILES>  (14) 
C[C@@H]1Cc2ccccc2N1S(=O)(=O)c1ccc([O-])c([N-]C(=O)[N-]c2ccc(S(=O)(=O)N3CCCCC3)cc2)c1[O-]

>  <Energy>  (14) 
99.48870213997442

>  <Genealogy>  (14) 
CC1Cc2ccccc2N1S(=O)(=O)c1ccc([O-])c([N-]C(=O)[N-]c2ccc(S(=O)(=O)N3CCCCC3)cc2)c1[O-] (protonated)
C[C@@H]1Cc2ccccc2N1S(=O)(=O)c1ccc([O-])c([N-]C(=O)[N-]c2ccc(S(=O)(=O)N3CCCCC3)cc2)c1[O-] (chirality)
C[C@@H]1Cc2ccccc2N1S(=O)(=O)c1ccc([O-])c([N-]C(=O)[N-]c2ccc(S(=O)(=O)N3CCCCC3)cc2)c1[O-] (3D coordinates assigned)
C[C@@H]1Cc2ccccc2N1S(=O)(=O)c1ccc([O-])c([N-]C(=O)[N-]c2ccc(S(=O)(=O)N3CCCCC3)cc2)c1[O-] (nonaromatic ring conformer: 99.48870213997442 kcal/mol)

>  <smiles>  (14) 
CC1Cc2ccccc2N1S(=O)(=O)c1ccc(O)c(NC(=O)Nc2ccc(S(=O)(=O)N3CCCCC3)cc2)c1O

>  <score_type>  (14) 
oracle

>  <origin>  (14) 
adgpu

>  <m_score__min__energy>  (14) 
-17.440000000000001

>  <m_primary>  (14) 
energy

$$$$
14:0
     RDKit          3D

 45 47  0  0  0  0  0  0  0  0999 V2000
   -3.9320   25.4840  -30.8400 N   0  0  0  0  0  0  0  0  0  0  0  0
   -5.0860   24.8770  -29.7070 S   0  0  0  0  0  0  0  0  0  0  0  0
   -6.1100   25.9330  -29.4050 O   0  0  0  0  0  0  0  0  0  0  0  0
   -4.3750   24.5360  -28.4270 O   0  0  0  0  0  0  0  0  0  0  0  0
   -5.8670   23.4270  -30.3650 C   0  0  0  0  0  0  0  0  0  0  0  0
   -7.2510   23.4800  -30.6060 C   0  0  0  0  0  0  0  0  0  0  0  0
   -7.9290   22.3820  -31.1390 C   0  0  0  0  0  0  0  0  0  0  0  0
   -7.2320   21.2130  -31.4510 C   0  0  0  0  0  0  0  0  0  0  0  0
   -8.0690   19.8170  -32.1230 S   0  0  0  0  0  0  0  0  0  0  0  0
   -9.1040   20.2810  -33.1090 O   0  0  0  0  0  0  0  0  0  0  0  0
   -8.7560   19.0480  -31.0280 O   0  0  0  0  0  0  0  0  0  0  0  0
   -6.9050   18.7580  -32.9180 C   0  0  0  0  0  0  0  0  0  0  0  0
   -6.6920   17.4610  -32.4350 C   0  0  0  0  0  0  0  0  0  0  0  0
   -5.7430   16.6320  -33.0390 C   0  0  0  0  0  0  0  0  0  0  0  0
   -4.9960   17.0860  -34.1390 C   0  0  0  0  0  0  0  0  0  0  0  0
   -3.9580   16.1880  -34.7640 C   0  0  0  0  0  0  0  0  0  0  0  0
   -4.3920   14.8750  -34.8110 F   0  0  0  0  0  0  0  0  0  0  0  0
   -2.7880   16.2330  -34.0270 F   0  0  0  0  0  0  0  0  0  0  0  0
   -3.6940   16.6180  -36.0500 F   0  0  0  0  0  0  0  0  0  0  0  0
   -5.1870   18.4030  -34.5950 C   0  0  0  0  0  0  0  0  0  0  0  0
   -6.1410   19.2290  -33.9940 C   0  0  0  0  0  0  0  0  0  0  0  0
   -5.8560   21.1500  -31.2240 C   0  0  0  0  0  0  0  0  0  0  0  0
   -5.1620   22.2290  -30.6510 C   0  0  0  0  0  0  0  0  0  0  0  0
   -3.4330   22.0090  -30.3140 S   0  0  0  0  0  0  0  0  0  0  0  0
   -2.7490   23.3490  -30.3120 O   0  0  0  0  0  0  0  0  0  0  0  0
   -3.2220   21.3470  -28.9820 O   0  0  0  0  0  0  0  0  0  0  0  0
   -2.7050   20.9720  -31.5420 C   0  0  0  0  0  0  0  0  0  0  0  0
   -1.6810   20.0740  -31.2040 C   0  0  0  0  0  0  0  0  0  0  0  0
   -1.0570   19.3140  -32.1980 C   0  0  0  0  0  0  0  0  0  0  0  0
   -1.4510   19.4480  -33.5340 C   0  0  0  0  0  0  0  0  0  0  0  0
   -2.4670   20.3430  -33.8740 C   0  0  0  0  0  0  0  0  0  0  0  0
   -3.0910   21.1070  -32.8830 C   0  0  0  0  0  0  0  0  0  0  0  0
   -2.9860   25.2910  -30.4440 H   0  0  0  0  0  0  0  0  0  0  0  0
   -7.8075   24.3994  -30.3714 H   0  0  0  0  0  0  0  0  0  0  0  0
   -9.0137   22.4379  -31.3134 H   0  0  0  0  0  0  0  0  0  0  0  0
   -7.2739   17.0934  -31.5769 H   0  0  0  0  0  0  0  0  0  0  0  0
   -5.5795   15.6161  -32.6502 H   0  0  0  0  0  0  0  0  0  0  0  0
   -4.5816   18.7853  -35.4301 H   0  0  0  0  0  0  0  0  0  0  0  0
   -6.2926   20.2526  -34.3671 H   0  0  0  0  0  0  0  0  0  0  0  0
   -5.3048   20.2386  -31.4989 H   0  0  0  0  0  0  0  0  0  0  0  0
   -1.3685   19.9677  -30.1547 H   0  0  0  0  0  0  0  0  0  0  0  0
   -0.2555   18.6100  -31.9295 H   0  0  0  0  0  0  0  0  0  0  0  0
   -0.9607   18.8488  -34.3154 H   0  0  0  0  0  0  0  0  0  0  0  0
   -2.7774   20.4474  -34.9241 H   0  0  0  0  0  0  0  0  0  0  0  0
   -3.8867   21.8157  -33.1562 H   0  0  0  0  0  0  0  0  0  0  0  0
  1  2  1  0
  2  3  2  0
  2  4  2  0
  2  5  1  0
  5  6  2  0
  6  7  1  0
  7  8  2  0
  8  9  1  0
  9 10  2  0
  9 11  2  0
  9 12  1  0
 12 13  2  0
 13 14  1  0
 14 15  2  0
 15 16  1  0
 16 17  1  0
 16 18  1  0
 16 19  1  0
 15 20  1  0
 20 21  2  0
  8 22  1  0
 22 23  2  0
 23 24  1  0
 24 25  2  0
 24 26  2  0
 24 27  1  0
 27 28  2  0
 28 29  1  0
 29 30  2  0
 30 31  1  0
 31 32  2  0
 23  5  1  0
 32 27  1  0
 21 12  1  0
  1 33  1  0
  6 34  1  0
  7 35  1  0
 13 36  1  0
 14 37  1  0
 20 38  1  0
 21 39  1  0
 22 40  1  0
 28 41  1  0
 29 42  1  0
 30 43  1  0
 31 44  1  0
 32 45  1  0
M  CHG  1   1  -1
M  END
>  <UniqueID>  (15) 
15

>  <SMILES>  (15) 
[NH-]S(=O)(=O)c1ccc(S(=O)(=O)c2ccc(C(F)(F)F)cc2)cc1S(=O)(=O)c1ccccc1

>  <Energy>  (15) 
53.045816216920805

>  <Genealogy>  (15) 
[NH-]S(=O)(=O)c1ccc(S(=O)(=O)c2ccc(C(F)(F)F)cc2)cc1S(=O)(=O)c1ccccc1 (protonated)
[NH-]S(=O)(=O)c1ccc(S(=O)(=O)c2ccc(C(F)(F)F)cc2)cc1S(=O)(=O)c1ccccc1 (3D coordinates assigned)
[NH-]S(=O)(=O)c1ccc(S(=O)(=O)c2ccc(C(F)(F)F)cc2)cc1S(=O)(=O)c1ccccc1 (optimized conformer: 53.045816216920805 kcal/mol)

>  <smiles>  (15) 
NS(=O)(=O)c1ccc(S(=O)(=O)c2ccc(C(F)(F)F)cc2)cc1S(=O)(=O)c1ccccc1

>  <score_type>  (15) 
oracle

>  <origin>  (15) 
adgpu

>  <m_score__min__energy>  (15) 
-13

>  <m_primary>  (15) 
energy

$$$$
15:0
     RDKit          3D

 58 61  0  0  0  0  0  0  0  0999 V2000
   -5.6770   26.0970  -30.1180 O   0  0  0  0  0  0  0  0  0  0  0  0
   -4.7760   25.3080  -30.5000 C   0  0  0  0  0  0  0  0  0  0  0  0
   -4.9960   24.5430  -31.6940 N   0  0  0  0  0  0  0  0  0  0  0  0
   -5.7940   23.3610  -31.8590 C   0  0  0  0  0  0  0  0  0  0  0  0
   -5.1520   22.1700  -32.2180 C   0  0  0  0  0  0  0  0  0  0  0  0
   -5.8830   20.9930  -32.3870 C   0  0  0  0  0  0  0  0  0  0  0  0
   -7.2680   20.9870  -32.1780 C   0  0  0  0  0  0  0  0  0  0  0  0
   -8.1840   19.4830  -32.3350 S   0  0  0  0  0  0  0  0  0  0  0  0
   -8.5160   18.9610  -30.9650 O   0  0  0  0  0  0  0  0  0  0  0  0
   -9.4770   19.7740  -33.0470 O   0  0  0  0  0  0  0  0  0  0  0  0
   -7.2880   18.2490  -33.1950 N   0  0  0  0  0  0  0  0  0  0  0  0
   -6.4730   18.8390  -34.2720 C   0  0  0  0  0  0  0  0  0  0  0  0
   -5.3580   17.8700  -34.6970 C   0  0  0  0  0  0  0  0  0  0  0  0
   -4.4550   17.5300  -33.6510 O   0  0  0  0  0  0  0  0  0  0  0  0
   -5.0010   17.6820  -32.3480 C   0  0  0  0  0  0  0  0  0  0  0  0
   -6.5110   17.3860  -32.2790 C   0  0  0  0  0  0  0  0  0  0  0  0
   -7.9200   22.1850  -31.8540 C   0  0  0  0  0  0  0  0  0  0  0  0
   -7.1920   23.3710  -31.7190 C   0  0  0  0  0  0  0  0  0  0  0  0
   -3.5740   25.2120  -29.7220 N   0  0  0  0  0  0  0  0  0  0  0  0
   -3.0860   24.0820  -28.9840 C   0  0  0  0  0  0  0  0  0  0  0  0
   -3.6140   22.7900  -29.1530 C   0  0  0  0  0  0  0  0  0  0  0  0
   -3.1150   21.7230  -28.3980 C   0  0  0  0  0  0  0  0  0  0  0  0
   -2.0610   21.9280  -27.4940 C   0  0  0  0  0  0  0  0  0  0  0  0
   -1.4270   20.5860  -26.5410 S   0  0  0  0  0  0  0  0  0  0  0  0
   -1.2420   21.0550  -25.1240 O   0  0  0  0  0  0  0  0  0  0  0  0
   -2.4270   19.4640  -26.5370 O   0  0  0  0  0  0  0  0  0  0  0  0
    0.1140   20.0440  -27.1760 N   0  0  0  0  0  0  0  0  0  0  0  0
    0.6220   20.9250  -28.2430 C   0  0  0  0  0  0  0  0  0  0  0  0
   -0.1420   20.7350  -29.5750 C   0  0  0  0  0  0  0  0  0  0  0  0
   -0.8760   19.5240  -29.6390 O   0  0  0  0  0  0  0  0  0  0  0  0
   -0.1070   18.4630  -29.1190 C   0  0  0  0  0  0  0  0  0  0  0  0
    0.0710   18.6260  -27.5980 C   0  0  0  0  0  0  0  0  0  0  0  0
   -1.5050   23.2060  -27.3630 C   0  0  0  0  0  0  0  0  0  0  0  0
   -2.0170   24.2750  -28.1010 C   0  0  0  0  0  0  0  0  0  0  0  0
   -4.0623   22.1616  -32.3682 H   0  0  0  0  0  0  0  0  0  0  0  0
   -5.3697   20.0670  -32.6853 H   0  0  0  0  0  0  0  0  0  0  0  0
   -7.1170   19.0517  -35.1380 H   0  0  0  0  0  0  0  0  0  0  0  0
   -6.0146   19.7681  -33.9025 H   0  0  0  0  0  0  0  0  0  0  0  0
   -5.8257   16.9446  -35.0642 H   0  0  0  0  0  0  0  0  0  0  0  0
   -4.7687   18.3837  -35.4709 H   0  0  0  0  0  0  0  0  0  0  0  0
   -4.4791   16.9921  -31.6686 H   0  0  0  0  0  0  0  0  0  0  0  0
   -4.8629   18.7343  -32.0588 H   0  0  0  0  0  0  0  0  0  0  0  0
   -6.6795   16.3343  -32.5538 H   0  0  0  0  0  0  0  0  0  0  0  0
   -6.8500   17.5887  -31.2524 H   0  0  0  0  0  0  0  0  0  0  0  0
   -9.0099   22.1920  -31.7052 H   0  0  0  0  0  0  0  0  0  0  0  0
   -7.7150   24.3142  -31.5027 H   0  0  0  0  0  0  0  0  0  0  0  0
   -4.4211   22.6177  -29.8803 H   0  0  0  0  0  0  0  0  0  0  0  0
   -3.5504   20.7195  -28.5133 H   0  0  0  0  0  0  0  0  0  0  0  0
    0.5142   21.9708  -27.9195 H   0  0  0  0  0  0  0  0  0  0  0  0
    1.6763   20.6658  -28.4199 H   0  0  0  0  0  0  0  0  0  0  0  0
   -0.8432   21.5738  -29.6967 H   0  0  0  0  0  0  0  0  0  0  0  0
    0.6102   20.6997  -30.3768 H   0  0  0  0  0  0  0  0  0  0  0  0
   -0.6174   17.5105  -29.3244 H   0  0  0  0  0  0  0  0  0  0  0  0
    0.8834   18.4713  -29.5977 H   0  0  0  0  0  0  0  0  0  0  0  0
   -0.7714   18.1333  -27.0904 H   0  0  0  0  0  0  0  0  0  0  0  0
    1.0339   18.1692  -27.3256 H   0  0  0  0  0  0  0  0  0  0  0  0
   -0.6615   23.3687  -26.6760 H   0  0  0  0  0  0  0  0  0  0  0  0
   -1.5769   25.2767  -27.9877 H   0  0  0  0  0  0  0  0  0  0  0  0
  1  2  2  0
  2  3  1  0
  3  4  1  0
  4  5  2  0
  5  6  1  0
  6  7  2  0
  7  8  1  0
  8  9  2  0
  8 10  2  0
  8 11  1  0
 11 12  1  0
 12 13  1  0
 13 14  1  0
 14 15  1  0
 15 16  1  0
  7 17  1  0
 17 18  2  0
  2 19  1  0
 19 20  1  0
 20 21  2  0
 21 22  1  0
 22 23  2  0
 23 24  1  0
 24 25  2  0
 24 26  2  0
 24 27  1  0
 27 28  1  0
 28 29  1  0
 29 30  1  0
 30 31  1  0
 31 32  1  0
 23 33  1  0
 33 34  2  0
 18  4  1  0
 34 20  1  0
 16 11  1  0
 32 27  1  0
  5 35  1  0
  6 36  1  0
 12 37  1  0
 12 38  1  0
 13 39  1  0
 13 40  1  0
 15 41  1  0
 15 42  1  0
 16 43  1  0
 16 44  1  0
 17 45  1  0
 18 46  1  0
 21 47  1  0
 22 48  1  0
 28 49  1  0
 28 50  1  0
 29 51  1  0
 29 52  1  0
 31 53  1  0
 31 54  1  0
 32 55  1  0
 32 56  1  0
 33 57  1  0
 34 58  1  0
M  CHG  2   3  -1  19  -1
M  END
>  <UniqueID>  (16) 
16

>  <SMILES>  (16) 
O=C([N-]c1ccc(S(=O)(=O)N2CCOCC2)cc1)[N-]c1ccc(S(=O)(=O)N2CCOCC2)cc1

>  <Energy>  (16) 
87.40102642687278

>  <Genealogy>  (16) 
O=C([N-]c1ccc(S(=O)(=O)N2CCOCC2)cc1)[N-]c1ccc(S(=O)(=O)N2CCOCC2)cc1 (protonated)
O=C([N-]c1ccc(S(=O)(=O)N2CCOCC2)cc1)[N-]c1ccc(S(=O)(=O)N2CCOCC2)cc1 (3D coordinates assigned)
O=C([N-]c1ccc(S(=O)(=O)N2CCOCC2)cc1)[N-]c1ccc(S(=O)(=O)N2CCOCC2)cc1 (nonaromatic ring conformer: 87.40102642687278 kcal/mol)

>  <smiles>  (16) 
O=C(Nc1ccc(S(=O)(=O)N2CCOCC2)cc1)Nc1ccc(S(=O)(=O)N2CCOCC2)cc1

>  <score_type>  (16) 
oracle

>  <origin>  (16) 
adgpu

>  <m_score__min__energy>  (16) 
-12.529999999999999

>  <m_primary>  (16) 
energy

$$$$
16:0
     RDKit          3D

 51 54  0  0  0  0  0  0  0  0999 V2000
   -9.9250   21.3470  -32.2820 C   0  0  0  0  0  0  0  0  0  0  0  0
   -8.5270   21.7250  -31.8670 C   0  0  0  0  0  0  0  0  0  0  0  0
   -8.2460   23.0730  -31.5910 C   0  0  0  0  0  0  0  0  0  0  0  0
   -6.9600   23.4750  -31.2310 C   0  0  0  0  0  0  0  0  0  0  0  0
   -5.9270   22.5380  -31.1540 C   0  0  0  0  0  0  0  0  0  0  0  0
   -4.3070   23.0320  -30.6770 S   0  0  0  0  0  0  0  0  0  0  0  0
   -4.0670   22.7000  -29.2310 O   0  0  0  0  0  0  0  0  0  0  0  0
   -4.1590   24.5190  -30.8450 O   0  0  0  0  0  0  0  0  0  0  0  0
   -3.1330   22.1930  -31.6850 C   0  0  0  0  0  0  0  0  0  0  0  0
   -1.8580   21.8950  -31.1850 C   0  0  0  0  0  0  0  0  0  0  0  0
   -0.9360   21.2070  -31.9800 C   0  0  0  0  0  0  0  0  0  0  0  0
   -1.2860   20.8090  -33.2740 C   0  0  0  0  0  0  0  0  0  0  0  0
   -2.5600   21.0970  -33.7730 C   0  0  0  0  0  0  0  0  0  0  0  0
   -3.4840   21.7850  -32.9810 C   0  0  0  0  0  0  0  0  0  0  0  0
   -6.1900   21.1920  -31.4320 C   0  0  0  0  0  0  0  0  0  0  0  0
   -7.4790   20.7710  -31.7960 C   0  0  0  0  0  0  0  0  0  0  0  0
   -7.7430   19.0560  -32.1590 S   0  0  0  0  0  0  0  0  0  0  0  0
   -8.9750   18.9200  -33.0080 O   0  0  0  0  0  0  0  0  0  0  0  0
   -7.9510   18.2750  -30.8910 O   0  0  0  0  0  0  0  0  0  0  0  0
   -6.3370   18.3910  -32.9850 C   0  0  0  0  0  0  0  0  0  0  0  0
   -6.4820   17.6740  -34.1790 C   0  0  0  0  0  0  0  0  0  0  0  0
   -5.3570   17.1660  -34.8380 C   0  0  0  0  0  0  0  0  0  0  0  0
   -4.0700   17.3690  -34.3040 C   0  0  0  0  0  0  0  0  0  0  0  0
   -3.9350   18.0700  -33.0930 C   0  0  0  0  0  0  0  0  0  0  0  0
   -5.0600   18.5870  -32.4450 C   0  0  0  0  0  0  0  0  0  0  0  0
   -2.6650   18.2580  -32.5380 O   0  0  0  0  0  0  0  0  0  0  0  0
   -1.5270   17.5440  -33.0190 C   0  0  0  0  0  0  0  0  0  0  0  0
   -1.5770   17.4380  -34.5450 C   0  0  0  0  0  0  0  0  0  0  0  0
   -2.8770   16.8930  -34.9680 N   0  0  0  0  0  0  0  0  0  0  0  0
   -2.9410   15.8910  -36.0350 C   0  0  0  0  0  0  0  0  0  0  0  0
  -10.5410   21.1804  -31.3860 H   0  0  0  0  0  0  0  0  0  0  0  0
  -10.3618   22.1593  -32.8815 H   0  0  0  0  0  0  0  0  0  0  0  0
   -9.8929   20.4253  -32.8815 H   0  0  0  0  0  0  0  0  0  0  0  0
   -9.0499   23.8207  -31.6596 H   0  0  0  0  0  0  0  0  0  0  0  0
   -6.7586   24.5330  -31.0071 H   0  0  0  0  0  0  0  0  0  0  0  0
   -1.5822   22.2028  -30.1656 H   0  0  0  0  0  0  0  0  0  0  0  0
    0.0657   20.9786  -31.5870 H   0  0  0  0  0  0  0  0  0  0  0  0
   -0.5593   20.2695  -33.8992 H   0  0  0  0  0  0  0  0  0  0  0  0
   -2.8356   20.7818  -34.7902 H   0  0  0  0  0  0  0  0  0  0  0  0
   -4.4872   22.0067  -33.3741 H   0  0  0  0  0  0  0  0  0  0  0  0
   -5.3766   20.4545  -31.3645 H   0  0  0  0  0  0  0  0  0  0  0  0
   -7.4845   17.5094  -34.6007 H   0  0  0  0  0  0  0  0  0  0  0  0
   -5.4785   16.6059  -35.7769 H   0  0  0  0  0  0  0  0  0  0  0  0
   -4.9420   19.1499  -31.5074 H   0  0  0  0  0  0  0  0  0  0  0  0
   -0.6115   18.0762  -32.7214 H   0  0  0  0  0  0  0  0  0  0  0  0
   -1.5294   16.5319  -32.5882 H   0  0  0  0  0  0  0  0  0  0  0  0
   -1.4402   18.4371  -34.9845 H   0  0  0  0  0  0  0  0  0  0  0  0
   -0.7750   16.7675  -34.8874 H   0  0  0  0  0  0  0  0  0  0  0  0
   -3.0052   14.8865  -35.5913 H   0  0  0  0  0  0  0  0  0  0  0  0
   -3.8293   16.0744  -36.6574 H   0  0  0  0  0  0  0  0  0  0  0  0
   -2.0366   15.9599  -36.6574 H   0  0  0  0  0  0  0  0  0  0  0  0
  1  2  1  0
  2  3  2  0
  3  4  1  0
  4  5  2  0
  5  6  1  0
  6  7  2  0
  6  8  2  0
  6  9  1  0
  9 10  2  0
 10 11  1  0
 11 12  2  0
 12 13  1  0
 13 14  2  0
  5 15  1  0
 15 16  2  0
 16 17  1  0
 17 18  2  0
 17 19  2  0
 17 20  1  0
 20 21  2  0
 21 22  1  0
 22 23  2  0
 23 24  1  0
 24 25  2  0
 24 26  1  0
 26 27  1  0
 27 28  1  0
 28 29  1  0
 29 30  1  0
 16  2  1  0
 25 20  1  0
 14  9  1  0
 29 23  1  0
  1 31  1  0
  1 32  1  0
  1 33  1  0
  3 34  1  0
  4 35  1  0
 10 36  1  0
 11 37  1  0
 12 38  1  0
 13 39  1  0
 14 40  1  0
 15 41  1  0
 21 42  1  0
 22 43  1  0
 25 44  1  0
 27 45  1  0
 27 46  1  0
 28 47  1  0
 28 48  1  0
 30 49  1  0
 30 50  1  0
 30 51  1  0
M  END
>  <UniqueID>  (17) 
17

>  <SMILES>  (17) 
Cc1ccc(S(=O)(=O)c2ccccc2)cc1S(=O)(=O)c1ccc2c(c1)OCCN2C

>  <Energy>  (17) 
60.01888702102973

>  <Genealogy>  (17) 
Cc1ccc(S(=O)(=O)c2ccccc2)cc1S(=O)(=O)c1ccc2c(c1)OCCN2C (3D coordinates assigned)
Cc1ccc(S(=O)(=O)c2ccccc2)cc1S(=O)(=O)c1ccc2c(c1)OCCN2C (nonaromatic ring conformer: 60.01888702102973 kcal/mol)

>  <smiles>  (17) 
Cc1ccc(S(=O)(=O)c2ccccc2)cc1S(=O)(=O)c1ccc2c(c1)OCCN2C

>  <score_type>  (17) 
oracle

>  <origin>  (17) 
adgpu

>  <m_score__min__energy>  (17) 
-10.550000000000001

>  <m_primary>  (17) 
energy

$$$$
17:0
     RDKit          3D

 54 57  0  0  0  0  0  0  0  0999 V2000
   -3.5040   21.3920  -29.0640 O   0  0  0  0  0  0  0  0  0  0  0  0
   -3.6010   22.5840  -29.4700 C   0  0  0  0  0  0  0  0  0  0  0  0
   -2.7150   23.5400  -28.9720 C   0  0  0  0  0  0  0  0  0  0  0  0
   -2.8120   24.8450  -29.4390 C   0  0  0  0  0  0  0  0  0  0  0  0
   -1.9470   25.8230  -28.9670 O   0  0  0  0  0  0  0  0  0  0  0  0
   -3.7520   25.1640  -30.3620 N   0  0  0  0  0  0  0  0  0  0  0  0
   -4.6160   24.2310  -30.8400 C   0  0  0  0  0  0  0  0  0  0  0  0
   -5.4850   24.5830  -31.6850 O   0  0  0  0  0  0  0  0  0  0  0  0
   -4.5490   22.9340  -30.3960 N   0  0  0  0  0  0  0  0  0  0  0  0
   -5.4910   21.9530  -30.8830 C   0  0  0  0  0  0  0  0  0  0  0  0
   -5.0540   20.6670  -31.2390 C   0  0  0  0  0  0  0  0  0  0  0  0
   -5.9700   19.6980  -31.6540 C   0  0  0  0  0  0  0  0  0  0  0  0
   -7.3350   20.0020  -31.7220 C   0  0  0  0  0  0  0  0  0  0  0  0
   -8.5190   18.7610  -32.1250 S   0  0  0  0  0  0  0  0  0  0  0  0
   -9.5530   19.2950  -33.0780 O   0  0  0  0  0  0  0  0  0  0  0  0
   -9.2030   18.3160  -30.8630 O   0  0  0  0  0  0  0  0  0  0  0  0
   -7.7070   17.4110  -32.8520 N   0  0  0  0  0  0  0  0  0  0  0  0
   -6.3170   17.4550  -33.2100 C   0  0  0  0  0  0  0  0  0  0  0  0
   -5.3790   16.7550  -32.4360 C   0  0  0  0  0  0  0  0  0  0  0  0
   -4.0140   16.8450  -32.7240 C   0  0  0  0  0  0  0  0  0  0  0  0
   -3.5720   17.6260  -33.7980 C   0  0  0  0  0  0  0  0  0  0  0  0
   -1.8450   17.7920  -34.1040 S   0  0  0  0  0  0  0  0  0  0  0  0
   -1.5310   17.4050  -35.5230 O   0  0  0  0  0  0  0  0  0  0  0  0
   -1.1000   16.8710  -33.1760 O   0  0  0  0  0  0  0  0  0  0  0  0
   -1.3550   19.4440  -33.8180 N   0  0  0  0  0  0  0  0  0  0  0  0
   -0.1740   19.5080  -32.9190 C   0  0  0  0  0  0  0  0  0  0  0  0
   -0.5300   19.9210  -31.4840 C   0  0  0  0  0  0  0  0  0  0  0  0
   -1.2270   21.2930  -31.4570 C   0  0  0  0  0  0  0  0  0  0  0  0
   -2.0760   21.5530  -32.7140 C   0  0  0  0  0  0  0  0  0  0  0  0
   -2.5180   20.2400  -33.3650 C   0  0  0  0  0  0  0  0  0  0  0  0
   -4.5060   18.2970  -34.5970 C   0  0  0  0  0  0  0  0  0  0  0  0
   -5.8700   18.2060  -34.3100 C   0  0  0  0  0  0  0  0  0  0  0  0
   -7.7740   21.2920  -31.3910 C   0  0  0  0  0  0  0  0  0  0  0  0
   -6.8580   22.2620  -30.9730 C   0  0  0  0  0  0  0  0  0  0  0  0
   -1.9554   23.2661  -28.2250 H   0  0  0  0  0  0  0  0  0  0  0  0
   -3.9829   20.4211  -31.1907 H   0  0  0  0  0  0  0  0  0  0  0  0
   -5.6179   18.6926  -31.9284 H   0  0  0  0  0  0  0  0  0  0  0  0
   -8.1930   16.4870  -32.8160 H   0  0  0  0  0  0  0  0  0  0  0  0
   -5.7201   16.1311  -31.5968 H   0  0  0  0  0  0  0  0  0  0  0  0
   -3.2856   16.3007  -32.1050 H   0  0  0  0  0  0  0  0  0  0  0  0
    0.2982   18.5149  -32.8904 H   0  0  0  0  0  0  0  0  0  0  0  0
    0.5034   20.2752  -33.3222 H   0  0  0  0  0  0  0  0  0  0  0  0
   -1.2039   19.1675  -31.0504 H   0  0  0  0  0  0  0  0  0  0  0  0
    0.3999   19.9909  -30.9005 H   0  0  0  0  0  0  0  0  0  0  0  0
   -1.8821   21.3375  -30.5745 H   0  0  0  0  0  0  0  0  0  0  0  0
   -0.4426   22.0634  -31.4208 H   0  0  0  0  0  0  0  0  0  0  0  0
   -2.9680   22.1313  -32.4312 H   0  0  0  0  0  0  0  0  0  0  0  0
   -1.4646   22.1120  -33.4377 H   0  0  0  0  0  0  0  0  0  0  0  0
   -3.0906   19.6522  -32.6325 H   0  0  0  0  0  0  0  0  0  0  0  0
   -3.1368   20.4794  -34.2424 H   0  0  0  0  0  0  0  0  0  0  0  0
   -4.1646   18.8975  -35.4531 H   0  0  0  0  0  0  0  0  0  0  0  0
   -6.5988   18.7257  -34.9493 H   0  0  0  0  0  0  0  0  0  0  0  0
   -8.8430   21.5417  -31.4605 H   0  0  0  0  0  0  0  0  0  0  0  0
   -7.2095   23.2715  -30.7135 H   0  0  0  0  0  0  0  0  0  0  0  0
  1  2  2  0
  2  3  1  0
  3  4  2  0
  4  5  1  0
  4  6  1  0
  6  7  1  0
  7  8  2  0
  7  9  1  0
  9 10  1  0
 10 11  2  0
 11 12  1  0
 12 13  2  0
 13 14  1  0
 14 15  2  0
 14 16  2  0
 14 17  1  0
 17 18  1  0
 18 19  2  0
 19 20  1  0
 20 21  2  0
 21 22  1  0
 22 23  2  0
 22 24  2  0
 22 25  1  0
 25 26  1  0
 26 27  1  0
 27 28  1  0
 28 29  1  0
 29 30  1  0
 21 31  1  0
 31 32  2  0
 13 33  1  0
 33 34  2  0
  9  2  1  0
 34 10  1  0
 32 18  1  0
 30 25  1  0
  3 35  1  0
 11 36  1  0
 12 37  1  0
 17 38  1  0
 19 39  1  0
 20 40  1  0
 26 41  1  0
 26 42  1  0
 27 43  1  0
 27 44  1  0
 28 45  1  0
 28 46  1  0
 29 47  1  0
 29 48  1  0
 30 49  1  0
 30 50  1  0
 31 51  1  0
 32 52  1  0
 33 53  1  0
 34 54  1  0
M  CHG  2   5  -1   6  -1
M  END
>  <UniqueID>  (18) 
18

>  <SMILES>  (18) 
O=c1cc([O-])[n-]c(=O)n1-c1ccc(S(=O)(=O)Nc2ccc(S(=O)(=O)N3CCCCC3)cc2)cc1

>  <Energy>  (18) 
75.39278797245277

>  <Genealogy>  (18) 
O=c1cc([O-])[n-]c(=O)n1-c1ccc(S(=O)(=O)Nc2ccc(S(=O)(=O)N3CCCCC3)cc2)cc1 (protonated)
O=c1cc([O-])[n-]c(=O)n1-c1ccc(S(=O)(=O)Nc2ccc(S(=O)(=O)N3CCCCC3)cc2)cc1 (3D coordinates assigned)
O=c1cc([O-])[n-]c(=O)n1-c1ccc(S(=O)(=O)Nc2ccc(S(=O)(=O)N3CCCCC3)cc2)cc1 (nonaromatic ring conformer: 75.39278797245277 kcal/mol)

>  <smiles>  (18) 
O=c1cc(O)[nH]c(=O)n1-c1ccc(S(=O)(=O)Nc2ccc(S(=O)(=O)N3CCCCC3)cc2)cc1

>  <score_type>  (18) 
oracle

>  <origin>  (18) 
adgpu

>  <m_score__min__energy>  (18) 
-13.59

>  <m_primary>  (18) 
energy

$$$$
18:0
     RDKit          3D

 38 41  0  0  0  0  0  0  0  0999 V2000
   -9.0300   18.7730  -32.1670 O   0  0  0  0  0  0  0  0  0  0  0  0
   -8.2070   19.6910  -31.9170 C   0  0  0  0  0  0  0  0  0  0  0  0
   -6.8740   19.5510  -32.1320 N   0  0  0  0  0  0  0  0  0  0  0  0
   -6.4010   20.7420  -31.7370 C   0  0  0  0  0  0  0  0  0  0  0  0
   -5.0760   21.1720  -31.7290 C   0  0  0  0  0  0  0  0  0  0  0  0
   -4.8130   22.4720  -31.2610 C   0  0  0  0  0  0  0  0  0  0  0  0
   -5.8690   23.3030  -30.8130 C   0  0  0  0  0  0  0  0  0  0  0  0
   -5.5070   24.9090  -30.1910 S   0  0  0  0  0  0  0  0  0  0  0  0
   -6.7710   25.6730  -29.9130 O   0  0  0  0  0  0  0  0  0  0  0  0
   -4.7000   25.6530  -31.2170 O   0  0  0  0  0  0  0  0  0  0  0  0
   -4.5880   24.7760  -28.7230 N   0  0  0  0  0  0  0  0  0  0  0  0
   -3.4610   23.8930  -28.5720 C   0  0  0  0  0  0  0  0  0  0  0  0
   -3.6260   22.5730  -28.1150 C   0  0  0  0  0  0  0  0  0  0  0  0
   -2.5250   21.7130  -27.9890 C   0  0  0  0  0  0  0  0  0  0  0  0
   -1.2400   22.1700  -28.3420 C   0  0  0  0  0  0  0  0  0  0  0  0
   -1.0690   23.4950  -28.7630 C   0  0  0  0  0  0  0  0  0  0  0  0
   -2.1680   24.3500  -28.8830 C   0  0  0  0  0  0  0  0  0  0  0  0
   -1.9650   25.6540  -29.3210 O   0  0  0  0  0  0  0  0  0  0  0  0
   -0.0300   21.2790  -28.1710 C   0  0  0  0  0  0  0  0  0  0  0  0
   -0.3850   19.8530  -28.1500 N   0  0  0  0  0  0  0  0  0  0  0  0
   -1.4410   19.5960  -27.1630 C   0  0  0  0  0  0  0  0  0  0  0  0
   -2.7500   20.2840  -27.5680 C   0  0  0  0  0  0  0  0  0  0  0  0
   -7.1990   22.8300  -30.8410 C   0  0  0  0  0  0  0  0  0  0  0  0
   -7.4190   21.5380  -31.3110 C   0  0  0  0  0  0  0  0  0  0  0  0
   -8.5890   20.8920  -31.4140 N   0  0  0  0  0  0  0  0  0  0  0  0
   -4.2633   20.5173  -32.0768 H   0  0  0  0  0  0  0  0  0  0  0  0
   -3.7788   22.8464  -31.2427 H   0  0  0  0  0  0  0  0  0  0  0  0
   -4.8070   25.4660  -27.9700 H   0  0  0  0  0  0  0  0  0  0  0  0
   -4.6310   22.2106  -27.8531 H   0  0  0  0  0  0  0  0  0  0  0  0
   -0.0611   23.8657  -29.0012 H   0  0  0  0  0  0  0  0  0  0  0  0
    0.6624   21.4588  -29.0066 H   0  0  0  0  0  0  0  0  0  0  0  0
    0.4341   21.5242  -27.2043 H   0  0  0  0  0  0  0  0  0  0  0  0
   -0.7270   19.5730  -29.0990 H   0  0  0  0  0  0  0  0  0  0  0  0
   -1.6113   18.5116  -27.0924 H   0  0  0  0  0  0  0  0  0  0  0  0
   -1.1188   19.9992  -26.1916 H   0  0  0  0  0  0  0  0  0  0  0  0
   -3.1973   19.7318  -28.4077 H   0  0  0  0  0  0  0  0  0  0  0  0
   -3.4189   20.2865  -26.6948 H   0  0  0  0  0  0  0  0  0  0  0  0
   -8.0338   23.4614  -30.5027 H   0  0  0  0  0  0  0  0  0  0  0  0
  1  2  2  0
  2  3  1  0
  3  4  1  0
  4  5  2  0
  5  6  1  0
  6  7  2  0
  7  8  1  0
  8  9  2  0
  8 10  2  0
  8 11  1  0
 11 12  1  0
 12 13  2  0
 13 14  1  0
 14 15  2  0
 15 16  1  0
 16 17  2  0
 17 18  1  0
 15 19  1  0
 19 20  1  0
 20 21  1  0
 21 22  1  0
  7 23  1  0
 23 24  2  0
 24 25  1  0
 25  2  1  0
 24  4  1  0
 17 12  1  0
 22 14  1  0
  5 26  1  0
  6 27  1  0
 11 28  1  0
 13 29  1  0
 16 30  1  0
 19 31  1  0
 19 32  1  0
 20 33  1  0
 21 34  1  0
 21 35  1  0
 22 36  1  0
 22 37  1  0
 23 38  1  0
M  CHG  3   3  -1  18  -1  25  -1
M  END
>  <UniqueID>  (19) 
19

>  <SMILES>  (19) 
O=c1[n-]c2ccc(S(=O)(=O)Nc3cc4c(cc3[O-])CNCC4)cc2[n-]1

>  <Energy>  (19) 
82.01745537148594

>  <Genealogy>  (19) 
O=c1[n-]c2ccc(S(=O)(=O)Nc3cc4c(cc3[O-])CNCC4)cc2[n-]1 (protonated)
O=c1[n-]c2ccc(S(=O)(=O)Nc3cc4c(cc3[O-])CNCC4)cc2[n-]1 (3D coordinates assigned)
O=c1[n-]c2ccc(S(=O)(=O)Nc3cc4c(cc3[O-])CNCC4)cc2[n-]1 (nonaromatic ring conformer: 82.01745537148594 kcal/mol)

>  <smiles>  (19) 
O=c1[nH]c2ccc(S(=O)(=O)Nc3cc4c(cc3O)CNCC4)cc2[nH]1

>  <score_type>  (19) 
oracle

>  <origin>  (19) 
adgpu

>  <m_score__min__energy>  (19) 
-12.32

>  <m_primary>  (19) 
energy

$$$$
19:0
     RDKit          3D

 48 51  0  0  0  0  0  0  0  0999 V2000
   -6.9630   25.0540  -29.7420 C   0  0  0  0  0  0  0  0  0  0  0  0
   -5.5350   24.7800  -30.0700 C   0  0  0  0  0  0  0  0  0  0  0  0
   -4.8850   23.5760  -29.9110 C   0  0  0  0  0  0  0  0  0  0  0  0
   -3.5800   23.8610  -30.2690 C   0  0  0  0  0  0  0  0  0  0  0  0
   -2.4270   22.9330  -30.3020 C   0  0  0  0  0  0  0  0  0  0  0  0
   -1.6830   22.7060  -29.1310 C   0  0  0  0  0  0  0  0  0  0  0  0
   -0.5860   21.8440  -29.1460 C   0  0  0  0  0  0  0  0  0  0  0  0
   -0.2150   21.2010  -30.3270 C   0  0  0  0  0  0  0  0  0  0  0  0
   -0.9410   21.4150  -31.5040 C   0  0  0  0  0  0  0  0  0  0  0  0
   -0.4320   20.6270  -32.9940 S   0  0  0  0  0  0  0  0  0  0  0  0
    0.7110   21.4010  -33.5830 O   0  0  0  0  0  0  0  0  0  0  0  0
    0.0200   19.2180  -32.7320 O   0  0  0  0  0  0  0  0  0  0  0  0
   -1.7520   20.6040  -34.1200 N   0  0  0  0  0  0  0  0  0  0  0  0
   -3.1090   20.2950  -33.7540 C   0  0  0  0  0  0  0  0  0  0  0  0
   -3.9960   21.3420  -33.4700 C   0  0  0  0  0  0  0  0  0  0  0  0
   -5.3150   21.0780  -33.0940 C   0  0  0  0  0  0  0  0  0  0  0  0
   -5.7830   19.7530  -32.9930 C   0  0  0  0  0  0  0  0  0  0  0  0
   -7.1460   19.4760  -32.5940 N   0  0  0  0  0  0  0  0  0  0  0  0
   -7.5750   18.2340  -31.9690 C   0  0  0  0  0  0  0  0  0  0  0  0
   -9.0940   18.3060  -31.8930 C   0  0  0  0  0  0  0  0  0  0  0  0
   -9.4500   19.7750  -32.0840 C   0  0  0  0  0  0  0  0  0  0  0  0
   -8.2510   20.4050  -32.7790 C   0  0  0  0  0  0  0  0  0  0  0  0
   -4.8920   18.7040  -33.2920 C   0  0  0  0  0  0  0  0  0  0  0  0
   -3.5740   18.9710  -33.6720 C   0  0  0  0  0  0  0  0  0  0  0  0
   -2.0480   22.2750  -31.4880 C   0  0  0  0  0  0  0  0  0  0  0  0
   -3.5070   25.1350  -30.5900 O   0  0  0  0  0  0  0  0  0  0  0  0
   -4.6620   25.7210  -30.4760 N   0  0  0  0  0  0  0  0  0  0  0  0
   -7.0901   25.0784  -28.6496 H   0  0  0  0  0  0  0  0  0  0  0  0
   -7.2571   26.0250  -30.1672 H   0  0  0  0  0  0  0  0  0  0  0  0
   -7.5956   24.2608  -30.1672 H   0  0  0  0  0  0  0  0  0  0  0  0
   -5.3046   22.6152  -29.5781 H   0  0  0  0  0  0  0  0  0  0  0  0
   -1.9677   23.2115  -28.1964 H   0  0  0  0  0  0  0  0  0  0  0  0
   -0.0120   21.6709  -28.2238 H   0  0  0  0  0  0  0  0  0  0  0  0
    0.6514   20.5233  -30.3331 H   0  0  0  0  0  0  0  0  0  0  0  0
   -1.5520   20.9350  -35.0910 H   0  0  0  0  0  0  0  0  0  0  0  0
   -3.6496   22.3834  -33.5440 H   0  0  0  0  0  0  0  0  0  0  0  0
   -5.9958   21.9137  -32.8744 H   0  0  0  0  0  0  0  0  0  0  0  0
   -7.2631   17.3722  -32.5773 H   0  0  0  0  0  0  0  0  0  0  0  0
   -7.1270   18.1085  -30.9723 H   0  0  0  0  0  0  0  0  0  0  0  0
   -9.5467   17.6956  -32.6883 H   0  0  0  0  0  0  0  0  0  0  0  0
   -9.4702   17.9196  -30.9342 H   0  0  0  0  0  0  0  0  0  0  0  0
  -10.3500   19.8730  -32.7088 H   0  0  0  0  0  0  0  0  0  0  0  0
   -9.6667   20.2673  -31.1245 H   0  0  0  0  0  0  0  0  0  0  0  0
   -8.4592   20.5428  -33.8503 H   0  0  0  0  0  0  0  0  0  0  0  0
   -8.0184   21.3959  -32.3618 H   0  0  0  0  0  0  0  0  0  0  0  0
   -5.2378   17.6619  -33.2256 H   0  0  0  0  0  0  0  0  0  0  0  0
   -2.8951   18.1385  -33.9088 H   0  0  0  0  0  0  0  0  0  0  0  0
   -2.6257   22.4373  -32.4099 H   0  0  0  0  0  0  0  0  0  0  0  0
  1  2  1  0
  2  3  1  0
  3  4  2  0
  4  5  1  0
  5  6  2  0
  6  7  1  0
  7  8  2  0
  8  9  1  0
  9 10  1  0
 10 11  2  0
 10 12  2  0
 10 13  1  0
 13 14  1  0
 14 15  2  0
 15 16  1  0
 16 17  2  0
 17 18  1  0
 18 19  1  0
 19 20  1  0
 20 21  1  0
 21 22  1  0
 17 23  1  0
 23 24  2  0
  9 25  2  0
  4 26  1  0
 26 27  1  0
 27  2  2  0
 25  5  1  0
 24 14  1  0
 22 18  1  0
  1 28  1  0
  1 29  1  0
  1 30  1  0
  3 31  1  0
  6 32  1  0
  7 33  1  0
  8 34  1  0
 13 35  1  0
 15 36  1  0
 16 37  1  0
 19 38  1  0
 19 39  1  0
 20 40  1  0
 20 41  1  0
 21 42  1  0
 21 43  1  0
 22 44  1  0
 22 45  1  0
 23 46  1  0
 24 47  1  0
 25 48  1  0
M  END
>  <UniqueID>  (20) 
20

>  <SMILES>  (20) 
Cc1cc(-c2cccc(S(=O)(=O)Nc3ccc(N4CCCC4)cc3)c2)on1

>  <Energy>  (20) 
84.70424963719057

>  <Genealogy>  (20) 
Cc1cc(-c2cccc(S(=O)(=O)Nc3ccc(N4CCCC4)cc3)c2)on1 (3D coordinates assigned)
Cc1cc(-c2cccc(S(=O)(=O)Nc3ccc(N4CCCC4)cc3)c2)on1 (nonaromatic ring conformer: 84.70424963719057 kcal/mol)

>  <smiles>  (20) 
Cc1cc(-c2cccc(S(=O)(=O)Nc3ccc(N4CCCC4)cc3)c2)on1

>  <score_type>  (20) 
oracle

>  <origin>  (20) 
adgpu

>  <m_score__min__energy>  (20) 
-10.23

>  <m_primary>  (20) 
energy

$$$$
20:0
     RDKit          3D

 57 61  0  0  0  0  0  0  0  0999 V2000
    2.0400   24.5480  -27.8110 C   0  0  0  0  0  0  0  0  0  0  0  0
    0.6910   24.9160  -28.0760 O   0  0  0  0  0  0  0  0  0  0  0  0
   -0.1900   25.4590  -27.1290 C   0  0  0  0  0  0  0  0  0  0  0  0
    0.1440   26.5990  -26.3680 C   0  0  0  0  0  0  0  0  0  0  0  0
   -0.7480   27.0970  -25.4160 C   0  0  0  0  0  0  0  0  0  0  0  0
   -1.9770   26.4700  -25.2100 C   0  0  0  0  0  0  0  0  0  0  0  0
   -2.3220   25.3430  -25.9610 C   0  0  0  0  0  0  0  0  0  0  0  0
   -1.4360   24.8340  -26.9250 C   0  0  0  0  0  0  0  0  0  0  0  0
   -1.7970   23.6730  -27.6940 N   0  0  0  0  0  0  0  0  0  0  0  0
   -0.9970   22.4570  -27.6380 C   0  0  0  0  0  0  0  0  0  0  0  0
   -0.9970   21.7000  -28.9830 C   0  0  0  0  0  0  0  0  0  0  0  0
   -2.0250   22.1040  -29.9750 N   0  0  0  0  0  0  0  0  0  0  0  0
   -1.9750   21.5450  -31.3280 C   0  0  0  0  0  0  0  0  0  0  0  0
   -0.7770   21.5580  -32.0890 C   0  0  0  0  0  0  0  0  0  0  0  0
   -0.7670   21.0200  -33.3930 C   0  0  0  0  0  0  0  0  0  0  0  0
    0.4940   21.0210  -34.1990 C   0  0  0  0  0  0  0  0  0  0  0  0
   -1.9000   20.4760  -33.9190 N   0  0  0  0  0  0  0  0  0  0  0  0
   -3.0290   20.4680  -33.1760 C   0  0  0  0  0  0  0  0  0  0  0  0
   -4.2100   19.9670  -33.5720 N   0  0  0  0  0  0  0  0  0  0  0  0
   -4.9760   20.2120  -32.4770 C   0  0  0  0  0  0  0  0  0  0  0  0
   -6.4020   19.8360  -32.3730 C   0  0  0  0  0  0  0  0  0  0  0  0
   -6.7870   18.4850  -32.4370 C   0  0  0  0  0  0  0  0  0  0  0  0
   -8.1340   18.1290  -32.3400 C   0  0  0  0  0  0  0  0  0  0  0  0
   -9.1110   19.1130  -32.1810 C   0  0  0  0  0  0  0  0  0  0  0  0
   -8.7460   20.4670  -32.1300 C   0  0  0  0  0  0  0  0  0  0  0  0
   -9.7870   21.5320  -31.9400 C   0  0  0  0  0  0  0  0  0  0  0  0
   -7.3910   20.8220  -32.2170 C   0  0  0  0  0  0  0  0  0  0  0  0
   -4.2920   20.8280  -31.4820 N   0  0  0  0  0  0  0  0  0  0  0  0
   -3.0640   20.9790  -31.9390 N   0  0  0  0  0  0  0  0  0  0  0  0
   -3.0390   23.1450  -29.6940 C   0  0  0  0  0  0  0  0  0  0  0  0
   -3.1380   23.5300  -28.2300 C   0  0  0  0  0  0  0  0  0  0  0  0
    2.2012   24.5040  -26.7238 H   0  0  0  0  0  0  0  0  0  0  0  0
    2.2443   23.5613  -28.2522 H   0  0  0  0  0  0  0  0  0  0  0  0
    2.7171   25.2943  -28.2522 H   0  0  0  0  0  0  0  0  0  0  0  0
    1.1116   27.0979  -26.5253 H   0  0  0  0  0  0  0  0  0  0  0  0
   -0.4807   27.9865  -24.8267 H   0  0  0  0  0  0  0  0  0  0  0  0
   -2.6750   26.8629  -24.4560 H   0  0  0  0  0  0  0  0  0  0  0  0
   -3.2924   24.8519  -25.7964 H   0  0  0  0  0  0  0  0  0  0  0  0
    0.0386   22.7252  -27.3818 H   0  0  0  0  0  0  0  0  0  0  0  0
   -1.4378   21.7961  -26.8772 H   0  0  0  0  0  0  0  0  0  0  0  0
   -0.0104   21.8452  -29.4473 H   0  0  0  0  0  0  0  0  0  0  0  0
   -1.2354   20.6569  -28.7279 H   0  0  0  0  0  0  0  0  0  0  0  0
    0.1419   21.9868  -31.6628 H   0  0  0  0  0  0  0  0  0  0  0  0
    1.3615   21.0217  -33.5226 H   0  0  0  0  0  0  0  0  0  0  0  0
    0.5244   20.1229  -34.8334 H   0  0  0  0  0  0  0  0  0  0  0  0
    0.5230   21.9192  -34.8334 H   0  0  0  0  0  0  0  0  0  0  0  0
   -6.0228   17.7041  -32.5642 H   0  0  0  0  0  0  0  0  0  0  0  0
   -8.4259   17.0696  -32.3891 H   0  0  0  0  0  0  0  0  0  0  0  0
  -10.1696   18.8265  -32.0955 H   0  0  0  0  0  0  0  0  0  0  0  0
   -9.9495   21.6982  -30.8648 H   0  0  0  0  0  0  0  0  0  0  0  0
   -9.4448   22.4668  -32.4080 H   0  0  0  0  0  0  0  0  0  0  0  0
  -10.7294   21.2112  -32.4080 H   0  0  0  0  0  0  0  0  0  0  0  0
   -7.1005   21.8816  -32.1626 H   0  0  0  0  0  0  0  0  0  0  0  0
   -2.7804   24.0447  -30.2716 H   0  0  0  0  0  0  0  0  0  0  0  0
   -4.0146   22.7246  -29.9794 H   0  0  0  0  0  0  0  0  0  0  0  0
   -3.6785   24.4832  -28.1338 H   0  0  0  0  0  0  0  0  0  0  0  0
   -3.6824   22.7523  -27.6743 H   0  0  0  0  0  0  0  0  0  0  0  0
  1  2  1  0
  2  3  1  0
  3  4  2  0
  4  5  1  0
  5  6  2  0
  6  7  1  0
  7  8  2  0
  8  9  1  0
  9 10  1  0
 10 11  1  0
 11 12  1  0
 12 13  1  0
 13 14  2  0
 14 15  1  0
 15 16  1  0
 15 17  2  0
 17 18  1  0
 18 19  2  0
 19 20  1  0
 20 21  1  0
 21 22  2  0
 22 23  1  0
 23 24  2  0
 24 25  1  0
 25 26  1  0
 25 27  2  0
 20 28  2  0
 28 29  1  0
 12 30  1  0
 30 31  1  0
  8  3  1  0
 31  9  1  0
 29 13  1  0
 29 18  1  0
 27 21  1  0
  1 32  1  0
  1 33  1  0
  1 34  1  0
  4 35  1  0
  5 36  1  0
  6 37  1  0
  7 38  1  0
 10 39  1  0
 10 40  1  0
 11 41  1  0
 11 42  1  0
 14 43  1  0
 16 44  1  0
 16 45  1  0
 16 46  1  0
 22 47  1  0
 23 48  1  0
 24 49  1  0
 26 50  1  0
 26 51  1  0
 26 52  1  0
 27 53  1  0
 30 54  1  0
 30 55  1  0
 31 56  1  0
 31 57  1  0
M  END
>  <UniqueID>  (21) 
21

>  <SMILES>  (21) 
COc1ccccc1N1CCN(c2cc(C)nc3nc(-c4cccc(C)c4)nn23)CC1

>  <Energy>  (21) 
115.04060947505131

>  <Genealogy>  (21) 
COc1ccccc1N1CCN(c2cc(C)nc3nc(-c4cccc(C)c4)nn23)CC1 (3D coordinates assigned)
COc1ccccc1N1CCN(c2cc(C)nc3nc(-c4cccc(C)c4)nn23)CC1 (nonaromatic ring conformer: 115.04060947505131 kcal/mol)

>  <smiles>  (21) 
COc1ccccc1N1CCN(c2cc(C)nc3nc(-c4cccc(C)c4)nn23)CC1

>  <score_type>  (21) 
oracle

>  <origin>  (21) 
adgpu

>  <m_score__min__energy>  (21) 
-9.3300000000000001

>  <m_primary>  (21) 
energy

$$$$
21:0
     RDKit          3D

 72 76  0  0  0  0  0  0  0  0999 V2000
   -9.1010   22.9460  -32.2390 O   0  0  0  0  0  0  0  0  0  0  0  0
   -8.4450   22.0510  -31.2240 S   0  0  0  0  0  0  0  0  0  0  0  0
   -9.4970   21.5620  -30.2660 O   0  0  0  0  0  0  0  0  0  0  0  0
   -7.7230   20.6600  -32.0260 C   0  0  0  0  0  0  0  0  0  0  0  0
   -7.9960   19.3670  -31.5620 C   0  0  0  0  0  0  0  0  0  0  0  0
   -7.4240   18.2580  -32.1900 C   0  0  0  0  0  0  0  0  0  0  0  0
   -6.5760   18.4250  -33.2950 C   0  0  0  0  0  0  0  0  0  0  0  0
   -5.9850   17.2690  -33.9140 N   0  0  0  0  0  0  0  0  0  0  0  0
   -4.5840   17.1300  -34.2120 C   0  0  0  0  0  0  0  0  0  0  0  0
   -4.1480   16.0320  -34.9570 C   0  0  0  0  0  0  0  0  0  0  0  0
   -2.7990   15.8860  -35.2750 C   0  0  0  0  0  0  0  0  0  0  0  0
   -1.8560   16.8420  -34.8670 C   0  0  0  0  0  0  0  0  0  0  0  0
   -0.4740   16.6330  -35.2100 N   0  0  0  0  0  0  0  0  0  0  0  0
    0.1730   17.4910  -36.2100 C   0  0  0  0  0  0  0  0  0  0  0  0
    1.4880   18.0970  -35.6630 C   0  0  0  0  0  0  0  0  0  0  0  0
    1.9560   17.4950  -34.4660 O   0  0  0  0  0  0  0  0  0  0  0  0
    1.8250   16.0920  -34.5320 C   0  0  0  0  0  0  0  0  0  0  0  0
    0.3490   15.7230  -34.4010 C   0  0  0  0  0  0  0  0  0  0  0  0
   -2.2880   17.9700  -34.1220 C   0  0  0  0  0  0  0  0  0  0  0  0
   -1.1710   19.2330  -33.5640 S   0  0  0  0  0  0  0  0  0  0  0  0
   -0.6800   20.0280  -34.7450 O   0  0  0  0  0  0  0  0  0  0  0  0
   -1.9010   20.1710  -32.6460 O   0  0  0  0  0  0  0  0  0  0  0  0
    0.2110   18.5440  -32.7430 N   0  0  0  0  0  0  0  0  0  0  0  0
   -0.2190   17.6630  -31.6270 C   0  0  0  0  0  0  0  0  0  0  0  0
   -0.0220   18.3310  -30.2550 C   0  0  0  0  0  0  0  0  0  0  0  0
    1.3260   18.7020  -30.0020 O   0  0  0  0  0  0  0  0  0  0  0  0
    2.0270   19.1370  -31.1610 C   0  0  0  0  0  0  0  0  0  0  0  0
    1.1190   19.6250  -32.3010 C   0  0  0  0  0  0  0  0  0  0  0  0
   -3.6540   18.1060  -33.8200 C   0  0  0  0  0  0  0  0  0  0  0  0
   -6.2730   19.7270  -33.7340 C   0  0  0  0  0  0  0  0  0  0  0  0
   -6.8500   20.8350  -33.1080 C   0  0  0  0  0  0  0  0  0  0  0  0
   -7.2140   22.9300  -30.3510 N   0  0  0  0  0  0  0  0  0  0  0  0
   -5.8960   22.3200  -30.5910 C   0  0  0  0  0  0  0  0  0  0  0  0
   -4.8360   22.9480  -29.6650 C   0  0  0  0  0  0  0  0  0  0  0  0
   -5.2200   24.3630  -29.2050 C   0  0  0  0  0  0  0  0  0  0  0  0
   -5.9650   25.1150  -30.3100 C   0  0  0  0  0  0  0  0  0  0  0  0
   -7.2240   24.3480  -30.7730 C   0  0  0  0  0  0  0  0  0  0  0  0
   -8.6636   19.2242  -30.6995 H   0  0  0  0  0  0  0  0  0  0  0  0
   -7.6401   17.2466  -31.8154 H   0  0  0  0  0  0  0  0  0  0  0  0
   -6.6170   16.4740  -34.1640 H   0  0  0  0  0  0  0  0  0  0  0  0
   -4.8739   15.2778  -35.2949 H   0  0  0  0  0  0  0  0  0  0  0  0
   -2.4691   15.0103  -35.8532 H   0  0  0  0  0  0  0  0  0  0  0  0
    0.3992   16.8917  -37.1042 H   0  0  0  0  0  0  0  0  0  0  0  0
   -0.5129   18.3146  -36.4575 H   0  0  0  0  0  0  0  0  0  0  0  0
    2.2658   17.9833  -36.4325 H   0  0  0  0  0  0  0  0  0  0  0  0
    1.2737   19.1489  -35.4232 H   0  0  0  0  0  0  0  0  0  0  0  0
    2.2111   15.7307  -35.4965 H   0  0  0  0  0  0  0  0  0  0  0  0
    2.3979   15.6268  -33.7163 H   0  0  0  0  0  0  0  0  0  0  0  0
    0.1999   14.6906  -34.7501 H   0  0  0  0  0  0  0  0  0  0  0  0
    0.0492   15.8090  -33.3462 H   0  0  0  0  0  0  0  0  0  0  0  0
    0.7150   17.9480  -33.4370 H   0  0  0  0  0  0  0  0  0  0  0  0
   -1.2848   17.4226  -31.7550 H   0  0  0  0  0  0  0  0  0  0  0  0
    0.4004   16.7544  -31.6540 H   0  0  0  0  0  0  0  0  0  0  0  0
   -0.6472   19.2351  -30.2132 H   0  0  0  0  0  0  0  0  0  0  0  0
   -0.3081   17.5953  -29.4889 H   0  0  0  0  0  0  0  0  0  0  0  0
    2.6920   19.9641  -30.8717 H   0  0  0  0  0  0  0  0  0  0  0  0
    2.5747   18.2638  -31.5452 H   0  0  0  0  0  0  0  0  0  0  0  0
    0.5207   20.4774  -31.9468 H   0  0  0  0  0  0  0  0  0  0  0  0
    1.7486   19.9286  -33.1504 H   0  0  0  0  0  0  0  0  0  0  0  0
   -4.0001   18.9919  -33.2673 H   0  0  0  0  0  0  0  0  0  0  0  0
   -5.5784   19.8734  -34.5743 H   0  0  0  0  0  0  0  0  0  0  0  0
   -6.6179   21.8489  -33.4661 H   0  0  0  0  0  0  0  0  0  0  0  0
   -5.9554   21.2395  -30.3933 H   0  0  0  0  0  0  0  0  0  0  0  0
   -5.6060   22.4978  -31.6371 H   0  0  0  0  0  0  0  0  0  0  0  0
   -4.7192   22.3083  -28.7778 H   0  0  0  0  0  0  0  0  0  0  0  0
   -3.8982   23.0249  -30.2347 H   0  0  0  0  0  0  0  0  0  0  0  0
   -5.8683   24.2899  -28.3194 H   0  0  0  0  0  0  0  0  0  0  0  0
   -4.2997   24.9152  -28.9640 H   0  0  0  0  0  0  0  0  0  0  0  0
   -6.2683   26.1011  -29.9284 H   0  0  0  0  0  0  0  0  0  0  0  0
   -5.2890   25.2173  -31.1717 H   0  0  0  0  0  0  0  0  0  0  0  0
   -8.1116   24.8367  -30.3447 H   0  0  0  0  0  0  0  0  0  0  0  0
   -7.2405   24.3681  -31.8727 H   0  0  0  0  0  0  0  0  0  0  0  0
  1  2  2  0
  2  3  2  0
  2  4  1  0
  4  5  2  0
  5  6  1  0
  6  7  2  0
  7  8  1  0
  8  9  1  0
  9 10  2  0
 10 11  1  0
 11 12  2  0
 12 13  1  0
 13 14  1  0
 14 15  1  0
 15 16  1  0
 16 17  1  0
 17 18  1  0
 12 19  1  0
 19 20  1  0
 20 21  2  0
 20 22  2  0
 20 23  1  0
 23 24  1  0
 24 25  1  0
 25 26  1  0
 26 27  1  0
 27 28  1  0
 19 29  2  0
  7 30  1  0
 30 31  2  0
  2 32  1  0
 32 33  1  0
 33 34  1  0
 34 35  1  0
 35 36  1  0
 36 37  1  0
 31  4  1  0
 37 32  1  0
 29  9  1  0
 18 13  1  0
 28 23  1  0
  5 38  1  0
  6 39  1  0
  8 40  1  0
 10 41  1  0
 11 42  1  0
 14 43  1  0
 14 44  1  0
 15 45  1  0
 15 46  1  0
 17 47  1  0
 17 48  1  0
 18 49  1  0
 18 50  1  0
 23 51  1  0
 24 52  1  0
 24 53  1  0
 25 54  1  0
 25 55  1  0
 27 56  1  0
 27 57  1  0
 28 58  1  0
 28 59  1  0
 29 60  1  0
 30 61  1  0
 31 62  1  0
 33 63  1  0
 33 64  1  0
 34 65  1  0
 34 66  1  0
 35 67  1  0
 35 68  1  0
 36 69  1  0
 36 70  1  0
 37 71  1  0
 37 72  1  0
M  CHG  1  23   1
M  END
>  <UniqueID>  (22) 
22

>  <SMILES>  (22) 
O=S(=O)(c1ccc(Nc2ccc(N3CCOCC3)c(S(=O)(=O)[NH+]3CCOCC3)c2)cc1)N1CCCCC1

>  <Energy>  (22) 
108.02870731759216

>  <Genealogy>  (22) 
O=S(=O)(c1ccc(Nc2ccc(N3CCOCC3)c(S(=O)(=O)[NH+]3CCOCC3)c2)cc1)N1CCCCC1 (protonated)
O=S(=O)(c1ccc(Nc2ccc(N3CCOCC3)c(S(=O)(=O)[NH+]3CCOCC3)c2)cc1)N1CCCCC1 (3D coordinates assigned)
O=S(=O)(c1ccc(Nc2ccc(N3CCOCC3)c(S(=O)(=O)[NH+]3CCOCC3)c2)cc1)N1CCCCC1 (nonaromatic ring conformer: 108.02870731759216 kcal/mol)

>  <smiles>  (22) 
O=S(=O)(c1ccc(Nc2ccc(N3CCOCC3)c(S(=O)(=O)N3CCOCC3)c2)cc1)N1CCCCC1

>  <score_type>  (22) 
oracle

>  <origin>  (22) 
adgpu

>  <m_score__min__energy>  (22) 
-9.5600000000000005

>  <m_primary>  (22) 
energy

$$$$
22:0
     RDKit          3D

 47 49  0  0  0  0  0  0  0  0999 V2000
   -8.8600   21.8930  -30.1040 O   0  0  0  0  0  0  0  0  0  0  0  0
   -8.0850   22.0800  -31.0650 N   0  0  0  0  0  0  0  0  0  0  0  0
   -8.3860   21.5060  -32.2790 O   0  0  0  0  0  0  0  0  0  0  0  0
   -6.9010   22.8840  -30.9100 C   0  0  0  0  0  0  0  0  0  0  0  0
   -6.9050   24.2350  -31.2920 C   0  0  0  0  0  0  0  0  0  0  0  0
   -5.7600   25.0200  -31.1330 C   0  0  0  0  0  0  0  0  0  0  0  0
   -4.5950   24.4690  -30.5960 C   0  0  0  0  0  0  0  0  0  0  0  0
   -3.4730   25.2750  -30.4340 O   0  0  0  0  0  0  0  0  0  0  0  0
   -4.5640   23.1110  -30.2260 C   0  0  0  0  0  0  0  0  0  0  0  0
   -3.3290   22.5030  -29.6150 C   0  0  0  0  0  0  0  0  0  0  0  0
   -2.1500   22.9020  -30.3860 N   0  0  0  0  0  0  0  0  0  0  0  0
   -1.3450   21.4890  -31.0020 S   0  0  0  0  0  0  0  0  0  0  0  0
   -0.1700   21.9160  -31.8370 O   0  0  0  0  0  0  0  0  0  0  0  0
   -0.8380   20.6550  -29.8590 O   0  0  0  0  0  0  0  0  0  0  0  0
   -2.4480   20.5460  -32.0000 C   0  0  0  0  0  0  0  0  0  0  0  0
   -3.6520   21.1160  -32.4370 C   0  0  0  0  0  0  0  0  0  0  0  0
   -4.5490   20.3650  -33.2030 C   0  0  0  0  0  0  0  0  0  0  0  0
   -4.2520   19.0350  -33.5320 C   0  0  0  0  0  0  0  0  0  0  0  0
   -5.3800   18.0660  -34.4760 S   0  0  0  0  0  0  0  0  0  0  0  0
   -4.5970   17.0370  -35.2430 O   0  0  0  0  0  0  0  0  0  0  0  0
   -6.1240   18.9400  -35.4490 O   0  0  0  0  0  0  0  0  0  0  0  0
   -6.5120   17.2700  -33.4030 N   0  0  0  0  0  0  0  0  0  0  0  0
   -5.8600   16.9160  -32.1370 C   0  0  0  0  0  0  0  0  0  0  0  0
   -6.1050   18.0440  -31.1450 C   0  0  0  0  0  0  0  0  0  0  0  0
   -7.2380   18.8650  -31.7320 C   0  0  0  0  0  0  0  0  0  0  0  0
   -7.6030   18.1800  -33.0410 C   0  0  0  0  0  0  0  0  0  0  0  0
   -3.0500   18.4650  -33.0940 C   0  0  0  0  0  0  0  0  0  0  0  0
   -2.1530   19.2160  -32.3290 C   0  0  0  0  0  0  0  0  0  0  0  0
   -5.7240   22.3310  -30.3720 C   0  0  0  0  0  0  0  0  0  0  0  0
   -7.8162   24.6788  -31.7196 H   0  0  0  0  0  0  0  0  0  0  0  0
   -5.7766   26.0783  -31.4327 H   0  0  0  0  0  0  0  0  0  0  0  0
   -3.2235   22.8536  -28.5777 H   0  0  0  0  0  0  0  0  0  0  0  0
   -3.4184   21.4067  -29.6268 H   0  0  0  0  0  0  0  0  0  0  0  0
   -2.4710   23.4500  -31.2160 H   0  0  0  0  0  0  0  0  0  0  0  0
   -3.8918   22.1574  -32.1764 H   0  0  0  0  0  0  0  0  0  0  0  0
   -5.4897   20.8188  -33.5482 H   0  0  0  0  0  0  0  0  0  0  0  0
   -6.2854   15.9791  -31.7482 H   0  0  0  0  0  0  0  0  0  0  0  0
   -4.7803   16.7738  -32.2921 H   0  0  0  0  0  0  0  0  0  0  0  0
   -6.3936   17.6372  -30.1646 H   0  0  0  0  0  0  0  0  0  0  0  0
   -5.2013   18.6513  -30.9880 H   0  0  0  0  0  0  0  0  0  0  0  0
   -8.1004   18.8731  -31.0492 H   0  0  0  0  0  0  0  0  0  0  0  0
   -6.9428   19.9130  -31.8891 H   0  0  0  0  0  0  0  0  0  0  0  0
   -8.5361   17.6111  -32.9157 H   0  0  0  0  0  0  0  0  0  0  0  0
   -7.7508   18.9291  -33.8329 H   0  0  0  0  0  0  0  0  0  0  0  0
   -2.8111   17.4229  -33.3529 H   0  0  0  0  0  0  0  0  0  0  0  0
   -1.2125   18.7616  -31.9841 H   0  0  0  0  0  0  0  0  0  0  0  0
   -5.7118   21.2756  -30.0620 H   0  0  0  0  0  0  0  0  0  0  0  0
  1  2  2  0
  2  3  1  0
  2  4  1  0
  4  5  2  0
  5  6  1  0
  6  7  2  0
  7  8  1  0
  7  9  1  0
  9 10  1  0
 10 11  1  0
 11 12  1  0
 12 13  2  0
 12 14  2  0
 12 15  1  0
 15 16  2  0
 16 17  1  0
 17 18  2  0
 18 19  1  0
 19 20  2  0
 19 21  2  0
 19 22  1  0
 22 23  1  0
 23 24  1  0
 24 25  1  0
 25 26  1  0
 18 27  1  0
 27 28  2  0
  9 29  2  0
 29  4  1  0
 28 15  1  0
 26 22  1  0
  5 30  1  0
  6 31  1  0
 10 32  1  0
 10 33  1  0
 11 34  1  0
 16 35  1  0
 17 36  1  0
 23 37  1  0
 23 38  1  0
 24 39  1  0
 24 40  1  0
 25 41  1  0
 25 42  1  0
 26 43  1  0
 26 44  1  0
 27 45  1  0
 28 46  1  0
 29 47  1  0
M  CHG  3   2   1   3  -1   8  -1
M  END
>  <UniqueID>  (23) 
23

>  <SMILES>  (23) 
O=[N+]([O-])c1ccc([O-])c(CNS(=O)(=O)c2ccc(S(=O)(=O)N3CCCC3)cc2)c1

>  <Energy>  (23) 
47.931948873078035

>  <Genealogy>  (23) 
O=[N+]([O-])c1ccc([O-])c(CNS(=O)(=O)c2ccc(S(=O)(=O)N3CCCC3)cc2)c1 (protonated)
O=[N+]([O-])c1ccc([O-])c(CNS(=O)(=O)c2ccc(S(=O)(=O)N3CCCC3)cc2)c1 (3D coordinates assigned)
O=[N+]([O-])c1ccc([O-])c(CNS(=O)(=O)c2ccc(S(=O)(=O)N3CCCC3)cc2)c1 (nonaromatic ring conformer: 47.931948873078035 kcal/mol)

>  <smiles>  (23) 
O=[N+]([O-])c1ccc(O)c(CNS(=O)(=O)c2ccc(S(=O)(=O)N3CCCC3)cc2)c1

>  <score_type>  (23) 
oracle

>  <origin>  (23) 
adgpu

>  <m_score__min__energy>  (23) 
-13.32

>  <m_primary>  (23) 
energy

$$$$
23:0
     RDKit          3D

 60 63  0  0  0  0  0  0  0  0999 V2000
    0.6080   23.5430  -25.5260 C   0  0  0  0  0  0  0  0  0  0  0  0
   -0.4200   23.8070  -26.5990 C   0  0  0  0  0  0  0  0  0  0  0  0
   -1.3290   22.7820  -26.9090 C   0  0  0  0  0  0  0  0  0  0  0  0
   -2.3320   22.9770  -27.8550 C   0  0  0  0  0  0  0  0  0  0  0  0
   -2.4640   24.2050  -28.5010 C   0  0  0  0  0  0  0  0  0  0  0  0
   -3.5390   24.3850  -29.4360 N   0  0  0  0  0  0  0  0  0  0  0  0
   -3.7580   23.4990  -30.5440 C   0  0  0  0  0  0  0  0  0  0  0  0
   -3.0580   22.4540  -30.6750 O   0  0  0  0  0  0  0  0  0  0  0  0
   -4.7950   23.8040  -31.4920 N   0  0  0  0  0  0  0  0  0  0  0  0
   -5.8680   22.9150  -31.8440 C   0  0  0  0  0  0  0  0  0  0  0  0
   -7.1920   23.3580  -31.7240 C   0  0  0  0  0  0  0  0  0  0  0  0
   -8.2600   22.4730  -31.9380 C   0  0  0  0  0  0  0  0  0  0  0  0
   -8.0140   21.1310  -32.2760 C   0  0  0  0  0  0  0  0  0  0  0  0
   -6.6850   20.7070  -32.5070 C   0  0  0  0  0  0  0  0  0  0  0  0
   -5.6230   21.6050  -32.2930 C   0  0  0  0  0  0  0  0  0  0  0  0
   -6.3550   19.2660  -32.8610 C   0  0  0  0  0  0  0  0  0  0  0  0
   -7.5600   18.4170  -33.1080 N   0  0  0  0  0  0  0  0  0  0  0  0
   -7.1910   16.9690  -32.9890 C   0  0  0  0  0  0  0  0  0  0  0  0
   -8.6480   18.7360  -32.1530 C   0  0  0  0  0  0  0  0  0  0  0  0
   -9.1540   20.1590  -32.4180 C   0  0  0  0  0  0  0  0  0  0  0  0
   -1.5390   25.2330  -28.2380 C   0  0  0  0  0  0  0  0  0  0  0  0
   -1.6160   26.4170  -28.9680 O   0  0  0  0  0  0  0  0  0  0  0  0
   -0.5280   25.0590  -27.2620 C   0  0  0  0  0  0  0  0  0  0  0  0
    0.5930   26.4010  -26.9090 S   0  0  0  0  0  0  0  0  0  0  0  0
    1.9650   26.0860  -27.4420 O   0  0  0  0  0  0  0  0  0  0  0  0
    0.1150   27.6590  -27.5880 O   0  0  0  0  0  0  0  0  0  0  0  0
    0.7030   26.6840  -25.1350 C   0  0  0  0  0  0  0  0  0  0  0  0
    2.0640   27.3230  -24.7730 C   0  0  0  0  0  0  0  0  0  0  0  0
    1.9610   28.1080  -23.4590 C   0  0  0  0  0  0  0  0  0  0  0  0
    1.0150   29.2380  -23.5640 N   0  0  0  0  0  0  0  0  0  0  0  0
   -0.1130   29.0210  -24.4910 C   0  0  0  0  0  0  0  0  0  0  0  0
   -0.4910   27.5340  -24.6280 C   0  0  0  0  0  0  0  0  0  0  0  0
    0.1436   23.6623  -24.5360 H   0  0  0  0  0  0  0  0  0  0  0  0
    0.9914   22.5172  -25.6300 H   0  0  0  0  0  0  0  0  0  0  0  0
    1.4382   24.2571  -25.6300 H   0  0  0  0  0  0  0  0  0  0  0  0
   -1.2474   21.8117  -26.3973 H   0  0  0  0  0  0  0  0  0  0  0  0
   -3.0247   22.1566  -28.0940 H   0  0  0  0  0  0  0  0  0  0  0  0
   -4.0620   25.2930  -29.4190 H   0  0  0  0  0  0  0  0  0  0  0  0
   -7.3956   24.4063  -31.4603 H   0  0  0  0  0  0  0  0  0  0  0  0
   -9.2954   22.8316  -31.8407 H   0  0  0  0  0  0  0  0  0  0  0  0
   -4.5892   21.2785  -32.4791 H   0  0  0  0  0  0  0  0  0  0  0  0
   -5.7368   19.2647  -33.7709 H   0  0  0  0  0  0  0  0  0  0  0  0
   -5.8297   18.8347  -31.9961 H   0  0  0  0  0  0  0  0  0  0  0  0
   -7.1211   16.6946  -31.9261 H   0  0  0  0  0  0  0  0  0  0  0  0
   -7.9609   16.3531  -33.4768 H   0  0  0  0  0  0  0  0  0  0  0  0
   -6.2202   16.7967  -33.4768 H   0  0  0  0  0  0  0  0  0  0  0  0
   -9.4740   18.0217  -32.2852 H   0  0  0  0  0  0  0  0  0  0  0  0
   -8.2668   18.6662  -31.1235 H   0  0  0  0  0  0  0  0  0  0  0  0
   -9.5623   20.2191  -33.4376 H   0  0  0  0  0  0  0  0  0  0  0  0
   -9.9419   20.4092  -31.6923 H   0  0  0  0  0  0  0  0  0  0  0  0
    0.6438   25.7128  -24.6220 H   0  0  0  0  0  0  0  0  0  0  0  0
    2.8175   26.5294  -24.6616 H   0  0  0  0  0  0  0  0  0  0  0  0
    2.3553   28.0150  -25.5769 H   0  0  0  0  0  0  0  0  0  0  0  0
    1.6167   27.4288  -22.6652 H   0  0  0  0  0  0  0  0  0  0  0  0
    2.9556   28.5170  -23.2278 H   0  0  0  0  0  0  0  0  0  0  0  0
    0.6350   29.4380  -22.6110 H   0  0  0  0  0  0  0  0  0  0  0  0
   -0.9875   29.5736  -24.1169 H   0  0  0  0  0  0  0  0  0  0  0  0
    0.1988   29.3778  -25.4837 H   0  0  0  0  0  0  0  0  0  0  0  0
   -0.8072   27.1544  -23.6452 H   0  0  0  0  0  0  0  0  0  0  0  0
   -1.3062   27.4532  -25.3621 H   0  0  0  0  0  0  0  0  0  0  0  0
  1  2  1  0
  2  3  2  0
  3  4  1  0
  4  5  2  0
  5  6  1  0
  6  7  1  0
  7  8  2  0
  7  9  1  0
  9 10  1  0
 10 11  2  0
 11 12  1  0
 12 13  2  0
 13 14  1  0
 14 15  2  0
 14 16  1  0
 16 17  1  0
 17 18  1  0
 17 19  1  0
 19 20  1  0
  5 21  1  0
 21 22  1  0
 21 23  2  0
 23 24  1  0
 24 25  2  0
 24 26  2  0
 24 27  1  0
 27 28  1  0
 28 29  1  0
 29 30  1  0
 30 31  1  0
 31 32  1  0
 23  2  1  0
 32 27  1  0
 15 10  1  0
 20 13  1  0
  1 33  1  0
  1 34  1  0
  1 35  1  0
  3 36  1  0
  4 37  1  0
  6 38  1  0
 11 39  1  0
 12 40  1  0
 15 41  1  0
 16 42  1  0
 16 43  1  0
 18 44  1  0
 18 45  1  0
 18 46  1  0
 19 47  1  0
 19 48  1  0
 20 49  1  0
 20 50  1  0
 27 51  1  0
 28 52  1  0
 28 53  1  0
 29 54  1  0
 29 55  1  0
 30 56  1  0
 31 57  1  0
 31 58  1  0
 32 59  1  0
 32 60  1  0
M  CHG  2   9  -1  22  -1
M  END
>  <UniqueID>  (24) 
24

>  <SMILES>  (24) 
Cc1ccc(NC(=O)[N-]c2ccc3c(c2)CN(C)CC3)c([O-])c1S(=O)(=O)C1CCNCC1

>  <Energy>  (24) 
83.37708077746501

>  <Genealogy>  (24) 
Cc1ccc(NC(=O)[N-]c2ccc3c(c2)CN(C)CC3)c([O-])c1S(=O)(=O)C1CCNCC1 (protonated)
Cc1ccc(NC(=O)[N-]c2ccc3c(c2)CN(C)CC3)c([O-])c1S(=O)(=O)C1CCNCC1 (3D coordinates assigned)
Cc1ccc(NC(=O)[N-]c2ccc3c(c2)CN(C)CC3)c([O-])c1S(=O)(=O)C1CCNCC1 (nonaromatic ring conformer: 83.37708077746501 kcal/mol)

>  <smiles>  (24) 
Cc1ccc(NC(=O)Nc2ccc3c(c2)CN(C)CC3)c(O)c1S(=O)(=O)C1CCNCC1

>  <score_type>  (24) 
oracle

>  <origin>  (24) 
adgpu

>  <m_score__min__energy>  (24) 
-15.69

>  <m_primary>  (24) 
energy

$$$$
24:0
     RDKit          3D

 58 61  0  0  0  0  0  0  0  0999 V2000
    0.1040   19.0010  -32.1680 C   0  0  0  0  0  0  0  0  0  0  0  0
   -0.4900   19.2900  -33.4850 N   0  0  0  0  0  0  0  0  0  0  0  0
   -0.4770   18.1100  -34.3840 C   0  0  0  0  0  0  0  0  0  0  0  0
   -1.8750   17.5100  -34.6310 C   0  0  0  0  0  0  0  0  0  0  0  0
   -2.6690   17.5340  -33.3920 N   0  0  0  0  0  0  0  0  0  0  0  0
   -4.1800   16.6840  -33.6160 S   0  0  0  0  0  0  0  0  0  0  0  0
   -4.2760   16.1940  -35.0350 O   0  0  0  0  0  0  0  0  0  0  0  0
   -4.2140   15.4870  -32.7050 O   0  0  0  0  0  0  0  0  0  0  0  0
   -5.5690   17.7210  -33.2750 C   0  0  0  0  0  0  0  0  0  0  0  0
   -5.7950   18.8670  -34.0510 C   0  0  0  0  0  0  0  0  0  0  0  0
   -6.8760   19.7050  -33.7690 C   0  0  0  0  0  0  0  0  0  0  0  0
   -7.7480   19.3970  -32.7190 C   0  0  0  0  0  0  0  0  0  0  0  0
   -9.1200   20.4880  -32.3450 S   0  0  0  0  0  0  0  0  0  0  0  0
   -8.0480   21.7210  -31.6120 C   0  0  0  0  0  0  0  0  0  0  0  0
   -8.1170   22.0000  -30.2450 C   0  0  0  0  0  0  0  0  0  0  0  0
   -7.2740   22.9750  -29.7060 C   0  0  0  0  0  0  0  0  0  0  0  0
   -6.3790   23.6650  -30.5330 C   0  0  0  0  0  0  0  0  0  0  0  0
   -5.2890   24.8830  -29.8620 S   0  0  0  0  0  0  0  0  0  0  0  0
   -4.4010   25.4000  -30.9600 O   0  0  0  0  0  0  0  0  0  0  0  0
   -6.1040   26.0360  -29.3430 O   0  0  0  0  0  0  0  0  0  0  0  0
   -4.2920   24.2650  -28.5660 N   0  0  0  0  0  0  0  0  0  0  0  0
   -2.8730   24.5140  -28.8010 C   0  0  0  0  0  0  0  0  0  0  0  0
   -2.1290   23.4870  -27.9710 C   0  0  0  0  0  0  0  0  0  0  0  0
   -3.0860   22.3090  -27.8620 C   0  0  0  0  0  0  0  0  0  0  0  0
   -4.4170   22.8150  -28.4100 C   0  0  0  0  0  0  0  0  0  0  0  0
   -6.3370   23.3450  -31.8950 C   0  0  0  0  0  0  0  0  0  0  0  0
   -7.1660   22.3930  -32.4000 N   0  0  0  0  0  0  0  0  0  0  0  0
   -7.5400   18.2410  -31.9580 C   0  0  0  0  0  0  0  0  0  0  0  0
   -6.4520   17.4090  -32.2310 C   0  0  0  0  0  0  0  0  0  0  0  0
   -2.9110   18.9170  -32.9110 C   0  0  0  0  0  0  0  0  0  0  0  0
   -1.8210   19.9150  -33.3650 C   0  0  0  0  0  0  0  0  0  0  0  0
   -0.5818   19.3347  -31.3753 H   0  0  0  0  0  0  0  0  0  0  0  0
    0.2757   17.9187  -32.0727 H   0  0  0  0  0  0  0  0  0  0  0  0
    1.0616   19.5339  -32.0727 H   0  0  0  0  0  0  0  0  0  0  0  0
   -0.0528   18.4145  -35.3521 H   0  0  0  0  0  0  0  0  0  0  0  0
    0.1257   17.3336  -33.8902 H   0  0  0  0  0  0  0  0  0  0  0  0
   -2.3909   18.0988  -35.4037 H   0  0  0  0  0  0  0  0  0  0  0  0
   -1.7626   16.4673  -34.9630 H   0  0  0  0  0  0  0  0  0  0  0  0
   -2.1440   17.0030  -32.6570 H   0  0  0  0  0  0  0  0  0  0  0  0
   -5.1185   19.1067  -34.8846 H   0  0  0  0  0  0  0  0  0  0  0  0
   -7.0422   20.6089  -34.3735 H   0  0  0  0  0  0  0  0  0  0  0  0
   -8.8260   21.4589  -29.6012 H   0  0  0  0  0  0  0  0  0  0  0  0
   -7.3133   23.2011  -28.6302 H   0  0  0  0  0  0  0  0  0  0  0  0
   -2.6341   24.3900  -29.8676 H   0  0  0  0  0  0  0  0  0  0  0  0
   -2.5910   25.5401  -28.5223 H   0  0  0  0  0  0  0  0  0  0  0  0
   -1.1976   23.1847  -28.4722 H   0  0  0  0  0  0  0  0  0  0  0  0
   -1.8400   23.8801  -26.9851 H   0  0  0  0  0  0  0  0  0  0  0  0
   -2.7214   21.4606  -28.4598 H   0  0  0  0  0  0  0  0  0  0  0  0
   -3.1796   21.9530  -26.8254 H   0  0  0  0  0  0  0  0  0  0  0  0
   -4.6273   22.3471  -29.3831 H   0  0  0  0  0  0  0  0  0  0  0  0
   -5.2432   22.5632  -27.7288 H   0  0  0  0  0  0  0  0  0  0  0  0
   -5.6310   23.8654  -32.5589 H   0  0  0  0  0  0  0  0  0  0  0  0
   -8.2345   17.9873  -31.1436 H   0  0  0  0  0  0  0  0  0  0  0  0
   -6.2870   16.5059  -31.6251 H   0  0  0  0  0  0  0  0  0  0  0  0
   -3.8820   19.2581  -33.2994 H   0  0  0  0  0  0  0  0  0  0  0  0
   -2.8944   18.8901  -31.8115 H   0  0  0  0  0  0  0  0  0  0  0  0
   -2.1063   20.3258  -34.3447 H   0  0  0  0  0  0  0  0  0  0  0  0
   -1.7507   20.7010  -32.5986 H   0  0  0  0  0  0  0  0  0  0  0  0
  1  2  1  0
  2  3  1  0
  3  4  1  0
  4  5  1  0
  5  6  1  0
  6  7  2  0
  6  8  2  0
  6  9  1  0
  9 10  2  0
 10 11  1  0
 11 12  2  0
 12 13  1  0
 13 14  1  0
 14 15  2  0
 15 16  1  0
 16 17  2  0
 17 18  1  0
 18 19  2  0
 18 20  2  0
 18 21  1  0
 21 22  1  0
 22 23  1  0
 23 24  1  0
 24 25  1  0
 17 26  1  0
 26 27  2  0
 12 28  1  0
 28 29  2  0
  5 30  1  0
 30 31  1  0
 31  2  1  0
 29  9  1  0
 27 14  1  0
 25 21  1  0
  1 32  1  0
  1 33  1  0
  1 34  1  0
  3 35  1  0
  3 36  1  0
  4 37  1  0
  4 38  1  0
  5 39  1  0
 10 40  1  0
 11 41  1  0
 15 42  1  0
 16 43  1  0
 22 44  1  0
 22 45  1  0
 23 46  1  0
 23 47  1  0
 24 48  1  0
 24 49  1  0
 25 50  1  0
 25 51  1  0
 26 52  1  0
 28 53  1  0
 29 54  1  0
 30 55  1  0
 30 56  1  0
 31 57  1  0
 31 58  1  0
M  CHG  1   5   1
M  END
>  <UniqueID>  (25) 
25

>  <SMILES>  (25) 
CN1CC[NH+](S(=O)(=O)c2ccc(Sc3ccc(S(=O)(=O)N4CCCC4)cn3)cc2)CC1

>  <Energy>  (25) 
65.01298405794402

>  <Genealogy>  (25) 
CN1CC[NH+](S(=O)(=O)c2ccc(Sc3ccc(S(=O)(=O)N4CCCC4)cn3)cc2)CC1 (protonated)
CN1CC[NH+](S(=O)(=O)c2ccc(Sc3ccc(S(=O)(=O)N4CCCC4)cn3)cc2)CC1 (3D coordinates assigned)
CN1CC[NH+](S(=O)(=O)c2ccc(Sc3ccc(S(=O)(=O)N4CCCC4)cn3)cc2)CC1 (nonaromatic ring conformer: 65.01298405794402 kcal/mol)

>  <smiles>  (25) 
CN1CCN(S(=O)(=O)c2ccc(Sc3ccc(S(=O)(=O)N4CCCC4)cn3)cc2)CC1

>  <score_type>  (25) 
oracle

>  <origin>  (25) 
adgpu

>  <m_score__min__energy>  (25) 
-10.34

>  <m_primary>  (25) 
energy

$$$$
25:0
     RDKit          3D

 56 59  0  0  0  0  0  0  0  0999 V2000
   -1.1440   25.3090  -29.2850 N   0  0  0  0  0  0  0  0  0  0  0  0
   -1.6780   24.0870  -28.7570 C   0  0  0  0  0  0  0  0  0  0  0  0
   -1.0230   23.4730  -27.6790 C   0  0  0  0  0  0  0  0  0  0  0  0
   -1.4540   22.2360  -27.2030 C   0  0  0  0  0  0  0  0  0  0  0  0
   -2.5450   21.6160  -27.8100 C   0  0  0  0  0  0  0  0  0  0  0  0
   -3.1900   22.2280  -28.8350 N   0  0  0  0  0  0  0  0  0  0  0  0
   -2.8100   23.4430  -29.3210 C   0  0  0  0  0  0  0  0  0  0  0  0
   -3.6360   24.0390  -30.3910 C   0  0  0  0  0  0  0  0  0  0  0  0
   -3.6340   25.2820  -30.5930 O   0  0  0  0  0  0  0  0  0  0  0  0
   -4.4590   23.1780  -31.1880 N   0  0  0  0  0  0  0  0  0  0  0  0
   -4.0190   22.1200  -32.0550 C   0  0  0  0  0  0  0  0  0  0  0  0
   -2.6590   21.9480  -32.3710 C   0  0  0  0  0  0  0  0  0  0  0  0
   -2.2530   20.9150  -33.2260 C   0  0  0  0  0  0  0  0  0  0  0  0
   -0.5490   20.7300  -33.6480 S   0  0  0  0  0  0  0  0  0  0  0  0
   -0.0940   21.9440  -34.4110 O   0  0  0  0  0  0  0  0  0  0  0  0
   -0.3890   19.5340  -34.5460 O   0  0  0  0  0  0  0  0  0  0  0  0
    0.4610   20.5320  -32.2310 N   0  0  0  0  0  0  0  0  0  0  0  0
    0.6180   19.1160  -31.8820 C   0  0  0  0  0  0  0  0  0  0  0  0
   -0.3560   18.7840  -30.7600 C   0  0  0  0  0  0  0  0  0  0  0  0
   -0.8710   20.1160  -30.2510 C   0  0  0  0  0  0  0  0  0  0  0  0
   -0.1400   21.1780  -31.0580 C   0  0  0  0  0  0  0  0  0  0  0  0
   -3.2070   20.0420  -33.7600 C   0  0  0  0  0  0  0  0  0  0  0  0
   -4.5600   20.2190  -33.4690 C   0  0  0  0  0  0  0  0  0  0  0  0
   -4.9760   21.2660  -32.6350 C   0  0  0  0  0  0  0  0  0  0  0  0
   -6.3750   21.4460  -32.3720 N   0  0  0  0  0  0  0  0  0  0  0  0
   -6.9590   22.7910  -32.4090 C   0  0  0  0  0  0  0  0  0  0  0  0
   -7.6770   23.0990  -31.0870 C   0  0  0  0  0  0  0  0  0  0  0  0
   -8.4800   21.9020  -30.5230 C   0  0  0  0  0  0  0  0  0  0  0  0
   -8.5830   20.7270  -31.5030 C   0  0  0  0  0  0  0  0  0  0  0  0
   -7.1890   20.2910  -31.9680 C   0  0  0  0  0  0  0  0  0  0  0  0
   -0.1120   25.4290  -29.3920 H   0  0  0  0  0  0  0  0  0  0  0  0
   -1.7530   26.0360  -29.7190 H   0  0  0  0  0  0  0  0  0  0  0  0
   -0.1636   23.9711  -27.2063 H   0  0  0  0  0  0  0  0  0  0  0  0
   -0.9393   21.7547  -26.3583 H   0  0  0  0  0  0  0  0  0  0  0  0
   -2.8832   20.6303  -27.4579 H   0  0  0  0  0  0  0  0  0  0  0  0
   -1.9088   22.6296  -31.9436 H   0  0  0  0  0  0  0  0  0  0  0  0
    0.3992   18.4909  -32.7603 H   0  0  0  0  0  0  0  0  0  0  0  0
    1.6500   18.9206  -31.5553 H   0  0  0  0  0  0  0  0  0  0  0  0
   -1.1870   18.1732  -31.1426 H   0  0  0  0  0  0  0  0  0  0  0  0
    0.1301   18.2060  -29.9602 H   0  0  0  0  0  0  0  0  0  0  0  0
   -1.9566   20.1933  -30.4105 H   0  0  0  0  0  0  0  0  0  0  0  0
   -0.6932   20.2335  -29.1718 H   0  0  0  0  0  0  0  0  0  0  0  0
   -0.8501   21.9528  -31.3829 H   0  0  0  0  0  0  0  0  0  0  0  0
    0.6406   21.6507  -30.4438 H   0  0  0  0  0  0  0  0  0  0  0  0
   -2.8896   19.2140  -34.4109 H   0  0  0  0  0  0  0  0  0  0  0  0
   -5.3052   19.5323  -33.8969 H   0  0  0  0  0  0  0  0  0  0  0  0
   -6.1591   23.5293  -32.5677 H   0  0  0  0  0  0  0  0  0  0  0  0
   -7.6880   22.8411  -33.2312 H   0  0  0  0  0  0  0  0  0  0  0  0
   -6.9228   23.3933  -30.3423 H   0  0  0  0  0  0  0  0  0  0  0  0
   -8.3991   23.9030  -31.2924 H   0  0  0  0  0  0  0  0  0  0  0  0
   -7.9847   21.5499  -29.6061 H   0  0  0  0  0  0  0  0  0  0  0  0
   -9.5031   22.2570  -30.3303 H   0  0  0  0  0  0  0  0  0  0  0  0
   -9.0787   19.8816  -31.0035 H   0  0  0  0  0  0  0  0  0  0  0  0
   -9.1666   21.0452  -32.3794 H   0  0  0  0  0  0  0  0  0  0  0  0
   -6.6836   19.7675  -31.1430 H   0  0  0  0  0  0  0  0  0  0  0  0
   -7.3050   19.6271  -32.8374 H   0  0  0  0  0  0  0  0  0  0  0  0
  1  2  1  0
  2  3  2  0
  3  4  1  0
  4  5  2  0
  5  6  1  0
  6  7  2  0
  7  8  1  0
  8  9  2  0
  8 10  1  0
 10 11  1  0
 11 12  2  0
 12 13  1  0
 13 14  1  0
 14 15  2  0
 14 16  2  0
 14 17  1  0
 17 18  1  0
 18 19  1  0
 19 20  1  0
 20 21  1  0
 13 22  2  0
 22 23  1  0
 23 24  2  0
 24 25  1  0
 25 26  1  0
 26 27  1  0
 27 28  1  0
 28 29  1  0
 29 30  1  0
  7  2  1  0
 24 11  1  0
 30 25  1  0
 21 17  1  0
  1 31  1  0
  1 32  1  0
  3 33  1  0
  4 34  1  0
  5 35  1  0
 12 36  1  0
 18 37  1  0
 18 38  1  0
 19 39  1  0
 19 40  1  0
 20 41  1  0
 20 42  1  0
 21 43  1  0
 21 44  1  0
 22 45  1  0
 23 46  1  0
 26 47  1  0
 26 48  1  0
 27 49  1  0
 27 50  1  0
 28 51  1  0
 28 52  1  0
 29 53  1  0
 29 54  1  0
 30 55  1  0
 30 56  1  0
M  CHG  1  10  -1
M  END
>  <UniqueID>  (26) 
26

>  <SMILES>  (26) 
Nc1cccnc1C(=O)[N-]c1cc(S(=O)(=O)N2CCCC2)ccc1N1CCCCC1

>  <Energy>  (26) 
72.20821240384278

>  <Genealogy>  (26) 
Nc1cccnc1C(=O)[N-]c1cc(S(=O)(=O)N2CCCC2)ccc1N1CCCCC1 (protonated)
Nc1cccnc1C(=O)[N-]c1cc(S(=O)(=O)N2CCCC2)ccc1N1CCCCC1 (3D coordinates assigned)
Nc1cccnc1C(=O)[N-]c1cc(S(=O)(=O)N2CCCC2)ccc1N1CCCCC1 (nonaromatic ring conformer: 72.20821240384278 kcal/mol)

>  <smiles>  (26) 
Nc1cccnc1C(=O)Nc1cc(S(=O)(=O)N2CCCC2)ccc1N1CCCCC1

>  <score_type>  (26) 
oracle

>  <origin>  (26) 
adgpu

>  <m_score__min__energy>  (26) 
-10.26

>  <m_primary>  (26) 
energy

$$$$
26:0
     RDKit          3D

 52 54  0  0  0  0  0  0  0  0999 V2000
   -2.3720   20.0570  -27.1280 C   0  0  0  0  0  0  0  0  0  0  0  0
   -1.3810   21.0900  -27.6630 C   0  0  0  0  0  0  0  0  0  0  0  0
   -0.8010   21.9470  -26.5720 C   0  0  0  0  0  0  0  0  0  0  0  0
   -0.8530   21.6430  -25.2580 N   0  0  0  0  0  0  0  0  0  0  0  0
   -0.2220   22.5900  -24.5780 N   0  0  0  0  0  0  0  0  0  0  0  0
    0.2400   23.5040  -25.4500 C   0  0  0  0  0  0  0  0  0  0  0  0
    1.0370   24.7050  -25.0540 C   0  0  0  0  0  0  0  0  0  0  0  0
   -0.0870   23.1210  -26.7350 C   0  0  0  0  0  0  0  0  0  0  0  0
    0.3070   23.9750  -28.2300 S   0  0  0  0  0  0  0  0  0  0  0  0
    0.0220   23.1030  -29.4200 O   0  0  0  0  0  0  0  0  0  0  0  0
    1.7700   24.3110  -28.2270 O   0  0  0  0  0  0  0  0  0  0  0  0
   -0.6150   25.4430  -28.3580 N   0  0  0  0  0  0  0  0  0  0  0  0
   -1.8030   25.3620  -27.5140 C   0  0  0  0  0  0  0  0  0  0  0  0
   -2.7580   24.3580  -28.0900 C   0  0  0  0  0  0  0  0  0  0  0  0
   -3.6110   23.8200  -27.3350 O   0  0  0  0  0  0  0  0  0  0  0  0
   -2.6830   23.9430  -29.4610 N   0  0  0  0  0  0  0  0  0  0  0  0
   -3.8030   23.6780  -30.3170 C   0  0  0  0  0  0  0  0  0  0  0  0
   -4.1190   22.3660  -30.7120 C   0  0  0  0  0  0  0  0  0  0  0  0
   -5.2100   22.1250  -31.5570 C   0  0  0  0  0  0  0  0  0  0  0  0
   -5.5960   20.4880  -32.0810 S   0  0  0  0  0  0  0  0  0  0  0  0
   -5.4760   20.3820  -33.5770 O   0  0  0  0  0  0  0  0  0  0  0  0
   -4.6240   19.5310  -31.4510 O   0  0  0  0  0  0  0  0  0  0  0  0
   -7.2180   20.0980  -31.5710 N   0  0  0  0  0  0  0  0  0  0  0  0
   -8.2090   20.8790  -32.3110 C   0  0  0  0  0  0  0  0  0  0  0  0
   -9.4830   20.0460  -32.3500 C   0  0  0  0  0  0  0  0  0  0  0  0
   -9.0540   18.6320  -31.9920 C   0  0  0  0  0  0  0  0  0  0  0  0
   -7.5420   18.6990  -31.8440 C   0  0  0  0  0  0  0  0  0  0  0  0
   -5.9710   23.2010  -32.0320 C   0  0  0  0  0  0  0  0  0  0  0  0
   -5.6400   24.5080  -31.6680 C   0  0  0  0  0  0  0  0  0  0  0  0
   -4.5550   24.7500  -30.8180 C   0  0  0  0  0  0  0  0  0  0  0  0
   -4.2370   26.0560  -30.4620 O   0  0  0  0  0  0  0  0  0  0  0  0
   -2.3584   20.0712  -26.0282 H   0  0  0  0  0  0  0  0  0  0  0  0
   -3.3836   20.2999  -27.4854 H   0  0  0  0  0  0  0  0  0  0  0  0
   -2.0873   19.0564  -27.4854 H   0  0  0  0  0  0  0  0  0  0  0  0
   -0.5606   20.5622  -28.1714 H   0  0  0  0  0  0  0  0  0  0  0  0
   -1.9253   21.7502  -28.3543 H   0  0  0  0  0  0  0  0  0  0  0  0
    1.0806   24.7707  -23.9568 H   0  0  0  0  0  0  0  0  0  0  0  0
    2.0568   24.6174  -25.4569 H   0  0  0  0  0  0  0  0  0  0  0  0
    0.5601   25.6107  -25.4569 H   0  0  0  0  0  0  0  0  0  0  0  0
   -1.5118   25.0512  -26.4998 H   0  0  0  0  0  0  0  0  0  0  0  0
   -2.2895   26.3476  -27.4699 H   0  0  0  0  0  0  0  0  0  0  0  0
   -3.5064   21.5247  -30.3557 H   0  0  0  0  0  0  0  0  0  0  0  0
   -8.3967   21.8349  -31.8000 H   0  0  0  0  0  0  0  0  0  0  0  0
   -7.8543   21.1070  -33.3270 H   0  0  0  0  0  0  0  0  0  0  0  0
  -10.2120   20.4237  -31.6179 H   0  0  0  0  0  0  0  0  0  0  0  0
   -9.9685   20.0882  -33.3362 H   0  0  0  0  0  0  0  0  0  0  0  0
   -9.5203   18.3150  -31.0475 H   0  0  0  0  0  0  0  0  0  0  0  0
   -9.3601   17.9035  -32.7572 H   0  0  0  0  0  0  0  0  0  0  0  0
   -7.2124   18.0620  -31.0100 H   0  0  0  0  0  0  0  0  0  0  0  0
   -7.0352   18.3412  -32.7523 H   0  0  0  0  0  0  0  0  0  0  0  0
   -6.8307   23.0161  -32.6928 H   0  0  0  0  0  0  0  0  0  0  0  0
   -6.2345   25.3506  -32.0509 H   0  0  0  0  0  0  0  0  0  0  0  0
  1  2  1  0
  2  3  1  0
  3  4  2  0
  4  5  1  0
  5  6  1  0
  6  7  1  0
  6  8  2  0
  8  9  1  0
  9 10  2  0
  9 11  2  0
  9 12  1  0
 12 13  1  0
 13 14  1  0
 14 15  2  0
 14 16  1  0
 16 17  1  0
 17 18  2  0
 18 19  1  0
 19 20  1  0
 20 21  2  0
 20 22  2  0
 20 23  1  0
 23 24  1  0
 24 25  1  0
 25 26  1  0
 26 27  1  0
 19 28  2  0
 28 29  1  0
 29 30  2  0
 30 31  1  0
  8  3  1  0
 30 17  1  0
 27 23  1  0
  1 32  1  0
  1 33  1  0
  1 34  1  0
  2 35  1  0
  2 36  1  0
  7 37  1  0
  7 38  1  0
  7 39  1  0
 13 40  1  0
 13 41  1  0
 18 42  1  0
 24 43  1  0
 24 44  1  0
 25 45  1  0
 25 46  1  0
 26 47  1  0
 26 48  1  0
 27 49  1  0
 27 50  1  0
 28 51  1  0
 29 52  1  0
M  CHG  4   5  -1  12  -1  16  -1  31  -1
M  END
>  <UniqueID>  (27) 
27

>  <SMILES>  (27) 
CCc1n[n-]c(C)c1S(=O)(=O)[N-]CC(=O)[N-]c1cc(S(=O)(=O)N2CCCC2)ccc1[O-]

>  <Energy>  (27) 
80.51542474153979

>  <Genealogy>  (27) 
CCc1n[n-]c(C)c1S(=O)(=O)[N-]CC(=O)[N-]c1cc(S(=O)(=O)N2CCCC2)ccc1[O-] (protonated)
CCc1n[n-]c(C)c1S(=O)(=O)[N-]CC(=O)[N-]c1cc(S(=O)(=O)N2CCCC2)ccc1[O-] (3D coordinates assigned)
CCc1n[n-]c(C)c1S(=O)(=O)[N-]CC(=O)[N-]c1cc(S(=O)(=O)N2CCCC2)ccc1[O-] (nonaromatic ring conformer: 80.51542474153979 kcal/mol)

>  <smiles>  (27) 
CCc1n[nH]c(C)c1S(=O)(=O)NCC(=O)Nc1cc(S(=O)(=O)N2CCCC2)ccc1O

>  <score_type>  (27) 
oracle

>  <origin>  (27) 
adgpu

>  <m_score__min__energy>  (27) 
-14.27

>  <m_primary>  (27) 
energy

$$$$
27:0
     RDKit          3D

 49 52  0  0  0  0  0  0  0  0999 V2000
   -0.8960   26.3390  -27.9800 C   0  0  0  0  0  0  0  0  0  0  0  0
   -1.5800   25.5640  -28.9600 O   0  0  0  0  0  0  0  0  0  0  0  0
   -1.5830   24.1610  -29.0030 C   0  0  0  0  0  0  0  0  0  0  0  0
   -0.4150   23.4190  -29.2720 C   0  0  0  0  0  0  0  0  0  0  0  0
   -0.4610   22.0250  -29.3240 C   0  0  0  0  0  0  0  0  0  0  0  0
   -1.6660   21.3540  -29.1100 C   0  0  0  0  0  0  0  0  0  0  0  0
   -2.8290   22.0760  -28.8410 C   0  0  0  0  0  0  0  0  0  0  0  0
   -2.7950   23.4790  -28.7810 C   0  0  0  0  0  0  0  0  0  0  0  0
   -3.9950   24.2070  -28.4890 N   0  0  0  0  0  0  0  0  0  0  0  0
   -4.3280   24.5460  -27.1080 C   0  0  0  0  0  0  0  0  0  0  0  0
   -5.0220   24.7470  -29.7820 S   0  0  0  0  0  0  0  0  0  0  0  0
   -6.0340   25.7310  -29.2660 O   0  0  0  0  0  0  0  0  0  0  0  0
   -4.1840   25.4200  -30.8320 O   0  0  0  0  0  0  0  0  0  0  0  0
   -5.8750   23.3610  -30.4510 C   0  0  0  0  0  0  0  0  0  0  0  0
   -7.2280   23.1740  -30.1480 C   0  0  0  0  0  0  0  0  0  0  0  0
   -7.9160   22.0710  -30.6580 C   0  0  0  0  0  0  0  0  0  0  0  0
   -7.2580   21.1420  -31.4740 C   0  0  0  0  0  0  0  0  0  0  0  0
   -7.9600   20.0620  -32.0080 O   0  0  0  0  0  0  0  0  0  0  0  0
   -5.8930   21.3140  -31.7720 C   0  0  0  0  0  0  0  0  0  0  0  0
   -5.1960   20.3600  -32.5900 N   0  0  0  0  0  0  0  0  0  0  0  0
   -5.7170   19.6460  -33.7160 C   0  0  0  0  0  0  0  0  0  0  0  0
   -6.8540   19.8440  -34.2230 O   0  0  0  0  0  0  0  0  0  0  0  0
   -4.7730   18.6140  -34.1320 C   0  0  0  0  0  0  0  0  0  0  0  0
   -4.8430   17.6810  -35.1650 C   0  0  0  0  0  0  0  0  0  0  0  0
   -3.7710   16.7810  -35.3150 C   0  0  0  0  0  0  0  0  0  0  0  0
   -2.6660   16.8320  -34.4390 C   0  0  0  0  0  0  0  0  0  0  0  0
   -2.6210   17.7820  -33.4010 C   0  0  0  0  0  0  0  0  0  0  0  0
   -3.6950   18.6620  -33.2740 C   0  0  0  0  0  0  0  0  0  0  0  0
   -3.9440   19.7270  -32.3090 C   0  0  0  0  0  0  0  0  0  0  0  0
   -3.1700   20.0650  -31.3750 O   0  0  0  0  0  0  0  0  0  0  0  0
   -5.2110   22.4310  -31.2600 C   0  0  0  0  0  0  0  0  0  0  0  0
   -1.1921   26.0035  -26.9751 H   0  0  0  0  0  0  0  0  0  0  0  0
    0.1895   26.2117  -28.1040 H   0  0  0  0  0  0  0  0  0  0  0  0
   -1.1572   27.4003  -28.1040 H   0  0  0  0  0  0  0  0  0  0  0  0
    0.5379   23.9415  -29.4419 H   0  0  0  0  0  0  0  0  0  0  0  0
    0.4551   21.4535  -29.5342 H   0  0  0  0  0  0  0  0  0  0  0  0
   -1.6987   20.2553  -29.1535 H   0  0  0  0  0  0  0  0  0  0  0  0
   -3.7774   21.5440  -28.6751 H   0  0  0  0  0  0  0  0  0  0  0  0
   -3.7244   23.9315  -26.4238 H   0  0  0  0  0  0  0  0  0  0  0  0
   -4.1145   25.6103  -26.9300 H   0  0  0  0  0  0  0  0  0  0  0  0
   -5.3959   24.3515  -26.9300 H   0  0  0  0  0  0  0  0  0  0  0  0
   -7.7514   23.8980  -29.5061 H   0  0  0  0  0  0  0  0  0  0  0  0
   -8.9803   21.9310  -30.4176 H   0  0  0  0  0  0  0  0  0  0  0  0
   -7.9780   19.8820  -33.0060 H   0  0  0  0  0  0  0  0  0  0  0  0
   -5.7092   17.6489  -35.8422 H   0  0  0  0  0  0  0  0  0  0  0  0
   -3.7949   16.0326  -36.1209 H   0  0  0  0  0  0  0  0  0  0  0  0
   -1.8338   16.1244  -34.5681 H   0  0  0  0  0  0  0  0  0  0  0  0
   -1.7651   17.8286  -32.7116 H   0  0  0  0  0  0  0  0  0  0  0  0
   -4.1466   22.5759  -31.4968 H   0  0  0  0  0  0  0  0  0  0  0  0
  1  2  1  0
  2  3  1  0
  3  4  2  0
  4  5  1  0
  5  6  2  0
  6  7  1  0
  7  8  2  0
  8  9  1  0
  9 10  1  0
  9 11  1  0
 11 12  2  0
 11 13  2  0
 11 14  1  0
 14 15  2  0
 15 16  1  0
 16 17  2  0
 17 18  1  0
 17 19  1  0
 19 20  1  0
 20 21  1  0
 21 22  2  0
 21 23  1  0
 23 24  2  0
 24 25  1  0
 25 26  2  0
 26 27  1  0
 27 28  2  0
 28 29  1  0
 29 30  2  0
 19 31  2  0
  8  3  1  0
 31 14  1  0
 29 20  1  0
 28 23  1  0
  1 32  1  0
  1 33  1  0
  1 34  1  0
  4 35  1  0
  5 36  1  0
  6 37  1  0
  7 38  1  0
 10 39  1  0
 10 40  1  0
 10 41  1  0
 15 42  1  0
 16 43  1  0
 18 44  1  0
 24 45  1  0
 25 46  1  0
 26 47  1  0
 27 48  1  0
 31 49  1  0
M  END
>  <UniqueID>  (28) 
28

>  <SMILES>  (28) 
COc1ccccc1N(C)S(=O)(=O)c1ccc(O)c(N2C(=O)c3ccccc3C2=O)c1

>  <Energy>  (28) 
95.9186523220137

>  <Genealogy>  (28) 
COc1ccccc1N(C)S(=O)(=O)c1ccc(O)c(N2C(=O)c3ccccc3C2=O)c1 (3D coordinates assigned)
COc1ccccc1N(C)S(=O)(=O)c1ccc(O)c(N2C(=O)c3ccccc3C2=O)c1 (nonaromatic ring conformer: 95.9186523220137 kcal/mol)

>  <smiles>  (28) 
COc1ccccc1N(C)S(=O)(=O)c1ccc(O)c(N2C(=O)c3ccccc3C2=O)c1

>  <score_type>  (28) 
oracle

>  <origin>  (28) 
adgpu

>  <m_score__min__energy>  (28) 
-10.279999999999999

>  <m_primary>  (28) 
energy

$$$$
28:0
     RDKit          3D

 68 72  0  0  0  0  0  0  0  0999 V2000
    1.5510   18.2190  -35.4440 C   0  0  0  0  0  0  0  0  0  0  0  0
    0.0920   18.1840  -35.0740 C   0  0  0  0  0  0  0  0  0  0  0  0
   -0.6550   17.0520  -35.4380 C   0  0  0  0  0  0  0  0  0  0  0  0
   -2.0040   16.9460  -35.1030 C   0  0  0  0  0  0  0  0  0  0  0  0
   -2.6420   17.9670  -34.3850 C   0  0  0  0  0  0  0  0  0  0  0  0
   -4.0840   17.8580  -34.0390 C   0  0  0  0  0  0  0  0  0  0  0  0
   -4.7900   16.6680  -34.2890 C   0  0  0  0  0  0  0  0  0  0  0  0
   -6.1470   16.5740  -33.9790 C   0  0  0  0  0  0  0  0  0  0  0  0
   -6.8180   17.6600  -33.4150 C   0  0  0  0  0  0  0  0  0  0  0  0
   -6.1340   18.8590  -33.1460 C   0  0  0  0  0  0  0  0  0  0  0  0
   -6.8740   20.0160  -32.5770 C   0  0  0  0  0  0  0  0  0  0  0  0
   -8.2780   20.0510  -32.5380 C   0  0  0  0  0  0  0  0  0  0  0  0
   -8.9210   21.1510  -31.9700 C   0  0  0  0  0  0  0  0  0  0  0  0
  -10.1790   21.1880  -31.9210 O   0  0  0  0  0  0  0  0  0  0  0  0
   -8.1710   22.2100  -31.4530 C   0  0  0  0  0  0  0  0  0  0  0  0
   -6.7640   22.1670  -31.5210 C   0  0  0  0  0  0  0  0  0  0  0  0
   -5.9330   23.2370  -31.0010 N   0  0  0  0  0  0  0  0  0  0  0  0
   -4.7950   22.9340  -30.1130 C   0  0  0  0  0  0  0  0  0  0  0  0
   -4.1600   24.1900  -29.5060 C   0  0  0  0  0  0  0  0  0  0  0  0
   -4.0660   25.2240  -30.4590 O   0  0  0  0  0  0  0  0  0  0  0  0
   -5.3660   25.6630  -30.7800 C   0  0  0  0  0  0  0  0  0  0  0  0
   -6.1250   24.5890  -31.5610 C   0  0  0  0  0  0  0  0  0  0  0  0
   -6.1740   21.0710  -32.0780 N   0  0  0  0  0  0  0  0  0  0  0  0
   -4.7660   18.9490  -33.4660 C   0  0  0  0  0  0  0  0  0  0  0  0
   -1.8950   19.0910  -33.9950 C   0  0  0  0  0  0  0  0  0  0  0  0
   -0.5320   19.2110  -34.3200 C   0  0  0  0  0  0  0  0  0  0  0  0
    0.3450   20.6530  -33.7620 S   0  0  0  0  0  0  0  0  0  0  0  0
    0.0510   21.8080  -34.6830 O   0  0  0  0  0  0  0  0  0  0  0  0
    1.8240   20.3810  -33.8110 O   0  0  0  0  0  0  0  0  0  0  0  0
   -0.1250   21.0890  -32.1350 N   0  0  0  0  0  0  0  0  0  0  0  0
   -1.5260   21.5390  -32.1190 C   0  0  0  0  0  0  0  0  0  0  0  0
   -1.9000   22.0780  -30.7240 C   0  0  0  0  0  0  0  0  0  0  0  0
   -1.2940   21.3080  -29.6090 N   0  0  0  0  0  0  0  0  0  0  0  0
   -0.2190   22.0480  -28.9250 C   0  0  0  0  0  0  0  0  0  0  0  0
   -0.8670   19.9510  -30.0020 C   0  0  0  0  0  0  0  0  0  0  0  0
    0.0990   19.9530  -31.2100 C   0  0  0  0  0  0  0  0  0  0  0  0
    2.1611   18.2336  -34.5288 H   0  0  0  0  0  0  0  0  0  0  0  0
    1.8005   17.3266  -36.0368 H   0  0  0  0  0  0  0  0  0  0  0  0
    1.7574   19.1224  -36.0368 H   0  0  0  0  0  0  0  0  0  0  0  0
   -0.1689   16.2376  -35.9952 H   0  0  0  0  0  0  0  0  0  0  0  0
   -2.5725   16.0539  -35.4045 H   0  0  0  0  0  0  0  0  0  0  0  0
   -4.2693   15.8060  -34.7316 H   0  0  0  0  0  0  0  0  0  0  0  0
   -6.6908   15.6392  -34.1801 H   0  0  0  0  0  0  0  0  0  0  0  0
   -7.8893   17.5776  -33.1792 H   0  0  0  0  0  0  0  0  0  0  0  0
   -8.8653   19.2180  -32.9519 H   0  0  0  0  0  0  0  0  0  0  0  0
   -8.6761   23.0732  -30.9951 H   0  0  0  0  0  0  0  0  0  0  0  0
   -5.1501   22.2901  -29.2949 H   0  0  0  0  0  0  0  0  0  0  0  0
   -4.0253   22.4366  -30.7215 H   0  0  0  0  0  0  0  0  0  0  0  0
   -4.7782   24.5334  -28.6635 H   0  0  0  0  0  0  0  0  0  0  0  0
   -3.1454   23.9374  -29.1643 H   0  0  0  0  0  0  0  0  0  0  0  0
   -5.9110   25.8860  -29.8509 H   0  0  0  0  0  0  0  0  0  0  0  0
   -5.2891   26.5650  -31.4049 H   0  0  0  0  0  0  0  0  0  0  0  0
   -7.1980   24.8300  -31.5394 H   0  0  0  0  0  0  0  0  0  0  0  0
   -5.7308   24.5831  -32.5879 H   0  0  0  0  0  0  0  0  0  0  0  0
   -4.2224   19.8841  -33.2658 H   0  0  0  0  0  0  0  0  0  0  0  0
   -2.3858   19.8930  -33.4242 H   0  0  0  0  0  0  0  0  0  0  0  0
    0.4740   21.8970  -31.8510 H   0  0  0  0  0  0  0  0  0  0  0  0
   -1.6590   22.3374  -32.8639 H   0  0  0  0  0  0  0  0  0  0  0  0
   -2.1780   20.6863  -32.3593 H   0  0  0  0  0  0  0  0  0  0  0  0
   -1.5600   23.1216  -30.6515 H   0  0  0  0  0  0  0  0  0  0  0  0
   -2.9916   21.9866  -30.6241 H   0  0  0  0  0  0  0  0  0  0  0  0
   -0.3481   21.9592  -27.8362 H   0  0  0  0  0  0  0  0  0  0  0  0
    0.7561   21.6288  -29.2141 H   0  0  0  0  0  0  0  0  0  0  0  0
   -0.2625   23.1084  -29.2141 H   0  0  0  0  0  0  0  0  0  0  0  0
   -0.3594   19.4808  -29.1469 H   0  0  0  0  0  0  0  0  0  0  0  0
   -1.7675   19.3934  -30.2989 H   0  0  0  0  0  0  0  0  0  0  0  0
    1.1307   20.0078  -30.8325 H   0  0  0  0  0  0  0  0  0  0  0  0
   -0.0850   19.0286  -31.7771 H   0  0  0  0  0  0  0  0  0  0  0  0
  1  2  1  0
  2  3  2  0
  3  4  1  0
  4  5  2  0
  5  6  1  0
  6  7  2  0
  7  8  1  0
  8  9  2  0
  9 10  1  0
 10 11  1  0
 11 12  2  0
 12 13  1  0
 13 14  2  0
 13 15  1  0
 15 16  2  0
 16 17  1  0
 17 18  1  0
 18 19  1  0
 19 20  1  0
 20 21  1  0
 21 22  1  0
 16 23  1  0
 10 24  2  0
  5 25  1  0
 25 26  2  0
 26 27  1  0
 27 28  2  0
 27 29  2  0
 27 30  1  0
 30 31  1  0
 31 32  1  0
 32 33  1  0
 33 34  1  0
 33 35  1  0
 35 36  1  0
 26  2  1  0
 36 30  1  0
 24  6  1  0
 23 11  1  0
 22 17  1  0
  1 37  1  0
  1 38  1  0
  1 39  1  0
  3 40  1  0
  4 41  1  0
  7 42  1  0
  8 43  1  0
  9 44  1  0
 12 45  1  0
 15 46  1  0
 18 47  1  0
 18 48  1  0
 19 49  1  0
 19 50  1  0
 21 51  1  0
 21 52  1  0
 22 53  1  0
 22 54  1  0
 24 55  1  0
 25 56  1  0
 30 57  1  0
 31 58  1  0
 31 59  1  0
 32 60  1  0
 32 61  1  0
 34 62  1  0
 34 63  1  0
 34 64  1  0
 35 65  1  0
 35 66  1  0
 36 67  1  0
 36 68  1  0
M  CHG  2  23  -1  30   1
M  END
>  <UniqueID>  (29) 
29

>  <SMILES>  (29) 
Cc1ccc(-c2cccc(-c3cc(=O)cc(N4CCOCC4)[n-]3)c2)cc1S(=O)(=O)[NH+]1CCN(C)CC1

>  <Energy>  (29) 
98.39599713380223

>  <Genealogy>  (29) 
Cc1ccc(-c2cccc(-c3cc(=O)cc(N4CCOCC4)[n-]3)c2)cc1S(=O)(=O)[NH+]1CCN(C)CC1 (protonated)
Cc1ccc(-c2cccc(-c3cc(=O)cc(N4CCOCC4)[n-]3)c2)cc1S(=O)(=O)[NH+]1CCN(C)CC1 (3D coordinates assigned)
Cc1ccc(-c2cccc(-c3cc(=O)cc(N4CCOCC4)[n-]3)c2)cc1S(=O)(=O)[NH+]1CCN(C)CC1 (nonaromatic ring conformer: 98.39599713380223 kcal/mol)

>  <smiles>  (29) 
Cc1ccc(-c2cccc(-c3cc(=O)cc(N4CCOCC4)[nH]3)c2)cc1S(=O)(=O)N1CCN(C)CC1

>  <score_type>  (29) 
oracle

>  <origin>  (29) 
adgpu

>  <m_score__min__energy>  (29) 
-11.57

>  <m_primary>  (29) 
energy

$$$$
29:0
     RDKit          3D

 74 78  0  0  0  0  0  0  0  0999 V2000
    1.1770   25.1480  -36.8660 C   0  0  0  0  0  0  0  0  0  0  0  0
    1.3920   23.7620  -37.1130 O   0  0  0  0  0  0  0  0  0  0  0  0
    1.3570   22.7640  -36.1280 C   0  0  0  0  0  0  0  0  0  0  0  0
    0.2040   22.5060  -35.3660 C   0  0  0  0  0  0  0  0  0  0  0  0
    0.1880   21.4830  -34.4080 C   0  0  0  0  0  0  0  0  0  0  0  0
    1.3260   20.6710  -34.2350 C   0  0  0  0  0  0  0  0  0  0  0  0
    2.4990   20.9710  -34.9550 C   0  0  0  0  0  0  0  0  0  0  0  0
    2.5160   22.0120  -35.9030 C   0  0  0  0  0  0  0  0  0  0  0  0
    3.6670   22.3300  -36.6430 O   0  0  0  0  0  0  0  0  0  0  0  0
    4.9350   22.6450  -36.0760 C   0  0  0  0  0  0  0  0  0  0  0  0
    1.2820   19.5620  -33.1970 C   0  0  2  0  0  0  0  0  0  0  0  0
    2.3250   18.4460  -33.3790 C   0  0  0  0  0  0  0  0  0  0  0  0
   -0.0850   19.0100  -33.0530 N   0  0  0  0  0  0  0  0  0  0  0  0
   -0.6840   18.0370  -34.3970 S   0  0  0  0  0  0  0  0  0  0  0  0
   -0.4650   18.7700  -35.6900 O   0  0  0  0  0  0  0  0  0  0  0  0
    0.1220   16.7690  -34.4670 O   0  0  0  0  0  0  0  0  0  0  0  0
   -2.3950   17.5970  -34.2830 C   0  0  0  0  0  0  0  0  0  0  0  0
   -2.8020   16.2770  -34.5120 C   0  0  0  0  0  0  0  0  0  0  0  0
   -4.1450   15.9220  -34.3870 C   0  0  0  0  0  0  0  0  0  0  0  0
   -5.0980   16.8860  -34.0560 C   0  0  0  0  0  0  0  0  0  0  0  0
   -4.7180   18.2270  -33.8690 C   0  0  0  0  0  0  0  0  0  0  0  0
   -5.7200   19.2600  -33.5130 C   0  0  0  0  0  0  0  0  0  0  0  0
   -6.4590   19.7450  -34.4130 O   0  0  0  0  0  0  0  0  0  0  0  0
   -5.8890   19.6870  -32.1520 N   0  0  0  0  0  0  0  0  0  0  0  0
   -6.4630   20.9520  -31.7830 C   0  0  0  0  0  0  0  0  0  0  0  0
   -7.8150   21.2410  -32.0400 C   0  0  0  0  0  0  0  0  0  0  0  0
   -8.3480   22.4820  -31.6900 C   0  0  0  0  0  0  0  0  0  0  0  0
   -7.5370   23.4530  -31.0970 C   0  0  0  0  0  0  0  0  0  0  0  0
   -6.1790   23.1920  -30.8650 C   0  0  0  0  0  0  0  0  0  0  0  0
   -5.1470   24.4250  -30.1320 S   0  0  0  0  0  0  0  0  0  0  0  0
   -5.9740   25.2690  -29.2030 O   0  0  0  0  0  0  0  0  0  0  0  0
   -4.6080   25.3190  -31.2150 O   0  0  0  0  0  0  0  0  0  0  0  0
   -3.8090   23.7440  -29.2360 N   0  0  0  0  0  0  0  0  0  0  0  0
   -4.2450   22.7270  -28.2840 C   0  0  0  0  0  0  0  0  0  0  0  0
   -3.0510   21.8120  -28.0570 C   0  0  0  0  0  0  0  0  0  0  0  0
   -2.1360   22.0420  -29.2520 C   0  0  0  0  0  0  0  0  0  0  0  0
   -2.8480   23.0760  -30.1110 C   0  0  0  0  0  0  0  0  0  0  0  0
   -5.6490   21.9400  -31.2070 C   0  0  0  0  0  0  0  0  0  0  0  0
   -3.3600   18.5730  -33.9930 C   0  0  0  0  0  0  0  0  0  0  0  0
   -1.0360   20.0600  -32.6480 C   0  0  0  0  0  0  0  0  0  0  0  0
   -1.0800   21.2610  -33.6150 C   0  0  0  0  0  0  0  0  0  0  0  0
    1.1492   25.3271  -35.7810 H   0  0  0  0  0  0  0  0  0  0  0  0
    1.9954   25.7314  -37.3131 H   0  0  0  0  0  0  0  0  0  0  0  0
    0.2203   25.4560  -37.3131 H   0  0  0  0  0  0  0  0  0  0  0  0
   -0.6980   23.1154  -35.5238 H   0  0  0  0  0  0  0  0  0  0  0  0
    3.4124   20.3852  -34.7745 H   0  0  0  0  0  0  0  0  0  0  0  0
    4.8607   22.6266  -34.9787 H   0  0  0  0  0  0  0  0  0  0  0  0
    5.6783   21.9042  -36.4057 H   0  0  0  0  0  0  0  0  0  0  0  0
    5.2452   23.6475  -36.4057 H   0  0  0  0  0  0  0  0  0  0  0  0
    1.5704   20.0540  -32.2564 H   0  0  0  0  0  0  0  0  0  0  0  0
    2.6574   18.0904  -32.3926 H   0  0  0  0  0  0  0  0  0  0  0  0
    1.8755   17.6116  -33.9373 H   0  0  0  0  0  0  0  0  0  0  0  0
    3.1879   18.8381  -33.9373 H   0  0  0  0  0  0  0  0  0  0  0  0
   -2.0587   15.5160  -34.7919 H   0  0  0  0  0  0  0  0  0  0  0  0
   -4.4539   14.8789  -34.5498 H   0  0  0  0  0  0  0  0  0  0  0  0
   -6.1526   16.5953  -33.9407 H   0  0  0  0  0  0  0  0  0  0  0  0
   -5.6750   19.0030  -31.3890 H   0  0  0  0  0  0  0  0  0  0  0  0
   -8.4551   20.4855  -32.5190 H   0  0  0  0  0  0  0  0  0  0  0  0
   -9.4097   22.6966  -31.8815 H   0  0  0  0  0  0  0  0  0  0  0  0
   -7.9652   24.4251  -30.8113 H   0  0  0  0  0  0  0  0  0  0  0  0
   -4.5493   23.1974  -27.3374 H   0  0  0  0  0  0  0  0  0  0  0  0
   -5.1102   22.1663  -28.6674 H   0  0  0  0  0  0  0  0  0  0  0  0
   -2.5362   22.0752  -27.1212 H   0  0  0  0  0  0  0  0  0  0  0  0
   -3.3529   20.7580  -27.9684 H   0  0  0  0  0  0  0  0  0  0  0  0
   -1.1588   22.4234  -28.9210 H   0  0  0  0  0  0  0  0  0  0  0  0
   -1.9440   21.1113  -29.8060 H   0  0  0  0  0  0  0  0  0  0  0  0
   -2.1253   23.8036  -30.5089 H   0  0  0  0  0  0  0  0  0  0  0  0
   -3.3489   22.6058  -30.9701 H   0  0  0  0  0  0  0  0  0  0  0  0
   -4.5852   21.7298  -31.0222 H   0  0  0  0  0  0  0  0  0  0  0  0
   -3.0514   19.6206  -33.8611 H   0  0  0  0  0  0  0  0  0  0  0  0
   -2.0417   19.6174  -32.5975 H   0  0  0  0  0  0  0  0  0  0  0  0
   -0.6975   20.4429  -31.6739 H   0  0  0  0  0  0  0  0  0  0  0  0
   -1.9039   21.0984  -34.3254 H   0  0  0  0  0  0  0  0  0  0  0  0
   -1.2157   22.1565  -32.9908 H   0  0  0  0  0  0  0  0  0  0  0  0
  1  2  1  0
  2  3  1  0
  3  4  2  0
  4  5  1  0
  5  6  2  0
  6  7  1  0
  7  8  2  0
  8  9  1  0
  9 10  1  0
  6 11  1  0
 11 12  1  0
 11 13  1  0
 13 14  1  0
 14 15  2  0
 14 16  2  0
 14 17  1  0
 17 18  2  0
 18 19  1  0
 19 20  2  0
 20 21  1  0
 21 22  1  0
 22 23  2  0
 22 24  1  0
 24 25  1  0
 25 26  2  0
 26 27  1  0
 27 28  2  0
 28 29  1  0
 29 30  1  0
 30 31  2  0
 30 32  2  0
 30 33  1  0
 33 34  1  0
 34 35  1  0
 35 36  1  0
 36 37  1  0
 29 38  2  0
 21 39  2  0
 13 40  1  0
 40 41  1  0
  8  3  1  0
 39 17  1  0
 41  5  1  0
 38 25  1  0
 37 33  1  0
  1 42  1  0
  1 43  1  0
  1 44  1  0
  4 45  1  0
  7 46  1  0
 10 47  1  0
 10 48  1  0
 10 49  1  0
 11 50  1  1
 12 51  1  0
 12 52  1  0
 12 53  1  0
 18 54  1  0
 19 55  1  0
 20 56  1  0
 24 57  1  0
 26 58  1  0
 27 59  1  0
 28 60  1  0
 34 61  1  0
 34 62  1  0
 35 63  1  0
 35 64  1  0
 36 65  1  0
 36 66  1  0
 37 67  1  0
 37 68  1  0
 38 69  1  0
 39 70  1  0
 40 71  1  0
 40 72  1  0
 41 73  1  0
 41 74  1  0
M  END
>  <UniqueID>  (30) 
30

>  <SMILES>  (30) 
COc1cc2c(cc1OC)[C@H](C)N(S(=O)(=O)c1cccc(C(=O)Nc3cccc(S(=O)(=O)N4CCCC4)c3)c1)CC2

>  <Energy>  (30) 
89.60565324836728

>  <Genealogy>  (30) 
COc1cc2c(cc1OC)[C@H](C)N(S(=O)(=O)c1cccc(C(=O)Nc3cccc(S(=O)(=O)N4CCCC4)c3)c1)CC2 (chirality)
COc1cc2c(cc1OC)[C@H](C)N(S(=O)(=O)c1cccc(C(=O)Nc3cccc(S(=O)(=O)N4CCCC4)c3)c1)CC2 (3D coordinates assigned)
COc1cc2c(cc1OC)[C@H](C)N(S(=O)(=O)c1cccc(C(=O)Nc3cccc(S(=O)(=O)N4CCCC4)c3)c1)CC2 (nonaromatic ring conformer: 89.60565324836728 kcal/mol)

>  <smiles>  (30) 
COc1cc2c(cc1OC)C(C)N(S(=O)(=O)c1cccc(C(=O)Nc3cccc(S(=O)(=O)N4CCCC4)c3)c1)CC2

>  <score_type>  (30) 
oracle

>  <origin>  (30) 
adgpu

>  <m_score__min__energy>  (30) 
-11.43

>  <m_primary>  (30) 
energy

$$$$
30:0
     RDKit          3D

 51 54  0  0  0  0  0  0  0  0999 V2000
   -6.8330   25.7130  -29.7960 O   0  0  0  0  0  0  0  0  0  0  0  0
   -5.6600   24.8260  -30.1060 S   0  0  0  0  0  0  0  0  0  0  0  0
   -4.6980   25.5850  -30.9770 O   0  0  0  0  0  0  0  0  0  0  0  0
   -4.8730   24.3730  -28.6270 N   0  0  0  0  0  0  0  0  0  0  0  0
   -3.7100   23.5260  -28.5970 C   0  0  0  0  0  0  0  0  0  0  0  0
   -3.7820   22.2160  -28.0950 C   0  0  0  0  0  0  0  0  0  0  0  0
   -2.6380   21.4110  -28.0180 C   0  0  0  0  0  0  0  0  0  0  0  0
   -1.4110   21.8970  -28.5100 C   0  0  0  0  0  0  0  0  0  0  0  0
   -1.3400   23.1980  -29.0260 C   0  0  0  0  0  0  0  0  0  0  0  0
   -2.4790   24.0080  -29.0740 C   0  0  0  0  0  0  0  0  0  0  0  0
   -2.3750   25.2970  -29.5840 O   0  0  0  0  0  0  0  0  0  0  0  0
   -0.1500   21.0710  -28.3920 C   0  0  0  0  0  0  0  0  0  0  0  0
   -0.4330   19.6380  -28.2410 N   0  0  0  0  0  0  0  0  0  0  0  0
   -1.3890   19.4070  -27.1520 C   0  0  0  0  0  0  0  0  0  0  0  0
   -2.7590   20.0050  -27.4890 C   0  0  0  0  0  0  0  0  0  0  0  0
   -6.2450   23.3810  -30.9270 C   0  0  0  0  0  0  0  0  0  0  0  0
   -7.6110   23.0720  -30.8940 C   0  0  0  0  0  0  0  0  0  0  0  0
   -8.0820   21.9030  -31.4980 C   0  0  0  0  0  0  0  0  0  0  0  0
   -7.1900   21.0340  -32.1320 C   0  0  0  0  0  0  0  0  0  0  0  0
   -5.8210   21.3340  -32.1700 C   0  0  0  0  0  0  0  0  0  0  0  0
   -4.6910   20.2350  -32.9650 S   0  0  0  0  0  0  0  0  0  0  0  0
   -4.3840   19.0900  -32.0400 O   0  0  0  0  0  0  0  0  0  0  0  0
   -5.3370   19.6720  -34.2000 O   0  0  0  0  0  0  0  0  0  0  0  0
   -3.1990   21.0380  -33.4100 N   0  0  0  0  0  0  0  0  0  0  0  0
   -2.5410   21.6180  -32.2350 C   0  0  0  0  0  0  0  0  0  0  0  0
   -1.4660   20.6510  -31.7640 C   0  0  0  0  0  0  0  0  0  0  0  0
   -1.2490   19.6840  -32.9110 C   0  0  0  0  0  0  0  0  0  0  0  0
   -2.2400   20.0930  -33.9920 C   0  0  0  0  0  0  0  0  0  0  0  0
   -5.3520   22.5090  -31.5660 C   0  0  0  0  0  0  0  0  0  0  0  0
   -5.3750   24.5910  -27.7400 H   0  0  0  0  0  0  0  0  0  0  0  0
   -4.7499   21.8168  -27.7577 H   0  0  0  0  0  0  0  0  0  0  0  0
   -0.3796   23.5856  -29.3967 H   0  0  0  0  0  0  0  0  0  0  0  0
    0.4551   21.2182  -29.2987 H   0  0  0  0  0  0  0  0  0  0  0  0
    0.3868   21.4041  -27.4915 H   0  0  0  0  0  0  0  0  0  0  0  0
   -0.8390   19.2750  -29.1370 H   0  0  0  0  0  0  0  0  0  0  0  0
   -1.4983   18.3241  -26.9928 H   0  0  0  0  0  0  0  0  0  0  0  0
   -1.0082   19.8934  -26.2418 H   0  0  0  0  0  0  0  0  0  0  0  0
   -3.2441   19.3777  -28.2513 H   0  0  0  0  0  0  0  0  0  0  0  0
   -3.3564   20.0359  -26.5659 H   0  0  0  0  0  0  0  0  0  0  0  0
   -8.3149   23.7515  -30.3912 H   0  0  0  0  0  0  0  0  0  0  0  0
   -9.1561   21.6667  -31.4743 H   0  0  0  0  0  0  0  0  0  0  0  0
   -7.5629   20.1122  -32.6024 H   0  0  0  0  0  0  0  0  0  0  0  0
   -2.0830   22.5816  -32.5029 H   0  0  0  0  0  0  0  0  0  0  0  0
   -3.2758   21.7874  -31.4341 H   0  0  0  0  0  0  0  0  0  0  0  0
   -0.5356   21.1928  -31.5385 H   0  0  0  0  0  0  0  0  0  0  0  0
   -1.7671   20.1275  -30.8446 H   0  0  0  0  0  0  0  0  0  0  0  0
   -0.2183   19.7613  -33.2873 H   0  0  0  0  0  0  0  0  0  0  0  0
   -1.4016   18.6413  -32.5956 H   0  0  0  0  0  0  0  0  0  0  0  0
   -1.7043   20.5731  -34.8242 H   0  0  0  0  0  0  0  0  0  0  0  0
   -2.7682   19.2070  -34.3742 H   0  0  0  0  0  0  0  0  0  0  0  0
   -4.2786   22.7480  -31.5935 H   0  0  0  0  0  0  0  0  0  0  0  0
  1  2  2  0
  2  3  2  0
  2  4  1  0
  4  5  1  0
  5  6  2  0
  6  7  1  0
  7  8  2  0
  8  9  1  0
  9 10  2  0
 10 11  1  0
  8 12  1  0
 12 13  1  0
 13 14  1  0
 14 15  1  0
  2 16  1  0
 16 17  2  0
 17 18  1  0
 18 19  2  0
 19 20  1  0
 20 21  1  0
 21 22  2  0
 21 23  2  0
 21 24  1  0
 24 25  1  0
 25 26  1  0
 26 27  1  0
 27 28  1  0
 20 29  2  0
 10  5  1  0
 29 16  1  0
 15  7  1  0
 28 24  1  0
  4 30  1  0
  6 31  1  0
  9 32  1  0
 12 33  1  0
 12 34  1  0
 13 35  1  0
 14 36  1  0
 14 37  1  0
 15 38  1  0
 15 39  1  0
 17 40  1  0
 18 41  1  0
 19 42  1  0
 25 43  1  0
 25 44  1  0
 26 45  1  0
 26 46  1  0
 27 47  1  0
 27 48  1  0
 28 49  1  0
 28 50  1  0
 29 51  1  0
M  CHG  1  11  -1
M  END
>  <UniqueID>  (31) 
31

>  <SMILES>  (31) 
O=S(=O)(Nc1cc2c(cc1[O-])CNCC2)c1cccc(S(=O)(=O)N2CCCC2)c1

>  <Energy>  (31) 
57.58556306321936

>  <Genealogy>  (31) 
O=S(=O)(Nc1cc2c(cc1[O-])CNCC2)c1cccc(S(=O)(=O)N2CCCC2)c1 (protonated)
O=S(=O)(Nc1cc2c(cc1[O-])CNCC2)c1cccc(S(=O)(=O)N2CCCC2)c1 (3D coordinates assigned)
O=S(=O)(Nc1cc2c(cc1[O-])CNCC2)c1cccc(S(=O)(=O)N2CCCC2)c1 (nonaromatic ring conformer: 57.58556306321936 kcal/mol)

>  <smiles>  (31) 
O=S(=O)(Nc1cc2c(cc1O)CNCC2)c1cccc(S(=O)(=O)N2CCCC2)c1

>  <score_type>  (31) 
oracle

>  <origin>  (31) 
adgpu

>  <m_score__min__energy>  (31) 
-14.390000000000001

>  <m_primary>  (31) 
energy

$$$$
31:0
     RDKit          3D

 54 57  0  0  0  0  0  0  0  0999 V2000
   -3.5190   21.7150  -28.0230 O   0  0  0  0  0  0  0  0  0  0  0  0
   -2.7210   21.8770  -28.9870 C   0  0  0  0  0  0  0  0  0  0  0  0
   -1.2990   21.4230  -28.8450 C   0  0  0  0  0  0  0  0  0  0  0  0
   -0.1230   22.7420  -29.3110 S   0  0  0  0  0  0  0  0  0  0  0  0
   -0.1480   23.5490  -27.7070 C   0  0  0  0  0  0  0  0  0  0  0  0
    0.1690   22.8270  -26.5510 C   0  0  0  0  0  0  0  0  0  0  0  0
    0.1070   23.4480  -25.3010 C   0  0  0  0  0  0  0  0  0  0  0  0
   -0.2970   24.7870  -25.1960 C   0  0  0  0  0  0  0  0  0  0  0  0
   -0.5990   25.5210  -26.3620 C   0  0  0  0  0  0  0  0  0  0  0  0
   -0.5160   24.8970  -27.6130 C   0  0  0  0  0  0  0  0  0  0  0  0
   -1.1210   26.9310  -26.2650 C   0  0  0  0  0  0  0  0  0  0  0  0
   -0.7050   27.6140  -24.9540 C   0  0  0  0  0  0  0  0  0  0  0  0
   -1.0210   26.7230  -23.7500 C   0  0  0  0  0  0  0  0  0  0  0  0
   -0.3920   25.4140  -23.9090 N   0  0  0  0  0  0  0  0  0  0  0  0
   -3.1770   22.4450  -30.2260 N   0  0  0  0  0  0  0  0  0  0  0  0
   -4.4600   23.0690  -30.4020 C   0  0  0  0  0  0  0  0  0  0  0  0
   -5.5940   22.2570  -30.5660 C   0  0  0  0  0  0  0  0  0  0  0  0
   -6.8540   22.8270  -30.8000 C   0  0  0  0  0  0  0  0  0  0  0  0
   -8.2650   21.8070  -31.0730 S   0  0  0  0  0  0  0  0  0  0  0  0
   -9.0140   22.2850  -32.2850 O   0  0  0  0  0  0  0  0  0  0  0  0
   -9.1760   21.9050  -29.8810 O   0  0  0  0  0  0  0  0  0  0  0  0
   -7.7610   20.1490  -31.2830 N   0  0  0  0  0  0  0  0  0  0  0  0
   -6.8250   20.0110  -32.4030 C   0  0  0  0  0  0  0  0  0  0  0  0
   -7.1510   18.7070  -33.1240 C   0  0  0  0  0  0  0  0  0  0  0  0
   -8.3530   18.1320  -32.3990 C   0  0  0  0  0  0  0  0  0  0  0  0
   -8.9030   19.2920  -31.5980 C   0  0  0  0  0  0  0  0  0  0  0  0
   -6.9850   24.2210  -30.8410 C   0  0  0  0  0  0  0  0  0  0  0  0
   -5.8610   25.0360  -30.7000 C   0  0  0  0  0  0  0  0  0  0  0  0
   -4.5970   24.4700  -30.5110 C   0  0  0  0  0  0  0  0  0  0  0  0
   -3.4840   25.3040  -30.4720 O   0  0  0  0  0  0  0  0  0  0  0  0
   -1.1183   21.1369  -27.7984 H   0  0  0  0  0  0  0  0  0  0  0  0
   -1.1417   20.5676  -29.5185 H   0  0  0  0  0  0  0  0  0  0  0  0
    0.4669   21.7708  -26.6264 H   0  0  0  0  0  0  0  0  0  0  0  0
    0.3761   22.8845  -24.3955 H   0  0  0  0  0  0  0  0  0  0  0  0
   -0.7408   25.4682  -28.5258 H   0  0  0  0  0  0  0  0  0  0  0  0
   -0.7253   27.5143  -27.1095 H   0  0  0  0  0  0  0  0  0  0  0  0
   -2.2199   26.8870  -26.2893 H   0  0  0  0  0  0  0  0  0  0  0  0
    0.3762   27.8146  -24.9797 H   0  0  0  0  0  0  0  0  0  0  0  0
   -1.2677   28.5538  -24.8532 H   0  0  0  0  0  0  0  0  0  0  0  0
   -0.6395   27.2002  -22.8353 H   0  0  0  0  0  0  0  0  0  0  0  0
   -2.1107   26.5902  -23.6793 H   0  0  0  0  0  0  0  0  0  0  0  0
   -0.1190   24.8860  -23.0510 H   0  0  0  0  0  0  0  0  0  0  0  0
   -2.5920   22.2930  -31.0780 H   0  0  0  0  0  0  0  0  0  0  0  0
   -5.4931   21.1631  -30.5104 H   0  0  0  0  0  0  0  0  0  0  0  0
   -6.9399   20.8594  -33.0936 H   0  0  0  0  0  0  0  0  0  0  0  0
   -5.7874   19.9996  -32.0379 H   0  0  0  0  0  0  0  0  0  0  0  0
   -7.3952   18.9017  -34.1787 H   0  0  0  0  0  0  0  0  0  0  0  0
   -6.2985   18.0119  -33.1153 H   0  0  0  0  0  0  0  0  0  0  0  0
   -9.1015   17.7657  -33.1170 H   0  0  0  0  0  0  0  0  0  0  0  0
   -8.0874   17.2739  -31.7641 H   0  0  0  0  0  0  0  0  0  0  0  0
   -9.6442   19.8475  -32.1913 H   0  0  0  0  0  0  0  0  0  0  0  0
   -9.4071   18.9445  -30.6842 H   0  0  0  0  0  0  0  0  0  0  0  0
   -7.9767   24.6746  -30.9848 H   0  0  0  0  0  0  0  0  0  0  0  0
   -5.9704   26.1299  -30.7378 H   0  0  0  0  0  0  0  0  0  0  0  0
  1  2  2  0
  2  3  1  0
  3  4  1  0
  4  5  1  0
  5  6  2  0
  6  7  1  0
  7  8  2  0
  8  9  1  0
  9 10  2  0
  9 11  1  0
 11 12  1  0
 12 13  1  0
 13 14  1  0
  2 15  1  0
 15 16  1  0
 16 17  2  0
 17 18  1  0
 18 19  1  0
 19 20  2  0
 19 21  2  0
 19 22  1  0
 22 23  1  0
 23 24  1  0
 24 25  1  0
 25 26  1  0
 18 27  2  0
 27 28  1  0
 28 29  2  0
 29 30  1  0
 10  5  1  0
 29 16  1  0
 14  8  1  0
 26 22  1  0
  3 31  1  0
  3 32  1  0
  6 33  1  0
  7 34  1  0
 10 35  1  0
 11 36  1  0
 11 37  1  0
 12 38  1  0
 12 39  1  0
 13 40  1  0
 13 41  1  0
 14 42  1  0
 15 43  1  0
 17 44  1  0
 23 45  1  0
 23 46  1  0
 24 47  1  0
 24 48  1  0
 25 49  1  0
 25 50  1  0
 26 51  1  0
 26 52  1  0
 27 53  1  0
 28 54  1  0
M  CHG  1  30  -1
M  END
>  <UniqueID>  (32) 
32

>  <SMILES>  (32) 
O=C(CSc1ccc2c(c1)CCCN2)Nc1cc(S(=O)(=O)N2CCCC2)ccc1[O-]

>  <Energy>  (32) 
51.54733527498643

>  <Genealogy>  (32) 
O=C(CSc1ccc2c(c1)CCCN2)Nc1cc(S(=O)(=O)N2CCCC2)ccc1[O-] (protonated)
O=C(CSc1ccc2c(c1)CCCN2)Nc1cc(S(=O)(=O)N2CCCC2)ccc1[O-] (3D coordinates assigned)
O=C(CSc1ccc2c(c1)CCCN2)Nc1cc(S(=O)(=O)N2CCCC2)ccc1[O-] (nonaromatic ring conformer: 51.54733527498643 kcal/mol)

>  <smiles>  (32) 
O=C(CSc1ccc2c(c1)CCCN2)Nc1cc(S(=O)(=O)N2CCCC2)ccc1O

>  <score_type>  (32) 
oracle

>  <origin>  (32) 
adgpu

>  <m_score__min__energy>  (32) 
-13.140000000000001

>  <m_primary>  (32) 
energy

$$$$
32:0
     RDKit          3D

 56 59  0  0  0  0  0  0  0  0999 V2000
   -0.9420   22.1650  -31.3790 O   0  0  0  0  0  0  0  0  0  0  0  0
   -2.0530   21.8680  -30.8580 C   0  0  0  0  0  0  0  0  0  0  0  0
   -2.4210   22.4410  -29.5900 N   0  0  0  0  0  0  0  0  0  0  0  0
   -1.5500   23.3020  -28.8400 C   0  0  0  0  0  0  0  0  0  0  0  0
   -0.4810   22.7400  -28.1280 C   0  0  0  0  0  0  0  0  0  0  0  0
    0.3890   23.5540  -27.3990 C   0  0  0  0  0  0  0  0  0  0  0  0
    0.2090   24.9430  -27.3830 C   0  0  0  0  0  0  0  0  0  0  0  0
    1.3260   25.9560  -26.4720 S   0  0  0  0  0  0  0  0  0  0  0  0
    2.7440   25.6500  -26.8680 O   0  0  0  0  0  0  0  0  0  0  0  0
    1.0350   27.3950  -26.8000 O   0  0  0  0  0  0  0  0  0  0  0  0
    1.1010   25.6830  -24.7580 N   0  0  0  0  0  0  0  0  0  0  0  0
    1.2560   26.9370  -24.0110 C   0  0  0  0  0  0  0  0  0  0  0  0
   -0.1200   27.5620  -23.8420 C   0  0  0  0  0  0  0  0  0  0  0  0
   -1.1110   26.4570  -24.1550 C   0  0  0  0  0  0  0  0  0  0  0  0
   -0.2690   25.2340  -24.4850 C   0  0  0  0  0  0  0  0  0  0  0  0
   -0.8380   25.5140  -28.1200 C   0  0  0  0  0  0  0  0  0  0  0  0
   -1.7080   24.7010  -28.8560 C   0  0  0  0  0  0  0  0  0  0  0  0
   -2.7050   25.2950  -29.6230 O   0  0  0  0  0  0  0  0  0  0  0  0
   -2.9550   20.9320  -31.5730 C   0  0  0  0  0  0  0  0  0  0  0  0
   -4.2470   20.6470  -31.0950 C   0  0  0  0  0  0  0  0  0  0  0  0
   -5.0800   19.7630  -31.7880 C   0  0  0  0  0  0  0  0  0  0  0  0
   -4.6380   19.1540  -32.9670 C   0  0  0  0  0  0  0  0  0  0  0  0
   -5.7030   18.0610  -33.8460 S   0  0  0  0  0  0  0  0  0  0  0  0
   -5.3270   16.6410  -33.5220 O   0  0  0  0  0  0  0  0  0  0  0  0
   -5.5410   18.2730  -35.3270 O   0  0  0  0  0  0  0  0  0  0  0  0
   -7.3540   18.3500  -33.3610 N   0  0  0  0  0  0  0  0  0  0  0  0
   -7.6190   17.8150  -32.0260 C   0  0  0  0  0  0  0  0  0  0  0  0
   -8.7450   18.6500  -31.4400 C   0  0  0  0  0  0  0  0  0  0  0  0
   -8.7550   19.9390  -32.2480 C   0  0  0  0  0  0  0  0  0  0  0  0
   -7.6400   19.7810  -33.2710 C   0  0  0  0  0  0  0  0  0  0  0  0
   -3.3620   19.4490  -33.4610 C   0  0  0  0  0  0  0  0  0  0  0  0
   -2.5270   20.3330  -32.7710 C   0  0  0  0  0  0  0  0  0  0  0  0
   -3.3890   22.3130  -29.2240 H   0  0  0  0  0  0  0  0  0  0  0  0
   -0.3264   21.6510  -28.1436 H   0  0  0  0  0  0  0  0  0  0  0  0
    1.2187   23.1025  -26.8353 H   0  0  0  0  0  0  0  0  0  0  0  0
    1.6951   26.7306  -23.0238 H   0  0  0  0  0  0  0  0  0  0  0  0
    1.9213   27.6237  -24.5549 H   0  0  0  0  0  0  0  0  0  0  0  0
   -0.2557   27.9186  -22.8103 H   0  0  0  0  0  0  0  0  0  0  0  0
   -0.2566   28.4306  -24.5030 H   0  0  0  0  0  0  0  0  0  0  0  0
   -1.7522   26.2580  -23.2836 H   0  0  0  0  0  0  0  0  0  0  0  0
   -1.7758   26.7303  -24.9877 H   0  0  0  0  0  0  0  0  0  0  0  0
   -0.2706   24.5393  -23.6322 H   0  0  0  0  0  0  0  0  0  0  0  0
   -0.6810   24.7135  -25.3621 H   0  0  0  0  0  0  0  0  0  0  0  0
   -0.9764   26.6053  -28.1199 H   0  0  0  0  0  0  0  0  0  0  0  0
   -4.6045   21.1227  -30.1698 H   0  0  0  0  0  0  0  0  0  0  0  0
   -6.0876   19.5456  -31.4041 H   0  0  0  0  0  0  0  0  0  0  0  0
   -7.9239   16.7603  -32.0933 H   0  0  0  0  0  0  0  0  0  0  0  0
   -6.7199   17.8617  -31.3940 H   0  0  0  0  0  0  0  0  0  0  0  0
   -9.7063   18.1249  -31.5412 H   0  0  0  0  0  0  0  0  0  0  0  0
   -8.5967   18.8411  -30.3669 H   0  0  0  0  0  0  0  0  0  0  0  0
   -9.7241   20.0704  -32.7517 H   0  0  0  0  0  0  0  0  0  0  0  0
   -8.6046   20.8231  -31.6111 H   0  0  0  0  0  0  0  0  0  0  0  0
   -7.9653   20.1651  -34.2491 H   0  0  0  0  0  0  0  0  0  0  0  0
   -6.7448   20.3460  -32.9719 H   0  0  0  0  0  0  0  0  0  0  0  0
   -3.0150   18.9837  -34.3954 H   0  0  0  0  0  0  0  0  0  0  0  0
   -1.5272   20.5618  -33.1685 H   0  0  0  0  0  0  0  0  0  0  0  0
  1  2  2  0
  2  3  1  0
  3  4  1  0
  4  5  2  0
  5  6  1  0
  6  7  2  0
  7  8  1  0
  8  9  2  0
  8 10  2  0
  8 11  1  0
 11 12  1  0
 12 13  1  0
 13 14  1  0
 14 15  1  0
  7 16  1  0
 16 17  2  0
 17 18  1  0
  2 19  1  0
 19 20  2  0
 20 21  1  0
 21 22  2  0
 22 23  1  0
 23 24  2  0
 23 25  2  0
 23 26  1  0
 26 27  1  0
 27 28  1  0
 28 29  1  0
 29 30  1  0
 22 31  1  0
 31 32  2  0
 17  4  1  0
 32 19  1  0
 15 11  1  0
 30 26  1  0
  3 33  1  0
  5 34  1  0
  6 35  1  0
 12 36  1  0
 12 37  1  0
 13 38  1  0
 13 39  1  0
 14 40  1  0
 14 41  1  0
 15 42  1  0
 15 43  1  0
 16 44  1  0
 20 45  1  0
 21 46  1  0
 27 47  1  0
 27 48  1  0
 28 49  1  0
 28 50  1  0
 29 51  1  0
 29 52  1  0
 30 53  1  0
 30 54  1  0
 31 55  1  0
 32 56  1  0
M  CHG  1  18  -1
M  END
>  <UniqueID>  (33) 
33

>  <SMILES>  (33) 
O=C(Nc1ccc(S(=O)(=O)N2CCCC2)cc1[O-])c1ccc(S(=O)(=O)N2CCCC2)cc1

>  <Energy>  (33) 
68.08508053906313

>  <Genealogy>  (33) 
O=C(Nc1ccc(S(=O)(=O)N2CCCC2)cc1[O-])c1ccc(S(=O)(=O)N2CCCC2)cc1 (protonated)
O=C(Nc1ccc(S(=O)(=O)N2CCCC2)cc1[O-])c1ccc(S(=O)(=O)N2CCCC2)cc1 (3D coordinates assigned)
O=C(Nc1ccc(S(=O)(=O)N2CCCC2)cc1[O-])c1ccc(S(=O)(=O)N2CCCC2)cc1 (nonaromatic ring conformer: 68.08508053906313 kcal/mol)

>  <smiles>  (33) 
O=C(Nc1ccc(S(=O)(=O)N2CCCC2)cc1O)c1ccc(S(=O)(=O)N2CCCC2)cc1

>  <score_type>  (33) 
oracle

>  <origin>  (33) 
adgpu

>  <m_score__min__energy>  (33) 
-12.449999999999999

>  <m_primary>  (33) 
energy

$$$$
33:0
     RDKit          3D

 42 44  0  0  0  0  0  0  0  0999 V2000
   -1.3850   20.9420  -31.6950 C   0  0  0  0  0  0  0  0  0  0  0  0
   -1.8900   21.2740  -33.0960 C   0  0  0  0  0  0  0  0  0  0  0  0
   -3.0720   20.3790  -33.4860 C   0  0  0  0  0  0  0  0  0  0  0  0
   -4.3280   20.9310  -32.9490 N   0  0  0  0  0  0  0  0  0  0  0  0
   -4.3260   22.2080  -32.4650 C   0  0  0  0  0  0  0  0  0  0  0  0
   -5.4870   22.7980  -31.9480 C   0  0  0  0  0  0  0  0  0  0  0  0
   -5.3730   24.1520  -31.3640 C   0  0  0  0  0  0  0  0  0  0  0  0
   -6.3880   24.8980  -31.3410 O   0  0  0  0  0  0  0  0  0  0  0  0
   -4.1180   24.5900  -30.8150 N   0  0  0  0  0  0  0  0  0  0  0  0
   -3.6810   24.5320  -29.5860 C   0  0  0  0  0  0  0  0  0  0  0  0
   -4.4810   24.1120  -28.5010 C   0  0  0  0  0  0  0  0  0  0  0  0
   -3.9350   24.0900  -27.2150 C   0  0  0  0  0  0  0  0  0  0  0  0
   -2.6160   24.4890  -27.0080 C   0  0  0  0  0  0  0  0  0  0  0  0
   -1.8520   24.9160  -28.0990 C   0  0  0  0  0  0  0  0  0  0  0  0
   -0.4400   25.3690  -27.9030 C   0  0  0  0  0  0  0  0  0  0  0  0
   -2.4030   24.9310  -29.3430 N   0  0  0  0  0  0  0  0  0  0  0  0
   -6.6980   22.0670  -31.9810 C   0  0  0  0  0  0  0  0  0  0  0  0
   -7.9270   22.6280  -31.5680 C   0  0  0  0  0  0  0  0  0  0  0  0
   -9.1020   21.8770  -31.6080 C   0  0  0  0  0  0  0  0  0  0  0  0
   -9.0810   20.5650  -32.0740 C   0  0  0  0  0  0  0  0  0  0  0  0
   -7.8870   19.9990  -32.5190 C   0  0  0  0  0  0  0  0  0  0  0  0
   -6.6890   20.7420  -32.4890 C   0  0  0  0  0  0  0  0  0  0  0  0
   -5.4840   20.1940  -32.9720 C   0  0  0  0  0  0  0  0  0  0  0  0
   -5.4730   19.0190  -33.4380 O   0  0  0  0  0  0  0  0  0  0  0  0
   -2.0594   21.3853  -30.9475 H   0  0  0  0  0  0  0  0  0  0  0  0
   -1.3592   19.8502  -31.5637 H   0  0  0  0  0  0  0  0  0  0  0  0
   -0.3724   21.3511  -31.5637 H   0  0  0  0  0  0  0  0  0  0  0  0
   -2.2124   22.3254  -33.1214 H   0  0  0  0  0  0  0  0  0  0  0  0
   -1.0720   21.1017  -33.8110 H   0  0  0  0  0  0  0  0  0  0  0  0
   -3.1392   20.3234  -34.5825 H   0  0  0  0  0  0  0  0  0  0  0  0
   -2.9142   19.3740  -33.0676 H   0  0  0  0  0  0  0  0  0  0  0  0
   -3.3909   22.7871  -32.4814 H   0  0  0  0  0  0  0  0  0  0  0  0
   -5.5242   23.8050  -28.6666 H   0  0  0  0  0  0  0  0  0  0  0  0
   -4.5476   23.7570  -26.3642 H   0  0  0  0  0  0  0  0  0  0  0  0
   -2.1806   24.4684  -25.9980 H   0  0  0  0  0  0  0  0  0  0  0  0
   -0.2233   25.4385  -26.8268 H   0  0  0  0  0  0  0  0  0  0  0  0
    0.2452   24.6456  -28.3690 H   0  0  0  0  0  0  0  0  0  0  0  0
   -0.3035   26.3560  -28.3690 H   0  0  0  0  0  0  0  0  0  0  0  0
   -7.9578   23.6680  -31.2111 H   0  0  0  0  0  0  0  0  0  0  0  0
  -10.0490   22.3231  -31.2700 H   0  0  0  0  0  0  0  0  0  0  0  0
  -10.0085   19.9738  -32.0911 H   0  0  0  0  0  0  0  0  0  0  0  0
   -7.8796   18.9657  -32.8961 H   0  0  0  0  0  0  0  0  0  0  0  0
  1  2  1  0
  2  3  1  0
  3  4  1  0
  4  5  1  0
  5  6  2  0
  6  7  1  0
  7  8  2  0
  7  9  1  0
  9 10  2  3
 10 11  1  0
 11 12  2  0
 12 13  1  0
 13 14  2  0
 14 15  1  0
 14 16  1  0
  6 17  1  0
 17 18  2  0
 18 19  1  0
 19 20  2  0
 20 21  1  0
 21 22  2  0
 22 23  1  0
 23 24  2  0
 23  4  1  0
 16 10  1  0
 22 17  1  0
  1 25  1  0
  1 26  1  0
  1 27  1  0
  2 28  1  0
  2 29  1  0
  3 30  1  0
  3 31  1  0
  5 32  1  0
 11 33  1  0
 12 34  1  0
 13 35  1  0
 15 36  1  0
 15 37  1  0
 15 38  1  0
 18 39  1  0
 19 40  1  0
 20 41  1  0
 21 42  1  0
M  CHG  1  16  -1
M  END
>  <UniqueID>  (34) 
34

>  <SMILES>  (34) 
CCCn1cc(C(=O)N=c2cccc(C)[n-]2)c2ccccc2c1=O

>  <Energy>  (34) 
60.58849343479108

>  <Genealogy>  (34) 
CCCn1cc(C(=O)N=c2cccc(C)[n-]2)c2ccccc2c1=O (protonated)
CCCn1cc(C(=O)N=c2cccc(C)[n-]2)c2ccccc2c1=O (3D coordinates assigned)
CCCn1cc(C(=O)N=c2cccc(C)[n-]2)c2ccccc2c1=O (optimized conformer: 60.58849343479108 kcal/mol)

>  <smiles>  (34) 
CCCn1cc(C(=O)N=c2cccc(C)[nH]2)c2ccccc2c1=O

>  <score_type>  (34) 
oracle

>  <origin>  (34) 
adgpu

>  <m_score__min__energy>  (34) 
-10.800000000000001

>  <m_primary>  (34) 
energy

$$$$
34:0
     RDKit          3D

 58 61  0  0  0  0  0  0  0  0999 V2000
    2.0900   21.5160  -36.4330 N   0  0  0  0  0  0  0  0  0  0  0  0
    0.6110   21.6390  -35.5470 S   0  0  0  0  0  0  0  0  0  0  0  0
   -0.4880   20.9810  -36.3360 O   0  0  0  0  0  0  0  0  0  0  0  0
    0.2660   23.0900  -35.3400 O   0  0  0  0  0  0  0  0  0  0  0  0
    0.7990   20.8560  -33.9730 C   0  0  0  0  0  0  0  0  0  0  0  0
    2.0240   20.2650  -33.6260 C   0  0  0  0  0  0  0  0  0  0  0  0
    2.1710   19.6160  -32.3960 C   0  0  0  0  0  0  0  0  0  0  0  0
    1.0990   19.5510  -31.5050 C   0  0  0  0  0  0  0  0  0  0  0  0
   -0.1250   20.1360  -31.8380 C   0  0  0  0  0  0  0  0  0  0  0  0
   -0.2870   20.7840  -33.0760 C   0  0  0  0  0  0  0  0  0  0  0  0
   -1.5360   21.4070  -33.4160 N   0  0  0  0  0  0  0  0  0  0  0  0
   -2.8030   20.7470  -33.5230 C   0  0  0  0  0  0  0  0  0  0  0  0
   -2.8570   19.6430  -34.1270 O   0  0  0  0  0  0  0  0  0  0  0  0
   -4.0280   21.2840  -32.8830 C   0  0  0  0  0  0  0  0  0  0  0  0
   -5.2930   20.7340  -33.1680 C   0  0  0  0  0  0  0  0  0  0  0  0
   -6.4450   21.2770  -32.5930 C   0  0  0  0  0  0  0  0  0  0  0  0
   -6.3540   22.3890  -31.7520 C   0  0  0  0  0  0  0  0  0  0  0  0
   -5.1040   22.9570  -31.4680 C   0  0  0  0  0  0  0  0  0  0  0  0
   -4.9910   24.4310  -30.5070 S   0  0  0  0  0  0  0  0  0  0  0  0
   -5.6100   24.2240  -29.1510 O   0  0  0  0  0  0  0  0  0  0  0  0
   -5.7250   25.5470  -31.1990 O   0  0  0  0  0  0  0  0  0  0  0  0
   -3.3190   24.8690  -30.3670 N   0  0  0  0  0  0  0  0  0  0  0  0
   -2.4380   24.3180  -29.3800 C   0  0  0  0  0  0  0  0  0  0  0  0
   -2.6020   23.0020  -28.9110 C   0  0  0  0  0  0  0  0  0  0  0  0
   -1.7180   22.4740  -27.9600 C   0  0  0  0  0  0  0  0  0  0  0  0
   -1.9880   20.8570  -27.3110 S   0  0  0  0  0  0  0  0  0  0  0  0
   -3.4360   20.4780  -27.4740 O   0  0  0  0  0  0  0  0  0  0  0  0
   -1.6510   20.8420  -25.8470 O   0  0  0  0  0  0  0  0  0  0  0  0
   -0.9530   19.7340  -28.1580 N   0  0  0  0  0  0  0  0  0  0  0  0
   -0.8910   18.4450  -27.4710 C   0  0  0  0  0  0  0  0  0  0  0  0
    0.4360   17.8180  -27.8590 C   0  0  0  0  0  0  0  0  0  0  0  0
    1.3360   18.9910  -28.2140 C   0  0  0  0  0  0  0  0  0  0  0  0
    0.4300   20.2170  -28.2280 C   0  0  0  0  0  0  0  0  0  0  0  0
   -0.6710   23.2660  -27.4730 C   0  0  0  0  0  0  0  0  0  0  0  0
   -0.5160   24.5820  -27.9200 C   0  0  0  0  0  0  0  0  0  0  0  0
   -1.3990   25.1110  -28.8670 C   0  0  0  0  0  0  0  0  0  0  0  0
   -1.2300   26.4220  -29.3100 O   0  0  0  0  0  0  0  0  0  0  0  0
   -3.9450   22.4000  -32.0300 C   0  0  0  0  0  0  0  0  0  0  0  0
    2.0420   22.2170  -37.2070 H   0  0  0  0  0  0  0  0  0  0  0  0
    2.8722   20.3126  -34.3248 H   0  0  0  0  0  0  0  0  0  0  0  0
    3.1340   19.1556  -32.1302 H   0  0  0  0  0  0  0  0  0  0  0  0
    1.2180   19.0384  -30.5391 H   0  0  0  0  0  0  0  0  0  0  0  0
   -0.9652   20.0898  -31.1296 H   0  0  0  0  0  0  0  0  0  0  0  0
   -5.3745   19.8723  -33.8469 H   0  0  0  0  0  0  0  0  0  0  0  0
   -7.4267   20.8275  -32.8032 H   0  0  0  0  0  0  0  0  0  0  0  0
   -7.2653   22.8199  -31.3116 H   0  0  0  0  0  0  0  0  0  0  0  0
   -3.4282   22.3841  -29.2925 H   0  0  0  0  0  0  0  0  0  0  0  0
   -0.9390   18.5913  -26.3818 H   0  0  0  0  0  0  0  0  0  0  0  0
   -1.7357   17.8000  -27.7547 H   0  0  0  0  0  0  0  0  0  0  0  0
    0.8561   17.2494  -27.0163 H   0  0  0  0  0  0  0  0  0  0  0  0
    0.3303   17.1104  -28.6945 H   0  0  0  0  0  0  0  0  0  0  0  0
    2.1284   19.1083  -27.4601 H   0  0  0  0  0  0  0  0  0  0  0  0
    1.8328   18.8424  -29.1841 H   0  0  0  0  0  0  0  0  0  0  0  0
    0.6498   20.8581  -27.3616 H   0  0  0  0  0  0  0  0  0  0  0  0
    0.5907   20.8114  -29.1395 H   0  0  0  0  0  0  0  0  0  0  0  0
    0.0324   22.8514  -26.7359 H   0  0  0  0  0  0  0  0  0  0  0  0
    0.3023   25.2026  -27.5259 H   0  0  0  0  0  0  0  0  0  0  0  0
   -2.9629   22.8397  -31.8017 H   0  0  0  0  0  0  0  0  0  0  0  0
  1  2  1  0
  2  3  2  0
  2  4  2  0
  2  5  1  0
  5  6  2  0
  6  7  1  0
  7  8  2  0
  8  9  1  0
  9 10  2  0
 10 11  1  0
 11 12  1  0
 12 13  2  0
 12 14  1  0
 14 15  2  0
 15 16  1  0
 16 17  2  0
 17 18  1  0
 18 19  1  0
 19 20  2  0
 19 21  2  0
 19 22  1  0
 22 23  1  0
 23 24  2  0
 24 25  1  0
 25 26  1  0
 26 27  2  0
 26 28  2  0
 26 29  1  0
 29 30  1  0
 30 31  1  0
 31 32  1  0
 32 33  1  0
 25 34  2  0
 34 35  1  0
 35 36  2  0
 36 37  1  0
 18 38  2  0
 10  5  1  0
 38 14  1  0
 36 23  1  0
 33 29  1  0
  1 39  1  0
  6 40  1  0
  7 41  1  0
  8 42  1  0
  9 43  1  0
 15 44  1  0
 16 45  1  0
 17 46  1  0
 24 47  1  0
 30 48  1  0
 30 49  1  0
 31 50  1  0
 31 51  1  0
 32 52  1  0
 32 53  1  0
 33 54  1  0
 33 55  1  0
 34 56  1  0
 35 57  1  0
 38 58  1  0
M  CHG  4   1  -1  11  -1  22  -1  37  -1
M  END
>  <UniqueID>  (35) 
35

>  <SMILES>  (35) 
[NH-]S(=O)(=O)c1ccccc1[N-]C(=O)c1cccc(S(=O)(=O)[N-]c2cc(S(=O)(=O)N3CCCC3)ccc2[O-])c1

>  <Energy>  (35) 
76.03907803702988

>  <Genealogy>  (35) 
[NH-]S(=O)(=O)c1ccccc1[N-]C(=O)c1cccc(S(=O)(=O)[N-]c2cc(S(=O)(=O)N3CCCC3)ccc2[O-])c1 (protonated)
[NH-]S(=O)(=O)c1ccccc1[N-]C(=O)c1cccc(S(=O)(=O)[N-]c2cc(S(=O)(=O)N3CCCC3)ccc2[O-])c1 (3D coordinates assigned)
[NH-]S(=O)(=O)c1ccccc1[N-]C(=O)c1cccc(S(=O)(=O)[N-]c2cc(S(=O)(=O)N3CCCC3)ccc2[O-])c1 (nonaromatic ring conformer: 76.03907803702988 kcal/mol)

>  <smiles>  (35) 
NS(=O)(=O)c1ccccc1NC(=O)c1cccc(S(=O)(=O)Nc2cc(S(=O)(=O)N3CCCC3)ccc2O)c1

>  <score_type>  (35) 
oracle

>  <origin>  (35) 
adgpu

>  <m_score__min__energy>  (35) 
-15.83

>  <m_primary>  (35) 
energy

$$$$
35:0
     RDKit          3D

 46 49  0  0  0  0  0  0  0  0999 V2000
    0.9690   19.3150  -34.6120 C   0  0  0  0  0  0  0  0  0  0  0  0
    0.1630   20.6570  -33.7670 S   0  0  0  0  0  0  0  0  0  0  0  0
    0.3610   21.9330  -34.5350 O   0  0  0  0  0  0  0  0  0  0  0  0
    0.7700   20.8130  -32.4000 O   0  0  0  0  0  0  0  0  0  0  0  0
   -1.5590   20.3150  -33.6320 C   0  0  0  0  0  0  0  0  0  0  0  0
   -2.0000   18.9860  -33.5680 C   0  0  0  0  0  0  0  0  0  0  0  0
   -3.3630   18.7000  -33.4540 C   0  0  0  0  0  0  0  0  0  0  0  0
   -4.3010   19.7420  -33.3880 C   0  0  0  0  0  0  0  0  0  0  0  0
   -5.7680   19.4380  -33.2980 C   0  0  0  0  0  0  0  0  0  0  0  0
   -6.3200   19.6230  -31.5720 S   0  0  0  0  0  0  0  0  0  0  0  0
   -6.3860   21.4190  -31.6630 C   0  0  0  0  0  0  0  0  0  0  0  0
   -7.4820   21.9630  -32.2570 N   0  0  0  0  0  0  0  0  0  0  0  0
   -7.6600   23.3030  -32.3750 C   0  0  0  0  0  0  0  0  0  0  0  0
   -6.7010   24.1800  -31.8770 C   0  0  0  0  0  0  0  0  0  0  0  0
   -5.5600   23.6680  -31.2580 C   0  0  0  0  0  0  0  0  0  0  0  0
   -4.6330   24.5230  -30.7650 N   0  0  0  0  0  0  0  0  0  0  0  0
   -3.5100   24.0780  -30.1510 C   0  0  0  0  0  0  0  0  0  0  0  0
   -2.6930   24.9220  -29.6930 O   0  0  0  0  0  0  0  0  0  0  0  0
   -3.2810   22.7350  -30.0190 N   0  0  0  0  0  0  0  0  0  0  0  0
   -2.0840   22.2750  -29.3560 C   0  0  0  0  0  0  0  0  0  0  0  0
   -1.8570   22.5900  -28.0070 C   0  0  0  0  0  0  0  0  0  0  0  0
   -0.7010   22.1350  -27.3630 C   0  0  0  0  0  0  0  0  0  0  0  0
    0.2360   21.3690  -28.0630 C   0  0  0  0  0  0  0  0  0  0  0  0
    0.0170   21.0520  -29.4060 C   0  0  0  0  0  0  0  0  0  0  0  0
   -1.1400   21.5020  -30.0520 C   0  0  0  0  0  0  0  0  0  0  0  0
   -4.1860   21.8270  -30.5100 C   0  0  0  0  0  0  0  0  0  0  0  0
   -3.9440   20.5940  -30.4020 O   0  0  0  0  0  0  0  0  0  0  0  0
   -5.3720   22.2730  -31.1420 C   0  0  0  0  0  0  0  0  0  0  0  0
   -3.8590   21.0730  -33.4590 C   0  0  0  0  0  0  0  0  0  0  0  0
   -2.4950   21.3570  -33.5740 C   0  0  0  0  0  0  0  0  0  0  0  0
    1.3888   18.6161  -33.8735 H   0  0  0  0  0  0  0  0  0  0  0  0
    0.2384   18.7871  -35.2425 H   0  0  0  0  0  0  0  0  0  0  0  0
    1.7783   19.7120  -35.2425 H   0  0  0  0  0  0  0  0  0  0  0  0
   -1.2697   18.1644  -33.6077 H   0  0  0  0  0  0  0  0  0  0  0  0
   -3.7021   17.6543  -33.4158 H   0  0  0  0  0  0  0  0  0  0  0  0
   -6.3272   20.1355  -33.9388 H   0  0  0  0  0  0  0  0  0  0  0  0
   -5.9505   18.4064  -33.6334 H   0  0  0  0  0  0  0  0  0  0  0  0
   -8.5630   23.6964  -32.8647 H   0  0  0  0  0  0  0  0  0  0  0  0
   -6.8412   25.2670  -31.9705 H   0  0  0  0  0  0  0  0  0  0  0  0
   -2.5900   23.1963  -27.4546 H   0  0  0  0  0  0  0  0  0  0  0  0
   -0.5292   22.3803  -26.3046 H   0  0  0  0  0  0  0  0  0  0  0  0
    1.1461   21.0157  -27.5561 H   0  0  0  0  0  0  0  0  0  0  0  0
    0.7543   20.4485  -29.9558 H   0  0  0  0  0  0  0  0  0  0  0  0
   -1.3108   21.2494  -31.1089 H   0  0  0  0  0  0  0  0  0  0  0  0
   -4.5888   21.8953  -33.4240 H   0  0  0  0  0  0  0  0  0  0  0  0
   -2.1549   22.4021  -33.6192 H   0  0  0  0  0  0  0  0  0  0  0  0
  1  2  1  0
  2  3  2  0
  2  4  2  0
  2  5  1  0
  5  6  2  0
  6  7  1  0
  7  8  2  0
  8  9  1  0
  9 10  1  0
 10 11  1  0
 11 12  2  0
 12 13  1  0
 13 14  2  0
 14 15  1  0
 15 16  1  0
 16 17  1  0
 17 18  2  0
 17 19  1  0
 19 20  1  0
 20 21  2  0
 21 22  1  0
 22 23  2  0
 23 24  1  0
 24 25  2  0
 19 26  1  0
 26 27  2  0
 26 28  1  0
  8 29  1  0
 29 30  2  0
 30  5  1  0
 28 11  1  0
 28 15  2  0
 25 20  1  0
  1 31  1  0
  1 32  1  0
  1 33  1  0
  6 34  1  0
  7 35  1  0
  9 36  1  0
  9 37  1  0
 13 38  1  0
 14 39  1  0
 21 40  1  0
 22 41  1  0
 23 42  1  0
 24 43  1  0
 25 44  1  0
 29 45  1  0
 30 46  1  0
M  CHG  1  16  -1
M  END
>  <UniqueID>  (36) 
36

>  <SMILES>  (36) 
CS(=O)(=O)c1ccc(CSc2nccc3[n-]c(=O)n(-c4ccccc4)c(=O)c23)cc1

>  <Energy>  (36) 
62.37560986556095

>  <Genealogy>  (36) 
CS(=O)(=O)c1ccc(CSc2nccc3[n-]c(=O)n(-c4ccccc4)c(=O)c23)cc1 (protonated)
CS(=O)(=O)c1ccc(CSc2nccc3[n-]c(=O)n(-c4ccccc4)c(=O)c23)cc1 (3D coordinates assigned)
CS(=O)(=O)c1ccc(CSc2nccc3[n-]c(=O)n(-c4ccccc4)c(=O)c23)cc1 (optimized conformer: 62.37560986556095 kcal/mol)

>  <smiles>  (36) 
CS(=O)(=O)c1ccc(CSc2nccc3[nH]c(=O)n(-c4ccccc4)c(=O)c23)cc1

>  <score_type>  (36) 
oracle

>  <origin>  (36) 
adgpu

>  <m_score__min__energy>  (36) 
-9.6899999999999995

>  <m_primary>  (36) 
energy

$$$$
36:0
     RDKit          3D

 67 71  0  0  0  0  0  0  0  0999 V2000
    2.4910   26.7280  -38.0280 C   0  0  0  0  0  0  0  0  0  0  0  0
    2.2680   26.2110  -36.5920 C   0  0  2  0  0  0  0  0  0  0  0  0
    2.4600   27.3110  -35.5410 C   0  0  0  0  0  0  0  0  0  0  0  0
    3.6310   27.3560  -34.7520 C   0  0  0  0  0  0  0  0  0  0  0  0
    3.8310   28.3850  -33.8270 C   0  0  0  0  0  0  0  0  0  0  0  0
    2.8840   29.4010  -33.6900 C   0  0  0  0  0  0  0  0  0  0  0  0
    1.7380   29.3970  -34.4880 C   0  0  0  0  0  0  0  0  0  0  0  0
    1.5340   28.3720  -35.4180 C   0  0  0  0  0  0  0  0  0  0  0  0
    3.2080   24.9990  -36.2810 C   0  0  0  0  0  0  0  0  0  0  0  0
    2.3210   23.9020  -35.9280 N   0  0  0  0  0  0  0  0  0  0  0  0
    2.8220   22.2560  -35.7420 S   0  0  0  0  0  0  0  0  0  0  0  0
    3.9030   22.1740  -34.7020 O   0  0  0  0  0  0  0  0  0  0  0  0
    3.3790   21.7500  -37.0440 O   0  0  0  0  0  0  0  0  0  0  0  0
    1.4470   21.2700  -35.2600 C   0  0  0  0  0  0  0  0  0  0  0  0
    1.0050   20.2310  -36.0880 C   0  0  0  0  0  0  0  0  0  0  0  0
   -0.1070   19.4670  -35.7250 C   0  0  0  0  0  0  0  0  0  0  0  0
   -0.7880   19.7200  -34.5230 C   0  0  0  0  0  0  0  0  0  0  0  0
   -1.9580   18.9430  -34.2040 N   0  0  0  0  0  0  0  0  0  0  0  0
   -2.1880   17.5870  -34.6120 C   0  0  0  0  0  0  0  0  0  0  0  0
   -1.3910   17.0110  -35.4000 O   0  0  0  0  0  0  0  0  0  0  0  0
   -3.3380   16.9010  -34.0990 N   0  0  0  0  0  0  0  0  0  0  0  0
   -4.5540   17.4440  -33.5600 C   0  0  0  0  0  0  0  0  0  0  0  0
   -5.2370   16.8640  -32.4740 C   0  0  0  0  0  0  0  0  0  0  0  0
   -6.4330   17.4230  -32.0130 C   0  0  0  0  0  0  0  0  0  0  0  0
   -6.9770   18.5500  -32.6430 C   0  0  0  0  0  0  0  0  0  0  0  0
   -8.5010   19.2420  -32.0770 S   0  0  0  0  0  0  0  0  0  0  0  0
   -9.3110   19.6880  -33.2640 O   0  0  0  0  0  0  0  0  0  0  0  0
   -9.2860   18.1800  -31.3560 O   0  0  0  0  0  0  0  0  0  0  0  0
   -8.2520   20.6010  -30.9970 N   0  0  0  0  0  0  0  0  0  0  0  0
   -9.3340   21.5840  -31.1160 C   0  0  0  0  0  0  0  0  0  0  0  0
   -8.8420   22.7510  -31.9660 C   0  0  0  0  0  0  0  0  0  0  0  0
   -7.3660   22.5010  -32.2000 C   0  0  0  0  0  0  0  0  0  0  0  0
   -7.0120   21.3120  -31.3220 C   0  0  0  0  0  0  0  0  0  0  0  0
   -6.3100   19.1150  -33.7370 C   0  0  0  0  0  0  0  0  0  0  0  0
   -5.1090   18.5650  -34.1900 C   0  0  0  0  0  0  0  0  0  0  0  0
   -0.3450   20.7710  -33.6970 C   0  0  0  0  0  0  0  0  0  0  0  0
    0.7710   21.5330  -34.0600 C   0  0  0  0  0  0  0  0  0  0  0  0
    0.9950   24.3300  -36.1260 C   0  0  0  0  0  0  0  0  0  0  0  0
   -0.0110   23.5910  -35.9660 O   0  0  0  0  0  0  0  0  0  0  0  0
    0.9040   25.6780  -36.5250 N   0  0  0  0  0  0  0  0  0  0  0  0
    2.9264   27.7375  -37.9908 H   0  0  0  0  0  0  0  0  0  0  0  0
    3.1775   26.0519  -38.5587 H   0  0  0  0  0  0  0  0  0  0  0  0
    1.5281   26.7633  -38.5587 H   0  0  0  0  0  0  0  0  0  0  0  0
    4.3943   26.5723  -34.8668 H   0  0  0  0  0  0  0  0  0  0  0  0
    4.7381   28.3939  -33.2049 H   0  0  0  0  0  0  0  0  0  0  0  0
    3.0401   30.2038  -32.9544 H   0  0  0  0  0  0  0  0  0  0  0  0
    0.9945   30.2011  -34.3852 H   0  0  0  0  0  0  0  0  0  0  0  0
    0.6421   28.3919  -36.0615 H   0  0  0  0  0  0  0  0  0  0  0  0
    3.8071   24.7397  -37.1663 H   0  0  0  0  0  0  0  0  0  0  0  0
    3.9165   25.2284  -35.4715 H   0  0  0  0  0  0  0  0  0  0  0  0
    1.5351   20.0155  -37.0275 H   0  0  0  0  0  0  0  0  0  0  0  0
   -0.4525   18.6594  -36.3871 H   0  0  0  0  0  0  0  0  0  0  0  0
   -2.7480   19.4280  -33.7240 H   0  0  0  0  0  0  0  0  0  0  0  0
   -4.8280   15.9671  -31.9860 H   0  0  0  0  0  0  0  0  0  0  0  0
   -6.9495   16.9755  -31.1511 H   0  0  0  0  0  0  0  0  0  0  0  0
  -10.2067   21.1178  -31.5967 H   0  0  0  0  0  0  0  0  0  0  0  0
   -9.6257   21.9435  -30.1182 H   0  0  0  0  0  0  0  0  0  0  0  0
   -9.3816   22.7808  -32.9241 H   0  0  0  0  0  0  0  0  0  0  0  0
   -9.0140   23.7156  -31.4660 H   0  0  0  0  0  0  0  0  0  0  0  0
   -7.1787   22.2668  -33.2583 H   0  0  0  0  0  0  0  0  0  0  0  0
   -6.7583   23.3846  -31.9552 H   0  0  0  0  0  0  0  0  0  0  0  0
   -6.3277   20.6407  -31.8615 H   0  0  0  0  0  0  0  0  0  0  0  0
   -6.5153   21.6524  -30.4015 H   0  0  0  0  0  0  0  0  0  0  0  0
   -6.7339   19.9957  -34.2416 H   0  0  0  0  0  0  0  0  0  0  0  0
   -4.5936   19.0168  -35.0504 H   0  0  0  0  0  0  0  0  0  0  0  0
   -0.8791   20.9941  -32.7616 H   0  0  0  0  0  0  0  0  0  0  0  0
    1.1196   22.3419  -33.4011 H   0  0  0  0  0  0  0  0  0  0  0  0
  2  1  1  6
  2  3  1  0
  3  4  2  0
  4  5  1  0
  5  6  2  0
  6  7  1  0
  7  8  2  0
  2  9  1  0
  9 10  1  0
 10 11  1  0
 11 12  2  0
 11 13  2  0
 11 14  1  0
 14 15  2  0
 15 16  1  0
 16 17  2  0
 17 18  1  0
 18 19  1  0
 19 20  2  0
 19 21  1  0
 21 22  1  0
 22 23  2  0
 23 24  1  0
 24 25  2  0
 25 26  1  0
 26 27  2  0
 26 28  2  0
 26 29  1  0
 29 30  1  0
 30 31  1  0
 31 32  1  0
 32 33  1  0
 25 34  1  0
 34 35  2  0
 17 36  1  0
 36 37  2  0
 10 38  1  0
 38 39  2  0
 38 40  1  0
 40  2  1  0
  8  3  1  0
 37 14  1  0
 35 22  1  0
 33 29  1  0
  1 41  1  0
  1 42  1  0
  1 43  1  0
  4 44  1  0
  5 45  1  0
  6 46  1  0
  7 47  1  0
  8 48  1  0
  9 49  1  0
  9 50  1  0
 15 51  1  0
 16 52  1  0
 18 53  1  0
 23 54  1  0
 24 55  1  0
 30 56  1  0
 30 57  1  0
 31 58  1  0
 31 59  1  0
 32 60  1  0
 32 61  1  0
 33 62  1  0
 33 63  1  0
 34 64  1  0
 35 65  1  0
 36 66  1  0
 37 67  1  0
M  CHG  2  21  -1  40  -1
M  END
>  <UniqueID>  (37) 
37

>  <SMILES>  (37) 
C[C@]1(c2ccccc2)CN(S(=O)(=O)c2ccc(NC(=O)[N-]c3ccc(S(=O)(=O)N4CCCC4)cc3)cc2)C(=O)[N-]1

>  <Energy>  (37) 
97.81435191795245

>  <Genealogy>  (37) 
CC1(c2ccccc2)CN(S(=O)(=O)c2ccc(NC(=O)[N-]c3ccc(S(=O)(=O)N4CCCC4)cc3)cc2)C(=O)[N-]1 (protonated)
C[C@]1(c2ccccc2)CN(S(=O)(=O)c2ccc(NC(=O)[N-]c3ccc(S(=O)(=O)N4CCCC4)cc3)cc2)C(=O)[N-]1 (chirality)
C[C@]1(c2ccccc2)CN(S(=O)(=O)c2ccc(NC(=O)[N-]c3ccc(S(=O)(=O)N4CCCC4)cc3)cc2)C(=O)[N-]1 (3D coordinates assigned)
C[C@]1(c2ccccc2)CN(S(=O)(=O)c2ccc(NC(=O)[N-]c3ccc(S(=O)(=O)N4CCCC4)cc3)cc2)C(=O)[N-]1 (nonaromatic ring conformer: 97.81435191795245 kcal/mol)

>  <smiles>  (37) 
CC1(c2ccccc2)CN(S(=O)(=O)c2ccc(NC(=O)Nc3ccc(S(=O)(=O)N4CCCC4)cc3)cc2)C(=O)N1

>  <score_type>  (37) 
oracle

>  <origin>  (37) 
adgpu

>  <m_score__min__energy>  (37) 
-12.27

>  <m_primary>  (37) 
energy

$$$$
37:0
     RDKit          3D

 69 73  0  0  0  0  0  0  0  0999 V2000
   -1.5420   18.4280  -26.6980 C   0  0  0  0  0  0  0  0  0  0  0  0
   -1.7410   19.8420  -27.0500 N   0  0  0  0  0  0  0  0  0  0  0  0
   -0.8690   20.2060  -28.1840 C   0  0  0  0  0  0  0  0  0  0  0  0
   -1.0170   21.6940  -28.5140 C   0  0  0  0  0  0  0  0  0  0  0  0
   -2.4310   22.0420  -28.6910 N   0  0  0  0  0  0  0  0  0  0  0  0
   -2.7730   23.1770  -29.5110 C   0  0  0  0  0  0  0  0  0  0  0  0
   -1.9530   24.1310  -29.6270 O   0  0  0  0  0  0  0  0  0  0  0  0
   -4.0820   23.2640  -30.2040 C   0  0  0  0  0  0  0  0  0  0  0  0
   -4.8610   22.1030  -30.3530 C   0  0  0  0  0  0  0  0  0  0  0  0
   -6.1040   22.1560  -31.0070 C   0  0  0  0  0  0  0  0  0  0  0  0
   -6.8930   21.0100  -31.1710 O   0  0  0  0  0  0  0  0  0  0  0  0
   -6.4630   19.8200  -31.7800 C   0  0  0  0  0  0  0  0  0  0  0  0
   -5.1080   19.4390  -31.7730 C   0  0  0  0  0  0  0  0  0  0  0  0
   -4.7090   18.2360  -32.3580 C   0  0  0  0  0  0  0  0  0  0  0  0
   -5.6550   17.3960  -32.9590 C   0  0  0  0  0  0  0  0  0  0  0  0
   -5.1740   15.8320  -33.6090 S   0  0  0  0  0  0  0  0  0  0  0  0
   -6.2790   15.2760  -34.4640 O   0  0  0  0  0  0  0  0  0  0  0  0
   -4.8930   14.8680  -32.4910 O   0  0  0  0  0  0  0  0  0  0  0  0
   -3.7570   16.0450  -34.5750 N   0  0  0  0  0  0  0  0  0  0  0  0
   -2.6710   16.8250  -34.0770 C   0  0  0  0  0  0  0  0  0  0  0  0
   -2.4350   18.1030  -34.5980 C   0  0  0  0  0  0  0  0  0  0  0  0
   -1.3140   18.8330  -34.1760 C   0  0  0  0  0  0  0  0  0  0  0  0
   -0.4160   18.2720  -33.2640 C   0  0  0  0  0  0  0  0  0  0  0  0
   -0.6520   16.9950  -32.7380 C   0  0  0  0  0  0  0  0  0  0  0  0
   -1.7830   16.2720  -33.1410 C   0  0  0  0  0  0  0  0  0  0  0  0
   -2.0200   14.9930  -32.6380 O   0  0  0  0  0  0  0  0  0  0  0  0
    0.8010   19.0750  -32.9030 C   0  0  0  0  0  0  0  0  0  0  0  0
    0.4400   20.4830  -32.6190 N   0  0  0  0  0  0  0  0  0  0  0  0
   -0.1060   20.6200  -31.2560 C   0  0  0  0  0  0  0  0  0  0  0  0
   -0.4550   21.1270  -33.6290 C   0  0  0  0  0  0  0  0  0  0  0  0
   -0.9900   20.1870  -34.7360 C   0  0  0  0  0  0  0  0  0  0  0  0
   -7.0050   17.7660  -32.9580 C   0  0  0  0  0  0  0  0  0  0  0  0
   -7.4100   18.9670  -32.3650 C   0  0  0  0  0  0  0  0  0  0  0  0
   -9.2680   19.4240  -32.3600 Br  0  0  0  0  0  0  0  0  0  0  0  0
   -6.5500   23.3680  -31.5400 C   0  0  0  0  0  0  0  0  0  0  0  0
   -5.7980   24.5320  -31.3730 C   0  0  0  0  0  0  0  0  0  0  0  0
   -4.5740   24.4900  -30.6970 C   0  0  0  0  0  0  0  0  0  0  0  0
   -3.8680   25.6740  -30.5060 O   0  0  0  0  0  0  0  0  0  0  0  0
   -3.3820   21.5670  -27.6770 C   0  0  0  0  0  0  0  0  0  0  0  0
   -3.1550   20.0800  -27.4020 C   0  0  0  0  0  0  0  0  0  0  0  0
   -1.5270   18.3213  -25.6033 H   0  0  0  0  0  0  0  0  0  0  0  0
   -2.3645   17.8274  -27.1137 H   0  0  0  0  0  0  0  0  0  0  0  0
   -0.5857   18.0777  -27.1137 H   0  0  0  0  0  0  0  0  0  0  0  0
    0.1776   19.9958  -27.9186 H   0  0  0  0  0  0  0  0  0  0  0  0
   -1.1616   19.6142  -29.0639 H   0  0  0  0  0  0  0  0  0  0  0  0
   -0.5974   22.2910  -27.6908 H   0  0  0  0  0  0  0  0  0  0  0  0
   -0.4782   21.9067  -29.4491 H   0  0  0  0  0  0  0  0  0  0  0  0
   -4.4947   21.1454  -29.9545 H   0  0  0  0  0  0  0  0  0  0  0  0
   -4.3587   20.0934  -31.3036 H   0  0  0  0  0  0  0  0  0  0  0  0
   -3.6478   17.9467  -32.3469 H   0  0  0  0  0  0  0  0  0  0  0  0
   -3.1271   18.5336  -35.3366 H   0  0  0  0  0  0  0  0  0  0  0  0
    0.0491   16.5607  -32.0101 H   0  0  0  0  0  0  0  0  0  0  0  0
   -2.8660   14.4840  -32.8670 H   0  0  0  0  0  0  0  0  0  0  0  0
    1.2701   18.6363  -32.0100 H   0  0  0  0  0  0  0  0  0  0  0  0
    1.4995   19.0558  -33.7526 H   0  0  0  0  0  0  0  0  0  0  0  0
    0.6880   20.4208  -30.5212 H   0  0  0  0  0  0  0  0  0  0  0  0
   -0.4880   21.6418  -31.1150 H   0  0  0  0  0  0  0  0  0  0  0  0
   -0.9252   19.8996  -31.1150 H   0  0  0  0  0  0  0  0  0  0  0  0
   -1.3192   21.5502  -33.0960 H   0  0  0  0  0  0  0  0  0  0  0  0
    0.1598   21.8810  -34.1422 H   0  0  0  0  0  0  0  0  0  0  0  0
   -1.9006   20.6244  -35.1712 H   0  0  0  0  0  0  0  0  0  0  0  0
   -0.2134   20.0728  -35.5067 H   0  0  0  0  0  0  0  0  0  0  0  0
   -7.7522   17.1085  -33.4263 H   0  0  0  0  0  0  0  0  0  0  0  0
   -7.4993   23.4051  -32.0945 H   0  0  0  0  0  0  0  0  0  0  0  0
   -6.1694   25.4863  -31.7746 H   0  0  0  0  0  0  0  0  0  0  0  0
   -3.2367   22.1357  -26.7467 H   0  0  0  0  0  0  0  0  0  0  0  0
   -4.4074   21.7130  -28.0476 H   0  0  0  0  0  0  0  0  0  0  0  0
   -3.7968   19.7617  -26.5673 H   0  0  0  0  0  0  0  0  0  0  0  0
   -3.4044   19.5035  -28.3050 H   0  0  0  0  0  0  0  0  0  0  0  0
  1  2  1  0
  2  3  1  0
  3  4  1  0
  4  5  1  0
  5  6  1  0
  6  7  2  0
  6  8  1  0
  8  9  2  0
  9 10  1  0
 10 11  1  0
 11 12  1  0
 12 13  2  0
 13 14  1  0
 14 15  2  0
 15 16  1  0
 16 17  2  0
 16 18  2  0
 16 19  1  0
 19 20  1  0
 20 21  2  0
 21 22  1  0
 22 23  2  0
 23 24  1  0
 24 25  2  0
 25 26  1  0
 23 27  1  0
 27 28  1  0
 28 29  1  0
 28 30  1  0
 30 31  1  0
 15 32  1  0
 32 33  2  0
 33 34  1  0
 10 35  2  0
 35 36  1  0
 36 37  2  0
 37 38  1  0
  5 39  1  0
 39 40  1  0
 40  2  1  0
 37  8  1  0
 33 12  1  0
 25 20  1  0
 31 22  1  0
  1 41  1  0
  1 42  1  0
  1 43  1  0
  3 44  1  0
  3 45  1  0
  4 46  1  0
  4 47  1  0
  9 48  1  0
 13 49  1  0
 14 50  1  0
 21 51  1  0
 24 52  1  0
 26 53  1  0
 27 54  1  0
 27 55  1  0
 29 56  1  0
 29 57  1  0
 29 58  1  0
 30 59  1  0
 30 60  1  0
 31 61  1  0
 31 62  1  0
 32 63  1  0
 35 64  1  0
 36 65  1  0
 39 66  1  0
 39 67  1  0
 40 68  1  0
 40 69  1  0
M  CHG  2  19  -1  38  -1
M  END
>  <UniqueID>  (38) 
38

>  <SMILES>  (38) 
CN1CCN(C(=O)c2cc(Oc3ccc(S(=O)(=O)[N-]c4cc5c(cc4O)CN(C)CC5)cc3Br)ccc2[O-])CC1

>  <Energy>  (38) 
103.77046619545169

>  <Genealogy>  (38) 
CN1CCN(C(=O)c2cc(Oc3ccc(S(=O)(=O)[N-]c4cc5c(cc4O)CN(C)CC5)cc3Br)ccc2[O-])CC1 (protonated)
CN1CCN(C(=O)c2cc(Oc3ccc(S(=O)(=O)[N-]c4cc5c(cc4O)CN(C)CC5)cc3Br)ccc2[O-])CC1 (3D coordinates assigned)
CN1CCN(C(=O)c2cc(Oc3ccc(S(=O)(=O)[N-]c4cc5c(cc4O)CN(C)CC5)cc3Br)ccc2[O-])CC1 (nonaromatic ring conformer: 103.77046619545169 kcal/mol)

>  <smiles>  (38) 
CN1CCN(C(=O)c2cc(Oc3ccc(S(=O)(=O)Nc4cc5c(cc4O)CN(C)CC5)cc3Br)ccc2O)CC1

>  <score_type>  (38) 
oracle

>  <origin>  (38) 
adgpu

>  <m_score__min__energy>  (38) 
-14.550000000000001

>  <m_primary>  (38) 
energy

$$$$
38:0
     RDKit          3D

 36 39  0  0  0  0  0  0  0  0999 V2000
   -3.7530   25.3620  -30.3460 O   0  0  0  0  0  0  0  0  0  0  0  0
   -3.0060   24.4320  -29.6320 C   0  0  0  0  0  0  0  0  0  0  0  0
   -3.5240   23.1560  -29.4000 C   0  0  0  0  0  0  0  0  0  0  0  0
   -2.7840   22.2090  -28.6750 C   0  0  0  0  0  0  0  0  0  0  0  0
   -1.4810   22.5240  -28.2270 C   0  0  0  0  0  0  0  0  0  0  0  0
   -0.9930   23.8310  -28.4310 C   0  0  0  0  0  0  0  0  0  0  0  0
   -1.7450   24.7730  -29.1380 C   0  0  0  0  0  0  0  0  0  0  0  0
   -1.2340   26.0490  -29.3470 O   0  0  0  0  0  0  0  0  0  0  0  0
   -0.6460   21.5220  -27.4270 C   0  0  2  0  0  0  0  0  0  0  0  0
    0.8460   21.5120  -27.9060 C   0  0  0  0  0  0  0  0  0  0  0  0
    1.4690   20.1410  -27.9440 C   0  0  0  0  0  0  0  0  0  0  0  0
    2.8510   19.9730  -27.7710 C   0  0  0  0  0  0  0  0  0  0  0  0
    3.4300   18.7070  -27.9130 C   0  0  0  0  0  0  0  0  0  0  0  0
    4.7980   18.5490  -27.7290 O   0  0  0  0  0  0  0  0  0  0  0  0
    2.6330   17.6040  -28.2480 C   0  0  0  0  0  0  0  0  0  0  0  0
    3.2170   16.3470  -28.3910 O   0  0  0  0  0  0  0  0  0  0  0  0
    1.2540   17.7730  -28.4390 C   0  0  0  0  0  0  0  0  0  0  0  0
    0.6750   19.0400  -28.2840 C   0  0  0  0  0  0  0  0  0  0  0  0
   -0.7930   19.2660  -28.4610 C   0  0  0  0  0  0  0  0  0  0  0  0
   -1.2470   20.1580  -27.3780 N   0  0  0  0  0  0  0  0  0  0  0  0
   -2.7120   20.1770  -27.2280 C   0  0  0  0  0  0  0  0  0  0  0  0
   -3.3900   20.8600  -28.4140 C   0  0  0  0  0  0  0  0  0  0  0  0
   -4.5187   22.8913  -29.7881 H   0  0  0  0  0  0  0  0  0  0  0  0
   -0.0086   24.1125  -28.0288 H   0  0  0  0  0  0  0  0  0  0  0  0
   -0.6505   21.8709  -26.3838 H   0  0  0  0  0  0  0  0  0  0  0  0
    0.8867   21.9385  -28.9192 H   0  0  0  0  0  0  0  0  0  0  0  0
    1.4186   22.1012  -27.1746 H   0  0  0  0  0  0  0  0  0  0  0  0
    3.4817   20.8394  -27.5229 H   0  0  0  0  0  0  0  0  0  0  0  0
    4.2170   16.2110  -28.2880 H   0  0  0  0  0  0  0  0  0  0  0  0
    0.6267   16.9111  -28.7105 H   0  0  0  0  0  0  0  0  0  0  0  0
   -0.9840   19.7357  -29.4371 H   0  0  0  0  0  0  0  0  0  0  0  0
   -1.3356   18.3099  -28.4234 H   0  0  0  0  0  0  0  0  0  0  0  0
   -3.0769   19.1418  -27.1559 H   0  0  0  0  0  0  0  0  0  0  0  0
   -2.9573   20.7444  -26.3181 H   0  0  0  0  0  0  0  0  0  0  0  0
   -3.2687   20.2317  -29.3087 H   0  0  0  0  0  0  0  0  0  0  0  0
   -4.4564   20.9937  -28.1794 H   0  0  0  0  0  0  0  0  0  0  0  0
  1  2  1  0
  2  3  2  0
  3  4  1  0
  4  5  2  0
  5  6  1  0
  6  7  2  0
  7  8  1  0
  5  9  1  0
  9 10  1  0
 10 11  1  0
 11 12  2  0
 12 13  1  0
 13 14  1  0
 13 15  2  0
 15 16  1  0
 15 17  1  0
 17 18  2  0
 18 19  1  0
 19 20  1  0
 20 21  1  0
 21 22  1  0
  7  2  1  0
 20  9  1  0
 22  4  1  0
 18 11  1  0
  3 23  1  0
  6 24  1  0
  9 25  1  1
 10 26  1  0
 10 27  1  0
 12 28  1  0
 16 29  1  0
 17 30  1  0
 19 31  1  0
 19 32  1  0
 21 33  1  0
 21 34  1  0
 22 35  1  0
 22 36  1  0
M  CHG  3   1  -1   8  -1  14  -1
M  END
>  <UniqueID>  (39) 
39

>  <SMILES>  (39) 
[O-]c1cc2c(cc1[O-])[C@@H]1Cc3cc([O-])c(O)cc3CN1CC2

>  <Energy>  (39) 
56.024878000090425

>  <Genealogy>  (39) 
[O-]c1cc2c(cc1[O-])C1Cc3cc([O-])c(O)cc3CN1CC2 (protonated)
[O-]c1cc2c(cc1[O-])[C@@H]1Cc3cc([O-])c(O)cc3CN1CC2 (chirality)
[O-]c1cc2c(cc1[O-])[C@@H]1Cc3cc([O-])c(O)cc3CN1CC2 (3D coordinates assigned)
[O-]c1cc2c(cc1[O-])[C@@H]1Cc3cc([O-])c(O)cc3CN1CC2 (nonaromatic ring conformer: 56.024878000090425 kcal/mol)

>  <smiles>  (39) 
Oc1cc2c(cc1O)CN1CCc3cc(O)c(O)cc3C1C2

>  <score_type>  (39) 
oracle

>  <origin>  (39) 
adgpu

>  <m_score__min__energy>  (39) 
-12

>  <m_primary>  (39) 
energy

$$$$
39:0
     RDKit          3D

 50 52  0  0  0  0  0  0  0  0999 V2000
   -6.1680   24.5410  -30.3250 C   0  0  0  0  0  0  0  0  0  0  0  0
   -5.2480   25.7180  -30.6090 C   0  0  0  0  0  0  0  0  0  0  0  0
   -3.8580   25.2980  -30.4710 N   0  0  0  0  0  0  0  0  0  0  0  0
   -3.4350   24.0260  -29.9650 C   0  0  0  0  0  0  0  0  0  0  0  0
   -3.4540   23.8330  -28.7210 O   0  0  0  0  0  0  0  0  0  0  0  0
   -2.9440   22.9520  -30.8510 C   0  0  0  0  0  0  0  0  0  0  0  0
   -1.6000   22.5570  -30.8200 C   0  0  0  0  0  0  0  0  0  0  0  0
   -1.1440   21.5480  -31.6690 C   0  0  0  0  0  0  0  0  0  0  0  0
   -2.0190   20.9200  -32.5610 C   0  0  0  0  0  0  0  0  0  0  0  0
   -1.5130   19.9030  -33.3830 O   0  0  0  0  0  0  0  0  0  0  0  0
   -0.5300   20.0810  -34.3670 C   0  0  0  0  0  0  0  0  0  0  0  0
    0.0430   18.9950  -35.0530 C   0  0  0  0  0  0  0  0  0  0  0  0
    1.0210   19.2140  -36.0250 C   0  0  0  0  0  0  0  0  0  0  0  0
    1.4490   20.5130  -36.3140 C   0  0  0  0  0  0  0  0  0  0  0  0
    2.4420   20.7090  -37.2680 O   0  0  0  0  0  0  0  0  0  0  0  0
    0.8920   21.6080  -35.6300 C   0  0  0  0  0  0  0  0  0  0  0  0
    1.3260   22.9490  -35.9230 N   0  0  0  0  0  0  0  0  0  0  0  0
    0.3340   24.0110  -36.0930 C   0  0  0  0  0  0  0  0  0  0  0  0
    2.7200   23.3290  -35.6960 C   0  0  0  0  0  0  0  0  0  0  0  0
   -0.0890   21.3790  -34.6490 C   0  0  0  0  0  0  0  0  0  0  0  0
   -3.3610   21.3460  -32.6420 C   0  0  0  0  0  0  0  0  0  0  0  0
   -4.2190   20.7710  -33.6390 N   0  0  0  0  0  0  0  0  0  0  0  0
   -5.4760   19.6130  -33.3460 S   0  0  0  0  0  0  0  0  0  0  0  0
   -4.9940   18.5990  -32.3470 O   0  0  0  0  0  0  0  0  0  0  0  0
   -5.8100   18.9180  -34.6340 O   0  0  0  0  0  0  0  0  0  0  0  0
   -6.9070   20.4280  -32.7450 C   0  0  0  0  0  0  0  0  0  0  0  0
   -8.1490   19.8650  -32.5930 C   0  0  0  0  0  0  0  0  0  0  0  0
   -8.9830   20.7940  -32.0950 N   0  0  0  0  0  0  0  0  0  0  0  0
   -8.2110   21.8930  -31.9600 C   0  0  0  0  0  0  0  0  0  0  0  0
   -6.9310   21.7100  -32.3480 N   0  0  0  0  0  0  0  0  0  0  0  0
   -3.8150   22.3600  -31.7780 C   0  0  0  0  0  0  0  0  0  0  0  0
   -6.2706   24.4098  -29.2377 H   0  0  0  0  0  0  0  0  0  0  0  0
   -7.1571   24.7340  -30.7659 H   0  0  0  0  0  0  0  0  0  0  0  0
   -5.7419   23.6278  -30.7659 H   0  0  0  0  0  0  0  0  0  0  0  0
   -5.4212   26.0790  -31.6336 H   0  0  0  0  0  0  0  0  0  0  0  0
   -5.4578   26.5263  -29.8930 H   0  0  0  0  0  0  0  0  0  0  0  0
   -0.9017   23.0443  -30.1236 H   0  0  0  0  0  0  0  0  0  0  0  0
   -0.0874   21.2440  -31.6364 H   0  0  0  0  0  0  0  0  0  0  0  0
   -0.2807   17.9692  -34.8228 H   0  0  0  0  0  0  0  0  0  0  0  0
    1.4566   18.3608  -36.5657 H   0  0  0  0  0  0  0  0  0  0  0  0
    0.0032   24.3652  -35.1055 H   0  0  0  0  0  0  0  0  0  0  0  0
    0.7829   24.8462  -36.6506 H   0  0  0  0  0  0  0  0  0  0  0  0
   -0.5298   23.6200  -36.6506 H   0  0  0  0  0  0  0  0  0  0  0  0
    2.9142   23.3819  -34.6146 H   0  0  0  0  0  0  0  0  0  0  0  0
    3.3833   22.5789  -36.1514 H   0  0  0  0  0  0  0  0  0  0  0  0
    2.9109   24.3120  -36.1514 H   0  0  0  0  0  0  0  0  0  0  0  0
   -0.5147   22.2298  -34.0968 H   0  0  0  0  0  0  0  0  0  0  0  0
   -8.4174   18.8267  -32.8378 H   0  0  0  0  0  0  0  0  0  0  0  0
   -8.5898   22.8492  -31.5699 H   0  0  0  0  0  0  0  0  0  0  0  0
   -4.8626   22.6915  -31.8300 H   0  0  0  0  0  0  0  0  0  0  0  0
  1  2  1  0
  2  3  1  0
  3  4  1  0
  4  5  2  0
  4  6  1  0
  6  7  2  0
  7  8  1  0
  8  9  2  0
  9 10  1  0
 10 11  1  0
 11 12  2  0
 12 13  1  0
 13 14  2  0
 14 15  1  0
 14 16  1  0
 16 17  1  0
 17 18  1  0
 17 19  1  0
 16 20  2  0
  9 21  1  0
 21 22  1  0
 22 23  1  0
 23 24  2  0
 23 25  2  0
 23 26  1  0
 26 27  2  0
 27 28  1  0
 28 29  1  0
 29 30  2  0
 21 31  2  0
 31  6  1  0
 20 11  1  0
 30 26  1  0
  1 32  1  0
  1 33  1  0
  1 34  1  0
  2 35  1  0
  2 36  1  0
  7 37  1  0
  8 38  1  0
 12 39  1  0
 13 40  1  0
 18 41  1  0
 18 42  1  0
 18 43  1  0
 19 44  1  0
 19 45  1  0
 19 46  1  0
 20 47  1  0
 27 48  1  0
 29 49  1  0
 31 50  1  0
M  CHG  4   3  -1  15  -1  22  -1  28  -1
M  END
>  <UniqueID>  (40) 
40

>  <SMILES>  (40) 
CC[N-]C(=O)c1ccc(Oc2ccc([O-])c(N(C)C)c2)c([N-]S(=O)(=O)c2c[n-]cn2)c1

>  <Energy>  (40) 
94.74370623978797

>  <Genealogy>  (40) 
CC[N-]C(=O)c1ccc(Oc2ccc([O-])c(N(C)C)c2)c([N-]S(=O)(=O)c2c[n-]cn2)c1 (protonated)
CC[N-]C(=O)c1ccc(Oc2ccc([O-])c(N(C)C)c2)c([N-]S(=O)(=O)c2c[n-]cn2)c1 (3D coordinates assigned)
CC[N-]C(=O)c1ccc(Oc2ccc([O-])c(N(C)C)c2)c([N-]S(=O)(=O)c2c[n-]cn2)c1 (optimized conformer: 94.74370623978797 kcal/mol)

>  <smiles>  (40) 
CCNC(=O)c1ccc(Oc2ccc(O)c(N(C)C)c2)c(NS(=O)(=O)c2c[nH]cn2)c1

>  <score_type>  (40) 
oracle

>  <origin>  (40) 
adgpu

>  <m_score__min__energy>  (40) 
-10.619999999999999

>  <m_primary>  (40) 
energy

$$$$
40:0
     RDKit          3D

 57 60  0  0  0  0  0  0  0  0999 V2000
   -2.7901   20.9956  -30.5790 H   0  0  0  0  0  0  0  0  0  0  0  0
   -2.4440   21.0110  -31.6230 C   0  0  0  0  0  0  0  0  0  0  0  0
   -0.8700   21.3040  -32.1360 S   0  0  0  0  0  0  0  0  0  0  0  0
   -1.2570   21.1390  -33.7690 C   0  0  0  0  0  0  0  0  0  0  0  0
   -0.4420   21.2520  -34.7780 N   0  0  0  0  0  0  0  0  0  0  0  0
    0.9630   21.5520  -34.7370 C   0  0  0  0  0  0  0  0  0  0  0  0
    1.4030   22.6890  -35.0590 O   0  0  0  0  0  0  0  0  0  0  0  0
    1.9320   20.4770  -34.3310 C   0  0  0  0  0  0  0  0  0  0  0  0
    2.4423   20.1000  -35.2296 H   0  0  0  0  0  0  0  0  0  0  0  0
    2.6502   20.9147  -33.6221 H   0  0  0  0  0  0  0  0  0  0  0  0
    1.2510   19.3470  -33.6570 N   0  0  0  0  0  0  0  0  0  0  0  0
    0.2210   19.5490  -33.6340 H   0  0  0  0  0  0  0  0  0  0  0  0
    1.4730   18.0680  -34.3780 C   0  0  0  0  0  0  0  0  0  0  0  0
    0.8587   18.0612  -35.2905 H   0  0  0  0  0  0  0  0  0  0  0  0
    2.5425   17.9928  -34.6240 H   0  0  0  0  0  0  0  0  0  0  0  0
    1.0910   16.8520  -33.5080 C   0  0  0  0  0  0  0  0  0  0  0  0
    0.5426   16.1257  -34.1258 H   0  0  0  0  0  0  0  0  0  0  0  0
    2.0127   16.4017  -33.1109 H   0  0  0  0  0  0  0  0  0  0  0  0
    0.2760   17.2430  -32.4210 O   0  0  0  0  0  0  0  0  0  0  0  0
    1.0200   18.0610  -31.5350 C   0  0  0  0  0  0  0  0  0  0  0  0
    0.3371   18.4729  -30.7774 H   0  0  0  0  0  0  0  0  0  0  0  0
    1.8006   17.4353  -31.0777 H   0  0  0  0  0  0  0  0  0  0  0  0
    1.7220   19.2340  -32.2610 C   0  0  0  0  0  0  0  0  0  0  0  0
    1.5006   20.1711  -31.7291 H   0  0  0  0  0  0  0  0  0  0  0  0
    2.8055   19.0442  -32.2697 H   0  0  0  0  0  0  0  0  0  0  0  0
   -2.5670   20.8660  -33.9400 N   0  0  0  0  0  0  0  0  0  0  0  0
   -3.2380   20.7900  -32.7550 C   0  0  0  0  0  0  0  0  0  0  0  0
   -4.6960   20.5110  -32.7080 C   0  0  0  0  0  0  0  0  0  0  0  0
   -5.1970   19.3260  -33.2610 C   0  0  0  0  0  0  0  0  0  0  0  0
   -4.5053   18.6017  -33.7160 H   0  0  0  0  0  0  0  0  0  0  0  0
   -6.5650   19.0560  -33.2400 C   0  0  0  0  0  0  0  0  0  0  0  0
   -6.9408   18.1265  -33.6926 H   0  0  0  0  0  0  0  0  0  0  0  0
   -7.4710   19.9540  -32.6490 C   0  0  0  0  0  0  0  0  0  0  0  0
   -8.9380   19.6230  -32.7110 C   0  0  0  0  0  0  0  0  0  0  0  0
   -9.3370   19.5330  -31.6899 H   0  0  0  0  0  0  0  0  0  0  0  0
   -9.4722   20.4232  -33.2442 H   0  0  0  0  0  0  0  0  0  0  0  0
   -9.0769   18.6709  -33.2442 H   0  0  0  0  0  0  0  0  0  0  0  0
   -6.9740   21.1430  -32.0500 C   0  0  0  0  0  0  0  0  0  0  0  0
   -8.0040   22.3530  -31.2350 S   0  0  0  0  0  0  0  0  0  0  0  0
   -8.8810   21.7010  -30.2020 O   0  0  0  0  0  0  0  0  0  0  0  0
   -8.9180   22.9520  -32.2690 O   0  0  0  0  0  0  0  0  0  0  0  0
   -7.0930   23.6630  -30.5040 N   0  0  0  0  0  0  0  0  0  0  0  0
   -6.1270   23.2010  -29.4850 C   0  0  0  0  0  0  0  0  0  0  0  0
   -6.1831   23.8679  -28.6120 H   0  0  0  0  0  0  0  0  0  0  0  0
   -6.3867   22.1684  -29.2088 H   0  0  0  0  0  0  0  0  0  0  0  0
   -4.6860   23.2060  -30.0250 C   0  0  0  0  0  0  0  0  0  0  0  0
   -4.0133   22.8635  -29.2249 H   0  0  0  0  0  0  0  0  0  0  0  0
   -4.6665   22.5402  -30.9004 H   0  0  0  0  0  0  0  0  0  0  0  0
   -4.2480   24.4870  -30.4640 O   0  0  0  0  0  0  0  0  0  0  0  0
   -5.3000   25.3220  -30.9400 C   0  0  0  0  0  0  0  0  0  0  0  0
   -5.6668   25.9326  -30.1017 H   0  0  0  0  0  0  0  0  0  0  0  0
   -4.8842   25.9368  -31.7519 H   0  0  0  0  0  0  0  0  0  0  0  0
   -6.4860   24.5370  -31.5270 C   0  0  0  0  0  0  0  0  0  0  0  0
   -7.2437   25.2466  -31.8908 H   0  0  0  0  0  0  0  0  0  0  0  0
   -6.1200   23.9108  -32.3540 H   0  0  0  0  0  0  0  0  0  0  0  0
   -5.5930   21.4080  -32.1060 C   0  0  0  0  0  0  0  0  0  0  0  0
   -5.2070   22.3401  -31.6677 H   0  0  0  0  0  0  0  0  0  0  0  0
  1  2  1  0
  2  3  1  0
  3  4  1  0
  4  5  2  0
  5  6  1  0
  6  7  2  0
  6  8  1  0
  8  9  1  0
  8 10  1  0
  8 11  1  0
 11 12  1  0
 11 13  1  0
 13 14  1  0
 13 15  1  0
 13 16  1  0
 16 17  1  0
 16 18  1  0
 16 19  1  0
 19 20  1  0
 20 21  1  0
 20 22  1  0
 20 23  1  0
 23 24  1  0
 23 25  1  0
  4 26  1  0
 26 27  1  0
 27 28  1  0
 28 29  2  0
 29 30  1  0
 29 31  1  0
 31 32  1  0
 31 33  2  0
 33 34  1  0
 34 35  1  0
 34 36  1  0
 34 37  1  0
 33 38  1  0
 38 39  1  0
 39 40  2  0
 39 41  2  0
 39 42  1  0
 42 43  1  0
 43 44  1  0
 43 45  1  0
 43 46  1  0
 46 47  1  0
 46 48  1  0
 46 49  1  0
 49 50  1  0
 50 51  1  0
 50 52  1  0
 50 53  1  0
 53 54  1  0
 53 55  1  0
 38 56  2  0
 56 57  1  0
 27  2  2  0
 56 28  1  0
 23 11  1  0
 53 42  1  0
M  CHG  2  11   1  26  -1
M  END
>  <UniqueID>  (41) 
41

>  <SMILES>  (41) 
Cc1ccc(-c2cs/c(=N\C(=O)C[NH+]3CCOCC3)[n-]2)cc1S(=O)(=O)N1CCOCC1

>  <Energy>  (41) 
121.23227247213094

>  <Genealogy>  (41) 
Cc1ccc(-c2csc(=NC(=O)C[NH+]3CCOCC3)[n-]2)cc1S(=O)(=O)N1CCOCC1 (protonated)
Cc1ccc(-c2cs/c(=N\C(=O)C[NH+]3CCOCC3)[n-]2)cc1S(=O)(=O)N1CCOCC1 (cis-trans isomerization)
Cc1ccc(-c2cs/c(=N\C(=O)C[NH+]3CCOCC3)[n-]2)cc1S(=O)(=O)N1CCOCC1 (3D coordinates assigned)
Cc1ccc(-c2cs/c(=N\C(=O)C[NH+]3CCOCC3)[n-]2)cc1S(=O)(=O)N1CCOCC1 (nonaromatic ring conformer: 121.23227247213094 kcal/mol)

>  <smiles>  (41) 
Cc1ccc(-c2csc(=NC(=O)CN3CCOCC3)[nH]2)cc1S(=O)(=O)N1CCOCC1

>  <score_type>  (41) 
oracle

>  <origin>  (41) 
adgpu

>  <m_score__min__energy>  (41) 
-10.27

>  <m_primary>  (41) 
energy

$$$$
41:0
     RDKit          3D

 59 62  0  0  0  0  0  0  0  0999 V2000
   -1.6030   18.4140  -26.9880 C   0  0  0  0  0  0  0  0  0  0  0  0
   -1.2110   19.8360  -27.2930 C   0  0  0  0  0  0  0  0  0  0  0  0
   -1.3810   20.8200  -26.3050 C   0  0  0  0  0  0  0  0  0  0  0  0
   -1.0170   22.1450  -26.5500 C   0  0  0  0  0  0  0  0  0  0  0  0
   -0.4660   22.5080  -27.7840 C   0  0  0  0  0  0  0  0  0  0  0  0
    0.0650   24.1670  -28.0400 S   0  0  0  0  0  0  0  0  0  0  0  0
    1.5640   24.1790  -28.1330 O   0  0  0  0  0  0  0  0  0  0  0  0
   -0.4760   24.7030  -29.3370 O   0  0  0  0  0  0  0  0  0  0  0  0
   -0.4620   25.2040  -26.7030 C   0  0  0  0  0  0  0  0  0  0  0  0
    0.5170   25.8600  -25.9390 C   0  0  0  0  0  0  0  0  0  0  0  0
    0.1500   26.7650  -24.9400 C   0  0  0  0  0  0  0  0  0  0  0  0
   -1.1970   27.0280  -24.6930 C   0  0  0  0  0  0  0  0  0  0  0  0
   -2.1830   26.3720  -25.4310 C   0  0  0  0  0  0  0  0  0  0  0  0
   -1.8320   25.4440  -26.4250 C   0  0  0  0  0  0  0  0  0  0  0  0
   -2.9140   24.7440  -27.1390 C   0  0  0  0  0  0  0  0  0  0  0  0
   -3.8270   24.1780  -26.4810 O   0  0  0  0  0  0  0  0  0  0  0  0
   -2.9130   24.6960  -28.5720 N   0  0  0  0  0  0  0  0  0  0  0  0
   -3.9450   24.0580  -29.3410 C   0  0  0  0  0  0  0  0  0  0  0  0
   -5.0840   24.7870  -29.7050 C   0  0  0  0  0  0  0  0  0  0  0  0
   -6.0940   24.1890  -30.4640 C   0  0  0  0  0  0  0  0  0  0  0  0
   -5.9860   22.8460  -30.8570 C   0  0  0  0  0  0  0  0  0  0  0  0
   -7.0320   22.2320  -31.6330 N   0  0  0  0  0  0  0  0  0  0  0  0
   -6.7930   20.9510  -32.3090 C   0  0  0  0  0  0  0  0  0  0  0  0
   -8.1230   20.2900  -32.7060 C   0  0  0  0  0  0  0  0  0  0  0  0
   -9.1360   20.5080  -31.6640 N   0  0  0  0  0  0  0  0  0  0  0  0
   -9.4890   21.9340  -31.5140 C   0  0  0  0  0  0  0  0  0  0  0  0
   -8.3250   22.9010  -31.8170 C   0  0  0  0  0  0  0  0  0  0  0  0
   -4.8630   22.1040  -30.4550 C   0  0  0  0  0  0  0  0  0  0  0  0
   -3.8500   22.7060  -29.7050 C   0  0  0  0  0  0  0  0  0  0  0  0
   -0.3090   21.5390  -28.7840 C   0  0  0  0  0  0  0  0  0  0  0  0
   -0.7070   20.2090  -28.5630 C   0  0  0  0  0  0  0  0  0  0  0  0
   -0.5170   19.1990  -29.6640 C   0  0  0  0  0  0  0  0  0  0  0  0
   -1.6426   18.2703  -25.8981 H   0  0  0  0  0  0  0  0  0  0  0  0
   -2.5922   18.2053  -27.4216 H   0  0  0  0  0  0  0  0  0  0  0  0
   -0.8605   17.7279  -27.4216 H   0  0  0  0  0  0  0  0  0  0  0  0
   -1.8052   20.5435  -25.3285 H   0  0  0  0  0  0  0  0  0  0  0  0
   -1.1638   22.9067  -25.7701 H   0  0  0  0  0  0  0  0  0  0  0  0
    1.5818   25.6595  -26.1288 H   0  0  0  0  0  0  0  0  0  0  0  0
    0.9256   27.2714  -24.3467 H   0  0  0  0  0  0  0  0  0  0  0  0
   -1.4823   27.7527  -23.9162 H   0  0  0  0  0  0  0  0  0  0  0  0
   -3.2441   26.5835  -25.2326 H   0  0  0  0  0  0  0  0  0  0  0  0
   -2.0420   24.9870  -29.0670 H   0  0  0  0  0  0  0  0  0  0  0  0
   -5.1844   25.8366  -29.3917 H   0  0  0  0  0  0  0  0  0  0  0  0
   -6.9787   24.7744  -30.7550 H   0  0  0  0  0  0  0  0  0  0  0  0
   -6.1927   21.1266  -33.2139 H   0  0  0  0  0  0  0  0  0  0  0  0
   -6.2572   20.2818  -31.6197 H   0  0  0  0  0  0  0  0  0  0  0  0
   -8.4764   20.7267  -33.6517 H   0  0  0  0  0  0  0  0  0  0  0  0
   -7.9617   19.2085  -32.8253 H   0  0  0  0  0  0  0  0  0  0  0  0
   -8.7600   20.1530  -30.7510 H   0  0  0  0  0  0  0  0  0  0  0  0
  -10.3159   22.1605  -32.2031 H   0  0  0  0  0  0  0  0  0  0  0  0
   -9.7644   22.0858  -30.4599 H   0  0  0  0  0  0  0  0  0  0  0  0
   -8.4064   23.2490  -32.8573 H   0  0  0  0  0  0  0  0  0  0  0  0
   -8.3838   23.7527  -31.1233 H   0  0  0  0  0  0  0  0  0  0  0  0
   -4.7809   21.0427  -30.7324 H   0  0  0  0  0  0  0  0  0  0  0  0
   -2.9731   22.1172  -29.3980 H   0  0  0  0  0  0  0  0  0  0  0  0
    0.1302   21.8220  -29.7520 H   0  0  0  0  0  0  0  0  0  0  0  0
   -0.3306   18.2081  -29.2244 H   0  0  0  0  0  0  0  0  0  0  0  0
   -1.4235   19.1596  -30.2859 H   0  0  0  0  0  0  0  0  0  0  0  0
    0.3418   19.4917  -30.2859 H   0  0  0  0  0  0  0  0  0  0  0  0
  1  2  1  0
  2  3  2  0
  3  4  1  0
  4  5  2  0
  5  6  1  0
  6  7  2  0
  6  8  2  0
  6  9  1  0
  9 10  2  0
 10 11  1  0
 11 12  2  0
 12 13  1  0
 13 14  2  0
 14 15  1  0
 15 16  2  0
 15 17  1  0
 17 18  1  0
 18 19  2  0
 19 20  1  0
 20 21  2  0
 21 22  1  0
 22 23  1  0
 23 24  1  0
 24 25  1  0
 25 26  1  0
 26 27  1  0
 21 28  1  0
 28 29  2  0
  5 30  1  0
 30 31  2  0
 31 32  1  0
 31  2  1  0
 14  9  1  0
 29 18  1  0
 27 22  1  0
  1 33  1  0
  1 34  1  0
  1 35  1  0
  3 36  1  0
  4 37  1  0
 10 38  1  0
 11 39  1  0
 12 40  1  0
 13 41  1  0
 17 42  1  0
 19 43  1  0
 20 44  1  0
 23 45  1  0
 23 46  1  0
 24 47  1  0
 24 48  1  0
 25 49  1  0
 26 50  1  0
 26 51  1  0
 27 52  1  0
 27 53  1  0
 28 54  1  0
 29 55  1  0
 30 56  1  0
 32 57  1  0
 32 58  1  0
 32 59  1  0
M  END
>  <UniqueID>  (42) 
42

>  <SMILES>  (42) 
Cc1ccc(S(=O)(=O)c2ccccc2C(=O)Nc2ccc(N3CCNCC3)cc2)cc1C

>  <Energy>  (42) 
83.32378531657504

>  <Genealogy>  (42) 
Cc1ccc(S(=O)(=O)c2ccccc2C(=O)Nc2ccc(N3CCNCC3)cc2)cc1C (3D coordinates assigned)
Cc1ccc(S(=O)(=O)c2ccccc2C(=O)Nc2ccc(N3CCNCC3)cc2)cc1C (nonaromatic ring conformer: 83.32378531657504 kcal/mol)

>  <smiles>  (42) 
Cc1ccc(S(=O)(=O)c2ccccc2C(=O)Nc2ccc(N3CCNCC3)cc2)cc1C

>  <score_type>  (42) 
oracle

>  <origin>  (42) 
adgpu

>  <m_score__min__energy>  (42) 
-10.15

>  <m_primary>  (42) 
energy

$$$$
42:0
     RDKit          3D

 52 55  0  0  0  0  0  0  0  0999 V2000
   -2.6940   21.2050  -32.5650 C   0  0  0  0  0  0  0  0  0  0  0  0
   -2.5460   21.2780  -31.1030 N   0  0  0  0  0  0  0  0  0  0  0  0
   -1.4740   22.2430  -30.7100 C   0  0  0  0  0  0  0  0  0  0  0  0
   -1.9300   23.3820  -29.7720 C   0  0  0  0  0  0  0  0  0  0  0  0
   -3.2820   23.8820  -30.1730 C   0  0  0  0  0  0  0  0  0  0  0  0
   -3.5660   25.2090  -30.1670 N   0  0  0  0  0  0  0  0  0  0  0  0
   -4.8000   25.6700  -30.4970 C   0  0  0  0  0  0  0  0  0  0  0  0
   -5.8160   24.7780  -30.8500 C   0  0  0  0  0  0  0  0  0  0  0  0
   -5.5540   23.3900  -30.8740 C   0  0  0  0  0  0  0  0  0  0  0  0
   -6.4560   22.5020  -31.1960 N   0  0  0  0  0  0  0  0  0  0  0  0
   -7.8000   22.6750  -31.6760 C   0  0  0  0  0  0  0  0  0  0  0  0
   -8.3560   23.8050  -31.6590 O   0  0  0  0  0  0  0  0  0  0  0  0
   -8.4740   21.5890  -32.3190 N   0  0  0  0  0  0  0  0  0  0  0  0
   -8.0120   20.2320  -32.3770 C   0  0  0  0  0  0  0  0  0  0  0  0
   -8.6800   19.1930  -31.7040 C   0  0  0  0  0  0  0  0  0  0  0  0
   -8.2100   17.8810  -31.7980 C   0  0  0  0  0  0  0  0  0  0  0  0
   -7.0860   17.5910  -32.5760 C   0  0  0  0  0  0  0  0  0  0  0  0
   -6.4300   18.6140  -33.2740 C   0  0  0  0  0  0  0  0  0  0  0  0
   -5.0230   18.2470  -34.2770 S   0  0  0  0  0  0  0  0  0  0  0  0
   -4.0670   19.4060  -34.2330 O   0  0  0  0  0  0  0  0  0  0  0  0
   -5.4670   18.0690  -35.7020 O   0  0  0  0  0  0  0  0  0  0  0  0
   -4.1990   16.7960  -33.7440 N   0  0  0  0  0  0  0  0  0  0  0  0
   -2.8810   17.1130  -33.1810 C   0  0  0  0  0  0  0  0  0  0  0  0
   -1.8380   16.8140  -34.2410 C   0  0  0  0  0  0  0  0  0  0  0  0
   -2.4760   15.7650  -35.1220 C   0  0  0  0  0  0  0  0  0  0  0  0
   -3.9740   15.8650  -34.8600 C   0  0  0  0  0  0  0  0  0  0  0  0
   -6.9010   19.9310  -33.1730 C   0  0  0  0  0  0  0  0  0  0  0  0
   -4.2640   22.9480  -30.5090 C   0  0  0  0  0  0  0  0  0  0  0  0
   -3.8600   21.4940  -30.4520 C   0  0  0  0  0  0  0  0  0  0  0  0
   -3.6551   20.7309  -32.8130 H   0  0  0  0  0  0  0  0  0  0  0  0
   -2.6661   22.2202  -32.9875 H   0  0  0  0  0  0  0  0  0  0  0  0
   -1.8715   20.6093  -32.9875 H   0  0  0  0  0  0  0  0  0  0  0  0
   -0.6784   21.6797  -30.2003 H   0  0  0  0  0  0  0  0  0  0  0  0
   -1.1411   22.7267  -31.6401 H   0  0  0  0  0  0  0  0  0  0  0  0
   -1.9752   23.0046  -28.7398 H   0  0  0  0  0  0  0  0  0  0  0  0
   -1.2094   24.2102  -29.8419 H   0  0  0  0  0  0  0  0  0  0  0  0
   -5.0008   26.7515  -30.4864 H   0  0  0  0  0  0  0  0  0  0  0  0
   -6.8165   25.1553  -31.1083 H   0  0  0  0  0  0  0  0  0  0  0  0
   -9.5741   19.4141  -31.1026 H   0  0  0  0  0  0  0  0  0  0  0  0
   -8.7262   17.0736  -31.2580 H   0  0  0  0  0  0  0  0  0  0  0  0
   -6.7153   16.5574  -32.6407 H   0  0  0  0  0  0  0  0  0  0  0  0
   -2.8386   18.1768  -32.9044 H   0  0  0  0  0  0  0  0  0  0  0  0
   -2.6945   16.5116  -32.2790 H   0  0  0  0  0  0  0  0  0  0  0  0
   -1.6047   17.7186  -34.8217 H   0  0  0  0  0  0  0  0  0  0  0  0
   -0.8885   16.4699  -33.8051 H   0  0  0  0  0  0  0  0  0  0  0  0
   -2.2571   15.9680  -36.1807 H   0  0  0  0  0  0  0  0  0  0  0  0
   -2.0906   14.7588  -34.9008 H   0  0  0  0  0  0  0  0  0  0  0  0
   -4.4828   16.2382  -35.7610 H   0  0  0  0  0  0  0  0  0  0  0  0
   -4.3759   14.8731  -34.6060 H   0  0  0  0  0  0  0  0  0  0  0  0
   -6.3923   20.7352  -33.7248 H   0  0  0  0  0  0  0  0  0  0  0  0
   -3.7952   21.1804  -29.3996 H   0  0  0  0  0  0  0  0  0  0  0  0
   -4.6161   20.9007  -30.9871 H   0  0  0  0  0  0  0  0  0  0  0  0
  1  2  1  0
  2  3  1  0
  3  4  1  0
  4  5  1  0
  5  6  1  0
  6  7  1  0
  7  8  2  0
  8  9  1  0
  9 10  2  3
 10 11  1  0
 11 12  2  0
 11 13  1  0
 13 14  1  0
 14 15  2  0
 15 16  1  0
 16 17  2  0
 17 18  1  0
 18 19  1  0
 19 20  2  0
 19 21  2  0
 19 22  1  0
 22 23  1  0
 23 24  1  0
 24 25  1  0
 25 26  1  0
 18 27  2  0
  9 28  1  0
 28 29  1  0
 29  2  1  0
 28  5  2  0
 27 14  1  0
 26 22  1  0
  1 30  1  0
  1 31  1  0
  1 32  1  0
  3 33  1  0
  3 34  1  0
  4 35  1  0
  4 36  1  0
  7 37  1  0
  8 38  1  0
 15 39  1  0
 16 40  1  0
 17 41  1  0
 23 42  1  0
 23 43  1  0
 24 44  1  0
 24 45  1  0
 25 46  1  0
 25 47  1  0
 26 48  1  0
 26 49  1  0
 27 50  1  0
 29 51  1  0
 29 52  1  0
M  CHG  2   6  -1  13  -1
M  END
>  <UniqueID>  (43) 
43

>  <SMILES>  (43) 
CN1CCc2[n-]ccc(=NC(=O)[N-]c3cccc(S(=O)(=O)N4CCCC4)c3)c2C1

>  <Energy>  (43) 
77.41135364894376

>  <Genealogy>  (43) 
CN1CCc2[n-]ccc(=NC(=O)[N-]c3cccc(S(=O)(=O)N4CCCC4)c3)c2C1 (protonated)
CN1CCc2[n-]ccc(=NC(=O)[N-]c3cccc(S(=O)(=O)N4CCCC4)c3)c2C1 (3D coordinates assigned)
CN1CCc2[n-]ccc(=NC(=O)[N-]c3cccc(S(=O)(=O)N4CCCC4)c3)c2C1 (nonaromatic ring conformer: 77.41135364894376 kcal/mol)

>  <smiles>  (43) 
CN1CCc2[nH]ccc(=NC(=O)Nc3cccc(S(=O)(=O)N4CCCC4)c3)c2C1

>  <score_type>  (43) 
oracle

>  <origin>  (43) 
adgpu

>  <m_score__min__energy>  (43) 
-11.35

>  <m_primary>  (43) 
energy

$$$$
43:0
     RDKit          3D

 67 71  0  0  0  0  0  0  0  0999 V2000
   -0.8400   25.8140  -28.7820 O   0  0  0  0  0  0  0  0  0  0  0  0
   -1.6940   24.9140  -28.9950 C   0  0  0  0  0  0  0  0  0  0  0  0
   -3.0320   25.2930  -29.3460 N   0  0  0  0  0  0  0  0  0  0  0  0
   -4.0450   24.4400  -29.9040 C   0  0  0  0  0  0  0  0  0  0  0  0
   -3.7450   23.4530  -30.8570 C   0  0  0  0  0  0  0  0  0  0  0  0
   -4.7590   22.6600  -31.3970 C   0  0  0  0  0  0  0  0  0  0  0  0
   -6.0950   22.8500  -31.0080 C   0  0  0  0  0  0  0  0  0  0  0  0
   -7.1480   22.0500  -31.5770 N   0  0  0  0  0  0  0  0  0  0  0  0
   -6.8140   20.9170  -32.4500 C   0  0  0  0  0  0  0  0  0  0  0  0
   -7.9320   19.8710  -32.3920 C   0  0  0  0  0  0  0  0  0  0  0  0
   -9.1910   20.4640  -32.6460 O   0  0  0  0  0  0  0  0  0  0  0  0
   -9.5060   21.3760  -31.6120 C   0  0  0  0  0  0  0  0  0  0  0  0
   -8.5240   22.5520  -31.6080 C   0  0  0  0  0  0  0  0  0  0  0  0
   -6.3970   23.8600  -30.0810 C   0  0  0  0  0  0  0  0  0  0  0  0
   -5.3800   24.6550  -29.5430 C   0  0  0  0  0  0  0  0  0  0  0  0
   -1.3010   23.5030  -28.8340 C   0  0  0  0  0  0  0  0  0  0  0  0
   -0.8900   22.7780  -29.9610 C   0  0  0  0  0  0  0  0  0  0  0  0
   -0.5710   21.4210  -29.8540 C   0  0  0  0  0  0  0  0  0  0  0  0
   -0.2560   20.4900  -31.3140 S   0  0  0  0  0  0  0  0  0  0  0  0
   -0.1240   21.4410  -32.4730 O   0  0  0  0  0  0  0  0  0  0  0  0
    1.0320   19.7230  -31.1730 O   0  0  0  0  0  0  0  0  0  0  0  0
   -1.5910   19.3920  -31.6000 N   0  0  0  0  0  0  0  0  0  0  0  0
   -2.8710   20.1100  -31.6270 C   0  0  0  0  0  0  0  0  0  0  0  0
   -3.1930   20.4270  -33.0820 C   0  0  0  0  0  0  0  0  0  0  0  0
   -2.2660   19.5550  -33.9120 C   0  0  0  0  0  0  0  0  0  0  0  0
   -1.4700   18.7330  -32.9090 C   0  0  0  0  0  0  0  0  0  0  0  0
   -0.6010   20.7970  -28.6000 C   0  0  0  0  0  0  0  0  0  0  0  0
   -0.9560   21.5260  -27.4640 C   0  0  0  0  0  0  0  0  0  0  0  0
   -1.3170   22.8770  -27.5700 C   0  0  0  0  0  0  0  0  0  0  0  0
   -1.6240   23.6140  -26.3780 N   0  0  0  0  0  0  0  0  0  0  0  0
   -2.7780   24.5150  -26.3560 C   0  0  0  0  0  0  0  0  0  0  0  0
   -2.3070   25.9690  -26.1240 C   0  0  0  0  0  0  0  0  0  0  0  0
   -0.9610   26.0760  -25.6820 O   0  0  0  0  0  0  0  0  0  0  0  0
   -0.6860   25.1180  -24.6810 C   0  0  0  0  0  0  0  0  0  0  0  0
   -0.6350   23.7180  -25.3030 C   0  0  0  0  0  0  0  0  0  0  0  0
   -2.7041   23.3038  -31.1800 H   0  0  0  0  0  0  0  0  0  0  0  0
   -4.5098   21.8808  -32.1324 H   0  0  0  0  0  0  0  0  0  0  0  0
   -6.7008   21.2738  -33.4844 H   0  0  0  0  0  0  0  0  0  0  0  0
   -5.8721   20.4616  -32.1103 H   0  0  0  0  0  0  0  0  0  0  0  0
   -7.7397   19.0958  -33.1484 H   0  0  0  0  0  0  0  0  0  0  0  0
   -7.9482   19.4290  -31.3848 H   0  0  0  0  0  0  0  0  0  0  0  0
  -10.5260   21.7580  -31.7661 H   0  0  0  0  0  0  0  0  0  0  0  0
   -9.4354   20.8536  -30.6466 H   0  0  0  0  0  0  0  0  0  0  0  0
   -8.6724   23.1547  -32.5162 H   0  0  0  0  0  0  0  0  0  0  0  0
   -8.7042   23.1724  -30.7177 H   0  0  0  0  0  0  0  0  0  0  0  0
   -7.4405   24.0272  -29.7758 H   0  0  0  0  0  0  0  0  0  0  0  0
   -5.6311   25.4550  -28.8310 H   0  0  0  0  0  0  0  0  0  0  0  0
   -0.8179   23.2804  -30.9369 H   0  0  0  0  0  0  0  0  0  0  0  0
   -1.5940   18.6750  -30.8350 H   0  0  0  0  0  0  0  0  0  0  0  0
   -3.6633   19.4799  -31.1965 H   0  0  0  0  0  0  0  0  0  0  0  0
   -2.8064   21.0355  -31.0360 H   0  0  0  0  0  0  0  0  0  0  0  0
   -4.2436   20.1871  -33.3026 H   0  0  0  0  0  0  0  0  0  0  0  0
   -3.0503   21.4948  -33.3043 H   0  0  0  0  0  0  0  0  0  0  0  0
   -2.8483   18.8958  -34.5726 H   0  0  0  0  0  0  0  0  0  0  0  0
   -1.6093   20.1577  -34.5566 H   0  0  0  0  0  0  0  0  0  0  0  0
   -1.8759   17.7121  -32.8542 H   0  0  0  0  0  0  0  0  0  0  0  0
   -0.4149   18.6677  -33.2131 H   0  0  0  0  0  0  0  0  0  0  0  0
   -0.3444   19.7311  -28.5106 H   0  0  0  0  0  0  0  0  0  0  0  0
   -0.9526   21.0374  -26.4785 H   0  0  0  0  0  0  0  0  0  0  0  0
   -3.3078   24.4525  -27.3180 H   0  0  0  0  0  0  0  0  0  0  0  0
   -3.4529   24.2187  -25.5395 H   0  0  0  0  0  0  0  0  0  0  0  0
   -2.4051   26.5198  -27.0711 H   0  0  0  0  0  0  0  0  0  0  0  0
   -2.9387   26.3849  -25.3253 H   0  0  0  0  0  0  0  0  0  0  0  0
    0.2835   25.3457  -24.2139 H   0  0  0  0  0  0  0  0  0  0  0  0
   -1.4800   25.1490  -23.9203 H   0  0  0  0  0  0  0  0  0  0  0  0
    0.3697   23.5374  -25.7129 H   0  0  0  0  0  0  0  0  0  0  0  0
   -0.8610   22.9695  -24.5293 H   0  0  0  0  0  0  0  0  0  0  0  0
  1  2  2  0
  2  3  1  0
  3  4  1  0
  4  5  2  0
  5  6  1  0
  6  7  2  0
  7  8  1  0
  8  9  1  0
  9 10  1  0
 10 11  1  0
 11 12  1  0
 12 13  1  0
  7 14  1  0
 14 15  2  0
  2 16  1  0
 16 17  2  0
 17 18  1  0
 18 19  1  0
 19 20  2  0
 19 21  2  0
 19 22  1  0
 22 23  1  0
 23 24  1  0
 24 25  1  0
 25 26  1  0
 18 27  2  0
 27 28  1  0
 28 29  2  0
 29 30  1  0
 30 31  1  0
 31 32  1  0
 32 33  1  0
 33 34  1  0
 34 35  1  0
 15  4  1  0
 29 16  1  0
 35 30  1  0
 13  8  1  0
 26 22  1  0
  5 36  1  0
  6 37  1  0
  9 38  1  0
  9 39  1  0
 10 40  1  0
 10 41  1  0
 12 42  1  0
 12 43  1  0
 13 44  1  0
 13 45  1  0
 14 46  1  0
 15 47  1  0
 17 48  1  0
 22 49  1  0
 23 50  1  0
 23 51  1  0
 24 52  1  0
 24 53  1  0
 25 54  1  0
 25 55  1  0
 26 56  1  0
 26 57  1  0
 27 58  1  0
 28 59  1  0
 31 60  1  0
 31 61  1  0
 32 62  1  0
 32 63  1  0
 34 64  1  0
 34 65  1  0
 35 66  1  0
 35 67  1  0
M  CHG  2   3  -1  22   1
M  END
>  <UniqueID>  (44) 
44

>  <SMILES>  (44) 
O=C([N-]c1ccc(N2CCOCC2)cc1)c1cc(S(=O)(=O)[NH+]2CCCC2)ccc1N1CCOCC1

>  <Energy>  (44) 
98.87486001571611

>  <Genealogy>  (44) 
O=C([N-]c1ccc(N2CCOCC2)cc1)c1cc(S(=O)(=O)[NH+]2CCCC2)ccc1N1CCOCC1 (protonated)
O=C([N-]c1ccc(N2CCOCC2)cc1)c1cc(S(=O)(=O)[NH+]2CCCC2)ccc1N1CCOCC1 (3D coordinates assigned)
O=C([N-]c1ccc(N2CCOCC2)cc1)c1cc(S(=O)(=O)[NH+]2CCCC2)ccc1N1CCOCC1 (nonaromatic ring conformer: 98.87486001571611 kcal/mol)

>  <smiles>  (44) 
O=C(Nc1ccc(N2CCOCC2)cc1)c1cc(S(=O)(=O)N2CCCC2)ccc1N1CCOCC1

>  <score_type>  (44) 
oracle

>  <origin>  (44) 
adgpu

>  <m_score__min__energy>  (44) 
-12.279999999999999

>  <m_primary>  (44) 
energy

$$$$
44:0
     RDKit          3D

 52 54  0  0  0  0  0  0  0  0999 V2000
   -8.8900   20.8570  -31.2350 C   0  0  0  0  0  0  0  0  0  0  0  0
   -8.6470   20.1120  -32.5420 C   0  0  0  0  0  0  0  0  0  0  0  0
   -7.0890   19.2400  -32.5030 S   0  0  0  0  0  0  0  0  0  0  0  0
   -6.8610   18.5570  -33.8230 O   0  0  0  0  0  0  0  0  0  0  0  0
   -7.1290   18.1940  -31.4230 O   0  0  0  0  0  0  0  0  0  0  0  0
   -5.7770   20.3670  -32.1670 C   0  0  0  0  0  0  0  0  0  0  0  0
   -4.5220   19.8780  -31.7910 C   0  0  0  0  0  0  0  0  0  0  0  0
   -3.4870   20.7630  -31.4850 C   0  0  0  0  0  0  0  0  0  0  0  0
   -3.6900   22.1450  -31.5630 C   0  0  0  0  0  0  0  0  0  0  0  0
   -2.6320   22.9960  -31.2430 O   0  0  0  0  0  0  0  0  0  0  0  0
   -4.9420   22.6510  -31.9650 C   0  0  0  0  0  0  0  0  0  0  0  0
   -5.1410   24.0720  -32.0270 N   0  0  0  0  0  0  0  0  0  0  0  0
   -5.3060   24.9630  -30.9160 C   0  0  0  0  0  0  0  0  0  0  0  0
   -6.4360   25.4510  -30.6490 O   0  0  0  0  0  0  0  0  0  0  0  0
   -4.1900   25.3080  -30.0890 N   0  0  0  0  0  0  0  0  0  0  0  0
   -3.5890   24.4710  -29.0900 C   0  0  0  0  0  0  0  0  0  0  0  0
   -4.2900   23.3970  -28.5150 C   0  0  0  0  0  0  0  0  0  0  0  0
   -3.6700   22.5780  -27.5690 C   0  0  0  0  0  0  0  0  0  0  0  0
   -2.3440   22.8110  -27.1990 C   0  0  0  0  0  0  0  0  0  0  0  0
   -1.6250   23.8640  -27.7800 C   0  0  0  0  0  0  0  0  0  0  0  0
    0.0660   24.1310  -27.3440 S   0  0  0  0  0  0  0  0  0  0  0  0
    0.6140   22.8690  -26.7380 O   0  0  0  0  0  0  0  0  0  0  0  0
    0.8710   24.4670  -28.5690 O   0  0  0  0  0  0  0  0  0  0  0  0
    0.1790   25.4370  -26.1870 N   0  0  0  0  0  0  0  0  0  0  0  0
    0.1030   24.8990  -24.8150 C   0  0  0  0  0  0  0  0  0  0  0  0
   -0.2910   26.0040  -23.8210 C   0  0  0  0  0  0  0  0  0  0  0  0
   -1.5440   26.6230  -24.0960 O   0  0  0  0  0  0  0  0  0  0  0  0
   -1.9890   26.4460  -25.4330 C   0  0  0  0  0  0  0  0  0  0  0  0
   -0.8410   26.4770  -26.4570 C   0  0  0  0  0  0  0  0  0  0  0  0
   -2.2480   24.6870  -28.7370 C   0  0  0  0  0  0  0  0  0  0  0  0
   -1.5380   25.7220  -29.3360 O   0  0  0  0  0  0  0  0  0  0  0  0
   -5.9900   21.7510  -32.2390 C   0  0  0  0  0  0  0  0  0  0  0  0
   -8.6726   20.1906  -30.3872 H   0  0  0  0  0  0  0  0  0  0  0  0
   -8.2325   21.7376  -31.1872 H   0  0  0  0  0  0  0  0  0  0  0  0
   -9.9403   21.1806  -31.1872 H   0  0  0  0  0  0  0  0  0  0  0  0
   -9.4602   19.3883  -32.6998 H   0  0  0  0  0  0  0  0  0  0  0  0
   -8.6177   20.8445  -33.3621 H   0  0  0  0  0  0  0  0  0  0  0  0
   -4.3500   18.7929  -31.7362 H   0  0  0  0  0  0  0  0  0  0  0  0
   -2.5052   20.3713  -31.1805 H   0  0  0  0  0  0  0  0  0  0  0  0
   -2.7650   23.9820  -31.0540 H   0  0  0  0  0  0  0  0  0  0  0  0
   -5.3310   23.2008  -28.8113 H   0  0  0  0  0  0  0  0  0  0  0  0
   -4.2281   21.7466  -27.1138 H   0  0  0  0  0  0  0  0  0  0  0  0
   -1.8624   22.1661  -26.4492 H   0  0  0  0  0  0  0  0  0  0  0  0
   -0.6501   24.0979  -24.7821 H   0  0  0  0  0  0  0  0  0  0  0  0
    1.0906   24.5048  -24.5336 H   0  0  0  0  0  0  0  0  0  0  0  0
   -0.3395   25.5609  -22.8154 H   0  0  0  0  0  0  0  0  0  0  0  0
    0.4733   26.7905  -23.9065 H   0  0  0  0  0  0  0  0  0  0  0  0
   -2.4989   25.4741  -25.5071 H   0  0  0  0  0  0  0  0  0  0  0  0
   -2.6636   27.2822  -25.6690 H   0  0  0  0  0  0  0  0  0  0  0  0
   -1.2579   26.3118  -27.4614 H   0  0  0  0  0  0  0  0  0  0  0  0
   -0.3498   27.4585  -26.3835 H   0  0  0  0  0  0  0  0  0  0  0  0
   -6.9834   22.1368  -32.5116 H   0  0  0  0  0  0  0  0  0  0  0  0
  1  2  1  0
  2  3  1  0
  3  4  2  0
  3  5  2  0
  3  6  1  0
  6  7  2  0
  7  8  1  0
  8  9  2  0
  9 10  1  0
  9 11  1  0
 11 12  1  0
 12 13  1  0
 13 14  2  0
 13 15  1  0
 15 16  1  0
 16 17  2  0
 17 18  1  0
 18 19  2  0
 19 20  1  0
 20 21  1  0
 21 22  2  0
 21 23  2  0
 21 24  1  0
 24 25  1  0
 25 26  1  0
 26 27  1  0
 27 28  1  0
 28 29  1  0
 20 30  2  0
 30 31  1  0
 11 32  2  0
 32  6  1  0
 30 16  1  0
 29 24  1  0
  1 33  1  0
  1 34  1  0
  1 35  1  0
  2 36  1  0
  2 37  1  0
  7 38  1  0
  8 39  1  0
 10 40  1  0
 17 41  1  0
 18 42  1  0
 19 43  1  0
 25 44  1  0
 25 45  1  0
 26 46  1  0
 26 47  1  0
 28 48  1  0
 28 49  1  0
 29 50  1  0
 29 51  1  0
 32 52  1  0
M  CHG  3  12  -1  15  -1  31  -1
M  END
>  <UniqueID>  (45) 
45

>  <SMILES>  (45) 
CCS(=O)(=O)c1ccc(O)c([N-]C(=O)[N-]c2cccc(S(=O)(=O)N3CCOCC3)c2[O-])c1

>  <Energy>  (45) 
67.89509350326595

>  <Genealogy>  (45) 
CCS(=O)(=O)c1ccc(O)c([N-]C(=O)[N-]c2cccc(S(=O)(=O)N3CCOCC3)c2[O-])c1 (protonated)
CCS(=O)(=O)c1ccc(O)c([N-]C(=O)[N-]c2cccc(S(=O)(=O)N3CCOCC3)c2[O-])c1 (3D coordinates assigned)
CCS(=O)(=O)c1ccc(O)c([N-]C(=O)[N-]c2cccc(S(=O)(=O)N3CCOCC3)c2[O-])c1 (nonaromatic ring conformer: 67.89509350326595 kcal/mol)

>  <smiles>  (45) 
CCS(=O)(=O)c1ccc(O)c(NC(=O)Nc2cccc(S(=O)(=O)N3CCOCC3)c2O)c1

>  <score_type>  (45) 
oracle

>  <origin>  (45) 
adgpu

>  <m_score__min__energy>  (45) 
-15.640000000000001

>  <m_primary>  (45) 
energy

$$$$
45:0
     RDKit          3D

 62 65  0  0  0  0  0  0  0  0999 V2000
   -1.3960   20.8570  -29.6570 O   0  0  0  0  0  0  0  0  0  0  0  0
   -1.7110   21.3770  -30.7610 C   0  0  0  0  0  0  0  0  0  0  0  0
   -2.0250   22.7760  -30.7980 N   0  0  0  0  0  0  0  0  0  0  0  0
   -3.3400   23.3460  -30.7270 C   0  0  0  0  0  0  0  0  0  0  0  0
   -4.3900   22.6910  -31.3810 C   0  0  0  0  0  0  0  0  0  0  0  0
   -5.6930   23.2020  -31.3300 C   0  0  0  0  0  0  0  0  0  0  0  0
   -6.9980   22.3520  -32.1530 S   0  0  0  0  0  0  0  0  0  0  0  0
   -7.9660   23.3640  -32.6990 O   0  0  0  0  0  0  0  0  0  0  0  0
   -6.4420   21.5530  -33.2990 O   0  0  0  0  0  0  0  0  0  0  0  0
   -7.8310   21.2690  -30.9810 C   0  0  0  0  0  0  0  0  0  0  0  0
   -9.3500   21.5400  -30.9510 C   0  0  0  0  0  0  0  0  0  0  0  0
  -10.0850   20.9950  -32.1880 C   0  0  0  0  0  0  0  0  0  0  0  0
   -9.5600   19.6270  -32.6740 C   0  0  0  0  0  0  0  0  0  0  0  0
   -8.7030   18.9190  -31.6220 C   0  0  0  0  0  0  0  0  0  0  0  0
   -7.4880   19.7760  -31.2380 C   0  0  0  0  0  0  0  0  0  0  0  0
   -5.9410   24.3970  -30.6420 C   0  0  0  0  0  0  0  0  0  0  0  0
   -4.8920   25.0770  -30.0170 C   0  0  0  0  0  0  0  0  0  0  0  0
   -3.5910   24.5670  -30.0680 C   0  0  0  0  0  0  0  0  0  0  0  0
   -2.5580   25.2960  -29.4890 O   0  0  0  0  0  0  0  0  0  0  0  0
   -1.7200   20.5370  -31.9810 C   0  0  0  0  0  0  0  0  0  0  0  0
   -2.8710   19.7950  -32.2960 C   0  0  0  0  0  0  0  0  0  0  0  0
   -2.9160   19.0030  -33.4510 C   0  0  0  0  0  0  0  0  0  0  0  0
   -4.3730   18.0840  -33.8370 S   0  0  0  0  0  0  0  0  0  0  0  0
   -4.4940   17.9460  -35.3300 O   0  0  0  0  0  0  0  0  0  0  0  0
   -5.5750   18.8370  -33.3410 O   0  0  0  0  0  0  0  0  0  0  0  0
   -4.3440   16.4970  -33.1080 N   0  0  0  0  0  0  0  0  0  0  0  0
   -3.1000   15.7940  -33.4600 C   0  0  0  0  0  0  0  0  0  0  0  0
   -2.9560   14.5080  -32.6240 C   0  0  0  0  0  0  0  0  0  0  0  0
   -4.3110   13.9780  -32.1260 C   0  0  0  0  0  0  0  0  0  0  0  0
   -5.4130   14.2240  -33.1600 C   0  0  0  0  0  0  0  0  0  0  0  0
   -5.5280   15.7200  -33.5300 C   0  0  0  0  0  0  0  0  0  0  0  0
   -1.7990   18.9440  -34.2930 C   0  0  0  0  0  0  0  0  0  0  0  0
   -0.6420   19.6590  -33.9760 C   0  0  0  0  0  0  0  0  0  0  0  0
   -0.5920   20.4460  -32.8210 C   0  0  0  0  0  0  0  0  0  0  0  0
    0.5910   21.1050  -32.5060 O   0  0  0  0  0  0  0  0  0  0  0  0
   -4.1897   21.7655  -31.9407 H   0  0  0  0  0  0  0  0  0  0  0  0
   -7.4515   21.5012  -29.9750 H   0  0  0  0  0  0  0  0  0  0  0  0
   -9.7730   21.0635  -30.0543 H   0  0  0  0  0  0  0  0  0  0  0  0
   -9.4883   22.6312  -30.9417 H   0  0  0  0  0  0  0  0  0  0  0  0
  -11.1510   20.8884  -31.9386 H   0  0  0  0  0  0  0  0  0  0  0  0
   -9.9124   21.7120  -33.0042 H   0  0  0  0  0  0  0  0  0  0  0  0
  -10.4199   18.9858  -32.9178 H   0  0  0  0  0  0  0  0  0  0  0  0
   -8.9260   19.8068  -33.5548 H   0  0  0  0  0  0  0  0  0  0  0  0
   -9.3125   18.7357  -30.7248 H   0  0  0  0  0  0  0  0  0  0  0  0
   -8.3437   17.9684  -32.0431 H   0  0  0  0  0  0  0  0  0  0  0  0
   -7.0450   19.3590  -30.3215 H   0  0  0  0  0  0  0  0  0  0  0  0
   -6.7938   19.7486  -32.0908 H   0  0  0  0  0  0  0  0  0  0  0  0
   -6.9631   24.8008  -30.5936 H   0  0  0  0  0  0  0  0  0  0  0  0
   -5.0907   26.0177  -29.4825 H   0  0  0  0  0  0  0  0  0  0  0  0
   -3.7451   19.8363  -31.6295 H   0  0  0  0  0  0  0  0  0  0  0  0
   -3.1215   15.5317  -34.5280 H   0  0  0  0  0  0  0  0  0  0  0  0
   -2.2452   16.4539  -33.2504 H   0  0  0  0  0  0  0  0  0  0  0  0
   -2.4806   13.7344  -33.2449 H   0  0  0  0  0  0  0  0  0  0  0  0
   -2.3449   14.7482  -31.7415 H   0  0  0  0  0  0  0  0  0  0  0  0
   -4.2276   12.8970  -31.9402 H   0  0  0  0  0  0  0  0  0  0  0  0
   -4.5754   14.5102  -31.2004 H   0  0  0  0  0  0  0  0  0  0  0  0
   -5.1833   13.6488  -34.0691 H   0  0  0  0  0  0  0  0  0  0  0  0
   -6.3704   13.9051  -32.7223 H   0  0  0  0  0  0  0  0  0  0  0  0
   -5.6370   15.8067  -34.6211 H   0  0  0  0  0  0  0  0  0  0  0  0
   -6.4030   16.1294  -33.0039 H   0  0  0  0  0  0  0  0  0  0  0  0
   -1.8328   18.3327  -35.2069 H   0  0  0  0  0  0  0  0  0  0  0  0
    0.2345   19.6029  -34.6382 H   0  0  0  0  0  0  0  0  0  0  0  0
  1  2  2  0
  2  3  1  0
  3  4  1  0
  4  5  2  0
  5  6  1  0
  6  7  1  0
  7  8  2  0
  7  9  2  0
  7 10  1  0
 10 11  1  0
 11 12  1  0
 12 13  1  0
 13 14  1  0
 14 15  1  0
  6 16  2  0
 16 17  1  0
 17 18  2  0
 18 19  1  0
  2 20  1  0
 20 21  2  0
 21 22  1  0
 22 23  1  0
 23 24  2  0
 23 25  2  0
 23 26  1  0
 26 27  1  0
 27 28  1  0
 28 29  1  0
 29 30  1  0
 30 31  1  0
 22 32  2  0
 32 33  1  0
 33 34  2  0
 34 35  1  0
 18  4  1  0
 34 20  1  0
 15 10  1  0
 31 26  1  0
  5 36  1  0
 10 37  1  0
 11 38  1  0
 11 39  1  0
 12 40  1  0
 12 41  1  0
 13 42  1  0
 13 43  1  0
 14 44  1  0
 14 45  1  0
 15 46  1  0
 15 47  1  0
 16 48  1  0
 17 49  1  0
 21 50  1  0
 27 51  1  0
 27 52  1  0
 28 53  1  0
 28 54  1  0
 29 55  1  0
 29 56  1  0
 30 57  1  0
 30 58  1  0
 31 59  1  0
 31 60  1  0
 32 61  1  0
 33 62  1  0
M  CHG  3   3  -1  19  -1  35  -1
M  END
>  <UniqueID>  (46) 
46

>  <SMILES>  (46) 
O=C([N-]c1cc(S(=O)(=O)C2CCCCC2)ccc1[O-])c1cc(S(=O)(=O)N2CCCCC2)ccc1[O-]

>  <Energy>  (46) 
77.32232642776768

>  <Genealogy>  (46) 
O=C([N-]c1cc(S(=O)(=O)C2CCCCC2)ccc1[O-])c1cc(S(=O)(=O)N2CCCCC2)ccc1[O-] (protonated)
O=C([N-]c1cc(S(=O)(=O)C2CCCCC2)ccc1[O-])c1cc(S(=O)(=O)N2CCCCC2)ccc1[O-] (3D coordinates assigned)
O=C([N-]c1cc(S(=O)(=O)C2CCCCC2)ccc1[O-])c1cc(S(=O)(=O)N2CCCCC2)ccc1[O-] (nonaromatic ring conformer: 77.32232642776768 kcal/mol)

>  <smiles>  (46) 
O=C(Nc1cc(S(=O)(=O)C2CCCCC2)ccc1O)c1cc(S(=O)(=O)N2CCCCC2)ccc1O

>  <score_type>  (46) 
oracle

>  <origin>  (46) 
adgpu

>  <m_score__min__energy>  (46) 
-15.56

>  <m_primary>  (46) 
energy

$$$$
46:0
     RDKit          3D

 37 39  0  0  0  0  0  0  0  0999 V2000
    0.4290   16.9630  -27.5110 C   0  0  0  0  0  0  0  0  0  0  0  0
   -0.3730   18.2200  -27.4840 C   0  0  0  0  0  0  0  0  0  0  0  0
   -0.0200   19.4160  -28.0700 C   0  0  0  0  0  0  0  0  0  0  0  0
   -1.1060   20.2350  -27.8170 C   0  0  0  0  0  0  0  0  0  0  0  0
   -1.2720   21.6550  -28.1950 C   0  0  0  0  0  0  0  0  0  0  0  0
   -0.2290   22.5640  -27.9540 C   0  0  0  0  0  0  0  0  0  0  0  0
   -0.3540   23.9010  -28.3350 C   0  0  0  0  0  0  0  0  0  0  0  0
   -1.5130   24.3490  -28.9750 C   0  0  0  0  0  0  0  0  0  0  0  0
   -1.6080   25.6860  -29.3430 O   0  0  0  0  0  0  0  0  0  0  0  0
   -2.5610   23.4480  -29.2370 C   0  0  0  0  0  0  0  0  0  0  0  0
   -4.0240   23.9470  -30.0950 S   0  0  0  0  0  0  0  0  0  0  0  0
   -3.8720   25.3310  -30.6620 O   0  0  0  0  0  0  0  0  0  0  0  0
   -5.1700   23.9460  -29.1230 O   0  0  0  0  0  0  0  0  0  0  0  0
   -4.3790   22.8270  -31.3840 N   0  0  0  0  0  0  0  0  0  0  0  0
   -5.4790   23.3040  -32.2260 C   0  0  0  0  0  0  0  0  0  0  0  0
   -6.6360   22.3430  -32.1950 C   0  0  0  0  0  0  0  0  0  0  0  0
   -7.8690   22.7340  -31.6520 C   0  0  0  0  0  0  0  0  0  0  0  0
   -8.9250   21.8230  -31.5890 C   0  0  0  0  0  0  0  0  0  0  0  0
   -8.7390   20.5270  -32.0720 C   0  0  0  0  0  0  0  0  0  0  0  0
   -7.5410   20.1610  -32.6010 N   0  0  0  0  0  0  0  0  0  0  0  0
   -6.4980   21.0320  -32.6760 C   0  0  0  0  0  0  0  0  0  0  0  0
   -2.4450   22.1140  -28.8190 C   0  0  0  0  0  0  0  0  0  0  0  0
   -2.0040   19.5400  -27.1520 O   0  0  0  0  0  0  0  0  0  0  0  0
   -1.6000   18.3220  -26.9400 N   0  0  0  0  0  0  0  0  0  0  0  0
    0.6363   16.6381  -26.4807 H   0  0  0  0  0  0  0  0  0  0  0  0
   -0.1360   16.1788  -28.0361 H   0  0  0  0  0  0  0  0  0  0  0  0
    1.3783   17.1449  -28.0361 H   0  0  0  0  0  0  0  0  0  0  0  0
    0.9059   19.6615  -28.6108 H   0  0  0  0  0  0  0  0  0  0  0  0
    0.6926   22.2201  -27.4617 H   0  0  0  0  0  0  0  0  0  0  0  0
    0.4648   24.6065  -28.1303 H   0  0  0  0  0  0  0  0  0  0  0  0
   -5.8154   24.2843  -31.8575 H   0  0  0  0  0  0  0  0  0  0  0  0
   -5.1181   23.3855  -33.2619 H   0  0  0  0  0  0  0  0  0  0  0  0
   -8.0038   23.7588  -31.2757 H   0  0  0  0  0  0  0  0  0  0  0  0
   -9.8936   22.1236  -31.1631 H   0  0  0  0  0  0  0  0  0  0  0  0
   -9.5632   19.8000  -32.0247 H   0  0  0  0  0  0  0  0  0  0  0  0
   -5.5433   20.7071  -33.1153 H   0  0  0  0  0  0  0  0  0  0  0  0
   -3.2819   21.4188  -28.9814 H   0  0  0  0  0  0  0  0  0  0  0  0
  1  2  1  0
  2  3  1  0
  3  4  2  0
  4  5  1  0
  5  6  2  0
  6  7  1  0
  7  8  2  0
  8  9  1  0
  8 10  1  0
 10 11  1  0
 11 12  2  0
 11 13  2  0
 11 14  1  0
 14 15  1  0
 15 16  1  0
 16 17  2  0
 17 18  1  0
 18 19  2  0
 19 20  1  0
 20 21  2  0
 10 22  2  0
  4 23  1  0
 23 24  1  0
 24  2  2  0
 22  5  1  0
 21 16  1  0
  1 25  1  0
  1 26  1  0
  1 27  1  0
  3 28  1  0
  6 29  1  0
  7 30  1  0
 15 31  1  0
 15 32  1  0
 17 33  1  0
 18 34  1  0
 19 35  1  0
 21 36  1  0
 22 37  1  0
M  CHG  2   9  -1  14  -1
M  END
>  <UniqueID>  (47) 
47

>  <SMILES>  (47) 
Cc1cc(-c2ccc([O-])c(S(=O)(=O)[N-]Cc3cccnc3)c2)on1

>  <Energy>  (47) 
66.47275792625857

>  <Genealogy>  (47) 
Cc1cc(-c2ccc([O-])c(S(=O)(=O)[N-]Cc3cccnc3)c2)on1 (protonated)
Cc1cc(-c2ccc([O-])c(S(=O)(=O)[N-]Cc3cccnc3)c2)on1 (3D coordinates assigned)
Cc1cc(-c2ccc([O-])c(S(=O)(=O)[N-]Cc3cccnc3)c2)on1 (optimized conformer: 66.47275792625857 kcal/mol)

>  <smiles>  (47) 
Cc1cc(-c2ccc(O)c(S(=O)(=O)NCc3cccnc3)c2)on1

>  <score_type>  (47) 
oracle

>  <origin>  (47) 
adgpu

>  <m_score__min__energy>  (47) 
-12.07

>  <m_primary>  (47) 
energy

$$$$
47:0
     RDKit          3D

 52 54  0  0  0  0  0  0  0  0999 V2000
   -0.0740   18.0970  -32.2770 C   0  0  0  0  0  0  0  0  0  0  0  0
   -0.7950   19.2930  -31.7470 C   0  0  0  0  0  0  0  0  0  0  0  0
   -1.6260   19.8900  -32.4850 O   0  0  0  0  0  0  0  0  0  0  0  0
   -0.4670   19.8070  -30.4470 N   0  0  0  0  0  0  0  0  0  0  0  0
   -1.2180   20.8290  -29.7690 C   0  0  0  0  0  0  0  0  0  0  0  0
   -0.9950   22.1960  -30.0240 C   0  0  0  0  0  0  0  0  0  0  0  0
   -1.7720   23.1690  -29.3860 C   0  0  0  0  0  0  0  0  0  0  0  0
   -2.7850   22.7880  -28.5010 C   0  0  0  0  0  0  0  0  0  0  0  0
   -3.7960   24.0360  -27.7000 S   0  0  0  0  0  0  0  0  0  0  0  0
   -5.0370   24.1260  -29.0430 C   0  0  0  0  0  0  0  0  0  0  0  0
   -4.4470   24.6470  -30.3260 C   0  0  0  0  0  0  0  0  0  0  0  0
   -4.2770   25.8860  -30.4730 O   0  0  0  0  0  0  0  0  0  0  0  0
   -4.2400   23.7840  -31.4510 N   0  0  0  0  0  0  0  0  0  0  0  0
   -4.9100   22.5340  -31.6420 C   0  0  0  0  0  0  0  0  0  0  0  0
   -6.2680   22.5160  -31.9810 C   0  0  0  0  0  0  0  0  0  0  0  0
   -6.9380   21.2970  -32.1290 C   0  0  0  0  0  0  0  0  0  0  0  0
   -6.2470   20.0880  -31.9620 C   0  0  0  0  0  0  0  0  0  0  0  0
   -7.1030   18.5510  -32.0700 S   0  0  0  0  0  0  0  0  0  0  0  0
   -8.5700   18.7840  -31.8400 O   0  0  0  0  0  0  0  0  0  0  0  0
   -6.6080   17.6400  -30.9820 O   0  0  0  0  0  0  0  0  0  0  0  0
   -6.8730   17.7710  -33.6220 N   0  0  0  0  0  0  0  0  0  0  0  0
   -6.4770   16.3510  -33.4950 C   0  0  0  0  0  0  0  0  0  0  0  0
   -4.9730   16.1250  -33.7300 C   0  0  0  0  0  0  0  0  0  0  0  0
   -4.2370   17.2660  -33.3580 O   0  0  0  0  0  0  0  0  0  0  0  0
   -4.4940   18.3140  -34.2720 C   0  0  0  0  0  0  0  0  0  0  0  0
   -6.0030   18.5480  -34.5260 C   0  0  0  0  0  0  0  0  0  0  0  0
   -4.8750   20.1080  -31.6830 C   0  0  0  0  0  0  0  0  0  0  0  0
   -4.2110   21.3260  -31.5240 C   0  0  0  0  0  0  0  0  0  0  0  0
   -3.0100   21.4310  -28.2410 C   0  0  0  0  0  0  0  0  0  0  0  0
   -2.2400   20.4580  -28.8840 C   0  0  0  0  0  0  0  0  0  0  0  0
    0.2930   17.4883  -31.4375 H   0  0  0  0  0  0  0  0  0  0  0  0
   -0.7612   17.4973  -32.8919 H   0  0  0  0  0  0  0  0  0  0  0  0
    0.7772   18.4247  -32.8919 H   0  0  0  0  0  0  0  0  0  0  0  0
    0.4160   19.4700  -30.0010 H   0  0  0  0  0  0  0  0  0  0  0  0
   -0.2064   22.5001  -30.7280 H   0  0  0  0  0  0  0  0  0  0  0  0
   -1.5856   24.2354  -29.5810 H   0  0  0  0  0  0  0  0  0  0  0  0
   -5.4399   23.1182  -29.2216 H   0  0  0  0  0  0  0  0  0  0  0  0
   -5.8279   24.8221  -28.7269 H   0  0  0  0  0  0  0  0  0  0  0  0
   -6.8091   23.4618  -32.1312 H   0  0  0  0  0  0  0  0  0  0  0  0
   -8.0096   21.2866  -32.3770 H   0  0  0  0  0  0  0  0  0  0  0  0
   -6.7296   16.0055  -32.4817 H   0  0  0  0  0  0  0  0  0  0  0  0
   -7.0201   15.7867  -34.2674 H   0  0  0  0  0  0  0  0  0  0  0  0
   -4.6380   15.2668  -33.1290 H   0  0  0  0  0  0  0  0  0  0  0  0
   -4.8065   15.9284  -34.7994 H   0  0  0  0  0  0  0  0  0  0  0  0
   -4.0594   19.2415  -33.8710 H   0  0  0  0  0  0  0  0  0  0  0  0
   -4.0424   18.0266  -35.2329 H   0  0  0  0  0  0  0  0  0  0  0  0
   -6.2193   19.6173  -34.3855 H   0  0  0  0  0  0  0  0  0  0  0  0
   -6.2170   18.2140  -35.5520 H   0  0  0  0  0  0  0  0  0  0  0  0
   -4.3197   19.1631  -31.5890 H   0  0  0  0  0  0  0  0  0  0  0  0
   -3.1331   21.3369  -31.3049 H   0  0  0  0  0  0  0  0  0  0  0  0
   -3.7936   21.1303  -27.5300 H   0  0  0  0  0  0  0  0  0  0  0  0
   -2.4374   19.3926  -28.6942 H   0  0  0  0  0  0  0  0  0  0  0  0
  1  2  1  0
  2  3  2  0
  2  4  1  0
  4  5  1  0
  5  6  2  0
  6  7  1  0
  7  8  2  0
  8  9  1  0
  9 10  1  0
 10 11  1  0
 11 12  2  0
 11 13  1  0
 13 14  1  0
 14 15  2  0
 15 16  1  0
 16 17  2  0
 17 18  1  0
 18 19  2  0
 18 20  2  0
 18 21  1  0
 21 22  1  0
 22 23  1  0
 23 24  1  0
 24 25  1  0
 25 26  1  0
 17 27  1  0
 27 28  2  0
  8 29  1  0
 29 30  2  0
 30  5  1  0
 28 14  1  0
 26 21  1  0
  1 31  1  0
  1 32  1  0
  1 33  1  0
  4 34  1  0
  6 35  1  0
  7 36  1  0
 10 37  1  0
 10 38  1  0
 15 39  1  0
 16 40  1  0
 22 41  1  0
 22 42  1  0
 23 43  1  0
 23 44  1  0
 25 45  1  0
 25 46  1  0
 26 47  1  0
 26 48  1  0
 27 49  1  0
 28 50  1  0
 29 51  1  0
 30 52  1  0
M  CHG  1  13  -1
M  END
>  <UniqueID>  (48) 
48

>  <SMILES>  (48) 
CC(=O)Nc1ccc(SCC(=O)[N-]c2ccc(S(=O)(=O)N3CCOCC3)cc2)cc1

>  <Energy>  (48) 
64.03552934296353

>  <Genealogy>  (48) 
CC(=O)Nc1ccc(SCC(=O)[N-]c2ccc(S(=O)(=O)N3CCOCC3)cc2)cc1 (protonated)
CC(=O)Nc1ccc(SCC(=O)[N-]c2ccc(S(=O)(=O)N3CCOCC3)cc2)cc1 (3D coordinates assigned)
CC(=O)Nc1ccc(SCC(=O)[N-]c2ccc(S(=O)(=O)N3CCOCC3)cc2)cc1 (nonaromatic ring conformer: 64.03552934296353 kcal/mol)

>  <smiles>  (48) 
CC(=O)Nc1ccc(SCC(=O)Nc2ccc(S(=O)(=O)N3CCOCC3)cc2)cc1

>  <score_type>  (48) 
oracle

>  <origin>  (48) 
adgpu

>  <m_score__min__energy>  (48) 
-10.949999999999999

>  <m_primary>  (48) 
energy

$$$$
48:0
     RDKit          3D

 41 42  0  0  0  0  0  0  0  0999 V2000
   -2.3820   24.9300  -27.0970 C   0  0  0  0  0  0  0  0  0  0  0  0
   -2.0510   24.9270  -28.5870 C   0  0  0  0  0  0  0  0  0  0  0  0
   -3.0000   24.0120  -29.3630 C   0  0  0  0  0  0  0  0  0  0  0  0
   -3.5770   24.7320  -30.5010 N   0  0  0  0  0  0  0  0  0  0  0  0
   -5.2870   24.9750  -30.2910 S   0  0  0  0  0  0  0  0  0  0  0  0
   -5.7280   26.1330  -31.1410 O   0  0  0  0  0  0  0  0  0  0  0  0
   -5.5890   25.2950  -28.8530 O   0  0  0  0  0  0  0  0  0  0  0  0
   -6.1630   23.5310  -30.7930 C   0  0  0  0  0  0  0  0  0  0  0  0
   -7.5200   23.6000  -31.1400 C   0  0  0  0  0  0  0  0  0  0  0  0
   -8.2070   22.4450  -31.5240 C   0  0  0  0  0  0  0  0  0  0  0  0
   -7.5450   21.2090  -31.5560 C   0  0  0  0  0  0  0  0  0  0  0  0
   -8.3990   19.7550  -32.0650 S   0  0  0  0  0  0  0  0  0  0  0  0
   -8.7380   18.9320  -30.8530 O   0  0  0  0  0  0  0  0  0  0  0  0
   -9.6780   20.1340  -32.7590 O   0  0  0  0  0  0  0  0  0  0  0  0
   -7.3760   18.8280  -33.1330 N   0  0  0  0  0  0  0  0  0  0  0  0
   -6.4190   19.6790  -33.8440 C   0  0  0  0  0  0  0  0  0  0  0  0
   -5.2160   18.8050  -34.1690 C   0  0  0  0  0  0  0  0  0  0  0  0
   -5.3170   17.6090  -33.2320 C   0  0  0  0  0  0  0  0  0  0  0  0
   -6.5710   17.8470  -32.4020 C   0  0  0  0  0  0  0  0  0  0  0  0
   -6.1890   21.1410  -31.2130 C   0  0  0  0  0  0  0  0  0  0  0  0
   -5.5020   22.2970  -30.8290 C   0  0  0  0  0  0  0  0  0  0  0  0
   -1.4491   24.9215  -26.5142 H   0  0  0  0  0  0  0  0  0  0  0  0
   -2.9596   25.8334  -26.8515 H   0  0  0  0  0  0  0  0  0  0  0  0
   -2.9758   24.0372  -26.8515 H   0  0  0  0  0  0  0  0  0  0  0  0
   -2.1419   25.9516  -28.9768 H   0  0  0  0  0  0  0  0  0  0  0  0
   -1.0245   24.5529  -28.7149 H   0  0  0  0  0  0  0  0  0  0  0  0
   -2.4426   23.1378  -29.7306 H   0  0  0  0  0  0  0  0  0  0  0  0
   -3.8110   23.6858  -28.6953 H   0  0  0  0  0  0  0  0  0  0  0  0
   -8.0453   24.5660  -31.1099 H   0  0  0  0  0  0  0  0  0  0  0  0
   -9.2696   22.5056  -31.8018 H   0  0  0  0  0  0  0  0  0  0  0  0
   -7.9820   18.3310  -33.8290 H   0  0  0  0  0  0  0  0  0  0  0  0
   -6.8694   20.0643  -34.7707 H   0  0  0  0  0  0  0  0  0  0  0  0
   -6.1262   20.5441  -33.2309 H   0  0  0  0  0  0  0  0  0  0  0  0
   -5.2522   18.4757  -35.2179 H   0  0  0  0  0  0  0  0  0  0  0  0
   -4.2689   19.3486  -34.0363 H   0  0  0  0  0  0  0  0  0  0  0  0
   -5.4084   16.6762  -33.8078 H   0  0  0  0  0  0  0  0  0  0  0  0
   -4.4223   17.5092  -32.6000 H   0  0  0  0  0  0  0  0  0  0  0  0
   -7.1319   16.9081  -32.2838 H   0  0  0  0  0  0  0  0  0  0  0  0
   -6.3176   18.2122  -31.3958 H   0  0  0  0  0  0  0  0  0  0  0  0
   -5.6627   20.1756  -31.2457 H   0  0  0  0  0  0  0  0  0  0  0  0
   -4.4386   22.2367  -30.5543 H   0  0  0  0  0  0  0  0  0  0  0  0
  1  2  1  0
  2  3  1  0
  3  4  1  0
  4  5  1  0
  5  6  2  0
  5  7  2  0
  5  8  1  0
  8  9  2  0
  9 10  1  0
 10 11  2  0
 11 12  1  0
 12 13  2  0
 12 14  2  0
 12 15  1  0
 15 16  1  0
 16 17  1  0
 17 18  1  0
 18 19  1  0
 11 20  1  0
 20 21  2  0
 21  8  1  0
 19 15  1  0
  1 22  1  0
  1 23  1  0
  1 24  1  0
  2 25  1  0
  2 26  1  0
  3 27  1  0
  3 28  1  0
  9 29  1  0
 10 30  1  0
 15 31  1  0
 16 32  1  0
 16 33  1  0
 17 34  1  0
 17 35  1  0
 18 36  1  0
 18 37  1  0
 19 38  1  0
 19 39  1  0
 20 40  1  0
 21 41  1  0
M  CHG  2   4  -1  15   1
M  END
>  <UniqueID>  (49) 
49

>  <SMILES>  (49) 
CCC[N-]S(=O)(=O)c1ccc(S(=O)(=O)[NH+]2CCCC2)cc1

>  <Energy>  (49) 
35.07515525540288

>  <Genealogy>  (49) 
CCC[N-]S(=O)(=O)c1ccc(S(=O)(=O)[NH+]2CCCC2)cc1 (protonated)
CCC[N-]S(=O)(=O)c1ccc(S(=O)(=O)[NH+]2CCCC2)cc1 (3D coordinates assigned)
CCC[N-]S(=O)(=O)c1ccc(S(=O)(=O)[NH+]2CCCC2)cc1 (nonaromatic ring conformer: 35.07515525540288 kcal/mol)

>  <smiles>  (49) 
CCCNS(=O)(=O)c1ccc(S(=O)(=O)N2CCCC2)cc1

>  <score_type>  (49) 
oracle

>  <origin>  (49) 
adgpu

>  <m_score__min__energy>  (49) 
-9.4600000000000009

>  <m_primary>  (49) 
energy

$$$$
49:0
     RDKit          3D

 56 59  0  0  0  0  0  0  0  0999 V2000
   -1.9080   25.2950  -29.0090 O   0  0  0  0  0  0  0  0  0  0  0  0
   -2.6070   24.5250  -29.7180 C   0  0  0  0  0  0  0  0  0  0  0  0
   -3.7880   25.0360  -30.3490 N   0  0  0  0  0  0  0  0  0  0  0  0
   -5.1390   24.9370  -29.7960 C   0  0  0  0  0  0  0  0  0  0  0  0
   -6.1780   25.1970  -30.8800 C   0  0  0  0  0  0  0  0  0  0  0  0
   -6.4940   23.8410  -31.5060 C   0  0  0  0  0  0  0  0  0  0  0  0
   -5.9260   22.7760  -30.5720 C   0  0  0  0  0  0  0  0  0  0  0  0
   -5.4030   23.5100  -29.3450 C   0  0  0  0  0  0  0  0  0  0  0  0
   -2.1700   23.1330  -29.9090 C   0  0  0  0  0  0  0  0  0  0  0  0
   -2.6490   22.4140  -31.0140 C   0  0  0  0  0  0  0  0  0  0  0  0
   -2.2760   21.0790  -31.2110 C   0  0  0  0  0  0  0  0  0  0  0  0
   -2.8750   20.1840  -32.6130 S   0  0  0  0  0  0  0  0  0  0  0  0
   -2.6980   21.0270  -33.8450 O   0  0  0  0  0  0  0  0  0  0  0  0
   -2.0560   18.9350  -32.7820 O   0  0  0  0  0  0  0  0  0  0  0  0
   -4.5600   19.7460  -32.4580 N   0  0  0  0  0  0  0  0  0  0  0  0
   -5.4510   20.7340  -33.0690 C   0  0  0  0  0  0  0  0  0  0  0  0
   -6.7290   19.9950  -33.4360 C   0  0  0  0  0  0  0  0  0  0  0  0
   -6.3490   18.5210  -33.4750 C   0  0  0  0  0  0  0  0  0  0  0  0
   -4.8710   18.4730  -33.1120 C   0  0  0  0  0  0  0  0  0  0  0  0
   -1.4420   20.4510  -30.2780 C   0  0  0  0  0  0  0  0  0  0  0  0
   -0.9710   21.1540  -29.1690 C   0  0  0  0  0  0  0  0  0  0  0  0
   -1.3250   22.4980  -28.9740 C   0  0  0  0  0  0  0  0  0  0  0  0
   -0.8110   23.2090  -27.8360 N   0  0  0  0  0  0  0  0  0  0  0  0
    0.4690   23.8970  -27.8420 C   0  0  0  0  0  0  0  0  0  0  0  0
    0.5820   24.5510  -26.4730 C   0  0  0  0  0  0  0  0  0  0  0  0
   -0.8420   24.6040  -25.9220 C   0  0  0  0  0  0  0  0  0  0  0  0
   -1.6120   23.5200  -26.6650 C   0  0  0  0  0  0  0  0  0  0  0  0
   -5.2094   25.6641  -28.9736 H   0  0  0  0  0  0  0  0  0  0  0  0
   -7.0864   25.6340  -30.4397 H   0  0  0  0  0  0  0  0  0  0  0  0
   -5.8018   25.9062  -31.6320 H   0  0  0  0  0  0  0  0  0  0  0  0
   -7.5822   23.7150  -31.6054 H   0  0  0  0  0  0  0  0  0  0  0  0
   -6.0521   23.7592  -32.5100 H   0  0  0  0  0  0  0  0  0  0  0  0
   -6.7141   22.0654  -30.2823 H   0  0  0  0  0  0  0  0  0  0  0  0
   -5.1259   22.2026  -31.0631 H   0  0  0  0  0  0  0  0  0  0  0  0
   -6.1537   23.4952  -28.5411 H   0  0  0  0  0  0  0  0  0  0  0  0
   -4.4930   23.0365  -28.9479 H   0  0  0  0  0  0  0  0  0  0  0  0
   -3.3236   22.9033  -31.7320 H   0  0  0  0  0  0  0  0  0  0  0  0
   -4.7860   19.6690  -31.4370 H   0  0  0  0  0  0  0  0  0  0  0  0
   -5.6706   21.5409  -32.3544 H   0  0  0  0  0  0  0  0  0  0  0  0
   -4.9882   21.1924  -33.9554 H   0  0  0  0  0  0  0  0  0  0  0  0
   -7.5065   20.1717  -32.6782 H   0  0  0  0  0  0  0  0  0  0  0  0
   -7.1365   20.3372  -34.3987 H   0  0  0  0  0  0  0  0  0  0  0  0
   -6.9429   17.9513  -32.7452 H   0  0  0  0  0  0  0  0  0  0  0  0
   -6.5418   18.0755  -34.4621 H   0  0  0  0  0  0  0  0  0  0  0  0
   -4.6756   17.6359  -32.4257 H   0  0  0  0  0  0  0  0  0  0  0  0
   -4.2474   18.3230  -34.0056 H   0  0  0  0  0  0  0  0  0  0  0  0
   -1.1568   19.3982  -30.4202 H   0  0  0  0  0  0  0  0  0  0  0  0
   -0.3169   20.6510  -28.4416 H   0  0  0  0  0  0  0  0  0  0  0  0
    1.2900   23.1812  -27.9956 H   0  0  0  0  0  0  0  0  0  0  0  0
    0.5330   24.6354  -28.6548 H   0  0  0  0  0  0  0  0  0  0  0  0
    1.2265   23.9514  -25.8134 H   0  0  0  0  0  0  0  0  0  0  0  0
    1.0302   25.5535  -26.5374 H   0  0  0  0  0  0  0  0  0  0  0  0
   -0.8426   24.4022  -24.8407 H   0  0  0  0  0  0  0  0  0  0  0  0
   -1.2962   25.5955  -26.0655 H   0  0  0  0  0  0  0  0  0  0  0  0
   -1.7290   22.6285  -26.0313 H   0  0  0  0  0  0  0  0  0  0  0  0
   -2.6239   23.8531  -26.9392 H   0  0  0  0  0  0  0  0  0  0  0  0
  1  2  2  0
  2  3  1  0
  3  4  1  0
  4  5  1  0
  5  6  1  0
  6  7  1  0
  7  8  1  0
  2  9  1  0
  9 10  2  0
 10 11  1  0
 11 12  1  0
 12 13  2  0
 12 14  2  0
 12 15  1  0
 15 16  1  0
 16 17  1  0
 17 18  1  0
 18 19  1  0
 11 20  2  0
 20 21  1  0
 21 22  2  0
 22 23  1  0
 23 24  1  0
 24 25  1  0
 25 26  1  0
 26 27  1  0
  8  4  1  0
 22  9  1  0
 27 23  1  0
 19 15  1  0
  4 28  1  0
  5 29  1  0
  5 30  1  0
  6 31  1  0
  6 32  1  0
  7 33  1  0
  7 34  1  0
  8 35  1  0
  8 36  1  0
 10 37  1  0
 15 38  1  0
 16 39  1  0
 16 40  1  0
 17 41  1  0
 17 42  1  0
 18 43  1  0
 18 44  1  0
 19 45  1  0
 19 46  1  0
 20 47  1  0
 21 48  1  0
 24 49  1  0
 24 50  1  0
 25 51  1  0
 25 52  1  0
 26 53  1  0
 26 54  1  0
 27 55  1  0
 27 56  1  0
M  CHG  2   3  -1  15   1
M  END
>  <UniqueID>  (50) 
50

>  <SMILES>  (50) 
O=C([N-]C1CCCC1)c1cc(S(=O)(=O)[NH+]2CCCC2)ccc1N1CCCC1

>  <Energy>  (50) 
66.31397738690958

>  <Genealogy>  (50) 
O=C([N-]C1CCCC1)c1cc(S(=O)(=O)[NH+]2CCCC2)ccc1N1CCCC1 (protonated)
O=C([N-]C1CCCC1)c1cc(S(=O)(=O)[NH+]2CCCC2)ccc1N1CCCC1 (3D coordinates assigned)
O=C([N-]C1CCCC1)c1cc(S(=O)(=O)[NH+]2CCCC2)ccc1N1CCCC1 (nonaromatic ring conformer: 66.31397738690958 kcal/mol)

>  <smiles>  (50) 
O=C(NC1CCCC1)c1cc(S(=O)(=O)N2CCCC2)ccc1N1CCCC1

>  <score_type>  (50) 
oracle

>  <origin>  (50) 
adgpu

>  <m_score__min__energy>  (50) 
-9.8599999999999994

>  <m_primary>  (50) 
energy

$$$$
