0:0
     RDKit          3D

 30 31  0  0  0  0  0  0  0  0999 V2000
   -4.5780   22.5590  -32.6630 C   0  0  0  0  0  0  0  0  0  0  0  0
   -4.7220   23.0790  -31.3050 N   0  0  0  0  0  0  0  0  0  0  0  0
   -6.0460   23.0730  -30.6830 C   0  0  0  0  0  0  0  0  0  0  0  0
   -3.5500   23.2700  -30.4960 C   0  0  0  0  0  0  0  0  0  0  0  0
   -2.8000   22.1540  -30.0760 C   0  0  0  0  0  0  0  0  0  0  0  0
   -3.2370   20.8390  -30.4560 N   0  0  0  0  0  0  0  0  0  0  0  0
   -2.8710   20.1190  -31.6390 C   0  0  0  0  0  0  0  0  0  0  0  0
   -3.5990   19.1860  -32.0730 O   0  0  0  0  0  0  0  0  0  0  0  0
   -1.6060   20.4280  -32.3260 C   0  0  0  0  0  0  0  0  0  0  0  0
   -1.4390   21.5450  -33.5790 S   0  0  0  0  0  0  0  0  0  0  0  0
    0.2120   21.3100  -33.7850 C   0  0  0  0  0  0  0  0  0  0  0  0
    0.9980   21.9710  -34.7180 O   0  0  0  0  0  0  0  0  0  0  0  0
    0.6690   20.3600  -32.8870 C   0  0  0  0  0  0  0  0  0  0  0  0
   -0.3540   19.8660  -32.0680 C   0  0  0  0  0  0  0  0  0  0  0  0
   -0.1260   18.9040  -31.0920 O   0  0  0  0  0  0  0  0  0  0  0  0
   -1.6710   22.3480  -29.2590 C   0  0  0  0  0  0  0  0  0  0  0  0
   -1.2730   23.6370  -28.9000 C   0  0  0  0  0  0  0  0  0  0  0  0
   -2.0030   24.7440  -29.3350 C   0  0  0  0  0  0  0  0  0  0  0  0
   -1.5990   26.0230  -28.9710 O   0  0  0  0  0  0  0  0  0  0  0  0
   -3.1440   24.5650  -30.1260 C   0  0  0  0  0  0  0  0  0  0  0  0
   -3.8780   25.6750  -30.5310 O   0  0  0  0  0  0  0  0  0  0  0  0
   -4.2846   21.4997  -32.6208 H   0  0  0  0  0  0  0  0  0  0  0  0
   -5.5360   22.6532  -33.1952 H   0  0  0  0  0  0  0  0  0  0  0  0
   -3.8049   23.1326  -33.1952 H   0  0  0  0  0  0  0  0  0  0  0  0
   -5.9369   23.0735  -29.5884 H   0  0  0  0  0  0  0  0  0  0  0  0
   -6.6024   23.9686  -30.9964 H   0  0  0  0  0  0  0  0  0  0  0  0
   -6.5943   22.1724  -30.9964 H   0  0  0  0  0  0  0  0  0  0  0  0
    1.7167   20.0308  -32.8241 H   0  0  0  0  0  0  0  0  0  0  0  0
   -1.0989   21.4793  -28.9012 H   0  0  0  0  0  0  0  0  0  0  0  0
   -0.3812   23.7806  -28.2723 H   0  0  0  0  0  0  0  0  0  0  0  0
  1  2  1  0
  2  3  1  0
  2  4  1  0
  4  5  2  0
  5  6  1  0
  6  7  1  0
  7  8  2  0
  7  9  1  0
  9 10  1  0
 10 11  1  0
 11 12  1  0
 11 13  2  0
 13 14  1  0
 14 15  1  0
  5 16  1  0
 16 17  2  0
 17 18  1  0
 18 19  1  0
 18 20  2  0
 20 21  1  0
 20  4  1  0
 14  9  2  0
  1 22  1  0
  1 23  1  0
  1 24  1  0
  3 25  1  0
  3 26  1  0
  3 27  1  0
 13 28  1  0
 16 29  1  0
 17 30  1  0
M  CHG  5   6  -1  12  -1  15  -1  19  -1  21  -1
M  END
>  <UniqueID>  (1) 
1

>  <SMILES>  (1) 
CN(C)c1c([N-]C(=O)c2sc([O-])cc2[O-])ccc([O-])c1[O-]

>  <Energy>  (1) 
66.21891980747603

>  <Genealogy>  (1) 
CN(C)c1c([N-]C(=O)c2sc([O-])cc2[O-])ccc([O-])c1[O-] (protonated)
CN(C)c1c([N-]C(=O)c2sc([O-])cc2[O-])ccc([O-])c1[O-] (3D coordinates assigned)
CN(C)c1c([N-]C(=O)c2sc([O-])cc2[O-])ccc([O-])c1[O-] (optimized conformer: 66.21891980747603 kcal/mol)

>  <smiles>  (1) 
CN(C)c1c(NC(=O)c2sc(O)cc2O)ccc(O)c1O

>  <score_type>  (1) 
oracle

>  <origin>  (1) 
adgpu

>  <m_score__min__energy>  (1) 
-11.99

>  <m_primary>  (1) 
energy

$$$$
1:0
     RDKit          3D

 41 43  0  0  0  0  0  0  0  0999 V2000
   -6.3220   25.0920  -29.7690 C   0  0  0  0  0  0  0  0  0  0  0  0
   -4.6390   24.5800  -30.0260 S   0  0  0  0  0  0  0  0  0  0  0  0
   -3.9500   24.4330  -28.6980 O   0  0  0  0  0  0  0  0  0  0  0  0
   -3.9140   25.6200  -30.8330 O   0  0  0  0  0  0  0  0  0  0  0  0
   -4.6200   23.0420  -30.8820 C   0  0  0  0  0  0  0  0  0  0  0  0
   -5.2360   22.9250  -32.1360 C   0  0  0  0  0  0  0  0  0  0  0  0
   -5.2080   21.7080  -32.8230 C   0  0  0  0  0  0  0  0  0  0  0  0
   -4.5520   20.5970  -32.2710 C   0  0  0  0  0  0  0  0  0  0  0  0
   -4.5320   19.3050  -32.9910 C   0  0  0  0  0  0  0  0  0  0  0  0
   -3.5220   18.9240  -33.6940 N   0  0  0  0  0  0  0  0  0  0  0  0
   -3.7970   17.6560  -34.3480 C   0  0  0  0  0  0  0  0  0  0  0  0
   -5.2260   17.3040  -33.9170 C   0  0  0  0  0  0  0  0  0  0  0  0
   -5.6290   18.3970  -33.0370 N   0  0  0  0  0  0  0  0  0  0  0  0
   -6.5710   18.1980  -31.9310 C   0  0  0  0  0  0  0  0  0  0  0  0
   -7.6420   19.2550  -31.9580 C   0  0  0  0  0  0  0  0  0  0  0  0
   -8.8140   19.0510  -32.7020 C   0  0  0  0  0  0  0  0  0  0  0  0
   -9.8260   20.0170  -32.7010 C   0  0  0  0  0  0  0  0  0  0  0  0
   -9.6760   21.1880  -31.9510 C   0  0  0  0  0  0  0  0  0  0  0  0
   -8.5160   21.3920  -31.1990 C   0  0  0  0  0  0  0  0  0  0  0  0
   -7.5020   20.4290  -31.1980 C   0  0  0  0  0  0  0  0  0  0  0  0
   -3.9420   20.7160  -31.0120 C   0  0  0  0  0  0  0  0  0  0  0  0
   -3.9710   21.9340  -30.3250 C   0  0  0  0  0  0  0  0  0  0  0  0
   -6.5257   25.1540  -28.6898 H   0  0  0  0  0  0  0  0  0  0  0  0
   -6.4794   26.0787  -30.2291 H   0  0  0  0  0  0  0  0  0  0  0  0
   -7.0022   24.3602  -30.2291 H   0  0  0  0  0  0  0  0  0  0  0  0
   -5.7431   23.7939  -32.5808 H   0  0  0  0  0  0  0  0  0  0  0  0
   -5.7028   21.6207  -33.8015 H   0  0  0  0  0  0  0  0  0  0  0  0
   -2.6350   19.4650  -33.8100 H   0  0  0  0  0  0  0  0  0  0  0  0
   -3.7353   17.7609  -35.4412 H   0  0  0  0  0  0  0  0  0  0  0  0
   -3.0723   16.8763  -34.0707 H   0  0  0  0  0  0  0  0  0  0  0  0
   -5.8911   17.2448  -34.7912 H   0  0  0  0  0  0  0  0  0  0  0  0
   -5.2802   16.3259  -33.4165 H   0  0  0  0  0  0  0  0  0  0  0  0
   -7.0377   17.2065  -32.0263 H   0  0  0  0  0  0  0  0  0  0  0  0
   -6.0240   18.2682  -30.9792 H   0  0  0  0  0  0  0  0  0  0  0  0
   -8.9375   18.1284  -33.2881 H   0  0  0  0  0  0  0  0  0  0  0  0
  -10.7405   19.8554  -33.2906 H   0  0  0  0  0  0  0  0  0  0  0  0
  -10.4710   21.9482  -31.9531 H   0  0  0  0  0  0  0  0  0  0  0  0
   -8.4003   22.3117  -30.6068 H   0  0  0  0  0  0  0  0  0  0  0  0
   -6.5925   20.5907  -30.6009 H   0  0  0  0  0  0  0  0  0  0  0  0
   -3.4386   19.8468  -30.5636 H   0  0  0  0  0  0  0  0  0  0  0  0
   -3.4821   22.0214  -29.3435 H   0  0  0  0  0  0  0  0  0  0  0  0
  1  2  1  0
  2  3  2  0
  2  4  2  0
  2  5  1  0
  5  6  2  0
  6  7  1  0
  7  8  2  0
  8  9  1  0
  9 10  2  0
 10 11  1  0
 11 12  1  0
 12 13  1  0
 13 14  1  0
 14 15  1  0
 15 16  2  0
 16 17  1  0
 17 18  2  0
 18 19  1  0
 19 20  2  0
  8 21  1  0
 21 22  2  0
 22  5  1  0
 13  9  1  0
 20 15  1  0
  1 23  1  0
  1 24  1  0
  1 25  1  0
  6 26  1  0
  7 27  1  0
 10 28  1  0
 11 29  1  0
 11 30  1  0
 12 31  1  0
 12 32  1  0
 14 33  1  0
 14 34  1  0
 16 35  1  0
 17 36  1  0
 18 37  1  0
 19 38  1  0
 20 39  1  0
 21 40  1  0
 22 41  1  0
M  CHG  1  10   1
M  END
>  <UniqueID>  (2) 
2

>  <SMILES>  (2) 
CS(=O)(=O)c1ccc(C2=[NH+]CCN2Cc2ccccc2)cc1

>  <Energy>  (2) 
53.685961221258914

>  <Genealogy>  (2) 
CS(=O)(=O)c1ccc(C2=[NH+]CCN2Cc2ccccc2)cc1 (protonated)
CS(=O)(=O)c1ccc(C2=[NH+]CCN2Cc2ccccc2)cc1 (3D coordinates assigned)
CS(=O)(=O)c1ccc(C2=[NH+]CCN2Cc2ccccc2)cc1 (nonaromatic ring conformer: 53.685961221258914 kcal/mol)

>  <smiles>  (2) 
CS(=O)(=O)c1ccc(C2=NCCN2Cc2ccccc2)cc1

>  <score_type>  (2) 
oracle

>  <origin>  (2) 
adgpu

>  <m_score__min__energy>  (2) 
-8.1600000000000001

>  <m_primary>  (2) 
energy

$$$$
2:0
     RDKit          3D

 52 55  0  0  0  0  0  0  0  0999 V2000
   -2.5100   18.9470  -27.0260 C   0  0  0  0  0  0  0  0  0  0  0  0
   -2.3600   20.3620  -27.4990 C   0  0  0  0  0  0  0  0  0  0  0  0
   -1.0960   20.8550  -27.8630 C   0  0  0  0  0  0  0  0  0  0  0  0
   -0.9430   22.1950  -28.2370 C   0  0  0  0  0  0  0  0  0  0  0  0
   -2.0530   23.0600  -28.2530 C   0  0  0  0  0  0  0  0  0  0  0  0
   -1.8430   24.7770  -28.6140 S   0  0  0  0  0  0  0  0  0  0  0  0
   -0.5330   25.0120  -29.3210 O   0  0  0  0  0  0  0  0  0  0  0  0
   -1.8510   25.5680  -27.3350 O   0  0  0  0  0  0  0  0  0  0  0  0
   -3.1700   25.2970  -29.6030 N   0  0  0  0  0  0  0  0  0  0  0  0
   -4.0110   24.3440  -30.2600 C   0  0  0  0  0  0  0  0  0  0  0  0
   -3.4490   23.2930  -31.0070 C   0  0  0  0  0  0  0  0  0  0  0  0
   -4.2690   22.3160  -31.5850 C   0  0  0  0  0  0  0  0  0  0  0  0
   -5.6700   22.4050  -31.4330 C   0  0  0  0  0  0  0  0  0  0  0  0
   -6.2280   23.4660  -30.6920 C   0  0  0  0  0  0  0  0  0  0  0  0
   -5.4040   24.4400  -30.1160 C   0  0  0  0  0  0  0  0  0  0  0  0
   -5.9600   25.4890  -29.3720 O   0  0  0  0  0  0  0  0  0  0  0  0
   -6.5630   21.3000  -31.9460 C   0  0  0  0  0  0  0  0  0  0  0  0
   -5.9300   20.5580  -33.0650 N   0  0  0  0  0  0  0  0  0  0  0  0
   -6.7810   19.4250  -33.4920 C   0  0  0  0  0  0  0  0  0  0  0  0
   -5.9920   18.1400  -33.4990 C   0  0  0  0  0  0  0  0  0  0  0  0
   -6.0430   17.2630  -32.4010 C   0  0  0  0  0  0  0  0  0  0  0  0
   -5.3290   16.0610  -32.4270 C   0  0  0  0  0  0  0  0  0  0  0  0
   -4.5600   15.7290  -33.5450 C   0  0  0  0  0  0  0  0  0  0  0  0
   -4.5050   16.5970  -34.6420 C   0  0  0  0  0  0  0  0  0  0  0  0
   -3.7360   16.2690  -35.7530 O   0  0  0  0  0  0  0  0  0  0  0  0
   -5.2210   17.7970  -34.6210 C   0  0  0  0  0  0  0  0  0  0  0  0
   -4.6010   20.0580  -32.6460 C   0  0  0  0  0  0  0  0  0  0  0  0
   -3.6470   21.2370  -32.4370 C   0  0  0  0  0  0  0  0  0  0  0  0
   -3.3180   22.5710  -27.8870 C   0  0  0  0  0  0  0  0  0  0  0  0
   -3.4710   21.2330  -27.5060 C   0  0  0  0  0  0  0  0  0  0  0  0
   -2.5122   18.9263  -25.9262 H   0  0  0  0  0  0  0  0  0  0  0  0
   -3.4571   18.5330  -27.4024 H   0  0  0  0  0  0  0  0  0  0  0  0
   -1.6708   18.3437  -27.4024 H   0  0  0  0  0  0  0  0  0  0  0  0
   -0.2233   20.1855  -27.8541 H   0  0  0  0  0  0  0  0  0  0  0  0
    0.0501   22.5741  -28.5199 H   0  0  0  0  0  0  0  0  0  0  0  0
   -2.3582   23.2382  -31.1380 H   0  0  0  0  0  0  0  0  0  0  0  0
   -7.3189   23.5292  -30.5654 H   0  0  0  0  0  0  0  0  0  0  0  0
   -5.3940   26.0730  -28.7610 H   0  0  0  0  0  0  0  0  0  0  0  0
   -6.7696   20.5982  -31.1245 H   0  0  0  0  0  0  0  0  0  0  0  0
   -7.4925   21.7552  -32.3185 H   0  0  0  0  0  0  0  0  0  0  0  0
   -7.6267   19.3259  -32.7956 H   0  0  0  0  0  0  0  0  0  0  0  0
   -7.1470   19.6213  -34.5106 H   0  0  0  0  0  0  0  0  0  0  0  0
   -6.6464   17.5233  -31.5189 H   0  0  0  0  0  0  0  0  0  0  0  0
   -5.3729   15.3767  -31.5669 H   0  0  0  0  0  0  0  0  0  0  0  0
   -3.9969   14.7842  -33.5634 H   0  0  0  0  0  0  0  0  0  0  0  0
   -5.1803   18.4749  -35.4863 H   0  0  0  0  0  0  0  0  0  0  0  0
   -4.7015   19.4979  -31.7046 H   0  0  0  0  0  0  0  0  0  0  0  0
   -4.1976   19.3979  -33.4280 H   0  0  0  0  0  0  0  0  0  0  0  0
   -2.7347   20.8735  -31.9415 H   0  0  0  0  0  0  0  0  0  0  0  0
   -3.4161   21.6692  -33.4219 H   0  0  0  0  0  0  0  0  0  0  0  0
   -4.1902   23.2411  -27.8999 H   0  0  0  0  0  0  0  0  0  0  0  0
   -4.4620   20.8581  -27.2105 H   0  0  0  0  0  0  0  0  0  0  0  0
  1  2  1  0
  2  3  2  0
  3  4  1  0
  4  5  2  0
  5  6  1  0
  6  7  2  0
  6  8  2  0
  6  9  1  0
  9 10  1  0
 10 11  2  0
 11 12  1  0
 12 13  2  0
 13 14  1  0
 14 15  2  0
 15 16  1  0
 13 17  1  0
 17 18  1  0
 18 19  1  0
 19 20  1  0
 20 21  2  0
 21 22  1  0
 22 23  2  0
 23 24  1  0
 24 25  1  0
 24 26  2  0
 18 27  1  0
 27 28  1  0
  5 29  1  0
 29 30  2  0
 30  2  1  0
 15 10  1  0
 26 20  1  0
 28 12  1  0
  1 31  1  0
  1 32  1  0
  1 33  1  0
  3 34  1  0
  4 35  1  0
 11 36  1  0
 14 37  1  0
 16 38  1  0
 17 39  1  0
 17 40  1  0
 19 41  1  0
 19 42  1  0
 21 43  1  0
 22 44  1  0
 23 45  1  0
 26 46  1  0
 27 47  1  0
 27 48  1  0
 28 49  1  0
 28 50  1  0
 29 51  1  0
 30 52  1  0
M  CHG  2   9  -1  25  -1
M  END
>  <UniqueID>  (3) 
3

>  <SMILES>  (3) 
Cc1ccc(S(=O)(=O)[N-]c2cc3c(cc2O)CN(Cc2cccc([O-])c2)CC3)cc1

>  <Energy>  (3) 
65.5918111429299

>  <Genealogy>  (3) 
Cc1ccc(S(=O)(=O)[N-]c2cc3c(cc2O)CN(Cc2cccc([O-])c2)CC3)cc1 (protonated)
Cc1ccc(S(=O)(=O)[N-]c2cc3c(cc2O)CN(Cc2cccc([O-])c2)CC3)cc1 (3D coordinates assigned)
Cc1ccc(S(=O)(=O)[N-]c2cc3c(cc2O)CN(Cc2cccc([O-])c2)CC3)cc1 (nonaromatic ring conformer: 65.5918111429299 kcal/mol)

>  <smiles>  (3) 
Cc1ccc(S(=O)(=O)Nc2cc3c(cc2O)CN(Cc2cccc(O)c2)CC3)cc1

>  <score_type>  (3) 
oracle

>  <origin>  (3) 
adgpu

>  <m_score__min__energy>  (3) 
-11.710000000000001

>  <m_primary>  (3) 
energy

$$$$
3:0
     RDKit          3D

 47 49  0  0  0  0  0  0  0  0999 V2000
   -0.5300   20.5640  -26.9520 O   0  0  0  0  0  0  0  0  0  0  0  0
   -1.5290   20.2470  -28.0290 S   0  0  0  0  0  0  0  0  0  0  0  0
   -2.6980   19.5440  -27.4010 O   0  0  0  0  0  0  0  0  0  0  0  0
   -0.8020   19.1890  -29.2070 N   0  0  0  0  0  0  0  0  0  0  0  0
    0.0230   19.9320  -30.1660 C   0  0  0  0  0  0  0  0  0  0  0  0
   -0.7030   20.1190  -31.4720 C   0  0  0  0  0  0  0  0  0  0  0  0
   -0.4990   21.2810  -32.2350 C   0  0  0  0  0  0  0  0  0  0  0  0
   -1.1930   21.4640  -33.4360 C   0  0  0  0  0  0  0  0  0  0  0  0
   -2.0970   20.4940  -33.8790 C   0  0  0  0  0  0  0  0  0  0  0  0
   -2.3010   19.3340  -33.1240 C   0  0  0  0  0  0  0  0  0  0  0  0
   -1.6080   19.1470  -31.9270 C   0  0  0  0  0  0  0  0  0  0  0  0
   -2.1110   21.7300  -28.7860 C   0  0  0  0  0  0  0  0  0  0  0  0
   -1.5990   22.9610  -28.3630 C   0  0  0  0  0  0  0  0  0  0  0  0
   -2.0630   24.1480  -28.9330 C   0  0  0  0  0  0  0  0  0  0  0  0
   -3.0480   24.1150  -29.9250 C   0  0  0  0  0  0  0  0  0  0  0  0
   -3.4880   25.3170  -30.4720 O   0  0  0  0  0  0  0  0  0  0  0  0
   -3.5770   22.8810  -30.3570 C   0  0  0  0  0  0  0  0  0  0  0  0
   -4.8440   22.7970  -31.5950 S   0  0  0  0  0  0  0  0  0  0  0  0
   -4.2140   22.4230  -32.9080 O   0  0  0  0  0  0  0  0  0  0  0  0
   -5.4830   24.1480  -31.7650 O   0  0  0  0  0  0  0  0  0  0  0  0
   -6.0890   21.6350  -31.1840 N   0  0  0  0  0  0  0  0  0  0  0  0
   -5.8530   20.3230  -31.8350 C   0  0  0  0  0  0  0  0  0  0  0  0
   -6.7390   20.1070  -33.0680 C   0  0  0  0  0  0  0  0  0  0  0  0
   -8.2290   20.1600  -32.6900 C   0  0  0  0  0  0  0  0  0  0  0  0
   -8.5090   21.1210  -31.5200 C   0  0  0  0  0  0  0  0  0  0  0  0
   -7.4340   22.2100  -31.4160 C   0  0  0  0  0  0  0  0  0  0  0  0
   -3.0940   21.6930  -29.7860 C   0  0  0  0  0  0  0  0  0  0  0  0
    0.2642   20.9188  -29.7441 H   0  0  0  0  0  0  0  0  0  0  0  0
    0.9423   19.3584  -30.3553 H   0  0  0  0  0  0  0  0  0  0  0  0
    0.2080   22.0487  -31.8873 H   0  0  0  0  0  0  0  0  0  0  0  0
   -1.0270   22.3729  -34.0329 H   0  0  0  0  0  0  0  0  0  0  0  0
   -2.6471   20.6426  -34.8199 H   0  0  0  0  0  0  0  0  0  0  0  0
   -3.0086   18.5681  -33.4743 H   0  0  0  0  0  0  0  0  0  0  0  0
   -1.7718   18.2332  -31.3370 H   0  0  0  0  0  0  0  0  0  0  0  0
   -0.8283   22.9940  -27.5788 H   0  0  0  0  0  0  0  0  0  0  0  0
   -1.6522   25.1127  -28.6005 H   0  0  0  0  0  0  0  0  0  0  0  0
   -4.7990   20.2683  -32.1449 H   0  0  0  0  0  0  0  0  0  0  0  0
   -6.1030   19.5395  -31.1045 H   0  0  0  0  0  0  0  0  0  0  0  0
   -6.5266   20.8943  -33.8063 H   0  0  0  0  0  0  0  0  0  0  0  0
   -6.5186   19.1151  -33.4894 H   0  0  0  0  0  0  0  0  0  0  0  0
   -8.8031   20.4952  -33.5664 H   0  0  0  0  0  0  0  0  0  0  0  0
   -8.5280   19.1506  -32.3711 H   0  0  0  0  0  0  0  0  0  0  0  0
   -9.4874   21.5987  -31.6764 H   0  0  0  0  0  0  0  0  0  0  0  0
   -8.5014   20.5390  -30.5866 H   0  0  0  0  0  0  0  0  0  0  0  0
   -7.4183   22.7855  -32.3533 H   0  0  0  0  0  0  0  0  0  0  0  0
   -7.6824   22.8549  -30.5602 H   0  0  0  0  0  0  0  0  0  0  0  0
   -3.4899   20.7246  -30.1257 H   0  0  0  0  0  0  0  0  0  0  0  0
  1  2  2  0
  2  3  2  0
  2  4  1  0
  4  5  1  0
  5  6  1  0
  6  7  2  0
  7  8  1  0
  8  9  2  0
  9 10  1  0
 10 11  2  0
  2 12  1  0
 12 13  2  0
 13 14  1  0
 14 15  2  0
 15 16  1  0
 15 17  1  0
 17 18  1  0
 18 19  2  0
 18 20  2  0
 18 21  1  0
 21 22  1  0
 22 23  1  0
 23 24  1  0
 24 25  1  0
 25 26  1  0
 17 27  2  0
 11  6  1  0
 27 12  1  0
 26 21  1  0
  5 28  1  0
  5 29  1  0
  7 30  1  0
  8 31  1  0
  9 32  1  0
 10 33  1  0
 11 34  1  0
 13 35  1  0
 14 36  1  0
 22 37  1  0
 22 38  1  0
 23 39  1  0
 23 40  1  0
 24 41  1  0
 24 42  1  0
 25 43  1  0
 25 44  1  0
 26 45  1  0
 26 46  1  0
 27 47  1  0
M  CHG  2   4  -1  16  -1
M  END
>  <UniqueID>  (4) 
4

>  <SMILES>  (4) 
O=S(=O)([N-]Cc1ccccc1)c1ccc([O-])c(S(=O)(=O)N2CCCCC2)c1

>  <Energy>  (4) 
50.15746624420072

>  <Genealogy>  (4) 
O=S(=O)([N-]Cc1ccccc1)c1ccc([O-])c(S(=O)(=O)N2CCCCC2)c1 (protonated)
O=S(=O)([N-]Cc1ccccc1)c1ccc([O-])c(S(=O)(=O)N2CCCCC2)c1 (3D coordinates assigned)
O=S(=O)([N-]Cc1ccccc1)c1ccc([O-])c(S(=O)(=O)N2CCCCC2)c1 (nonaromatic ring conformer: 50.15746624420072 kcal/mol)

>  <smiles>  (4) 
O=S(=O)(NCc1ccccc1)c1ccc(O)c(S(=O)(=O)N2CCCCC2)c1

>  <score_type>  (4) 
oracle

>  <origin>  (4) 
adgpu

>  <m_score__min__energy>  (4) 
-12.529999999999999

>  <m_primary>  (4) 
energy

$$$$
4:0
     RDKit          3D

 45 47  0  0  0  0  0  0  0  0999 V2000
   -0.9660   20.6640  -34.3740 C   0  0  0  0  0  0  0  0  0  0  0  0
   -1.2100   20.9800  -32.9210 C   0  0  0  0  0  0  0  0  0  0  0  0
   -0.1630   20.7900  -32.0060 C   0  0  0  0  0  0  0  0  0  0  0  0
   -0.3420   21.0800  -30.6540 C   0  0  0  0  0  0  0  0  0  0  0  0
   -1.5700   21.5470  -30.1950 C   0  0  0  0  0  0  0  0  0  0  0  0
   -2.6350   21.7360  -31.0820 C   0  0  0  0  0  0  0  0  0  0  0  0
   -3.8930   22.1810  -30.5530 N   0  0  0  0  0  0  0  0  0  0  0  0
   -4.1670   23.5630  -30.2870 C   0  0  0  0  0  0  0  0  0  0  0  0
   -3.2710   24.4360  -30.4480 O   0  0  0  0  0  0  0  0  0  0  0  0
   -5.5250   23.9820  -29.8160 C   0  0  0  0  0  0  0  0  0  0  0  0
   -6.5500   24.5590  -31.2130 S   0  0  0  0  0  0  0  0  0  0  0  0
   -7.1840   22.9330  -31.6250 C   0  0  0  0  0  0  0  0  0  0  0  0
   -8.5550   22.6900  -31.6340 C   0  0  0  0  0  0  0  0  0  0  0  0
   -9.0090   21.4080  -31.9510 C   0  0  0  0  0  0  0  0  0  0  0  0
  -10.2500   21.1840  -31.9660 O   0  0  0  0  0  0  0  0  0  0  0  0
   -8.1100   20.4140  -32.2400 N   0  0  0  0  0  0  0  0  0  0  0  0
   -6.7700   20.6920  -32.2580 C   0  0  0  0  0  0  0  0  0  0  0  0
   -6.3220   21.9380  -31.9520 N   0  0  0  0  0  0  0  0  0  0  0  0
   -5.7980   19.6200  -32.6480 C   0  0  0  0  0  0  0  0  0  0  0  0
   -6.1550   18.3100  -31.9340 C   0  0  0  0  0  0  0  0  0  0  0  0
   -7.6720   17.9920  -31.9200 C   0  0  0  0  0  0  0  0  0  0  0  0
   -8.5430   19.0550  -32.6120 C   0  0  0  0  0  0  0  0  0  0  0  0
   -2.4480   21.5060  -32.4690 C   0  0  0  0  0  0  0  0  0  0  0  0
   -3.5630   21.7930  -33.4480 C   0  0  0  0  0  0  0  0  0  0  0  0
   -0.2954   19.7956  -34.4528 H   0  0  0  0  0  0  0  0  0  0  0  0
   -1.9231   20.4340  -34.8650 H   0  0  0  0  0  0  0  0  0  0  0  0
   -0.5013   21.5318  -34.8650 H   0  0  0  0  0  0  0  0  0  0  0  0
    0.8069   20.4091  -32.3584 H   0  0  0  0  0  0  0  0  0  0  0  0
    0.4898   20.9393  -29.9481 H   0  0  0  0  0  0  0  0  0  0  0  0
   -1.7042   21.7693  -29.1261 H   0  0  0  0  0  0  0  0  0  0  0  0
   -4.6960   21.5110  -30.5680 H   0  0  0  0  0  0  0  0  0  0  0  0
   -6.0200   23.1249  -29.3360 H   0  0  0  0  0  0  0  0  0  0  0  0
   -5.4090   24.8091  -29.1001 H   0  0  0  0  0  0  0  0  0  0  0  0
   -9.2676   23.4934  -31.3957 H   0  0  0  0  0  0  0  0  0  0  0  0
   -5.8412   19.4662  -33.7363 H   0  0  0  0  0  0  0  0  0  0  0  0
   -4.7826   19.9271  -32.3571 H   0  0  0  0  0  0  0  0  0  0  0  0
   -5.6336   17.4857  -32.4427 H   0  0  0  0  0  0  0  0  0  0  0  0
   -5.8445   18.4248  -30.8850 H   0  0  0  0  0  0  0  0  0  0  0  0
   -7.8282   17.0309  -32.4317 H   0  0  0  0  0  0  0  0  0  0  0  0
   -7.9811   17.9666  -30.8646 H   0  0  0  0  0  0  0  0  0  0  0  0
   -8.4582   18.9359  -33.7022 H   0  0  0  0  0  0  0  0  0  0  0  0
   -9.5860   18.9183  -32.2903 H   0  0  0  0  0  0  0  0  0  0  0  0
   -4.4841   22.0301  -32.8954 H   0  0  0  0  0  0  0  0  0  0  0  0
   -3.2843   22.6487  -34.0806 H   0  0  0  0  0  0  0  0  0  0  0  0
   -3.7321   20.9091  -34.0806 H   0  0  0  0  0  0  0  0  0  0  0  0
  1  2  1  0
  2  3  2  0
  3  4  1  0
  4  5  2  0
  5  6  1  0
  6  7  1  0
  7  8  1  0
  8  9  2  0
  8 10  1  0
 10 11  1  0
 11 12  1  0
 12 13  2  0
 13 14  1  0
 14 15  2  0
 14 16  1  0
 16 17  1  0
 17 18  2  0
 17 19  1  0
 19 20  1  0
 20 21  1  0
 21 22  1  0
  6 23  2  0
 23 24  1  0
 23  2  1  0
 18 12  1  0
 22 16  1  0
  1 25  1  0
  1 26  1  0
  1 27  1  0
  3 28  1  0
  4 29  1  0
  5 30  1  0
  7 31  1  0
 10 32  1  0
 10 33  1  0
 13 34  1  0
 19 35  1  0
 19 36  1  0
 20 37  1  0
 20 38  1  0
 21 39  1  0
 21 40  1  0
 22 41  1  0
 22 42  1  0
 24 43  1  0
 24 44  1  0
 24 45  1  0
M  END
>  <UniqueID>  (5) 
5

>  <SMILES>  (5) 
Cc1cccc(NC(=O)CSc2cc(=O)n3c(n2)CCCC3)c1C

>  <Energy>  (5) 
52.59423318686195

>  <Genealogy>  (5) 
Cc1cccc(NC(=O)CSc2cc(=O)n3c(n2)CCCC3)c1C (3D coordinates assigned)
Cc1cccc(NC(=O)CSc2cc(=O)n3c(n2)CCCC3)c1C (nonaromatic ring conformer: 52.59423318686195 kcal/mol)

>  <smiles>  (5) 
Cc1cccc(NC(=O)CSc2cc(=O)n3c(n2)CCCC3)c1C

>  <score_type>  (5) 
oracle

>  <origin>  (5) 
adgpu

>  <m_score__min__energy>  (5) 
-9

>  <m_primary>  (5) 
energy

$$$$
5:0
     RDKit          3D

 46 48  0  0  0  0  0  0  0  0999 V2000
   -0.1852   25.7547  -28.1683 H   0  0  0  0  0  0  0  0  0  0  0  0
   -1.1080   25.1580  -28.2170 C   0  0  0  0  0  0  0  0  0  0  0  0
   -1.9390   25.2850  -29.2850 N   0  0  0  0  0  0  0  0  0  0  0  0
   -3.0930   24.5750  -29.4010 C   0  0  0  0  0  0  0  0  0  0  0  0
   -3.8260   24.7550  -30.4630 N   0  0  0  0  0  0  0  0  0  0  0  0
   -5.3220   23.9540  -30.8350 S   0  0  0  0  0  0  0  0  0  0  0  0
   -6.0060   23.5650  -29.5530 O   0  0  0  0  0  0  0  0  0  0  0  0
   -6.2100   24.9000  -31.5920 O   0  0  0  0  0  0  0  0  0  0  0  0
   -5.0150   22.5380  -31.8360 C   0  0  0  0  0  0  0  0  0  0  0  0
   -3.7400   22.3310  -32.3770 C   0  0  0  0  0  0  0  0  0  0  0  0
   -2.9391   23.0611  -32.1885 H   0  0  0  0  0  0  0  0  0  0  0  0
   -3.4820   21.1990  -33.1560 C   0  0  0  0  0  0  0  0  0  0  0  0
   -2.4806   21.0470  -33.5850 H   0  0  0  0  0  0  0  0  0  0  0  0
   -4.4910   20.2580  -33.3930 C   0  0  0  0  0  0  0  0  0  0  0  0
   -4.1950   19.1380  -34.1830 O   0  0  0  0  0  0  0  0  0  0  0  0
   -4.7710   17.8640  -34.0360 C   0  0  0  0  0  0  0  0  0  0  0  0
   -6.1140   17.6270  -34.3800 C   0  0  0  0  0  0  0  0  0  0  0  0
   -6.7272   18.4453  -34.7854 H   0  0  0  0  0  0  0  0  0  0  0  0
   -6.6730   16.3600  -34.2100 C   0  0  0  0  0  0  0  0  0  0  0  0
   -7.7214   16.1803  -34.4901 H   0  0  0  0  0  0  0  0  0  0  0  0
   -5.9040   15.3200  -33.6850 C   0  0  0  0  0  0  0  0  0  0  0  0
   -6.3469   14.3211  -33.5585 H   0  0  0  0  0  0  0  0  0  0  0  0
   -4.5720   15.5430  -33.3190 C   0  0  0  0  0  0  0  0  0  0  0  0
   -3.6440   14.2030  -32.6510 Cl  0  0  0  0  0  0  0  0  0  0  0  0
   -4.0030   16.8200  -33.4870 C   0  0  0  0  0  0  0  0  0  0  0  0
   -2.6300   17.0630  -33.1140 C   0  0  0  0  0  0  0  0  0  0  0  0
   -1.5290   17.2570  -32.8160 N   0  0  0  0  0  0  0  0  0  0  0  0
   -5.7770   20.4810  -32.8720 C   0  0  0  0  0  0  0  0  0  0  0  0
   -6.5835   19.7614  -33.0764 H   0  0  0  0  0  0  0  0  0  0  0  0
   -6.0350   21.6140  -32.0950 C   0  0  0  0  0  0  0  0  0  0  0  0
   -7.0424   21.7803  -31.6857 H   0  0  0  0  0  0  0  0  0  0  0  0
   -3.4480   23.6770  -28.3770 C   0  0  0  0  0  0  0  0  0  0  0  0
   -4.3790   23.0954  -28.4480 H   0  0  0  0  0  0  0  0  0  0  0  0
   -2.6090   23.5300  -27.2700 C   0  0  0  0  0  0  0  0  0  0  0  0
   -2.8813   22.8298  -26.4665 H   0  0  0  0  0  0  0  0  0  0  0  0
   -1.4200   24.2710  -27.1770 C   0  0  0  0  0  0  0  0  0  0  0  0
   -0.4940   24.1310  -25.9850 C   0  0  0  0  0  0  0  0  0  0  0  0
    0.5227   24.3845  -26.3198 H   0  0  0  0  0  0  0  0  0  0  0  0
   -0.4700   22.6870  -25.4680 C   0  0  0  0  0  0  0  0  0  0  0  0
   -0.4701   22.6913  -24.3680 H   0  0  0  0  0  0  0  0  0  0  0  0
   -1.3594   22.1522  -25.8326 H   0  0  0  0  0  0  0  0  0  0  0  0
    0.4367   22.1820  -25.8326 H   0  0  0  0  0  0  0  0  0  0  0  0
   -0.8790   25.1090  -24.8690 C   0  0  0  0  0  0  0  0  0  0  0  0
   -0.6945   24.6404  -23.8910 H   0  0  0  0  0  0  0  0  0  0  0  0
   -0.2736   26.0232  -24.9576 H   0  0  0  0  0  0  0  0  0  0  0  0
   -1.9451   25.3652  -24.9576 H   0  0  0  0  0  0  0  0  0  0  0  0
  1  2  1  0
  2  3  1  0
  3  4  1  0
  4  5  2  0
  5  6  1  0
  6  7  2  0
  6  8  2  0
  6  9  1  0
  9 10  2  0
 10 11  1  0
 10 12  1  0
 12 13  1  0
 12 14  2  0
 14 15  1  0
 15 16  1  0
 16 17  2  0
 17 18  1  0
 17 19  1  0
 19 20  1  0
 19 21  2  0
 21 22  1  0
 21 23  1  0
 23 24  1  0
 23 25  2  0
 25 26  1  0
 26 27  3  0
 14 28  1  0
 28 29  1  0
 28 30  2  0
 30 31  1  0
  4 32  1  0
 32 33  1  0
 32 34  2  0
 34 35  1  0
 34 36  1  0
 36 37  1  0
 37 38  1  0
 37 39  1  0
 39 40  1  0
 39 41  1  0
 39 42  1  0
 37 43  1  0
 43 44  1  0
 43 45  1  0
 43 46  1  0
 36  2  2  0
 30  9  1  0
 25 16  1  0
M  CHG  1   3  -1
M  END
>  <UniqueID>  (6) 
6

>  <SMILES>  (6) 
CC(C)c1cc/c(=N\S(=O)(=O)c2ccc(Oc3cccc(Cl)c3C#N)cc2)[n-]c1

>  <Energy>  (6) 
57.945363917131395

>  <Genealogy>  (6) 
CC(C)c1ccc(=NS(=O)(=O)c2ccc(Oc3cccc(Cl)c3C#N)cc2)[n-]c1 (protonated)
CC(C)c1cc/c(=N\S(=O)(=O)c2ccc(Oc3cccc(Cl)c3C#N)cc2)[n-]c1 (cis-trans isomerization)
CC(C)c1cc/c(=N\S(=O)(=O)c2ccc(Oc3cccc(Cl)c3C#N)cc2)[n-]c1 (3D coordinates assigned)
CC(C)c1cc/c(=N\S(=O)(=O)c2ccc(Oc3cccc(Cl)c3C#N)cc2)[n-]c1 (optimized conformer: 57.945363917131395 kcal/mol)

>  <smiles>  (6) 
CC(C)c1ccc(=NS(=O)(=O)c2ccc(Oc3cccc(Cl)c3C#N)cc2)[nH]c1

>  <score_type>  (6) 
oracle

>  <origin>  (6) 
adgpu

>  <m_score__min__energy>  (6) 
-10.98

>  <m_primary>  (6) 
energy

$$$$
6:0
     RDKit          3D

 50 52  0  0  0  0  0  0  0  0999 V2000
   -0.3100   20.1440  -27.5530 O   0  0  0  0  0  0  0  0  0  0  0  0
   -1.1040   20.0500  -28.5260 C   0  0  0  0  0  0  0  0  0  0  0  0
   -0.5560   19.6910  -29.8800 C   0  0  0  0  0  0  0  0  0  0  0  0
   -0.7780   20.7490  -30.8120 O   0  0  0  0  0  0  0  0  0  0  0  0
   -1.8740   20.8360  -31.6880 C   0  0  0  0  0  0  0  0  0  0  0  0
   -3.0780   21.4710  -31.3240 C   0  0  0  0  0  0  0  0  0  0  0  0
   -4.1590   21.5120  -32.2140 C   0  0  0  0  0  0  0  0  0  0  0  0
   -5.6680   22.2900  -31.7290 S   0  0  0  0  0  0  0  0  0  0  0  0
   -5.7730   23.6340  -32.3930 O   0  0  0  0  0  0  0  0  0  0  0  0
   -5.6520   22.5050  -30.2420 O   0  0  0  0  0  0  0  0  0  0  0  0
   -7.0560   21.3220  -32.1610 N   0  0  0  0  0  0  0  0  0  0  0  0
   -8.2430   21.7550  -31.4050 C   0  0  0  0  0  0  0  0  0  0  0  0
   -9.5090   21.0790  -31.9660 C   0  0  0  0  0  0  0  0  0  0  0  0
   -9.1980   19.7590  -32.6910 C   0  0  0  0  0  0  0  0  0  0  0  0
   -8.0420   19.0160  -32.0130 C   0  0  0  0  0  0  0  0  0  0  0  0
   -6.7720   19.8910  -31.9250 C   0  0  0  0  0  0  0  0  0  0  0  0
   -4.0350   20.9250  -33.4800 C   0  0  0  0  0  0  0  0  0  0  0  0
   -2.8400   20.3060  -33.8530 C   0  0  0  0  0  0  0  0  0  0  0  0
   -1.7630   20.2610  -32.9610 C   0  0  0  0  0  0  0  0  0  0  0  0
   -0.5810   19.6370  -33.3440 O   0  0  0  0  0  0  0  0  0  0  0  0
   -2.5060   20.2400  -28.2900 N   0  0  0  0  0  0  0  0  0  0  0  0
   -3.1100   21.3340  -27.5340 C   0  0  0  0  0  0  0  0  0  0  0  0
   -2.6090   22.6700  -28.0200 C   0  0  0  0  0  0  0  0  0  0  0  0
   -1.4650   23.2490  -27.4480 C   0  0  0  0  0  0  0  0  0  0  0  0
   -1.0090   24.4950  -27.8910 C   0  0  0  0  0  0  0  0  0  0  0  0
   -1.6960   25.1750  -28.9000 C   0  0  0  0  0  0  0  0  0  0  0  0
   -1.2360   26.4120  -29.3370 O   0  0  0  0  0  0  0  0  0  0  0  0
   -2.8450   24.6110  -29.4660 C   0  0  0  0  0  0  0  0  0  0  0  0
   -3.5340   25.2850  -30.4680 O   0  0  0  0  0  0  0  0  0  0  0  0
   -3.3040   23.3660  -29.0230 C   0  0  0  0  0  0  0  0  0  0  0  0
    0.5250   19.5063  -29.7944 H   0  0  0  0  0  0  0  0  0  0  0  0
   -1.0705   18.7884  -30.2412 H   0  0  0  0  0  0  0  0  0  0  0  0
   -3.1699   21.9385  -30.3325 H   0  0  0  0  0  0  0  0  0  0  0  0
   -8.1213   21.4772  -30.3477 H   0  0  0  0  0  0  0  0  0  0  0  0
   -8.3484   22.8460  -31.4977 H   0  0  0  0  0  0  0  0  0  0  0  0
  -10.1966   20.8707  -31.1330 H   0  0  0  0  0  0  0  0  0  0  0  0
   -9.9585   21.7655  -32.6986 H   0  0  0  0  0  0  0  0  0  0  0  0
  -10.0937   19.1207  -32.6751 H   0  0  0  0  0  0  0  0  0  0  0  0
   -8.9057   19.9895  -33.7261 H   0  0  0  0  0  0  0  0  0  0  0  0
   -8.3494   18.7310  -30.9960 H   0  0  0  0  0  0  0  0  0  0  0  0
   -7.8047   18.1280  -32.6172 H   0  0  0  0  0  0  0  0  0  0  0  0
   -6.3343   19.7785  -30.9221 H   0  0  0  0  0  0  0  0  0  0  0  0
   -6.0773   19.5534  -32.7083 H   0  0  0  0  0  0  0  0  0  0  0  0
   -4.8813   20.9517  -34.1822 H   0  0  0  0  0  0  0  0  0  0  0  0
   -2.7452   19.8526  -34.8507 H   0  0  0  0  0  0  0  0  0  0  0  0
   -4.2026   21.2942  -27.6550 H   0  0  0  0  0  0  0  0  0  0  0  0
   -2.8343   21.2213  -26.4751 H   0  0  0  0  0  0  0  0  0  0  0  0
   -0.9251   22.7207  -26.6483 H   0  0  0  0  0  0  0  0  0  0  0  0
   -0.1079   24.9404  -27.4442 H   0  0  0  0  0  0  0  0  0  0  0  0
   -4.2134   22.9300  -29.4621 H   0  0  0  0  0  0  0  0  0  0  0  0
  1  2  2  0
  2  3  1  0
  3  4  1  0
  4  5  1  0
  5  6  2  0
  6  7  1  0
  7  8  1  0
  8  9  2  0
  8 10  2  0
  8 11  1  0
 11 12  1  0
 12 13  1  0
 13 14  1  0
 14 15  1  0
 15 16  1  0
  7 17  2  0
 17 18  1  0
 18 19  2  0
 19 20  1  0
  2 21  1  0
 21 22  1  0
 22 23  1  0
 23 24  2  0
 24 25  1  0
 25 26  2  0
 26 27  1  0
 26 28  1  0
 28 29  1  0
 28 30  2  0
 19  5  1  0
 30 23  1  0
 16 11  1  0
  3 31  1  0
  3 32  1  0
  6 33  1  0
 12 34  1  0
 12 35  1  0
 13 36  1  0
 13 37  1  0
 14 38  1  0
 14 39  1  0
 15 40  1  0
 15 41  1  0
 16 42  1  0
 16 43  1  0
 17 44  1  0
 18 45  1  0
 22 46  1  0
 22 47  1  0
 24 48  1  0
 25 49  1  0
 30 50  1  0
M  CHG  4  20  -1  21  -1  27  -1  29  -1
M  END
>  <UniqueID>  (7) 
7

>  <SMILES>  (7) 
O=C(COc1cc(S(=O)(=O)N2CCCCC2)ccc1[O-])[N-]Cc1ccc([O-])c([O-])c1

>  <Energy>  (7) 
50.884031877623

>  <Genealogy>  (7) 
O=C(COc1cc(S(=O)(=O)N2CCCCC2)ccc1[O-])[N-]Cc1ccc([O-])c([O-])c1 (protonated)
O=C(COc1cc(S(=O)(=O)N2CCCCC2)ccc1[O-])[N-]Cc1ccc([O-])c([O-])c1 (3D coordinates assigned)
O=C(COc1cc(S(=O)(=O)N2CCCCC2)ccc1[O-])[N-]Cc1ccc([O-])c([O-])c1 (nonaromatic ring conformer: 50.884031877623 kcal/mol)

>  <smiles>  (7) 
O=C(COc1cc(S(=O)(=O)N2CCCCC2)ccc1O)NCc1ccc(O)c(O)c1

>  <score_type>  (7) 
oracle

>  <origin>  (7) 
adgpu

>  <m_score__min__energy>  (7) 
-14.99

>  <m_primary>  (7) 
energy

$$$$
7:0
     RDKit          3D

 54 56  0  0  0  0  0  0  0  0999 V2000
   -9.3790   23.7710  -32.3820 O   0  0  0  0  0  0  0  0  0  0  0  0
   -8.7980   22.7300  -31.9760 C   0  0  0  0  0  0  0  0  0  0  0  0
   -9.4910   21.4560  -31.7040 C   0  0  0  0  0  0  0  0  0  0  0  0
   -8.3480   20.5110  -31.2990 C   0  0  0  0  0  0  0  0  0  0  0  0
   -7.0690   21.3640  -31.1790 C   0  0  0  0  0  0  0  0  0  0  0  0
   -7.4120   22.6720  -31.7030 N   0  0  0  0  0  0  0  0  0  0  0  0
   -6.4870   23.8010  -31.7820 C   0  0  0  0  0  0  0  0  0  0  0  0
   -6.1430   24.3030  -30.3770 C   0  0  0  0  0  0  0  0  0  0  0  0
   -5.3740   25.6280  -30.4390 C   0  0  0  0  0  0  0  0  0  0  0  0
   -3.9680   25.4170  -30.7930 N   0  0  0  0  0  0  0  0  0  0  0  0
   -3.0940   24.5480  -29.5620 S   0  0  0  0  0  0  0  0  0  0  0  0
   -1.8210   25.2870  -29.2590 O   0  0  0  0  0  0  0  0  0  0  0  0
   -3.9170   24.5030  -28.3040 O   0  0  0  0  0  0  0  0  0  0  0  0
   -2.6810   22.9090  -30.0670 C   0  0  0  0  0  0  0  0  0  0  0  0
   -1.7610   22.1460  -29.3340 C   0  0  0  0  0  0  0  0  0  0  0  0
   -1.4580   20.8410  -29.7330 C   0  0  0  0  0  0  0  0  0  0  0  0
   -2.0650   20.2950  -30.8670 C   0  0  0  0  0  0  0  0  0  0  0  0
   -2.9830   21.0510  -31.6090 C   0  0  0  0  0  0  0  0  0  0  0  0
   -3.7280   20.3750  -33.0590 S   0  0  0  0  0  0  0  0  0  0  0  0
   -4.9230   21.2060  -33.4360 O   0  0  0  0  0  0  0  0  0  0  0  0
   -2.7440   20.4320  -34.1950 O   0  0  0  0  0  0  0  0  0  0  0  0
   -4.2270   18.7170  -32.8080 N   0  0  0  0  0  0  0  0  0  0  0  0
   -4.1800   17.9680  -34.0840 C   0  0  0  0  0  0  0  0  0  0  0  0
   -4.9900   16.6710  -34.0010 C   0  0  0  0  0  0  0  0  0  0  0  0
   -6.4780   16.9620  -33.7370 C   0  0  0  0  0  0  0  0  0  0  0  0
   -6.7030   18.3030  -33.0150 C   0  0  0  0  0  0  0  0  0  0  0  0
   -5.5250   18.6390  -32.0900 C   0  0  0  0  0  0  0  0  0  0  0  0
   -3.2960   22.3550  -31.1970 C   0  0  0  0  0  0  0  0  0  0  0  0
  -10.2172   21.5694  -30.8856 H   0  0  0  0  0  0  0  0  0  0  0  0
  -10.0691   21.0882  -32.5645 H   0  0  0  0  0  0  0  0  0  0  0  0
   -8.5761   20.0365  -30.3332 H   0  0  0  0  0  0  0  0  0  0  0  0
   -8.2168   19.7153  -32.0471 H   0  0  0  0  0  0  0  0  0  0  0  0
   -6.7592   21.4428  -30.1265 H   0  0  0  0  0  0  0  0  0  0  0  0
   -6.2310   20.9148  -31.7321 H   0  0  0  0  0  0  0  0  0  0  0  0
   -5.5650   23.4803  -32.2890 H   0  0  0  0  0  0  0  0  0  0  0  0
   -6.9630   24.6157  -32.3474 H   0  0  0  0  0  0  0  0  0  0  0  0
   -7.0741   24.4538  -29.8111 H   0  0  0  0  0  0  0  0  0  0  0  0
   -5.5084   23.5527  -29.8828 H   0  0  0  0  0  0  0  0  0  0  0  0
   -5.8397   26.2764  -31.1958 H   0  0  0  0  0  0  0  0  0  0  0  0
   -5.4129   26.0964  -29.4444 H   0  0  0  0  0  0  0  0  0  0  0  0
   -1.2772   22.5748  -28.4440 H   0  0  0  0  0  0  0  0  0  0  0  0
   -0.7401   20.2425  -29.1530 H   0  0  0  0  0  0  0  0  0  0  0  0
   -1.8216   19.2685  -31.1785 H   0  0  0  0  0  0  0  0  0  0  0  0
   -4.5948   18.5983  -34.8844 H   0  0  0  0  0  0  0  0  0  0  0  0
   -3.1320   17.7087  -34.2947 H   0  0  0  0  0  0  0  0  0  0  0  0
   -4.8938   16.1261  -34.9517 H   0  0  0  0  0  0  0  0  0  0  0  0
   -4.5991   16.0681  -33.1681 H   0  0  0  0  0  0  0  0  0  0  0  0
   -7.0077   16.9882  -34.7007 H   0  0  0  0  0  0  0  0  0  0  0  0
   -6.8612   16.1647  -33.0832 H   0  0  0  0  0  0  0  0  0  0  0  0
   -6.8096   19.1009  -33.7647 H   0  0  0  0  0  0  0  0  0  0  0  0
   -7.6139   18.2214  -32.4038 H   0  0  0  0  0  0  0  0  0  0  0  0
   -5.7203   19.6105  -31.6125 H   0  0  0  0  0  0  0  0  0  0  0  0
   -5.4444   17.8274  -31.3519 H   0  0  0  0  0  0  0  0  0  0  0  0
   -4.0292   22.9463  -31.7651 H   0  0  0  0  0  0  0  0  0  0  0  0
  1  2  2  0
  2  3  1  0
  3  4  1  0
  4  5  1  0
  5  6  1  0
  6  7  1  0
  7  8  1  0
  8  9  1  0
  9 10  1  0
 10 11  1  0
 11 12  2  0
 11 13  2  0
 11 14  1  0
 14 15  2  0
 15 16  1  0
 16 17  2  0
 17 18  1  0
 18 19  1  0
 19 20  2  0
 19 21  2  0
 19 22  1  0
 22 23  1  0
 23 24  1  0
 24 25  1  0
 25 26  1  0
 26 27  1  0
 18 28  2  0
  6  2  1  0
 28 14  1  0
 27 22  1  0
  3 29  1  0
  3 30  1  0
  4 31  1  0
  4 32  1  0
  5 33  1  0
  5 34  1  0
  7 35  1  0
  7 36  1  0
  8 37  1  0
  8 38  1  0
  9 39  1  0
  9 40  1  0
 15 41  1  0
 16 42  1  0
 17 43  1  0
 23 44  1  0
 23 45  1  0
 24 46  1  0
 24 47  1  0
 25 48  1  0
 25 49  1  0
 26 50  1  0
 26 51  1  0
 27 52  1  0
 27 53  1  0
 28 54  1  0
M  CHG  1  10  -1
M  END
>  <UniqueID>  (8) 
8

>  <SMILES>  (8) 
O=C1CCCN1CCC[N-]S(=O)(=O)c1cccc(S(=O)(=O)N2CCCCC2)c1

>  <Energy>  (8) 
57.46318115539101

>  <Genealogy>  (8) 
O=C1CCCN1CCC[N-]S(=O)(=O)c1cccc(S(=O)(=O)N2CCCCC2)c1 (protonated)
O=C1CCCN1CCC[N-]S(=O)(=O)c1cccc(S(=O)(=O)N2CCCCC2)c1 (3D coordinates assigned)
O=C1CCCN1CCC[N-]S(=O)(=O)c1cccc(S(=O)(=O)N2CCCCC2)c1 (nonaromatic ring conformer: 57.46318115539101 kcal/mol)

>  <smiles>  (8) 
O=C1CCCN1CCCNS(=O)(=O)c1cccc(S(=O)(=O)N2CCCCC2)c1

>  <score_type>  (8) 
oracle

>  <origin>  (8) 
adgpu

>  <m_score__min__energy>  (8) 
-10.99

>  <m_primary>  (8) 
energy

$$$$
8:0
     RDKit          3D

 31 32  0  0  0  0  0  0  0  0999 V2000
   -5.7350   16.2250  -31.0330 N   0  0  0  0  0  0  0  0  0  0  0  0
   -5.9140   16.9910  -32.0520 C   0  0  0  0  0  0  0  0  0  0  0  0
   -6.6750   18.1370  -31.9420 C   0  0  0  0  0  0  0  0  0  0  0  0
   -6.8240   18.9110  -33.0750 C   0  0  0  0  0  0  0  0  0  0  0  0
   -7.5790   20.1130  -33.1120 N   0  0  0  0  0  0  0  0  0  0  0  0
   -7.0790   21.2470  -32.4270 C   0  0  0  0  0  0  0  0  0  0  0  0
   -5.7300   21.5240  -32.5170 C   0  0  0  0  0  0  0  0  0  0  0  0
   -5.1720   22.6180  -31.8730 C   0  0  0  0  0  0  0  0  0  0  0  0
   -5.9370   23.4580  -31.1310 C   0  0  0  0  0  0  0  0  0  0  0  0
   -5.2200   24.8140  -30.3390 S   0  0  0  0  0  0  0  0  0  0  0  0
   -5.2160   24.6560  -28.6250 N   0  0  0  0  0  0  0  0  0  0  0  0
   -3.7530   24.8420  -30.7470 O   0  0  0  0  0  0  0  0  0  0  0  0
   -5.8520   26.0700  -30.8250 O   0  0  0  0  0  0  0  0  0  0  0  0
   -7.2970   23.1800  -31.0420 C   0  0  0  0  0  0  0  0  0  0  0  0
   -7.8690   22.0920  -31.6780 C   0  0  0  0  0  0  0  0  0  0  0  0
   -6.2320   18.5370  -34.2480 N   0  0  0  0  0  0  0  0  0  0  0  0
   -5.4950   17.4080  -34.3220 C   0  0  0  0  0  0  0  0  0  0  0  0
   -4.9760   17.1330  -35.4660 N   0  0  0  0  0  0  0  0  0  0  0  0
   -5.3460   16.6530  -33.2230 N   0  0  0  0  0  0  0  0  0  0  0  0
   -6.1190   16.3860  -30.0930 H   0  0  0  0  0  0  0  0  0  0  0  0
   -7.1443   18.4223  -30.9889 H   0  0  0  0  0  0  0  0  0  0  0  0
   -8.4960   20.1950  -33.6270 H   0  0  0  0  0  0  0  0  0  0  0  0
   -5.0834   20.8627  -33.1125 H   0  0  0  0  0  0  0  0  0  0  0  0
   -4.0924   22.8078  -31.9651 H   0  0  0  0  0  0  0  0  0  0  0  0
   -4.9120   25.5320  -28.1460 H   0  0  0  0  0  0  0  0  0  0  0  0
   -6.0970   24.2530  -28.2380 H   0  0  0  0  0  0  0  0  0  0  0  0
   -7.9386   23.8464  -30.4469 H   0  0  0  0  0  0  0  0  0  0  0  0
   -8.9487   21.9027  -31.5861 H   0  0  0  0  0  0  0  0  0  0  0  0
   -6.3540   19.1390  -35.1110 H   0  0  0  0  0  0  0  0  0  0  0  0
   -4.4010   16.2750  -35.5640 H   0  0  0  0  0  0  0  0  0  0  0  0
   -4.7670   15.7790  -33.3030 H   0  0  0  0  0  0  0  0  0  0  0  0
  1  2  2  3
  2  3  1  0
  3  4  2  0
  4  5  1  0
  5  6  1  0
  6  7  2  0
  7  8  1  0
  8  9  2  0
  9 10  1  0
 10 11  1  0
 10 12  2  0
 10 13  2  0
  9 14  1  0
 14 15  2  0
  4 16  1  0
 16 17  1  0
 17 18  2  3
 17 19  1  0
 19  2  1  0
 15  6  1  0
  1 20  1  0
  3 21  1  0
  5 22  1  0
  7 23  1  0
  8 24  1  0
 11 25  1  0
 11 26  1  0
 14 27  1  0
 15 28  1  0
 16 29  1  0
 18 30  1  0
 19 31  1  0
M  END
>  <smiles>  (9) 
N=c1cc(Nc2ccc(S(N)(=O)=O)cc2)[nH]c(=N)[nH]1

>  <score_type>  (9) 
oracle

>  <origin>  (9) 
adgpu

>  <m_score__min__energy>  (9) 
-8.6099999999999994

>  <m_primary>  (9) 
energy

$$$$
9:0
     RDKit          3D

 38 40  0  0  0  0  0  0  0  0999 V2000
    0.3580   18.3900  -34.4230 O   0  0  0  0  0  0  0  0  0  0  0  0
   -0.2580   19.4740  -34.6090 C   0  0  0  0  0  0  0  0  0  0  0  0
   -1.5990   19.6330  -34.1270 N   0  0  0  0  0  0  0  0  0  0  0  0
   -2.0520   20.5550  -33.1250 C   0  0  0  0  0  0  0  0  0  0  0  0
   -3.3840   20.9890  -33.1670 C   0  0  0  0  0  0  0  0  0  0  0  0
   -3.8690   21.8840  -32.2100 C   0  0  0  0  0  0  0  0  0  0  0  0
   -3.0320   22.3430  -31.1850 C   0  0  0  0  0  0  0  0  0  0  0  0
   -3.6340   23.5040  -30.0080 S   0  0  0  0  0  0  0  0  0  0  0  0
   -5.0070   23.1020  -29.5470 O   0  0  0  0  0  0  0  0  0  0  0  0
   -3.7400   24.8640  -30.6400 O   0  0  0  0  0  0  0  0  0  0  0  0
   -2.5300   23.5460  -28.6320 C   0  0  0  0  0  0  0  0  0  0  0  0
   -2.5120   22.4710  -27.7300 C   0  0  0  0  0  0  0  0  0  0  0  0
   -1.6240   22.4700  -26.6510 C   0  0  0  0  0  0  0  0  0  0  0  0
   -0.7490   23.5410  -26.4640 C   0  0  0  0  0  0  0  0  0  0  0  0
   -0.7520   24.6130  -27.3630 C   0  0  0  0  0  0  0  0  0  0  0  0
   -1.6330   24.6170  -28.4490 C   0  0  0  0  0  0  0  0  0  0  0  0
   -1.6040   25.6840  -29.3410 O   0  0  0  0  0  0  0  0  0  0  0  0
   -1.7050   21.8940  -31.1250 C   0  0  0  0  0  0  0  0  0  0  0  0
   -1.2200   20.9970  -32.0800 C   0  0  0  0  0  0  0  0  0  0  0  0
    0.4300   20.6040  -35.2780 C   0  0  0  0  0  0  0  0  0  0  0  0
   -0.0400   21.9220  -35.1220 C   0  0  0  0  0  0  0  0  0  0  0  0
    0.6180   22.9870  -35.7460 C   0  0  0  0  0  0  0  0  0  0  0  0
    1.7450   22.7500  -36.5370 C   0  0  0  0  0  0  0  0  0  0  0  0
    2.3930   23.8130  -37.1550 O   0  0  0  0  0  0  0  0  0  0  0  0
    2.2200   21.4430  -36.7030 C   0  0  0  0  0  0  0  0  0  0  0  0
    3.3450   21.2030  -37.4810 O   0  0  0  0  0  0  0  0  0  0  0  0
    1.5650   20.3760  -36.0800 C   0  0  0  0  0  0  0  0  0  0  0  0
   -4.0528   20.6221  -33.9596 H   0  0  0  0  0  0  0  0  0  0  0  0
   -4.9121   22.2295  -32.2617 H   0  0  0  0  0  0  0  0  0  0  0  0
   -3.2003   21.6250  -27.8731 H   0  0  0  0  0  0  0  0  0  0  0  0
   -1.6147   21.6239  -25.9481 H   0  0  0  0  0  0  0  0  0  0  0  0
   -0.0566   23.5423  -25.6093 H   0  0  0  0  0  0  0  0  0  0  0  0
   -0.0596   25.4549  -27.2152 H   0  0  0  0  0  0  0  0  0  0  0  0
   -1.0426   22.2498  -30.3221 H   0  0  0  0  0  0  0  0  0  0  0  0
   -0.1834   20.6348  -32.0147 H   0  0  0  0  0  0  0  0  0  0  0  0
   -0.9303   22.1154  -34.5055 H   0  0  0  0  0  0  0  0  0  0  0  0
    0.2471   24.0141  -35.6136 H   0  0  0  0  0  0  0  0  0  0  0  0
    1.9392   19.3508  -36.2174 H   0  0  0  0  0  0  0  0  0  0  0  0
  1  2  2  0
  2  3  1  0
  3  4  1  0
  4  5  2  0
  5  6  1  0
  6  7  2  0
  7  8  1  0
  8  9  2  0
  8 10  2  0
  8 11  1  0
 11 12  2  0
 12 13  1  0
 13 14  2  0
 14 15  1  0
 15 16  2  0
 16 17  1  0
  7 18  1  0
 18 19  2  0
  2 20  1  0
 20 21  2  0
 21 22  1  0
 22 23  2  0
 23 24  1  0
 23 25  1  0
 25 26  1  0
 25 27  2  0
 19  4  1  0
 27 20  1  0
 16 11  1  0
  5 28  1  0
  6 29  1  0
 12 30  1  0
 13 31  1  0
 14 32  1  0
 15 33  1  0
 18 34  1  0
 19 35  1  0
 21 36  1  0
 22 37  1  0
 27 38  1  0
M  CHG  4   3  -1  17  -1  24  -1  26  -1
M  END
>  <UniqueID>  (10) 
9

>  <SMILES>  (10) 
O=C([N-]c1ccc(S(=O)(=O)c2ccccc2[O-])cc1)c1ccc([O-])c([O-])c1

>  <Energy>  (10) 
49.05050052074737

>  <Genealogy>  (10) 
O=C([N-]c1ccc(S(=O)(=O)c2ccccc2[O-])cc1)c1ccc([O-])c([O-])c1 (protonated)
O=C([N-]c1ccc(S(=O)(=O)c2ccccc2[O-])cc1)c1ccc([O-])c([O-])c1 (3D coordinates assigned)
O=C([N-]c1ccc(S(=O)(=O)c2ccccc2[O-])cc1)c1ccc([O-])c([O-])c1 (optimized conformer: 49.05050052074737 kcal/mol)

>  <smiles>  (10) 
O=C(Nc1ccc(S(=O)(=O)c2ccccc2O)cc1)c1ccc(O)c(O)c1

>  <score_type>  (10) 
oracle

>  <origin>  (10) 
adgpu

>  <m_score__min__energy>  (10) 
-13.84

>  <m_primary>  (10) 
energy

$$$$
10:0
     RDKit          3D

 50 53  0  0  0  0  0  0  0  0999 V2000
   -9.3690   18.8910  -33.0270 O   0  0  0  0  0  0  0  0  0  0  0  0
   -8.9260   19.9740  -32.5610 C   0  0  0  0  0  0  0  0  0  0  0  0
   -9.8650   20.9880  -31.9750 C   0  0  0  0  0  0  0  0  0  0  0  0
   -9.1910   21.7690  -30.8380 C   0  0  0  0  0  0  0  0  0  0  0  0
   -7.8060   22.2420  -31.2110 C   0  0  0  0  0  0  0  0  0  0  0  0
   -7.2680   23.3930  -30.6190 C   0  0  0  0  0  0  0  0  0  0  0  0
   -5.9420   23.7710  -30.8790 C   0  0  0  0  0  0  0  0  0  0  0  0
   -5.2530   25.1840  -30.0840 S   0  0  0  0  0  0  0  0  0  0  0  0
   -5.8030   25.3220  -28.6920 O   0  0  0  0  0  0  0  0  0  0  0  0
   -5.6090   26.4150  -30.8680 O   0  0  0  0  0  0  0  0  0  0  0  0
   -3.5310   25.0190  -30.0330 N   0  0  0  0  0  0  0  0  0  0  0  0
   -2.9120   23.8860  -29.4220 C   0  0  0  0  0  0  0  0  0  0  0  0
   -2.1460   23.0230  -30.2120 C   0  0  0  0  0  0  0  0  0  0  0  0
   -1.5920   21.8590  -29.6620 C   0  0  0  0  0  0  0  0  0  0  0  0
   -0.7000   20.7310  -30.6860 S   0  0  0  0  0  0  0  0  0  0  0  0
    0.2330   19.9180  -29.8330 O   0  0  0  0  0  0  0  0  0  0  0  0
    0.1290   21.5070  -31.6730 O   0  0  0  0  0  0  0  0  0  0  0  0
   -1.7800   19.6610  -31.5520 N   0  0  0  0  0  0  0  0  0  0  0  0
   -2.8990   20.4020  -32.1760 C   0  0  0  0  0  0  0  0  0  0  0  0
   -2.7870   20.4370  -33.7090 C   0  0  0  0  0  0  0  0  0  0  0  0
   -2.7620   19.1380  -34.2770 O   0  0  0  0  0  0  0  0  0  0  0  0
   -1.9720   18.2050  -33.5450 C   0  0  0  0  0  0  0  0  0  0  0  0
   -1.0230   18.8350  -32.5110 C   0  0  0  0  0  0  0  0  0  0  0  0
   -1.7780   21.5820  -28.3010 C   0  0  0  0  0  0  0  0  0  0  0  0
   -2.5250   22.4530  -27.5030 C   0  0  0  0  0  0  0  0  0  0  0  0
   -3.0950   23.6060  -28.0570 C   0  0  0  0  0  0  0  0  0  0  0  0
   -3.8300   24.4780  -27.2550 O   0  0  0  0  0  0  0  0  0  0  0  0
   -5.1440   22.9730  -31.7100 C   0  0  0  0  0  0  0  0  0  0  0  0
   -5.6720   21.8210  -32.2980 C   0  0  0  0  0  0  0  0  0  0  0  0
   -6.9990   21.4540  -32.0560 C   0  0  0  0  0  0  0  0  0  0  0  0
   -7.5340   20.2750  -32.6620 N   0  0  0  0  0  0  0  0  0  0  0  0
  -10.1715   21.6920  -32.7627 H   0  0  0  0  0  0  0  0  0  0  0  0
  -10.7403   20.4610  -31.5675 H   0  0  0  0  0  0  0  0  0  0  0  0
   -9.8104   22.6448  -30.5945 H   0  0  0  0  0  0  0  0  0  0  0  0
   -9.0952   21.0929  -29.9756 H   0  0  0  0  0  0  0  0  0  0  0  0
   -7.8889   24.0034  -29.9468 H   0  0  0  0  0  0  0  0  0  0  0  0
   -1.9770   23.2595  -31.2729 H   0  0  0  0  0  0  0  0  0  0  0  0
   -3.8452   19.9132  -31.9007 H   0  0  0  0  0  0  0  0  0  0  0  0
   -2.8638   21.4389  -31.8104 H   0  0  0  0  0  0  0  0  0  0  0  0
   -3.6512   20.9836  -34.1143 H   0  0  0  0  0  0  0  0  0  0  0  0
   -1.8402   20.9346  -33.9658 H   0  0  0  0  0  0  0  0  0  0  0  0
   -2.6523   17.5227  -33.0142 H   0  0  0  0  0  0  0  0  0  0  0  0
   -1.3334   17.6949  -34.2812 H   0  0  0  0  0  0  0  0  0  0  0  0
   -0.4992   18.0358  -31.9661 H   0  0  0  0  0  0  0  0  0  0  0  0
   -0.2977   19.4738  -33.0362 H   0  0  0  0  0  0  0  0  0  0  0  0
   -1.3351   20.6770  -27.8597 H   0  0  0  0  0  0  0  0  0  0  0  0
   -2.6659   22.2318  -26.4347 H   0  0  0  0  0  0  0  0  0  0  0  0
   -4.3210   25.2720  -27.6460 H   0  0  0  0  0  0  0  0  0  0  0  0
   -4.0978   23.2548  -31.9000 H   0  0  0  0  0  0  0  0  0  0  0  0
   -5.0420   21.2012  -32.9530 H   0  0  0  0  0  0  0  0  0  0  0  0
  1  2  2  0
  2  3  1  0
  3  4  1  0
  4  5  1  0
  5  6  2  0
  6  7  1  0
  7  8  1  0
  8  9  2  0
  8 10  2  0
  8 11  1  0
 11 12  1  0
 12 13  2  0
 13 14  1  0
 14 15  1  0
 15 16  2  0
 15 17  2  0
 15 18  1  0
 18 19  1  0
 19 20  1  0
 20 21  1  0
 21 22  1  0
 22 23  1  0
 14 24  2  0
 24 25  1  0
 25 26  2  0
 26 27  1  0
  7 28  2  0
 28 29  1  0
 29 30  2  0
 30 31  1  0
 31  2  1  0
 30  5  1  0
 26 12  1  0
 23 18  1  0
  3 32  1  0
  3 33  1  0
  4 34  1  0
  4 35  1  0
  6 36  1  0
 13 37  1  0
 19 38  1  0
 19 39  1  0
 20 40  1  0
 20 41  1  0
 22 42  1  0
 22 43  1  0
 23 44  1  0
 23 45  1  0
 24 46  1  0
 25 47  1  0
 27 48  1  0
 28 49  1  0
 29 50  1  0
M  CHG  2  11  -1  31  -1
M  END
>  <UniqueID>  (11) 
10

>  <SMILES>  (11) 
O=C1CCc2cc(S(=O)(=O)[N-]c3cc(S(=O)(=O)N4CCOCC4)ccc3O)ccc2[N-]1

>  <Energy>  (11) 
67.74922273697607

>  <Genealogy>  (11) 
O=C1CCc2cc(S(=O)(=O)[N-]c3cc(S(=O)(=O)N4CCOCC4)ccc3O)ccc2[N-]1 (protonated)
O=C1CCc2cc(S(=O)(=O)[N-]c3cc(S(=O)(=O)N4CCOCC4)ccc3O)ccc2[N-]1 (3D coordinates assigned)
O=C1CCc2cc(S(=O)(=O)[N-]c3cc(S(=O)(=O)N4CCOCC4)ccc3O)ccc2[N-]1 (nonaromatic ring conformer: 67.74922273697607 kcal/mol)

>  <smiles>  (11) 
O=C1CCc2cc(S(=O)(=O)Nc3cc(S(=O)(=O)N4CCOCC4)ccc3O)ccc2N1

>  <score_type>  (11) 
oracle

>  <origin>  (11) 
adgpu

>  <m_score__min__energy>  (11) 
-11.56

>  <m_primary>  (11) 
energy

$$$$
11:0
     RDKit          3D

 53 56  0  0  0  0  0  0  0  0999 V2000
   -2.3820   22.3110  -33.6370 H   0  0  0  0  0  0  0  0  0  0  0  0
   -2.8090   21.4430  -33.8640 O   0  0  0  0  0  0  0  0  0  0  0  0
   -2.0040   20.4110  -33.3350 C   0  0  0  0  0  0  0  0  0  0  0  0
   -2.6690   19.0680  -33.6760 C   0  0  0  0  0  0  0  0  0  0  0  0
   -1.8780   17.8990  -33.6590 C   0  0  0  0  0  0  0  0  0  0  0  0
   -0.8056   17.9723  -33.4255 H   0  0  0  0  0  0  0  0  0  0  0  0
   -2.4400   16.6500  -33.9350 C   0  0  0  0  0  0  0  0  0  0  0  0
   -1.8084   15.7495  -33.9228 H   0  0  0  0  0  0  0  0  0  0  0  0
   -3.8000   16.5420  -34.2260 C   0  0  0  0  0  0  0  0  0  0  0  0
   -4.2396   15.5581  -34.4465 H   0  0  0  0  0  0  0  0  0  0  0  0
   -4.6020   17.6840  -34.2370 C   0  0  0  0  0  0  0  0  0  0  0  0
   -5.6747   17.5977  -34.4646 H   0  0  0  0  0  0  0  0  0  0  0  0
   -4.0480   18.9370  -33.9600 C   0  0  0  0  0  0  0  0  0  0  0  0
   -4.6908   19.8296  -33.9630 H   0  0  0  0  0  0  0  0  0  0  0  0
   -0.6170   20.4550  -33.9830 C   0  0  0  0  0  0  0  0  0  0  0  0
   -0.4820   20.7890  -35.3480 C   0  0  0  0  0  0  0  0  0  0  0  0
   -1.3756   21.0433  -35.9370 H   0  0  0  0  0  0  0  0  0  0  0  0
    0.7750   20.8000  -35.9590 C   0  0  0  0  0  0  0  0  0  0  0  0
    0.8669   21.0732  -37.0206 H   0  0  0  0  0  0  0  0  0  0  0  0
    1.9140   20.4650  -35.2250 C   0  0  0  0  0  0  0  0  0  0  0  0
    2.9028   20.4793  -35.7067 H   0  0  0  0  0  0  0  0  0  0  0  0
    1.7980   20.1120  -33.8800 C   0  0  0  0  0  0  0  0  0  0  0  0
    2.6958   19.8432  -33.3041 H   0  0  0  0  0  0  0  0  0  0  0  0
    0.5430   20.0990  -33.2620 C   0  0  0  0  0  0  0  0  0  0  0  0
    0.4595   19.8086  -32.2043 H   0  0  0  0  0  0  0  0  0  0  0  0
   -1.8420   20.6550  -31.8120 C   0  0  0  0  0  0  0  0  0  0  0  0
   -0.7861   20.5237  -31.5330 H   0  0  0  0  0  0  0  0  0  0  0  0
   -2.4670   19.9345  -31.2640 H   0  0  0  0  0  0  0  0  0  0  0  0
   -2.2670   22.0130  -31.4710 N   0  0  0  0  0  0  0  0  0  0  0  0
   -3.4950   22.4440  -31.4280 C   0  0  0  0  0  0  0  0  0  0  0  0
   -3.7160   23.7390  -31.0880 N   0  0  0  0  0  0  0  0  0  0  0  0
   -4.9720   24.2540  -31.0210 C   0  0  0  0  0  0  0  0  0  0  0  0
   -5.1830   25.5900  -30.6720 O   0  0  0  0  0  0  0  0  0  0  0  0
   -6.1290   25.9880  -29.6860 C   0  0  0  0  0  0  0  0  0  0  0  0
   -5.7104   25.8119  -28.6841 H   0  0  0  0  0  0  0  0  0  0  0  0
   -6.3556   27.0577  -29.8059 H   0  0  0  0  0  0  0  0  0  0  0  0
   -7.0522   25.4020  -29.8059 H   0  0  0  0  0  0  0  0  0  0  0  0
   -6.0640   23.4390  -31.3090 C   0  0  0  0  0  0  0  0  0  0  0  0
   -7.0874   23.8393  -31.2600 H   0  0  0  0  0  0  0  0  0  0  0  0
   -5.8400   22.1020  -31.6620 C   0  0  0  0  0  0  0  0  0  0  0  0
   -6.9820   21.2090  -31.9840 C   0  0  0  0  0  0  0  0  0  0  0  0
   -8.3020   21.6890  -31.9090 C   0  0  0  0  0  0  0  0  0  0  0  0
   -8.4885   22.7308  -31.6094 H   0  0  0  0  0  0  0  0  0  0  0  0
   -9.3790   20.8500  -32.2130 C   0  0  0  0  0  0  0  0  0  0  0  0
  -10.4084   21.2324  -32.1488 H   0  0  0  0  0  0  0  0  0  0  0  0
   -9.1490   19.5270  -32.5980 C   0  0  0  0  0  0  0  0  0  0  0  0
   -9.9971   18.8693  -32.8391 H   0  0  0  0  0  0  0  0  0  0  0  0
   -7.8430   19.0390  -32.6770 C   0  0  0  0  0  0  0  0  0  0  0  0
   -7.6636   17.9968  -32.9797 H   0  0  0  0  0  0  0  0  0  0  0  0
   -6.7630   19.8730  -32.3720 C   0  0  0  0  0  0  0  0  0  0  0  0
   -5.7363   19.4833  -32.4355 H   0  0  0  0  0  0  0  0  0  0  0  0
   -4.5580   21.6300  -31.7140 N   0  0  0  0  0  0  0  0  0  0  0  0
   -4.4060   20.6260  -31.9540 H   0  0  0  0  0  0  0  0  0  0  0  0
  1  2  1  0
  2  3  1  0
  3  4  1  0
  4  5  2  0
  5  6  1  0
  5  7  1  0
  7  8  1  0
  7  9  2  0
  9 10  1  0
  9 11  1  0
 11 12  1  0
 11 13  2  0
 13 14  1  0
  3 15  1  0
 15 16  2  0
 16 17  1  0
 16 18  1  0
 18 19  1  0
 18 20  2  0
 20 21  1  0
 20 22  1  0
 22 23  1  0
 22 24  2  0
 24 25  1  0
  3 26  1  0
 26 27  1  0
 26 28  1  0
 26 29  1  0
 29 30  2  0
 30 31  1  0
 31 32  2  0
 32 33  1  0
 33 34  1  0
 34 35  1  0
 34 36  1  0
 34 37  1  0
 32 38  1  0
 38 39  1  0
 38 40  2  0
 40 41  1  0
 41 42  2  0
 42 43  1  0
 42 44  1  0
 44 45  1  0
 44 46  2  0
 46 47  1  0
 46 48  1  0
 48 49  1  0
 48 50  2  0
 50 51  1  0
 40 52  1  0
 52 53  1  0
 13  4  1  0
 24 15  1  0
 52 30  1  0
 50 41  1  0
M  END
>  <UniqueID>  (12) 
11

>  <SMILES>  (12) 
COc1cc(-c2ccccc2)[nH]/c(=N\CC(O)(c2ccccc2)c2ccccc2)n1

>  <Energy>  (12) 
68.2114277063569

>  <Genealogy>  (12) 
COc1cc(-c2ccccc2)[nH]/c(=N\CC(O)(c2ccccc2)c2ccccc2)n1 (cis-trans isomerization)
COc1cc(-c2ccccc2)[nH]/c(=N\CC(O)(c2ccccc2)c2ccccc2)n1 (3D coordinates assigned)
COc1cc(-c2ccccc2)[nH]/c(=N\CC(O)(c2ccccc2)c2ccccc2)n1 (optimized conformer: 68.2114277063569 kcal/mol)

>  <smiles>  (12) 
COc1cc(-c2ccccc2)[nH]c(=NCC(O)(c2ccccc2)c2ccccc2)n1

>  <score_type>  (12) 
oracle

>  <origin>  (12) 
adgpu

>  <m_score__min__energy>  (12) 
-10

>  <m_primary>  (12) 
energy

$$$$
12:0
     RDKit          3D

 64 68  0  0  0  0  0  0  0  0999 V2000
   -6.6480   25.2290  -29.8170 C   0  0  0  0  0  0  0  0  0  0  0  0
   -6.6390   23.8840  -30.4760 C   0  0  0  0  0  0  0  0  0  0  0  0
   -7.8410   23.3680  -30.8400 N   0  0  0  0  0  0  0  0  0  0  0  0
   -7.9770   22.1560  -31.4290 C   0  0  0  0  0  0  0  0  0  0  0  0
   -9.2540   21.6940  -31.7670 C   0  0  0  0  0  0  0  0  0  0  0  0
   -9.4110   20.4370  -32.3540 C   0  0  0  0  0  0  0  0  0  0  0  0
   -8.2960   19.6380  -32.6020 C   0  0  0  0  0  0  0  0  0  0  0  0
   -7.0180   20.0900  -32.2660 C   0  0  0  0  0  0  0  0  0  0  0  0
   -6.8380   21.3640  -31.6810 C   0  0  0  0  0  0  0  0  0  0  0  0
   -5.5640   21.8640  -31.3210 C   0  0  0  0  0  0  0  0  0  0  0  0
   -4.3640   21.0360  -31.5510 C   0  0  0  0  0  0  0  0  0  0  0  0
   -4.0940   20.1010  -30.7510 O   0  0  0  0  0  0  0  0  0  0  0  0
   -3.5360   21.2950  -32.6900 N   0  0  0  0  0  0  0  0  0  0  0  0
   -2.6890   20.3570  -33.3680 C   0  0  0  0  0  0  0  0  0  0  0  0
   -1.4450   20.7970  -33.8370 C   0  0  0  0  0  0  0  0  0  0  0  0
   -0.5770   19.9120  -34.4810 C   0  0  0  0  0  0  0  0  0  0  0  0
   -0.9390   18.5740  -34.6500 C   0  0  0  0  0  0  0  0  0  0  0  0
   -2.1690   18.1100  -34.1620 C   0  0  0  0  0  0  0  0  0  0  0  0
   -2.6290   16.4170  -34.3810 S   0  0  0  0  0  0  0  0  0  0  0  0
   -1.8630   15.5730  -33.4000 O   0  0  0  0  0  0  0  0  0  0  0  0
   -2.2430   15.9820  -35.7680 O   0  0  0  0  0  0  0  0  0  0  0  0
   -4.3390   16.1380  -34.1520 N   0  0  0  0  0  0  0  0  0  0  0  0
   -4.7400   16.3160  -32.7590 C   0  0  0  0  0  0  0  0  0  0  0  0
   -6.2280   16.6250  -32.7890 C   0  0  0  0  0  0  0  0  0  0  0  0
   -6.4920   17.1730  -34.1840 C   0  0  0  0  0  0  0  0  0  0  0  0
   -5.1600   17.0770  -34.9150 C   0  0  0  0  0  0  0  0  0  0  0  0
   -3.0400   19.0020  -33.5190 C   0  0  0  0  0  0  0  0  0  0  0  0
   -5.4490   23.1520  -30.7310 C   0  0  0  0  0  0  0  0  0  0  0  0
   -3.8270   23.8060  -30.3370 S   0  0  0  0  0  0  0  0  0  0  0  0
   -3.8890   25.3020  -30.4660 O   0  0  0  0  0  0  0  0  0  0  0  0
   -2.7620   23.2960  -31.2660 O   0  0  0  0  0  0  0  0  0  0  0  0
   -3.3900   23.3790  -28.6950 N   0  0  0  0  0  0  0  0  0  0  0  0
   -2.0520   22.7680  -28.6270 C   0  0  0  0  0  0  0  0  0  0  0  0
   -0.9180   23.8100  -28.7700 C   0  0  0  0  0  0  0  0  0  0  0  0
   -1.3320   25.1400  -28.5120 O   0  0  0  0  0  0  0  0  0  0  0  0
   -2.1970   25.1740  -27.4010 C   0  0  0  0  0  0  0  0  0  0  0  0
   -3.5410   24.5160  -27.7590 C   0  0  0  0  0  0  0  0  0  0  0  0
   -6.6471   25.1020  -28.7244 H   0  0  0  0  0  0  0  0  0  0  0  0
   -5.7536   25.7924  -30.1213 H   0  0  0  0  0  0  0  0  0  0  0  0
   -7.5499   25.7804  -30.1213 H   0  0  0  0  0  0  0  0  0  0  0  0
  -10.1353   22.3221  -31.5699 H   0  0  0  0  0  0  0  0  0  0  0  0
  -10.4155   20.0768  -32.6210 H   0  0  0  0  0  0  0  0  0  0  0  0
   -8.4232   18.6479  -33.0640 H   0  0  0  0  0  0  0  0  0  0  0  0
   -6.1446   19.4495  -32.4582 H   0  0  0  0  0  0  0  0  0  0  0  0
   -1.1492   21.8472  -33.6973 H   0  0  0  0  0  0  0  0  0  0  0  0
    0.3934   20.2698  -34.8556 H   0  0  0  0  0  0  0  0  0  0  0  0
   -0.2577   17.8823  -35.1672 H   0  0  0  0  0  0  0  0  0  0  0  0
   -4.5519   15.3958  -32.1863 H   0  0  0  0  0  0  0  0  0  0  0  0
   -4.1701   17.1228  -32.2750 H   0  0  0  0  0  0  0  0  0  0  0  0
   -6.8156   15.7114  -32.6156 H   0  0  0  0  0  0  0  0  0  0  0  0
   -6.5160   17.3401  -32.0044 H   0  0  0  0  0  0  0  0  0  0  0  0
   -7.2563   16.5700  -34.6961 H   0  0  0  0  0  0  0  0  0  0  0  0
   -6.8681   18.2063  -34.1531 H   0  0  0  0  0  0  0  0  0  0  0  0
   -5.3134   16.7041  -35.9385 H   0  0  0  0  0  0  0  0  0  0  0  0
   -4.6746   18.0611  -34.9917 H   0  0  0  0  0  0  0  0  0  0  0  0
   -4.0034   18.6405  -33.1303 H   0  0  0  0  0  0  0  0  0  0  0  0
   -1.9447   22.2605  -27.6570 H   0  0  0  0  0  0  0  0  0  0  0  0
   -1.9642   22.0608  -29.4649 H   0  0  0  0  0  0  0  0  0  0  0  0
   -0.1174   23.5517  -28.0613 H   0  0  0  0  0  0  0  0  0  0  0  0
   -0.5792   23.7755  -29.8160 H   0  0  0  0  0  0  0  0  0  0  0  0
   -1.7362   24.6289  -26.5640 H   0  0  0  0  0  0  0  0  0  0  0  0
   -2.3733   26.2209  -27.1130 H   0  0  0  0  0  0  0  0  0  0  0  0
   -4.0110   24.1502  -26.8342 H   0  0  0  0  0  0  0  0  0  0  0  0
   -4.1604   25.2762  -28.2574 H   0  0  0  0  0  0  0  0  0  0  0  0
  1  2  1  0
  2  3  2  0
  3  4  1  0
  4  5  2  0
  5  6  1  0
  6  7  2  0
  7  8  1  0
  8  9  2  0
  9 10  1  0
 10 11  1  0
 11 12  2  0
 11 13  1  0
 13 14  1  0
 14 15  2  0
 15 16  1  0
 16 17  2  0
 17 18  1  0
 18 19  1  0
 19 20  2  0
 19 21  2  0
 19 22  1  0
 22 23  1  0
 23 24  1  0
 24 25  1  0
 25 26  1  0
 18 27  2  0
 10 28  2  0
 28 29  1  0
 29 30  2  0
 29 31  2  0
 29 32  1  0
 32 33  1  0
 33 34  1  0
 34 35  1  0
 35 36  1  0
 36 37  1  0
 28  2  1  0
 37 32  1  0
  9  4  1  0
 27 14  1  0
 26 22  1  0
  1 38  1  0
  1 39  1  0
  1 40  1  0
  5 41  1  0
  6 42  1  0
  7 43  1  0
  8 44  1  0
 15 45  1  0
 16 46  1  0
 17 47  1  0
 23 48  1  0
 23 49  1  0
 24 50  1  0
 24 51  1  0
 25 52  1  0
 25 53  1  0
 26 54  1  0
 26 55  1  0
 27 56  1  0
 33 57  1  0
 33 58  1  0
 34 59  1  0
 34 60  1  0
 36 61  1  0
 36 62  1  0
 37 63  1  0
 37 64  1  0
M  CHG  1  13  -1
M  END
>  <UniqueID>  (13) 
12

>  <SMILES>  (13) 
Cc1nc2ccccc2c(C(=O)[N-]c2cccc(S(=O)(=O)N3CCCC3)c2)c1S(=O)(=O)N1CCOCC1

>  <Energy>  (13) 
98.9544402817013

>  <Genealogy>  (13) 
Cc1nc2ccccc2c(C(=O)[N-]c2cccc(S(=O)(=O)N3CCCC3)c2)c1S(=O)(=O)N1CCOCC1 (protonated)
Cc1nc2ccccc2c(C(=O)[N-]c2cccc(S(=O)(=O)N3CCCC3)c2)c1S(=O)(=O)N1CCOCC1 (3D coordinates assigned)
Cc1nc2ccccc2c(C(=O)[N-]c2cccc(S(=O)(=O)N3CCCC3)c2)c1S(=O)(=O)N1CCOCC1 (nonaromatic ring conformer: 98.9544402817013 kcal/mol)

>  <smiles>  (13) 
Cc1nc2ccccc2c(C(=O)Nc2cccc(S(=O)(=O)N3CCCC3)c2)c1S(=O)(=O)N1CCOCC1

>  <score_type>  (13) 
oracle

>  <origin>  (13) 
adgpu

>  <m_score__min__energy>  (13) 
-12.33

>  <m_primary>  (13) 
energy

$$$$
13:0
     RDKit          3D

 60 63  0  0  0  0  0  0  0  0999 V2000
   -5.1990   25.4390  -30.7810 C   0  0  0  0  0  0  0  0  0  0  0  0
   -3.8540   25.0840  -30.4840 O   0  0  0  0  0  0  0  0  0  0  0  0
   -3.4720   23.9880  -29.6940 C   0  0  0  0  0  0  0  0  0  0  0  0
   -3.4850   24.0520  -28.2870 C   0  0  0  0  0  0  0  0  0  0  0  0
   -3.1350   22.9360  -27.5240 C   0  0  0  0  0  0  0  0  0  0  0  0
   -2.7830   21.7360  -28.1510 C   0  0  0  0  0  0  0  0  0  0  0  0
   -2.2930   20.3510  -27.1800 S   0  0  0  0  0  0  0  0  0  0  0  0
   -3.5080   19.5710  -26.7560 O   0  0  0  0  0  0  0  0  0  0  0  0
   -1.5830   20.8380  -25.9480 O   0  0  0  0  0  0  0  0  0  0  0  0
   -1.2170   19.3500  -28.1200 N   0  0  0  0  0  0  0  0  0  0  0  0
   -0.7720   18.1840  -27.3580 C   0  0  0  0  0  0  0  0  0  0  0  0
    0.6000   17.8040  -27.8960 C   0  0  0  0  0  0  0  0  0  0  0  0
    1.0810   19.0190  -28.6760 C   0  0  0  0  0  0  0  0  0  0  0  0
    0.0030   20.0720  -28.4770 C   0  0  0  0  0  0  0  0  0  0  0  0
   -2.7640   21.6650  -29.5480 C   0  0  0  0  0  0  0  0  0  0  0  0
   -3.0800   22.7860  -30.3230 C   0  0  0  0  0  0  0  0  0  0  0  0
   -3.0070   22.6700  -31.7530 N   0  0  0  0  0  0  0  0  0  0  0  0
   -2.3400   21.6230  -32.4710 C   0  0  0  0  0  0  0  0  0  0  0  0
   -1.1180   21.7610  -32.7470 O   0  0  0  0  0  0  0  0  0  0  0  0
   -3.0560   20.4080  -32.9230 C   0  0  0  0  0  0  0  0  0  0  0  0
   -2.4190   19.4610  -33.7440 C   0  0  0  0  0  0  0  0  0  0  0  0
   -3.1070   18.3250  -34.1750 C   0  0  0  0  0  0  0  0  0  0  0  0
   -4.4320   18.1180  -33.7890 C   0  0  0  0  0  0  0  0  0  0  0  0
   -5.0770   19.0480  -32.9620 C   0  0  0  0  0  0  0  0  0  0  0  0
   -6.7540   18.7880  -32.4730 S   0  0  0  0  0  0  0  0  0  0  0  0
   -7.4180   17.8710  -33.4600 O   0  0  0  0  0  0  0  0  0  0  0  0
   -6.7760   18.1160  -31.1280 O   0  0  0  0  0  0  0  0  0  0  0  0
   -7.6450   20.2880  -32.3820 N   0  0  0  0  0  0  0  0  0  0  0  0
   -7.0900   21.1550  -31.3320 C   0  0  0  0  0  0  0  0  0  0  0  0
   -7.9350   22.4390  -31.1950 C   0  0  0  0  0  0  0  0  0  0  0  0
   -8.9920   22.4740  -32.1370 O   0  0  0  0  0  0  0  0  0  0  0  0
   -9.8360   21.3530  -31.9510 C   0  0  0  0  0  0  0  0  0  0  0  0
   -9.0680   20.0250  -32.1190 C   0  0  0  0  0  0  0  0  0  0  0  0
   -4.3850   20.1870  -32.5280 C   0  0  0  0  0  0  0  0  0  0  0  0
   -5.7551   25.5858  -29.8433 H   0  0  0  0  0  0  0  0  0  0  0  0
   -5.2118   26.3713  -31.3647 H   0  0  0  0  0  0  0  0  0  0  0  0
   -5.6702   24.6345  -31.3647 H   0  0  0  0  0  0  0  0  0  0  0  0
   -3.7729   24.9878  -27.7856 H   0  0  0  0  0  0  0  0  0  0  0  0
   -3.1361   23.0007  -26.4259 H   0  0  0  0  0  0  0  0  0  0  0  0
   -0.7035   18.4340  -26.2890 H   0  0  0  0  0  0  0  0  0  0  0  0
   -1.4816   17.3500  -27.4626 H   0  0  0  0  0  0  0  0  0  0  0  0
    1.2893   17.5808  -27.0683 H   0  0  0  0  0  0  0  0  0  0  0  0
    0.5561   16.9045  -28.5276 H   0  0  0  0  0  0  0  0  0  0  0  0
    2.0446   19.3740  -28.2816 H   0  0  0  0  0  0  0  0  0  0  0  0
    1.2395   18.7885  -29.7398 H   0  0  0  0  0  0  0  0  0  0  0  0
    0.2883   20.7606  -27.6680 H   0  0  0  0  0  0  0  0  0  0  0  0
   -0.1407   20.6731  -29.3870 H   0  0  0  0  0  0  0  0  0  0  0  0
   -2.4981   20.7187  -30.0418 H   0  0  0  0  0  0  0  0  0  0  0  0
   -1.3733   19.6158  -34.0483 H   0  0  0  0  0  0  0  0  0  0  0  0
   -2.6030   17.5909  -34.8208 H   0  0  0  0  0  0  0  0  0  0  0  0
   -4.9712   17.2235  -34.1343 H   0  0  0  0  0  0  0  0  0  0  0  0
   -7.0947   20.6137  -30.3744 H   0  0  0  0  0  0  0  0  0  0  0  0
   -6.0606   21.4316  -31.6036 H   0  0  0  0  0  0  0  0  0  0  0  0
   -8.3597   22.4797  -30.1811 H   0  0  0  0  0  0  0  0  0  0  0  0
   -7.2797   23.3022  -31.3830 H   0  0  0  0  0  0  0  0  0  0  0  0
  -10.2624   21.3923  -30.9378 H   0  0  0  0  0  0  0  0  0  0  0  0
  -10.6275   21.3898  -32.7140 H   0  0  0  0  0  0  0  0  0  0  0  0
   -9.1631   19.4317  -31.1976 H   0  0  0  0  0  0  0  0  0  0  0  0
   -9.4926   19.4712  -32.9693 H   0  0  0  0  0  0  0  0  0  0  0  0
   -4.8873   20.9137  -31.8725 H   0  0  0  0  0  0  0  0  0  0  0  0
  1  2  1  0
  2  3  1  0
  3  4  2  0
  4  5  1  0
  5  6  2  0
  6  7  1  0
  7  8  2  0
  7  9  2  0
  7 10  1  0
 10 11  1  0
 11 12  1  0
 12 13  1  0
 13 14  1  0
  6 15  1  0
 15 16  2  0
 16 17  1  0
 17 18  1  0
 18 19  2  0
 18 20  1  0
 20 21  2  0
 21 22  1  0
 22 23  2  0
 23 24  1  0
 24 25  1  0
 25 26  2  0
 25 27  2  0
 25 28  1  0
 28 29  1  0
 29 30  1  0
 30 31  1  0
 31 32  1  0
 32 33  1  0
 24 34  2  0
 16  3  1  0
 34 20  1  0
 14 10  1  0
 33 28  1  0
  1 35  1  0
  1 36  1  0
  1 37  1  0
  4 38  1  0
  5 39  1  0
 11 40  1  0
 11 41  1  0
 12 42  1  0
 12 43  1  0
 13 44  1  0
 13 45  1  0
 14 46  1  0
 14 47  1  0
 15 48  1  0
 21 49  1  0
 22 50  1  0
 23 51  1  0
 29 52  1  0
 29 53  1  0
 30 54  1  0
 30 55  1  0
 32 56  1  0
 32 57  1  0
 33 58  1  0
 33 59  1  0
 34 60  1  0
M  CHG  1  17  -1
M  END
>  <UniqueID>  (14) 
13

>  <SMILES>  (14) 
COc1ccc(S(=O)(=O)N2CCCC2)cc1[N-]C(=O)c1cccc(S(=O)(=O)N2CCOCC2)c1

>  <Energy>  (14) 
75.93039571002001

>  <Genealogy>  (14) 
COc1ccc(S(=O)(=O)N2CCCC2)cc1[N-]C(=O)c1cccc(S(=O)(=O)N2CCOCC2)c1 (protonated)
COc1ccc(S(=O)(=O)N2CCCC2)cc1[N-]C(=O)c1cccc(S(=O)(=O)N2CCOCC2)c1 (3D coordinates assigned)
COc1ccc(S(=O)(=O)N2CCCC2)cc1[N-]C(=O)c1cccc(S(=O)(=O)N2CCOCC2)c1 (nonaromatic ring conformer: 75.93039571002001 kcal/mol)

>  <smiles>  (14) 
COc1ccc(S(=O)(=O)N2CCCC2)cc1NC(=O)c1cccc(S(=O)(=O)N2CCOCC2)c1

>  <score_type>  (14) 
oracle

>  <origin>  (14) 
adgpu

>  <m_score__min__energy>  (14) 
-12.119999999999999

>  <m_primary>  (14) 
energy

$$$$
14:0
     RDKit          3D

 58 61  0  0  1  0  0  0  0  0999 V2000
   -4.4930   14.0170  -31.5290 C   0  0  0  0  0  0  0  0  0  0  0  0
   -5.3440   14.5830  -33.0330 S   0  0  0  0  0  0  0  0  0  0  0  0
   -5.2850   16.3630  -33.1640 C   0  0  0  0  0  0  0  0  0  0  0  0
   -6.4210   17.0420  -32.9360 N   0  0  0  0  0  0  0  0  0  0  0  0
   -6.3950   18.3950  -33.0310 C   0  0  0  0  0  0  0  0  0  0  0  0
   -7.5090   18.9940  -32.8040 N   0  0  0  0  0  0  0  0  0  0  0  0
   -7.5850   20.4310  -32.8790 C   0  0  0  0  0  0  0  0  0  0  0  0
   -7.6290   20.9590  -31.4490 C   0  0  0  0  0  0  0  0  0  0  0  0
   -6.6940   22.1020  -31.2760 C   0  0  0  0  0  0  0  0  0  0  0  0
   -5.3260   21.8970  -31.3380 C   0  0  0  0  0  0  0  0  0  0  0  0
   -4.4130   22.9180  -31.1840 C   0  0  0  0  0  0  0  0  0  0  0  0
   -4.8630   24.1880  -30.9610 C   0  0  0  0  0  0  0  0  0  0  0  0
   -3.9570   25.2270  -30.8040 O   0  0  0  0  0  0  0  0  0  0  0  0
   -6.2190   24.4300  -30.8920 C   0  0  0  0  0  0  0  0  0  0  0  0
   -7.1250   23.3980  -31.0480 C   0  0  0  0  0  0  0  0  0  0  0  0
   -5.2210   19.0180  -33.3520 C   0  0  0  0  0  0  0  0  0  0  0  0
   -4.0450   18.3380  -33.5880 C   0  0  0  0  0  0  0  0  0  0  0  0
   -2.7910   18.9990  -33.9310 C   0  0  0  0  0  0  0  0  0  0  0  0
   -1.7450   18.3230  -34.5290 C   0  0  0  0  0  0  0  0  0  0  0  0
   -0.5440   18.9600  -34.8570 C   0  0  0  0  0  0  0  0  0  0  0  0
   -0.3600   20.3000  -34.5910 C   0  0  0  0  0  0  0  0  0  0  0  0
    1.1290   21.1250  -34.9890 S   0  0  0  0  0  0  0  0  0  0  0  0
    1.0200   22.6050  -34.9510 O   0  0  0  0  0  0  0  0  0  0  0  0
    1.5410   20.6300  -36.3620 O   0  0  0  0  0  0  0  0  0  0  0  0
    2.3400   20.5420  -33.8970 N   0  0  0  0  0  0  0  0  0  0  0  0
    1.7740   19.7160  -32.8650 C   0  0  0  0  0  0  0  0  0  0  0  0
    3.0470   19.2530  -32.1470 C   0  0  0  0  0  0  0  0  0  0  0  0
    3.9180   18.9260  -33.3430 C   0  0  0  0  0  0  0  0  0  0  0  0
    3.3040   19.6850  -34.5220 C   0  0  0  0  0  0  0  0  0  0  0  0
   -1.3870   20.9770  -34.0010 C   0  0  0  0  0  0  0  0  0  0  0  0
   -2.5850   20.3400  -33.6750 C   0  0  0  0  0  0  0  0  0  0  0  0
   -4.1290   16.9790  -33.4790 N   0  0  0  0  0  0  0  0  0  0  0  0
   -5.0356   14.3779  -30.6428 H   0  0  0  0  0  0  0  0  0  0  0  0
   -4.4617   12.9175  -31.5172 H   0  0  0  0  0  0  0  0  0  0  0  0
   -3.4669   14.4132  -31.5172 H   0  0  0  0  0  0  0  0  0  0  0  0
   -6.7010   20.8279  -33.3996 H   0  0  0  0  0  0  0  0  0  0  0  0
   -8.4794   20.7447  -33.4372 H   0  0  0  0  0  0  0  0  0  0  0  0
   -8.6518   21.2926  -31.2197 H   0  0  0  0  0  0  0  0  0  0  0  0
   -7.3261   20.1510  -30.7668 H   0  0  0  0  0  0  0  0  0  0  0  0
   -4.9527   20.8779  -31.5174 H   0  0  0  0  0  0  0  0  0  0  0  0
   -3.3339   22.7122  -31.2401 H   0  0  0  0  0  0  0  0  0  0  0  0
   -3.4870   25.6630  -31.5980 H   0  0  0  0  0  0  0  0  0  0  0  0
   -6.5823   25.4524  -30.7114 H   0  0  0  0  0  0  0  0  0  0  0  0
   -8.2030   23.6090  -30.9903 H   0  0  0  0  0  0  0  0  0  0  0  0
   -5.2144   20.1155  -33.4256 H   0  0  0  0  0  0  0  0  0  0  0  0
   -1.8602   17.2524  -34.7537 H   0  0  0  0  0  0  0  0  0  0  0  0
    0.2637   18.3847  -35.3331 H   0  0  0  0  0  0  0  0  0  0  0  0
    1.1182   20.2935  -32.1968 H   0  0  0  0  0  0  0  0  0  0  0  0
    1.1323   18.9010  -33.2310 H   0  0  0  0  0  0  0  0  0  0  0  0
    3.4827   20.0536  -31.5311 H   0  0  0  0  0  0  0  0  0  0  0  0
    2.9040   18.4249  -31.4372 H   0  0  0  0  0  0  0  0  0  0  0  0
    4.9513   19.2602  -33.1679 H   0  0  0  0  0  0  0  0  0  0  0  0
    3.9570   17.8433  -33.5331 H   0  0  0  0  0  0  0  0  0  0  0  0
    4.0676   20.2723  -35.0531 H   0  0  0  0  0  0  0  0  0  0  0  0
    2.8620   19.0200  -35.2785 H   0  0  0  0  0  0  0  0  0  0  0  0
   -1.2682   22.0475  -33.7776 H   0  0  0  0  0  0  0  0  0  0  0  0
   -3.3882   20.9229  -33.2005 H   0  0  0  0  0  0  0  0  0  0  0  0
   -3.3080   16.3580  -33.6350 H   0  0  0  0  0  0  0  0  0  0  0  0
  1  2  1  0
  2  3  1  0
  3  4  2  0
  4  5  1  0
  5  6  2  0
  6  7  1  0
  7  8  1  0
  8  9  1  0
  9 10  2  0
 10 11  1  0
 11 12  2  0
 12 13  1  0
 12 14  1  0
 14 15  2  0
  5 16  1  0
 16 17  2  0
 17 18  1  0
 18 19  2  0
 19 20  1  0
 20 21  2  0
 21 22  1  0
 22 23  2  0
 22 24  2  0
 22 25  1  0
 25 26  1  0
 26 27  1  0
 27 28  1  0
 28 29  1  0
 21 30  1  0
 30 31  2  0
 17 32  1  0
 32  3  1  0
 15  9  1  0
 31 18  1  0
 29 25  1  0
  1 33  1  0
  1 34  1  0
  1 35  1  0
  7 36  1  0
  7 37  1  0
  8 38  1  0
  8 39  1  0
 10 40  1  0
 11 41  1  0
 13 42  1  0
 14 43  1  0
 15 44  1  0
 16 45  1  0
 19 46  1  0
 20 47  1  0
 26 48  1  0
 26 49  1  0
 27 50  1  0
 27 51  1  0
 28 52  1  0
 28 53  1  0
 29 54  1  0
 29 55  1  0
 30 56  1  0
 31 57  1  0
 32 58  1  0
M  END
>  <smiles>  (15) 
CSc1nc(=NCCc2ccc(O)cc2)cc(-c2ccc(S(=O)(=O)N3CCCC3)cc2)[nH]1

>  <score_type>  (15) 
oracle

>  <origin>  (15) 
adgpu

>  <m_score__min__energy>  (15) 
-10.220000000000001

>  <m_primary>  (15) 
energy

$$$$
15:0
     RDKit          3D

 57 60  0  0  0  0  0  0  0  0999 V2000
   -8.6170   23.2810  -31.9390 C   0  0  0  0  0  0  0  0  0  0  0  0
   -7.4980   22.2970  -32.1140 C   0  0  0  0  0  0  0  0  0  0  0  0
   -6.1420   22.5860  -32.1400 C   0  0  0  0  0  0  0  0  0  0  0  0
   -5.4960   23.8550  -32.0310 N   0  0  0  0  0  0  0  0  0  0  0  0
   -4.8360   24.4670  -30.5500 S   0  0  0  0  0  0  0  0  0  0  0  0
   -3.9770   25.6690  -30.8210 O   0  0  0  0  0  0  0  0  0  0  0  0
   -5.9530   24.8530  -29.6220 O   0  0  0  0  0  0  0  0  0  0  0  0
   -3.8580   23.2090  -29.8050 C   0  0  0  0  0  0  0  0  0  0  0  0
   -2.7960   22.6130  -30.4990 C   0  0  0  0  0  0  0  0  0  0  0  0
   -2.0440   21.5960  -29.8980 C   0  0  0  0  0  0  0  0  0  0  0  0
   -2.3480   21.1670  -28.5980 C   0  0  0  0  0  0  0  0  0  0  0  0
   -1.4200   19.8750  -27.8380 S   0  0  0  0  0  0  0  0  0  0  0  0
   -2.3500   18.9580  -27.0920 O   0  0  0  0  0  0  0  0  0  0  0  0
   -0.4780   20.4970  -26.8440 O   0  0  0  0  0  0  0  0  0  0  0  0
   -0.4990   18.9870  -29.0370 N   0  0  0  0  0  0  0  0  0  0  0  0
   -0.1140   17.6470  -28.5500 C   0  0  0  0  0  0  0  0  0  0  0  0
    1.0150   17.7080  -27.4930 C   0  0  0  0  0  0  0  0  0  0  0  0
    1.7160   18.9400  -27.4820 O   0  0  0  0  0  0  0  0  0  0  0  0
    1.9800   19.3620  -28.7990 C   0  0  0  0  0  0  0  0  0  0  0  0
    0.6730   19.7640  -29.5100 C   0  0  0  0  0  0  0  0  0  0  0  0
   -3.3940   21.7810  -27.8970 C   0  0  0  0  0  0  0  0  0  0  0  0
   -4.1470   22.7950  -28.4980 C   0  0  0  0  0  0  0  0  0  0  0  0
   -5.5330   21.3920  -32.4470 C   0  0  0  0  0  0  0  0  0  0  0  0
   -4.2970   21.2190  -32.6180 O   0  0  0  0  0  0  0  0  0  0  0  0
   -6.4650   20.4240  -32.5530 N   0  0  0  0  0  0  0  0  0  0  0  0
   -6.2170   19.0510  -32.8970 C   0  0  0  0  0  0  0  0  0  0  0  0
   -6.0210   18.6880  -34.2390 C   0  0  0  0  0  0  0  0  0  0  0  0
   -5.7620   17.3530  -34.5730 C   0  0  0  0  0  0  0  0  0  0  0  0
   -5.7160   16.3770  -33.5740 C   0  0  0  0  0  0  0  0  0  0  0  0
   -5.9240   16.7320  -32.2370 C   0  0  0  0  0  0  0  0  0  0  0  0
   -6.1680   18.0680  -31.8970 C   0  0  0  0  0  0  0  0  0  0  0  0
   -7.6600   20.9660  -32.3350 N   0  0  0  0  0  0  0  0  0  0  0  0
   -8.9330   20.2390  -32.3940 C   0  0  0  0  0  0  0  0  0  0  0  0
   -8.7996   23.4416  -30.8662 H   0  0  0  0  0  0  0  0  0  0  0  0
   -8.3428   24.2359  -32.4112 H   0  0  0  0  0  0  0  0  0  0  0  0
   -9.5290   22.8870  -32.4112 H   0  0  0  0  0  0  0  0  0  0  0  0
   -2.5525   22.9452  -31.5190 H   0  0  0  0  0  0  0  0  0  0  0  0
   -1.2118   21.1320  -30.4477 H   0  0  0  0  0  0  0  0  0  0  0  0
   -1.1440   18.8510  -29.8500 H   0  0  0  0  0  0  0  0  0  0  0  0
   -0.9954   17.1679  -28.0988 H   0  0  0  0  0  0  0  0  0  0  0  0
    0.2604   17.0714  -29.4094 H   0  0  0  0  0  0  0  0  0  0  0  0
    0.5698   17.5523  -26.4992 H   0  0  0  0  0  0  0  0  0  0  0  0
    1.7427   16.9251  -27.7527 H   0  0  0  0  0  0  0  0  0  0  0  0
    2.6585   20.2274  -28.7725 H   0  0  0  0  0  0  0  0  0  0  0  0
    2.4446   18.5322  -29.3518 H   0  0  0  0  0  0  0  0  0  0  0  0
    0.4854   20.8318  -29.3241 H   0  0  0  0  0  0  0  0  0  0  0  0
    0.8000   19.5537  -30.5822 H   0  0  0  0  0  0  0  0  0  0  0  0
   -3.6242   21.4642  -26.8691 H   0  0  0  0  0  0  0  0  0  0  0  0
   -4.9694   23.2693  -27.9423 H   0  0  0  0  0  0  0  0  0  0  0  0
   -6.0709   19.4525  -35.0283 H   0  0  0  0  0  0  0  0  0  0  0  0
   -5.5945   17.0722  -35.6233 H   0  0  0  0  0  0  0  0  0  0  0  0
   -5.5160   15.3284  -33.8393 H   0  0  0  0  0  0  0  0  0  0  0  0
   -5.8958   15.9613  -31.4526 H   0  0  0  0  0  0  0  0  0  0  0  0
   -6.3215   18.3475  -30.8442 H   0  0  0  0  0  0  0  0  0  0  0  0
   -9.2874   20.0366  -31.3725 H   0  0  0  0  0  0  0  0  0  0  0  0
   -9.6784   20.8476  -32.9269 H   0  0  0  0  0  0  0  0  0  0  0  0
   -8.7876   19.2877  -32.9269 H   0  0  0  0  0  0  0  0  0  0  0  0
  1  2  1  0
  2  3  2  0
  3  4  1  0
  4  5  1  0
  5  6  2  0
  5  7  2  0
  5  8  1  0
  8  9  2  0
  9 10  1  0
 10 11  2  0
 11 12  1  0
 12 13  2  0
 12 14  2  0
 12 15  1  0
 15 16  1  0
 16 17  1  0
 17 18  1  0
 18 19  1  0
 19 20  1  0
 11 21  1  0
 21 22  2  0
  3 23  1  0
 23 24  2  0
 23 25  1  0
 25 26  1  0
 26 27  2  0
 27 28  1  0
 28 29  2  0
 29 30  1  0
 30 31  2  0
 25 32  1  0
 32 33  1  0
 32  2  1  0
 22  8  1  0
 31 26  1  0
 20 15  1  0
  1 34  1  0
  1 35  1  0
  1 36  1  0
  9 37  1  0
 10 38  1  0
 15 39  1  0
 16 40  1  0
 16 41  1  0
 17 42  1  0
 17 43  1  0
 19 44  1  0
 19 45  1  0
 20 46  1  0
 20 47  1  0
 21 48  1  0
 22 49  1  0
 27 50  1  0
 28 51  1  0
 29 52  1  0
 30 53  1  0
 31 54  1  0
 33 55  1  0
 33 56  1  0
 33 57  1  0
M  CHG  2   4  -1  15   1
M  END
>  <UniqueID>  (16) 
14

>  <SMILES>  (16) 
Cc1c([N-]S(=O)(=O)c2ccc(S(=O)(=O)[NH+]3CCOCC3)cc2)c(=O)n(-c2ccccc2)n1C

>  <Energy>  (16) 
119.81946587361415

>  <Genealogy>  (16) 
Cc1c([N-]S(=O)(=O)c2ccc(S(=O)(=O)[NH+]3CCOCC3)cc2)c(=O)n(-c2ccccc2)n1C (protonated)
Cc1c([N-]S(=O)(=O)c2ccc(S(=O)(=O)[NH+]3CCOCC3)cc2)c(=O)n(-c2ccccc2)n1C (3D coordinates assigned)
Cc1c([N-]S(=O)(=O)c2ccc(S(=O)(=O)[NH+]3CCOCC3)cc2)c(=O)n(-c2ccccc2)n1C (nonaromatic ring conformer: 119.81946587361415 kcal/mol)

>  <smiles>  (16) 
Cc1c(NS(=O)(=O)c2ccc(S(=O)(=O)N3CCOCC3)cc2)c(=O)n(-c2ccccc2)n1C

>  <score_type>  (16) 
oracle

>  <origin>  (16) 
adgpu

>  <m_score__min__energy>  (16) 
-11.58

>  <m_primary>  (16) 
energy

$$$$
16:0
     RDKit          3D

 37 39  0  0  0  0  0  0  0  0999 V2000
    0.6660   21.0530  -27.7270 C   0  0  0  0  0  0  0  0  0  0  0  0
   -0.0050   22.3500  -28.0710 C   0  0  0  0  0  0  0  0  0  0  0  0
    0.3490   23.5320  -27.4070 C   0  0  0  0  0  0  0  0  0  0  0  0
   -0.2990   24.7310  -27.7130 C   0  0  0  0  0  0  0  0  0  0  0  0
   -1.3100   24.7640  -28.6790 C   0  0  0  0  0  0  0  0  0  0  0  0
   -1.9250   25.9840  -28.9640 O   0  0  0  0  0  0  0  0  0  0  0  0
   -1.6860   23.5810  -29.3440 C   0  0  0  0  0  0  0  0  0  0  0  0
   -2.7250   23.6340  -30.3350 N   0  0  0  0  0  0  0  0  0  0  0  0
   -4.2650   24.4080  -30.1340 S   0  0  0  0  0  0  0  0  0  0  0  0
   -4.4770   24.7080  -28.6760 O   0  0  0  0  0  0  0  0  0  0  0  0
   -4.2720   25.6970  -30.9070 O   0  0  0  0  0  0  0  0  0  0  0  0
   -5.5460   23.3700  -30.7500 C   0  0  0  0  0  0  0  0  0  0  0  0
   -6.8780   23.8460  -30.8240 C   0  0  0  0  0  0  0  0  0  0  0  0
   -7.9120   23.0150  -31.2890 C   0  0  0  0  0  0  0  0  0  0  0  0
   -7.5810   21.7140  -31.6780 C   0  0  0  0  0  0  0  0  0  0  0  0
   -6.2900   21.2520  -31.6050 C   0  0  0  0  0  0  0  0  0  0  0  0
   -5.2450   22.0510  -31.1500 C   0  0  0  0  0  0  0  0  0  0  0  0
   -6.2880   19.9360  -32.0220 C   0  0  0  0  0  0  0  0  0  0  0  0
   -7.6150   19.6660  -32.3320 C   0  0  0  0  0  0  0  0  0  0  0  0
   -8.0850   18.4360  -32.7790 O   0  0  0  0  0  0  0  0  0  0  0  0
   -8.4030   20.7500  -32.1360 N   0  0  0  0  0  0  0  0  0  0  0  0
   -9.8510   20.8290  -32.3050 C   0  0  0  0  0  0  0  0  0  0  0  0
   -1.0350   22.3740  -29.0240 C   0  0  0  0  0  0  0  0  0  0  0  0
    0.7207   20.9472  -26.6335 H   0  0  0  0  0  0  0  0  0  0  0  0
    0.0869   20.2177  -28.1477 H   0  0  0  0  0  0  0  0  0  0  0  0
    1.6823   21.0431  -28.1477 H   0  0  0  0  0  0  0  0  0  0  0  0
    1.1396   23.5157  -26.6424 H   0  0  0  0  0  0  0  0  0  0  0  0
   -0.0122   25.6556  -27.1907 H   0  0  0  0  0  0  0  0  0  0  0  0
   -2.8600   26.0470  -29.3500 H   0  0  0  0  0  0  0  0  0  0  0  0
   -7.1057   24.8767  -30.5144 H   0  0  0  0  0  0  0  0  0  0  0  0
   -8.9491   23.3773  -31.3450 H   0  0  0  0  0  0  0  0  0  0  0  0
   -4.2157   21.6657  -31.1037 H   0  0  0  0  0  0  0  0  0  0  0  0
   -5.4280   19.2538  -32.0929 H   0  0  0  0  0  0  0  0  0  0  0  0
  -10.3345   20.8554  -31.3173 H   0  0  0  0  0  0  0  0  0  0  0  0
  -10.1058   21.7424  -32.8625 H   0  0  0  0  0  0  0  0  0  0  0  0
  -10.2037   19.9488  -32.8625 H   0  0  0  0  0  0  0  0  0  0  0  0
   -1.3363   21.4423  -29.5251 H   0  0  0  0  0  0  0  0  0  0  0  0
  1  2  1  0
  2  3  2  0
  3  4  1  0
  4  5  2  0
  5  6  1  0
  5  7  1  0
  7  8  1  0
  8  9  1  0
  9 10  2  0
  9 11  2  0
  9 12  1  0
 12 13  2  0
 13 14  1  0
 14 15  2  0
 15 16  1  0
 16 17  2  0
 16 18  1  0
 18 19  2  0
 19 20  1  0
 19 21  1  0
 21 22  1  0
  7 23  2  0
 23  2  1  0
 17 12  1  0
 21 15  1  0
  1 24  1  0
  1 25  1  0
  1 26  1  0
  3 27  1  0
  4 28  1  0
  6 29  1  0
 13 30  1  0
 14 31  1  0
 17 32  1  0
 18 33  1  0
 22 34  1  0
 22 35  1  0
 22 36  1  0
 23 37  1  0
M  CHG  2   8  -1  20  -1
M  END
>  <UniqueID>  (17) 
15

>  <SMILES>  (17) 
Cc1ccc(O)c([N-]S(=O)(=O)c2ccc3c(c2)cc([O-])n3C)c1

>  <Energy>  (17) 
75.65592107768039

>  <Genealogy>  (17) 
Cc1ccc(O)c([N-]S(=O)(=O)c2ccc3c(c2)cc([O-])n3C)c1 (protonated)
Cc1ccc(O)c([N-]S(=O)(=O)c2ccc3c(c2)cc([O-])n3C)c1 (3D coordinates assigned)
Cc1ccc(O)c([N-]S(=O)(=O)c2ccc3c(c2)cc([O-])n3C)c1 (optimized conformer: 75.65592107768039 kcal/mol)

>  <smiles>  (17) 
Cc1ccc(O)c(NS(=O)(=O)c2ccc3c(c2)cc(O)n3C)c1

>  <score_type>  (17) 
oracle

>  <origin>  (17) 
adgpu

>  <m_score__min__energy>  (17) 
-10.550000000000001

>  <m_primary>  (17) 
energy

$$$$
17:0
     RDKit          3D

 54 57  0  0  0  0  0  0  0  0999 V2000
   -4.3510   17.0850  -35.3230 C   0  0  0  0  0  0  0  0  0  0  0  0
   -5.2850   17.5890  -34.2630 C   0  0  0  0  0  0  0  0  0  0  0  0
   -6.3880   16.8150  -33.8710 C   0  0  0  0  0  0  0  0  0  0  0  0
   -7.2770   17.2970  -32.9080 C   0  0  0  0  0  0  0  0  0  0  0  0
   -7.0810   18.5570  -32.3380 C   0  0  0  0  0  0  0  0  0  0  0  0
   -5.9920   19.3550  -32.7320 C   0  0  0  0  0  0  0  0  0  0  0  0
   -5.7910   20.7000  -32.1350 C   0  0  0  0  0  0  0  0  0  0  0  0
   -4.5080   21.2750  -32.0850 C   0  0  0  0  0  0  0  0  0  0  0  0
   -4.3170   22.5350  -31.5110 C   0  0  0  0  0  0  0  0  0  0  0  0
   -5.4040   23.2390  -30.9770 C   0  0  0  0  0  0  0  0  0  0  0  0
   -5.1670   24.7920  -30.1790 S   0  0  0  0  0  0  0  0  0  0  0  0
   -6.5000   25.4740  -30.0480 O   0  0  0  0  0  0  0  0  0  0  0  0
   -4.2440   25.6680  -30.9790 O   0  0  0  0  0  0  0  0  0  0  0  0
   -4.4880   24.5400  -28.6020 N   0  0  0  0  0  0  0  0  0  0  0  0
   -3.2670   23.8100  -28.3830 C   0  0  0  0  0  0  0  0  0  0  0  0
   -3.2830   22.5240  -27.8250 C   0  0  0  0  0  0  0  0  0  0  0  0
   -2.0970   21.8170  -27.5500 C   0  0  0  0  0  0  0  0  0  0  0  0
   -0.8480   22.4100  -27.9140 C   0  0  0  0  0  0  0  0  0  0  0  0
   -0.8510   23.6920  -28.4960 C   0  0  0  0  0  0  0  0  0  0  0  0
   -2.0390   24.3830  -28.7280 C   0  0  0  0  0  0  0  0  0  0  0  0
   -1.9850   25.6530  -29.2930 O   0  0  0  0  0  0  0  0  0  0  0  0
    0.5040   21.7940  -27.6230 C   0  0  0  0  0  0  0  0  0  0  0  0
    0.5990   20.4210  -28.1240 N   0  0  0  0  0  0  0  0  0  0  0  0
    1.8650   19.6860  -28.0680 C   0  0  0  0  0  0  0  0  0  0  0  0
   -0.5740   19.7840  -28.6460 C   0  0  0  0  0  0  0  0  0  0  0  0
   -0.7610   19.7130  -29.8910 O   0  0  0  0  0  0  0  0  0  0  0  0
   -1.6180   19.2560  -27.7120 C   0  0  0  0  0  0  0  0  0  0  0  0
   -2.2960   20.4140  -26.9830 C   0  0  0  0  0  0  0  0  0  0  0  0
   -6.6840   22.6760  -31.0300 C   0  0  0  0  0  0  0  0  0  0  0  0
   -6.8790   21.4180  -31.6050 C   0  0  0  0  0  0  0  0  0  0  0  0
   -5.1010   18.8630  -33.7020 C   0  0  0  0  0  0  0  0  0  0  0  0
   -3.4777   16.6138  -34.8483 H   0  0  0  0  0  0  0  0  0  0  0  0
   -4.8717   16.3454  -35.9490 H   0  0  0  0  0  0  0  0  0  0  0  0
   -4.0187   17.9262  -35.9490 H   0  0  0  0  0  0  0  0  0  0  0  0
   -6.5527   15.8260  -34.3235 H   0  0  0  0  0  0  0  0  0  0  0  0
   -8.1346   16.6823  -32.5972 H   0  0  0  0  0  0  0  0  0  0  0  0
   -7.7827   18.9275  -31.5762 H   0  0  0  0  0  0  0  0  0  0  0  0
   -3.6485   20.7287  -32.5008 H   0  0  0  0  0  0  0  0  0  0  0  0
   -3.3095   22.9754  -31.4785 H   0  0  0  0  0  0  0  0  0  0  0  0
   -5.0820   24.8080  -27.7860 H   0  0  0  0  0  0  0  0  0  0  0  0
   -4.2505   22.0536  -27.5953 H   0  0  0  0  0  0  0  0  0  0  0  0
    0.1056   24.1587  -28.7738 H   0  0  0  0  0  0  0  0  0  0  0  0
    1.2831   22.4029  -28.1049 H   0  0  0  0  0  0  0  0  0  0  0  0
    0.6385   21.7682  -26.5316 H   0  0  0  0  0  0  0  0  0  0  0  0
    2.1476   19.5219  -27.0177 H   0  0  0  0  0  0  0  0  0  0  0  0
    1.7481   18.7154  -28.5722 H   0  0  0  0  0  0  0  0  0  0  0  0
    2.6500   20.2688  -28.5722 H   0  0  0  0  0  0  0  0  0  0  0  0
   -2.3707   18.6953  -28.2856 H   0  0  0  0  0  0  0  0  0  0  0  0
   -1.1425   18.5924  -26.9748 H   0  0  0  0  0  0  0  0  0  0  0  0
   -3.3772   20.2115  -26.9767 H   0  0  0  0  0  0  0  0  0  0  0  0
   -1.8165   20.4412  -25.9934 H   0  0  0  0  0  0  0  0  0  0  0  0
   -7.5415   23.2272  -30.6165 H   0  0  0  0  0  0  0  0  0  0  0  0
   -7.8898   20.9857  -31.6438 H   0  0  0  0  0  0  0  0  0  0  0  0
   -4.2512   19.4824  -34.0247 H   0  0  0  0  0  0  0  0  0  0  0  0
  1  2  1  0
  2  3  2  0
  3  4  1  0
  4  5  2  0
  5  6  1  0
  6  7  1  0
  7  8  2  0
  8  9  1  0
  9 10  2  0
 10 11  1  0
 11 12  2  0
 11 13  2  0
 11 14  1  0
 14 15  1  0
 15 16  2  0
 16 17  1  0
 17 18  2  0
 18 19  1  0
 19 20  2  0
 20 21  1  0
 18 22  1  0
 22 23  1  0
 23 24  1  0
 23 25  1  0
 25 26  2  0
 25 27  1  0
 27 28  1  0
 10 29  1  0
 29 30  2  0
  6 31  2  0
 31  2  1  0
 30  7  1  0
 20 15  1  0
 28 17  1  0
  1 32  1  0
  1 33  1  0
  1 34  1  0
  3 35  1  0
  4 36  1  0
  5 37  1  0
  8 38  1  0
  9 39  1  0
 14 40  1  0
 16 41  1  0
 19 42  1  0
 22 43  1  0
 22 44  1  0
 24 45  1  0
 24 46  1  0
 24 47  1  0
 27 48  1  0
 27 49  1  0
 28 50  1  0
 28 51  1  0
 29 52  1  0
 30 53  1  0
 31 54  1  0
M  CHG  1  21  -1
M  END
>  <UniqueID>  (18) 
16

>  <SMILES>  (18) 
Cc1cccc(-c2ccc(S(=O)(=O)Nc3cc4c(cc3[O-])CN(C)C(=O)CC4)cc2)c1

>  <Energy>  (18) 
71.7703070891812

>  <Genealogy>  (18) 
Cc1cccc(-c2ccc(S(=O)(=O)Nc3cc4c(cc3[O-])CN(C)C(=O)CC4)cc2)c1 (protonated)
Cc1cccc(-c2ccc(S(=O)(=O)Nc3cc4c(cc3[O-])CN(C)C(=O)CC4)cc2)c1 (3D coordinates assigned)
Cc1cccc(-c2ccc(S(=O)(=O)Nc3cc4c(cc3[O-])CN(C)C(=O)CC4)cc2)c1 (nonaromatic ring conformer: 71.7703070891812 kcal/mol)

>  <smiles>  (18) 
Cc1cccc(-c2ccc(S(=O)(=O)Nc3cc4c(cc3O)CN(C)C(=O)CC4)cc2)c1

>  <score_type>  (18) 
oracle

>  <origin>  (18) 
adgpu

>  <m_score__min__energy>  (18) 
-12.779999999999999

>  <m_primary>  (18) 
energy

$$$$
18:0
     RDKit          3D

 60 63  0  0  0  0  0  0  0  0999 V2000
   -1.4400   21.4830  -26.5850 C   0  0  0  0  0  0  0  0  0  0  0  0
   -2.0080   22.5100  -27.5310 C   0  0  0  0  0  0  0  0  0  0  0  0
   -3.3000   22.3020  -28.0350 C   0  0  0  0  0  0  0  0  0  0  0  0
   -3.8710   23.2070  -28.9240 C   0  0  0  0  0  0  0  0  0  0  0  0
   -3.1570   24.3360  -29.3460 C   0  0  0  0  0  0  0  0  0  0  0  0
   -3.7420   25.2780  -30.2580 N   0  0  0  0  0  0  0  0  0  0  0  0
   -5.0720   25.2310  -30.7850 C   0  0  0  0  0  0  0  0  0  0  0  0
   -5.9790   25.8830  -30.2060 O   0  0  0  0  0  0  0  0  0  0  0  0
   -5.3640   24.4560  -31.9570 N   0  0  0  0  0  0  0  0  0  0  0  0
   -5.8390   23.1030  -31.9920 C   0  0  0  0  0  0  0  0  0  0  0  0
   -7.2140   22.8790  -32.1430 C   0  0  0  0  0  0  0  0  0  0  0  0
   -7.7200   21.5760  -32.1630 C   0  0  0  0  0  0  0  0  0  0  0  0
   -6.8580   20.4830  -32.0110 C   0  0  0  0  0  0  0  0  0  0  0  0
   -7.4750   18.8310  -32.0480 S   0  0  0  0  0  0  0  0  0  0  0  0
   -6.9460   18.0980  -30.8470 O   0  0  0  0  0  0  0  0  0  0  0  0
   -8.9780   18.8380  -31.9910 O   0  0  0  0  0  0  0  0  0  0  0  0
   -6.9430   18.0330  -33.5080 N   0  0  0  0  0  0  0  0  0  0  0  0
   -6.3040   16.7440  -33.1720 C   0  0  0  0  0  0  0  0  0  0  0  0
   -5.4280   16.2420  -34.3260 C   0  0  0  0  0  0  0  0  0  0  0  0
   -4.3370   17.1920  -34.6620 N   0  0  0  0  0  0  0  0  0  0  0  0
   -3.0410   16.7250  -34.1480 C   0  0  0  0  0  0  0  0  0  0  0  0
   -4.5960   18.5780  -34.2120 C   0  0  0  0  0  0  0  0  0  0  0  0
   -6.0880   18.9300  -34.3230 C   0  0  0  0  0  0  0  0  0  0  0  0
   -5.4870   20.7030  -31.8360 C   0  0  0  0  0  0  0  0  0  0  0  0
   -4.9780   22.0060  -31.8180 C   0  0  0  0  0  0  0  0  0  0  0  0
   -1.8760   24.5850  -28.8170 C   0  0  0  0  0  0  0  0  0  0  0  0
   -1.1670   25.7190  -29.2190 O   0  0  0  0  0  0  0  0  0  0  0  0
   -1.2960   23.6850  -27.8930 C   0  0  0  0  0  0  0  0  0  0  0  0
    0.3280   24.0160  -27.2340 S   0  0  0  0  0  0  0  0  0  0  0  0
    1.0980   24.8640  -28.2050 O   0  0  0  0  0  0  0  0  0  0  0  0
    1.0940   22.7340  -27.0620 O   0  0  0  0  0  0  0  0  0  0  0  0
    0.2860   24.8610  -25.6500 C   0  0  0  0  0  0  0  0  0  0  0  0
   -1.0630   25.3800  -25.1740 C   0  0  0  0  0  0  0  0  0  0  0  0
   -0.4840   24.1070  -24.5780 C   0  0  0  0  0  0  0  0  0  0  0  0
   -1.6168   21.8027  -25.5475 H   0  0  0  0  0  0  0  0  0  0  0  0
   -1.9303   20.5137  -26.7586 H   0  0  0  0  0  0  0  0  0  0  0  0
   -0.3584   21.3831  -26.7586 H   0  0  0  0  0  0  0  0  0  0  0  0
   -3.8684   21.4131  -27.7239 H   0  0  0  0  0  0  0  0  0  0  0  0
   -4.8909   23.0348  -29.2984 H   0  0  0  0  0  0  0  0  0  0  0  0
   -7.8991   23.7333  -32.2464 H   0  0  0  0  0  0  0  0  0  0  0  0
   -8.7987   21.4088  -32.2986 H   0  0  0  0  0  0  0  0  0  0  0  0
   -5.6777   16.8764  -32.2774 H   0  0  0  0  0  0  0  0  0  0  0  0
   -7.0941   16.0016  -32.9859 H   0  0  0  0  0  0  0  0  0  0  0  0
   -4.9817   15.2788  -34.0378 H   0  0  0  0  0  0  0  0  0  0  0  0
   -6.0690   16.1390  -35.2140 H   0  0  0  0  0  0  0  0  0  0  0  0
   -3.0589   16.7314  -33.0482 H   0  0  0  0  0  0  0  0  0  0  0  0
   -2.8517   15.7021  -34.5056 H   0  0  0  0  0  0  0  0  0  0  0  0
   -2.2428   17.3921  -34.5056 H   0  0  0  0  0  0  0  0  0  0  0  0
   -4.2808   18.6793  -33.1630 H   0  0  0  0  0  0  0  0  0  0  0  0
   -4.0277   19.2648  -34.8564 H   0  0  0  0  0  0  0  0  0  0  0  0
   -6.2333   19.9648  -33.9793 H   0  0  0  0  0  0  0  0  0  0  0  0
   -6.3835   18.8095  -35.3757 H   0  0  0  0  0  0  0  0  0  0  0  0
   -4.8066   19.8476  -31.7121 H   0  0  0  0  0  0  0  0  0  0  0  0
   -3.9011   22.1723  -31.6673 H   0  0  0  0  0  0  0  0  0  0  0  0
   -0.1600   25.7930  -29.1460 H   0  0  0  0  0  0  0  0  0  0  0  0
    1.2825   25.3161  -25.7489 H   0  0  0  0  0  0  0  0  0  0  0  0
   -1.1171   26.2962  -24.5677 H   0  0  0  0  0  0  0  0  0  0  0  0
   -2.0103   25.6487  -25.6643 H   0  0  0  0  0  0  0  0  0  0  0  0
   -0.1196   24.1021  -23.5401 H   0  0  0  0  0  0  0  0  0  0  0  0
   -0.8395   23.0729  -24.4584 H   0  0  0  0  0  0  0  0  0  0  0  0
  1  2  1  0
  2  3  2  0
  3  4  1  0
  4  5  2  0
  5  6  1  0
  6  7  1  0
  7  8  2  0
  7  9  1  0
  9 10  1  0
 10 11  2  0
 11 12  1  0
 12 13  2  0
 13 14  1  0
 14 15  2  0
 14 16  2  0
 14 17  1  0
 17 18  1  0
 18 19  1  0
 19 20  1  0
 20 21  1  0
 20 22  1  0
 22 23  1  0
 13 24  1  0
 24 25  2  0
  5 26  1  0
 26 27  1  0
 26 28  2  0
 28 29  1  0
 29 30  2  0
 29 31  2  0
 29 32  1  0
 32 33  1  0
 33 34  1  0
 28  2  1  0
 34 32  1  0
 25 10  1  0
 23 17  1  0
  1 35  1  0
  1 36  1  0
  1 37  1  0
  3 38  1  0
  4 39  1  0
 11 40  1  0
 12 41  1  0
 18 42  1  0
 18 43  1  0
 19 44  1  0
 19 45  1  0
 21 46  1  0
 21 47  1  0
 21 48  1  0
 22 49  1  0
 22 50  1  0
 23 51  1  0
 23 52  1  0
 24 53  1  0
 25 54  1  0
 27 55  1  0
 32 56  1  0
 33 57  1  0
 33 58  1  0
 34 59  1  0
 34 60  1  0
M  CHG  2   6  -1   9  -1
M  END
>  <UniqueID>  (19) 
17

>  <SMILES>  (19) 
Cc1ccc([N-]C(=O)[N-]c2ccc(S(=O)(=O)N3CCN(C)CC3)cc2)c(O)c1S(=O)(=O)C1CC1

>  <Energy>  (19) 
345.9949206403068

>  <Genealogy>  (19) 
Cc1ccc([N-]C(=O)[N-]c2ccc(S(=O)(=O)N3CCN(C)CC3)cc2)c(O)c1S(=O)(=O)C1CC1 (protonated)
Cc1ccc([N-]C(=O)[N-]c2ccc(S(=O)(=O)N3CCN(C)CC3)cc2)c(O)c1S(=O)(=O)C1CC1 (3D coordinates assigned)
Cc1ccc([N-]C(=O)[N-]c2ccc(S(=O)(=O)N3CCN(C)CC3)cc2)c(O)c1S(=O)(=O)C1CC1 (nonaromatic ring conformer: 345.9949206403068 kcal/mol)

>  <smiles>  (19) 
Cc1ccc(NC(=O)Nc2ccc(S(=O)(=O)N3CCN(C)CC3)cc2)c(O)c1S(=O)(=O)C1CC1

>  <score_type>  (19) 
oracle

>  <origin>  (19) 
adgpu

>  <m_score__min__energy>  (19) 
-14.35

>  <m_primary>  (19) 
energy

$$$$
19:0
     RDKit          3D

 38 40  0  0  0  0  0  0  0  0999 V2000
   -0.4670   20.8400  -29.5580 N   0  0  0  0  0  0  0  0  0  0  0  0
   -1.1040   20.8490  -30.5240 C   0  0  0  0  0  0  0  0  0  0  0  0
   -1.8990   20.8600  -31.7270 C   0  0  0  0  0  0  0  0  0  0  0  0
   -2.8320   21.8460  -32.0470 C   0  0  0  0  0  0  0  0  0  0  0  0
   -3.2040   23.0060  -31.2900 N   0  0  0  0  0  0  0  0  0  0  0  0
   -4.5620   23.4210  -31.0890 C   0  0  0  0  0  0  0  0  0  0  0  0
   -5.6000   22.5120  -31.3310 C   0  0  0  0  0  0  0  0  0  0  0  0
   -6.9350   22.8870  -31.1310 C   0  0  0  0  0  0  0  0  0  0  0  0
   -8.2330   21.7180  -31.3540 S   0  0  0  0  0  0  0  0  0  0  0  0
   -8.9990   21.5870  -30.0670 O   0  0  0  0  0  0  0  0  0  0  0  0
   -9.1750   22.2020  -32.4230 O   0  0  0  0  0  0  0  0  0  0  0  0
   -7.5590   20.1710  -31.8000 N   0  0  0  0  0  0  0  0  0  0  0  0
   -8.6290   19.1650  -31.9140 C   0  0  0  0  0  0  0  0  0  0  0  0
   -8.0490   17.7970  -32.3410 C   0  0  0  0  0  0  0  0  0  0  0  0
   -6.6820   17.8780  -32.7070 O   0  0  0  0  0  0  0  0  0  0  0  0
   -6.5050   18.8970  -33.6690 C   0  0  0  0  0  0  0  0  0  0  0  0
   -6.8070   20.2850  -33.0660 C   0  0  0  0  0  0  0  0  0  0  0  0
   -7.2330   24.1860  -30.7010 C   0  0  0  0  0  0  0  0  0  0  0  0
   -6.2060   25.1080  -30.4880 C   0  0  0  0  0  0  0  0  0  0  0  0
   -4.8730   24.7360  -30.6880 C   0  0  0  0  0  0  0  0  0  0  0  0
   -3.8660   25.6760  -30.4980 O   0  0  0  0  0  0  0  0  0  0  0  0
   -3.5780   21.3290  -33.4430 S   0  0  0  0  0  0  0  0  0  0  0  0
   -2.7510   19.9100  -33.7120 N   0  0  0  0  0  0  0  0  0  0  0  0
   -1.8770   19.8120  -32.6760 C   0  0  0  0  0  0  0  0  0  0  0  0
   -1.1010   18.8250  -32.5730 O   0  0  0  0  0  0  0  0  0  0  0  0
   -2.4400   23.5980  -30.8960 H   0  0  0  0  0  0  0  0  0  0  0  0
   -5.3651   21.4959  -31.6808 H   0  0  0  0  0  0  0  0  0  0  0  0
   -6.9020   19.8850  -31.0350 H   0  0  0  0  0  0  0  0  0  0  0  0
   -9.1287   19.0573  -30.9400 H   0  0  0  0  0  0  0  0  0  0  0  0
   -9.3481   19.4981  -32.6769 H   0  0  0  0  0  0  0  0  0  0  0  0
   -8.1483   17.0939  -31.5009 H   0  0  0  0  0  0  0  0  0  0  0  0
   -8.6116   17.4556  -33.2224 H   0  0  0  0  0  0  0  0  0  0  0  0
   -5.4646   18.8783  -34.0256 H   0  0  0  0  0  0  0  0  0  0  0  0
   -7.2010   18.7176  -34.5017 H   0  0  0  0  0  0  0  0  0  0  0  0
   -5.8574   20.8054  -32.8725 H   0  0  0  0  0  0  0  0  0  0  0  0
   -7.4215   20.8479  -33.7840 H   0  0  0  0  0  0  0  0  0  0  0  0
   -8.2789   24.4809  -30.5305 H   0  0  0  0  0  0  0  0  0  0  0  0
   -6.4465   26.1306  -30.1617 H   0  0  0  0  0  0  0  0  0  0  0  0
  1  2  3  0
  2  3  1  0
  3  4  2  0
  4  5  1  0
  5  6  1  0
  6  7  2  0
  7  8  1  0
  8  9  1  0
  9 10  2  0
  9 11  2  0
  9 12  1  0
 12 13  1  0
 13 14  1  0
 14 15  1  0
 15 16  1  0
 16 17  1  0
  8 18  2  0
 18 19  1  0
 19 20  2  0
 20 21  1  0
  4 22  1  0
 22 23  1  0
 23 24  1  0
 24 25  2  0
 24  3  1  0
 20  6  1  0
 17 12  1  0
  5 26  1  0
  7 27  1  0
 12 28  1  0
 13 29  1  0
 13 30  1  0
 14 31  1  0
 14 32  1  0
 16 33  1  0
 16 34  1  0
 17 35  1  0
 17 36  1  0
 18 37  1  0
 19 38  1  0
M  CHG  3  12   1  21  -1  23  -1
M  END
>  <UniqueID>  (20) 
18

>  <SMILES>  (20) 
N#Cc1c(Nc2cc(S(=O)(=O)[NH+]3CCOCC3)ccc2[O-])s[n-]c1=O

>  <Energy>  (20) 
85.9662303128548

>  <Genealogy>  (20) 
N#Cc1c(Nc2cc(S(=O)(=O)[NH+]3CCOCC3)ccc2[O-])s[n-]c1=O (protonated)
N#Cc1c(Nc2cc(S(=O)(=O)[NH+]3CCOCC3)ccc2[O-])s[n-]c1=O (3D coordinates assigned)
N#Cc1c(Nc2cc(S(=O)(=O)[NH+]3CCOCC3)ccc2[O-])s[n-]c1=O (nonaromatic ring conformer: 85.9662303128548 kcal/mol)

>  <smiles>  (20) 
N#Cc1c(Nc2cc(S(=O)(=O)N3CCOCC3)ccc2O)s[nH]c1=O

>  <score_type>  (20) 
oracle

>  <origin>  (20) 
adgpu

>  <m_score__min__energy>  (20) 
-11.56

>  <m_primary>  (20) 
energy

$$$$
20:0
     RDKit          3D

 59 62  0  0  0  0  0  0  0  0999 V2000
   -5.7380   25.2420  -29.7530 O   0  0  0  0  0  0  0  0  0  0  0  0
   -4.8890   24.5780  -30.4090 C   0  0  0  0  0  0  0  0  0  0  0  0
   -3.5030   24.9340  -30.3380 N   0  0  0  0  0  0  0  0  0  0  0  0
   -2.5420   24.3520  -29.4470 C   0  0  0  0  0  0  0  0  0  0  0  0
   -2.6660   22.9960  -29.1210 C   0  0  0  0  0  0  0  0  0  0  0  0
   -1.7460   22.3810  -28.2590 C   0  0  0  0  0  0  0  0  0  0  0  0
   -1.9350   20.6820  -27.8200 S   0  0  0  0  0  0  0  0  0  0  0  0
   -2.1340   20.5720  -26.3340 O   0  0  0  0  0  0  0  0  0  0  0  0
   -3.1600   20.1310  -28.4960 O   0  0  0  0  0  0  0  0  0  0  0  0
   -0.5420   19.7390  -28.2910 N   0  0  0  0  0  0  0  0  0  0  0  0
    0.6980   20.3940  -27.8440 C   0  0  0  0  0  0  0  0  0  0  0  0
    1.9230   19.7060  -28.4750 C   0  0  0  0  0  0  0  0  0  0  0  0
    1.6350   18.2480  -28.8780 C   0  0  0  0  0  0  0  0  0  0  0  0
    0.6790   17.5800  -27.8840 C   0  0  0  0  0  0  0  0  0  0  0  0
   -0.6430   18.3690  -27.7440 C   0  0  0  0  0  0  0  0  0  0  0  0
   -0.6800   23.1280  -27.7410 C   0  0  0  0  0  0  0  0  0  0  0  0
   -0.5280   24.4720  -28.0880 C   0  0  0  0  0  0  0  0  0  0  0  0
   -1.4440   25.0850  -28.9490 C   0  0  0  0  0  0  0  0  0  0  0  0
   -1.2350   26.4060  -29.3280 O   0  0  0  0  0  0  0  0  0  0  0  0
   -5.3270   23.3960  -31.1950 C   0  0  0  0  0  0  0  0  0  0  0  0
   -4.3670   22.4520  -31.6130 C   0  0  0  0  0  0  0  0  0  0  0  0
   -4.7450   21.3180  -32.3430 C   0  0  0  0  0  0  0  0  0  0  0  0
   -3.5270   20.1490  -32.8670 S   0  0  0  0  0  0  0  0  0  0  0  0
   -2.9910   20.5680  -34.2090 O   0  0  0  0  0  0  0  0  0  0  0  0
   -4.1790   18.8030  -33.0280 O   0  0  0  0  0  0  0  0  0  0  0  0
   -2.1990   20.0010  -31.7410 N   0  0  0  0  0  0  0  0  0  0  0  0
   -1.2720   18.9360  -32.1190 C   0  0  0  0  0  0  0  0  0  0  0  0
    0.0690   19.2970  -31.5000 C   0  0  0  0  0  0  0  0  0  0  0  0
   -0.0110   20.7890  -31.2060 C   0  0  0  0  0  0  0  0  0  0  0  0
   -1.3920   21.2170  -31.6780 C   0  0  0  0  0  0  0  0  0  0  0  0
   -6.0900   21.1290  -32.6790 C   0  0  0  0  0  0  0  0  0  0  0  0
   -7.0520   22.0540  -32.2720 C   0  0  0  0  0  0  0  0  0  0  0  0
   -6.6840   23.1840  -31.5290 C   0  0  0  0  0  0  0  0  0  0  0  0
   -7.6700   24.0780  -31.1130 O   0  0  0  0  0  0  0  0  0  0  0  0
   -3.4928   22.4073  -29.5449 H   0  0  0  0  0  0  0  0  0  0  0  0
    0.6795   21.4513  -28.1469 H   0  0  0  0  0  0  0  0  0  0  0  0
    0.7688   20.3170  -26.7490 H   0  0  0  0  0  0  0  0  0  0  0  0
    2.2206   20.2683  -29.3724 H   0  0  0  0  0  0  0  0  0  0  0  0
    2.7252   19.6936  -27.7224 H   0  0  0  0  0  0  0  0  0  0  0  0
    1.1791   18.2352  -29.8790 H   0  0  0  0  0  0  0  0  0  0  0  0
    2.5838   17.6915  -28.8784 H   0  0  0  0  0  0  0  0  0  0  0  0
    0.4517   16.5631  -28.2364 H   0  0  0  0  0  0  0  0  0  0  0  0
    1.1697   17.5555  -26.8998 H   0  0  0  0  0  0  0  0  0  0  0  0
   -1.4350   17.8302  -28.2847 H   0  0  0  0  0  0  0  0  0  0  0  0
   -0.8722   18.4520  -26.6714 H   0  0  0  0  0  0  0  0  0  0  0  0
    0.0403   22.6538  -27.0581 H   0  0  0  0  0  0  0  0  0  0  0  0
    0.3152   25.0507  -27.6827 H   0  0  0  0  0  0  0  0  0  0  0  0
   -3.3073   22.6081  -31.3626 H   0  0  0  0  0  0  0  0  0  0  0  0
   -1.6234   17.9692  -31.7292 H   0  0  0  0  0  0  0  0  0  0  0  0
   -1.1952   18.8426  -33.2123 H   0  0  0  0  0  0  0  0  0  0  0  0
    0.2296   18.7297  -30.5714 H   0  0  0  0  0  0  0  0  0  0  0  0
    0.9074   19.0561  -32.1701 H   0  0  0  0  0  0  0  0  0  0  0  0
    0.1030   20.9760  -30.1280 H   0  0  0  0  0  0  0  0  0  0  0  0
    0.7880   21.3504  -31.7124 H   0  0  0  0  0  0  0  0  0  0  0  0
   -1.8334   21.9306  -30.9667 H   0  0  0  0  0  0  0  0  0  0  0  0
   -1.3430   21.7155  -32.6574 H   0  0  0  0  0  0  0  0  0  0  0  0
   -6.3899   20.2483  -33.2659 H   0  0  0  0  0  0  0  0  0  0  0  0
   -8.1079   21.8951  -32.5364 H   0  0  0  0  0  0  0  0  0  0  0  0
   -7.4630   24.8440  -30.4810 H   0  0  0  0  0  0  0  0  0  0  0  0
  1  2  2  0
  2  3  1  0
  3  4  1  0
  4  5  2  0
  5  6  1  0
  6  7  1  0
  7  8  2  0
  7  9  2  0
  7 10  1  0
 10 11  1  0
 11 12  1  0
 12 13  1  0
 13 14  1  0
 14 15  1  0
  6 16  2  0
 16 17  1  0
 17 18  2  0
 18 19  1  0
  2 20  1  0
 20 21  2  0
 21 22  1  0
 22 23  1  0
 23 24  2  0
 23 25  2  0
 23 26  1  0
 26 27  1  0
 27 28  1  0
 28 29  1  0
 29 30  1  0
 22 31  2  0
 31 32  1  0
 32 33  2  0
 33 34  1  0
 18  4  1  0
 33 20  1  0
 15 10  1  0
 30 26  1  0
  5 35  1  0
 11 36  1  0
 11 37  1  0
 12 38  1  0
 12 39  1  0
 13 40  1  0
 13 41  1  0
 14 42  1  0
 14 43  1  0
 15 44  1  0
 15 45  1  0
 16 46  1  0
 17 47  1  0
 21 48  1  0
 27 49  1  0
 27 50  1  0
 28 51  1  0
 28 52  1  0
 29 53  1  0
 29 54  1  0
 30 55  1  0
 30 56  1  0
 31 57  1  0
 32 58  1  0
 34 59  1  0
M  CHG  2   3  -1  19  -1
M  END
>  <UniqueID>  (21) 
19

>  <SMILES>  (21) 
O=C([N-]c1cc(S(=O)(=O)N2CCCCC2)ccc1[O-])c1cc(S(=O)(=O)N2CCCC2)ccc1O

>  <Energy>  (21) 
72.63556260609317

>  <Genealogy>  (21) 
O=C([N-]c1cc(S(=O)(=O)N2CCCCC2)ccc1[O-])c1cc(S(=O)(=O)N2CCCC2)ccc1O (protonated)
O=C([N-]c1cc(S(=O)(=O)N2CCCCC2)ccc1[O-])c1cc(S(=O)(=O)N2CCCC2)ccc1O (3D coordinates assigned)
O=C([N-]c1cc(S(=O)(=O)N2CCCCC2)ccc1[O-])c1cc(S(=O)(=O)N2CCCC2)ccc1O (nonaromatic ring conformer: 72.63556260609317 kcal/mol)

>  <smiles>  (21) 
O=C(Nc1cc(S(=O)(=O)N2CCCCC2)ccc1O)c1cc(S(=O)(=O)N2CCCC2)ccc1O

>  <score_type>  (21) 
oracle

>  <origin>  (21) 
adgpu

>  <m_score__min__energy>  (21) 
-14.960000000000001

>  <m_primary>  (21) 
energy

$$$$
21:0
     RDKit          3D

 37 39  0  0  0  0  0  0  0  0999 V2000
   -1.8990   21.9080  -30.8040 O   0  0  0  0  0  0  0  0  0  0  0  0
   -2.2360   22.9630  -30.2000 C   0  0  0  0  0  0  0  0  0  0  0  0
   -3.1080   23.9030  -30.8380 N   0  0  0  0  0  0  0  0  0  0  0  0
   -4.5420   23.8680  -30.8110 C   0  0  0  0  0  0  0  0  0  0  0  0
   -5.2730   24.7120  -29.9540 C   0  0  0  0  0  0  0  0  0  0  0  0
   -6.6710   24.7110  -29.9850 C   0  0  0  0  0  0  0  0  0  0  0  0
   -7.3510   23.8810  -30.8790 C   0  0  0  0  0  0  0  0  0  0  0  0
   -6.6350   23.0490  -31.7430 C   0  0  0  0  0  0  0  0  0  0  0  0
   -5.2330   23.0350  -31.7100 C   0  0  0  0  0  0  0  0  0  0  0  0
   -4.3400   21.9210  -32.8020 S   0  0  0  0  0  0  0  0  0  0  0  0
   -5.4960   20.5770  -32.5280 C   0  0  0  0  0  0  0  0  0  0  0  0
   -6.6880   20.5050  -33.2610 C   0  0  0  0  0  0  0  0  0  0  0  0
   -7.5810   19.4500  -33.0470 C   0  0  0  0  0  0  0  0  0  0  0  0
   -7.2870   18.4670  -32.0970 C   0  0  0  0  0  0  0  0  0  0  0  0
   -6.1010   18.5380  -31.3610 C   0  0  0  0  0  0  0  0  0  0  0  0
   -5.2060   19.5910  -31.5750 C   0  0  0  0  0  0  0  0  0  0  0  0
   -1.7480   23.2000  -28.8210 C   0  0  0  0  0  0  0  0  0  0  0  0
   -1.5160   22.0820  -27.9970 C   0  0  0  0  0  0  0  0  0  0  0  0
   -1.1350   22.2450  -26.6630 C   0  0  0  0  0  0  0  0  0  0  0  0
   -0.9830   23.5250  -26.1310 C   0  0  0  0  0  0  0  0  0  0  0  0
   -1.1910   24.6440  -26.9370 C   0  0  0  0  0  0  0  0  0  0  0  0
   -1.5500   24.4990  -28.2830 C   0  0  0  0  0  0  0  0  0  0  0  0
   -1.6630   25.6610  -29.0500 O   0  0  0  0  0  0  0  0  0  0  0  0
   -4.7417   25.3759  -29.2562 H   0  0  0  0  0  0  0  0  0  0  0  0
   -7.2359   25.3648  -29.3043 H   0  0  0  0  0  0  0  0  0  0  0  0
   -8.4507   23.8824  -30.9028 H   0  0  0  0  0  0  0  0  0  0  0  0
   -7.1729   22.4024  -32.4519 H   0  0  0  0  0  0  0  0  0  0  0  0
   -6.9219   21.2796  -34.0061 H   0  0  0  0  0  0  0  0  0  0  0  0
   -8.5146   19.3936  -33.6260 H   0  0  0  0  0  0  0  0  0  0  0  0
   -7.9895   17.6374  -31.9289 H   0  0  0  0  0  0  0  0  0  0  0  0
   -5.8714   17.7650  -30.6128 H   0  0  0  0  0  0  0  0  0  0  0  0
   -4.2732   19.6455  -30.9946 H   0  0  0  0  0  0  0  0  0  0  0  0
   -1.6361   21.0689  -28.4084 H   0  0  0  0  0  0  0  0  0  0  0  0
   -0.9547   21.3626  -26.0314 H   0  0  0  0  0  0  0  0  0  0  0  0
   -0.6991   23.6521  -25.0759 H   0  0  0  0  0  0  0  0  0  0  0  0
   -1.0718   25.6512  -26.5111 H   0  0  0  0  0  0  0  0  0  0  0  0
   -2.0160   25.6740  -29.9940 H   0  0  0  0  0  0  0  0  0  0  0  0
  1  2  2  0
  2  3  1  0
  3  4  1  0
  4  5  2  0
  5  6  1  0
  6  7  2  0
  7  8  1  0
  8  9  2  0
  9 10  1  0
 10 11  1  0
 11 12  2  0
 12 13  1  0
 13 14  2  0
 14 15  1  0
 15 16  2  0
  2 17  1  0
 17 18  2  0
 18 19  1  0
 19 20  2  0
 20 21  1  0
 21 22  2  0
 22 23  1  0
  9  4  1  0
 16 11  1  0
 22 17  1  0
  5 24  1  0
  6 25  1  0
  7 26  1  0
  8 27  1  0
 12 28  1  0
 13 29  1  0
 14 30  1  0
 15 31  1  0
 16 32  1  0
 18 33  1  0
 19 34  1  0
 20 35  1  0
 21 36  1  0
 23 37  1  0
M  CHG  1   3  -1
M  END
>  <UniqueID>  (22) 
20

>  <SMILES>  (22) 
O=C([N-]c1ccccc1Sc1ccccc1)c1ccccc1O

>  <Energy>  (22) 
44.8125131501217

>  <Genealogy>  (22) 
O=C([N-]c1ccccc1Sc1ccccc1)c1ccccc1O (protonated)
O=C([N-]c1ccccc1Sc1ccccc1)c1ccccc1O (3D coordinates assigned)
O=C([N-]c1ccccc1Sc1ccccc1)c1ccccc1O (optimized conformer: 44.8125131501217 kcal/mol)

>  <smiles>  (22) 
O=C(Nc1ccccc1Sc1ccccc1)c1ccccc1O

>  <score_type>  (22) 
oracle

>  <origin>  (22) 
adgpu

>  <m_score__min__energy>  (22) 
-10.470000000000001

>  <m_primary>  (22) 
energy

$$$$
22:0
     RDKit          3D

 56 59  0  0  0  0  0  0  0  0999 V2000
   -4.4800   23.1720  -31.9480 O   0  0  0  0  0  0  0  0  0  0  0  0
   -3.3520   22.6940  -31.6580 C   0  0  0  0  0  0  0  0  0  0  0  0
   -2.6840   21.8700  -32.6230 N   0  0  0  0  0  0  0  0  0  0  0  0
   -3.0280   20.5180  -32.9570 C   0  0  0  0  0  0  0  0  0  0  0  0
   -4.2910   20.0370  -32.5880 C   0  0  0  0  0  0  0  0  0  0  0  0
   -4.6640   18.7180  -32.8760 C   0  0  0  0  0  0  0  0  0  0  0  0
   -6.2530   18.1370  -32.3870 S   0  0  0  0  0  0  0  0  0  0  0  0
   -6.3380   18.1940  -30.8860 O   0  0  0  0  0  0  0  0  0  0  0  0
   -6.4400   16.7100  -32.8250 O   0  0  0  0  0  0  0  0  0  0  0  0
   -7.4930   19.1560  -33.0880 N   0  0  0  0  0  0  0  0  0  0  0  0
   -8.7570   19.0060  -32.3570 C   0  0  0  0  0  0  0  0  0  0  0  0
   -8.8150   20.0840  -31.2840 C   0  0  0  0  0  0  0  0  0  0  0  0
   -7.7650   21.1060  -31.6780 C   0  0  0  0  0  0  0  0  0  0  0  0
   -7.1300   20.5700  -32.9540 C   0  0  0  0  0  0  0  0  0  0  0  0
   -3.7760   17.8820  -33.5650 C   0  0  0  0  0  0  0  0  0  0  0  0
   -2.5300   18.3640  -33.9690 C   0  0  0  0  0  0  0  0  0  0  0  0
   -2.1550   19.6810  -33.6810 C   0  0  0  0  0  0  0  0  0  0  0  0
   -0.9330   20.1530  -34.1490 O   0  0  0  0  0  0  0  0  0  0  0  0
   -2.7680   22.9740  -30.3260 C   0  0  0  0  0  0  0  0  0  0  0  0
   -2.0700   21.9580  -29.6520 C   0  0  0  0  0  0  0  0  0  0  0  0
   -1.5220   22.1880  -28.3830 C   0  0  0  0  0  0  0  0  0  0  0  0
   -0.6580   20.8960  -27.5440 S   0  0  0  0  0  0  0  0  0  0  0  0
   -1.4070   20.5380  -26.2910 O   0  0  0  0  0  0  0  0  0  0  0  0
    0.7050   21.3900  -27.1440 O   0  0  0  0  0  0  0  0  0  0  0  0
   -0.4890   19.4720  -28.5410 N   0  0  0  0  0  0  0  0  0  0  0  0
    0.1850   19.8040  -29.8050 C   0  0  0  0  0  0  0  0  0  0  0  0
    0.3050   18.5410  -30.6830 C   0  0  0  0  0  0  0  0  0  0  0  0
   -0.0970   17.3680  -29.9950 O   0  0  0  0  0  0  0  0  0  0  0  0
    0.6110   17.2610  -28.7750 C   0  0  0  0  0  0  0  0  0  0  0  0
    0.2590   18.4270  -27.8250 C   0  0  0  0  0  0  0  0  0  0  0  0
   -1.6640   23.4460  -27.7850 C   0  0  0  0  0  0  0  0  0  0  0  0
   -2.3350   24.4700  -28.4560 C   0  0  0  0  0  0  0  0  0  0  0  0
   -2.8770   24.2470  -29.7250 C   0  0  0  0  0  0  0  0  0  0  0  0
   -3.4940   25.3010  -30.3900 O   0  0  0  0  0  0  0  0  0  0  0  0
   -4.9963   20.7014  -32.0673 H   0  0  0  0  0  0  0  0  0  0  0  0
   -9.6039   19.1232  -33.0491 H   0  0  0  0  0  0  0  0  0  0  0  0
   -8.8148   18.0082  -31.8975 H   0  0  0  0  0  0  0  0  0  0  0  0
   -9.8122   20.5477  -31.2586 H   0  0  0  0  0  0  0  0  0  0  0  0
   -8.6272   19.6721  -30.2815 H   0  0  0  0  0  0  0  0  0  0  0  0
   -8.2321   22.0845  -31.8633 H   0  0  0  0  0  0  0  0  0  0  0  0
   -7.0195   21.2509  -30.8823 H   0  0  0  0  0  0  0  0  0  0  0  0
   -7.5038   21.1341  -33.8212 H   0  0  0  0  0  0  0  0  0  0  0  0
   -6.0363   20.6786  -32.9085 H   0  0  0  0  0  0  0  0  0  0  0  0
   -4.0613   16.8433  -33.7881 H   0  0  0  0  0  0  0  0  0  0  0  0
   -1.8395   17.7055  -34.5164 H   0  0  0  0  0  0  0  0  0  0  0  0
   -1.9525   20.9720  -30.1252 H   0  0  0  0  0  0  0  0  0  0  0  0
   -0.3994   20.5666  -30.3407 H   0  0  0  0  0  0  0  0  0  0  0  0
    1.1914   20.1915  -29.5881 H   0  0  0  0  0  0  0  0  0  0  0  0
   -0.3315   18.6658  -31.5714 H   0  0  0  0  0  0  0  0  0  0  0  0
    1.3628   18.4229  -30.9605 H   0  0  0  0  0  0  0  0  0  0  0  0
    0.3483   16.3097  -28.2892 H   0  0  0  0  0  0  0  0  0  0  0  0
    1.6888   17.2993  -28.9915 H   0  0  0  0  0  0  0  0  0  0  0  0
   -0.3564   18.0452  -26.9970 H   0  0  0  0  0  0  0  0  0  0  0  0
    1.1920   18.8619  -27.4373 H   0  0  0  0  0  0  0  0  0  0  0  0
   -1.2458   23.6280  -26.7840 H   0  0  0  0  0  0  0  0  0  0  0  0
   -2.4378   25.4580  -27.9834 H   0  0  0  0  0  0  0  0  0  0  0  0
  1  2  2  0
  2  3  1  0
  3  4  1  0
  4  5  2  0
  5  6  1  0
  6  7  1  0
  7  8  2  0
  7  9  2  0
  7 10  1  0
 10 11  1  0
 11 12  1  0
 12 13  1  0
 13 14  1  0
  6 15  2  0
 15 16  1  0
 16 17  2  0
 17 18  1  0
  2 19  1  0
 19 20  2  0
 20 21  1  0
 21 22  1  0
 22 23  2  0
 22 24  2  0
 22 25  1  0
 25 26  1  0
 26 27  1  0
 27 28  1  0
 28 29  1  0
 29 30  1  0
 21 31  2  0
 31 32  1  0
 32 33  2  0
 33 34  1  0
 17  4  1  0
 33 19  1  0
 14 10  1  0
 30 25  1  0
  5 35  1  0
 11 36  1  0
 11 37  1  0
 12 38  1  0
 12 39  1  0
 13 40  1  0
 13 41  1  0
 14 42  1  0
 14 43  1  0
 15 44  1  0
 16 45  1  0
 20 46  1  0
 26 47  1  0
 26 48  1  0
 27 49  1  0
 27 50  1  0
 29 51  1  0
 29 52  1  0
 30 53  1  0
 30 54  1  0
 31 55  1  0
 32 56  1  0
M  CHG  3   3  -1  18  -1  34  -1
M  END
>  <UniqueID>  (23) 
21

>  <SMILES>  (23) 
O=C([N-]c1cc(S(=O)(=O)N2CCCC2)ccc1[O-])c1cc(S(=O)(=O)N2CCOCC2)ccc1[O-]

>  <Energy>  (23) 
76.60866404919642

>  <Genealogy>  (23) 
O=C([N-]c1cc(S(=O)(=O)N2CCCC2)ccc1[O-])c1cc(S(=O)(=O)N2CCOCC2)ccc1[O-] (protonated)
O=C([N-]c1cc(S(=O)(=O)N2CCCC2)ccc1[O-])c1cc(S(=O)(=O)N2CCOCC2)ccc1[O-] (3D coordinates assigned)
O=C([N-]c1cc(S(=O)(=O)N2CCCC2)ccc1[O-])c1cc(S(=O)(=O)N2CCOCC2)ccc1[O-] (nonaromatic ring conformer: 76.60866404919642 kcal/mol)

>  <smiles>  (23) 
O=C(Nc1cc(S(=O)(=O)N2CCCC2)ccc1O)c1cc(S(=O)(=O)N2CCOCC2)ccc1O

>  <score_type>  (23) 
oracle

>  <origin>  (23) 
adgpu

>  <m_score__min__energy>  (23) 
-15.02

>  <m_primary>  (23) 
energy

$$$$
23:0
     RDKit          3D

 41 43  0  0  0  0  0  0  0  0999 V2000
   -5.7430   26.3460  -30.8840 O   0  0  0  0  0  0  0  0  0  0  0  0
   -5.2410   25.0740  -30.2640 S   0  0  0  0  0  0  0  0  0  0  0  0
   -5.6270   25.0490  -28.8110 O   0  0  0  0  0  0  0  0  0  0  0  0
   -3.5130   25.0100  -30.4050 N   0  0  0  0  0  0  0  0  0  0  0  0
   -2.6410   24.4390  -29.4190 C   0  0  0  0  0  0  0  0  0  0  0  0
   -2.8860   23.1260  -28.9950 C   0  0  0  0  0  0  0  0  0  0  0  0
   -2.0920   22.5400  -28.0040 C   0  0  0  0  0  0  0  0  0  0  0  0
   -2.4310   20.9080  -27.4580 Cl  0  0  0  0  0  0  0  0  0  0  0  0
   -1.0320   23.2580  -27.4440 C   0  0  0  0  0  0  0  0  0  0  0  0
   -0.7570   24.5550  -27.8830 C   0  0  0  0  0  0  0  0  0  0  0  0
   -1.5490   25.1470  -28.8730 C   0  0  0  0  0  0  0  0  0  0  0  0
   -1.2200   26.4200  -29.3220 O   0  0  0  0  0  0  0  0  0  0  0  0
   -5.9410   23.7110  -31.1290 C   0  0  0  0  0  0  0  0  0  0  0  0
   -7.2380   23.2660  -30.8430 C   0  0  0  0  0  0  0  0  0  0  0  0
   -7.7380   22.1160  -31.4620 C   0  0  0  0  0  0  0  0  0  0  0  0
   -6.9440   21.4010  -32.3700 C   0  0  0  0  0  0  0  0  0  0  0  0
   -7.5270   19.8880  -33.0630 S   0  0  0  0  0  0  0  0  0  0  0  0
   -9.0090   19.9900  -33.2990 O   0  0  0  0  0  0  0  0  0  0  0  0
   -6.8620   19.6640  -34.3920 O   0  0  0  0  0  0  0  0  0  0  0  0
   -7.2010   18.5250  -32.0120 N   0  0  0  0  0  0  0  0  0  0  0  0
   -7.4410   17.2520  -32.7010 C   0  0  0  0  0  0  0  0  0  0  0  0
   -6.1040   16.7050  -33.1850 C   0  0  0  0  0  0  0  0  0  0  0  0
   -5.0420   17.5330  -32.4910 C   0  0  0  0  0  0  0  0  0  0  0  0
   -5.7950   18.5050  -31.5940 C   0  0  0  0  0  0  0  0  0  0  0  0
   -5.6630   21.8730  -32.6870 C   0  0  0  0  0  0  0  0  0  0  0  0
   -5.1630   23.0190  -32.0660 C   0  0  0  0  0  0  0  0  0  0  0  0
   -3.7092   22.5518  -29.4451 H   0  0  0  0  0  0  0  0  0  0  0  0
   -0.4138   22.8014  -26.6570 H   0  0  0  0  0  0  0  0  0  0  0  0
    0.0855   25.1133  -27.4488 H   0  0  0  0  0  0  0  0  0  0  0  0
   -7.8645   23.8222  -30.1301 H   0  0  0  0  0  0  0  0  0  0  0  0
   -8.7578   21.7711  -31.2358 H   0  0  0  0  0  0  0  0  0  0  0  0
   -7.9054   16.5361  -32.0069 H   0  0  0  0  0  0  0  0  0  0  0  0
   -8.1163   17.4072  -33.5553 H   0  0  0  0  0  0  0  0  0  0  0  0
   -6.0024   15.6446  -32.9108 H   0  0  0  0  0  0  0  0  0  0  0  0
   -6.0141   16.7674  -34.2795 H   0  0  0  0  0  0  0  0  0  0  0  0
   -4.3850   16.8873  -31.8898 H   0  0  0  0  0  0  0  0  0  0  0  0
   -4.4033   18.0611  -33.2143 H   0  0  0  0  0  0  0  0  0  0  0  0
   -5.7232   18.1762  -30.5468 H   0  0  0  0  0  0  0  0  0  0  0  0
   -5.3607   19.5121  -31.6787 H   0  0  0  0  0  0  0  0  0  0  0  0
   -5.0496   21.3388  -33.4275 H   0  0  0  0  0  0  0  0  0  0  0  0
   -4.1539   23.3801  -32.3135 H   0  0  0  0  0  0  0  0  0  0  0  0
  1  2  2  0
  2  3  2  0
  2  4  1  0
  4  5  1  0
  5  6  2  0
  6  7  1  0
  7  8  1  0
  7  9  2  0
  9 10  1  0
 10 11  2  0
 11 12  1  0
  2 13  1  0
 13 14  2  0
 14 15  1  0
 15 16  2  0
 16 17  1  0
 17 18  2  0
 17 19  2  0
 17 20  1  0
 20 21  1  0
 21 22  1  0
 22 23  1  0
 23 24  1  0
 16 25  1  0
 25 26  2  0
 11  5  1  0
 26 13  1  0
 24 20  1  0
  6 27  1  0
  9 28  1  0
 10 29  1  0
 14 30  1  0
 15 31  1  0
 21 32  1  0
 21 33  1  0
 22 34  1  0
 22 35  1  0
 23 36  1  0
 23 37  1  0
 24 38  1  0
 24 39  1  0
 25 40  1  0
 26 41  1  0
M  CHG  2   4  -1  12  -1
M  END
>  <UniqueID>  (24) 
22

>  <SMILES>  (24) 
O=S(=O)([N-]c1cc(Cl)ccc1[O-])c1ccc(S(=O)(=O)N2CCCC2)cc1

>  <Energy>  (24) 
46.657263948581836

>  <Genealogy>  (24) 
O=S(=O)([N-]c1cc(Cl)ccc1[O-])c1ccc(S(=O)(=O)N2CCCC2)cc1 (protonated)
O=S(=O)([N-]c1cc(Cl)ccc1[O-])c1ccc(S(=O)(=O)N2CCCC2)cc1 (3D coordinates assigned)
O=S(=O)([N-]c1cc(Cl)ccc1[O-])c1ccc(S(=O)(=O)N2CCCC2)cc1 (nonaromatic ring conformer: 46.657263948581836 kcal/mol)

>  <smiles>  (24) 
O=S(=O)(Nc1cc(Cl)ccc1O)c1ccc(S(=O)(=O)N2CCCC2)cc1

>  <score_type>  (24) 
oracle

>  <origin>  (24) 
adgpu

>  <m_score__min__energy>  (24) 
-14.630000000000001

>  <m_primary>  (24) 
energy

$$$$
24:0
     RDKit          3D

 61 64  0  0  0  0  0  0  0  0999 V2000
   -1.2520   21.7830  -29.6480 O   0  0  0  0  0  0  0  0  0  0  0  0
   -2.6430   21.5580  -30.1680 S   0  0  0  0  0  0  0  0  0  0  0  0
   -3.5460   21.2540  -29.0050 O   0  0  0  0  0  0  0  0  0  0  0  0
   -3.2120   22.9730  -30.9870 N   0  0  0  0  0  0  0  0  0  0  0  0
   -4.5780   23.3940  -30.8750 C   0  0  0  0  0  0  0  0  0  0  0  0
   -5.6250   22.4680  -31.0160 C   0  0  0  0  0  0  0  0  0  0  0  0
   -6.9620   22.8870  -30.9540 C   0  0  0  0  0  0  0  0  0  0  0  0
   -8.2710   21.7370  -31.2450 S   0  0  0  0  0  0  0  0  0  0  0  0
   -9.1760   22.2790  -32.3160 O   0  0  0  0  0  0  0  0  0  0  0  0
   -9.0820   21.5900  -29.9880 O   0  0  0  0  0  0  0  0  0  0  0  0
   -7.6820   20.1710  -31.7480 N   0  0  0  0  0  0  0  0  0  0  0  0
   -7.0660   20.2570  -33.0880 C   0  0  0  0  0  0  0  0  0  0  0  0
   -6.7950   18.8670  -33.7040 C   0  0  0  0  0  0  0  0  0  0  0  0
   -6.8490   17.7600  -32.6480 C   0  0  0  0  0  0  0  0  0  0  0  0
   -8.2030   17.7590  -31.9190 C   0  0  0  0  0  0  0  0  0  0  0  0
   -8.7670   19.1790  -31.7180 C   0  0  0  0  0  0  0  0  0  0  0  0
   -7.2500   24.2380  -30.7210 C   0  0  0  0  0  0  0  0  0  0  0  0
   -6.2130   25.1600  -30.5560 C   0  0  0  0  0  0  0  0  0  0  0  0
   -4.8810   24.7460  -30.6430 C   0  0  0  0  0  0  0  0  0  0  0  0
   -3.8640   25.6800  -30.4870 O   0  0  0  0  0  0  0  0  0  0  0  0
   -2.6860   20.2150  -31.3000 C   0  0  0  0  0  0  0  0  0  0  0  0
   -3.8530   19.9650  -32.0350 C   0  0  0  0  0  0  0  0  0  0  0  0
   -3.8560   18.9950  -33.0390 C   0  0  0  0  0  0  0  0  0  0  0  0
   -2.6860   18.2830  -33.3330 C   0  0  0  0  0  0  0  0  0  0  0  0
   -2.6440   17.1630  -34.6940 S   0  0  0  0  0  0  0  0  0  0  0  0
   -3.8370   17.4220  -35.5730 O   0  0  0  0  0  0  0  0  0  0  0  0
   -1.4080   17.4220  -35.5090 O   0  0  0  0  0  0  0  0  0  0  0  0
   -2.6750   15.4870  -34.1760 N   0  0  0  0  0  0  0  0  0  0  0  0
   -3.4970   14.6310  -35.0590 C   0  0  0  0  0  0  0  0  0  0  0  0
   -4.8780   14.3090  -34.4640 C   0  0  0  0  0  0  0  0  0  0  0  0
   -5.3090   15.3540  -33.6240 O   0  0  0  0  0  0  0  0  0  0  0  0
   -4.5170   15.3780  -32.4540 C   0  0  0  0  0  0  0  0  0  0  0  0
   -2.9980   15.3360  -32.7450 C   0  0  0  0  0  0  0  0  0  0  0  0
   -1.5310   18.5050  -32.5700 C   0  0  0  0  0  0  0  0  0  0  0  0
   -1.5290   19.4710  -31.5620 C   0  0  0  0  0  0  0  0  0  0  0  0
   -2.4920   23.6650  -31.2940 H   0  0  0  0  0  0  0  0  0  0  0  0
   -5.3941   21.4046  -31.1765 H   0  0  0  0  0  0  0  0  0  0  0  0
   -7.7442   20.8116  -33.7532 H   0  0  0  0  0  0  0  0  0  0  0  0
   -6.0985   20.7690  -32.9791 H   0  0  0  0  0  0  0  0  0  0  0  0
   -7.5547   18.6635  -34.4731 H   0  0  0  0  0  0  0  0  0  0  0  0
   -5.7853   18.8760  -34.1403 H   0  0  0  0  0  0  0  0  0  0  0  0
   -6.7045   16.7866  -33.1396 H   0  0  0  0  0  0  0  0  0  0  0  0
   -6.0538   17.9409  -31.9098 H   0  0  0  0  0  0  0  0  0  0  0  0
   -8.9221   17.1746  -32.5117 H   0  0  0  0  0  0  0  0  0  0  0  0
   -8.0459   17.3181  -30.9235 H   0  0  0  0  0  0  0  0  0  0  0  0
   -9.4837   19.4014  -32.5223 H   0  0  0  0  0  0  0  0  0  0  0  0
   -9.2685   19.2284  -30.7402 H   0  0  0  0  0  0  0  0  0  0  0  0
   -8.2960   24.5742  -30.6677 H   0  0  0  0  0  0  0  0  0  0  0  0
   -6.4461   26.2164  -30.3567 H   0  0  0  0  0  0  0  0  0  0  0  0
   -4.7691   20.5347  -31.8201 H   0  0  0  0  0  0  0  0  0  0  0  0
   -4.7792   18.7893  -33.6005 H   0  0  0  0  0  0  0  0  0  0  0  0
   -3.6405   15.1511  -36.0176 H   0  0  0  0  0  0  0  0  0  0  0  0
   -2.9621   13.6782  -35.1862 H   0  0  0  0  0  0  0  0  0  0  0  0
   -5.6028   14.1790  -35.2811 H   0  0  0  0  0  0  0  0  0  0  0  0
   -4.8037   13.3846  -33.8724 H   0  0  0  0  0  0  0  0  0  0  0  0
   -4.7412   16.3009  -31.8990 H   0  0  0  0  0  0  0  0  0  0  0  0
   -4.7636   14.4765  -31.8739 H   0  0  0  0  0  0  0  0  0  0  0  0
   -2.5131   16.1522  -32.1894 H   0  0  0  0  0  0  0  0  0  0  0  0
   -2.6327   14.3472  -32.4306 H   0  0  0  0  0  0  0  0  0  0  0  0
   -0.6230   17.9159  -32.7662 H   0  0  0  0  0  0  0  0  0  0  0  0
   -0.6172   19.6479  -30.9727 H   0  0  0  0  0  0  0  0  0  0  0  0
  1  2  2  0
  2  3  2  0
  2  4  1  0
  4  5  1  0
  5  6  2  0
  6  7  1  0
  7  8  1  0
  8  9  2  0
  8 10  2  0
  8 11  1  0
 11 12  1  0
 12 13  1  0
 13 14  1  0
 14 15  1  0
 15 16  1  0
  7 17  2  0
 17 18  1  0
 18 19  2  0
 19 20  1  0
  2 21  1  0
 21 22  2  0
 22 23  1  0
 23 24  2  0
 24 25  1  0
 25 26  2  0
 25 27  2  0
 25 28  1  0
 28 29  1  0
 29 30  1  0
 30 31  1  0
 31 32  1  0
 32 33  1  0
 24 34  1  0
 34 35  2  0
 19  5  1  0
 35 21  1  0
 16 11  1  0
 33 28  1  0
  4 36  1  0
  6 37  1  0
 12 38  1  0
 12 39  1  0
 13 40  1  0
 13 41  1  0
 14 42  1  0
 14 43  1  0
 15 44  1  0
 15 45  1  0
 16 46  1  0
 16 47  1  0
 17 48  1  0
 18 49  1  0
 22 50  1  0
 23 51  1  0
 29 52  1  0
 29 53  1  0
 30 54  1  0
 30 55  1  0
 32 56  1  0
 32 57  1  0
 33 58  1  0
 33 59  1  0
 34 60  1  0
 35 61  1  0
M  CHG  1  20  -1
M  END
>  <UniqueID>  (25) 
23

>  <SMILES>  (25) 
O=S(=O)(Nc1cc(S(=O)(=O)N2CCCCC2)ccc1[O-])c1ccc(S(=O)(=O)N2CCOCC2)cc1

>  <Energy>  (25) 
74.4942654034942

>  <Genealogy>  (25) 
O=S(=O)(Nc1cc(S(=O)(=O)N2CCCCC2)ccc1[O-])c1ccc(S(=O)(=O)N2CCOCC2)cc1 (protonated)
O=S(=O)(Nc1cc(S(=O)(=O)N2CCCCC2)ccc1[O-])c1ccc(S(=O)(=O)N2CCOCC2)cc1 (3D coordinates assigned)
O=S(=O)(Nc1cc(S(=O)(=O)N2CCCCC2)ccc1[O-])c1ccc(S(=O)(=O)N2CCOCC2)cc1 (nonaromatic ring conformer: 74.4942654034942 kcal/mol)

>  <smiles>  (25) 
O=S(=O)(Nc1cc(S(=O)(=O)N2CCCCC2)ccc1O)c1ccc(S(=O)(=O)N2CCOCC2)cc1

>  <score_type>  (25) 
oracle

>  <origin>  (25) 
adgpu

>  <m_score__min__energy>  (25) 
-14.84

>  <m_primary>  (25) 
energy

$$$$
25:0
     RDKit          3D

 64 68  0  0  0  0  0  0  0  0999 V2000
   -0.8610   26.8560  -23.6490 C   0  0  0  0  0  0  0  0  0  0  0  0
   -0.7140   26.6480  -25.1000 N   0  0  0  0  0  0  0  0  0  0  0  0
   -1.5900   25.5760  -25.6080 C   0  0  0  0  0  0  0  0  0  0  0  0
   -1.0760   24.1700  -25.2510 C   0  0  0  0  0  0  0  0  0  0  0  0
    0.3340   23.9630  -25.6250 N   0  0  0  0  0  0  0  0  0  0  0  0
    0.5500   23.6190  -27.3290 S   0  0  0  0  0  0  0  0  0  0  0  0
    1.3240   24.7120  -28.0130 O   0  0  0  0  0  0  0  0  0  0  0  0
    1.3080   22.3310  -27.4920 O   0  0  0  0  0  0  0  0  0  0  0  0
   -1.0220   23.4370  -28.1040 C   0  0  0  0  0  0  0  0  0  0  0  0
   -1.6130   24.5310  -28.7470 C   0  0  0  0  0  0  0  0  0  0  0  0
   -2.8510   24.3930  -29.3810 C   0  0  0  0  0  0  0  0  0  0  0  0
   -3.5170   23.1530  -29.3830 C   0  0  0  0  0  0  0  0  0  0  0  0
   -4.8310   23.0030  -30.0600 C   0  0  0  0  0  0  0  0  0  0  0  0
   -5.7710   24.0690  -30.0590 C   0  0  0  0  0  0  0  0  0  0  0  0
   -6.9720   23.9440  -30.6950 N   0  0  0  0  0  0  0  0  0  0  0  0
   -7.2760   22.7760  -31.3140 C   0  0  0  0  0  0  0  0  0  0  0  0
   -6.4160   21.7140  -31.3320 C   0  0  0  0  0  0  0  0  0  0  0  0
   -5.1640   21.8010  -30.7240 C   0  0  0  0  0  0  0  0  0  0  0  0
   -7.0220   20.7230  -32.0910 C   0  0  0  0  0  0  0  0  0  0  0  0
   -6.5000   19.3820  -32.4310 C   0  0  0  0  0  0  0  0  0  0  0  0
   -6.6010   18.3330  -31.5030 C   0  0  0  0  0  0  0  0  0  0  0  0
   -6.1080   17.0620  -31.8170 C   0  0  0  0  0  0  0  0  0  0  0  0
   -5.4940   16.8290  -33.0530 C   0  0  0  0  0  0  0  0  0  0  0  0
   -4.8950   15.2240  -33.4560 S   0  0  0  0  0  0  0  0  0  0  0  0
   -4.5600   14.3260  -31.9570 C   0  0  0  0  0  0  0  0  0  0  0  0
   -5.9220   14.4850  -34.2670 O   0  0  0  0  0  0  0  0  0  0  0  0
   -3.6330   15.3400  -34.2650 O   0  0  0  0  0  0  0  0  0  0  0  0
   -5.3810   17.8760  -33.9770 C   0  0  0  0  0  0  0  0  0  0  0  0
   -5.8730   19.1460  -33.6660 C   0  0  0  0  0  0  0  0  0  0  0  0
   -8.2370   21.2650  -32.5120 C   0  0  0  0  0  0  0  0  0  0  0  0
   -8.3930   22.5140  -32.0140 N   0  0  0  0  0  0  0  0  0  0  0  0
   -9.4890   23.4330  -32.3000 C   0  0  0  0  0  0  0  0  0  0  0  0
   -2.9150   22.0570  -28.7400 C   0  0  0  0  0  0  0  0  0  0  0  0
   -1.6760   22.1980  -28.1070 C   0  0  0  0  0  0  0  0  0  0  0  0
    1.2140   25.0420  -25.1470 C   0  0  0  0  0  0  0  0  0  0  0  0
    0.6900   26.4450  -25.5010 C   0  0  0  0  0  0  0  0  0  0  0  0
   -0.3080   26.0736  -23.1086 H   0  0  0  0  0  0  0  0  0  0  0  0
   -0.4589   27.8432  -23.3775 H   0  0  0  0  0  0  0  0  0  0  0  0
   -1.9258   26.8065  -23.3775 H   0  0  0  0  0  0  0  0  0  0  0  0
   -2.5923   25.7051  -25.1736 H   0  0  0  0  0  0  0  0  0  0  0  0
   -1.6090   25.6543  -26.7050 H   0  0  0  0  0  0  0  0  0  0  0  0
   -1.1761   24.0249  -24.1652 H   0  0  0  0  0  0  0  0  0  0  0  0
   -1.6779   23.4446  -25.8181 H   0  0  0  0  0  0  0  0  0  0  0  0
   -1.1005   25.5043  -28.7533 H   0  0  0  0  0  0  0  0  0  0  0  0
   -3.3079   25.2593  -29.8818 H   0  0  0  0  0  0  0  0  0  0  0  0
   -5.5273   25.0071  -29.5388 H   0  0  0  0  0  0  0  0  0  0  0  0
   -4.4569   20.9592  -30.7602 H   0  0  0  0  0  0  0  0  0  0  0  0
   -7.0701   18.5115  -30.5242 H   0  0  0  0  0  0  0  0  0  0  0  0
   -6.2033   16.2424  -31.0895 H   0  0  0  0  0  0  0  0  0  0  0  0
   -4.7964   14.9596  -31.0894 H   0  0  0  0  0  0  0  0  0  0  0  0
   -5.1798   13.4177  -31.9274 H   0  0  0  0  0  0  0  0  0  0  0  0
   -3.4968   14.0455  -31.9274 H   0  0  0  0  0  0  0  0  0  0  0  0
   -4.9029   17.6973  -34.9514 H   0  0  0  0  0  0  0  0  0  0  0  0
   -5.7689   19.9658  -34.3921 H   0  0  0  0  0  0  0  0  0  0  0  0
   -8.9646   20.7504  -33.1569 H   0  0  0  0  0  0  0  0  0  0  0  0
   -9.9203   23.7947  -31.3549 H   0  0  0  0  0  0  0  0  0  0  0  0
   -9.1095   24.2869  -32.8804 H   0  0  0  0  0  0  0  0  0  0  0  0
  -10.2637   22.9105  -32.8804 H   0  0  0  0  0  0  0  0  0  0  0  0
   -3.4226   21.0811  -28.7348 H   0  0  0  0  0  0  0  0  0  0  0  0
   -1.2132   21.3329  -27.6096 H   0  0  0  0  0  0  0  0  0  0  0  0
    1.3003   24.9655  -24.0531 H   0  0  0  0  0  0  0  0  0  0  0  0
    2.1871   24.9184  -25.6447 H   0  0  0  0  0  0  0  0  0  0  0  0
    1.3135   27.1927  -24.9889 H   0  0  0  0  0  0  0  0  0  0  0  0
    0.7410   26.5516  -26.5946 H   0  0  0  0  0  0  0  0  0  0  0  0
  1  2  1  0
  2  3  1  0
  3  4  1  0
  4  5  1  0
  5  6  1  0
  6  7  2  0
  6  8  2  0
  6  9  1  0
  9 10  2  0
 10 11  1  0
 11 12  2  0
 12 13  1  0
 13 14  2  0
 14 15  1  0
 15 16  2  0
 16 17  1  0
 17 18  2  0
 17 19  1  0
 19 20  1  0
 20 21  2  0
 21 22  1  0
 22 23  2  0
 23 24  1  0
 24 25  1  0
 24 26  2  0
 24 27  2  0
 23 28  1  0
 28 29  2  0
 19 30  2  0
 30 31  1  0
 31 32  1  0
 12 33  1  0
 33 34  2  0
  5 35  1  0
 35 36  1  0
 36  2  1  0
 34  9  1  0
 18 13  1  0
 29 20  1  0
 31 16  1  0
  1 37  1  0
  1 38  1  0
  1 39  1  0
  3 40  1  0
  3 41  1  0
  4 42  1  0
  4 43  1  0
 10 44  1  0
 11 45  1  0
 14 46  1  0
 18 47  1  0
 21 48  1  0
 22 49  1  0
 25 50  1  0
 25 51  1  0
 25 52  1  0
 28 53  1  0
 29 54  1  0
 30 55  1  0
 32 56  1  0
 32 57  1  0
 32 58  1  0
 33 59  1  0
 34 60  1  0
 35 61  1  0
 35 62  1  0
 36 63  1  0
 36 64  1  0
M  END
>  <UniqueID>  (26) 
24

>  <SMILES>  (26) 
CN1CCN(S(=O)(=O)c2ccc(-c3cnc4c(c3)c(-c3ccc(S(C)(=O)=O)cc3)cn4C)cc2)CC1

>  <Energy>  (26) 
116.90083080661424

>  <Genealogy>  (26) 
CN1CCN(S(=O)(=O)c2ccc(-c3cnc4c(c3)c(-c3ccc(S(C)(=O)=O)cc3)cn4C)cc2)CC1 (3D coordinates assigned)
CN1CCN(S(=O)(=O)c2ccc(-c3cnc4c(c3)c(-c3ccc(S(C)(=O)=O)cc3)cn4C)cc2)CC1 (nonaromatic ring conformer: 116.90083080661424 kcal/mol)

>  <smiles>  (26) 
CN1CCN(S(=O)(=O)c2ccc(-c3cnc4c(c3)c(-c3ccc(S(C)(=O)=O)cc3)cn4C)cc2)CC1

>  <score_type>  (26) 
oracle

>  <origin>  (26) 
adgpu

>  <m_score__min__energy>  (26) 
-10.65

>  <m_primary>  (26) 
energy

$$$$
26:0
     RDKit          3D

 57 60  0  0  0  0  0  0  0  0999 V2000
    1.1450   22.2340  -34.2610 O   0  0  0  0  0  0  0  0  0  0  0  0
    0.5730   22.0270  -35.3630 C   0  0  0  0  0  0  0  0  0  0  0  0
   -0.0700   20.6900  -35.6120 C   0  0  0  0  0  0  0  0  0  0  0  0
   -0.4470   19.8500  -34.0790 S   0  0  0  0  0  0  0  0  0  0  0  0
   -1.2340   18.5980  -34.3550 O   0  0  0  0  0  0  0  0  0  0  0  0
    0.8340   19.4680  -33.3920 O   0  0  0  0  0  0  0  0  0  0  0  0
   -1.3690   20.9180  -33.0260 C   0  0  0  0  0  0  0  0  0  0  0  0
   -0.8030   21.4220  -31.8460 C   0  0  0  0  0  0  0  0  0  0  0  0
   -1.5500   22.2590  -31.0110 C   0  0  0  0  0  0  0  0  0  0  0  0
   -2.8670   22.5970  -31.3450 C   0  0  0  0  0  0  0  0  0  0  0  0
   -3.7850   23.6650  -30.2860 S   0  0  0  0  0  0  0  0  0  0  0  0
   -4.4580   22.8670  -29.2030 O   0  0  0  0  0  0  0  0  0  0  0  0
   -2.8310   24.6370  -29.6500 O   0  0  0  0  0  0  0  0  0  0  0  0
   -4.9800   24.5340  -31.2230 N   0  0  0  0  0  0  0  0  0  0  0  0
   -6.1110   23.6620  -31.5540 C   0  0  0  0  0  0  0  0  0  0  0  0
   -7.1780   23.8430  -30.4840 C   0  0  0  0  0  0  0  0  0  0  0  0
   -6.8180   25.1280  -29.7640 C   0  0  0  0  0  0  0  0  0  0  0  0
   -5.5490   25.6330  -30.4370 C   0  0  0  0  0  0  0  0  0  0  0  0
   -3.4330   22.0910  -32.5230 C   0  0  0  0  0  0  0  0  0  0  0  0
   -2.6880   21.2550  -33.3580 C   0  0  0  0  0  0  0  0  0  0  0  0
    0.6790   23.0260  -36.3880 N   0  0  0  0  0  0  0  0  0  0  0  0
    0.7890   24.4450  -36.2020 C   0  0  0  0  0  0  0  0  0  0  0  0
   -0.2800   25.3040  -36.5060 C   0  0  0  0  0  0  0  0  0  0  0  0
   -0.1610   26.6850  -36.2990 C   0  0  0  0  0  0  0  0  0  0  0  0
    1.0150   27.2080  -35.7430 C   0  0  0  0  0  0  0  0  0  0  0  0
    2.0660   26.3490  -35.3960 C   0  0  0  0  0  0  0  0  0  0  0  0
    1.9550   24.9700  -35.6220 C   0  0  0  0  0  0  0  0  0  0  0  0
    3.0000   24.1150  -35.2780 O   0  0  0  0  0  0  0  0  0  0  0  0
    1.1000   28.6890  -35.5020 C   0  0  0  0  0  0  0  0  0  0  0  0
    0.5460   29.4400  -36.7190 C   0  0  0  0  0  0  0  0  0  0  0  0
   -0.8640   28.9660  -37.1560 C   0  0  0  0  0  0  0  0  0  0  0  0
   -1.3180   27.6130  -36.5610 C   0  0  0  0  0  0  0  0  0  0  0  0
   -1.0024   20.8410  -36.1758 H   0  0  0  0  0  0  0  0  0  0  0  0
    0.6355   20.0681  -36.1825 H   0  0  0  0  0  0  0  0  0  0  0  0
    0.2305   21.1585  -31.5767 H   0  0  0  0  0  0  0  0  0  0  0  0
   -1.1008   22.6536  -30.0877 H   0  0  0  0  0  0  0  0  0  0  0  0
   -6.5190   23.9380  -32.5376 H   0  0  0  0  0  0  0  0  0  0  0  0
   -5.7840   22.6124  -31.5918 H   0  0  0  0  0  0  0  0  0  0  0  0
   -8.1735   23.9266  -30.9444 H   0  0  0  0  0  0  0  0  0  0  0  0
   -7.2137   22.9862  -29.7951 H   0  0  0  0  0  0  0  0  0  0  0  0
   -7.6272   25.8658  -29.8676 H   0  0  0  0  0  0  0  0  0  0  0  0
   -6.6692   24.9629  -28.6867 H   0  0  0  0  0  0  0  0  0  0  0  0
   -5.7892   26.4786  -31.0983 H   0  0  0  0  0  0  0  0  0  0  0  0
   -4.8267   25.9732  -29.6803 H   0  0  0  0  0  0  0  0  0  0  0  0
   -4.4672   22.3530  -32.7909 H   0  0  0  0  0  0  0  0  0  0  0  0
   -3.1387   20.8595  -34.2802 H   0  0  0  0  0  0  0  0  0  0  0  0
   -1.2162   24.8903  -36.9090 H   0  0  0  0  0  0  0  0  0  0  0  0
    2.9818   26.7582  -34.9445 H   0  0  0  0  0  0  0  0  0  0  0  0
    2.8690   23.1110  -35.2280 H   0  0  0  0  0  0  0  0  0  0  0  0
    0.5098   28.9495  -34.6110 H   0  0  0  0  0  0  0  0  0  0  0  0
    2.1506   28.9740  -35.3435 H   0  0  0  0  0  0  0  0  0  0  0  0
    0.4910   30.5103  -36.4710 H   0  0  0  0  0  0  0  0  0  0  0  0
    1.2273   29.2378  -37.5586 H   0  0  0  0  0  0  0  0  0  0  0  0
   -1.5907   29.7331  -36.8503 H   0  0  0  0  0  0  0  0  0  0  0  0
   -0.8123   28.8184  -38.2448 H   0  0  0  0  0  0  0  0  0  0  0  0
   -1.8414   27.8020  -35.6121 H   0  0  0  0  0  0  0  0  0  0  0  0
   -1.9781   27.1279  -37.2951 H   0  0  0  0  0  0  0  0  0  0  0  0
  1  2  2  0
  2  3  1  0
  3  4  1  0
  4  5  2  0
  4  6  2  0
  4  7  1  0
  7  8  2  0
  8  9  1  0
  9 10  2  0
 10 11  1  0
 11 12  2  0
 11 13  2  0
 11 14  1  0
 14 15  1  0
 15 16  1  0
 16 17  1  0
 17 18  1  0
 10 19  1  0
 19 20  2  0
  2 21  1  0
 21 22  1  0
 22 23  2  0
 23 24  1  0
 24 25  2  0
 25 26  1  0
 26 27  2  0
 27 28  1  0
 25 29  1  0
 29 30  1  0
 30 31  1  0
 31 32  1  0
 20  7  1  0
 27 22  1  0
 18 14  1  0
 32 24  1  0
  3 33  1  0
  3 34  1  0
  8 35  1  0
  9 36  1  0
 15 37  1  0
 15 38  1  0
 16 39  1  0
 16 40  1  0
 17 41  1  0
 17 42  1  0
 18 43  1  0
 18 44  1  0
 19 45  1  0
 20 46  1  0
 23 47  1  0
 26 48  1  0
 28 49  1  0
 29 50  1  0
 29 51  1  0
 30 52  1  0
 30 53  1  0
 31 54  1  0
 31 55  1  0
 32 56  1  0
 32 57  1  0
M  CHG  1  21  -1
M  END
>  <UniqueID>  (27) 
25

>  <SMILES>  (27) 
O=C(CS(=O)(=O)c1ccc(S(=O)(=O)N2CCCC2)cc1)[N-]c1cc2c(cc1O)CCCC2

>  <Energy>  (27) 
66.17987233006768

>  <Genealogy>  (27) 
O=C(CS(=O)(=O)c1ccc(S(=O)(=O)N2CCCC2)cc1)[N-]c1cc2c(cc1O)CCCC2 (protonated)
O=C(CS(=O)(=O)c1ccc(S(=O)(=O)N2CCCC2)cc1)[N-]c1cc2c(cc1O)CCCC2 (3D coordinates assigned)
O=C(CS(=O)(=O)c1ccc(S(=O)(=O)N2CCCC2)cc1)[N-]c1cc2c(cc1O)CCCC2 (nonaromatic ring conformer: 66.17987233006768 kcal/mol)

>  <smiles>  (27) 
O=C(CS(=O)(=O)c1ccc(S(=O)(=O)N2CCCC2)cc1)Nc1cc2c(cc1O)CCCC2

>  <score_type>  (27) 
oracle

>  <origin>  (27) 
adgpu

>  <m_score__min__energy>  (27) 
-13.359999999999999

>  <m_primary>  (27) 
energy

$$$$
27:0
     RDKit          3D

 40 43  0  0  0  0  0  0  0  0999 V2000
   -8.3370   23.4090  -31.7970 C   0  0  0  0  0  0  0  0  0  0  0  0
   -7.8930   21.9810  -32.0250 C   0  0  0  0  0  0  0  0  0  0  0  0
   -8.8940   20.9950  -31.9740 C   0  0  0  0  0  0  0  0  0  0  0  0
   -8.5760   19.6610  -32.1790 C   0  0  0  0  0  0  0  0  0  0  0  0
   -7.2650   19.3010  -32.4350 C   0  0  0  0  0  0  0  0  0  0  0  0
   -6.2720   20.2810  -32.4860 C   0  0  0  0  0  0  0  0  0  0  0  0
   -5.0020   19.8850  -32.7560 N   0  0  0  0  0  0  0  0  0  0  0  0
   -3.9780   20.7640  -32.8290 C   0  0  0  0  0  0  0  0  0  0  0  0
   -2.6150   20.2820  -33.2250 C   0  0  0  0  0  0  0  0  0  0  0  0
   -1.3340   21.5270  -32.8240 S   0  0  0  0  0  0  0  0  0  0  0  0
   -0.8720   20.7840  -31.2530 C   0  0  0  0  0  0  0  0  0  0  0  0
    0.1470   19.9140  -31.1350 N   0  0  0  0  0  0  0  0  0  0  0  0
    0.2260   19.6450  -29.8390 N   0  0  0  0  0  0  0  0  0  0  0  0
   -0.6950   20.3300  -29.1800 N   0  0  0  0  0  0  0  0  0  0  0  0
   -1.4010   21.0490  -30.0370 N   0  0  0  0  0  0  0  0  0  0  0  0
   -2.4120   21.9970  -29.6300 C   0  0  0  0  0  0  0  0  0  0  0  0
   -3.2010   21.7970  -28.4830 C   0  0  0  0  0  0  0  0  0  0  0  0
   -4.1470   22.7500  -28.0940 C   0  0  0  0  0  0  0  0  0  0  0  0
   -4.3160   23.9150  -28.8430 C   0  0  0  0  0  0  0  0  0  0  0  0
   -3.5330   24.1360  -29.9810 C   0  0  0  0  0  0  0  0  0  0  0  0
   -3.6880   25.2960  -30.7360 O   0  0  0  0  0  0  0  0  0  0  0  0
   -2.5840   23.1830  -30.3680 C   0  0  0  0  0  0  0  0  0  0  0  0
   -4.2290   22.1140  -32.6200 C   0  0  0  0  0  0  0  0  0  0  0  0
   -5.5320   22.5330  -32.3480 C   0  0  0  0  0  0  0  0  0  0  0  0
   -5.7150   23.7670  -32.1720 O   0  0  0  0  0  0  0  0  0  0  0  0
   -6.5730   21.6200  -32.2810 N   0  0  0  0  0  0  0  0  0  0  0  0
   -8.3982   23.6059  -30.7165 H   0  0  0  0  0  0  0  0  0  0  0  0
   -7.6102   24.0964  -32.2544 H   0  0  0  0  0  0  0  0  0  0  0  0
   -9.3255   23.5631  -32.2544 H   0  0  0  0  0  0  0  0  0  0  0  0
   -9.9357   21.2836  -31.7702 H   0  0  0  0  0  0  0  0  0  0  0  0
   -9.3623   18.8928  -32.1383 H   0  0  0  0  0  0  0  0  0  0  0  0
   -7.0055   18.2446  -32.5981 H   0  0  0  0  0  0  0  0  0  0  0  0
   -2.3922   19.3503  -32.6844 H   0  0  0  0  0  0  0  0  0  0  0  0
   -2.6071   20.1097  -34.3114 H   0  0  0  0  0  0  0  0  0  0  0  0
   -3.0725   20.8819  -27.8863 H   0  0  0  0  0  0  0  0  0  0  0  0
   -4.7592   22.5811  -27.1958 H   0  0  0  0  0  0  0  0  0  0  0  0
   -5.0655   24.6603  -28.5384 H   0  0  0  0  0  0  0  0  0  0  0  0
   -4.2370   25.3050  -31.5870 H   0  0  0  0  0  0  0  0  0  0  0  0
   -1.9652   23.3630  -31.2595 H   0  0  0  0  0  0  0  0  0  0  0  0
   -3.4089   22.8455  -32.6684 H   0  0  0  0  0  0  0  0  0  0  0  0
  1  2  1  0
  2  3  2  0
  3  4  1  0
  4  5  2  0
  5  6  1  0
  6  7  2  0
  7  8  1  0
  8  9  1  0
  9 10  1  0
 10 11  1  0
 11 12  2  0
 12 13  1  0
 13 14  2  0
 14 15  1  0
 15 16  1  0
 16 17  2  0
 17 18  1  0
 18 19  2  0
 19 20  1  0
 20 21  1  0
 20 22  2  0
  8 23  2  0
 23 24  1  0
 24 25  2  0
 24 26  1  0
 26  2  1  0
 26  6  1  0
 15 11  1  0
 22 16  1  0
  1 27  1  0
  1 28  1  0
  1 29  1  0
  3 30  1  0
  4 31  1  0
  5 32  1  0
  9 33  1  0
  9 34  1  0
 17 35  1  0
 18 36  1  0
 19 37  1  0
 21 38  1  0
 22 39  1  0
 23 40  1  0
M  END
>  <UniqueID>  (28) 
26

>  <SMILES>  (28) 
Cc1cccc2nc(CSc3nnnn3-c3cccc(O)c3)cc(=O)n12

>  <Energy>  (28) 
96.72424132005634

>  <Genealogy>  (28) 
Cc1cccc2nc(CSc3nnnn3-c3cccc(O)c3)cc(=O)n12 (3D coordinates assigned)
Cc1cccc2nc(CSc3nnnn3-c3cccc(O)c3)cc(=O)n12 (optimized conformer: 96.72424132005634 kcal/mol)

>  <smiles>  (28) 
Cc1cccc2nc(CSc3nnnn3-c3cccc(O)c3)cc(=O)n12

>  <score_type>  (28) 
oracle

>  <origin>  (28) 
adgpu

>  <m_score__min__energy>  (28) 
-9.6799999999999997

>  <m_primary>  (28) 
energy

$$$$
28:0
     RDKit          3D

 55 59  0  0  0  0  0  0  0  0999 V2000
   -4.2430   22.5700  -33.1280 O   0  0  0  0  0  0  0  0  0  0  0  0
   -4.7630   22.4340  -31.9870 C   0  0  0  0  0  0  0  0  0  0  0  0
   -6.1680   21.9770  -31.8860 C   0  0  0  0  0  0  0  0  0  0  0  0
   -6.4930   20.6690  -32.2820 C   0  0  0  0  0  0  0  0  0  0  0  0
   -7.8150   20.2040  -32.2110 C   0  0  0  0  0  0  0  0  0  0  0  0
   -8.1610   18.8110  -32.6670 C   0  0  0  0  0  0  0  0  0  0  0  0
   -6.9710   17.8900  -32.5790 C   0  0  0  0  0  0  0  0  0  0  0  0
   -6.7570   17.1410  -31.4550 N   0  0  0  0  0  0  0  0  0  0  0  0
   -5.7330   16.2830  -31.3590 N   0  0  0  0  0  0  0  0  0  0  0  0
   -4.8570   16.1040  -32.3860 C   0  0  0  0  0  0  0  0  0  0  0  0
   -3.9020   15.2920  -32.2750 O   0  0  0  0  0  0  0  0  0  0  0  0
   -5.0510   16.8320  -33.5540 C   0  0  0  0  0  0  0  0  0  0  0  0
   -6.0940   17.7020  -33.6530 C   0  0  0  0  0  0  0  0  0  0  0  0
   -6.1370   18.3130  -34.9290 N   0  0  0  0  0  0  0  0  0  0  0  0
   -5.0260   17.8030  -35.7290 C   0  0  0  0  0  0  0  0  0  0  0  0
   -4.2680   16.8040  -34.8220 C   0  0  0  0  0  0  0  0  0  0  0  0
   -8.8250   21.0700  -31.7670 C   0  0  0  0  0  0  0  0  0  0  0  0
   -8.5130   22.3730  -31.3760 C   0  0  0  0  0  0  0  0  0  0  0  0
   -7.1930   22.8340  -31.4310 C   0  0  0  0  0  0  0  0  0  0  0  0
   -6.8620   24.4720  -30.8770 Cl  0  0  0  0  0  0  0  0  0  0  0  0
   -3.9670   22.6890  -30.8120 N   0  0  0  0  0  0  0  0  0  0  0  0
   -2.5050   22.5550  -30.9010 C   0  0  0  0  0  0  0  0  0  0  0  0
   -1.8440   22.6550  -29.5230 C   0  0  0  0  0  0  0  0  0  0  0  0
   -2.3460   23.8290  -28.7980 N   0  0  0  0  0  0  0  0  0  0  0  0
   -1.4930   24.4910  -27.8440 C   0  0  0  0  0  0  0  0  0  0  0  0
   -1.1730   23.8590  -26.6310 C   0  0  0  0  0  0  0  0  0  0  0  0
   -0.3580   24.4980  -25.6920 C   0  0  0  0  0  0  0  0  0  0  0  0
    0.1470   25.7730  -25.9560 C   0  0  0  0  0  0  0  0  0  0  0  0
   -0.1590   26.4090  -27.1620 C   0  0  0  0  0  0  0  0  0  0  0  0
   -0.9710   25.7750  -28.1090 C   0  0  0  0  0  0  0  0  0  0  0  0
   -1.2350   26.4150  -29.3130 O   0  0  0  0  0  0  0  0  0  0  0  0
   -3.7720   24.1810  -28.8590 C   0  0  0  0  0  0  0  0  0  0  0  0
   -4.5950   23.0840  -29.5420 C   0  0  0  0  0  0  0  0  0  0  0  0
   -5.7014   20.0010  -32.6523 H   0  0  0  0  0  0  0  0  0  0  0  0
   -8.9666   18.4162  -32.0305 H   0  0  0  0  0  0  0  0  0  0  0  0
   -8.4818   18.8613  -33.7180 H   0  0  0  0  0  0  0  0  0  0  0  0
   -6.8570   18.9840  -35.2720 H   0  0  0  0  0  0  0  0  0  0  0  0
   -5.4046   17.2923  -36.6267 H   0  0  0  0  0  0  0  0  0  0  0  0
   -4.3683   18.6166  -36.0687 H   0  0  0  0  0  0  0  0  0  0  0  0
   -4.2656   15.7957  -35.2617 H   0  0  0  0  0  0  0  0  0  0  0  0
   -3.2095   17.0677  -34.6808 H   0  0  0  0  0  0  0  0  0  0  0  0
   -9.8673   20.7208  -31.7268 H   0  0  0  0  0  0  0  0  0  0  0  0
   -9.3107   23.0425  -31.0220 H   0  0  0  0  0  0  0  0  0  0  0  0
   -2.2625   21.5773  -31.3430 H   0  0  0  0  0  0  0  0  0  0  0  0
   -2.1221   23.3750  -31.5262 H   0  0  0  0  0  0  0  0  0  0  0  0
   -2.0721   21.7473  -28.9450 H   0  0  0  0  0  0  0  0  0  0  0  0
   -0.7567   22.7558  -29.6555 H   0  0  0  0  0  0  0  0  0  0  0  0
   -1.5665   22.8540  -26.4185 H   0  0  0  0  0  0  0  0  0  0  0  0
   -0.1142   23.9960  -24.7441 H   0  0  0  0  0  0  0  0  0  0  0  0
    0.7853   26.2763  -25.2149 H   0  0  0  0  0  0  0  0  0  0  0  0
    0.2404   27.4130  -27.3680 H   0  0  0  0  0  0  0  0  0  0  0  0
   -4.1483   24.3246  -27.8354 H   0  0  0  0  0  0  0  0  0  0  0  0
   -3.8735   25.1044  -29.4481 H   0  0  0  0  0  0  0  0  0  0  0  0
   -4.6536   22.2085  -28.8787 H   0  0  0  0  0  0  0  0  0  0  0  0
   -5.6043   23.4701  -29.7474 H   0  0  0  0  0  0  0  0  0  0  0  0
  1  2  2  0
  2  3  1  0
  3  4  2  0
  4  5  1  0
  5  6  1  0
  6  7  1  0
  7  8  2  0
  8  9  1  0
  9 10  1  0
 10 11  2  0
 10 12  1  0
 12 13  2  0
 13 14  1  0
 14 15  1  0
 15 16  1  0
  5 17  2  0
 17 18  1  0
 18 19  2  0
 19 20  1  0
  2 21  1  0
 21 22  1  0
 22 23  1  0
 23 24  1  0
 24 25  1  0
 25 26  2  0
 26 27  1  0
 27 28  2  0
 28 29  1  0
 29 30  2  0
 30 31  1  0
 24 32  1  0
 32 33  1  0
 19  3  1  0
 33 21  1  0
 13  7  1  0
 30 25  1  0
 16 12  1  0
  4 34  1  0
  6 35  1  0
  6 36  1  0
 14 37  1  0
 15 38  1  0
 15 39  1  0
 16 40  1  0
 16 41  1  0
 17 42  1  0
 18 43  1  0
 22 44  1  0
 22 45  1  0
 23 46  1  0
 23 47  1  0
 26 48  1  0
 27 49  1  0
 28 50  1  0
 29 51  1  0
 32 52  1  0
 32 53  1  0
 33 54  1  0
 33 55  1  0
M  CHG  2   9  -1  31  -1
M  END
>  <UniqueID>  (29) 
27

>  <SMILES>  (29) 
O=C(c1cc(Cc2n[n-]c(=O)c3c2NCC3)ccc1Cl)N1CCN(c2ccccc2[O-])CC1

>  <Energy>  (29) 
88.09688013424895

>  <Genealogy>  (29) 
O=C(c1cc(Cc2n[n-]c(=O)c3c2NCC3)ccc1Cl)N1CCN(c2ccccc2[O-])CC1 (protonated)
O=C(c1cc(Cc2n[n-]c(=O)c3c2NCC3)ccc1Cl)N1CCN(c2ccccc2[O-])CC1 (3D coordinates assigned)
O=C(c1cc(Cc2n[n-]c(=O)c3c2NCC3)ccc1Cl)N1CCN(c2ccccc2[O-])CC1 (nonaromatic ring conformer: 88.09688013424895 kcal/mol)

>  <smiles>  (29) 
O=C(c1cc(Cc2n[nH]c(=O)c3c2NCC3)ccc1Cl)N1CCN(c2ccccc2O)CC1

>  <score_type>  (29) 
oracle

>  <origin>  (29) 
adgpu

>  <m_score__min__energy>  (29) 
-13.390000000000001

>  <m_primary>  (29) 
energy

$$$$
29:0
     RDKit          3D

 41 42  0  0  0  0  0  0  0  0999 V2000
   -3.4590   21.4270  -31.7030 C   0  0  0  0  0  0  0  0  0  0  0  0
   -2.4150   22.1130  -30.8740 C   0  0  0  0  0  0  0  0  0  0  0  0
   -2.6320   23.0770  -29.9150 C   0  0  0  0  0  0  0  0  0  0  0  0
   -3.8900   23.6920  -29.6220 N   0  0  0  0  0  0  0  0  0  0  0  0
   -4.5260   24.6750  -30.4450 C   0  0  0  0  0  0  0  0  0  0  0  0
   -3.8780   25.6690  -30.8670 O   0  0  0  0  0  0  0  0  0  0  0  0
   -5.9150   24.5570  -30.7650 N   0  0  0  0  0  0  0  0  0  0  0  0
   -6.4100   23.8150  -31.9190 C   0  0  0  0  0  0  0  0  0  0  0  0
   -7.7520   23.1540  -31.5940 C   0  0  0  0  0  0  0  0  0  0  0  0
   -7.7310   21.6980  -31.9750 C   0  0  0  0  0  0  0  0  0  0  0  0
   -8.7400   20.8330  -31.5200 C   0  0  0  0  0  0  0  0  0  0  0  0
   -8.7030   19.4750  -31.8480 C   0  0  0  0  0  0  0  0  0  0  0  0
   -7.6540   18.9680  -32.6210 C   0  0  0  0  0  0  0  0  0  0  0  0
   -6.6390   19.8200  -33.0650 C   0  0  0  0  0  0  0  0  0  0  0  0
   -5.6170   19.3260  -33.8070 F   0  0  0  0  0  0  0  0  0  0  0  0
   -6.6730   21.1800  -32.7400 C   0  0  0  0  0  0  0  0  0  0  0  0
   -1.3720   23.4000  -29.4280 C   0  0  0  0  0  0  0  0  0  0  0  0
   -0.9260   24.7170  -28.3510 S   0  0  0  0  0  0  0  0  0  0  0  0
   -1.7890   24.5550  -26.8020 C   0  0  0  0  0  0  0  0  0  0  0  0
    0.5530   24.6530  -28.0980 O   0  0  0  0  0  0  0  0  0  0  0  0
   -1.2470   26.0450  -28.9760 O   0  0  0  0  0  0  0  0  0  0  0  0
   -0.4550   22.6310  -30.0500 N   0  0  0  0  0  0  0  0  0  0  0  0
   -1.0940   21.8410  -30.9010 N   0  0  0  0  0  0  0  0  0  0  0  0
   -0.4200   20.8920  -31.7790 C   0  0  0  0  0  0  0  0  0  0  0  0
   -4.1936   20.9443  -31.0416 H   0  0  0  0  0  0  0  0  0  0  0  0
   -3.9679   22.1673  -32.3378 H   0  0  0  0  0  0  0  0  0  0  0  0
   -2.9815   20.6661  -32.3378 H   0  0  0  0  0  0  0  0  0  0  0  0
   -6.5419   24.5060  -32.7646 H   0  0  0  0  0  0  0  0  0  0  0  0
   -5.6814   23.0331  -32.1793 H   0  0  0  0  0  0  0  0  0  0  0  0
   -7.9468   23.2426  -30.5150 H   0  0  0  0  0  0  0  0  0  0  0  0
   -8.5441   23.6591  -32.1663 H   0  0  0  0  0  0  0  0  0  0  0  0
   -9.5620   21.2258  -30.9035 H   0  0  0  0  0  0  0  0  0  0  0  0
   -9.5007   18.8037  -31.4973 H   0  0  0  0  0  0  0  0  0  0  0  0
   -7.6276   17.8991  -32.8795 H   0  0  0  0  0  0  0  0  0  0  0  0
   -5.8684   21.8462  -33.0847 H   0  0  0  0  0  0  0  0  0  0  0  0
   -1.0800   24.6881  -25.9716 H   0  0  0  0  0  0  0  0  0  0  0  0
   -2.5758   25.3211  -26.7387 H   0  0  0  0  0  0  0  0  0  0  0  0
   -2.2444   23.5557  -26.7387 H   0  0  0  0  0  0  0  0  0  0  0  0
    0.1111   20.1442  -31.1718 H   0  0  0  0  0  0  0  0  0  0  0  0
   -1.1636   20.3879  -32.4138 H   0  0  0  0  0  0  0  0  0  0  0  0
    0.3009   21.4280  -32.4138 H   0  0  0  0  0  0  0  0  0  0  0  0
  1  2  1  0
  2  3  2  0
  3  4  1  0
  4  5  1  0
  5  6  2  0
  5  7  1  0
  7  8  1  0
  8  9  1  0
  9 10  1  0
 10 11  2  0
 11 12  1  0
 12 13  2  0
 13 14  1  0
 14 15  1  0
 14 16  2  0
  3 17  1  0
 17 18  1  0
 18 19  1  0
 18 20  2  0
 18 21  2  0
 17 22  2  0
 22 23  1  0
 23 24  1  0
 23  2  1  0
 16 10  1  0
  1 25  1  0
  1 26  1  0
  1 27  1  0
  8 28  1  0
  8 29  1  0
  9 30  1  0
  9 31  1  0
 11 32  1  0
 12 33  1  0
 13 34  1  0
 16 35  1  0
 19 36  1  0
 19 37  1  0
 19 38  1  0
 24 39  1  0
 24 40  1  0
 24 41  1  0
M  CHG  2   4  -1   7  -1
M  END
>  <UniqueID>  (30) 
28

>  <SMILES>  (30) 
Cc1c([N-]C(=O)[N-]CCc2cccc(F)c2)c(S(C)(=O)=O)nn1C

>  <Energy>  (30) 
68.89722473381246

>  <Genealogy>  (30) 
Cc1c([N-]C(=O)[N-]CCc2cccc(F)c2)c(S(C)(=O)=O)nn1C (protonated)
Cc1c([N-]C(=O)[N-]CCc2cccc(F)c2)c(S(C)(=O)=O)nn1C (3D coordinates assigned)
Cc1c([N-]C(=O)[N-]CCc2cccc(F)c2)c(S(C)(=O)=O)nn1C (optimized conformer: 68.89722473381246 kcal/mol)

>  <smiles>  (30) 
Cc1c(NC(=O)NCCc2cccc(F)c2)c(S(C)(=O)=O)nn1C

>  <score_type>  (30) 
oracle

>  <origin>  (30) 
adgpu

>  <m_score__min__energy>  (30) 
-10.75

>  <m_primary>  (30) 
energy

$$$$
30:0
     RDKit          3D

 49 52  0  0  0  0  0  0  0  0999 V2000
   -6.2080   14.5130  -34.2150 C   0  0  0  0  0  0  0  0  0  0  0  0
   -7.0880   15.6200  -34.3810 O   0  0  0  0  0  0  0  0  0  0  0  0
   -6.8810   16.8880  -33.8150 C   0  0  0  0  0  0  0  0  0  0  0  0
   -5.8990   17.7130  -34.3720 C   0  0  0  0  0  0  0  0  0  0  0  0
   -5.6530   18.9840  -33.8440 C   0  0  0  0  0  0  0  0  0  0  0  0
   -6.3920   19.4540  -32.7420 C   0  0  0  0  0  0  0  0  0  0  0  0
   -6.1300   20.8050  -32.1800 C   0  0  0  0  0  0  0  0  0  0  0  0
   -5.0950   21.6080  -32.6970 C   0  0  0  0  0  0  0  0  0  0  0  0
   -4.8500   22.8790  -32.1690 C   0  0  0  0  0  0  0  0  0  0  0  0
   -5.6310   23.3660  -31.1120 C   0  0  0  0  0  0  0  0  0  0  0  0
   -5.3280   24.9580  -30.4230 S   0  0  0  0  0  0  0  0  0  0  0  0
   -5.8990   26.0420  -31.2940 O   0  0  0  0  0  0  0  0  0  0  0  0
   -5.9830   25.0340  -29.0740 O   0  0  0  0  0  0  0  0  0  0  0  0
   -3.6220   25.2040  -30.2410 N   0  0  0  0  0  0  0  0  0  0  0  0
   -2.7490   24.4110  -29.4230 C   0  0  0  0  0  0  0  0  0  0  0  0
   -3.0540   23.0820  -29.0780 C   0  0  0  0  0  0  0  0  0  0  0  0
   -2.1750   22.3280  -28.2870 C   0  0  0  0  0  0  0  0  0  0  0  0
   -0.9890   22.9180  -27.8070 C   0  0  0  0  0  0  0  0  0  0  0  0
   -0.6800   24.2370  -28.1620 C   0  0  0  0  0  0  0  0  0  0  0  0
   -1.5550   24.9810  -28.9590 C   0  0  0  0  0  0  0  0  0  0  0  0
   -1.2330   26.2930  -29.2900 O   0  0  0  0  0  0  0  0  0  0  0  0
    0.0050   22.1090  -27.0060 C   0  0  0  0  0  0  0  0  0  0  0  0
   -0.6150   20.9430  -26.3610 N   0  0  0  0  0  0  0  0  0  0  0  0
   -1.3580   20.1420  -27.3410 C   0  0  0  0  0  0  0  0  0  0  0  0
   -2.5550   20.9230  -27.8940 C   0  0  0  0  0  0  0  0  0  0  0  0
   -6.6600   22.5730  -30.5910 C   0  0  0  0  0  0  0  0  0  0  0  0
   -6.9110   21.3060  -31.1220 C   0  0  0  0  0  0  0  0  0  0  0  0
   -7.3810   18.6240  -32.1850 C   0  0  0  0  0  0  0  0  0  0  0  0
   -7.6250   17.3540  -32.7150 C   0  0  0  0  0  0  0  0  0  0  0  0
   -6.0566   14.3226  -33.1422 H   0  0  0  0  0  0  0  0  0  0  0  0
   -6.6468   13.6217  -34.6873 H   0  0  0  0  0  0  0  0  0  0  0  0
   -5.2407   14.7395  -34.6873 H   0  0  0  0  0  0  0  0  0  0  0  0
   -5.3145   17.3586  -35.2338 H   0  0  0  0  0  0  0  0  0  0  0  0
   -4.8766   19.6211  -34.2928 H   0  0  0  0  0  0  0  0  0  0  0  0
   -4.4740   21.2319  -33.5234 H   0  0  0  0  0  0  0  0  0  0  0  0
   -4.0417   23.4988  -32.5844 H   0  0  0  0  0  0  0  0  0  0  0  0
   -3.9918   22.6293  -29.4323 H   0  0  0  0  0  0  0  0  0  0  0  0
    0.2584   24.6911  -27.8110 H   0  0  0  0  0  0  0  0  0  0  0  0
    0.8008   21.7588  -27.6799 H   0  0  0  0  0  0  0  0  0  0  0  0
    0.4060   22.7580  -26.2136 H   0  0  0  0  0  0  0  0  0  0  0  0
   -1.2740   21.2760  -25.6190 H   0  0  0  0  0  0  0  0  0  0  0  0
   -0.6871   19.8764  -28.1713 H   0  0  0  0  0  0  0  0  0  0  0  0
   -1.7312   19.2355  -26.8421 H   0  0  0  0  0  0  0  0  0  0  0  0
   -2.9437   20.3986  -28.7794 H   0  0  0  0  0  0  0  0  0  0  0  0
   -3.3175   20.9840  -27.1035 H   0  0  0  0  0  0  0  0  0  0  0  0
   -7.2738   22.9495  -29.7595 H   0  0  0  0  0  0  0  0  0  0  0  0
   -7.7267   20.6940  -30.7095 H   0  0  0  0  0  0  0  0  0  0  0  0
   -7.9679   18.9774  -31.3244 H   0  0  0  0  0  0  0  0  0  0  0  0
   -8.4024   16.7155  -32.2702 H   0  0  0  0  0  0  0  0  0  0  0  0
  1  2  1  0
  2  3  1  0
  3  4  2  0
  4  5  1  0
  5  6  2  0
  6  7  1  0
  7  8  2  0
  8  9  1  0
  9 10  2  0
 10 11  1  0
 11 12  2  0
 11 13  2  0
 11 14  1  0
 14 15  1  0
 15 16  2  0
 16 17  1  0
 17 18  2  0
 18 19  1  0
 19 20  2  0
 20 21  1  0
 18 22  1  0
 22 23  1  0
 23 24  1  0
 24 25  1  0
 10 26  1  0
 26 27  2  0
  6 28  1  0
 28 29  2  0
 29  3  1  0
 27  7  1  0
 20 15  1  0
 25 17  1  0
  1 30  1  0
  1 31  1  0
  1 32  1  0
  4 33  1  0
  5 34  1  0
  8 35  1  0
  9 36  1  0
 16 37  1  0
 19 38  1  0
 22 39  1  0
 22 40  1  0
 23 41  1  0
 24 42  1  0
 24 43  1  0
 25 44  1  0
 25 45  1  0
 26 46  1  0
 27 47  1  0
 28 48  1  0
 29 49  1  0
M  CHG  2  14  -1  21  -1
M  END
>  <UniqueID>  (31) 
29

>  <SMILES>  (31) 
COc1ccc(-c2ccc(S(=O)(=O)[N-]c3cc4c(cc3[O-])CNCC4)cc2)cc1

>  <Energy>  (31) 
62.67450645895451

>  <Genealogy>  (31) 
COc1ccc(-c2ccc(S(=O)(=O)[N-]c3cc4c(cc3[O-])CNCC4)cc2)cc1 (protonated)
COc1ccc(-c2ccc(S(=O)(=O)[N-]c3cc4c(cc3[O-])CNCC4)cc2)cc1 (3D coordinates assigned)
COc1ccc(-c2ccc(S(=O)(=O)[N-]c3cc4c(cc3[O-])CNCC4)cc2)cc1 (nonaromatic ring conformer: 62.67450645895451 kcal/mol)

>  <smiles>  (31) 
COc1ccc(-c2ccc(S(=O)(=O)Nc3cc4c(cc3O)CNCC4)cc2)cc1

>  <score_type>  (31) 
oracle

>  <origin>  (31) 
adgpu

>  <m_score__min__energy>  (31) 
-14.51

>  <m_primary>  (31) 
energy

$$$$
31:0
     RDKit          3D

 31 32  0  0  0  0  0  0  0  0999 V2000
   -2.1050   22.3050  -29.6850 C   0  0  0  0  0  0  0  0  0  0  0  0
   -2.9190   22.6020  -30.9060 C   0  0  0  0  0  0  0  0  0  0  0  0
   -2.5420   22.1160  -32.0070 O   0  0  0  0  0  0  0  0  0  0  0  0
   -4.1450   23.4450  -30.8640 C   0  0  0  0  0  0  0  0  0  0  0  0
   -5.3460   22.9250  -31.3840 C   0  0  0  0  0  0  0  0  0  0  0  0
   -6.5250   23.6860  -31.3850 C   0  0  0  0  0  0  0  0  0  0  0  0
   -7.8050   23.1200  -31.9490 C   0  0  0  0  0  0  0  0  0  0  0  0
   -7.7480   21.6110  -32.0350 C   0  0  0  0  0  0  0  0  0  0  0  0
   -6.8530   21.0170  -32.9450 C   0  0  0  0  0  0  0  0  0  0  0  0
   -6.7460   19.6260  -33.0350 C   0  0  0  0  0  0  0  0  0  0  0  0
   -5.6250   18.9050  -34.1750 Cl  0  0  0  0  0  0  0  0  0  0  0  0
   -7.5290   18.8120  -32.2150 C   0  0  0  0  0  0  0  0  0  0  0  0
   -8.4160   19.3850  -31.3040 C   0  0  0  0  0  0  0  0  0  0  0  0
   -8.5340   20.7760  -31.2010 C   0  0  0  0  0  0  0  0  0  0  0  0
   -9.4370   21.2880  -30.2670 O   0  0  0  0  0  0  0  0  0  0  0  0
   -6.5090   24.9750  -30.8300 C   0  0  0  0  0  0  0  0  0  0  0  0
   -5.3310   25.4970  -30.2990 C   0  0  0  0  0  0  0  0  0  0  0  0
   -4.1530   24.7450  -30.3060 C   0  0  0  0  0  0  0  0  0  0  0  0
   -3.0120   25.2940  -29.7320 O   0  0  0  0  0  0  0  0  0  0  0  0
   -2.7002   22.5222  -28.7858 H   0  0  0  0  0  0  0  0  0  0  0  0
   -1.8162   21.2436  -29.6861 H   0  0  0  0  0  0  0  0  0  0  0  0
   -1.2005   22.9311  -29.6861 H   0  0  0  0  0  0  0  0  0  0  0  0
   -5.3601   21.9053  -31.7963 H   0  0  0  0  0  0  0  0  0  0  0  0
   -8.6427   23.4104  -31.2978 H   0  0  0  0  0  0  0  0  0  0  0  0
   -7.9440   23.5205  -32.9640 H   0  0  0  0  0  0  0  0  0  0  0  0
   -6.2316   21.6538  -33.5918 H   0  0  0  0  0  0  0  0  0  0  0  0
   -7.4464   17.7175  -32.2874 H   0  0  0  0  0  0  0  0  0  0  0  0
   -9.0290   18.7374  -30.6600 H   0  0  0  0  0  0  0  0  0  0  0  0
   -9.1770   21.9400  -29.5400 H   0  0  0  0  0  0  0  0  0  0  0  0
   -7.4303   25.5758  -30.8141 H   0  0  0  0  0  0  0  0  0  0  0  0
   -5.3283   26.5101  -29.8705 H   0  0  0  0  0  0  0  0  0  0  0  0
  1  2  1  0
  2  3  2  0
  2  4  1  0
  4  5  2  0
  5  6  1  0
  6  7  1  0
  7  8  1  0
  8  9  2  0
  9 10  1  0
 10 11  1  0
 10 12  2  0
 12 13  1  0
 13 14  2  0
 14 15  1  0
  6 16  2  0
 16 17  1  0
 17 18  2  0
 18 19  1  0
 18  4  1  0
 14  8  1  0
  1 20  1  0
  1 21  1  0
  1 22  1  0
  5 23  1  0
  7 24  1  0
  7 25  1  0
  9 26  1  0
 12 27  1  0
 13 28  1  0
 15 29  1  0
 16 30  1  0
 17 31  1  0
M  CHG  1  19  -1
M  END
>  <UniqueID>  (32) 
30

>  <SMILES>  (32) 
CC(=O)c1cc(Cc2cc(Cl)ccc2O)ccc1[O-]

>  <Energy>  (32) 
35.60762125379172

>  <Genealogy>  (32) 
CC(=O)c1cc(Cc2cc(Cl)ccc2O)ccc1[O-] (protonated)
CC(=O)c1cc(Cc2cc(Cl)ccc2O)ccc1[O-] (3D coordinates assigned)
CC(=O)c1cc(Cc2cc(Cl)ccc2O)ccc1[O-] (optimized conformer: 35.60762125379172 kcal/mol)

>  <smiles>  (32) 
CC(=O)c1cc(Cc2cc(Cl)ccc2O)ccc1O

>  <score_type>  (32) 
oracle

>  <origin>  (32) 
adgpu

>  <m_score__min__energy>  (32) 
-10.199999999999999

>  <m_primary>  (32) 
energy

$$$$
32:0
     RDKit          3D

 41 43  0  0  0  0  0  0  0  0999 V2000
   -9.4660   23.1230  -31.9700 O   0  0  0  0  0  0  0  0  0  0  0  0
   -8.5150   22.2470  -31.2040 S   0  0  0  0  0  0  0  0  0  0  0  0
   -9.1370   21.9110  -29.8750 O   0  0  0  0  0  0  0  0  0  0  0  0
   -7.0050   23.1170  -30.9490 C   0  0  0  0  0  0  0  0  0  0  0  0
   -6.9710   24.2240  -30.0910 C   0  0  0  0  0  0  0  0  0  0  0  0
   -5.7830   24.9350  -29.9110 C   0  0  0  0  0  0  0  0  0  0  0  0
   -4.6190   24.5440  -30.5790 C   0  0  0  0  0  0  0  0  0  0  0  0
   -3.4610   25.3010  -30.4300 O   0  0  0  0  0  0  0  0  0  0  0  0
   -4.6360   23.4110  -31.4170 C   0  0  0  0  0  0  0  0  0  0  0  0
   -3.4630   22.9790  -32.1230 N   0  0  0  0  0  0  0  0  0  0  0  0
   -2.3870   22.4640  -31.5980 C   0  0  0  0  0  0  0  0  0  0  0  0
   -2.2510   22.1220  -30.1630 C   0  0  0  0  0  0  0  0  0  0  0  0
   -2.8480   20.9450  -29.6760 C   0  0  0  0  0  0  0  0  0  0  0  0
   -3.5450   20.0990  -30.5330 O   0  0  0  0  0  0  0  0  0  0  0  0
   -2.7340   20.6050  -28.3240 C   0  0  0  0  0  0  0  0  0  0  0  0
   -2.0370   21.4390  -27.4460 C   0  0  0  0  0  0  0  0  0  0  0  0
   -1.9200   21.0910  -26.1060 O   0  0  0  0  0  0  0  0  0  0  0  0
   -1.4660   22.6240  -27.9130 C   0  0  0  0  0  0  0  0  0  0  0  0
   -1.5840   22.9820  -29.2650 C   0  0  0  0  0  0  0  0  0  0  0  0
   -1.0610   24.1970  -29.7070 O   0  0  0  0  0  0  0  0  0  0  0  0
   -5.8400   22.7270  -31.6240 C   0  0  0  0  0  0  0  0  0  0  0  0
   -8.1970   20.7950  -32.1190 N   0  0  0  0  0  0  0  0  0  0  0  0
   -7.1160   20.0140  -31.5190 C   0  0  0  0  0  0  0  0  0  0  0  0
   -7.3570   18.5650  -31.9130 C   0  0  0  0  0  0  0  0  0  0  0  0
   -8.8250   18.4950  -32.3050 C   0  0  0  0  0  0  0  0  0  0  0  0
   -9.3590   19.9080  -32.1280 C   0  0  0  0  0  0  0  0  0  0  0  0
   -7.8821   24.5336  -29.5581 H   0  0  0  0  0  0  0  0  0  0  0  0
   -5.7629   25.8068  -29.2405 H   0  0  0  0  0  0  0  0  0  0  0  0
   -1.5293   22.2720  -32.2594 H   0  0  0  0  0  0  0  0  0  0  0  0
   -3.1944   19.6783  -27.9509 H   0  0  0  0  0  0  0  0  0  0  0  0
   -0.9211   23.2802  -27.2184 H   0  0  0  0  0  0  0  0  0  0  0  0
   -1.5510   24.7730  -30.3810 H   0  0  0  0  0  0  0  0  0  0  0  0
   -5.8720   21.8771  -32.3216 H   0  0  0  0  0  0  0  0  0  0  0  0
   -6.1431   20.3550  -31.9027 H   0  0  0  0  0  0  0  0  0  0  0  0
   -7.1018   20.1308  -30.4253 H   0  0  0  0  0  0  0  0  0  0  0  0
   -6.7174   18.2853  -32.7631 H   0  0  0  0  0  0  0  0  0  0  0  0
   -7.1177   17.8717  -31.0932 H   0  0  0  0  0  0  0  0  0  0  0  0
   -8.9288   18.1728  -33.3516 H   0  0  0  0  0  0  0  0  0  0  0  0
   -9.3779   17.7691  -31.6907 H   0  0  0  0  0  0  0  0  0  0  0  0
  -10.0286   20.1679  -32.9611 H   0  0  0  0  0  0  0  0  0  0  0  0
   -9.9361   20.0004  -31.1961 H   0  0  0  0  0  0  0  0  0  0  0  0
  1  2  2  0
  2  3  2  0
  2  4  1  0
  4  5  2  0
  5  6  1  0
  6  7  2  0
  7  8  1  0
  7  9  1  0
  9 10  1  0
 10 11  2  3
 11 12  1  0
 12 13  2  0
 13 14  1  0
 13 15  1  0
 15 16  2  0
 16 17  1  0
 16 18  1  0
 18 19  2  0
 19 20  1  0
  9 21  2  0
  2 22  1  0
 22 23  1  0
 23 24  1  0
 24 25  1  0
 25 26  1  0
 21  4  1  0
 26 22  1  0
 19 12  1  0
  5 27  1  0
  6 28  1  0
 11 29  1  0
 15 30  1  0
 18 31  1  0
 20 32  1  0
 21 33  1  0
 23 34  1  0
 23 35  1  0
 24 36  1  0
 24 37  1  0
 25 38  1  0
 25 39  1  0
 26 40  1  0
 26 41  1  0
M  CHG  3   8  -1  14  -1  17  -1
M  END
>  <UniqueID>  (33) 
31

>  <SMILES>  (33) 
O=S(=O)(c1ccc([O-])c(N=Cc2c([O-])cc([O-])cc2O)c1)N1CCCC1

>  <Energy>  (33) 
57.115699879981776

>  <Genealogy>  (33) 
O=S(=O)(c1ccc([O-])c(N=Cc2c([O-])cc([O-])cc2O)c1)N1CCCC1 (protonated)
O=S(=O)(c1ccc([O-])c(N=Cc2c([O-])cc([O-])cc2O)c1)N1CCCC1 (3D coordinates assigned)
O=S(=O)(c1ccc([O-])c(N=Cc2c([O-])cc([O-])cc2O)c1)N1CCCC1 (nonaromatic ring conformer: 57.115699879981776 kcal/mol)

>  <smiles>  (33) 
O=S(=O)(c1ccc(O)c(N=Cc2c(O)cc(O)cc2O)c1)N1CCCC1

>  <score_type>  (33) 
oracle

>  <origin>  (33) 
adgpu

>  <m_score__min__energy>  (33) 
-13.56

>  <m_primary>  (33) 
energy

$$$$
33:0
     RDKit          3D

 60 63  0  0  0  0  0  0  0  0999 V2000
   -8.4650   19.1170  -32.6140 C   0  0  0  0  0  0  0  0  0  0  0  0
   -7.0000   19.0500  -32.9250 C   0  0  0  0  0  0  0  0  0  0  0  0
   -6.5020   18.0400  -33.7630 C   0  0  0  0  0  0  0  0  0  0  0  0
   -5.1380   17.9940  -34.0880 C   0  0  0  0  0  0  0  0  0  0  0  0
   -4.6000   16.8790  -34.9370 C   0  0  0  0  0  0  0  0  0  0  0  0
   -4.2690   18.9560  -33.5580 C   0  0  0  0  0  0  0  0  0  0  0  0
   -4.7620   19.9820  -32.7380 C   0  0  0  0  0  0  0  0  0  0  0  0
   -3.6720   21.1800  -32.0430 S   0  0  0  0  0  0  0  0  0  0  0  0
   -4.1420   22.5650  -32.3900 O   0  0  0  0  0  0  0  0  0  0  0  0
   -3.7060   21.0130  -30.5490 O   0  0  0  0  0  0  0  0  0  0  0  0
   -2.0260   20.9450  -32.6590 C   0  0  0  0  0  0  0  0  0  0  0  0
   -1.8430   20.7780  -34.0430 C   0  0  0  0  0  0  0  0  0  0  0  0
   -0.5770   20.5150  -34.5680 C   0  0  0  0  0  0  0  0  0  0  0  0
    0.5250   20.4200  -33.7210 C   0  0  0  0  0  0  0  0  0  0  0  0
    0.3680   20.6040  -32.3460 C   0  0  0  0  0  0  0  0  0  0  0  0
   -0.8980   20.8790  -31.8000 C   0  0  0  0  0  0  0  0  0  0  0  0
   -0.9980   21.1080  -30.3410 C   0  0  0  0  0  0  0  0  0  0  0  0
   -1.2790   20.1460  -29.5790 O   0  0  0  0  0  0  0  0  0  0  0  0
   -0.8810   22.4230  -29.7790 N   0  0  0  0  0  0  0  0  0  0  0  0
   -1.9180   23.1410  -29.0960 C   0  0  0  0  0  0  0  0  0  0  0  0
   -1.8250   23.4490  -27.7260 C   0  0  0  0  0  0  0  0  0  0  0  0
   -2.8550   24.1470  -27.0910 C   0  0  0  0  0  0  0  0  0  0  0  0
   -3.9890   24.5320  -27.8120 C   0  0  0  0  0  0  0  0  0  0  0  0
   -4.0990   24.2150  -29.1720 C   0  0  0  0  0  0  0  0  0  0  0  0
   -5.5420   24.6850  -30.0680 S   0  0  0  0  0  0  0  0  0  0  0  0
   -5.1660   25.6180  -31.1860 O   0  0  0  0  0  0  0  0  0  0  0  0
   -6.4820   25.4050  -29.1420 O   0  0  0  0  0  0  0  0  0  0  0  0
   -6.3240   23.2600  -30.7020 N   0  0  0  0  0  0  0  0  0  0  0  0
   -7.0910   23.5510  -31.9170 C   0  0  0  0  0  0  0  0  0  0  0  0
   -8.2390   22.5510  -31.9680 C   0  0  0  0  0  0  0  0  0  0  0  0
   -8.3260   21.9540  -30.5700 C   0  0  0  0  0  0  0  0  0  0  0  0
   -7.2830   22.6970  -29.7480 C   0  0  0  0  0  0  0  0  0  0  0  0
   -3.0690   23.5050  -29.8050 C   0  0  0  0  0  0  0  0  0  0  0  0
   -6.1260   20.0280  -32.4280 C   0  0  0  0  0  0  0  0  0  0  0  0
   -8.6084   19.1236  -31.5234 H   0  0  0  0  0  0  0  0  0  0  0  0
   -8.8897   20.0355  -33.0452 H   0  0  0  0  0  0  0  0  0  0  0  0
   -8.9718   18.2411  -33.0452 H   0  0  0  0  0  0  0  0  0  0  0  0
   -7.1859   17.2794  -34.1676 H   0  0  0  0  0  0  0  0  0  0  0  0
   -4.2137   16.0784  -34.2891 H   0  0  0  0  0  0  0  0  0  0  0  0
   -5.4049   16.4805  -35.5720 H   0  0  0  0  0  0  0  0  0  0  0  0
   -3.7871   17.2611  -35.5720 H   0  0  0  0  0  0  0  0  0  0  0  0
   -3.1940   18.9068  -33.7859 H   0  0  0  0  0  0  0  0  0  0  0  0
   -2.7071   20.8555  -34.7193 H   0  0  0  0  0  0  0  0  0  0  0  0
   -0.4490   20.3825  -35.6525 H   0  0  0  0  0  0  0  0  0  0  0  0
    1.5197   20.1998  -34.1359 H   0  0  0  0  0  0  0  0  0  0  0  0
    1.2432   20.5331  -31.6835 H   0  0  0  0  0  0  0  0  0  0  0  0
   -0.9384   23.1391  -27.1533 H   0  0  0  0  0  0  0  0  0  0  0  0
   -2.7736   24.3940  -26.0222 H   0  0  0  0  0  0  0  0  0  0  0  0
   -4.7967   25.0851  -27.3103 H   0  0  0  0  0  0  0  0  0  0  0  0
   -5.5890   22.5440  -30.9180 H   0  0  0  0  0  0  0  0  0  0  0  0
   -7.4851   24.5772  -31.8784 H   0  0  0  0  0  0  0  0  0  0  0  0
   -6.4566   23.4670  -32.8117 H   0  0  0  0  0  0  0  0  0  0  0  0
   -9.1794   23.0592  -32.2275 H   0  0  0  0  0  0  0  0  0  0  0  0
   -8.0701   21.7768  -32.7309 H   0  0  0  0  0  0  0  0  0  0  0  0
   -9.3300   22.1077  -30.1476 H   0  0  0  0  0  0  0  0  0  0  0  0
   -8.1450   20.8690  -30.5764 H   0  0  0  0  0  0  0  0  0  0  0  0
   -7.7589   23.5016  -29.1682 H   0  0  0  0  0  0  0  0  0  0  0  0
   -6.7853   22.0234  -29.0349 H   0  0  0  0  0  0  0  0  0  0  0  0
   -3.1659   23.2320  -30.8662 H   0  0  0  0  0  0  0  0  0  0  0  0
   -6.5149   20.8359  -31.7908 H   0  0  0  0  0  0  0  0  0  0  0  0
  1  2  1  0
  2  3  2  0
  3  4  1  0
  4  5  1  0
  4  6  2  0
  6  7  1  0
  7  8  1  0
  8  9  2  0
  8 10  2  0
  8 11  1  0
 11 12  2  0
 12 13  1  0
 13 14  2  0
 14 15  1  0
 15 16  2  0
 16 17  1  0
 17 18  2  0
 17 19  1  0
 19 20  1  0
 20 21  2  0
 21 22  1  0
 22 23  2  0
 23 24  1  0
 24 25  1  0
 25 26  2  0
 25 27  2  0
 25 28  1  0
 28 29  1  0
 29 30  1  0
 30 31  1  0
 31 32  1  0
 24 33  2  0
  7 34  2  0
 34  2  1  0
 16 11  1  0
 33 20  1  0
 32 28  1  0
  1 35  1  0
  1 36  1  0
  1 37  1  0
  3 38  1  0
  5 39  1  0
  5 40  1  0
  5 41  1  0
  6 42  1  0
 12 43  1  0
 13 44  1  0
 14 45  1  0
 15 46  1  0
 21 47  1  0
 22 48  1  0
 23 49  1  0
 28 50  1  0
 29 51  1  0
 29 52  1  0
 30 53  1  0
 30 54  1  0
 31 55  1  0
 31 56  1  0
 32 57  1  0
 32 58  1  0
 33 59  1  0
 34 60  1  0
M  CHG  2  19  -1  28   1
M  END
>  <UniqueID>  (34) 
32

>  <SMILES>  (34) 
Cc1cc(C)cc(S(=O)(=O)c2ccccc2C(=O)[N-]c2cccc(S(=O)(=O)[NH+]3CCCC3)c2)c1

>  <Energy>  (34) 
74.01335837963752

>  <Genealogy>  (34) 
Cc1cc(C)cc(S(=O)(=O)c2ccccc2C(=O)[N-]c2cccc(S(=O)(=O)[NH+]3CCCC3)c2)c1 (protonated)
Cc1cc(C)cc(S(=O)(=O)c2ccccc2C(=O)[N-]c2cccc(S(=O)(=O)[NH+]3CCCC3)c2)c1 (3D coordinates assigned)
Cc1cc(C)cc(S(=O)(=O)c2ccccc2C(=O)[N-]c2cccc(S(=O)(=O)[NH+]3CCCC3)c2)c1 (nonaromatic ring conformer: 74.01335837963752 kcal/mol)

>  <smiles>  (34) 
Cc1cc(C)cc(S(=O)(=O)c2ccccc2C(=O)Nc2cccc(S(=O)(=O)N3CCCC3)c2)c1

>  <score_type>  (34) 
oracle

>  <origin>  (34) 
adgpu

>  <m_score__min__energy>  (34) 
-11.41

>  <m_primary>  (34) 
energy

$$$$
34:0
     RDKit          3D

 43 45  0  0  0  0  0  0  0  0999 V2000
    1.9220   20.2350  -27.9170 N   0  0  0  0  0  0  0  0  0  0  0  0
    0.5720   19.3690  -28.5600 S   0  0  0  0  0  0  0  0  0  0  0  0
    1.0080   18.5890  -29.7670 O   0  0  0  0  0  0  0  0  0  0  0  0
    0.0540   18.4080  -27.5270 O   0  0  0  0  0  0  0  0  0  0  0  0
   -0.6960   20.5060  -29.0080 C   0  0  0  0  0  0  0  0  0  0  0  0
   -1.7360   20.7890  -28.1150 C   0  0  0  0  0  0  0  0  0  0  0  0
   -2.7500   21.6810  -28.4760 C   0  0  0  0  0  0  0  0  0  0  0  0
   -2.7400   22.2960  -29.7390 C   0  0  0  0  0  0  0  0  0  0  0  0
   -3.7930   23.1990  -30.1180 N   0  0  0  0  0  0  0  0  0  0  0  0
   -3.7660   24.5490  -30.0730 C   0  0  0  0  0  0  0  0  0  0  0  0
   -2.6540   25.2960  -29.7020 O   0  0  0  0  0  0  0  0  0  0  0  0
   -4.9780   25.0870  -30.4570 C   0  0  0  0  0  0  0  0  0  0  0  0
   -5.7970   24.0090  -30.7390 C   0  0  0  0  0  0  0  0  0  0  0  0
   -7.2400   24.0790  -31.1520 C   0  0  0  0  0  0  0  0  0  0  0  0
   -7.5860   23.1380  -32.3200 C   0  0  0  0  0  0  0  0  0  0  0  0
   -8.6170   22.0480  -31.9700 C   0  0  0  0  0  0  0  0  0  0  0  0
   -8.1230   20.6510  -32.2640 C   0  0  0  0  0  0  0  0  0  0  0  0
   -7.0120   20.4500  -33.1010 C   0  0  0  0  0  0  0  0  0  0  0  0
   -6.5340   19.1590  -33.3420 C   0  0  0  0  0  0  0  0  0  0  0  0
   -7.1700   18.0580  -32.7660 C   0  0  0  0  0  0  0  0  0  0  0  0
   -8.2900   18.2450  -31.9530 C   0  0  0  0  0  0  0  0  0  0  0  0
   -8.7710   19.5350  -31.7070 C   0  0  0  0  0  0  0  0  0  0  0  0
   -5.0340   22.8710  -30.5350 C   0  0  0  0  0  0  0  0  0  0  0  0
   -5.4830   21.5650  -30.6980 O   0  0  0  0  0  0  0  0  0  0  0  0
   -1.6970   22.0020  -30.6340 C   0  0  0  0  0  0  0  0  0  0  0  0
   -0.6830   21.1110  -30.2710 C   0  0  0  0  0  0  0  0  0  0  0  0
    2.4480   19.5700  -27.3080 H   0  0  0  0  0  0  0  0  0  0  0  0
   -1.7555   20.3080  -27.1260 H   0  0  0  0  0  0  0  0  0  0  0  0
   -3.5609   21.9028  -27.7666 H   0  0  0  0  0  0  0  0  0  0  0  0
   -5.2386   26.1535  -30.5247 H   0  0  0  0  0  0  0  0  0  0  0  0
   -7.8639   23.8068  -30.2879 H   0  0  0  0  0  0  0  0  0  0  0  0
   -7.4311   25.1067  -31.4944 H   0  0  0  0  0  0  0  0  0  0  0  0
   -7.9916   23.7447  -33.1430 H   0  0  0  0  0  0  0  0  0  0  0  0
   -6.6560   22.6172  -32.5919 H   0  0  0  0  0  0  0  0  0  0  0  0
   -8.8510   22.1184  -30.8975 H   0  0  0  0  0  0  0  0  0  0  0  0
   -9.5043   22.2215  -32.5965 H   0  0  0  0  0  0  0  0  0  0  0  0
   -6.5161   21.3133  -33.5688 H   0  0  0  0  0  0  0  0  0  0  0  0
   -5.6552   19.0103  -33.9866 H   0  0  0  0  0  0  0  0  0  0  0  0
   -6.7890   17.0431  -32.9525 H   0  0  0  0  0  0  0  0  0  0  0  0
   -8.7947   17.3762  -31.5053 H   0  0  0  0  0  0  0  0  0  0  0  0
   -9.6601   19.6768  -31.0750 H   0  0  0  0  0  0  0  0  0  0  0  0
   -1.6785   22.4761  -31.6264 H   0  0  0  0  0  0  0  0  0  0  0  0
    0.1275   20.8844  -30.9794 H   0  0  0  0  0  0  0  0  0  0  0  0
  1  2  1  0
  2  3  2  0
  2  4  2  0
  2  5  1  0
  5  6  2  0
  6  7  1  0
  7  8  2  0
  8  9  1  0
  9 10  1  0
 10 11  1  0
 10 12  2  0
 12 13  1  0
 13 14  1  0
 14 15  1  0
 15 16  1  0
 16 17  1  0
 17 18  2  0
 18 19  1  0
 19 20  2  0
 20 21  1  0
 21 22  2  0
 13 23  2  0
 23 24  1  0
  8 25  1  0
 25 26  2  0
 26  5  1  0
 23  9  1  0
 22 17  1  0
  1 27  1  0
  6 28  1  0
  7 29  1  0
 12 30  1  0
 14 31  1  0
 14 32  1  0
 15 33  1  0
 15 34  1  0
 16 35  1  0
 16 36  1  0
 18 37  1  0
 19 38  1  0
 20 39  1  0
 21 40  1  0
 22 41  1  0
 25 42  1  0
 26 43  1  0
M  CHG  3   1  -1  11  -1  24  -1
M  END
>  <UniqueID>  (35) 
33

>  <SMILES>  (35) 
[NH-]S(=O)(=O)c1ccc(-n2c([O-])cc(CCCc3ccccc3)c2[O-])cc1

>  <Energy>  (35) 
71.81134747924126

>  <Genealogy>  (35) 
[NH-]S(=O)(=O)c1ccc(-n2c([O-])cc(CCCc3ccccc3)c2[O-])cc1 (protonated)
[NH-]S(=O)(=O)c1ccc(-n2c([O-])cc(CCCc3ccccc3)c2[O-])cc1 (3D coordinates assigned)
[NH-]S(=O)(=O)c1ccc(-n2c([O-])cc(CCCc3ccccc3)c2[O-])cc1 (optimized conformer: 71.81134747924126 kcal/mol)

>  <smiles>  (35) 
NS(=O)(=O)c1ccc(-n2c(O)cc(CCCc3ccccc3)c2O)cc1

>  <score_type>  (35) 
oracle

>  <origin>  (35) 
adgpu

>  <m_score__min__energy>  (35) 
-11.460000000000001

>  <m_primary>  (35) 
energy

$$$$
35:0
     RDKit          3D

 57 60  0  0  0  0  0  0  0  0999 V2000
   -2.1920   22.5930  -29.3830 O   0  0  0  0  0  0  0  0  0  0  0  0
   -3.0600   22.4020  -30.2780 C   0  0  0  0  0  0  0  0  0  0  0  0
   -4.3340   23.1510  -30.2040 C   0  0  0  0  0  0  0  0  0  0  0  0
   -5.5490   22.4450  -30.2100 C   0  0  0  0  0  0  0  0  0  0  0  0
   -6.7750   23.1230  -30.0840 C   0  0  0  0  0  0  0  0  0  0  0  0
   -8.0260   22.4170  -30.0480 N   0  0  0  0  0  0  0  0  0  0  0  0
   -8.9080   21.9770  -31.4770 S   0  0  0  0  0  0  0  0  0  0  0  0
  -10.2990   21.5580  -31.0920 O   0  0  0  0  0  0  0  0  0  0  0  0
   -8.9930   23.1760  -32.3800 O   0  0  0  0  0  0  0  0  0  0  0  0
   -8.1190   20.6410  -32.3060 C   0  0  0  0  0  0  0  0  0  0  0  0
   -6.9430   20.8590  -33.0330 C   0  0  0  0  0  0  0  0  0  0  0  0
   -6.2580   19.7810  -33.6000 C   0  0  0  0  0  0  0  0  0  0  0  0
   -6.7400   18.4740  -33.4380 C   0  0  0  0  0  0  0  0  0  0  0  0
   -5.8210   17.1060  -34.0780 S   0  0  0  0  0  0  0  0  0  0  0  0
   -6.7370   15.9220  -34.2190 O   0  0  0  0  0  0  0  0  0  0  0  0
   -5.3030   17.4590  -35.4440 O   0  0  0  0  0  0  0  0  0  0  0  0
   -4.4730   16.6700  -33.0520 N   0  0  0  0  0  0  0  0  0  0  0  0
   -4.2720   15.2220  -32.9970 C   0  0  0  0  0  0  0  0  0  0  0  0
   -2.8040   15.0100  -32.7010 C   0  0  0  0  0  0  0  0  0  0  0  0
   -2.1190   16.1990  -33.3430 C   0  0  0  0  0  0  0  0  0  0  0  0
   -3.2090   17.2520  -33.5170 C   0  0  0  0  0  0  0  0  0  0  0  0
   -7.9440   18.2630  -32.7510 C   0  0  0  0  0  0  0  0  0  0  0  0
   -8.6300   19.3410  -32.1850 C   0  0  0  0  0  0  0  0  0  0  0  0
   -6.7720   24.5190  -29.9560 C   0  0  0  0  0  0  0  0  0  0  0  0
   -5.5720   25.2320  -30.0040 C   0  0  0  0  0  0  0  0  0  0  0  0
   -4.3560   24.5570  -30.1460 C   0  0  0  0  0  0  0  0  0  0  0  0
   -3.1810   25.2930  -30.2530 O   0  0  0  0  0  0  0  0  0  0  0  0
   -2.7730   21.4970  -31.3650 N   0  0  0  0  0  0  0  0  0  0  0  0
   -3.4090   21.6640  -32.6790 C   0  0  0  0  0  0  0  0  0  0  0  0
   -2.4740   21.1640  -33.7850 C   0  0  0  0  0  0  0  0  0  0  0  0
   -2.0030   19.8610  -33.4990 O   0  0  0  0  0  0  0  0  0  0  0  0
   -1.1900   19.8940  -32.3430 C   0  0  0  0  0  0  0  0  0  0  0  0
   -2.0130   20.2680  -31.1080 C   0  0  0  0  0  0  0  0  0  0  0  0
   -5.5413   21.3500  -30.3144 H   0  0  0  0  0  0  0  0  0  0  0  0
   -8.5350   22.3380  -29.1380 H   0  0  0  0  0  0  0  0  0  0  0  0
   -6.5570   21.8814  -33.1583 H   0  0  0  0  0  0  0  0  0  0  0  0
   -5.3374   19.9582  -34.1754 H   0  0  0  0  0  0  0  0  0  0  0  0
   -4.8891   14.7815  -32.2000 H   0  0  0  0  0  0  0  0  0  0  0  0
   -4.5636   14.7409  -33.9423 H   0  0  0  0  0  0  0  0  0  0  0  0
   -2.6232   14.9948  -31.6161 H   0  0  0  0  0  0  0  0  0  0  0  0
   -2.4310   14.0501  -33.0875 H   0  0  0  0  0  0  0  0  0  0  0  0
   -1.3179   16.5789  -32.6919 H   0  0  0  0  0  0  0  0  0  0  0  0
   -1.6524   15.9321  -34.3027 H   0  0  0  0  0  0  0  0  0  0  0  0
   -2.9661   18.1441  -32.9210 H   0  0  0  0  0  0  0  0  0  0  0  0
   -3.2891   17.5514  -34.5724 H   0  0  0  0  0  0  0  0  0  0  0  0
   -8.3501   17.2450  -32.6572 H   0  0  0  0  0  0  0  0  0  0  0  0
   -9.5722   19.1693  -31.6438 H   0  0  0  0  0  0  0  0  0  0  0  0
   -7.7215   25.0567  -29.8168 H   0  0  0  0  0  0  0  0  0  0  0  0
   -5.5837   26.3294  -29.9298 H   0  0  0  0  0  0  0  0  0  0  0  0
   -4.3452   21.0870  -32.7058 H   0  0  0  0  0  0  0  0  0  0  0  0
   -3.6214   22.7308  -32.8427 H   0  0  0  0  0  0  0  0  0  0  0  0
   -3.0215   21.1474  -34.7389 H   0  0  0  0  0  0  0  0  0  0  0  0
   -1.6109   21.8430  -33.8483 H   0  0  0  0  0  0  0  0  0  0  0  0
   -0.7411   18.9015  -32.1898 H   0  0  0  0  0  0  0  0  0  0  0  0
   -0.4058   20.6520  -32.4859 H   0  0  0  0  0  0  0  0  0  0  0  0
   -2.7107   19.4504  -30.8738 H   0  0  0  0  0  0  0  0  0  0  0  0
   -1.3344   20.4340  -30.2583 H   0  0  0  0  0  0  0  0  0  0  0  0
  1  2  2  0
  2  3  1  0
  3  4  2  0
  4  5  1  0
  5  6  1  0
  6  7  1  0
  7  8  2  0
  7  9  2  0
  7 10  1  0
 10 11  2  0
 11 12  1  0
 12 13  2  0
 13 14  1  0
 14 15  2  0
 14 16  2  0
 14 17  1  0
 17 18  1  0
 18 19  1  0
 19 20  1  0
 20 21  1  0
 13 22  1  0
 22 23  2  0
  5 24  2  0
 24 25  1  0
 25 26  2  0
 26 27  1  0
  2 28  1  0
 28 29  1  0
 29 30  1  0
 30 31  1  0
 31 32  1  0
 32 33  1  0
 26  3  1  0
 33 28  1  0
 23 10  1  0
 21 17  1  0
  4 34  1  0
  6 35  1  0
 11 36  1  0
 12 37  1  0
 18 38  1  0
 18 39  1  0
 19 40  1  0
 19 41  1  0
 20 42  1  0
 20 43  1  0
 21 44  1  0
 21 45  1  0
 22 46  1  0
 23 47  1  0
 24 48  1  0
 25 49  1  0
 29 50  1  0
 29 51  1  0
 30 52  1  0
 30 53  1  0
 32 54  1  0
 32 55  1  0
 33 56  1  0
 33 57  1  0
M  CHG  1  27  -1
M  END
>  <UniqueID>  (36) 
34

>  <SMILES>  (36) 
O=C(c1cc(NS(=O)(=O)c2ccc(S(=O)(=O)N3CCCC3)cc2)ccc1[O-])N1CCOCC1

>  <Energy>  (36) 
68.61250124306167

>  <Genealogy>  (36) 
O=C(c1cc(NS(=O)(=O)c2ccc(S(=O)(=O)N3CCCC3)cc2)ccc1[O-])N1CCOCC1 (protonated)
O=C(c1cc(NS(=O)(=O)c2ccc(S(=O)(=O)N3CCCC3)cc2)ccc1[O-])N1CCOCC1 (3D coordinates assigned)
O=C(c1cc(NS(=O)(=O)c2ccc(S(=O)(=O)N3CCCC3)cc2)ccc1[O-])N1CCOCC1 (nonaromatic ring conformer: 68.61250124306167 kcal/mol)

>  <smiles>  (36) 
O=C(c1cc(NS(=O)(=O)c2ccc(S(=O)(=O)N3CCCC3)cc2)ccc1O)N1CCOCC1

>  <score_type>  (36) 
oracle

>  <origin>  (36) 
adgpu

>  <m_score__min__energy>  (36) 
-13.470000000000001

>  <m_primary>  (36) 
energy

$$$$
36:0
     RDKit          3D

 53 55  0  0  0  0  0  0  0  0999 V2000
   -3.7690   24.1900  -27.2380 C   0  0  0  0  0  0  0  0  0  0  0  0
   -3.8850   23.3830  -28.4060 O   0  0  0  0  0  0  0  0  0  0  0  0
   -4.8640   23.5560  -29.3950 C   0  0  0  0  0  0  0  0  0  0  0  0
   -6.0440   22.7870  -29.4270 C   0  0  0  0  0  0  0  0  0  0  0  0
   -7.0040   22.9960  -30.4320 C   0  0  0  0  0  0  0  0  0  0  0  0
   -8.2650   22.1730  -30.4700 C   0  0  0  0  0  0  0  0  0  0  0  0
   -7.9940   20.8440  -31.0110 N   0  0  0  0  0  0  0  0  0  0  0  0
   -7.4180   20.6420  -32.3090 C   0  0  0  0  0  0  0  0  0  0  0  0
   -7.1780   21.6240  -33.0610 O   0  0  0  0  0  0  0  0  0  0  0  0
   -7.0670   19.2610  -32.7720 C   0  0  0  0  0  0  0  0  0  0  0  0
   -5.9330   19.3320  -34.1980 S   0  0  0  0  0  0  0  0  0  0  0  0
   -4.4410   19.4100  -33.2020 C   0  0  0  0  0  0  0  0  0  0  0  0
   -3.5200   18.4280  -33.1560 N   0  0  0  0  0  0  0  0  0  0  0  0
   -2.5440   18.8500  -32.3620 N   0  0  0  0  0  0  0  0  0  0  0  0
   -2.8840   20.0830  -31.9300 C   0  0  0  0  0  0  0  0  0  0  0  0
   -2.0570   20.8740  -30.9980 C   0  0  0  0  0  0  0  0  0  0  0  0
   -2.1750   22.2690  -30.9700 C   0  0  0  0  0  0  0  0  0  0  0  0
   -1.3880   23.0270  -30.1010 C   0  0  0  0  0  0  0  0  0  0  0  0
   -0.4520   22.4010  -29.2580 C   0  0  0  0  0  0  0  0  0  0  0  0
    0.3570   23.1280  -28.3700 O   0  0  0  0  0  0  0  0  0  0  0  0
    0.0100   23.4200  -27.0200 C   0  0  0  0  0  0  0  0  0  0  0  0
   -0.3080   21.0050  -29.2980 C   0  0  0  0  0  0  0  0  0  0  0  0
    0.6420   20.4080  -28.4530 O   0  0  0  0  0  0  0  0  0  0  0  0
    0.5260   19.0990  -27.9080 C   0  0  0  0  0  0  0  0  0  0  0  0
   -1.1090   20.2470  -30.1740 C   0  0  0  0  0  0  0  0  0  0  0  0
   -4.0720   20.4580  -32.4470 N   0  0  0  0  0  0  0  0  0  0  0  0
   -4.6990   21.7120  -32.3700 N   0  0  0  0  0  0  0  0  0  0  0  0
   -6.7780   23.9770  -31.4090 C   0  0  0  0  0  0  0  0  0  0  0  0
   -5.6060   24.7350  -31.3840 C   0  0  0  0  0  0  0  0  0  0  0  0
   -4.6540   24.5290  -30.3820 C   0  0  0  0  0  0  0  0  0  0  0  0
   -3.4940   25.2960  -30.3660 O   0  0  0  0  0  0  0  0  0  0  0  0
   -3.8601   23.5560  -26.3437 H   0  0  0  0  0  0  0  0  0  0  0  0
   -2.7896   24.6908  -27.2341 H   0  0  0  0  0  0  0  0  0  0  0  0
   -4.5676   24.9464  -27.2341 H   0  0  0  0  0  0  0  0  0  0  0  0
   -6.2152   22.0174  -28.6599 H   0  0  0  0  0  0  0  0  0  0  0  0
   -8.6631   22.0738  -29.4494 H   0  0  0  0  0  0  0  0  0  0  0  0
   -8.9985   22.6768  -31.1166 H   0  0  0  0  0  0  0  0  0  0  0  0
   -8.1900   20.0120  -30.4070 H   0  0  0  0  0  0  0  0  0  0  0  0
   -6.5800   18.7167  -31.9495 H   0  0  0  0  0  0  0  0  0  0  0  0
   -7.9887   18.7439  -33.0769 H   0  0  0  0  0  0  0  0  0  0  0  0
   -2.8920   22.7706  -31.6366 H   0  0  0  0  0  0  0  0  0  0  0  0
   -1.5006   24.1209  -30.0754 H   0  0  0  0  0  0  0  0  0  0  0  0
    0.6729   22.8622  -26.3422 H   0  0  0  0  0  0  0  0  0  0  0  0
    0.1228   24.4989  -26.8375 H   0  0  0  0  0  0  0  0  0  0  0  0
   -1.0337   23.1245  -26.8375 H   0  0  0  0  0  0  0  0  0  0  0  0
    0.5312   19.1574  -26.8096 H   0  0  0  0  0  0  0  0  0  0  0  0
   -0.4161   18.6430  -28.2465 H   0  0  0  0  0  0  0  0  0  0  0  0
    1.3732   18.4845  -28.2465 H   0  0  0  0  0  0  0  0  0  0  0  0
   -0.9908   19.1541  -30.2129 H   0  0  0  0  0  0  0  0  0  0  0  0
   -5.0950   22.1680  -33.2220 H   0  0  0  0  0  0  0  0  0  0  0  0
   -4.8580   22.1720  -31.4470 H   0  0  0  0  0  0  0  0  0  0  0  0
   -7.5262   24.1494  -32.1968 H   0  0  0  0  0  0  0  0  0  0  0  0
   -5.4310   25.4981  -32.1567 H   0  0  0  0  0  0  0  0  0  0  0  0
  1  2  1  0
  2  3  1  0
  3  4  2  0
  4  5  1  0
  5  6  1  0
  6  7  1  0
  7  8  1  0
  8  9  2  0
  8 10  1  0
 10 11  1  0
 11 12  1  0
 12 13  2  0
 13 14  1  0
 14 15  2  0
 15 16  1  0
 16 17  2  0
 17 18  1  0
 18 19  2  0
 19 20  1  0
 20 21  1  0
 19 22  1  0
 22 23  1  0
 23 24  1  0
 22 25  2  0
 15 26  1  0
 26 27  1  0
  5 28  2  0
 28 29  1  0
 29 30  2  0
 30 31  1  0
 30  3  1  0
 26 12  1  0
 25 16  1  0
  1 32  1  0
  1 33  1  0
  1 34  1  0
  4 35  1  0
  6 36  1  0
  6 37  1  0
  7 38  1  0
 10 39  1  0
 10 40  1  0
 17 41  1  0
 18 42  1  0
 21 43  1  0
 21 44  1  0
 21 45  1  0
 24 46  1  0
 24 47  1  0
 24 48  1  0
 25 49  1  0
 27 50  1  0
 27 51  1  0
 28 52  1  0
 29 53  1  0
M  CHG  1  31  -1
M  END
>  <UniqueID>  (37) 
35

>  <SMILES>  (37) 
COc1cc(CNC(=O)CSc2nnc(-c3ccc(OC)c(OC)c3)n2N)ccc1[O-]

>  <Energy>  (37) 
85.99224213219753

>  <Genealogy>  (37) 
COc1cc(CNC(=O)CSc2nnc(-c3ccc(OC)c(OC)c3)n2N)ccc1[O-] (protonated)
COc1cc(CNC(=O)CSc2nnc(-c3ccc(OC)c(OC)c3)n2N)ccc1[O-] (3D coordinates assigned)
COc1cc(CNC(=O)CSc2nnc(-c3ccc(OC)c(OC)c3)n2N)ccc1[O-] (optimized conformer: 85.99224213219753 kcal/mol)

>  <smiles>  (37) 
COc1cc(CNC(=O)CSc2nnc(-c3ccc(OC)c(OC)c3)n2N)ccc1O

>  <score_type>  (37) 
oracle

>  <origin>  (37) 
adgpu

>  <m_score__min__energy>  (37) 
-10.640000000000001

>  <m_primary>  (37) 
energy

$$$$
37:0
     RDKit          3D

 65 68  0  0  0  0  0  0  0  0999 V2000
   -3.0630   15.2080  -36.5460 C   0  0  0  0  0  0  0  0  0  0  0  0
   -3.0280   16.3750  -35.6750 N   0  0  0  0  0  0  0  0  0  0  0  0
   -1.8910   16.6690  -34.8540 C   0  0  0  0  0  0  0  0  0  0  0  0
   -0.8780   15.9210  -34.8860 O   0  0  0  0  0  0  0  0  0  0  0  0
   -1.9230   17.8200  -33.9340 C   0  0  0  0  0  0  0  0  0  0  0  0
   -0.6970   18.3190  -33.4660 C   0  0  0  0  0  0  0  0  0  0  0  0
   -0.6490   19.4370  -32.6350 C   0  0  0  0  0  0  0  0  0  0  0  0
   -1.8310   20.0780  -32.2430 C   0  0  0  0  0  0  0  0  0  0  0  0
   -1.7910   21.2520  -31.3450 C   0  0  0  0  0  0  0  0  0  0  0  0
   -2.9080   21.9370  -30.9860 N   0  0  0  0  0  0  0  0  0  0  0  0
   -2.4310   22.8840  -30.1680 C   0  0  0  0  0  0  0  0  0  0  0  0
   -3.1520   23.8530  -29.4680 C   0  0  0  0  0  0  0  0  0  0  0  0
   -4.5820   23.9420  -29.5770 N   0  0  0  0  0  0  0  0  0  0  0  0
   -5.3950   22.7470  -29.3230 C   0  0  0  0  0  0  0  0  0  0  0  0
   -6.8700   22.9710  -29.6860 C   0  0  0  0  0  0  0  0  0  0  0  0
   -6.9900   23.6900  -30.9670 N   0  0  0  0  0  0  0  0  0  0  0  0
   -8.0140   23.3540  -31.9270 C   0  0  0  0  0  0  0  0  0  0  0  0
   -9.1630   22.4560  -31.5790 C   0  0  0  0  0  0  0  0  0  0  0  0
   -7.9420   23.8070  -33.1020 O   0  0  0  0  0  0  0  0  0  0  0  0
   -6.1250   24.8500  -31.2440 C   0  0  0  0  0  0  0  0  0  0  0  0
   -5.2170   25.1740  -30.0570 C   0  0  0  0  0  0  0  0  0  0  0  0
   -2.4280   24.7110  -28.6130 C   0  0  0  0  0  0  0  0  0  0  0  0
   -1.0190   24.5940  -28.4970 C   0  0  0  0  0  0  0  0  0  0  0  0
   -0.2730   25.5090  -27.5750 C   0  0  0  0  0  0  0  0  0  0  0  0
   -0.3350   23.5890  -29.2190 C   0  0  0  0  0  0  0  0  0  0  0  0
   -1.0840   22.7550  -30.0430 C   0  0  0  0  0  0  0  0  0  0  0  0
   -0.6460   21.7230  -30.7810 N   0  0  0  0  0  0  0  0  0  0  0  0
   -3.0610   19.5760  -32.6950 C   0  0  0  0  0  0  0  0  0  0  0  0
   -3.1280   18.4460  -33.5240 C   0  0  0  0  0  0  0  0  0  0  0  0
   -4.7460   17.8510  -33.9480 S   0  0  0  0  0  0  0  0  0  0  0  0
   -5.0960   18.1520  -35.3780 O   0  0  0  0  0  0  0  0  0  0  0  0
   -4.7560   16.3580  -33.7740 O   0  0  0  0  0  0  0  0  0  0  0  0
   -5.9650   18.5760  -32.8480 C   0  0  0  0  0  0  0  0  0  0  0  0
   -7.1670   17.6390  -32.6960 C   0  0  0  0  0  0  0  0  0  0  0  0
   -6.4090   19.9480  -33.3570 C   0  0  0  0  0  0  0  0  0  0  0  0
   -3.0904   14.2944  -35.9340 H   0  0  0  0  0  0  0  0  0  0  0  0
   -3.9603   15.2511  -37.1809 H   0  0  0  0  0  0  0  0  0  0  0  0
   -2.1648   15.1972  -37.1809 H   0  0  0  0  0  0  0  0  0  0  0  0
   -3.8490   17.0230  -35.6660 H   0  0  0  0  0  0  0  0  0  0  0  0
    0.2388   17.8207  -33.7592 H   0  0  0  0  0  0  0  0  0  0  0  0
    0.3220   19.8177  -32.2853 H   0  0  0  0  0  0  0  0  0  0  0  0
   -5.0026   21.9150  -29.9261 H   0  0  0  0  0  0  0  0  0  0  0  0
   -5.3390   22.5183  -28.2485 H   0  0  0  0  0  0  0  0  0  0  0  0
   -7.3726   21.9962  -29.7710 H   0  0  0  0  0  0  0  0  0  0  0  0
   -7.3396   23.5761  -28.8965 H   0  0  0  0  0  0  0  0  0  0  0  0
   -9.2543   22.3846  -30.4851 H   0  0  0  0  0  0  0  0  0  0  0  0
  -10.0919   22.8699  -31.9983 H   0  0  0  0  0  0  0  0  0  0  0  0
   -8.9858   21.4546  -31.9983 H   0  0  0  0  0  0  0  0  0  0  0  0
   -5.4995   24.6271  -32.1210 H   0  0  0  0  0  0  0  0  0  0  0  0
   -6.7694   25.7217  -31.4311 H   0  0  0  0  0  0  0  0  0  0  0  0
   -4.4415   25.8874  -30.3725 H   0  0  0  0  0  0  0  0  0  0  0  0
   -5.8155   25.6175  -29.2477 H   0  0  0  0  0  0  0  0  0  0  0  0
   -2.9610   25.4775  -28.0312 H   0  0  0  0  0  0  0  0  0  0  0  0
   -0.4938   25.2382  -26.5320 H   0  0  0  0  0  0  0  0  0  0  0  0
    0.8074   25.4128  -27.7580 H   0  0  0  0  0  0  0  0  0  0  0  0
   -0.5848   26.5479  -27.7580 H   0  0  0  0  0  0  0  0  0  0  0  0
    0.7551   23.4703  -29.1319 H   0  0  0  0  0  0  0  0  0  0  0  0
   -3.9917   20.0787  -32.3932 H   0  0  0  0  0  0  0  0  0  0  0  0
   -5.5026   18.7144  -31.8595 H   0  0  0  0  0  0  0  0  0  0  0  0
   -7.3736   17.4780  -31.6276 H   0  0  0  0  0  0  0  0  0  0  0  0
   -8.0475   18.0914  -33.1756 H   0  0  0  0  0  0  0  0  0  0  0  0
   -6.9432   16.6747  -33.1756 H   0  0  0  0  0  0  0  0  0  0  0  0
   -6.6217   20.6054  -32.5011 H   0  0  0  0  0  0  0  0  0  0  0  0
   -5.6078   20.3893  -33.9680 H   0  0  0  0  0  0  0  0  0  0  0  0
   -7.3168   19.8362  -33.9680 H   0  0  0  0  0  0  0  0  0  0  0  0
  1  2  1  0
  2  3  1  0
  3  4  2  0
  3  5  1  0
  5  6  2  0
  6  7  1  0
  7  8  2  0
  8  9  1  0
  9 10  2  0
 10 11  1  0
 11 12  2  0
 12 13  1  0
 13 14  1  0
 14 15  1  0
 15 16  1  0
 16 17  1  0
 17 18  1  0
 17 19  2  0
 16 20  1  0
 20 21  1  0
 12 22  1  0
 22 23  2  0
 23 24  1  0
 23 25  1  0
 25 26  2  0
 26 27  1  0
  8 28  1  0
 28 29  2  0
 29 30  1  0
 30 31  2  0
 30 32  2  0
 30 33  1  0
 33 34  1  0
 33 35  1  0
 29  5  1  0
 27  9  1  0
 26 11  1  0
 21 13  1  0
  1 36  1  0
  1 37  1  0
  1 38  1  0
  2 39  1  0
  6 40  1  0
  7 41  1  0
 14 42  1  0
 14 43  1  0
 15 44  1  0
 15 45  1  0
 18 46  1  0
 18 47  1  0
 18 48  1  0
 20 49  1  0
 20 50  1  0
 21 51  1  0
 21 52  1  0
 22 53  1  0
 24 54  1  0
 24 55  1  0
 24 56  1  0
 25 57  1  0
 28 58  1  0
 33 59  1  0
 34 60  1  0
 34 61  1  0
 34 62  1  0
 35 63  1  0
 35 64  1  0
 35 65  1  0
M  CHG  1  27  -1
M  END
>  <UniqueID>  (38) 
36

>  <SMILES>  (38) 
CNC(=O)c1ccc(-c2nc3c(N4CCN(C(C)=O)CC4)cc(C)cc3[n-]2)cc1S(=O)(=O)C(C)C

>  <Energy>  (38) 
103.01594629641355

>  <Genealogy>  (38) 
CNC(=O)c1ccc(-c2nc3c(N4CCN(C(C)=O)CC4)cc(C)cc3[n-]2)cc1S(=O)(=O)C(C)C (protonated)
CNC(=O)c1ccc(-c2nc3c(N4CCN(C(C)=O)CC4)cc(C)cc3[n-]2)cc1S(=O)(=O)C(C)C (3D coordinates assigned)
CNC(=O)c1ccc(-c2nc3c(N4CCN(C(C)=O)CC4)cc(C)cc3[n-]2)cc1S(=O)(=O)C(C)C (nonaromatic ring conformer: 103.01594629641355 kcal/mol)

>  <smiles>  (38) 
CNC(=O)c1ccc(-c2nc3c(N4CCN(C(C)=O)CC4)cc(C)cc3[nH]2)cc1S(=O)(=O)C(C)C

>  <score_type>  (38) 
oracle

>  <origin>  (38) 
adgpu

>  <m_score__min__energy>  (38) 
-10.380000000000001

>  <m_primary>  (38) 
energy

$$$$
38:0
     RDKit          3D

 33 34  0  0  0  0  0  0  0  0999 V2000
   -0.9020   20.5970  -27.0910 C   0  0  0  0  0  0  0  0  0  0  0  0
    0.0310   21.6710  -27.6350 C   0  0  0  0  0  0  0  0  0  0  0  0
   -0.7430   22.7750  -28.2020 N   0  0  0  0  0  0  0  0  0  0  0  0
   -2.0690   22.7680  -28.4570 C   0  0  0  0  0  0  0  0  0  0  0  0
   -2.4660   24.0120  -28.9260 C   0  0  0  0  0  0  0  0  0  0  0  0
   -3.8270   24.4060  -29.3170 C   0  0  0  0  0  0  0  0  0  0  0  0
   -4.8090   24.0470  -28.6120 O   0  0  0  0  0  0  0  0  0  0  0  0
   -4.0370   25.1960  -30.4930 N   0  0  0  0  0  0  0  0  0  0  0  0
   -5.3350   25.3610  -31.1340 C   0  0  0  0  0  0  0  0  0  0  0  0
   -5.9370   24.0180  -31.4490 C   0  0  0  0  0  0  0  0  0  0  0  0
   -7.2700   23.7340  -31.1110 C   0  0  0  0  0  0  0  0  0  0  0  0
   -7.8140   22.4760  -31.3860 C   0  0  0  0  0  0  0  0  0  0  0  0
   -9.1020   22.2070  -31.0590 F   0  0  0  0  0  0  0  0  0  0  0  0
   -7.0290   21.4920  -31.9960 C   0  0  0  0  0  0  0  0  0  0  0  0
   -5.7000   21.7650  -32.3300 C   0  0  0  0  0  0  0  0  0  0  0  0
   -4.9390   20.8100  -32.9190 F   0  0  0  0  0  0  0  0  0  0  0  0
   -5.1540   23.0230  -32.0560 C   0  0  0  0  0  0  0  0  0  0  0  0
   -1.3270   24.7980  -28.9430 C   0  0  0  0  0  0  0  0  0  0  0  0
   -1.2380   26.1270  -29.3350 O   0  0  0  0  0  0  0  0  0  0  0  0
   -0.2910   24.0130  -28.4860 C   0  0  0  0  0  0  0  0  0  0  0  0
    1.0310   24.4190  -28.3270 O   0  0  0  0  0  0  0  0  0  0  0  0
   -0.8837   20.6181  -25.9914 H   0  0  0  0  0  0  0  0  0  0  0  0
   -1.9261   20.7877  -27.4444 H   0  0  0  0  0  0  0  0  0  0  0  0
   -0.5700   19.6096  -27.4444 H   0  0  0  0  0  0  0  0  0  0  0  0
    0.6617   22.0517  -26.8181 H   0  0  0  0  0  0  0  0  0  0  0  0
    0.6604   21.2328  -28.4235 H   0  0  0  0  0  0  0  0  0  0  0  0
   -2.7353   21.9045  -28.3142 H   0  0  0  0  0  0  0  0  0  0  0  0
   -6.0066   25.9099  -30.4575 H   0  0  0  0  0  0  0  0  0  0  0  0
   -5.2025   25.9221  -32.0708 H   0  0  0  0  0  0  0  0  0  0  0  0
   -7.8887   24.5046  -30.6279 H   0  0  0  0  0  0  0  0  0  0  0  0
   -7.4582   20.5027  -32.2129 H   0  0  0  0  0  0  0  0  0  0  0  0
   -4.1065   23.2339  -32.3172 H   0  0  0  0  0  0  0  0  0  0  0  0
    1.2670   25.3980  -28.2250 H   0  0  0  0  0  0  0  0  0  0  0  0
  1  2  1  0
  2  3  1  0
  3  4  1  0
  4  5  2  0
  5  6  1  0
  6  7  2  0
  6  8  1  0
  8  9  1  0
  9 10  1  0
 10 11  2  0
 11 12  1  0
 12 13  1  0
 12 14  2  0
 14 15  1  0
 15 16  1  0
 15 17  2  0
  5 18  1  0
 18 19  1  0
 18 20  2  0
 20 21  1  0
 20  3  1  0
 17 10  1  0
  1 22  1  0
  1 23  1  0
  1 24  1  0
  2 25  1  0
  2 26  1  0
  4 27  1  0
  9 28  1  0
  9 29  1  0
 11 30  1  0
 14 31  1  0
 17 32  1  0
 21 33  1  0
M  CHG  2   8  -1  19  -1
M  END
>  <UniqueID>  (39) 
37

>  <SMILES>  (39) 
CCn1cc(C(=O)[N-]Cc2cc(F)cc(F)c2)c([O-])c1O

>  <Energy>  (39) 
55.25147771315411

>  <Genealogy>  (39) 
CCn1cc(C(=O)[N-]Cc2cc(F)cc(F)c2)c([O-])c1O (protonated)
CCn1cc(C(=O)[N-]Cc2cc(F)cc(F)c2)c([O-])c1O (3D coordinates assigned)
CCn1cc(C(=O)[N-]Cc2cc(F)cc(F)c2)c([O-])c1O (optimized conformer: 55.25147771315411 kcal/mol)

>  <smiles>  (39) 
CCn1cc(C(=O)NCc2cc(F)cc(F)c2)c(O)c1O

>  <score_type>  (39) 
oracle

>  <origin>  (39) 
adgpu

>  <m_score__min__energy>  (39) 
-10.789999999999999

>  <m_primary>  (39) 
energy

$$$$
39:0
     RDKit          3D

 59 62  0  0  0  0  0  0  0  0999 V2000
    3.6410   17.4230  -32.2360 C   0  0  0  0  0  0  0  0  0  0  0  0
    3.2170   18.3500  -33.3360 C   0  0  0  0  0  0  0  0  0  0  0  0
    3.8530   19.5890  -33.4980 C   0  0  0  0  0  0  0  0  0  0  0  0
    3.4470   20.4630  -34.5130 C   0  0  0  0  0  0  0  0  0  0  0  0
    2.4020   20.1120  -35.3730 C   0  0  0  0  0  0  0  0  0  0  0  0
    2.0710   20.9840  -36.4070 O   0  0  0  0  0  0  0  0  0  0  0  0
    1.7270   18.8860  -35.1870 C   0  0  0  0  0  0  0  0  0  0  0  0
    0.3100   18.4230  -36.1990 S   0  0  0  0  0  0  0  0  0  0  0  0
   -0.8040   18.4380  -34.7900 C   0  0  0  0  0  0  0  0  0  0  0  0
   -1.3250   17.2530  -34.3800 N   0  0  0  0  0  0  0  0  0  0  0  0
   -2.1540   17.1520  -33.3100 C   0  0  0  0  0  0  0  0  0  0  0  0
   -2.6500   15.9030  -32.9150 O   0  0  0  0  0  0  0  0  0  0  0  0
   -3.7910   15.3430  -33.5020 C   0  0  0  0  0  0  0  0  0  0  0  0
   -3.6830   14.2120  -34.3410 C   0  0  0  0  0  0  0  0  0  0  0  0
   -2.3480   13.5890  -34.6510 C   0  0  0  0  0  0  0  0  0  0  0  0
   -4.8460   13.6210  -34.8590 C   0  0  0  0  0  0  0  0  0  0  0  0
   -6.1000   14.1690  -34.5850 C   0  0  0  0  0  0  0  0  0  0  0  0
   -7.2840   13.5570  -35.1280 C   0  0  0  0  0  0  0  0  0  0  0  0
   -8.2340   13.0640  -35.5650 N   0  0  0  0  0  0  0  0  0  0  0  0
   -6.2060   15.3080  -33.7770 C   0  0  0  0  0  0  0  0  0  0  0  0
   -5.0570   15.9020  -33.2330 C   0  0  0  0  0  0  0  0  0  0  0  0
   -5.1810   17.0880  -32.3170 C   0  0  0  0  0  0  0  0  0  0  0  0
   -2.5020   18.2960  -32.5940 C   0  0  0  0  0  0  0  0  0  0  0  0
   -1.9890   19.5470  -32.9790 C   0  0  0  0  0  0  0  0  0  0  0  0
   -2.3780   20.7510  -32.2040 C   0  0  0  0  0  0  0  0  0  0  0  0
   -3.6690   21.2900  -32.3350 C   0  0  0  0  0  0  0  0  0  0  0  0
   -4.0340   22.4370  -31.6260 C   0  0  0  0  0  0  0  0  0  0  0  0
   -3.1180   23.0550  -30.7670 C   0  0  0  0  0  0  0  0  0  0  0  0
   -3.5580   24.5290  -29.9110 S   0  0  0  0  0  0  0  0  0  0  0  0
   -2.1430   25.2960  -29.2800 N   0  0  0  0  0  0  0  0  0  0  0  0
   -4.2390   25.4820  -30.8520 O   0  0  0  0  0  0  0  0  0  0  0  0
   -4.4960   24.1910  -28.7870 O   0  0  0  0  0  0  0  0  0  0  0  0
   -1.8310   22.5120  -30.6210 C   0  0  0  0  0  0  0  0  0  0  0  0
   -1.4670   21.3650  -31.3280 C   0  0  0  0  0  0  0  0  0  0  0  0
   -1.1370   19.6240  -34.1050 C   0  0  0  0  0  0  0  0  0  0  0  0
   -0.6740   20.9020  -34.6020 C   0  0  0  0  0  0  0  0  0  0  0  0
   -0.3080   21.9260  -34.9950 N   0  0  0  0  0  0  0  0  0  0  0  0
    2.1440   18.0110  -34.1750 C   0  0  0  0  0  0  0  0  0  0  0  0
    3.4283   17.8881  -31.2621 H   0  0  0  0  0  0  0  0  0  0  0  0
    3.0861   16.4769  -32.3195 H   0  0  0  0  0  0  0  0  0  0  0  0
    4.7196   17.2241  -32.3195 H   0  0  0  0  0  0  0  0  0  0  0  0
    4.6744   19.8753  -32.8247 H   0  0  0  0  0  0  0  0  0  0  0  0
    3.9532   21.4320  -34.6349 H   0  0  0  0  0  0  0  0  0  0  0  0
    1.1450   21.3800  -36.5120 H   0  0  0  0  0  0  0  0  0  0  0  0
   -1.8293   13.3470  -33.7116 H   0  0  0  0  0  0  0  0  0  0  0  0
   -2.4994   12.6685  -35.2339 H   0  0  0  0  0  0  0  0  0  0  0  0
   -1.7398   14.2963  -35.2339 H   0  0  0  0  0  0  0  0  0  0  0  0
   -4.7686   12.7199  -35.4851 H   0  0  0  0  0  0  0  0  0  0  0  0
   -7.1959   15.7395  -33.5676 H   0  0  0  0  0  0  0  0  0  0  0  0
   -5.1455   16.7489  -31.2712 H   0  0  0  0  0  0  0  0  0  0  0  0
   -4.3508   17.7848  -32.5049 H   0  0  0  0  0  0  0  0  0  0  0  0
   -6.1374   17.5980  -32.5049 H   0  0  0  0  0  0  0  0  0  0  0  0
   -3.1771   18.2202  -31.7289 H   0  0  0  0  0  0  0  0  0  0  0  0
   -4.3979   20.8050  -33.0010 H   0  0  0  0  0  0  0  0  0  0  0  0
   -5.0444   22.8557  -31.7432 H   0  0  0  0  0  0  0  0  0  0  0  0
   -1.6080   25.6750  -30.0930 H   0  0  0  0  0  0  0  0  0  0  0  0
   -1.1069   22.9927  -29.9467 H   0  0  0  0  0  0  0  0  0  0  0  0
   -0.4610   20.9392  -31.1987 H   0  0  0  0  0  0  0  0  0  0  0  0
    1.6261   17.0504  -34.0369 H   0  0  0  0  0  0  0  0  0  0  0  0
  1  2  1  0
  2  3  2  0
  3  4  1  0
  4  5  2  0
  5  6  1  0
  5  7  1  0
  7  8  1  0
  8  9  1  0
  9 10  2  0
 10 11  1  0
 11 12  1  0
 12 13  1  0
 13 14  2  0
 14 15  1  0
 14 16  1  0
 16 17  2  0
 17 18  1  0
 18 19  3  0
 17 20  1  0
 20 21  2  0
 21 22  1  0
 11 23  2  0
 23 24  1  0
 24 25  1  0
 25 26  2  0
 26 27  1  0
 27 28  2  0
 28 29  1  0
 29 30  1  0
 29 31  2  0
 29 32  2  0
 28 33  1  0
 33 34  2  0
 24 35  2  0
 35 36  1  0
 36 37  3  0
  7 38  2  0
 38  2  1  0
 35  9  1  0
 21 13  1  0
 34 25  1  0
  1 39  1  0
  1 40  1  0
  1 41  1  0
  3 42  1  0
  4 43  1  0
  6 44  1  0
 15 45  1  0
 15 46  1  0
 15 47  1  0
 16 48  1  0
 20 49  1  0
 22 50  1  0
 22 51  1  0
 22 52  1  0
 23 53  1  0
 26 54  1  0
 27 55  1  0
 30 56  1  0
 33 57  1  0
 34 58  1  0
 38 59  1  0
M  CHG  1  30  -1
M  END
>  <UniqueID>  (40) 
38

>  <SMILES>  (40) 
Cc1ccc(O)c(Sc2nc(Oc3c(C)cc(C#N)cc3C)cc(-c3ccc(S([NH-])(=O)=O)cc3)c2C#N)c1

>  <Energy>  (40) 
71.73120958394344

>  <Genealogy>  (40) 
Cc1ccc(O)c(Sc2nc(Oc3c(C)cc(C#N)cc3C)cc(-c3ccc(S([NH-])(=O)=O)cc3)c2C#N)c1 (protonated)
Cc1ccc(O)c(Sc2nc(Oc3c(C)cc(C#N)cc3C)cc(-c3ccc(S([NH-])(=O)=O)cc3)c2C#N)c1 (3D coordinates assigned)
Cc1ccc(O)c(Sc2nc(Oc3c(C)cc(C#N)cc3C)cc(-c3ccc(S([NH-])(=O)=O)cc3)c2C#N)c1 (optimized conformer: 71.73120958394344 kcal/mol)

>  <smiles>  (40) 
Cc1ccc(O)c(Sc2nc(Oc3c(C)cc(C#N)cc3C)cc(-c3ccc(S(N)(=O)=O)cc3)c2C#N)c1

>  <score_type>  (40) 
oracle

>  <origin>  (40) 
adgpu

>  <m_score__min__energy>  (40) 
-11.289999999999999

>  <m_primary>  (40) 
energy

$$$$
40:0
     RDKit          3D

 65 69  0  0  0  0  0  0  0  0999 V2000
    0.2290   21.0510  -35.0540 C   0  0  0  0  0  0  0  0  0  0  0  0
   -0.8010   21.4880  -34.1730 O   0  0  0  0  0  0  0  0  0  0  0  0
   -0.9600   21.0390  -32.8560 C   0  0  0  0  0  0  0  0  0  0  0  0
    0.1450   21.0930  -31.9990 C   0  0  0  0  0  0  0  0  0  0  0  0
    0.0300   20.6990  -30.6640 C   0  0  0  0  0  0  0  0  0  0  0  0
   -1.1930   20.2220  -30.1730 C   0  0  0  0  0  0  0  0  0  0  0  0
   -1.3300   19.8860  -28.7850 N   0  0  0  0  0  0  0  0  0  0  0  0
   -2.2110   20.4030  -27.9030 C   0  0  0  0  0  0  0  0  0  0  0  0
   -3.5340   21.5510  -28.3110 S   0  0  0  0  0  0  0  0  0  0  0  0
   -2.4690   23.0380  -28.3530 C   0  0  0  0  0  0  0  0  0  0  0  0
   -1.8480   23.2880  -29.6950 C   0  0  0  0  0  0  0  0  0  0  0  0
   -0.6130   23.5200  -29.8080 O   0  0  0  0  0  0  0  0  0  0  0  0
   -2.6680   23.1490  -30.8600 N   0  0  0  0  0  0  0  0  0  0  0  0
   -4.0980   23.2370  -30.9190 C   0  0  0  0  0  0  0  0  0  0  0  0
   -4.8960   22.0960  -31.1340 C   0  0  0  0  0  0  0  0  0  0  0  0
   -6.2880   22.2180  -31.2590 C   0  0  0  0  0  0  0  0  0  0  0  0
   -7.2790   20.7980  -31.6050 S   0  0  0  0  0  0  0  0  0  0  0  0
   -8.3680   20.6840  -30.5740 O   0  0  0  0  0  0  0  0  0  0  0  0
   -7.9180   20.9810  -32.9540 O   0  0  0  0  0  0  0  0  0  0  0  0
   -6.3170   19.3380  -31.6090 N   0  0  0  0  0  0  0  0  0  0  0  0
   -7.1710   18.1230  -31.5880 C   0  0  0  0  0  0  0  0  0  0  0  0
   -7.2460   17.4130  -32.9450 C   0  0  0  0  0  0  0  0  0  0  0  0
   -5.8470   17.0030  -33.4320 C   0  0  0  0  0  0  0  0  0  0  0  0
   -4.7570   18.0110  -33.0290 C   0  0  0  0  0  0  0  0  0  0  0  0
   -5.3510   19.3910  -32.7290 C   0  0  0  0  0  0  0  0  0  0  0  0
   -6.8850   23.4800  -31.1490 C   0  0  0  0  0  0  0  0  0  0  0  0
   -6.0990   24.6140  -30.9430 C   0  0  0  0  0  0  0  0  0  0  0  0
   -4.7110   24.5030  -30.8400 C   0  0  0  0  0  0  0  0  0  0  0  0
   -3.9580   25.6640  -30.6530 O   0  0  0  0  0  0  0  0  0  0  0  0
   -1.9750   19.9650  -26.6530 N   0  0  0  0  0  0  0  0  0  0  0  0
   -0.9250   19.1600  -26.7180 N   0  0  0  0  0  0  0  0  0  0  0  0
   -0.5360   19.1150  -28.0090 C   0  0  0  0  0  0  0  0  0  0  0  0
    0.5730   18.2610  -28.4800 C   0  0  0  0  0  0  0  0  0  0  0  0
    0.4750   17.3030  -29.4810 C   0  0  0  0  0  0  0  0  0  0  0  0
    1.6930   16.6740  -29.7700 C   0  0  0  0  0  0  0  0  0  0  0  0
    2.7580   17.1430  -29.0120 C   0  0  0  0  0  0  0  0  0  0  0  0
    2.1800   18.3420  -27.9850 S   0  0  0  0  0  0  0  0  0  0  0  0
   -2.2970   20.1390  -31.0340 C   0  0  0  0  0  0  0  0  0  0  0  0
   -2.1850   20.5470  -32.3660 C   0  0  0  0  0  0  0  0  0  0  0  0
    1.0848   20.6879  -34.4660 H   0  0  0  0  0  0  0  0  0  0  0  0
   -0.1519   20.2370  -35.6882 H   0  0  0  0  0  0  0  0  0  0  0  0
    0.5497   21.8906  -35.6882 H   0  0  0  0  0  0  0  0  0  0  0  0
    1.1133   21.4491  -32.3804 H   0  0  0  0  0  0  0  0  0  0  0  0
    0.9017   20.7632  -29.9961 H   0  0  0  0  0  0  0  0  0  0  0  0
   -3.0798   23.9121  -28.0831 H   0  0  0  0  0  0  0  0  0  0  0  0
   -1.6474   22.8692  -27.6413 H   0  0  0  0  0  0  0  0  0  0  0  0
   -4.4252   21.1043  -31.2042 H   0  0  0  0  0  0  0  0  0  0  0  0
   -6.7606   17.4201  -30.8480 H   0  0  0  0  0  0  0  0  0  0  0  0
   -8.1909   18.4451  -31.3311 H   0  0  0  0  0  0  0  0  0  0  0  0
   -7.8701   16.5127  -32.8456 H   0  0  0  0  0  0  0  0  0  0  0  0
   -7.6826   18.1064  -33.6789 H   0  0  0  0  0  0  0  0  0  0  0  0
   -5.5972   16.0232  -32.9990 H   0  0  0  0  0  0  0  0  0  0  0  0
   -5.8758   16.9677  -34.5311 H   0  0  0  0  0  0  0  0  0  0  0  0
   -4.2423   17.6404  -32.1303 H   0  0  0  0  0  0  0  0  0  0  0  0
   -4.0541   18.1132  -33.8690 H   0  0  0  0  0  0  0  0  0  0  0  0
   -4.5357   20.0805  -32.4646 H   0  0  0  0  0  0  0  0  0  0  0  0
   -5.8843   19.7379  -33.6264 H   0  0  0  0  0  0  0  0  0  0  0  0
   -7.9780   23.5775  -31.2253 H   0  0  0  0  0  0  0  0  0  0  0  0
   -6.5758   25.6019  -30.8612 H   0  0  0  0  0  0  0  0  0  0  0  0
   -2.9470   25.6740  -30.7270 H   0  0  0  0  0  0  0  0  0  0  0  0
   -0.4665   17.0619  -29.9962 H   0  0  0  0  0  0  0  0  0  0  0  0
    1.7962   15.8824  -30.5268 H   0  0  0  0  0  0  0  0  0  0  0  0
    3.7985   16.7912  -29.0730 H   0  0  0  0  0  0  0  0  0  0  0  0
   -3.2556   19.7509  -30.6591 H   0  0  0  0  0  0  0  0  0  0  0  0
   -3.0567   20.4836  -33.0339 H   0  0  0  0  0  0  0  0  0  0  0  0
  1  2  1  0
  2  3  1  0
  3  4  2  0
  4  5  1  0
  5  6  2  0
  6  7  1  0
  7  8  1  0
  8  9  1  0
  9 10  1  0
 10 11  1  0
 11 12  2  0
 11 13  1  0
 13 14  1  0
 14 15  2  0
 15 16  1  0
 16 17  1  0
 17 18  2  0
 17 19  2  0
 17 20  1  0
 20 21  1  0
 21 22  1  0
 22 23  1  0
 23 24  1  0
 24 25  1  0
 16 26  2  0
 26 27  1  0
 27 28  2  0
 28 29  1  0
  8 30  2  0
 30 31  1  0
 31 32  2  0
 32 33  1  0
 33 34  2  0
 34 35  1  0
 35 36  2  0
 36 37  1  0
  6 38  1  0
 38 39  2  0
 39  3  1  0
 32  7  1  0
 37 33  1  0
 28 14  1  0
 25 20  1  0
  1 40  1  0
  1 41  1  0
  1 42  1  0
  4 43  1  0
  5 44  1  0
 10 45  1  0
 10 46  1  0
 15 47  1  0
 21 48  1  0
 21 49  1  0
 22 50  1  0
 22 51  1  0
 23 52  1  0
 23 53  1  0
 24 54  1  0
 24 55  1  0
 25 56  1  0
 25 57  1  0
 26 58  1  0
 27 59  1  0
 29 60  1  0
 34 61  1  0
 35 62  1  0
 36 63  1  0
 38 64  1  0
 39 65  1  0
M  CHG  1  13  -1
M  END
>  <UniqueID>  (41) 
39

>  <SMILES>  (41) 
COc1ccc(-n2c(SCC(=O)[N-]c3cc(S(=O)(=O)N4CCCCC4)ccc3O)nnc2-c2cccs2)cc1

>  <Energy>  (41) 
139.50511499411064

>  <Genealogy>  (41) 
COc1ccc(-n2c(SCC(=O)[N-]c3cc(S(=O)(=O)N4CCCCC4)ccc3O)nnc2-c2cccs2)cc1 (protonated)
COc1ccc(-n2c(SCC(=O)[N-]c3cc(S(=O)(=O)N4CCCCC4)ccc3O)nnc2-c2cccs2)cc1 (3D coordinates assigned)
COc1ccc(-n2c(SCC(=O)[N-]c3cc(S(=O)(=O)N4CCCCC4)ccc3O)nnc2-c2cccs2)cc1 (nonaromatic ring conformer: 139.50511499411064 kcal/mol)

>  <smiles>  (41) 
COc1ccc(-n2c(SCC(=O)Nc3cc(S(=O)(=O)N4CCCCC4)ccc3O)nnc2-c2cccs2)cc1

>  <score_type>  (41) 
oracle

>  <origin>  (41) 
adgpu

>  <m_score__min__energy>  (41) 
-12.57

>  <m_primary>  (41) 
energy

$$$$
41:0
     RDKit          3D

 45 48  0  0  0  0  0  0  0  0999 V2000
    0.6290   16.9830  -27.8480 C   0  0  0  0  0  0  0  0  0  0  0  0
   -0.1250   18.2580  -27.6700 C   0  0  0  0  0  0  0  0  0  0  0  0
    0.1810   19.4660  -28.2590 C   0  0  0  0  0  0  0  0  0  0  0  0
   -0.8610   20.2880  -27.8740 C   0  0  0  0  0  0  0  0  0  0  0  0
   -1.0600   21.7110  -28.2290 C   0  0  0  0  0  0  0  0  0  0  0  0
   -0.0600   22.6700  -27.9880 C   0  0  0  0  0  0  0  0  0  0  0  0
   -0.2550   24.0030  -28.3570 C   0  0  0  0  0  0  0  0  0  0  0  0
   -1.4460   24.3980  -28.9690 C   0  0  0  0  0  0  0  0  0  0  0  0
   -1.6100   25.7310  -29.3420 O   0  0  0  0  0  0  0  0  0  0  0  0
   -2.4590   23.4560  -29.2070 C   0  0  0  0  0  0  0  0  0  0  0  0
   -3.9530   23.9460  -30.0090 S   0  0  0  0  0  0  0  0  0  0  0  0
   -3.7380   25.2890  -30.6450 O   0  0  0  0  0  0  0  0  0  0  0  0
   -5.0870   24.0520  -29.0300 O   0  0  0  0  0  0  0  0  0  0  0  0
   -4.3590   22.7930  -31.2400 N   0  0  0  0  0  0  0  0  0  0  0  0
   -5.6510   22.1970  -31.4190 C   0  0  0  0  0  0  0  0  0  0  0  0
   -5.8030   20.8060  -31.5690 C   0  0  0  0  0  0  0  0  0  0  0  0
   -7.0700   20.2470  -31.7730 C   0  0  0  0  0  0  0  0  0  0  0  0
   -8.2030   21.0800  -31.8410 C   0  0  0  0  0  0  0  0  0  0  0  0
   -8.0570   22.4600  -31.6480 C   0  0  0  0  0  0  0  0  0  0  0  0
   -6.7920   23.0200  -31.4430 C   0  0  0  0  0  0  0  0  0  0  0  0
   -6.6930   24.4000  -31.2750 O   0  0  0  0  0  0  0  0  0  0  0  0
   -9.5770   20.4880  -32.0390 C   0  0  0  0  0  0  0  0  0  0  0  0
   -9.5100   19.1290  -32.7470 C   0  0  0  0  0  0  0  0  0  0  0  0
   -8.5260   18.2010  -32.0310 C   0  0  0  0  0  0  0  0  0  0  0  0
   -7.2080   18.8290  -31.9450 N   0  0  0  0  0  0  0  0  0  0  0  0
   -2.2640   22.1170  -28.8310 C   0  0  0  0  0  0  0  0  0  0  0  0
   -1.6910   19.5860  -27.1340 O   0  0  0  0  0  0  0  0  0  0  0  0
   -1.2840   18.3590  -26.9940 N   0  0  0  0  0  0  0  0  0  0  0  0
    0.8773   16.5631  -26.8621 H   0  0  0  0  0  0  0  0  0  0  0  0
    0.0097   16.2657  -28.4066 H   0  0  0  0  0  0  0  0  0  0  0  0
    1.5559   17.1801  -28.4066 H   0  0  0  0  0  0  0  0  0  0  0  0
    1.0489   19.7164  -28.8867 H   0  0  0  0  0  0  0  0  0  0  0  0
    0.8816   22.3685  -27.5059 H   0  0  0  0  0  0  0  0  0  0  0  0
    0.5337   24.7452  -28.1644 H   0  0  0  0  0  0  0  0  0  0  0  0
   -4.9190   20.1528  -31.5256 H   0  0  0  0  0  0  0  0  0  0  0  0
   -8.9453   23.1088  -31.6578 H   0  0  0  0  0  0  0  0  0  0  0  0
   -5.8660   24.8440  -30.8940 H   0  0  0  0  0  0  0  0  0  0  0  0
  -10.0535   20.3555  -31.0565 H   0  0  0  0  0  0  0  0  0  0  0  0
  -10.1602   21.1756  -32.6691 H   0  0  0  0  0  0  0  0  0  0  0  0
  -10.5093   18.6692  -32.7438 H   0  0  0  0  0  0  0  0  0  0  0  0
   -9.1672   19.2824  -33.7809 H   0  0  0  0  0  0  0  0  0  0  0  0
   -8.8960   17.9931  -31.0162 H   0  0  0  0  0  0  0  0  0  0  0  0
   -8.4395   17.2634  -32.5996 H   0  0  0  0  0  0  0  0  0  0  0  0
   -6.3600   18.2170  -31.9350 H   0  0  0  0  0  0  0  0  0  0  0  0
   -3.0603   21.3793  -29.0091 H   0  0  0  0  0  0  0  0  0  0  0  0
  1  2  1  0
  2  3  1  0
  3  4  2  0
  4  5  1  0
  5  6  2  0
  6  7  1  0
  7  8  2  0
  8  9  1  0
  8 10  1  0
 10 11  1  0
 11 12  2  0
 11 13  2  0
 11 14  1  0
 14 15  1  0
 15 16  2  0
 16 17  1  0
 17 18  2  0
 18 19  1  0
 19 20  2  0
 20 21  1  0
 18 22  1  0
 22 23  1  0
 23 24  1  0
 24 25  1  0
 10 26  2  0
  4 27  1  0
 27 28  1  0
 28  2  2  0
 26  5  1  0
 20 15  1  0
 25 17  1  0
  1 29  1  0
  1 30  1  0
  1 31  1  0
  3 32  1  0
  6 33  1  0
  7 34  1  0
 16 35  1  0
 19 36  1  0
 21 37  1  0
 22 38  1  0
 22 39  1  0
 23 40  1  0
 23 41  1  0
 24 42  1  0
 24 43  1  0
 25 44  1  0
 26 45  1  0
M  CHG  2   9  -1  14  -1
M  END
>  <UniqueID>  (42) 
40

>  <SMILES>  (42) 
Cc1cc(-c2ccc([O-])c(S(=O)(=O)[N-]c3cc4c(cc3O)CCCN4)c2)on1

>  <Energy>  (42) 
81.03079632470565

>  <Genealogy>  (42) 
Cc1cc(-c2ccc([O-])c(S(=O)(=O)[N-]c3cc4c(cc3O)CCCN4)c2)on1 (protonated)
Cc1cc(-c2ccc([O-])c(S(=O)(=O)[N-]c3cc4c(cc3O)CCCN4)c2)on1 (3D coordinates assigned)
Cc1cc(-c2ccc([O-])c(S(=O)(=O)[N-]c3cc4c(cc3O)CCCN4)c2)on1 (nonaromatic ring conformer: 81.03079632470565 kcal/mol)

>  <smiles>  (42) 
Cc1cc(-c2ccc(O)c(S(=O)(=O)Nc3cc4c(cc3O)CCCN4)c2)on1

>  <score_type>  (42) 
oracle

>  <origin>  (42) 
adgpu

>  <m_score__min__energy>  (42) 
-13.07

>  <m_primary>  (42) 
energy

$$$$
42:0
     RDKit          3D

 48 51  0  0  0  0  0  0  0  0999 V2000
   -1.4510   18.0250  -26.8910 O   0  0  0  0  0  0  0  0  0  0  0  0
   -0.4320   18.4430  -27.5060 C   0  0  0  0  0  0  0  0  0  0  0  0
    0.8190   17.6480  -27.4810 C   0  0  0  0  0  0  0  0  0  0  0  0
    2.0410   18.2310  -27.8590 C   0  0  0  0  0  0  0  0  0  0  0  0
    3.2190   17.4790  -27.8490 C   0  0  0  0  0  0  0  0  0  0  0  0
    3.1880   16.1350  -27.4680 C   0  0  0  0  0  0  0  0  0  0  0  0
    1.9780   15.5400  -27.0990 C   0  0  0  0  0  0  0  0  0  0  0  0
    1.9470   14.2330  -26.7370 F   0  0  0  0  0  0  0  0  0  0  0  0
    0.7980   16.2900  -27.1080 C   0  0  0  0  0  0  0  0  0  0  0  0
   -0.4990   19.6970  -28.2020 N   0  0  0  0  0  0  0  0  0  0  0  0
   -0.3990   19.6910  -29.6720 C   0  0  0  0  0  0  0  0  0  0  0  0
   -0.3230   21.1070  -30.2680 C   0  0  0  0  0  0  0  0  0  0  0  0
   -1.2740   22.0400  -29.5660 C   0  0  0  0  0  0  0  0  0  0  0  0
   -1.9910   23.0140  -30.2760 C   0  0  0  0  0  0  0  0  0  0  0  0
   -2.8250   23.9210  -29.5940 C   0  0  0  0  0  0  0  0  0  0  0  0
   -3.5780   24.9210  -30.2960 N   0  0  0  0  0  0  0  0  0  0  0  0
   -5.3080   25.0470  -30.3160 S   0  0  0  0  0  0  0  0  0  0  0  0
   -5.8010   25.3290  -28.9240 O   0  0  0  0  0  0  0  0  0  0  0  0
   -5.7110   26.1820  -31.2150 O   0  0  0  0  0  0  0  0  0  0  0  0
   -6.0030   23.5530  -30.9390 C   0  0  0  0  0  0  0  0  0  0  0  0
   -5.2800   22.7810  -31.8590 C   0  0  0  0  0  0  0  0  0  0  0  0
   -5.8140   21.5840  -32.3440 C   0  0  0  0  0  0  0  0  0  0  0  0
   -7.0710   21.1500  -31.9090 C   0  0  0  0  0  0  0  0  0  0  0  0
   -7.7950   19.5110  -32.5650 Br  0  0  0  0  0  0  0  0  0  0  0  0
   -7.7960   21.9190  -30.9930 C   0  0  0  0  0  0  0  0  0  0  0  0
   -7.2660   23.1190  -30.5100 C   0  0  0  0  0  0  0  0  0  0  0  0
   -2.9160   23.8510  -28.1910 C   0  0  0  0  0  0  0  0  0  0  0  0
   -3.7140   24.7410  -27.4720 O   0  0  0  0  0  0  0  0  0  0  0  0
   -2.1900   22.8830  -27.4880 C   0  0  0  0  0  0  0  0  0  0  0  0
   -1.3760   21.9720  -28.1710 C   0  0  0  0  0  0  0  0  0  0  0  0
   -0.5590   20.9510  -27.4330 C   0  0  0  0  0  0  0  0  0  0  0  0
    2.0703   19.2872  -28.1650 H   0  0  0  0  0  0  0  0  0  0  0  0
    4.1713   17.9455  -28.1413 H   0  0  0  0  0  0  0  0  0  0  0  0
    4.1162   15.5448  -27.4584 H   0  0  0  0  0  0  0  0  0  0  0  0
   -0.1528   15.8164  -26.8220 H   0  0  0  0  0  0  0  0  0  0  0  0
    0.5074   19.1386  -29.9607 H   0  0  0  0  0  0  0  0  0  0  0  0
   -1.3089   19.2138  -30.0648 H   0  0  0  0  0  0  0  0  0  0  0  0
    0.7026   21.4890  -30.1579 H   0  0  0  0  0  0  0  0  0  0  0  0
   -0.6031   21.0554  -31.3305 H   0  0  0  0  0  0  0  0  0  0  0  0
   -1.9015   23.0698  -31.3709 H   0  0  0  0  0  0  0  0  0  0  0  0
   -4.2900   23.1182  -32.2000 H   0  0  0  0  0  0  0  0  0  0  0  0
   -5.2455   20.9824  -33.0685 H   0  0  0  0  0  0  0  0  0  0  0  0
   -8.7850   21.5790  -30.6520 H   0  0  0  0  0  0  0  0  0  0  0  0
   -7.8401   23.7237  -29.7926 H   0  0  0  0  0  0  0  0  0  0  0  0
   -4.3430   25.3940  -27.9230 H   0  0  0  0  0  0  0  0  0  0  0  0
   -2.2595   22.8378  -26.3911 H   0  0  0  0  0  0  0  0  0  0  0  0
    0.4606   21.3374  -27.2875 H   0  0  0  0  0  0  0  0  0  0  0  0
   -1.0275   20.7525  -26.4578 H   0  0  0  0  0  0  0  0  0  0  0  0
  1  2  2  0
  2  3  1  0
  3  4  2  0
  4  5  1  0
  5  6  2  0
  6  7  1  0
  7  8  1  0
  7  9  2  0
  2 10  1  0
 10 11  1  0
 11 12  1  0
 12 13  1  0
 13 14  2  0
 14 15  1  0
 15 16  1  0
 16 17  1  0
 17 18  2  0
 17 19  2  0
 17 20  1  0
 20 21  2  0
 21 22  1  0
 22 23  2  0
 23 24  1  0
 23 25  1  0
 25 26  2  0
 15 27  2  0
 27 28  1  0
 27 29  1  0
 29 30  2  0
 30 31  1  0
  9  3  1  0
 31 10  1  0
 30 13  1  0
 26 20  1  0
  4 32  1  0
  5 33  1  0
  6 34  1  0
  9 35  1  0
 11 36  1  0
 11 37  1  0
 12 38  1  0
 12 39  1  0
 14 40  1  0
 21 41  1  0
 22 42  1  0
 25 43  1  0
 26 44  1  0
 28 45  1  0
 29 46  1  0
 31 47  1  0
 31 48  1  0
M  CHG  1  16  -1
M  END
>  <UniqueID>  (43) 
41

>  <SMILES>  (43) 
O=C(c1cccc(F)c1)N1CCc2cc([N-]S(=O)(=O)c3ccc(Br)cc3)c(O)cc2C1

>  <Energy>  (43) 
62.90277294458442

>  <Genealogy>  (43) 
O=C(c1cccc(F)c1)N1CCc2cc([N-]S(=O)(=O)c3ccc(Br)cc3)c(O)cc2C1 (protonated)
O=C(c1cccc(F)c1)N1CCc2cc([N-]S(=O)(=O)c3ccc(Br)cc3)c(O)cc2C1 (3D coordinates assigned)
O=C(c1cccc(F)c1)N1CCc2cc([N-]S(=O)(=O)c3ccc(Br)cc3)c(O)cc2C1 (nonaromatic ring conformer: 62.90277294458442 kcal/mol)

>  <smiles>  (43) 
O=C(c1cccc(F)c1)N1CCc2cc(NS(=O)(=O)c3ccc(Br)cc3)c(O)cc2C1

>  <score_type>  (43) 
oracle

>  <origin>  (43) 
adgpu

>  <m_score__min__energy>  (43) 
-11.890000000000001

>  <m_primary>  (43) 
energy

$$$$
43:0
     RDKit          3D

 56 59  0  0  0  0  0  0  0  0999 V2000
    2.5140   18.9620  -29.7470 C   0  0  0  0  0  0  0  0  0  0  0  0
    1.7310   19.1510  -28.4550 C   0  0  0  0  0  0  0  0  0  0  0  0
    0.1720   18.2760  -28.4990 S   0  0  0  0  0  0  0  0  0  0  0  0
    0.2240   17.1550  -27.5000 O   0  0  0  0  0  0  0  0  0  0  0  0
   -0.0580   17.6830  -29.8630 O   0  0  0  0  0  0  0  0  0  0  0  0
   -1.1360   19.3410  -28.0840 N   0  0  0  0  0  0  0  0  0  0  0  0
   -2.2060   18.9860  -27.1550 C   0  0  0  0  0  0  0  0  0  0  0  0
   -3.1340   20.2260  -27.0850 C   0  0  0  0  0  0  0  0  0  0  0  0
   -2.4590   21.2130  -27.9750 C   0  0  0  0  0  0  0  0  0  0  0  0
   -2.8610   22.5170  -28.2640 C   0  0  0  0  0  0  0  0  0  0  0  0
   -2.0740   23.2900  -29.1460 C   0  0  0  0  0  0  0  0  0  0  0  0
   -2.4750   24.6700  -29.5000 C   0  0  0  0  0  0  0  0  0  0  0  0
   -1.9330   25.6390  -28.9070 O   0  0  0  0  0  0  0  0  0  0  0  0
   -3.4970   24.9400  -30.4670 N   0  0  0  0  0  0  0  0  0  0  0  0
   -4.6900   24.1670  -30.6750 C   0  0  0  0  0  0  0  0  0  0  0  0
   -5.9480   24.6150  -30.2260 C   0  0  0  0  0  0  0  0  0  0  0  0
   -7.0910   23.8470  -30.4580 C   0  0  0  0  0  0  0  0  0  0  0  0
   -6.9870   22.6170  -31.1140 C   0  0  0  0  0  0  0  0  0  0  0  0
   -5.7360   22.1450  -31.5340 C   0  0  0  0  0  0  0  0  0  0  0  0
   -5.6100   20.5920  -32.3620 S   0  0  0  0  0  0  0  0  0  0  0  0
   -6.6230   20.5490  -33.4730 O   0  0  0  0  0  0  0  0  0  0  0  0
   -5.9330   19.4880  -31.3960 O   0  0  0  0  0  0  0  0  0  0  0  0
   -4.0140   20.3330  -33.0220 N   0  0  0  0  0  0  0  0  0  0  0  0
   -3.0070   20.3130  -31.9510 C   0  0  0  0  0  0  0  0  0  0  0  0
   -1.5990   20.1260  -32.5610 C   0  0  0  0  0  0  0  0  0  0  0  0
   -1.6480   19.7980  -33.9400 O   0  0  0  0  0  0  0  0  0  0  0  0
   -2.5160   18.7000  -34.1410 C   0  0  0  0  0  0  0  0  0  0  0  0
   -3.9720   19.0750  -33.7890 C   0  0  0  0  0  0  0  0  0  0  0  0
   -4.5890   22.9200  -31.3020 C   0  0  0  0  0  0  0  0  0  0  0  0
   -0.8930   22.7340  -29.6920 C   0  0  0  0  0  0  0  0  0  0  0  0
   -0.5170   21.4160  -29.3890 C   0  0  0  0  0  0  0  0  0  0  0  0
   -1.3290   20.6740  -28.5250 C   0  0  0  0  0  0  0  0  0  0  0  0
    3.5581   18.7100  -29.5095 H   0  0  0  0  0  0  0  0  0  0  0  0
    2.0641   18.1467  -30.3325 H   0  0  0  0  0  0  0  0  0  0  0  0
    2.4856   19.8928  -30.3325 H   0  0  0  0  0  0  0  0  0  0  0  0
    2.3306   18.7708  -27.6148 H   0  0  0  0  0  0  0  0  0  0  0  0
    1.5211   20.2238  -28.3326 H   0  0  0  0  0  0  0  0  0  0  0  0
   -2.7616   18.1124  -27.5266 H   0  0  0  0  0  0  0  0  0  0  0  0
   -1.8098   18.7206  -26.1637 H   0  0  0  0  0  0  0  0  0  0  0  0
   -4.1411   19.9854  -27.4563 H   0  0  0  0  0  0  0  0  0  0  0  0
   -3.2761   20.5988  -26.0599 H   0  0  0  0  0  0  0  0  0  0  0  0
   -3.7733   22.9352  -27.8137 H   0  0  0  0  0  0  0  0  0  0  0  0
   -6.0301   25.5727  -29.6911 H   0  0  0  0  0  0  0  0  0  0  0  0
   -8.0742   24.2103  -30.1242 H   0  0  0  0  0  0  0  0  0  0  0  0
   -7.8901   22.0175  -31.3012 H   0  0  0  0  0  0  0  0  0  0  0  0
   -3.0425   21.2634  -31.3984 H   0  0  0  0  0  0  0  0  0  0  0  0
   -3.2205   19.4787  -31.2666 H   0  0  0  0  0  0  0  0  0  0  0  0
   -1.0341   21.0621  -32.4401 H   0  0  0  0  0  0  0  0  0  0  0  0
   -1.1126   19.2918  -32.0342 H   0  0  0  0  0  0  0  0  0  0  0  0
   -2.4687   18.3923  -35.1960 H   0  0  0  0  0  0  0  0  0  0  0  0
   -2.1975   17.8764  -33.4851 H   0  0  0  0  0  0  0  0  0  0  0  0
   -4.5479   19.1989  -34.7180 H   0  0  0  0  0  0  0  0  0  0  0  0
   -4.4062   18.2717  -33.1757 H   0  0  0  0  0  0  0  0  0  0  0  0
   -3.6037   22.5445  -31.6153 H   0  0  0  0  0  0  0  0  0  0  0  0
   -0.2637   23.3402  -30.3601 H   0  0  0  0  0  0  0  0  0  0  0  0
    0.3946   20.9771  -29.8208 H   0  0  0  0  0  0  0  0  0  0  0  0
  1  2  1  0
  2  3  1  0
  3  4  2  0
  3  5  2  0
  3  6  1  0
  6  7  1  0
  7  8  1  0
  8  9  1  0
  9 10  2  0
 10 11  1  0
 11 12  1  0
 12 13  2  0
 12 14  1  0
 14 15  1  0
 15 16  2  0
 16 17  1  0
 17 18  2  0
 18 19  1  0
 19 20  1  0
 20 21  2  0
 20 22  2  0
 20 23  1  0
 23 24  1  0
 24 25  1  0
 25 26  1  0
 26 27  1  0
 27 28  1  0
 19 29  2  0
 11 30  2  0
 30 31  1  0
 31 32  2  0
 32  6  1  0
 32  9  1  0
 29 15  1  0
 28 23  1  0
  1 33  1  0
  1 34  1  0
  1 35  1  0
  2 36  1  0
  2 37  1  0
  7 38  1  0
  7 39  1  0
  8 40  1  0
  8 41  1  0
 10 42  1  0
 16 43  1  0
 17 44  1  0
 18 45  1  0
 24 46  1  0
 24 47  1  0
 25 48  1  0
 25 49  1  0
 27 50  1  0
 27 51  1  0
 28 52  1  0
 28 53  1  0
 29 54  1  0
 30 55  1  0
 31 56  1  0
M  CHG  1  14  -1
M  END
>  <UniqueID>  (44) 
42

>  <SMILES>  (44) 
CCS(=O)(=O)N1CCc2cc(C(=O)[N-]c3cccc(S(=O)(=O)N4CCOCC4)c3)ccc21

>  <Energy>  (44) 
80.41482179552017

>  <Genealogy>  (44) 
CCS(=O)(=O)N1CCc2cc(C(=O)[N-]c3cccc(S(=O)(=O)N4CCOCC4)c3)ccc21 (protonated)
CCS(=O)(=O)N1CCc2cc(C(=O)[N-]c3cccc(S(=O)(=O)N4CCOCC4)c3)ccc21 (3D coordinates assigned)
CCS(=O)(=O)N1CCc2cc(C(=O)[N-]c3cccc(S(=O)(=O)N4CCOCC4)c3)ccc21 (nonaromatic ring conformer: 80.41482179552017 kcal/mol)

>  <smiles>  (44) 
CCS(=O)(=O)N1CCc2cc(C(=O)Nc3cccc(S(=O)(=O)N4CCOCC4)c3)ccc21

>  <score_type>  (44) 
oracle

>  <origin>  (44) 
adgpu

>  <m_score__min__energy>  (44) 
-12.65

>  <m_primary>  (44) 
energy

$$$$
44:0
     RDKit          3D

 29 31  0  0  0  0  0  0  0  0999 V2000
   -9.2140   20.1000  -31.5740 O   0  0  0  0  0  0  0  0  0  0  0  0
   -8.0590   20.3700  -32.0020 C   0  0  0  0  0  0  0  0  0  0  0  0
   -7.5570   21.7530  -31.9040 C   0  0  0  0  0  0  0  0  0  0  0  0
   -6.3360   22.0820  -32.3450 C   0  0  0  0  0  0  0  0  0  0  0  0
   -5.7720   23.7830  -32.1820 S   0  0  0  0  0  0  0  0  0  0  0  0
   -4.9700   23.4890  -30.5970 C   0  0  0  0  0  0  0  0  0  0  0  0
   -4.1000   22.3970  -30.4690 C   0  0  0  0  0  0  0  0  0  0  0  0
   -3.4560   22.1460  -29.2540 C   0  0  0  0  0  0  0  0  0  0  0  0
   -3.6860   22.9780  -28.1570 C   0  0  0  0  0  0  0  0  0  0  0  0
   -4.5660   24.0570  -28.2700 C   0  0  0  0  0  0  0  0  0  0  0  0
   -5.2160   24.3150  -29.4830 C   0  0  0  0  0  0  0  0  0  0  0  0
   -6.3560   25.6520  -29.5590 Cl  0  0  0  0  0  0  0  0  0  0  0  0
   -5.4710   21.0670  -32.9880 C   0  0  0  0  0  0  0  0  0  0  0  0
   -4.3550   21.4060  -33.4660 O   0  0  0  0  0  0  0  0  0  0  0  0
   -5.9280   19.6610  -33.0840 C   0  0  0  0  0  0  0  0  0  0  0  0
   -5.1120   18.6680  -33.6530 C   0  0  0  0  0  0  0  0  0  0  0  0
   -5.5630   17.3480  -33.7350 C   0  0  0  0  0  0  0  0  0  0  0  0
   -6.8290   17.0080  -33.2540 C   0  0  0  0  0  0  0  0  0  0  0  0
   -7.6510   17.9860  -32.6870 C   0  0  0  0  0  0  0  0  0  0  0  0
   -7.2070   19.3170  -32.5970 C   0  0  0  0  0  0  0  0  0  0  0  0
   -8.1976   22.5293  -31.4602 H   0  0  0  0  0  0  0  0  0  0  0  0
   -3.9233   21.7344  -31.3291 H   0  0  0  0  0  0  0  0  0  0  0  0
   -2.7679   21.2927  -29.1623 H   0  0  0  0  0  0  0  0  0  0  0  0
   -3.1740   22.7839  -27.2030 H   0  0  0  0  0  0  0  0  0  0  0  0
   -4.7492   24.7071  -27.4018 H   0  0  0  0  0  0  0  0  0  0  0  0
   -4.1146   18.9310  -34.0352 H   0  0  0  0  0  0  0  0  0  0  0  0
   -4.9191   16.5748  -34.1796 H   0  0  0  0  0  0  0  0  0  0  0  0
   -7.1803   15.9678  -33.3215 H   0  0  0  0  0  0  0  0  0  0  0  0
   -8.6479   17.7136  -32.3102 H   0  0  0  0  0  0  0  0  0  0  0  0
  1  2  2  0
  2  3  1  0
  3  4  2  0
  4  5  1  0
  5  6  1  0
  6  7  2  0
  7  8  1  0
  8  9  2  0
  9 10  1  0
 10 11  2  0
 11 12  1  0
  4 13  1  0
 13 14  2  0
 13 15  1  0
 15 16  2  0
 16 17  1  0
 17 18  2  0
 18 19  1  0
 19 20  2  0
 20  2  1  0
 11  6  1  0
 20 15  1  0
  3 21  1  0
  7 22  1  0
  8 23  1  0
  9 24  1  0
 10 25  1  0
 16 26  1  0
 17 27  1  0
 18 28  1  0
 19 29  1  0
M  END
>  <UniqueID>  (45) 
43

>  <SMILES>  (45) 
O=C1C=C(Sc2ccccc2Cl)C(=O)c2ccccc21

>  <Energy>  (45) 
30.053466562973817

>  <Genealogy>  (45) 
O=C1C=C(Sc2ccccc2Cl)C(=O)c2ccccc21 (3D coordinates assigned)
O=C1C=C(Sc2ccccc2Cl)C(=O)c2ccccc21 (nonaromatic ring conformer: 30.053466562973817 kcal/mol)

>  <smiles>  (45) 
O=C1C=C(Sc2ccccc2Cl)C(=O)c2ccccc21

>  <score_type>  (45) 
oracle

>  <origin>  (45) 
adgpu

>  <m_score__min__energy>  (45) 
-8.3100000000000005

>  <m_primary>  (45) 
energy

$$$$
45:0
     RDKit          3D

 63 66  0  0  0  0  0  0  0  0999 V2000
   -7.1650   13.8100  -34.6070 C   0  0  0  0  0  0  0  0  0  0  0  0
   -7.0630   15.2200  -34.4470 O   0  0  0  0  0  0  0  0  0  0  0  0
   -5.8750   15.9210  -34.1780 C   0  0  0  0  0  0  0  0  0  0  0  0
   -4.6390   15.4660  -34.6580 C   0  0  0  0  0  0  0  0  0  0  0  0
   -3.4740   16.1750  -34.3960 C   0  0  0  0  0  0  0  0  0  0  0  0
   -3.4930   17.3440  -33.6230 C   0  0  0  0  0  0  0  0  0  0  0  0
   -1.9580   18.2300  -33.4510 S   0  0  0  0  0  0  0  0  0  0  0  0
   -0.9680   17.7240  -34.4650 O   0  0  0  0  0  0  0  0  0  0  0  0
   -1.3540   18.0040  -32.0930 O   0  0  0  0  0  0  0  0  0  0  0  0
   -2.2120   19.9190  -33.7660 N   0  0  0  0  0  0  0  0  0  0  0  0
   -2.2260   20.9100  -32.7310 C   0  0  0  0  0  0  0  0  0  0  0  0
   -3.4160   21.5770  -32.3990 C   0  0  0  0  0  0  0  0  0  0  0  0
   -3.4330   22.5660  -31.4020 C   0  0  0  0  0  0  0  0  0  0  0  0
   -4.6910   23.2830  -31.0750 C   0  0  0  0  0  0  0  0  0  0  0  0
   -5.9250   22.6190  -31.2050 C   0  0  0  0  0  0  0  0  0  0  0  0
   -7.1280   23.2830  -30.9250 C   0  0  0  0  0  0  0  0  0  0  0  0
   -8.4330   22.5580  -31.0340 C   0  0  0  0  0  0  0  0  0  0  0  0
   -7.0950   24.6120  -30.4790 C   0  0  0  0  0  0  0  0  0  0  0  0
   -5.8760   25.2760  -30.3340 C   0  0  0  0  0  0  0  0  0  0  0  0
   -4.6760   24.6200  -30.6260 C   0  0  0  0  0  0  0  0  0  0  0  0
   -3.4760   25.3000  -30.4420 O   0  0  0  0  0  0  0  0  0  0  0  0
   -2.2510   22.8510  -30.7010 C   0  0  0  0  0  0  0  0  0  0  0  0
   -1.0730   22.1650  -30.9970 C   0  0  0  0  0  0  0  0  0  0  0  0
   -1.0510   21.1920  -32.0060 C   0  0  0  0  0  0  0  0  0  0  0  0
    0.1830   20.5230  -32.3090 N   0  0  0  0  0  0  0  0  0  0  0  0
    0.6720   20.5770  -33.6930 C   0  0  0  0  0  0  0  0  0  0  0  0
    1.9090   19.7040  -33.8780 C   0  0  0  0  0  0  0  0  0  0  0  0
    1.7270   18.4820  -33.1960 O   0  0  0  0  0  0  0  0  0  0  0  0
    1.8630   18.7070  -31.8100 C   0  0  0  0  0  0  0  0  0  0  0  0
    0.7980   19.6880  -31.2630 C   0  0  0  0  0  0  0  0  0  0  0  0
   -4.7300   17.7980  -33.0790 C   0  0  0  0  0  0  0  0  0  0  0  0
   -4.8160   19.0250  -32.1950 C   0  0  0  0  0  0  0  0  0  0  0  0
   -5.9290   17.1030  -33.4070 C   0  0  0  0  0  0  0  0  0  0  0  0
   -7.2690   17.5970  -32.9010 C   0  0  0  0  0  0  0  0  0  0  0  0
   -7.1997   13.3303  -33.6177 H   0  0  0  0  0  0  0  0  0  0  0  0
   -8.0829   13.5696  -35.1635 H   0  0  0  0  0  0  0  0  0  0  0  0
   -6.2913   13.4400  -35.1635 H   0  0  0  0  0  0  0  0  0  0  0  0
   -4.5915   14.5387  -35.2477 H   0  0  0  0  0  0  0  0  0  0  0  0
   -2.5185   15.8124  -34.8027 H   0  0  0  0  0  0  0  0  0  0  0  0
   -2.6320   20.1600  -34.6910 H   0  0  0  0  0  0  0  0  0  0  0  0
   -4.3469   21.3217  -32.9265 H   0  0  0  0  0  0  0  0  0  0  0  0
   -5.9461   21.5682  -31.5296 H   0  0  0  0  0  0  0  0  0  0  0  0
   -8.8187   22.3437  -30.0264 H   0  0  0  0  0  0  0  0  0  0  0  0
   -9.1558   23.1839  -31.5779 H   0  0  0  0  0  0  0  0  0  0  0  0
   -8.2835   21.6136  -31.5779 H   0  0  0  0  0  0  0  0  0  0  0  0
   -8.0341   25.1336  -30.2423 H   0  0  0  0  0  0  0  0  0  0  0  0
   -5.8591   26.3202  -29.9884 H   0  0  0  0  0  0  0  0  0  0  0  0
   -2.2535   23.6195  -29.9139 H   0  0  0  0  0  0  0  0  0  0  0  0
   -0.1546   22.3892  -30.4346 H   0  0  0  0  0  0  0  0  0  0  0  0
   -0.1212   20.2221  -34.3674 H   0  0  0  0  0  0  0  0  0  0  0  0
    0.9434   21.6174  -33.9251 H   0  0  0  0  0  0  0  0  0  0  0  0
    2.0622   19.5070  -34.9493 H   0  0  0  0  0  0  0  0  0  0  0  0
    2.7893   20.2237  -33.4719 H   0  0  0  0  0  0  0  0  0  0  0  0
    1.7607   17.7460  -31.2846 H   0  0  0  0  0  0  0  0  0  0  0  0
    2.8520   19.1571  -31.6393 H   0  0  0  0  0  0  0  0  0  0  0  0
    0.0057   19.1045  -30.7713 H   0  0  0  0  0  0  0  0  0  0  0  0
    1.3085   20.3660  -30.5632 H   0  0  0  0  0  0  0  0  0  0  0  0
   -4.7945   18.7182  -31.1389 H   0  0  0  0  0  0  0  0  0  0  0  0
   -3.9620   19.6867  -32.4021 H   0  0  0  0  0  0  0  0  0  0  0  0
   -5.7539   19.5611  -32.4021 H   0  0  0  0  0  0  0  0  0  0  0  0
   -7.2683   17.5967  -31.8010 H   0  0  0  0  0  0  0  0  0  0  0  0
   -7.4451   18.6192  -33.2673 H   0  0  0  0  0  0  0  0  0  0  0  0
   -8.0664   16.9337  -33.2673 H   0  0  0  0  0  0  0  0  0  0  0  0
  1  2  1  0
  2  3  1  0
  3  4  2  0
  4  5  1  0
  5  6  2  0
  6  7  1  0
  7  8  2  0
  7  9  2  0
  7 10  1  0
 10 11  1  0
 11 12  2  0
 12 13  1  0
 13 14  1  0
 14 15  2  0
 15 16  1  0
 16 17  1  0
 16 18  2  0
 18 19  1  0
 19 20  2  0
 20 21  1  0
 13 22  2  0
 22 23  1  0
 23 24  2  0
 24 25  1  0
 25 26  1  0
 26 27  1  0
 27 28  1  0
 28 29  1  0
 29 30  1  0
  6 31  1  0
 31 32  1  0
 31 33  2  0
 33 34  1  0
 33  3  1  0
 24 11  1  0
 30 25  1  0
 20 14  1  0
  1 35  1  0
  1 36  1  0
  1 37  1  0
  4 38  1  0
  5 39  1  0
 10 40  1  0
 12 41  1  0
 15 42  1  0
 17 43  1  0
 17 44  1  0
 17 45  1  0
 18 46  1  0
 19 47  1  0
 22 48  1  0
 23 49  1  0
 26 50  1  0
 26 51  1  0
 27 52  1  0
 27 53  1  0
 29 54  1  0
 29 55  1  0
 30 56  1  0
 30 57  1  0
 32 58  1  0
 32 59  1  0
 32 60  1  0
 34 61  1  0
 34 62  1  0
 34 63  1  0
M  CHG  1  21  -1
M  END
>  <UniqueID>  (46) 
44

>  <SMILES>  (46) 
COc1ccc(S(=O)(=O)Nc2cc(-c3cc(C)ccc3[O-])ccc2N2CCOCC2)c(C)c1C

>  <Energy>  (46) 
90.56283761678058

>  <Genealogy>  (46) 
COc1ccc(S(=O)(=O)Nc2cc(-c3cc(C)ccc3[O-])ccc2N2CCOCC2)c(C)c1C (protonated)
COc1ccc(S(=O)(=O)Nc2cc(-c3cc(C)ccc3[O-])ccc2N2CCOCC2)c(C)c1C (3D coordinates assigned)
COc1ccc(S(=O)(=O)Nc2cc(-c3cc(C)ccc3[O-])ccc2N2CCOCC2)c(C)c1C (nonaromatic ring conformer: 90.56283761678058 kcal/mol)

>  <smiles>  (46) 
COc1ccc(S(=O)(=O)Nc2cc(-c3cc(C)ccc3O)ccc2N2CCOCC2)c(C)c1C

>  <score_type>  (46) 
oracle

>  <origin>  (46) 
adgpu

>  <m_score__min__energy>  (46) 
-12.609999999999999

>  <m_primary>  (46) 
energy

$$$$
46:0
     RDKit          3D

 50 52  0  0  0  0  0  0  0  0999 V2000
   -0.0660   25.7600  -27.4560 C   0  0  0  0  0  0  0  0  0  0  0  0
   -0.0960   24.8630  -28.5600 O   0  0  0  0  0  0  0  0  0  0  0  0
   -0.7800   23.6360  -28.5710 C   0  0  0  0  0  0  0  0  0  0  0  0
   -0.1190   22.4140  -28.3360 C   0  0  0  0  0  0  0  0  0  0  0  0
   -0.8290   21.2110  -28.3540 C   0  0  0  0  0  0  0  0  0  0  0  0
   -2.2010   21.2110  -28.6010 C   0  0  0  0  0  0  0  0  0  0  0  0
   -2.8700   22.4130  -28.8350 C   0  0  0  0  0  0  0  0  0  0  0  0
   -2.1680   23.6310  -28.8280 C   0  0  0  0  0  0  0  0  0  0  0  0
   -2.9040   24.9200  -29.1030 C   0  0  0  0  0  0  0  0  0  0  0  0
   -3.4960   24.9230  -30.4430 N   0  0  0  0  0  0  0  0  0  0  0  0
   -5.2360   24.9470  -30.3780 S   0  0  0  0  0  0  0  0  0  0  0  0
   -5.6690   25.1200  -28.9490 O   0  0  0  0  0  0  0  0  0  0  0  0
   -5.7510   26.1140  -31.1750 O   0  0  0  0  0  0  0  0  0  0  0  0
   -5.9170   23.4410  -30.9920 C   0  0  0  0  0  0  0  0  0  0  0  0
   -5.2730   22.2170  -30.7640 C   0  0  0  0  0  0  0  0  0  0  0  0
   -5.8340   21.0290  -31.2400 C   0  0  0  0  0  0  0  0  0  0  0  0
   -7.0440   21.0530  -31.9460 C   0  0  0  0  0  0  0  0  0  0  0  0
   -7.7250   19.5500  -32.5630 S   0  0  0  0  0  0  0  0  0  0  0  0
   -7.7980   18.5560  -31.4370 O   0  0  0  0  0  0  0  0  0  0  0  0
   -9.1170   19.7920  -33.0810 O   0  0  0  0  0  0  0  0  0  0  0  0
   -6.7140   18.9200  -33.8420 N   0  0  0  0  0  0  0  0  0  0  0  0
   -5.4050   19.6190  -33.8790 C   0  0  0  0  0  0  0  0  0  0  0  0
   -4.2810   18.7670  -33.2610 C   0  0  0  0  0  0  0  0  0  0  0  0
   -4.1020   17.5180  -33.9130 O   0  0  0  0  0  0  0  0  0  0  0  0
   -5.3080   16.9520  -34.4110 C   0  0  0  0  0  0  0  0  0  0  0  0
   -6.5770   17.4530  -33.7000 C   0  0  0  0  0  0  0  0  0  0  0  0
   -7.6820   22.2780  -32.1830 C   0  0  0  0  0  0  0  0  0  0  0  0
   -7.1230   23.4660  -31.7050 C   0  0  0  0  0  0  0  0  0  0  0  0
   -0.0852   25.1869  -26.5173 H   0  0  0  0  0  0  0  0  0  0  0  0
    0.8528   26.3633  -27.4986 H   0  0  0  0  0  0  0  0  0  0  0  0
   -0.9425   26.4233  -27.4986 H   0  0  0  0  0  0  0  0  0  0  0  0
    0.9629   22.4072  -28.1371 H   0  0  0  0  0  0  0  0  0  0  0  0
   -0.3042   20.2614  -28.1728 H   0  0  0  0  0  0  0  0  0  0  0  0
   -2.7571   20.2620  -28.6115 H   0  0  0  0  0  0  0  0  0  0  0  0
   -3.9533   22.4075  -29.0261 H   0  0  0  0  0  0  0  0  0  0  0  0
   -3.7043   25.0409  -28.3581 H   0  0  0  0  0  0  0  0  0  0  0  0
   -2.1840   25.7493  -29.0411 H   0  0  0  0  0  0  0  0  0  0  0  0
   -4.3236   22.1916  -30.2090 H   0  0  0  0  0  0  0  0  0  0  0  0
   -5.3237   20.0713  -31.0597 H   0  0  0  0  0  0  0  0  0  0  0  0
   -7.2120   19.1150  -34.7430 H   0  0  0  0  0  0  0  0  0  0  0  0
   -5.1492   19.8397  -34.9258 H   0  0  0  0  0  0  0  0  0  0  0  0
   -5.4955   20.5432  -33.2894 H   0  0  0  0  0  0  0  0  0  0  0  0
   -3.3393   19.3321  -33.3237 H   0  0  0  0  0  0  0  0  0  0  0  0
   -4.5670   18.5542  -32.2204 H   0  0  0  0  0  0  0  0  0  0  0  0
   -5.3902   17.1993  -35.4797 H   0  0  0  0  0  0  0  0  0  0  0  0
   -5.2490   15.8687  -34.2291 H   0  0  0  0  0  0  0  0  0  0  0  0
   -7.4564   16.9639  -34.1443 H   0  0  0  0  0  0  0  0  0  0  0  0
   -6.5023   17.2075  -32.6303 H   0  0  0  0  0  0  0  0  0  0  0  0
   -8.6259   22.3044  -32.7472 H   0  0  0  0  0  0  0  0  0  0  0  0
   -7.6313   24.4240  -31.8890 H   0  0  0  0  0  0  0  0  0  0  0  0
  1  2  1  0
  2  3  1  0
  3  4  2  0
  4  5  1  0
  5  6  2  0
  6  7  1  0
  7  8  2  0
  8  9  1  0
  9 10  1  0
 10 11  1  0
 11 12  2  0
 11 13  2  0
 11 14  1  0
 14 15  2  0
 15 16  1  0
 16 17  2  0
 17 18  1  0
 18 19  2  0
 18 20  2  0
 18 21  1  0
 21 22  1  0
 22 23  1  0
 23 24  1  0
 24 25  1  0
 25 26  1  0
 17 27  1  0
 27 28  2  0
  8  3  1  0
 28 14  1  0
 26 21  1  0
  1 29  1  0
  1 30  1  0
  1 31  1  0
  4 32  1  0
  5 33  1  0
  6 34  1  0
  7 35  1  0
  9 36  1  0
  9 37  1  0
 15 38  1  0
 16 39  1  0
 21 40  1  0
 22 41  1  0
 22 42  1  0
 23 43  1  0
 23 44  1  0
 25 45  1  0
 25 46  1  0
 26 47  1  0
 26 48  1  0
 27 49  1  0
 28 50  1  0
M  CHG  2  10  -1  21   1
M  END
>  <UniqueID>  (47) 
45

>  <SMILES>  (47) 
COc1ccccc1C[N-]S(=O)(=O)c1ccc(S(=O)(=O)[NH+]2CCOCC2)cc1

>  <Energy>  (47) 
61.286290404310094

>  <Genealogy>  (47) 
COc1ccccc1C[N-]S(=O)(=O)c1ccc(S(=O)(=O)[NH+]2CCOCC2)cc1 (protonated)
COc1ccccc1C[N-]S(=O)(=O)c1ccc(S(=O)(=O)[NH+]2CCOCC2)cc1 (3D coordinates assigned)
COc1ccccc1C[N-]S(=O)(=O)c1ccc(S(=O)(=O)[NH+]2CCOCC2)cc1 (nonaromatic ring conformer: 61.286290404310094 kcal/mol)

>  <smiles>  (47) 
COc1ccccc1CNS(=O)(=O)c1ccc(S(=O)(=O)N2CCOCC2)cc1

>  <score_type>  (47) 
oracle

>  <origin>  (47) 
adgpu

>  <m_score__min__energy>  (47) 
-10.58

>  <m_primary>  (47) 
energy

$$$$
47:0
     RDKit          3D

 43 45  0  0  1  0  0  0  0  0999 V2000
   -4.6540   24.2930  -30.0900 C   0  0  0  0  0  0  0  0  0  0  0  0
   -3.2360   24.2450  -30.3570 N   0  0  0  0  0  0  0  0  0  0  0  0
   -2.3740   24.4400  -28.8890 S   0  0  0  0  0  0  0  0  0  0  0  0
   -1.5890   25.7390  -28.9690 O   0  0  0  0  0  0  0  0  0  0  0  0
   -3.4220   24.5510  -27.7920 O   0  0  0  0  0  0  0  0  0  0  0  0
   -1.3260   23.1050  -28.5040 C   0  0  0  0  0  0  0  0  0  0  0  0
   -0.0900   23.3360  -27.8770 C   0  0  0  0  0  0  0  0  0  0  0  0
    0.7660   22.3020  -27.5630 C   0  0  0  0  0  0  0  0  0  0  0  0
    0.4450   20.9820  -27.8520 C   0  0  0  0  0  0  0  0  0  0  0  0
   -0.7620   20.7420  -28.4660 C   0  0  0  0  0  0  0  0  0  0  0  0
   -1.6160   21.7950  -28.7770 C   0  0  0  0  0  0  0  0  0  0  0  0
   -2.8400   21.4310  -29.4090 N   0  0  0  0  0  0  0  0  0  0  0  0
   -2.9260   21.3540  -30.7090 C   0  0  0  0  0  0  0  0  0  0  0  0
   -4.0890   21.0060  -31.3600 C   0  0  0  0  0  0  0  0  0  0  0  0
   -4.1580   20.9250  -32.7300 C   0  0  0  0  0  0  0  0  0  0  0  0
   -5.3060   20.6030  -33.4730 N   0  0  0  0  0  0  0  0  0  0  0  0
   -6.4230   19.8680  -33.0400 C   0  0  0  0  0  0  0  0  0  0  0  0
   -7.5960   20.5620  -32.7210 C   0  0  0  0  0  0  0  0  0  0  0  0
   -8.7250   19.9100  -32.2660 C   0  0  0  0  0  0  0  0  0  0  0  0
   -8.7440   18.5430  -32.1050 C   0  0  0  0  0  0  0  0  0  0  0  0
   -9.8370   17.8330  -31.6540 O   0  0  0  0  0  0  0  0  0  0  0  0
   -7.6010   17.8390  -32.4120 C   0  0  0  0  0  0  0  0  0  0  0  0
   -6.4640   18.5070  -32.8720 C   0  0  0  0  0  0  0  0  0  0  0  0
   -2.9970   21.2120  -33.3950 N   0  0  0  0  0  0  0  0  0  0  0  0
   -1.8690   21.5480  -32.7540 C   0  0  0  0  0  0  0  0  0  0  0  0
   -1.8060   21.6280  -31.4020 N   0  0  0  0  0  0  0  0  0  0  0  0
   -4.8224   24.2987  -29.0030 H   0  0  0  0  0  0  0  0  0  0  0  0
   -5.0796   25.2061  -30.5318 H   0  0  0  0  0  0  0  0  0  0  0  0
   -5.1404   23.4108  -30.5318 H   0  0  0  0  0  0  0  0  0  0  0  0
   -3.0390   23.3400  -30.8470 H   0  0  0  0  0  0  0  0  0  0  0  0
    0.2019   24.3675  -27.6306 H   0  0  0  0  0  0  0  0  0  0  0  0
    1.7245   22.5274  -27.0727 H   0  0  0  0  0  0  0  0  0  0  0  0
    1.1303   20.1595  -27.5993 H   0  0  0  0  0  0  0  0  0  0  0  0
   -1.0540   19.7106  -28.7128 H   0  0  0  0  0  0  0  0  0  0  0  0
   -4.9885   20.7866  -30.7660 H   0  0  0  0  0  0  0  0  0  0  0  0
   -5.3470   20.9520  -34.4800 H   0  0  0  0  0  0  0  0  0  0  0  0
   -7.6190   21.6557  -32.8358 H   0  0  0  0  0  0  0  0  0  0  0  0
   -9.6262   20.4940  -32.0277 H   0  0  0  0  0  0  0  0  0  0  0  0
   -9.7810   17.4480  -30.6970 H   0  0  0  0  0  0  0  0  0  0  0  0
   -7.5834   16.7454  -32.2944 H   0  0  0  0  0  0  0  0  0  0  0  0
   -5.5655   17.9184  -33.1091 H   0  0  0  0  0  0  0  0  0  0  0  0
   -2.9670   21.1670  -34.4400 H   0  0  0  0  0  0  0  0  0  0  0  0
   -0.9660   21.7657  -33.3432 H   0  0  0  0  0  0  0  0  0  0  0  0
  1  2  1  0
  2  3  1  0
  3  4  2  0
  3  5  2  0
  3  6  1  0
  6  7  2  0
  7  8  1  0
  8  9  2  0
  9 10  1  0
 10 11  2  0
 11 12  1  0
 12 13  2  0
 13 14  1  0
 14 15  2  0
 15 16  1  0
 16 17  1  0
 17 18  2  0
 18 19  1  0
 19 20  2  0
 20 21  1  0
 20 22  1  0
 22 23  2  0
 15 24  1  0
 24 25  1  0
 25 26  2  0
 11  6  1  0
 26 13  1  0
 23 17  1  0
  1 27  1  0
  1 28  1  0
  1 29  1  0
  2 30  1  0
  7 31  1  0
  8 32  1  0
  9 33  1  0
 10 34  1  0
 14 35  1  0
 16 36  1  0
 18 37  1  0
 19 38  1  0
 21 39  1  0
 22 40  1  0
 23 41  1  0
 24 42  1  0
 25 43  1  0
M  END
>  <smiles>  (48) 
CNS(=O)(=O)c1ccccc1N=c1cc(Nc2ccc(O)cc2)[nH]cn1

>  <score_type>  (48) 
oracle

>  <origin>  (48) 
adgpu

>  <m_score__min__energy>  (48) 
-9.1899999999999995

>  <m_primary>  (48) 
energy

$$$$
