0:0
     RDKit          3D

 73 78  0  0  0  0  0  0  0  0999 V2000
   -1.7200   21.8300  -33.8450 O   0  0  0  0  0  0  0  0  0  0  0  0
   -2.4230   20.9880  -33.2230 C   0  0  0  0  0  0  0  0  0  0  0  0
   -1.9140   19.6770  -32.9500 N   0  0  0  0  0  0  0  0  0  0  0  0
   -1.0140   19.3060  -31.8960 C   0  0  0  0  0  0  0  0  0  0  0  0
   -0.7660   17.9630  -31.5590 C   0  0  0  0  0  0  0  0  0  0  0  0
    0.1380   17.6470  -30.5400 C   0  0  0  0  0  0  0  0  0  0  0  0
    0.8160   18.6650  -29.8570 C   0  0  0  0  0  0  0  0  0  0  0  0
    1.9630   18.2790  -28.5780 S   0  0  0  0  0  0  0  0  0  0  0  0
    1.3110   17.3770  -27.5670 O   0  0  0  0  0  0  0  0  0  0  0  0
    2.3760   19.5590  -27.9050 O   0  0  0  0  0  0  0  0  0  0  0  0
    3.3580   17.4840  -29.2760 N   0  0  0  0  0  0  0  0  0  0  0  0
    3.3570   17.5580  -30.7590 C   0  0  0  0  0  0  0  0  0  0  0  0
    3.2930   16.1890  -31.4560 C   0  0  0  0  0  0  0  0  0  0  0  0
    2.2540   15.2940  -30.7830 C   0  0  0  0  0  0  0  0  0  0  0  0
    2.5420   15.1060  -29.2840 C   0  0  0  0  0  0  0  0  0  0  0  0
    3.5510   16.1280  -28.7260 C   0  0  0  0  0  0  0  0  0  0  0  0
    0.5850   20.0010  -30.2040 C   0  0  0  0  0  0  0  0  0  0  0  0
   -0.3180   20.3180  -31.2240 C   0  0  0  0  0  0  0  0  0  0  0  0
   -3.7720   21.3700  -32.7620 C   0  0  0  0  0  0  0  0  0  0  0  0
   -3.9360   22.5570  -32.0200 C   0  0  0  0  0  0  0  0  0  0  0  0
   -5.1970   22.9240  -31.5110 C   0  0  0  0  0  0  0  0  0  0  0  0
   -5.3590   24.4070  -30.5760 S   0  0  0  0  0  0  0  0  0  0  0  0
   -6.8050   24.8150  -30.5520 O   0  0  0  0  0  0  0  0  0  0  0  0
   -4.5290   25.4830  -31.2200 O   0  0  0  0  0  0  0  0  0  0  0  0
   -4.8010   24.1480  -28.9550 N   0  0  0  0  0  0  0  0  0  0  0  0
   -3.6480   23.3800  -28.5850 C   0  0  0  0  0  0  0  0  0  0  0  0
   -3.7620   22.0970  -28.0190 C   0  0  0  0  0  0  0  0  0  0  0  0
   -2.6170   21.3730  -27.6560 C   0  0  0  0  0  0  0  0  0  0  0  0
   -1.3400   21.9200  -27.8970 C   0  0  0  0  0  0  0  0  0  0  0  0
   -1.2300   23.2040  -28.4480 C   0  0  0  0  0  0  0  0  0  0  0  0
   -2.3760   23.9300  -28.7950 C   0  0  0  0  0  0  0  0  0  0  0  0
   -2.2580   25.2020  -29.3510 O   0  0  0  0  0  0  0  0  0  0  0  0
   -0.0930   21.1820  -27.4670 C   0  0  0  0  0  0  0  0  0  0  0  0
   -0.3380   19.7380  -27.3400 N   0  0  0  0  0  0  0  0  0  0  0  0
   -1.4700   19.4910  -26.4420 C   0  0  0  0  0  0  0  0  0  0  0  0
   -2.7660   19.9810  -27.0940 C   0  0  0  0  0  0  0  0  0  0  0  0
   -6.3130   22.1060  -31.7520 C   0  0  0  0  0  0  0  0  0  0  0  0
   -6.1480   20.9410  -32.4990 C   0  0  0  0  0  0  0  0  0  0  0  0
   -4.9170   20.5820  -32.9990 C   0  0  0  0  0  0  0  0  0  0  0  0
   -5.0990   19.3860  -33.8040 C   0  0  0  0  0  0  0  0  0  0  0  0
   -4.2150   18.8440  -34.5180 O   0  0  0  0  0  0  0  0  0  0  0  0
   -6.5170   18.9260  -33.7540 C   0  0  0  0  0  0  0  0  0  0  0  0
   -7.2290   19.9830  -32.8860 C   0  0  0  0  0  0  0  0  0  0  0  0
   -1.2854   17.1579  -32.0994 H   0  0  0  0  0  0  0  0  0  0  0  0
    0.3174   16.5949  -30.2737 H   0  0  0  0  0  0  0  0  0  0  0  0
    2.4837   18.1476  -31.0748 H   0  0  0  0  0  0  0  0  0  0  0  0
    4.3107   18.0198  -31.0541 H   0  0  0  0  0  0  0  0  0  0  0  0
    3.0179   16.3326  -32.5113 H   0  0  0  0  0  0  0  0  0  0  0  0
    4.2788   15.7064  -31.3833 H   0  0  0  0  0  0  0  0  0  0  0  0
    1.2610   15.7527  -30.8993 H   0  0  0  0  0  0  0  0  0  0  0  0
    2.2936   14.3055  -31.2638 H   0  0  0  0  0  0  0  0  0  0  0  0
    1.5969   15.2102  -28.7308 H   0  0  0  0  0  0  0  0  0  0  0  0
    2.9862   14.1074  -29.1596 H   0  0  0  0  0  0  0  0  0  0  0  0
    3.4370   16.1730  -27.6329 H   0  0  0  0  0  0  0  0  0  0  0  0
    4.5569   15.7928  -29.0189 H   0  0  0  0  0  0  0  0  0  0  0  0
    1.1156   20.8048  -29.6726 H   0  0  0  0  0  0  0  0  0  0  0  0
   -0.4825   21.3700  -31.5002 H   0  0  0  0  0  0  0  0  0  0  0  0
   -3.0671   23.2059  -31.8358 H   0  0  0  0  0  0  0  0  0  0  0  0
   -4.7579   21.6579  -27.8598 H   0  0  0  0  0  0  0  0  0  0  0  0
   -0.2353   23.6450  -28.6092 H   0  0  0  0  0  0  0  0  0  0  0  0
   -3.0500   25.6700  -29.7790 H   0  0  0  0  0  0  0  0  0  0  0  0
    0.6956   21.3462  -28.2161 H   0  0  0  0  0  0  0  0  0  0  0  0
    0.2143   21.5676  -26.4837 H   0  0  0  0  0  0  0  0  0  0  0  0
    0.5130   19.3100  -26.9080 H   0  0  0  0  0  0  0  0  0  0  0  0
   -1.5477   18.4124  -26.2405 H   0  0  0  0  0  0  0  0  0  0  0  0
   -1.3103   20.0337  -25.4986 H   0  0  0  0  0  0  0  0  0  0  0  0
   -3.0362   19.2944  -27.9098 H   0  0  0  0  0  0  0  0  0  0  0  0
   -3.5498   20.0050  -26.3226 H   0  0  0  0  0  0  0  0  0  0  0  0
   -7.3023   22.3807  -31.3572 H   0  0  0  0  0  0  0  0  0  0  0  0
   -6.9521   18.8934  -34.7638 H   0  0  0  0  0  0  0  0  0  0  0  0
   -6.6154   17.9098  -33.3445 H   0  0  0  0  0  0  0  0  0  0  0  0
   -8.0137   20.4947  -33.4625 H   0  0  0  0  0  0  0  0  0  0  0  0
   -7.7267   19.5390  -32.0113 H   0  0  0  0  0  0  0  0  0  0  0  0
  1  2  2  0
  2  3  1  0
  3  4  1  0
  4  5  2  0
  5  6  1  0
  6  7  2  0
  7  8  1  0
  8  9  2  0
  8 10  2  0
  8 11  1  0
 11 12  1  0
 12 13  1  0
 13 14  1  0
 14 15  1  0
 15 16  1  0
  7 17  1  0
 17 18  2  0
  2 19  1  0
 19 20  2  0
 20 21  1  0
 21 22  1  0
 22 23  2  0
 22 24  2  0
 22 25  1  0
 25 26  1  0
 26 27  2  0
 27 28  1  0
 28 29  2  0
 29 30  1  0
 30 31  2  0
 31 32  1  0
 29 33  1  0
 33 34  1  0
 34 35  1  0
 35 36  1  0
 21 37  2  0
 37 38  1  0
 38 39  2  0
 39 40  1  0
 40 41  2  0
 40 42  1  0
 42 43  1  0
 18  4  1  0
 39 19  1  0
 16 11  1  0
 31 26  1  0
 43 38  1  0
 36 28  1  0
  5 44  1  0
  6 45  1  0
 12 46  1  0
 12 47  1  0
 13 48  1  0
 13 49  1  0
 14 50  1  0
 14 51  1  0
 15 52  1  0
 15 53  1  0
 16 54  1  0
 16 55  1  0
 17 56  1  0
 18 57  1  0
 20 58  1  0
 27 59  1  0
 30 60  1  0
 32 61  1  0
 33 62  1  0
 33 63  1  0
 34 64  1  0
 35 65  1  0
 35 66  1  0
 36 67  1  0
 36 68  1  0
 37 69  1  0
 42 70  1  0
 42 71  1  0
 43 72  1  0
 43 73  1  0
M  CHG  2   3  -1  25  -1
M  END
>  <UniqueID>  (1) 
1

>  <SMILES>  (1) 
O=C([N-]c1ccc(S(=O)(=O)N2CCCCC2)cc1)c1cc(S(=O)(=O)[N-]c2cc3c(cc2O)CNCC3)cc2c1C(=O)CC2

>  <Energy>  (1) 
112.91870077113526

>  <Genealogy>  (1) 
O=C([N-]c1ccc(S(=O)(=O)N2CCCCC2)cc1)c1cc(S(=O)(=O)[N-]c2cc3c(cc2O)CNCC3)cc2c1C(=O)CC2 (protonated)
O=C([N-]c1ccc(S(=O)(=O)N2CCCCC2)cc1)c1cc(S(=O)(=O)[N-]c2cc3c(cc2O)CNCC3)cc2c1C(=O)CC2 (3D coordinates assigned)
O=C([N-]c1ccc(S(=O)(=O)N2CCCCC2)cc1)c1cc(S(=O)(=O)[N-]c2cc3c(cc2O)CNCC3)cc2c1C(=O)CC2 (nonaromatic ring conformer: 112.91870077113526 kcal/mol)

>  <smiles>  (1) 
O=C(Nc1ccc(S(=O)(=O)N2CCCCC2)cc1)c1cc(S(=O)(=O)Nc2cc3c(cc2O)CNCC3)cc2c1C(=O)CC2

>  <score_type>  (1) 
oracle

>  <origin>  (1) 
adgpu

>  <m_score__min__energy>  (1) 
-14.630000000000001

>  <m_primary>  (1) 
energy

$$$$
1:0
     RDKit          3D

 52 54  0  0  0  0  0  0  0  0999 V2000
   -9.4970   19.6880  -32.7800 C   0  0  0  0  0  0  0  0  0  0  0  0
   -8.2280   20.3870  -32.3680 C   0  0  0  0  0  0  0  0  0  0  0  0
   -8.3070   21.6030  -31.6720 C   0  0  0  0  0  0  0  0  0  0  0  0
   -7.1480   22.2780  -31.2840 C   0  0  0  0  0  0  0  0  0  0  0  0
   -5.8860   21.7450  -31.5710 C   0  0  0  0  0  0  0  0  0  0  0  0
   -4.7090   22.4690  -31.1730 N   0  0  0  0  0  0  0  0  0  0  0  0
   -4.6430   23.8970  -31.0580 C   0  0  0  0  0  0  0  0  0  0  0  0
   -5.5530   24.6200  -31.5440 O   0  0  0  0  0  0  0  0  0  0  0  0
   -3.4840   24.4940  -30.4620 N   0  0  0  0  0  0  0  0  0  0  0  0
   -2.7120   23.9640  -29.3740 C   0  0  0  0  0  0  0  0  0  0  0  0
   -2.9140   22.6640  -28.8940 C   0  0  0  0  0  0  0  0  0  0  0  0
   -2.1340   22.1690  -27.8510 C   0  0  0  0  0  0  0  0  0  0  0  0
   -1.1220   22.9520  -27.2710 C   0  0  0  0  0  0  0  0  0  0  0  0
   -0.3220   22.3550  -26.1450 C   0  0  0  0  0  0  0  0  0  0  0  0
   -0.8890   24.2640  -27.7680 C   0  0  0  0  0  0  0  0  0  0  0  0
    0.3880   25.3410  -27.1470 S   0  0  0  0  0  0  0  0  0  0  0  0
    0.1810   26.7780  -27.5370 O   0  0  0  0  0  0  0  0  0  0  0  0
    1.6930   24.8850  -27.7360 O   0  0  0  0  0  0  0  0  0  0  0  0
    0.4670   25.2070  -25.4020 N   0  0  0  0  0  0  0  0  0  0  0  0
   -0.8750   25.1460  -24.7930 C   0  0  0  0  0  0  0  0  0  0  0  0
   -1.5740   26.5260  -24.7590 C   0  0  0  0  0  0  0  0  0  0  0  0
   -0.6910   27.6140  -24.9660 O   0  0  0  0  0  0  0  0  0  0  0  0
    0.4900   27.4270  -24.2200 C   0  0  0  0  0  0  0  0  0  0  0  0
    1.3120   26.2620  -24.8020 C   0  0  0  0  0  0  0  0  0  0  0  0
   -1.6890   24.7470  -28.8240 C   0  0  0  0  0  0  0  0  0  0  0  0
   -1.4710   26.0240  -29.3360 O   0  0  0  0  0  0  0  0  0  0  0  0
   -5.7970   20.5440  -32.2960 C   0  0  0  0  0  0  0  0  0  0  0  0
   -6.9570   19.8580  -32.6970 C   0  0  0  0  0  0  0  0  0  0  0  0
   -6.8240   18.5720  -33.4710 C   0  0  0  0  0  0  0  0  0  0  0  0
  -10.0544   19.3810  -31.8828 H   0  0  0  0  0  0  0  0  0  0  0  0
  -10.1150   20.3730  -33.3791 H   0  0  0  0  0  0  0  0  0  0  0  0
   -9.2484   18.7996  -33.3791 H   0  0  0  0  0  0  0  0  0  0  0  0
   -9.2919   22.0287  -31.4297 H   0  0  0  0  0  0  0  0  0  0  0  0
   -7.2273   23.2358  -30.7488 H   0  0  0  0  0  0  0  0  0  0  0  0
   -3.8210   21.9340  -31.0400 H   0  0  0  0  0  0  0  0  0  0  0  0
   -3.6929   22.0301  -29.3429 H   0  0  0  0  0  0  0  0  0  0  0  0
   -2.3132   21.1504  -27.4763 H   0  0  0  0  0  0  0  0  0  0  0  0
   -0.7490   22.6737  -25.1827 H   0  0  0  0  0  0  0  0  0  0  0  0
   -0.3532   21.2576  -26.2146 H   0  0  0  0  0  0  0  0  0  0  0  0
    0.7211   22.6973  -26.2146 H   0  0  0  0  0  0  0  0  0  0  0  0
   -1.4959   24.4504  -25.3767 H   0  0  0  0  0  0  0  0  0  0  0  0
   -0.7550   24.8066  -23.7536 H   0  0  0  0  0  0  0  0  0  0  0  0
   -2.3417   26.5465  -25.5465 H   0  0  0  0  0  0  0  0  0  0  0  0
   -2.0032   26.6456  -23.7533 H   0  0  0  0  0  0  0  0  0  0  0  0
    1.0907   28.3478  -24.2550 H   0  0  0  0  0  0  0  0  0  0  0  0
    0.2220   27.1907  -23.1796 H   0  0  0  0  0  0  0  0  0  0  0  0
    1.9828   26.6587  -25.5783 H   0  0  0  0  0  0  0  0  0  0  0  0
    1.8721   25.8055  -23.9726 H   0  0  0  0  0  0  0  0  0  0  0  0
   -4.8082   20.1360  -32.5527 H   0  0  0  0  0  0  0  0  0  0  0  0
   -6.7368   17.7292  -32.7695 H   0  0  0  0  0  0  0  0  0  0  0  0
   -7.7124   18.4316  -34.1043 H   0  0  0  0  0  0  0  0  0  0  0  0
   -5.9257   18.6164  -34.1043 H   0  0  0  0  0  0  0  0  0  0  0  0
  1  2  1  0
  2  3  2  0
  3  4  1  0
  4  5  2  0
  5  6  1  0
  6  7  1  0
  7  8  2  0
  7  9  1  0
  9 10  1  0
 10 11  2  0
 11 12  1  0
 12 13  2  0
 13 14  1  0
 13 15  1  0
 15 16  1  0
 16 17  2  0
 16 18  2  0
 16 19  1  0
 19 20  1  0
 20 21  1  0
 21 22  1  0
 22 23  1  0
 23 24  1  0
 15 25  2  0
 25 26  1  0
  5 27  1  0
 27 28  2  0
 28 29  1  0
 28  2  1  0
 25 10  1  0
 24 19  1  0
  1 30  1  0
  1 31  1  0
  1 32  1  0
  3 33  1  0
  4 34  1  0
  6 35  1  0
 11 36  1  0
 12 37  1  0
 14 38  1  0
 14 39  1  0
 14 40  1  0
 20 41  1  0
 20 42  1  0
 21 43  1  0
 21 44  1  0
 23 45  1  0
 23 46  1  0
 24 47  1  0
 24 48  1  0
 27 49  1  0
 29 50  1  0
 29 51  1  0
 29 52  1  0
M  CHG  2   9  -1  26  -1
M  END
>  <UniqueID>  (2) 
2

>  <SMILES>  (2) 
Cc1ccc(NC(=O)[N-]c2ccc(C)c(S(=O)(=O)N3CCOCC3)c2[O-])cc1C

>  <Energy>  (2) 
75.33880487804048

>  <Genealogy>  (2) 
Cc1ccc(NC(=O)[N-]c2ccc(C)c(S(=O)(=O)N3CCOCC3)c2[O-])cc1C (protonated)
Cc1ccc(NC(=O)[N-]c2ccc(C)c(S(=O)(=O)N3CCOCC3)c2[O-])cc1C (3D coordinates assigned)
Cc1ccc(NC(=O)[N-]c2ccc(C)c(S(=O)(=O)N3CCOCC3)c2[O-])cc1C (nonaromatic ring conformer: 75.33880487804048 kcal/mol)

>  <smiles>  (2) 
Cc1ccc(NC(=O)Nc2ccc(C)c(S(=O)(=O)N3CCOCC3)c2O)cc1C

>  <score_type>  (2) 
oracle

>  <origin>  (2) 
adgpu

>  <m_score__min__energy>  (2) 
-13.82

>  <m_primary>  (2) 
energy

$$$$
2:0
     RDKit          3D

 37 38  0  0  0  0  0  0  0  0999 V2000
   -5.7330   25.8200  -30.0830 C   0  0  0  0  0  0  0  0  0  0  0  0
   -5.7750   24.4740  -30.7330 C   0  0  0  0  0  0  0  0  0  0  0  0
   -6.9990   23.8470  -30.9860 C   0  0  0  0  0  0  0  0  0  0  0  0
   -7.0230   22.5910  -31.6100 C   0  0  0  0  0  0  0  0  0  0  0  0
   -8.3450   21.9170  -31.8700 C   0  0  0  0  0  0  0  0  0  0  0  0
   -5.8060   21.9850  -31.9880 C   0  0  0  0  0  0  0  0  0  0  0  0
   -5.7950   20.6890  -32.6300 C   0  0  0  0  0  0  0  0  0  0  0  0
   -5.7860   19.6520  -33.1440 N   0  0  0  0  0  0  0  0  0  0  0  0
   -4.6000   22.6670  -31.7440 C   0  0  0  0  0  0  0  0  0  0  0  0
   -3.0090   21.9990  -32.2640 S   0  0  0  0  0  0  0  0  0  0  0  0
   -2.8660   20.8190  -30.8740 C   0  0  0  0  0  0  0  0  0  0  0  0
   -2.5490   21.5400  -29.6000 C   0  0  0  0  0  0  0  0  0  0  0  0
   -2.2320   20.8750  -28.5770 O   0  0  0  0  0  0  0  0  0  0  0  0
   -2.6250   22.9730  -29.5450 N   0  0  0  0  0  0  0  0  0  0  0  0
   -2.8120   23.7300  -28.3310 C   0  0  0  0  0  0  0  0  0  0  0  0
   -4.0960   23.8950  -27.7770 C   0  0  0  0  0  0  0  0  0  0  0  0
   -4.2830   24.6740  -26.6330 C   0  0  0  0  0  0  0  0  0  0  0  0
   -3.1950   25.3090  -26.0340 C   0  0  0  0  0  0  0  0  0  0  0  0
   -1.9160   25.1680  -26.5780 C   0  0  0  0  0  0  0  0  0  0  0  0
   -1.7170   24.3880  -27.7240 C   0  0  0  0  0  0  0  0  0  0  0  0
   -0.3830   24.2630  -28.2550 C   0  0  0  0  0  0  0  0  0  0  0  0
    0.6880   24.1630  -28.6830 N   0  0  0  0  0  0  0  0  0  0  0  0
   -4.6200   23.8770  -31.1220 N   0  0  0  0  0  0  0  0  0  0  0  0
   -5.7368   25.6995  -28.9896 H   0  0  0  0  0  0  0  0  0  0  0  0
   -4.8180   26.3473  -30.3906 H   0  0  0  0  0  0  0  0  0  0  0  0
   -6.6134   26.4034  -30.3906 H   0  0  0  0  0  0  0  0  0  0  0  0
   -7.9402   24.3373  -30.6965 H   0  0  0  0  0  0  0  0  0  0  0  0
   -8.8262   21.6717  -30.9118 H   0  0  0  0  0  0  0  0  0  0  0  0
   -8.9950   22.5938  -32.4440 H   0  0  0  0  0  0  0  0  0  0  0  0
   -8.1791   20.9935  -32.4440 H   0  0  0  0  0  0  0  0  0  0  0  0
   -3.8183   20.2809  -30.7574 H   0  0  0  0  0  0  0  0  0  0  0  0
   -2.0528   20.1112  -31.0923 H   0  0  0  0  0  0  0  0  0  0  0  0
   -2.5820   23.4900  -30.4530 H   0  0  0  0  0  0  0  0  0  0  0  0
   -4.9602   23.4056  -28.2499 H   0  0  0  0  0  0  0  0  0  0  0  0
   -5.2895   24.7869  -26.2038 H   0  0  0  0  0  0  0  0  0  0  0  0
   -3.3442   25.9213  -25.1325 H   0  0  0  0  0  0  0  0  0  0  0  0
   -1.0610   25.6721  -26.1039 H   0  0  0  0  0  0  0  0  0  0  0  0
  1  2  1  0
  2  3  2  0
  3  4  1  0
  4  5  1  0
  4  6  2  0
  6  7  1  0
  7  8  3  0
  6  9  1  0
  9 10  1  0
 10 11  1  0
 11 12  1  0
 12 13  2  0
 12 14  1  0
 14 15  1  0
 15 16  2  0
 16 17  1  0
 17 18  2  0
 18 19  1  0
 19 20  2  0
 20 21  1  0
 21 22  3  0
  9 23  2  0
 23  2  1  0
 20 15  1  0
  1 24  1  0
  1 25  1  0
  1 26  1  0
  3 27  1  0
  5 28  1  0
  5 29  1  0
  5 30  1  0
 11 31  1  0
 11 32  1  0
 14 33  1  0
 16 34  1  0
 17 35  1  0
 18 36  1  0
 19 37  1  0
M  END
>  <UniqueID>  (3) 
3

>  <SMILES>  (3) 
Cc1cc(C)c(C#N)c(SCC(=O)Nc2ccccc2C#N)n1

>  <Energy>  (3) 
33.27462048844071

>  <Genealogy>  (3) 
Cc1cc(C)c(C#N)c(SCC(=O)Nc2ccccc2C#N)n1 (3D coordinates assigned)
Cc1cc(C)c(C#N)c(SCC(=O)Nc2ccccc2C#N)n1 (optimized conformer: 33.27462048844071 kcal/mol)

>  <smiles>  (3) 
Cc1cc(C)c(C#N)c(SCC(=O)Nc2ccccc2C#N)n1

>  <score_type>  (3) 
oracle

>  <origin>  (3) 
adgpu

>  <m_score__min__energy>  (3) 
-8.8900000000000006

>  <m_primary>  (3) 
energy

$$$$
3:0
     RDKit          3D

 61 61  0  0  0  0  0  0  0  0999 V2000
   -3.0990   25.6610  -30.3680 H   0  0  0  0  0  0  0  0  0  0  0  0
   -3.8860   25.3190  -30.8660 O   0  0  0  0  0  0  0  0  0  0  0  0
   -4.2190   24.0920  -30.2740 C   0  0  0  0  0  0  0  0  0  0  0  0
   -4.9310   23.5603  -30.9224 H   0  0  0  0  0  0  0  0  0  0  0  0
   -4.6689   24.2865  -29.2893 H   0  0  0  0  0  0  0  0  0  0  0  0
   -2.9870   23.2350  -30.0830 C   0  0  0  0  0  0  0  0  0  0  0  0
   -2.6160   22.3170  -30.9940 C   0  0  0  0  0  0  0  0  0  0  0  0
   -1.7241   21.7069  -30.7885 H   0  0  0  0  0  0  0  0  0  0  0  0
   -3.3620   22.0840  -32.2810 C   0  0  0  0  0  0  0  0  0  0  0  0
   -3.1516   22.9127  -32.9731 H   0  0  0  0  0  0  0  0  0  0  0  0
   -4.4375   22.0310  -32.0563 H   0  0  0  0  0  0  0  0  0  0  0  0
   -2.9360   20.7640  -32.9360 C   0  0  0  0  0  0  0  0  0  0  0  0
   -2.4731   20.1190  -32.1746 H   0  0  0  0  0  0  0  0  0  0  0  0
   -2.2210   20.9903  -33.7407 H   0  0  0  0  0  0  0  0  0  0  0  0
   -4.1140   20.0470  -33.5350 C   0  0  0  0  0  0  0  0  0  0  0  0
   -3.9493   19.3490  -34.3690 H   0  0  0  0  0  0  0  0  0  0  0  0
   -5.3610   20.2370  -33.0780 C   0  0  0  0  0  0  0  0  0  0  0  0
   -5.5276   20.9438  -32.2518 H   0  0  0  0  0  0  0  0  0  0  0  0
   -6.5360   19.5080  -33.6670 C   0  0  0  0  0  0  0  0  0  0  0  0
   -6.1704   18.7568  -34.3825 H   0  0  0  0  0  0  0  0  0  0  0  0
   -7.1836   20.2404  -34.1712 H   0  0  0  0  0  0  0  0  0  0  0  0
   -7.3410   18.8160  -32.5950 C   0  0  0  0  0  0  0  0  0  0  0  0
   -7.0644   17.7840  -32.3333 H   0  0  0  0  0  0  0  0  0  0  0  0
   -8.3750   19.3740  -31.9360 C   0  0  0  0  0  0  0  0  0  0  0  0
   -8.8506   18.7858  -31.1374 H   0  0  0  0  0  0  0  0  0  0  0  0
   -8.9260   20.7510  -32.2180 C   0  0  0  0  0  0  0  0  0  0  0  0
   -9.8905   20.6464  -32.7365 H   0  0  0  0  0  0  0  0  0  0  0  0
   -8.1917   21.2861  -32.8380 H   0  0  0  0  0  0  0  0  0  0  0  0
   -9.1420   21.5710  -30.9310 C   0  0  0  0  0  0  0  0  0  0  0  0
   -9.4963   20.8914  -30.1420 H   0  0  0  0  0  0  0  0  0  0  0  0
   -9.8745   22.3561  -31.1701 H   0  0  0  0  0  0  0  0  0  0  0  0
   -7.8730   22.2800  -30.4270 C   0  0  0  0  0  0  0  0  0  0  0  0
   -7.0168   21.6017  -30.5569 H   0  0  0  0  0  0  0  0  0  0  0  0
   -8.0355   22.5359  -29.3696 H   0  0  0  0  0  0  0  0  0  0  0  0
   -7.5810   23.5870  -31.1780 C   0  0  0  0  0  0  0  0  0  0  0  0
   -7.1441   24.3140  -30.4776 H   0  0  0  0  0  0  0  0  0  0  0  0
   -8.5248   23.9699  -31.5935 H   0  0  0  0  0  0  0  0  0  0  0  0
   -6.6040   23.3530  -32.3280 C   0  0  0  0  0  0  0  0  0  0  0  0
   -5.6099   23.1149  -31.9218 H   0  0  0  0  0  0  0  0  0  0  0  0
   -6.9584   22.5143  -32.9453 H   0  0  0  0  0  0  0  0  0  0  0  0
   -6.5400   24.2612  -32.9453 H   0  0  0  0  0  0  0  0  0  0  0  0
   -2.2010   23.3450  -28.8280 C   0  0  0  0  0  0  0  0  0  0  0  0
   -1.6320   24.5840  -28.4880 C   0  0  0  0  0  0  0  0  0  0  0  0
   -1.8120   25.6720  -29.3390 O   0  0  0  0  0  0  0  0  0  0  0  0
   -0.8980   24.7340  -27.2960 C   0  0  0  0  0  0  0  0  0  0  0  0
   -0.2880   26.0760  -26.9610 C   0  0  0  0  0  0  0  0  0  0  0  0
   -0.2351   26.1923  -25.8684 H   0  0  0  0  0  0  0  0  0  0  0  0
    0.7251   26.1345  -27.3854 H   0  0  0  0  0  0  0  0  0  0  0  0
   -0.9101   26.8778  -27.3854 H   0  0  0  0  0  0  0  0  0  0  0  0
   -0.7960   23.6450  -26.3980 C   0  0  0  0  0  0  0  0  0  0  0  0
   -0.0630   23.7930  -25.0840 C   0  0  0  0  0  0  0  0  0  0  0  0
   -0.7688   23.6505  -24.2524 H   0  0  0  0  0  0  0  0  0  0  0  0
    0.7343   23.0377  -25.0218 H   0  0  0  0  0  0  0  0  0  0  0  0
    0.3788   24.7985  -25.0218 H   0  0  0  0  0  0  0  0  0  0  0  0
   -1.3430   22.3960  -26.7550 C   0  0  0  0  0  0  0  0  0  0  0  0
   -1.2080   21.3110  -25.8920 O   0  0  0  0  0  0  0  0  0  0  0  0
   -2.0250   22.2310  -27.9760 C   0  0  0  0  0  0  0  0  0  0  0  0
   -2.6070   20.8830  -28.3340 C   0  0  0  0  0  0  0  0  0  0  0  0
   -2.8456   20.3304  -27.4133 H   0  0  0  0  0  0  0  0  0  0  0  0
   -3.5241   21.0247  -28.9246 H   0  0  0  0  0  0  0  0  0  0  0  0
   -1.8749   20.3127  -28.9246 H   0  0  0  0  0  0  0  0  0  0  0  0
  1  2  1  0
  2  3  1  0
  3  4  1  0
  3  5  1  0
  3  6  1  0
  6  7  2  0
  7  8  1  0
  7  9  1  0
  9 10  1  0
  9 11  1  0
  9 12  1  0
 12 13  1  0
 12 14  1  0
 12 15  1  0
 15 16  1  0
 15 17  2  0
 17 18  1  0
 17 19  1  0
 19 20  1  0
 19 21  1  0
 19 22  1  0
 22 23  1  0
 22 24  2  3
 24 25  1  0
 24 26  1  0
 26 27  1  0
 26 28  1  0
 26 29  1  0
 29 30  1  0
 29 31  1  0
 29 32  1  0
 32 33  1  0
 32 34  1  0
 32 35  1  0
 35 36  1  0
 35 37  1  0
 35 38  1  0
 38 39  1  0
 38 40  1  0
 38 41  1  0
  6 42  1  0
 42 43  2  0
 43 44  1  0
 43 45  1  0
 45 46  1  0
 46 47  1  0
 46 48  1  0
 46 49  1  0
 45 50  2  0
 50 51  1  0
 51 52  1  0
 51 53  1  0
 51 54  1  0
 50 55  1  0
 55 56  1  0
 55 57  2  0
 57 58  1  0
 58 59  1  0
 58 60  1  0
 58 61  1  0
 57 42  1  0
M  CHG  2  44  -1  56  -1
M  END
>  <UniqueID>  (4) 
4

>  <SMILES>  (4) 
CCCCCC=CC/C=C/CC/C=C(\CO)c1c(C)c([O-])c(C)c(C)c1[O-]

>  <Energy>  (4) 
53.45195748487623

>  <Genealogy>  (4) 
CCCCCC=CCC=CCCC=C(CO)c1c(C)c([O-])c(C)c(C)c1[O-] (protonated)
CCCCCC=CC/C=C/CC/C=C(\CO)c1c(C)c([O-])c(C)c(C)c1[O-] (cis-trans isomerization)
CCCCCC=CC/C=C/CC/C=C(\CO)c1c(C)c([O-])c(C)c(C)c1[O-] (3D coordinates assigned)
CCCCCC=CC/C=C/CC/C=C(\CO)c1c(C)c([O-])c(C)c(C)c1[O-] (optimized conformer: 53.45195748487623 kcal/mol)

>  <smiles>  (4) 
CCCCCC=CCC=CCCC=C(CO)c1c(C)c(O)c(C)c(C)c1O

>  <score_type>  (4) 
oracle

>  <origin>  (4) 
adgpu

>  <m_score__min__energy>  (4) 
-12.550000000000001

>  <m_primary>  (4) 
energy

$$$$
4:0
     RDKit          3D

 54 57  0  0  0  0  0  0  0  0999 V2000
    1.4610   19.3570  -27.8070 C   0  0  0  0  0  0  0  0  0  0  0  0
    0.2190   20.1400  -27.6760 N   0  0  0  0  0  0  0  0  0  0  0  0
   -0.9550   19.2650  -27.8560 C   0  0  0  0  0  0  0  0  0  0  0  0
   -2.2320   20.0320  -27.4920 C   0  0  0  0  0  0  0  0  0  0  0  0
   -2.2710   21.3970  -28.1340 C   0  0  0  0  0  0  0  0  0  0  0  0
   -3.4770   22.1160  -28.1500 C   0  0  0  0  0  0  0  0  0  0  0  0
   -3.5230   23.4110  -28.6830 C   0  0  0  0  0  0  0  0  0  0  0  0
   -4.7610   24.1200  -28.7150 N   0  0  0  0  0  0  0  0  0  0  0  0
   -5.6280   24.3360  -30.1980 S   0  0  0  0  0  0  0  0  0  0  0  0
   -7.0750   24.5850  -29.8680 O   0  0  0  0  0  0  0  0  0  0  0  0
   -5.1100   25.5430  -30.9320 O   0  0  0  0  0  0  0  0  0  0  0  0
   -5.5000   22.8770  -31.1970 C   0  0  0  0  0  0  0  0  0  0  0  0
   -6.5980   21.9990  -31.2430 C   0  0  0  0  0  0  0  0  0  0  0  0
   -6.5650   20.8440  -32.0360 C   0  0  0  0  0  0  0  0  0  0  0  0
   -7.9650   19.7610  -32.0910 S   0  0  0  0  0  0  0  0  0  0  0  0
   -8.8160   20.0000  -30.8730 O   0  0  0  0  0  0  0  0  0  0  0  0
   -8.7900   20.0880  -33.3060 O   0  0  0  0  0  0  0  0  0  0  0  0
   -7.5150   18.0720  -32.1480 N   0  0  0  0  0  0  0  0  0  0  0  0
   -6.4350   17.7590  -31.2170 C   0  0  0  0  0  0  0  0  0  0  0  0
   -5.7420   16.5220  -31.7650 C   0  0  0  0  0  0  0  0  0  0  0  0
   -6.1190   16.4690  -33.2420 C   0  0  0  0  0  0  0  0  0  0  0  0
   -7.0180   17.6780  -33.4670 C   0  0  0  0  0  0  0  0  0  0  0  0
   -5.4110   20.5430  -32.7680 C   0  0  0  0  0  0  0  0  0  0  0  0
   -4.3050   21.3950  -32.7170 C   0  0  0  0  0  0  0  0  0  0  0  0
   -4.3310   22.5580  -31.9380 C   0  0  0  0  0  0  0  0  0  0  0  0
   -3.1830   23.3540  -31.9270 O   0  0  0  0  0  0  0  0  0  0  0  0
   -2.3550   24.0040  -29.1860 C   0  0  0  0  0  0  0  0  0  0  0  0
   -2.3930   25.2920  -29.7140 O   0  0  0  0  0  0  0  0  0  0  0  0
   -1.1480   23.2970  -29.1680 C   0  0  0  0  0  0  0  0  0  0  0  0
   -1.0930   21.9990  -28.6290 C   0  0  0  0  0  0  0  0  0  0  0  0
    0.2040   21.2250  -28.6800 C   0  0  0  0  0  0  0  0  0  0  0  0
    1.8479   19.1131  -26.8066 H   0  0  0  0  0  0  0  0  0  0  0  0
    1.2520   18.4270  -28.3561 H   0  0  0  0  0  0  0  0  0  0  0  0
    2.2099   19.9466  -28.3561 H   0  0  0  0  0  0  0  0  0  0  0  0
   -1.0107   18.9391  -28.9051 H   0  0  0  0  0  0  0  0  0  0  0  0
   -0.8585   18.3866  -27.2010 H   0  0  0  0  0  0  0  0  0  0  0  0
   -3.1035   19.4537  -27.8328 H   0  0  0  0  0  0  0  0  0  0  0  0
   -2.2485   20.1681  -26.4006 H   0  0  0  0  0  0  0  0  0  0  0  0
   -4.3910   21.6599  -27.7417 H   0  0  0  0  0  0  0  0  0  0  0  0
   -7.4957   22.2223  -30.6478 H   0  0  0  0  0  0  0  0  0  0  0  0
   -5.7264   18.5984  -31.1601 H   0  0  0  0  0  0  0  0  0  0  0  0
   -6.8213   17.5834  -30.2021 H   0  0  0  0  0  0  0  0  0  0  0  0
   -4.6516   16.6082  -31.6488 H   0  0  0  0  0  0  0  0  0  0  0  0
   -6.0485   15.6104  -31.2311 H   0  0  0  0  0  0  0  0  0  0  0  0
   -5.2199   16.5339  -33.8724 H   0  0  0  0  0  0  0  0  0  0  0  0
   -6.6225   15.5270  -33.5048 H   0  0  0  0  0  0  0  0  0  0  0  0
   -6.4441   18.5004  -33.9190 H   0  0  0  0  0  0  0  0  0  0  0  0
   -7.8457   17.4388  -34.1508 H   0  0  0  0  0  0  0  0  0  0  0  0
   -5.3746   19.6332  -33.3852 H   0  0  0  0  0  0  0  0  0  0  0  0
   -3.4026   21.1491  -33.2960 H   0  0  0  0  0  0  0  0  0  0  0  0
   -3.1570   24.2970  -31.5660 H   0  0  0  0  0  0  0  0  0  0  0  0
   -0.2373   23.7585  -29.5774 H   0  0  0  0  0  0  0  0  0  0  0  0
    0.3217   20.7878  -29.6825 H   0  0  0  0  0  0  0  0  0  0  0  0
    1.0308   21.9159  -28.4586 H   0  0  0  0  0  0  0  0  0  0  0  0
  1  2  1  0
  2  3  1  0
  3  4  1  0
  4  5  1  0
  5  6  2  0
  6  7  1  0
  7  8  1  0
  8  9  1  0
  9 10  2  0
  9 11  2  0
  9 12  1  0
 12 13  2  0
 13 14  1  0
 14 15  1  0
 15 16  2  0
 15 17  2  0
 15 18  1  0
 18 19  1  0
 19 20  1  0
 20 21  1  0
 21 22  1  0
 14 23  2  0
 23 24  1  0
 24 25  2  0
 25 26  1  0
  7 27  2  0
 27 28  1  0
 27 29  1  0
 29 30  2  0
 30 31  1  0
 31  2  1  0
 30  5  1  0
 25 12  1  0
 22 18  1  0
  1 32  1  0
  1 33  1  0
  1 34  1  0
  3 35  1  0
  3 36  1  0
  4 37  1  0
  4 38  1  0
  6 39  1  0
 13 40  1  0
 19 41  1  0
 19 42  1  0
 20 43  1  0
 20 44  1  0
 21 45  1  0
 21 46  1  0
 22 47  1  0
 22 48  1  0
 23 49  1  0
 24 50  1  0
 26 51  1  0
 29 52  1  0
 31 53  1  0
 31 54  1  0
M  CHG  2   8  -1  28  -1
M  END
>  <UniqueID>  (5) 
5

>  <SMILES>  (5) 
CN1CCc2cc([N-]S(=O)(=O)c3cc(S(=O)(=O)N4CCCC4)ccc3O)c([O-])cc2C1

>  <Energy>  (5) 
71.01632480893001

>  <Genealogy>  (5) 
CN1CCc2cc([N-]S(=O)(=O)c3cc(S(=O)(=O)N4CCCC4)ccc3O)c([O-])cc2C1 (protonated)
CN1CCc2cc([N-]S(=O)(=O)c3cc(S(=O)(=O)N4CCCC4)ccc3O)c([O-])cc2C1 (3D coordinates assigned)
CN1CCc2cc([N-]S(=O)(=O)c3cc(S(=O)(=O)N4CCCC4)ccc3O)c([O-])cc2C1 (nonaromatic ring conformer: 71.01632480893001 kcal/mol)

>  <smiles>  (5) 
CN1CCc2cc(NS(=O)(=O)c3cc(S(=O)(=O)N4CCCC4)ccc3O)c(O)cc2C1

>  <score_type>  (5) 
oracle

>  <origin>  (5) 
adgpu

>  <m_score__min__energy>  (5) 
-13.369999999999999

>  <m_primary>  (5) 
energy

$$$$
5:0
     RDKit          3D

 54 57  0  0  0  0  0  0  0  0999 V2000
   -5.4430   24.7800  -29.6140 O   0  0  0  0  0  0  0  0  0  0  0  0
   -4.4630   24.4180  -30.3210 C   0  0  0  0  0  0  0  0  0  0  0  0
   -3.1450   24.8960  -30.0300 N   0  0  0  0  0  0  0  0  0  0  0  0
   -2.4140   24.6310  -28.8250 C   0  0  0  0  0  0  0  0  0  0  0  0
   -2.5790   23.3890  -28.2040 C   0  0  0  0  0  0  0  0  0  0  0  0
   -1.8810   23.0830  -27.0360 C   0  0  0  0  0  0  0  0  0  0  0  0
   -1.0000   24.0140  -26.4850 C   0  0  0  0  0  0  0  0  0  0  0  0
   -0.7980   25.2550  -27.1040 C   0  0  0  0  0  0  0  0  0  0  0  0
    0.3680   26.3800  -26.3950 S   0  0  0  0  0  0  0  0  0  0  0  0
    0.3790   27.6780  -27.1560 O   0  0  0  0  0  0  0  0  0  0  0  0
   -0.0460   26.6680  -24.9780 O   0  0  0  0  0  0  0  0  0  0  0  0
    1.9630   25.6680  -26.3990 N   0  0  0  0  0  0  0  0  0  0  0  0
    2.0740   24.6810  -27.4890 C   0  0  0  0  0  0  0  0  0  0  0  0
    3.5510   24.3990  -27.8120 C   0  0  0  0  0  0  0  0  0  0  0  0
    4.2930   25.5450  -28.2140 O   0  0  0  0  0  0  0  0  0  0  0  0
    3.7000   26.7760  -27.8300 C   0  0  0  0  0  0  0  0  0  0  0  0
    3.0140   26.7100  -26.4540 C   0  0  0  0  0  0  0  0  0  0  0  0
   -1.4910   25.5570  -28.2950 C   0  0  0  0  0  0  0  0  0  0  0  0
   -1.2330   26.7460  -28.9690 O   0  0  0  0  0  0  0  0  0  0  0  0
   -4.6530   23.5040  -31.4060 N   0  0  0  0  0  0  0  0  0  0  0  0
   -5.9230   22.9060  -31.7060 C   0  0  0  0  0  0  0  0  0  0  0  0
   -7.0940   23.6000  -31.3710 C   0  0  0  0  0  0  0  0  0  0  0  0
   -8.3470   23.0510  -31.6520 C   0  0  0  0  0  0  0  0  0  0  0  0
   -8.4410   21.8090  -32.2830 C   0  0  0  0  0  0  0  0  0  0  0  0
   -7.2810   21.1200  -32.6470 C   0  0  0  0  0  0  0  0  0  0  0  0
   -6.0190   21.6650  -32.3730 C   0  0  0  0  0  0  0  0  0  0  0  0
   -4.5600   20.7830  -32.9500 S   0  0  0  0  0  0  0  0  0  0  0  0
   -5.4060   19.2030  -32.9910 C   0  0  0  0  0  0  0  0  0  0  0  0
   -5.6830   18.5870  -34.2170 C   0  0  0  0  0  0  0  0  0  0  0  0
   -6.3470   17.3570  -34.2490 C   0  0  0  0  0  0  0  0  0  0  0  0
   -6.7300   16.7370  -33.0550 C   0  0  0  0  0  0  0  0  0  0  0  0
   -6.4480   17.3470  -31.8290 C   0  0  0  0  0  0  0  0  0  0  0  0
   -5.7840   18.5780  -31.7950 C   0  0  0  0  0  0  0  0  0  0  0  0
   -3.2646   22.6476  -28.6401 H   0  0  0  0  0  0  0  0  0  0  0  0
   -2.0251   22.1073  -26.5490 H   0  0  0  0  0  0  0  0  0  0  0  0
   -0.4599   23.7721  -25.5578 H   0  0  0  0  0  0  0  0  0  0  0  0
    1.5857   23.7448  -27.1807 H   0  0  0  0  0  0  0  0  0  0  0  0
    1.5845   25.0861  -28.3870 H   0  0  0  0  0  0  0  0  0  0  0  0
    4.0260   23.9793  -26.9129 H   0  0  0  0  0  0  0  0  0  0  0  0
    3.5593   23.7041  -28.6647 H   0  0  0  0  0  0  0  0  0  0  0  0
    4.4841   27.5466  -27.7941 H   0  0  0  0  0  0  0  0  0  0  0  0
    2.9245   27.0134  -28.5731 H   0  0  0  0  0  0  0  0  0  0  0  0
    3.7737   26.4868  -25.6904 H   0  0  0  0  0  0  0  0  0  0  0  0
    2.5335   27.6824  -26.2707 H   0  0  0  0  0  0  0  0  0  0  0  0
   -3.8840   23.4070  -32.1070 H   0  0  0  0  0  0  0  0  0  0  0  0
   -7.0255   24.5837  -30.8835 H   0  0  0  0  0  0  0  0  0  0  0  0
   -9.2608   23.5976  -31.3759 H   0  0  0  0  0  0  0  0  0  0  0  0
   -9.4286   21.3727  -32.4937 H   0  0  0  0  0  0  0  0  0  0  0  0
   -7.3586   20.1453  -33.1509 H   0  0  0  0  0  0  0  0  0  0  0  0
   -5.3779   19.0712  -35.1564 H   0  0  0  0  0  0  0  0  0  0  0  0
   -6.5683   16.8766  -35.2135 H   0  0  0  0  0  0  0  0  0  0  0  0
   -7.2530   15.7696  -33.0807 H   0  0  0  0  0  0  0  0  0  0  0  0
   -6.7485   16.8586  -30.8903 H   0  0  0  0  0  0  0  0  0  0  0  0
   -5.5587   19.0551  -30.8298 H   0  0  0  0  0  0  0  0  0  0  0  0
  1  2  2  0
  2  3  1  0
  3  4  1  0
  4  5  2  0
  5  6  1  0
  6  7  2  0
  7  8  1  0
  8  9  1  0
  9 10  2  0
  9 11  2  0
  9 12  1  0
 12 13  1  0
 13 14  1  0
 14 15  1  0
 15 16  1  0
 16 17  1  0
  8 18  2  0
 18 19  1  0
  2 20  1  0
 20 21  1  0
 21 22  2  0
 22 23  1  0
 23 24  2  0
 24 25  1  0
 25 26  2  0
 26 27  1  0
 27 28  1  0
 28 29  2  0
 29 30  1  0
 30 31  2  0
 31 32  1  0
 32 33  2  0
 18  4  1  0
 26 21  1  0
 33 28  1  0
 17 12  1  0
  5 34  1  0
  6 35  1  0
  7 36  1  0
 13 37  1  0
 13 38  1  0
 14 39  1  0
 14 40  1  0
 16 41  1  0
 16 42  1  0
 17 43  1  0
 17 44  1  0
 20 45  1  0
 22 46  1  0
 23 47  1  0
 24 48  1  0
 25 49  1  0
 29 50  1  0
 30 51  1  0
 31 52  1  0
 32 53  1  0
 33 54  1  0
M  CHG  2   3  -1  19  -1
M  END
>  <UniqueID>  (6) 
6

>  <SMILES>  (6) 
O=C([N-]c1cccc(S(=O)(=O)N2CCOCC2)c1[O-])Nc1ccccc1Sc1ccccc1

>  <Energy>  (6) 
77.40487678531998

>  <Genealogy>  (6) 
O=C([N-]c1cccc(S(=O)(=O)N2CCOCC2)c1[O-])Nc1ccccc1Sc1ccccc1 (protonated)
O=C([N-]c1cccc(S(=O)(=O)N2CCOCC2)c1[O-])Nc1ccccc1Sc1ccccc1 (3D coordinates assigned)
O=C([N-]c1cccc(S(=O)(=O)N2CCOCC2)c1[O-])Nc1ccccc1Sc1ccccc1 (nonaromatic ring conformer: 77.40487678531998 kcal/mol)

>  <smiles>  (6) 
O=C(Nc1ccccc1Sc1ccccc1)Nc1cccc(S(=O)(=O)N2CCOCC2)c1O

>  <score_type>  (6) 
oracle

>  <origin>  (6) 
adgpu

>  <m_score__min__energy>  (6) 
-15.01

>  <m_primary>  (6) 
energy

$$$$
6:0
     RDKit          3D

 47 49  0  0  0  0  0  0  0  0999 V2000
   -3.7910   20.6050  -30.3730 C   0  0  0  0  0  0  0  0  0  0  0  0
   -3.2970   21.9800  -30.0020 C   0  0  0  0  0  0  0  0  0  0  0  0
   -2.2830   22.0870  -29.0390 C   0  0  0  0  0  0  0  0  0  0  0  0
   -1.7760   23.3310  -28.6740 C   0  0  0  0  0  0  0  0  0  0  0  0
   -2.2590   24.4940  -29.2720 C   0  0  0  0  0  0  0  0  0  0  0  0
   -1.6910   25.7510  -28.8780 N   0  0  0  0  0  0  0  0  0  0  0  0
   -0.4830   25.9110  -28.1270 C   0  0  0  0  0  0  0  0  0  0  0  0
    0.4200   25.0320  -28.1780 O   0  0  0  0  0  0  0  0  0  0  0  0
   -0.3170   27.0840  -27.3240 N   0  0  0  0  0  0  0  0  0  0  0  0
   -0.1530   27.1300  -25.8970 C   0  0  0  0  0  0  0  0  0  0  0  0
   -1.0230   26.4450  -25.0260 C   0  0  0  0  0  0  0  0  0  0  0  0
   -0.8460   26.5310  -23.6420 C   0  0  0  0  0  0  0  0  0  0  0  0
    0.1880   27.3080  -23.1140 C   0  0  0  0  0  0  0  0  0  0  0  0
    1.0410   28.0100  -23.9700 C   0  0  0  0  0  0  0  0  0  0  0  0
    0.8680   27.9270  -25.3560 C   0  0  0  0  0  0  0  0  0  0  0  0
    1.7200   28.6360  -26.1960 O   0  0  0  0  0  0  0  0  0  0  0  0
   -3.3220   24.4150  -30.1930 C   0  0  0  0  0  0  0  0  0  0  0  0
   -3.8620   25.5870  -30.7130 O   0  0  0  0  0  0  0  0  0  0  0  0
   -3.8540   23.1590  -30.5640 C   0  0  0  0  0  0  0  0  0  0  0  0
   -5.1740   23.0600  -31.7580 S   0  0  0  0  0  0  0  0  0  0  0  0
   -4.6680   22.5950  -33.0950 O   0  0  0  0  0  0  0  0  0  0  0  0
   -5.7720   24.4270  -31.9420 O   0  0  0  0  0  0  0  0  0  0  0  0
   -6.4020   21.9560  -31.1850 N   0  0  0  0  0  0  0  0  0  0  0  0
   -6.7260   20.9720  -32.2420 C   0  0  0  0  0  0  0  0  0  0  0  0
   -8.0720   20.2890  -31.9800 C   0  0  0  0  0  0  0  0  0  0  0  0
   -9.2210   21.3120  -31.9900 C   0  0  0  0  0  0  0  0  0  0  0  0
   -8.7590   22.7310  -31.6220 C   0  0  0  0  0  0  0  0  0  0  0  0
   -7.5730   22.6930  -30.6460 C   0  0  0  0  0  0  0  0  0  0  0  0
   -3.9975   20.0303  -29.4580 H   0  0  0  0  0  0  0  0  0  0  0  0
   -4.7133   20.6943  -30.9658 H   0  0  0  0  0  0  0  0  0  0  0  0
   -3.0228   20.0870  -30.9658 H   0  0  0  0  0  0  0  0  0  0  0  0
   -1.8837   21.1774  -28.5666 H   0  0  0  0  0  0  0  0  0  0  0  0
   -0.9888   23.3968  -27.9085 H   0  0  0  0  0  0  0  0  0  0  0  0
   -1.8449   25.8401  -25.4366 H   0  0  0  0  0  0  0  0  0  0  0  0
   -1.5223   25.9857  -22.9673 H   0  0  0  0  0  0  0  0  0  0  0  0
    0.3307   27.3672  -22.0249 H   0  0  0  0  0  0  0  0  0  0  0  0
    1.8496   28.6287  -23.5535 H   0  0  0  0  0  0  0  0  0  0  0  0
   -6.7709   21.4903  -33.2112 H   0  0  0  0  0  0  0  0  0  0  0  0
   -5.9424   20.2000  -32.2466 H   0  0  0  0  0  0  0  0  0  0  0  0
   -8.2525   19.5377  -32.7630 H   0  0  0  0  0  0  0  0  0  0  0  0
   -8.0360   19.8124  -30.9893 H   0  0  0  0  0  0  0  0  0  0  0  0
   -9.6612   21.3361  -32.9978 H   0  0  0  0  0  0  0  0  0  0  0  0
   -9.9528   20.9952  -31.2322 H   0  0  0  0  0  0  0  0  0  0  0  0
   -8.4533   23.2578  -32.5380 H   0  0  0  0  0  0  0  0  0  0  0  0
   -9.5948   23.2543  -31.1346 H   0  0  0  0  0  0  0  0  0  0  0  0
   -7.2663   23.7263  -30.4266 H   0  0  0  0  0  0  0  0  0  0  0  0
   -7.9076   22.1634  -29.7418 H   0  0  0  0  0  0  0  0  0  0  0  0
  1  2  1  0
  2  3  2  0
  3  4  1  0
  4  5  2  0
  5  6  1  0
  6  7  1  0
  7  8  2  0
  7  9  1  0
  9 10  1  0
 10 11  2  0
 11 12  1  0
 12 13  2  0
 13 14  1  0
 14 15  2  0
 15 16  1  0
  5 17  1  0
 17 18  1  0
 17 19  2  0
 19 20  1  0
 20 21  2  0
 20 22  2  0
 20 23  1  0
 23 24  1  0
 24 25  1  0
 25 26  1  0
 26 27  1  0
 27 28  1  0
 19  2  1  0
 28 23  1  0
 15 10  1  0
  1 29  1  0
  1 30  1  0
  1 31  1  0
  3 32  1  0
  4 33  1  0
 11 34  1  0
 12 35  1  0
 13 36  1  0
 14 37  1  0
 24 38  1  0
 24 39  1  0
 25 40  1  0
 25 41  1  0
 26 42  1  0
 26 43  1  0
 27 44  1  0
 27 45  1  0
 28 46  1  0
 28 47  1  0
M  CHG  4   6  -1   9  -1  16  -1  18  -1
M  END
>  <UniqueID>  (7) 
7

>  <SMILES>  (7) 
Cc1ccc([N-]C(=O)[N-]c2ccccc2[O-])c([O-])c1S(=O)(=O)N1CCCCC1

>  <Energy>  (7) 
66.013080390284

>  <Genealogy>  (7) 
Cc1ccc([N-]C(=O)[N-]c2ccccc2[O-])c([O-])c1S(=O)(=O)N1CCCCC1 (protonated)
Cc1ccc([N-]C(=O)[N-]c2ccccc2[O-])c([O-])c1S(=O)(=O)N1CCCCC1 (3D coordinates assigned)
Cc1ccc([N-]C(=O)[N-]c2ccccc2[O-])c([O-])c1S(=O)(=O)N1CCCCC1 (nonaromatic ring conformer: 66.013080390284 kcal/mol)

>  <smiles>  (7) 
Cc1ccc(NC(=O)Nc2ccccc2O)c(O)c1S(=O)(=O)N1CCCCC1

>  <score_type>  (7) 
oracle

>  <origin>  (7) 
adgpu

>  <m_score__min__energy>  (7) 
-15.470000000000001

>  <m_primary>  (7) 
energy

$$$$
7:0
     RDKit          3D

 60 63  0  0  0  0  0  0  0  0999 V2000
   -6.0990   26.0680  -29.7700 C   0  0  0  0  0  0  0  0  0  0  0  0
   -6.0100   24.6400  -30.2360 C   0  0  0  0  0  0  0  0  0  0  0  0
   -7.1710   23.8610  -30.3350 C   0  0  0  0  0  0  0  0  0  0  0  0
   -7.0980   22.5370  -30.7670 C   0  0  0  0  0  0  0  0  0  0  0  0
   -5.8680   21.9670  -31.1200 C   0  0  0  0  0  0  0  0  0  0  0  0
   -5.8300   20.2970  -31.7220 S   0  0  0  0  0  0  0  0  0  0  0  0
   -7.1880   19.6660  -31.5590 O   0  0  0  0  0  0  0  0  0  0  0  0
   -4.8620   19.5020  -30.8890 O   0  0  0  0  0  0  0  0  0  0  0  0
   -5.3420   20.1970  -33.4000 N   0  0  0  0  0  0  0  0  0  0  0  0
   -3.8780   20.0780  -33.5830 C   0  0  0  0  0  0  0  0  0  0  0  0
   -3.3500   18.6270  -33.5230 C   0  0  0  0  0  0  0  0  0  0  0  0
   -4.3460   17.5830  -34.0500 C   0  0  0  0  0  0  0  0  0  0  0  0
   -5.3770   18.2170  -34.9700 C   0  0  0  0  0  0  0  0  0  0  0  0
   -6.1820   19.2690  -34.1960 C   0  0  0  0  0  0  0  0  0  0  0  0
   -4.6920   22.7420  -31.0310 C   0  0  0  0  0  0  0  0  0  0  0  0
   -3.4670   22.1860  -31.4110 O   0  0  0  0  0  0  0  0  0  0  0  0
   -4.7640   24.0740  -30.5670 C   0  0  0  0  0  0  0  0  0  0  0  0
   -3.5780   24.8670  -30.4340 N   0  0  0  0  0  0  0  0  0  0  0  0
   -2.5110   24.5120  -29.5510 C   0  0  0  0  0  0  0  0  0  0  0  0
   -2.3380   23.3070  -29.2180 O   0  0  0  0  0  0  0  0  0  0  0  0
   -1.6450   25.5350  -29.0560 N   0  0  0  0  0  0  0  0  0  0  0  0
   -1.3850   25.8170  -27.6730 C   0  0  0  0  0  0  0  0  0  0  0  0
   -2.2570   25.3080  -26.7040 C   0  0  0  0  0  0  0  0  0  0  0  0
   -2.0270   25.5500  -25.3480 C   0  0  0  0  0  0  0  0  0  0  0  0
   -0.9100   26.2900  -24.9390 C   0  0  0  0  0  0  0  0  0  0  0  0
    0.0020   26.7620  -25.9060 C   0  0  0  0  0  0  0  0  0  0  0  0
   -0.2470   26.5350  -27.2680 C   0  0  0  0  0  0  0  0  0  0  0  0
    1.2060   27.5760  -25.4970 C   0  0  0  0  0  0  0  0  0  0  0  0
    1.5820   27.3190  -24.0910 N   0  0  0  0  0  0  0  0  0  0  0  0
    2.6890   28.2020  -23.7080 C   0  0  0  0  0  0  0  0  0  0  0  0
    0.4230   27.5440  -23.2090 C   0  0  0  0  0  0  0  0  0  0  0  0
   -0.6440   26.4760  -23.4700 C   0  0  0  0  0  0  0  0  0  0  0  0
   -6.1007   26.0954  -28.6703 H   0  0  0  0  0  0  0  0  0  0  0  0
   -5.2343   26.6321  -30.1495 H   0  0  0  0  0  0  0  0  0  0  0  0
   -7.0271   26.5204  -30.1495 H   0  0  0  0  0  0  0  0  0  0  0  0
   -8.1458   24.2966  -30.0703 H   0  0  0  0  0  0  0  0  0  0  0  0
   -8.0158   21.9340  -30.8312 H   0  0  0  0  0  0  0  0  0  0  0  0
   -3.6173   20.5000  -34.5648 H   0  0  0  0  0  0  0  0  0  0  0  0
   -3.4092   20.6206  -32.7489 H   0  0  0  0  0  0  0  0  0  0  0  0
   -2.4323   18.5666  -34.1265 H   0  0  0  0  0  0  0  0  0  0  0  0
   -3.1725   18.3941  -32.4627 H   0  0  0  0  0  0  0  0  0  0  0  0
   -3.7947   16.8115  -34.6076 H   0  0  0  0  0  0  0  0  0  0  0  0
   -4.8726   17.1414  -33.1911 H   0  0  0  0  0  0  0  0  0  0  0  0
   -4.8652   18.6980  -35.8166 H   0  0  0  0  0  0  0  0  0  0  0  0
   -6.0587   17.4392  -35.3446 H   0  0  0  0  0  0  0  0  0  0  0  0
   -6.7645   19.8605  -34.9177 H   0  0  0  0  0  0  0  0  0  0  0  0
   -6.8215   18.7250  -33.4853 H   0  0  0  0  0  0  0  0  0  0  0  0
   -2.5790   22.6130  -31.1820 H   0  0  0  0  0  0  0  0  0  0  0  0
   -3.1294   24.7133  -27.0125 H   0  0  0  0  0  0  0  0  0  0  0  0
   -2.7274   25.1571  -24.5963 H   0  0  0  0  0  0  0  0  0  0  0  0
    0.4529   26.9215  -28.0234 H   0  0  0  0  0  0  0  0  0  0  0  0
    2.0531   27.3125  -26.1473 H   0  0  0  0  0  0  0  0  0  0  0  0
    0.9520   28.6416  -25.5968 H   0  0  0  0  0  0  0  0  0  0  0  0
    2.7540   28.2539  -22.6111 H   0  0  0  0  0  0  0  0  0  0  0  0
    3.6316   27.8050  -24.1128 H   0  0  0  0  0  0  0  0  0  0  0  0
    2.5115   29.2093  -24.1128 H   0  0  0  0  0  0  0  0  0  0  0  0
    0.7468   27.4876  -22.1592 H   0  0  0  0  0  0  0  0  0  0  0  0
   -0.0011   28.5381  -23.4136 H   0  0  0  0  0  0  0  0  0  0  0  0
   -0.3001   25.5202  -23.0479 H   0  0  0  0  0  0  0  0  0  0  0  0
   -1.5792   26.8080  -22.9954 H   0  0  0  0  0  0  0  0  0  0  0  0
  1  2  1  0
  2  3  2  0
  3  4  1  0
  4  5  2  0
  5  6  1  0
  6  7  2  0
  6  8  2  0
  6  9  1  0
  9 10  1  0
 10 11  1  0
 11 12  1  0
 12 13  1  0
 13 14  1  0
  5 15  1  0
 15 16  1  0
 15 17  2  0
 17 18  1  0
 18 19  1  0
 19 20  2  0
 19 21  1  0
 21 22  1  0
 22 23  2  0
 23 24  1  0
 24 25  2  0
 25 26  1  0
 26 27  2  0
 26 28  1  0
 28 29  1  0
 29 30  1  0
 29 31  1  0
 31 32  1  0
 17  2  1  0
 27 22  1  0
 14  9  1  0
 32 25  1  0
  1 33  1  0
  1 34  1  0
  1 35  1  0
  3 36  1  0
  4 37  1  0
 10 38  1  0
 10 39  1  0
 11 40  1  0
 11 41  1  0
 12 42  1  0
 12 43  1  0
 13 44  1  0
 13 45  1  0
 14 46  1  0
 14 47  1  0
 16 48  1  0
 23 49  1  0
 24 50  1  0
 27 51  1  0
 28 52  1  0
 28 53  1  0
 30 54  1  0
 30 55  1  0
 30 56  1  0
 31 57  1  0
 31 58  1  0
 32 59  1  0
 32 60  1  0
M  CHG  2  18  -1  21  -1
M  END
>  <UniqueID>  (8) 
8

>  <SMILES>  (8) 
Cc1ccc(S(=O)(=O)N2CCCCC2)c(O)c1[N-]C(=O)[N-]c1ccc2c(c1)CN(C)CC2

>  <Energy>  (8) 
83.31664406526443

>  <Genealogy>  (8) 
Cc1ccc(S(=O)(=O)N2CCCCC2)c(O)c1[N-]C(=O)[N-]c1ccc2c(c1)CN(C)CC2 (protonated)
Cc1ccc(S(=O)(=O)N2CCCCC2)c(O)c1[N-]C(=O)[N-]c1ccc2c(c1)CN(C)CC2 (3D coordinates assigned)
Cc1ccc(S(=O)(=O)N2CCCCC2)c(O)c1[N-]C(=O)[N-]c1ccc2c(c1)CN(C)CC2 (nonaromatic ring conformer: 83.31664406526443 kcal/mol)

>  <smiles>  (8) 
Cc1ccc(S(=O)(=O)N2CCCCC2)c(O)c1NC(=O)Nc1ccc2c(c1)CN(C)CC2

>  <score_type>  (8) 
oracle

>  <origin>  (8) 
adgpu

>  <m_score__min__energy>  (8) 
-13.76

>  <m_primary>  (8) 
energy

$$$$
8:0
     RDKit          3D

 58 62  0  0  0  0  0  0  0  0999 V2000
   -2.1640   20.6820  -26.6770 O   0  0  0  0  0  0  0  0  0  0  0  0
   -1.5430   20.9680  -27.7360 C   0  0  0  0  0  0  0  0  0  0  0  0
   -1.4570   22.3830  -28.1570 C   0  0  0  0  0  0  0  0  0  0  0  0
   -0.3920   23.1910  -27.7330 C   0  0  0  0  0  0  0  0  0  0  0  0
   -0.3230   24.5290  -28.1260 C   0  0  0  0  0  0  0  0  0  0  0  0
   -1.3220   25.0780  -28.9360 C   0  0  0  0  0  0  0  0  0  0  0  0
   -1.2360   26.4110  -29.3200 O   0  0  0  0  0  0  0  0  0  0  0  0
   -2.4040   24.2900  -29.3550 C   0  0  0  0  0  0  0  0  0  0  0  0
   -3.4110   24.8850  -30.1850 N   0  0  0  0  0  0  0  0  0  0  0  0
   -4.9240   24.1520  -30.6130 S   0  0  0  0  0  0  0  0  0  0  0  0
   -5.7300   23.9260  -29.3640 O   0  0  0  0  0  0  0  0  0  0  0  0
   -5.6800   25.0450  -31.5570 O   0  0  0  0  0  0  0  0  0  0  0  0
   -4.6160   22.6130  -31.4090 C   0  0  0  0  0  0  0  0  0  0  0  0
   -3.3580   22.3570  -31.9700 C   0  0  0  0  0  0  0  0  0  0  0  0
   -3.1080   21.1420  -32.6130 C   0  0  0  0  0  0  0  0  0  0  0  0
   -4.1230   20.1810  -32.7190 C   0  0  0  0  0  0  0  0  0  0  0  0
   -5.3880   20.4350  -32.1660 C   0  0  0  0  0  0  0  0  0  0  0  0
   -5.6300   21.6480  -31.5040 C   0  0  0  0  0  0  0  0  0  0  0  0
   -6.4380   19.3590  -32.2380 C   0  0  0  0  0  0  0  0  0  0  0  0
   -6.4680   18.6880  -33.6280 C   0  0  0  0  0  0  0  0  0  0  0  0
   -5.0830   18.5280  -34.3120 C   0  0  0  0  0  0  0  0  0  0  0  0
   -3.8920   18.8620  -33.4010 C   0  0  0  0  0  0  0  0  0  0  0  0
   -2.4690   22.9420  -28.9570 C   0  0  0  0  0  0  0  0  0  0  0  0
   -0.9450   19.9140  -28.5150 N   0  0  0  0  0  0  0  0  0  0  0  0
   -0.8010   18.5870  -27.9080 C   0  0  0  0  0  0  0  0  0  0  0  0
    0.3670   17.8290  -28.5310 C   0  0  0  0  0  0  0  0  0  0  0  0
    0.2220   17.7640  -30.0310 C   0  0  0  0  0  0  0  0  0  0  0  0
    0.7380   16.6790  -30.7860 C   0  0  0  0  0  0  0  0  0  0  0  0
    1.4650   15.6360  -30.2040 O   0  0  0  0  0  0  0  0  0  0  0  0
    0.5340   16.6350  -32.1690 C   0  0  0  0  0  0  0  0  0  0  0  0
   -0.1280   17.6740  -32.8210 C   0  0  0  0  0  0  0  0  0  0  0  0
   -0.5810   18.7770  -32.0970 C   0  0  0  0  0  0  0  0  0  0  0  0
   -0.4110   18.8350  -30.7060 C   0  0  0  0  0  0  0  0  0  0  0  0
   -0.8370   20.0880  -29.9750 C   0  0  0  0  0  0  0  0  0  0  0  0
    0.3925   22.7687  -27.0879 H   0  0  0  0  0  0  0  0  0  0  0  0
    0.5205   25.1537  -27.7972 H   0  0  0  0  0  0  0  0  0  0  0  0
   -2.5640   23.1155  -31.9040 H   0  0  0  0  0  0  0  0  0  0  0  0
   -2.1133   20.9393  -33.0366 H   0  0  0  0  0  0  0  0  0  0  0  0
   -6.6167   21.8429  -31.0585 H   0  0  0  0  0  0  0  0  0  0  0  0
   -6.2194   18.5951  -31.4773 H   0  0  0  0  0  0  0  0  0  0  0  0
   -7.4192   19.8225  -32.0579 H   0  0  0  0  0  0  0  0  0  0  0  0
   -6.9094   17.6869  -33.5137 H   0  0  0  0  0  0  0  0  0  0  0  0
   -7.0553   19.3541  -34.2772 H   0  0  0  0  0  0  0  0  0  0  0  0
   -4.9809   17.4849  -34.6458 H   0  0  0  0  0  0  0  0  0  0  0  0
   -5.0559   19.2451  -35.1457 H   0  0  0  0  0  0  0  0  0  0  0  0
   -3.7812   18.0736  -32.6420 H   0  0  0  0  0  0  0  0  0  0  0  0
   -2.9775   18.9243  -34.0092 H   0  0  0  0  0  0  0  0  0  0  0  0
   -3.3190   22.3201  -29.2745 H   0  0  0  0  0  0  0  0  0  0  0  0
   -0.6216   18.7018  -26.8288 H   0  0  0  0  0  0  0  0  0  0  0  0
   -1.7250   18.0169  -28.0846 H   0  0  0  0  0  0  0  0  0  0  0  0
    1.3061   18.3444  -28.2811 H   0  0  0  0  0  0  0  0  0  0  0  0
    0.3760   16.8039  -28.1321 H   0  0  0  0  0  0  0  0  0  0  0  0
    1.9020   14.8920  -30.7310 H   0  0  0  0  0  0  0  0  0  0  0  0
    0.8991   15.7732  -32.7470 H   0  0  0  0  0  0  0  0  0  0  0  0
   -0.2934   17.6241  -33.9074 H   0  0  0  0  0  0  0  0  0  0  0  0
   -1.0755   19.6080  -32.6213 H   0  0  0  0  0  0  0  0  0  0  0  0
   -0.0972   20.8766  -30.1771 H   0  0  0  0  0  0  0  0  0  0  0  0
   -1.8401   20.3497  -30.3429 H   0  0  0  0  0  0  0  0  0  0  0  0
  1  2  2  0
  2  3  1  0
  3  4  2  0
  4  5  1  0
  5  6  2  0
  6  7  1  0
  6  8  1  0
  8  9  1  0
  9 10  1  0
 10 11  2  0
 10 12  2  0
 10 13  1  0
 13 14  2  0
 14 15  1  0
 15 16  2  0
 16 17  1  0
 17 18  2  0
 17 19  1  0
 19 20  1  0
 20 21  1  0
 21 22  1  0
  8 23  2  0
  2 24  1  0
 24 25  1  0
 25 26  1  0
 26 27  1  0
 27 28  2  0
 28 29  1  0
 28 30  1  0
 30 31  2  0
 31 32  1  0
 32 33  2  0
 33 34  1  0
 23  3  1  0
 34 24  1  0
 18 13  1  0
 33 27  1  0
 22 16  1  0
  4 35  1  0
  5 36  1  0
 14 37  1  0
 15 38  1  0
 18 39  1  0
 19 40  1  0
 19 41  1  0
 20 42  1  0
 20 43  1  0
 21 44  1  0
 21 45  1  0
 22 46  1  0
 22 47  1  0
 23 48  1  0
 25 49  1  0
 25 50  1  0
 26 51  1  0
 26 52  1  0
 29 53  1  0
 30 54  1  0
 31 55  1  0
 32 56  1  0
 34 57  1  0
 34 58  1  0
M  CHG  2   7  -1   9  -1
M  END
>  <UniqueID>  (9) 
9

>  <SMILES>  (9) 
O=C(c1ccc([O-])c([N-]S(=O)(=O)c2ccc3c(c2)CCCC3)c1)N1CCc2c(O)cccc2C1

>  <Energy>  (9) 
81.50018648498249

>  <Genealogy>  (9) 
O=C(c1ccc([O-])c([N-]S(=O)(=O)c2ccc3c(c2)CCCC3)c1)N1CCc2c(O)cccc2C1 (protonated)
O=C(c1ccc([O-])c([N-]S(=O)(=O)c2ccc3c(c2)CCCC3)c1)N1CCc2c(O)cccc2C1 (3D coordinates assigned)
O=C(c1ccc([O-])c([N-]S(=O)(=O)c2ccc3c(c2)CCCC3)c1)N1CCc2c(O)cccc2C1 (nonaromatic ring conformer: 81.50018648498249 kcal/mol)

>  <smiles>  (9) 
O=C(c1ccc(O)c(NS(=O)(=O)c2ccc3c(c2)CCCC3)c1)N1CCc2c(O)cccc2C1

>  <score_type>  (9) 
oracle

>  <origin>  (9) 
adgpu

>  <m_score__min__energy>  (9) 
-15.289999999999999

>  <m_primary>  (9) 
energy

$$$$
9:0
     RDKit          3D

 58 61  0  0  0  0  0  0  0  0999 V2000
    1.9190   19.2760  -34.8680 C   0  0  0  0  0  0  0  0  0  0  0  0
    0.3380   19.2890  -35.6890 S   0  0  0  0  0  0  0  0  0  0  0  0
    0.2690   18.1490  -36.6660 O   0  0  0  0  0  0  0  0  0  0  0  0
    0.2020   20.5870  -36.4340 O   0  0  0  0  0  0  0  0  0  0  0  0
   -0.9320   19.1430  -34.5000 N   0  0  0  0  0  0  0  0  0  0  0  0
   -1.5580   20.4570  -34.2150 C   0  0  0  0  0  0  0  0  0  0  0  0
   -1.1170   21.0710  -32.8710 C   0  0  0  0  0  0  0  0  0  0  0  0
   -1.3010   20.1150  -31.7700 N   0  0  0  0  0  0  0  0  0  0  0  0
   -1.2950   20.5640  -30.3950 C   0  0  0  0  0  0  0  0  0  0  0  0
   -1.2150   19.7280  -29.4540 O   0  0  0  0  0  0  0  0  0  0  0  0
   -1.3890   21.9940  -30.0480 C   0  0  0  0  0  0  0  0  0  0  0  0
   -0.3930   22.5940  -29.2570 C   0  0  0  0  0  0  0  0  0  0  0  0
   -0.4960   23.9470  -28.8990 C   0  0  0  0  0  0  0  0  0  0  0  0
   -1.5980   24.7040  -29.3140 C   0  0  0  0  0  0  0  0  0  0  0  0
   -1.6820   26.0520  -28.9680 O   0  0  0  0  0  0  0  0  0  0  0  0
   -2.6000   24.1080  -30.0950 C   0  0  0  0  0  0  0  0  0  0  0  0
   -3.6910   24.8920  -30.5710 N   0  0  0  0  0  0  0  0  0  0  0  0
   -5.2540   24.7290  -29.8460 S   0  0  0  0  0  0  0  0  0  0  0  0
   -5.1160   24.5430  -28.3570 O   0  0  0  0  0  0  0  0  0  0  0  0
   -6.0490   25.9780  -30.1060 O   0  0  0  0  0  0  0  0  0  0  0  0
   -6.0710   23.3430  -30.5680 C   0  0  0  0  0  0  0  0  0  0  0  0
   -7.4570   23.2000  -30.4480 C   0  0  0  0  0  0  0  0  0  0  0  0
   -8.1140   22.1470  -31.0970 C   0  0  0  0  0  0  0  0  0  0  0  0
   -7.3950   21.2290  -31.8800 C   0  0  0  0  0  0  0  0  0  0  0  0
   -5.9970   21.3900  -32.0280 C   0  0  0  0  0  0  0  0  0  0  0  0
   -5.3470   22.4340  -31.3510 C   0  0  0  0  0  0  0  0  0  0  0  0
   -5.1630   20.4100  -32.8170 C   0  0  0  0  0  0  0  0  0  0  0  0
   -5.9980   19.5730  -33.7900 C   0  0  0  0  0  0  0  0  0  0  0  0
   -7.2410   19.0190  -33.0920 C   0  0  0  0  0  0  0  0  0  0  0  0
   -8.1490   20.1630  -32.6350 C   0  0  0  0  0  0  0  0  0  0  0  0
   -2.4920   22.7550  -30.4660 C   0  0  0  0  0  0  0  0  0  0  0  0
   -1.3040   18.6760  -32.0790 C   0  0  0  0  0  0  0  0  0  0  0  0
   -0.4330   18.4180  -33.3090 C   0  0  0  0  0  0  0  0  0  0  0  0
    1.7665   19.2773  -33.7786 H   0  0  0  0  0  0  0  0  0  0  0  0
    2.4760   18.3732  -35.1592 H   0  0  0  0  0  0  0  0  0  0  0  0
    2.4907   20.1695  -35.1592 H   0  0  0  0  0  0  0  0  0  0  0  0
   -1.2868   21.1540  -35.0217 H   0  0  0  0  0  0  0  0  0  0  0  0
   -2.6437   20.2912  -34.1537 H   0  0  0  0  0  0  0  0  0  0  0  0
   -0.0542   21.3477  -32.9334 H   0  0  0  0  0  0  0  0  0  0  0  0
   -1.7351   21.9588  -32.6715 H   0  0  0  0  0  0  0  0  0  0  0  0
    0.4693   22.0011  -28.9179 H   0  0  0  0  0  0  0  0  0  0  0  0
    0.2920   24.4143  -28.2901 H   0  0  0  0  0  0  0  0  0  0  0  0
   -8.0323   23.9160  -29.8427 H   0  0  0  0  0  0  0  0  0  0  0  0
   -9.2036   22.0379  -30.9925 H   0  0  0  0  0  0  0  0  0  0  0  0
   -4.2554   22.5398  -31.4363 H   0  0  0  0  0  0  0  0  0  0  0  0
   -4.4105   20.9705  -33.3911 H   0  0  0  0  0  0  0  0  0  0  0  0
   -4.6957   19.7187  -32.1003 H   0  0  0  0  0  0  0  0  0  0  0  0
   -6.3090   20.2043  -34.6354 H   0  0  0  0  0  0  0  0  0  0  0  0
   -5.3874   18.7313  -34.1488 H   0  0  0  0  0  0  0  0  0  0  0  0
   -7.7934   18.3750  -33.7921 H   0  0  0  0  0  0  0  0  0  0  0  0
   -6.9277   18.4381  -32.2120 H   0  0  0  0  0  0  0  0  0  0  0  0
   -8.6146   20.6198  -33.5207 H   0  0  0  0  0  0  0  0  0  0  0  0
   -8.9039   19.7410  -31.9553 H   0  0  0  0  0  0  0  0  0  0  0  0
   -3.2743   22.2922  -31.0855 H   0  0  0  0  0  0  0  0  0  0  0  0
   -0.9030   18.1158  -31.2215 H   0  0  0  0  0  0  0  0  0  0  0  0
   -2.3335   18.3464  -32.2826 H   0  0  0  0  0  0  0  0  0  0  0  0
    0.5933   18.7505  -33.0942 H   0  0  0  0  0  0  0  0  0  0  0  0
   -0.4627   17.3405  -33.5282 H   0  0  0  0  0  0  0  0  0  0  0  0
  1  2  1  0
  2  3  2  0
  2  4  2  0
  2  5  1  0
  5  6  1  0
  6  7  1  0
  7  8  1  0
  8  9  1  0
  9 10  2  0
  9 11  1  0
 11 12  2  0
 12 13  1  0
 13 14  2  0
 14 15  1  0
 14 16  1  0
 16 17  1  0
 17 18  1  0
 18 19  2  0
 18 20  2  0
 18 21  1  0
 21 22  2  0
 22 23  1  0
 23 24  2  0
 24 25  1  0
 25 26  2  0
 25 27  1  0
 27 28  1  0
 28 29  1  0
 29 30  1  0
 16 31  2  0
  8 32  1  0
 32 33  1  0
 33  5  1  0
 31 11  1  0
 26 21  1  0
 30 24  1  0
  1 34  1  0
  1 35  1  0
  1 36  1  0
  6 37  1  0
  6 38  1  0
  7 39  1  0
  7 40  1  0
 12 41  1  0
 13 42  1  0
 22 43  1  0
 23 44  1  0
 26 45  1  0
 27 46  1  0
 27 47  1  0
 28 48  1  0
 28 49  1  0
 29 50  1  0
 29 51  1  0
 30 52  1  0
 30 53  1  0
 31 54  1  0
 32 55  1  0
 32 56  1  0
 33 57  1  0
 33 58  1  0
M  CHG  2  15  -1  17  -1
M  END
>  <UniqueID>  (10) 
10

>  <SMILES>  (10) 
CS(=O)(=O)N1CCN(C(=O)c2ccc([O-])c([N-]S(=O)(=O)c3ccc4c(c3)CCCC4)c2)CC1

>  <Energy>  (10) 
75.41677421058166

>  <Genealogy>  (10) 
CS(=O)(=O)N1CCN(C(=O)c2ccc([O-])c([N-]S(=O)(=O)c3ccc4c(c3)CCCC4)c2)CC1 (protonated)
CS(=O)(=O)N1CCN(C(=O)c2ccc([O-])c([N-]S(=O)(=O)c3ccc4c(c3)CCCC4)c2)CC1 (3D coordinates assigned)
CS(=O)(=O)N1CCN(C(=O)c2ccc([O-])c([N-]S(=O)(=O)c3ccc4c(c3)CCCC4)c2)CC1 (nonaromatic ring conformer: 75.41677421058166 kcal/mol)

>  <smiles>  (10) 
CS(=O)(=O)N1CCN(C(=O)c2ccc(O)c(NS(=O)(=O)c3ccc4c(c3)CCCC4)c2)CC1

>  <score_type>  (10) 
oracle

>  <origin>  (10) 
adgpu

>  <m_score__min__energy>  (10) 
-15.390000000000001

>  <m_primary>  (10) 
energy

$$$$
10:0
     RDKit          3D

 34 36  0  0  0  0  0  0  0  0999 V2000
   -8.8390   19.2870  -32.0790 C   0  0  0  0  0  0  0  0  0  0  0  0
   -8.5940   20.7390  -31.8460 C   0  0  0  0  0  0  0  0  0  0  0  0
   -7.4970   21.2180  -31.2290 N   0  0  0  0  0  0  0  0  0  0  0  0
   -7.7170   22.5450  -31.2860 C   0  0  0  0  0  0  0  0  0  0  0  0
   -6.6060   23.7610  -30.5820 S   0  0  0  0  0  0  0  0  0  0  0  0
   -5.2460   23.4590  -31.7700 C   0  0  0  0  0  0  0  0  0  0  0  0
   -3.9820   23.0020  -31.0630 C   0  0  0  0  0  0  0  0  0  0  0  0
   -3.5990   21.6370  -31.0510 C   0  0  0  0  0  0  0  0  0  0  0  0
   -4.3800   20.6070  -31.8390 C   0  0  0  0  0  0  0  0  0  0  0  0
   -2.4190   21.2460  -30.3840 C   0  0  0  0  0  0  0  0  0  0  0  0
   -1.9740   19.9290  -30.5480 O   0  0  0  0  0  0  0  0  0  0  0  0
   -1.6960   22.1830  -29.6040 C   0  0  0  0  0  0  0  0  0  0  0  0
   -2.0540   23.5500  -29.6520 C   0  0  0  0  0  0  0  0  0  0  0  0
   -3.1830   23.9510  -30.3940 C   0  0  0  0  0  0  0  0  0  0  0  0
   -3.5270   25.3000  -30.4580 O   0  0  0  0  0  0  0  0  0  0  0  0
   -1.2200   24.5420  -28.9130 C   0  0  0  0  0  0  0  0  0  0  0  0
   -1.5020   25.7710  -28.9190 O   0  0  0  0  0  0  0  0  0  0  0  0
   -0.0370   24.0980  -28.1610 C   0  0  0  0  0  0  0  0  0  0  0  0
    0.2600   22.8050  -28.0570 C   0  0  0  0  0  0  0  0  0  0  0  0
   -0.5860   21.7810  -28.6880 C   0  0  0  0  0  0  0  0  0  0  0  0
   -0.3980   20.5770  -28.3710 O   0  0  0  0  0  0  0  0  0  0  0  0
   -8.8640   22.8590  -31.9140 N   0  0  0  0  0  0  0  0  0  0  0  0
   -9.4170   21.7140  -32.2730 N   0  0  0  0  0  0  0  0  0  0  0  0
   -8.9262   18.7701  -31.1120 H   0  0  0  0  0  0  0  0  0  0  0  0
   -9.7714   19.1592  -32.6485 H   0  0  0  0  0  0  0  0  0  0  0  0
   -8.0001   18.8604  -32.6485 H   0  0  0  0  0  0  0  0  0  0  0  0
   -5.5590   22.6808  -32.4816 H   0  0  0  0  0  0  0  0  0  0  0  0
   -5.0279   24.4020  -32.2926 H   0  0  0  0  0  0  0  0  0  0  0  0
   -4.8953   19.9274  -31.1443 H   0  0  0  0  0  0  0  0  0  0  0  0
   -5.1218   21.1153  -32.4726 H   0  0  0  0  0  0  0  0  0  0  0  0
   -3.6904   20.0299  -32.4726 H   0  0  0  0  0  0  0  0  0  0  0  0
   -1.3190   19.4770  -29.9260 H   0  0  0  0  0  0  0  0  0  0  0  0
    0.6109   24.8444  -27.6781 H   0  0  0  0  0  0  0  0  0  0  0  0
    1.1515   22.4976  -27.4907 H   0  0  0  0  0  0  0  0  0  0  0  0
  1  2  1  0
  2  3  2  0
  3  4  1  0
  4  5  1  0
  5  6  1  0
  6  7  1  0
  7  8  2  0
  8  9  1  0
  8 10  1  0
 10 11  1  0
 10 12  2  0
 12 13  1  0
 13 14  2  0
 14 15  1  0
 13 16  1  0
 16 17  2  0
 16 18  1  0
 18 19  2  0
 19 20  1  0
 20 21  2  0
  4 22  2  0
 22 23  1  0
 23  2  1  0
 14  7  1  0
 20 12  1  0
  1 24  1  0
  1 25  1  0
  1 26  1  0
  6 27  1  0
  6 28  1  0
  9 29  1  0
  9 30  1  0
  9 31  1  0
 11 32  1  0
 18 33  1  0
 19 34  1  0
M  CHG  2  15  -1  23  -1
M  END
>  <UniqueID>  (11) 
11

>  <SMILES>  (11) 
Cc1nc(SCc2c(C)c(O)c3c(c2[O-])C(=O)C=CC3=O)n[n-]1

>  <Energy>  (11) 
74.76087848727151

>  <Genealogy>  (11) 
Cc1nc(SCc2c(C)c(O)c3c(c2[O-])C(=O)C=CC3=O)n[n-]1 (protonated)
Cc1nc(SCc2c(C)c(O)c3c(c2[O-])C(=O)C=CC3=O)n[n-]1 (3D coordinates assigned)
Cc1nc(SCc2c(C)c(O)c3c(c2[O-])C(=O)C=CC3=O)n[n-]1 (nonaromatic ring conformer: 74.76087848727151 kcal/mol)

>  <smiles>  (11) 
Cc1nc(SCc2c(C)c(O)c3c(c2O)C(=O)C=CC3=O)n[nH]1

>  <score_type>  (11) 
oracle

>  <origin>  (11) 
adgpu

>  <m_score__min__energy>  (11) 
-11

>  <m_primary>  (11) 
energy

$$$$
11:0
     RDKit          3D

 58 61  0  0  0  0  0  0  0  0999 V2000
   -4.7020   23.2590  -32.3610 O   0  0  0  0  0  0  0  0  0  0  0  0
   -4.8610   23.5480  -31.1430 C   0  0  0  0  0  0  0  0  0  0  0  0
   -3.8450   24.2700  -30.4370 N   0  0  0  0  0  0  0  0  0  0  0  0
   -3.1400   23.7910  -29.2830 C   0  0  0  0  0  0  0  0  0  0  0  0
   -3.5190   22.5620  -28.7310 C   0  0  0  0  0  0  0  0  0  0  0  0
   -2.8590   22.0580  -27.6090 C   0  0  0  0  0  0  0  0  0  0  0  0
   -1.8010   22.7680  -27.0390 C   0  0  0  0  0  0  0  0  0  0  0  0
   -1.3810   23.9820  -27.6000 C   0  0  0  0  0  0  0  0  0  0  0  0
   -0.0440   24.8650  -26.8430 S   0  0  0  0  0  0  0  0  0  0  0  0
    1.0280   25.1340  -27.8630 O   0  0  0  0  0  0  0  0  0  0  0  0
    0.5600   23.9920  -25.7730 O   0  0  0  0  0  0  0  0  0  0  0  0
   -0.5590   26.3910  -26.1540 N   0  0  0  0  0  0  0  0  0  0  0  0
   -0.1690   27.5150  -27.0280 C   0  0  0  0  0  0  0  0  0  0  0  0
   -0.4660   28.8630  -26.3420 C   0  0  0  0  0  0  0  0  0  0  0  0
   -1.2210   28.6890  -25.1560 O   0  0  0  0  0  0  0  0  0  0  0  0
   -0.4740   27.9280  -24.2200 C   0  0  0  0  0  0  0  0  0  0  0  0
   -0.0010   26.5810  -24.8040 C   0  0  0  0  0  0  0  0  0  0  0  0
   -2.0460   24.4910  -28.7340 C   0  0  0  0  0  0  0  0  0  0  0  0
   -1.6060   25.6710  -29.3270 O   0  0  0  0  0  0  0  0  0  0  0  0
   -6.0510   23.1550  -30.4520 N   0  0  0  0  0  0  0  0  0  0  0  0
   -7.1750   22.5140  -31.0800 C   0  0  0  0  0  0  0  0  0  0  0  0
   -8.2820   23.2560  -31.5300 C   0  0  0  0  0  0  0  0  0  0  0  0
   -9.3620   22.6100  -32.1360 C   0  0  0  0  0  0  0  0  0  0  0  0
   -9.3510   21.2220  -32.2960 C   0  0  0  0  0  0  0  0  0  0  0  0
   -8.2580   20.4680  -31.8420 C   0  0  0  0  0  0  0  0  0  0  0  0
   -8.2160   18.7190  -32.0860 S   0  0  0  0  0  0  0  0  0  0  0  0
   -9.6170   18.2180  -32.3080 O   0  0  0  0  0  0  0  0  0  0  0  0
   -7.6810   18.0610  -30.8440 O   0  0  0  0  0  0  0  0  0  0  0  0
   -7.2150   18.2740  -33.4550 N   0  0  0  0  0  0  0  0  0  0  0  0
   -6.1840   17.3010  -33.0650 C   0  0  0  0  0  0  0  0  0  0  0  0
   -4.8840   18.0560  -32.8170 C   0  0  0  0  0  0  0  0  0  0  0  0
   -5.0820   19.4320  -33.4170 C   0  0  0  0  0  0  0  0  0  0  0  0
   -6.4970   19.4380  -33.9870 C   0  0  0  0  0  0  0  0  0  0  0  0
   -7.1840   21.1160  -31.2140 C   0  0  0  0  0  0  0  0  0  0  0  0
   -4.3420   21.9898  -29.1841 H   0  0  0  0  0  0  0  0  0  0  0  0
   -3.1736   21.0985  -27.1727 H   0  0  0  0  0  0  0  0  0  0  0  0
   -1.2947   22.3732  -26.1458 H   0  0  0  0  0  0  0  0  0  0  0  0
    0.9075   27.4485  -27.2439 H   0  0  0  0  0  0  0  0  0  0  0  0
   -0.7482   27.4565  -27.9613 H   0  0  0  0  0  0  0  0  0  0  0  0
    0.4861   29.3530  -26.0905 H   0  0  0  0  0  0  0  0  0  0  0  0
   -1.0540   29.4807  -27.0368 H   0  0  0  0  0  0  0  0  0  0  0  0
    0.4079   28.5101  -23.9145 H   0  0  0  0  0  0  0  0  0  0  0  0
   -1.1293   27.7115  -23.3635 H   0  0  0  0  0  0  0  0  0  0  0  0
    1.0975   26.5744  -24.8601 H   0  0  0  0  0  0  0  0  0  0  0  0
   -0.3473   25.7647  -24.1530 H   0  0  0  0  0  0  0  0  0  0  0  0
   -6.0580   23.2500  -29.4110 H   0  0  0  0  0  0  0  0  0  0  0  0
   -8.2972   24.3487  -31.4042 H   0  0  0  0  0  0  0  0  0  0  0  0
  -10.2238   23.1958  -32.4884 H   0  0  0  0  0  0  0  0  0  0  0  0
  -10.2015   20.7189  -32.7792 H   0  0  0  0  0  0  0  0  0  0  0  0
   -6.4926   16.7798  -32.1468 H   0  0  0  0  0  0  0  0  0  0  0  0
   -6.0440   16.5565  -33.8626 H   0  0  0  0  0  0  0  0  0  0  0  0
   -4.6868   18.1340  -31.7376 H   0  0  0  0  0  0  0  0  0  0  0  0
   -4.0243   17.5387  -33.2680 H   0  0  0  0  0  0  0  0  0  0  0  0
   -4.9779   20.2061  -32.6424 H   0  0  0  0  0  0  0  0  0  0  0  0
   -4.3324   19.6467  -34.1929 H   0  0  0  0  0  0  0  0  0  0  0  0
   -7.0140   20.3619  -33.6884 H   0  0  0  0  0  0  0  0  0  0  0  0
   -6.4624   19.3914  -35.0855 H   0  0  0  0  0  0  0  0  0  0  0  0
   -6.3426   20.5248  -30.8236 H   0  0  0  0  0  0  0  0  0  0  0  0
  1  2  2  0
  2  3  1  0
  3  4  1  0
  4  5  2  0
  5  6  1  0
  6  7  2  0
  7  8  1  0
  8  9  1  0
  9 10  2  0
  9 11  2  0
  9 12  1  0
 12 13  1  0
 13 14  1  0
 14 15  1  0
 15 16  1  0
 16 17  1  0
  8 18  2  0
 18 19  1  0
  2 20  1  0
 20 21  1  0
 21 22  2  0
 22 23  1  0
 23 24  2  0
 24 25  1  0
 25 26  1  0
 26 27  2  0
 26 28  2  0
 26 29  1  0
 29 30  1  0
 30 31  1  0
 31 32  1  0
 32 33  1  0
 25 34  2  0
 18  4  1  0
 34 21  1  0
 17 12  1  0
 33 29  1  0
  5 35  1  0
  6 36  1  0
  7 37  1  0
 13 38  1  0
 13 39  1  0
 14 40  1  0
 14 41  1  0
 16 42  1  0
 16 43  1  0
 17 44  1  0
 17 45  1  0
 20 46  1  0
 22 47  1  0
 23 48  1  0
 24 49  1  0
 30 50  1  0
 30 51  1  0
 31 52  1  0
 31 53  1  0
 32 54  1  0
 32 55  1  0
 33 56  1  0
 33 57  1  0
 34 58  1  0
M  CHG  2   3  -1  19  -1
M  END
>  <UniqueID>  (12) 
12

>  <SMILES>  (12) 
O=C([N-]c1cccc(S(=O)(=O)N2CCOCC2)c1[O-])Nc1cccc(S(=O)(=O)N2CCCC2)c1

>  <Energy>  (12) 
79.02131339544465

>  <Genealogy>  (12) 
O=C([N-]c1cccc(S(=O)(=O)N2CCOCC2)c1[O-])Nc1cccc(S(=O)(=O)N2CCCC2)c1 (protonated)
O=C([N-]c1cccc(S(=O)(=O)N2CCOCC2)c1[O-])Nc1cccc(S(=O)(=O)N2CCCC2)c1 (3D coordinates assigned)
O=C([N-]c1cccc(S(=O)(=O)N2CCOCC2)c1[O-])Nc1cccc(S(=O)(=O)N2CCCC2)c1 (nonaromatic ring conformer: 79.02131339544465 kcal/mol)

>  <smiles>  (12) 
O=C(Nc1cccc(S(=O)(=O)N2CCCC2)c1)Nc1cccc(S(=O)(=O)N2CCOCC2)c1O

>  <score_type>  (12) 
oracle

>  <origin>  (12) 
adgpu

>  <m_score__min__energy>  (12) 
-15.56

>  <m_primary>  (12) 
energy

$$$$
12:0
     RDKit          3D

 60 64  0  0  0  0  0  0  0  0999 V2000
   -4.0690   25.6380  -31.1850 O   0  0  0  0  0  0  0  0  0  0  0  0
   -5.1510   25.1290  -30.2750 S   0  0  0  0  0  0  0  0  0  0  0  0
   -6.1110   26.2500  -29.9770 O   0  0  0  0  0  0  0  0  0  0  0  0
   -4.4380   24.5780  -28.7870 N   0  0  0  0  0  0  0  0  0  0  0  0
   -3.2790   23.7350  -28.6960 C   0  0  0  0  0  0  0  0  0  0  0  0
   -3.3720   22.3790  -28.3390 C   0  0  0  0  0  0  0  0  0  0  0  0
   -2.2140   21.5930  -28.1950 C   0  0  0  0  0  0  0  0  0  0  0  0
   -0.9460   22.1770  -28.3900 C   0  0  0  0  0  0  0  0  0  0  0  0
   -0.8580   23.5140  -28.8000 C   0  0  0  0  0  0  0  0  0  0  0  0
   -2.0160   24.2890  -28.9460 C   0  0  0  0  0  0  0  0  0  0  0  0
   -1.9050   25.6200  -29.3310 O   0  0  0  0  0  0  0  0  0  0  0  0
    0.3120   21.3530  -28.2570 C   0  0  0  0  0  0  0  0  0  0  0  0
    0.0920   20.1580  -27.4360 N   0  0  0  0  0  0  0  0  0  0  0  0
   -1.0420   19.3860  -27.9500 C   0  0  0  0  0  0  0  0  0  0  0  0
   -2.3380   20.1640  -27.7290 C   0  0  0  0  0  0  0  0  0  0  0  0
   -6.0440   23.8180  -31.0400 C   0  0  0  0  0  0  0  0  0  0  0  0
   -7.4350   23.7570  -30.9250 C   0  0  0  0  0  0  0  0  0  0  0  0
   -8.1400   22.6920  -31.4870 C   0  0  0  0  0  0  0  0  0  0  0  0
   -7.4650   21.6750  -32.1800 C   0  0  0  0  0  0  0  0  0  0  0  0
   -6.0550   21.7240  -32.2910 C   0  0  0  0  0  0  0  0  0  0  0  0
   -5.3640   22.8160  -31.7370 C   0  0  0  0  0  0  0  0  0  0  0  0
   -5.2530   20.6570  -33.0120 C   0  0  0  0  0  0  0  0  0  0  0  0
   -5.3590   19.2030  -32.4820 C   0  0  0  0  0  0  0  0  0  0  0  0
   -6.6560   18.5210  -32.6950 N   0  0  0  0  0  0  0  0  0  0  0  0
   -6.6820   17.0430  -32.5800 C   0  0  0  0  0  0  0  0  0  0  0  0
   -5.4770   16.3890  -33.2080 C   0  0  0  0  0  0  0  0  0  0  0  0
   -4.7700   15.3880  -32.5190 C   0  0  0  0  0  0  0  0  0  0  0  0
   -3.6350   14.8050  -33.0920 C   0  0  0  0  0  0  0  0  0  0  0  0
   -3.2010   15.2130  -34.3570 C   0  0  0  0  0  0  0  0  0  0  0  0
   -2.0670   14.6390  -34.9220 O   0  0  0  0  0  0  0  0  0  0  0  0
   -3.9070   16.2010  -35.0530 C   0  0  0  0  0  0  0  0  0  0  0  0
   -5.0430   16.7840  -34.4830 C   0  0  0  0  0  0  0  0  0  0  0  0
   -7.8150   19.1880  -32.0510 C   0  0  0  0  0  0  0  0  0  0  0  0
   -8.2440   20.5090  -32.7190 C   0  0  0  0  0  0  0  0  0  0  0  0
   -4.3607   21.9273  -28.1703 H   0  0  0  0  0  0  0  0  0  0  0  0
    0.1266   23.9580  -29.0086 H   0  0  0  0  0  0  0  0  0  0  0  0
    0.6420   21.0415  -29.2590 H   0  0  0  0  0  0  0  0  0  0  0  0
    1.0772   21.9715  -27.7651 H   0  0  0  0  0  0  0  0  0  0  0  0
    0.9490   19.5630  -27.5080 H   0  0  0  0  0  0  0  0  0  0  0  0
   -0.9033   19.2051  -29.0261 H   0  0  0  0  0  0  0  0  0  0  0  0
   -1.0991   18.4250  -27.4178 H   0  0  0  0  0  0  0  0  0  0  0  0
   -3.1481   19.6747  -28.2896 H   0  0  0  0  0  0  0  0  0  0  0  0
   -2.5553   20.1714  -26.6507 H   0  0  0  0  0  0  0  0  0  0  0  0
   -7.9762   24.5511  -30.3897 H   0  0  0  0  0  0  0  0  0  0  0  0
   -9.2345   22.6491  -31.3860 H   0  0  0  0  0  0  0  0  0  0  0  0
   -4.2723   22.8824  -31.8540 H   0  0  0  0  0  0  0  0  0  0  0  0
   -5.5819   20.6502  -34.0617 H   0  0  0  0  0  0  0  0  0  0  0  0
   -4.2020   20.9388  -32.8509 H   0  0  0  0  0  0  0  0  0  0  0  0
   -4.5807   18.6067  -32.9807 H   0  0  0  0  0  0  0  0  0  0  0  0
   -5.2428   19.2789  -31.3908 H   0  0  0  0  0  0  0  0  0  0  0  0
   -6.7131   16.7735  -31.5140 H   0  0  0  0  0  0  0  0  0  0  0  0
   -7.5724   16.6837  -33.1166 H   0  0  0  0  0  0  0  0  0  0  0  0
   -5.1108   15.0620  -31.5252 H   0  0  0  0  0  0  0  0  0  0  0  0
   -3.0834   14.0249  -32.5470 H   0  0  0  0  0  0  0  0  0  0  0  0
   -3.5677   16.5193  -36.0498 H   0  0  0  0  0  0  0  0  0  0  0  0
   -5.5988   17.5554  -35.0362 H   0  0  0  0  0  0  0  0  0  0  0  0
   -8.6692   18.4955  -32.0791 H   0  0  0  0  0  0  0  0  0  0  0  0
   -7.5010   19.4422  -31.0279 H   0  0  0  0  0  0  0  0  0  0  0  0
   -8.0719   20.4342  -33.8029 H   0  0  0  0  0  0  0  0  0  0  0  0
   -9.3097   20.6756  -32.5031 H   0  0  0  0  0  0  0  0  0  0  0  0
  1  2  2  0
  2  3  2  0
  2  4  1  0
  4  5  1  0
  5  6  2  0
  6  7  1  0
  7  8  2  0
  8  9  1  0
  9 10  2  0
 10 11  1  0
  8 12  1  0
 12 13  1  0
 13 14  1  0
 14 15  1  0
  2 16  1  0
 16 17  2  0
 17 18  1  0
 18 19  2  0
 19 20  1  0
 20 21  2  0
 20 22  1  0
 22 23  1  0
 23 24  1  0
 24 25  1  0
 25 26  1  0
 26 27  2  0
 27 28  1  0
 28 29  2  0
 29 30  1  0
 29 31  1  0
 31 32  2  0
 24 33  1  0
 33 34  1  0
 10  5  1  0
 21 16  1  0
 32 26  1  0
 15  7  1  0
 34 19  1  0
  6 35  1  0
  9 36  1  0
 12 37  1  0
 12 38  1  0
 13 39  1  0
 14 40  1  0
 14 41  1  0
 15 42  1  0
 15 43  1  0
 17 44  1  0
 18 45  1  0
 21 46  1  0
 22 47  1  0
 22 48  1  0
 23 49  1  0
 23 50  1  0
 25 51  1  0
 25 52  1  0
 27 53  1  0
 28 54  1  0
 31 55  1  0
 32 56  1  0
 33 57  1  0
 33 58  1  0
 34 59  1  0
 34 60  1  0
M  CHG  3   4  -1  11  -1  30  -1
M  END
>  <UniqueID>  (13) 
13

>  <SMILES>  (13) 
O=S(=O)([N-]c1cc2c(cc1[O-])CNCC2)c1ccc2c(c1)CCN(Cc1ccc([O-])cc1)CC2

>  <Energy>  (13) 
84.20336334538194

>  <Genealogy>  (13) 
O=S(=O)([N-]c1cc2c(cc1[O-])CNCC2)c1ccc2c(c1)CCN(Cc1ccc([O-])cc1)CC2 (protonated)
O=S(=O)([N-]c1cc2c(cc1[O-])CNCC2)c1ccc2c(c1)CCN(Cc1ccc([O-])cc1)CC2 (3D coordinates assigned)
O=S(=O)([N-]c1cc2c(cc1[O-])CNCC2)c1ccc2c(c1)CCN(Cc1ccc([O-])cc1)CC2 (nonaromatic ring conformer: 84.20336334538194 kcal/mol)

>  <smiles>  (13) 
O=S(=O)(Nc1cc2c(cc1O)CNCC2)c1ccc2c(c1)CCN(Cc1ccc(O)cc1)CC2

>  <score_type>  (13) 
oracle

>  <origin>  (13) 
adgpu

>  <m_score__min__energy>  (13) 
-14.1

>  <m_primary>  (13) 
energy

$$$$
13:0
     RDKit          3D

 57 59  0  0  0  0  0  0  0  0999 V2000
   -5.5490   18.0150  -33.7970 C   0  0  0  0  0  0  0  0  0  0  0  0
   -5.9020   18.6760  -32.5850 O   0  0  0  0  0  0  0  0  0  0  0  0
   -7.0570   19.4470  -32.3960 C   0  0  0  0  0  0  0  0  0  0  0  0
   -8.3420   18.8910  -32.5470 C   0  0  0  0  0  0  0  0  0  0  0  0
   -9.4780   19.6910  -32.4140 C   0  0  0  0  0  0  0  0  0  0  0  0
   -9.3520   21.0490  -32.1290 C   0  0  0  0  0  0  0  0  0  0  0  0
   -8.0820   21.6250  -31.9640 C   0  0  0  0  0  0  0  0  0  0  0  0
   -7.9740   23.0950  -31.6150 C   0  0  0  0  0  0  0  0  0  0  0  0
   -6.7120   23.4100  -30.9240 N   0  0  0  0  0  0  0  0  0  0  0  0
   -6.8160   24.6380  -30.1120 C   0  0  0  0  0  0  0  0  0  0  0  0
   -5.6410   25.5840  -30.3880 C   0  0  0  0  0  0  0  0  0  0  0  0
   -4.6650   24.9500  -31.1720 O   0  0  0  0  0  0  0  0  0  0  0  0
   -6.9290   20.8180  -32.0770 C   0  0  0  0  0  0  0  0  0  0  0  0
   -5.6710   21.4110  -31.8830 O   0  0  0  0  0  0  0  0  0  0  0  0
   -4.5430   21.1880  -32.7300 C   0  0  0  0  0  0  0  0  0  0  0  0
   -3.2550   21.4810  -32.0110 C   0  0  0  0  0  0  0  0  0  0  0  0
   -2.0930   20.7520  -32.3100 C   0  0  0  0  0  0  0  0  0  0  0  0
   -0.9000   21.0220  -31.6340 C   0  0  0  0  0  0  0  0  0  0  0  0
   -0.8530   22.0280  -30.6640 C   0  0  0  0  0  0  0  0  0  0  0  0
   -1.9990   22.7910  -30.3790 C   0  0  0  0  0  0  0  0  0  0  0  0
   -1.9570   23.8350  -29.3350 C   0  0  0  0  0  0  0  0  0  0  0  0
   -2.4830   24.9590  -29.5680 O   0  0  0  0  0  0  0  0  0  0  0  0
   -1.3220   23.5990  -28.0660 N   0  0  0  0  0  0  0  0  0  0  0  0
   -1.4060   22.3360  -27.3520 C   0  0  0  0  0  0  0  0  0  0  0  0
   -0.6660   22.5560  -26.0400 C   0  0  0  0  0  0  0  0  0  0  0  0
   -0.5150   24.0680  -25.8850 C   0  0  0  0  0  0  0  0  0  0  0  0
   -0.7380   24.6630  -27.2690 C   0  0  0  0  0  0  0  0  0  0  0  0
   -3.1970   22.5100  -31.0550 C   0  0  0  0  0  0  0  0  0  0  0  0
   -5.0426   17.0668  -33.5635 H   0  0  0  0  0  0  0  0  0  0  0  0
   -6.4582   17.8109  -34.3816 H   0  0  0  0  0  0  0  0  0  0  0  0
   -4.8737   18.6571  -34.3816 H   0  0  0  0  0  0  0  0  0  0  0  0
   -8.4511   17.8196  -32.7711 H   0  0  0  0  0  0  0  0  0  0  0  0
  -10.4773   19.2473  -32.5347 H   0  0  0  0  0  0  0  0  0  0  0  0
  -10.2524   21.6735  -32.0327 H   0  0  0  0  0  0  0  0  0  0  0  0
   -8.0272   23.6844  -32.5423 H   0  0  0  0  0  0  0  0  0  0  0  0
   -8.8028   23.3433  -30.9357 H   0  0  0  0  0  0  0  0  0  0  0  0
   -6.4230   22.6040  -30.3210 H   0  0  0  0  0  0  0  0  0  0  0  0
   -5.9730   23.5530  -31.6530 H   0  0  0  0  0  0  0  0  0  0  0  0
   -7.7567   25.1525  -30.3577 H   0  0  0  0  0  0  0  0  0  0  0  0
   -6.7954   24.3564  -29.0488 H   0  0  0  0  0  0  0  0  0  0  0  0
   -6.0107   26.4724  -30.9210 H   0  0  0  0  0  0  0  0  0  0  0  0
   -5.1887   25.8742  -29.4282 H   0  0  0  0  0  0  0  0  0  0  0  0
   -4.1420   25.6730  -31.6100 H   0  0  0  0  0  0  0  0  0  0  0  0
   -4.5410   20.1372  -33.0553 H   0  0  0  0  0  0  0  0  0  0  0  0
   -4.6193   21.8625  -33.5956 H   0  0  0  0  0  0  0  0  0  0  0  0
   -2.1217   19.9658  -33.0788 H   0  0  0  0  0  0  0  0  0  0  0  0
    0.0050   20.4412  -31.8658 H   0  0  0  0  0  0  0  0  0  0  0  0
    0.0840   22.2232  -30.1219 H   0  0  0  0  0  0  0  0  0  0  0  0
   -2.4567   22.0726  -27.1605 H   0  0  0  0  0  0  0  0  0  0  0  0
   -0.9677   21.5109  -27.9326 H   0  0  0  0  0  0  0  0  0  0  0  0
   -1.2454   22.1426  -25.2013 H   0  0  0  0  0  0  0  0  0  0  0  0
    0.3124   22.0533  -26.0422 H   0  0  0  0  0  0  0  0  0  0  0  0
   -1.2639   24.4553  -25.1785 H   0  0  0  0  0  0  0  0  0  0  0  0
    0.4772   24.3327  -25.4907 H   0  0  0  0  0  0  0  0  0  0  0  0
   -1.4250   25.5202  -27.2116 H   0  0  0  0  0  0  0  0  0  0  0  0
    0.2011   25.0302  -27.7086 H   0  0  0  0  0  0  0  0  0  0  0  0
   -4.0985   23.1005  -30.8345 H   0  0  0  0  0  0  0  0  0  0  0  0
  1  2  1  0
  2  3  1  0
  3  4  2  0
  4  5  1  0
  5  6  2  0
  6  7  1  0
  7  8  1  0
  8  9  1  0
  9 10  1  0
 10 11  1  0
 11 12  1  0
  7 13  2  0
 13 14  1  0
 14 15  1  0
 15 16  1  0
 16 17  2  0
 17 18  1  0
 18 19  2  0
 19 20  1  0
 20 21  1  0
 21 22  2  0
 21 23  1  0
 23 24  1  0
 24 25  1  0
 25 26  1  0
 26 27  1  0
 20 28  2  0
 13  3  1  0
 28 16  1  0
 27 23  1  0
  1 29  1  0
  1 30  1  0
  1 31  1  0
  4 32  1  0
  5 33  1  0
  6 34  1  0
  8 35  1  0
  8 36  1  0
  9 37  1  0
  9 38  1  0
 10 39  1  0
 10 40  1  0
 11 41  1  0
 11 42  1  0
 12 43  1  0
 15 44  1  0
 15 45  1  0
 17 46  1  0
 18 47  1  0
 19 48  1  0
 24 49  1  0
 24 50  1  0
 25 51  1  0
 25 52  1  0
 26 53  1  0
 26 54  1  0
 27 55  1  0
 27 56  1  0
 28 57  1  0
M  CHG  1   9   1
M  END
>  <UniqueID>  (14) 
14

>  <SMILES>  (14) 
COc1cccc(C[NH2+]CCO)c1OCc1cccc(C(=O)N2CCCC2)c1

>  <Energy>  (14) 
63.929941342793875

>  <Genealogy>  (14) 
COc1cccc(C[NH2+]CCO)c1OCc1cccc(C(=O)N2CCCC2)c1 (protonated)
COc1cccc(C[NH2+]CCO)c1OCc1cccc(C(=O)N2CCCC2)c1 (3D coordinates assigned)
COc1cccc(C[NH2+]CCO)c1OCc1cccc(C(=O)N2CCCC2)c1 (nonaromatic ring conformer: 63.929941342793875 kcal/mol)

>  <smiles>  (14) 
COc1cccc(CNCCO)c1OCc1cccc(C(=O)N2CCCC2)c1

>  <score_type>  (14) 
oracle

>  <origin>  (14) 
adgpu

>  <m_score__min__energy>  (14) 
-8.1300000000000008

>  <m_primary>  (14) 
energy

$$$$
14:0
     RDKit          3D

 37 39  0  0  0  0  0  0  0  0999 V2000
   -0.9410   21.8540  -27.8830 O   0  0  0  0  0  0  0  0  0  0  0  0
   -1.1940   23.0350  -28.2380 C   0  0  0  0  0  0  0  0  0  0  0  0
   -2.2610   23.2970  -29.0980 C   0  0  0  0  0  0  0  0  0  0  0  0
   -2.5070   24.6250  -29.4800 C   0  0  0  0  0  0  0  0  0  0  0  0
   -3.6080   24.9700  -30.3350 N   0  0  0  0  0  0  0  0  0  0  0  0
   -4.7800   24.1590  -30.5250 C   0  0  0  0  0  0  0  0  0  0  0  0
   -5.7750   24.1440  -29.5370 C   0  0  0  0  0  0  0  0  0  0  0  0
   -6.9340   23.3830  -29.7120 C   0  0  0  0  0  0  0  0  0  0  0  0
   -7.1220   22.6440  -30.8870 C   0  0  0  0  0  0  0  0  0  0  0  0
   -8.5680   21.6610  -31.1020 S   0  0  0  0  0  0  0  0  0  0  0  0
   -9.2550   22.0670  -32.3760 O   0  0  0  0  0  0  0  0  0  0  0  0
   -9.5140   21.8920  -29.9540 O   0  0  0  0  0  0  0  0  0  0  0  0
   -8.1130   19.9800  -31.1950 N   0  0  0  0  0  0  0  0  0  0  0  0
   -8.8680   19.2810  -32.2330 C   0  0  0  0  0  0  0  0  0  0  0  0
   -7.9980   18.1230  -32.6970 C   0  0  0  0  0  0  0  0  0  0  0  0
   -6.5850   18.4820  -32.2640 C   0  0  0  0  0  0  0  0  0  0  0  0
   -6.7070   19.8280  -31.5660 C   0  0  0  0  0  0  0  0  0  0  0  0
   -6.1390   22.6700  -31.8850 C   0  0  0  0  0  0  0  0  0  0  0  0
   -4.9800   23.4310  -31.7110 C   0  0  0  0  0  0  0  0  0  0  0  0
   -1.7240   25.6160  -28.9740 N   0  0  0  0  0  0  0  0  0  0  0  0
   -0.6900   25.3410  -28.1370 C   0  0  0  0  0  0  0  0  0  0  0  0
    0.0240   26.2760  -27.6930 O   0  0  0  0  0  0  0  0  0  0  0  0
   -0.4290   24.0580  -27.7770 N   0  0  0  0  0  0  0  0  0  0  0  0
   -2.8965   22.4794  -29.4691 H   0  0  0  0  0  0  0  0  0  0  0  0
   -3.5470   25.8740  -30.8570 H   0  0  0  0  0  0  0  0  0  0  0  0
   -5.6424   24.7348  -28.6187 H   0  0  0  0  0  0  0  0  0  0  0  0
   -7.7014   23.3643  -28.9242 H   0  0  0  0  0  0  0  0  0  0  0  0
   -9.8163   18.9030  -31.8233 H   0  0  0  0  0  0  0  0  0  0  0  0
   -9.1113   19.9542  -33.0682 H   0  0  0  0  0  0  0  0  0  0  0  0
   -8.3199   17.1849  -32.2213 H   0  0  0  0  0  0  0  0  0  0  0  0
   -8.0666   17.9692  -33.7840 H   0  0  0  0  0  0  0  0  0  0  0  0
   -6.1901   17.7238  -31.5718 H   0  0  0  0  0  0  0  0  0  0  0  0
   -5.8935   18.5251  -33.1184 H   0  0  0  0  0  0  0  0  0  0  0  0
   -6.0730   19.8484  -30.6673 H   0  0  0  0  0  0  0  0  0  0  0  0
   -6.3793   20.6469  -32.2232 H   0  0  0  0  0  0  0  0  0  0  0  0
   -6.2800   22.0894  -32.8086 H   0  0  0  0  0  0  0  0  0  0  0  0
   -4.2203   23.4606  -32.5060 H   0  0  0  0  0  0  0  0  0  0  0  0
  1  2  2  0
  2  3  1  0
  3  4  2  0
  4  5  1  0
  5  6  1  0
  6  7  2  0
  7  8  1  0
  8  9  2  0
  9 10  1  0
 10 11  2  0
 10 12  2  0
 10 13  1  0
 13 14  1  0
 14 15  1  0
 15 16  1  0
 16 17  1  0
  9 18  1  0
 18 19  2  0
  4 20  1  0
 20 21  1  0
 21 22  2  0
 21 23  1  0
 23  2  1  0
 19  6  1  0
 17 13  1  0
  3 24  1  0
  5 25  1  0
  7 26  1  0
  8 27  1  0
 14 28  1  0
 14 29  1  0
 15 30  1  0
 15 31  1  0
 16 32  1  0
 16 33  1  0
 17 34  1  0
 17 35  1  0
 18 36  1  0
 19 37  1  0
M  CHG  2  20  -1  23  -1
M  END
>  <UniqueID>  (15) 
15

>  <SMILES>  (15) 
O=c1cc(Nc2ccc(S(=O)(=O)N3CCCC3)cc2)[n-]c(=O)[n-]1

>  <Energy>  (15) 
45.35277730297585

>  <Genealogy>  (15) 
O=c1cc(Nc2ccc(S(=O)(=O)N3CCCC3)cc2)[n-]c(=O)[n-]1 (protonated)
O=c1cc(Nc2ccc(S(=O)(=O)N3CCCC3)cc2)[n-]c(=O)[n-]1 (3D coordinates assigned)
O=c1cc(Nc2ccc(S(=O)(=O)N3CCCC3)cc2)[n-]c(=O)[n-]1 (nonaromatic ring conformer: 45.35277730297585 kcal/mol)

>  <smiles>  (15) 
O=c1cc(Nc2ccc(S(=O)(=O)N3CCCC3)cc2)[nH]c(=O)[nH]1

>  <score_type>  (15) 
oracle

>  <origin>  (15) 
adgpu

>  <m_score__min__energy>  (15) 
-11.76

>  <m_primary>  (15) 
energy

$$$$
15:0
     RDKit          3D

 53 56  0  0  0  0  0  0  0  0999 V2000
   -6.2786   16.5694  -33.7232 H   0  0  0  0  0  0  0  0  0  0  0  0
   -6.6090   17.5930  -33.4930 C   0  0  0  0  0  0  0  0  0  0  0  0
   -7.5510   17.8600  -32.5500 N   0  0  0  0  0  0  0  0  0  0  0  0
   -7.7920   19.1820  -32.4470 C   0  0  0  0  0  0  0  0  0  0  0  0
   -8.6560   19.6660  -31.6080 N   0  0  0  0  0  0  0  0  0  0  0  0
   -9.0070   21.3560  -31.4320 S   0  0  0  0  0  0  0  0  0  0  0  0
   -9.8750   21.5540  -30.2200 O   0  0  0  0  0  0  0  0  0  0  0  0
   -9.7170   21.8650  -32.6550 O   0  0  0  0  0  0  0  0  0  0  0  0
   -7.4980   22.2400  -31.2350 C   0  0  0  0  0  0  0  0  0  0  0  0
   -6.3390   21.5610  -30.8370 C   0  0  0  0  0  0  0  0  0  0  0  0
   -6.3765   20.4788  -30.6436 H   0  0  0  0  0  0  0  0  0  0  0  0
   -5.1350   22.2550  -30.6850 C   0  0  0  0  0  0  0  0  0  0  0  0
   -4.2319   21.7175  -30.3603 H   0  0  0  0  0  0  0  0  0  0  0  0
   -5.0710   23.6280  -30.9430 C   0  0  0  0  0  0  0  0  0  0  0  0
   -3.8470   24.2910  -30.7620 O   0  0  0  0  0  0  0  0  0  0  0  0
   -2.9510   24.0710  -29.7070 C   0  0  0  0  0  0  0  0  0  0  0  0
   -3.3090   24.4930  -28.4210 C   0  0  0  0  0  0  0  0  0  0  0  0
   -4.2741   24.9957  -28.2599 H   0  0  0  0  0  0  0  0  0  0  0  0
   -2.4490   24.2800  -27.3410 C   0  0  0  0  0  0  0  0  0  0  0  0
   -2.7345   24.6271  -26.3370 H   0  0  0  0  0  0  0  0  0  0  0  0
   -1.2240   23.6260  -27.5310 C   0  0  0  0  0  0  0  0  0  0  0  0
   -0.1440   23.3480  -26.1620 S   0  0  0  0  0  0  0  0  0  0  0  0
    1.1820   22.8590  -26.6740 O   0  0  0  0  0  0  0  0  0  0  0  0
   -0.7260   22.2790  -25.2790 O   0  0  0  0  0  0  0  0  0  0  0  0
    0.0990   24.8040  -25.2290 N   0  0  0  0  0  0  0  0  0  0  0  0
    1.5170   24.9670  -24.8900 C   0  0  0  0  0  0  0  0  0  0  0  0
    2.0867   25.1961  -25.8027 H   0  0  0  0  0  0  0  0  0  0  0  0
    1.8930   24.0351  -24.4426 H   0  0  0  0  0  0  0  0  0  0  0  0
    1.6830   26.1200  -23.8800 C   0  0  0  0  0  0  0  0  0  0  0  0
    2.6652   26.5877  -24.0428 H   0  0  0  0  0  0  0  0  0  0  0  0
    1.5915   25.6863  -22.8733 H   0  0  0  0  0  0  0  0  0  0  0  0
    0.6380   27.1650  -24.0040 N   0  0  0  0  0  0  0  0  0  0  0  0
   -0.4620   26.9720  -23.0430 C   0  0  0  0  0  0  0  0  0  0  0  0
   -0.0695   27.0409  -22.0177 H   0  0  0  0  0  0  0  0  0  0  0  0
   -1.2241   27.7502  -23.1969 H   0  0  0  0  0  0  0  0  0  0  0  0
   -0.9137   25.9809  -23.1969 H   0  0  0  0  0  0  0  0  0  0  0  0
    0.1430   27.3040  -25.3880 C   0  0  0  0  0  0  0  0  0  0  0  0
    0.9716   27.6471  -26.0250 H   0  0  0  0  0  0  0  0  0  0  0  0
   -0.6858   28.0271  -25.3727 H   0  0  0  0  0  0  0  0  0  0  0  0
   -0.4060   25.9780  -25.9630 C   0  0  0  0  0  0  0  0  0  0  0  0
   -0.1015   25.8954  -27.0168 H   0  0  0  0  0  0  0  0  0  0  0  0
   -1.5014   25.9938  -25.8641 H   0  0  0  0  0  0  0  0  0  0  0  0
   -0.8690   23.1860  -28.8140 C   0  0  0  0  0  0  0  0  0  0  0  0
    0.0903   22.6711  -28.9707 H   0  0  0  0  0  0  0  0  0  0  0  0
   -1.7290   23.3990  -29.8940 C   0  0  0  0  0  0  0  0  0  0  0  0
   -1.4496   23.0397  -30.8954 H   0  0  0  0  0  0  0  0  0  0  0  0
   -6.2380   24.3120  -31.3270 C   0  0  0  0  0  0  0  0  0  0  0  0
   -6.2036   25.3967  -31.5068 H   0  0  0  0  0  0  0  0  0  0  0  0
   -7.4420   23.6180  -31.4810 C   0  0  0  0  0  0  0  0  0  0  0  0
   -8.3483   24.1558  -31.7964 H   0  0  0  0  0  0  0  0  0  0  0  0
   -6.8460   20.0760  -33.5200 S   0  0  0  0  0  0  0  0  0  0  0  0
   -6.0930   18.7080  -34.1460 C   0  0  0  0  0  0  0  0  0  0  0  0
   -5.3261   18.6970  -34.9345 H   0  0  0  0  0  0  0  0  0  0  0  0
  1  2  1  0
  2  3  1  0
  3  4  1  0
  4  5  2  0
  5  6  1  0
  6  7  2  0
  6  8  2  0
  6  9  1  0
  9 10  2  0
 10 11  1  0
 10 12  1  0
 12 13  1  0
 12 14  2  0
 14 15  1  0
 15 16  1  0
 16 17  2  0
 17 18  1  0
 17 19  1  0
 19 20  1  0
 19 21  2  0
 21 22  1  0
 22 23  2  0
 22 24  2  0
 22 25  1  0
 25 26  1  0
 26 27  1  0
 26 28  1  0
 26 29  1  0
 29 30  1  0
 29 31  1  0
 29 32  1  0
 32 33  1  0
 33 34  1  0
 33 35  1  0
 33 36  1  0
 32 37  1  0
 37 38  1  0
 37 39  1  0
 37 40  1  0
 40 41  1  0
 40 42  1  0
 21 43  1  0
 43 44  1  0
 43 45  2  0
 45 46  1  0
 14 47  1  0
 47 48  1  0
 47 49  2  0
 49 50  1  0
  4 51  1  0
 51 52  1  0
 52 53  1  0
 52  2  2  0
 49  9  1  0
 45 16  1  0
 40 25  1  0
M  CHG  1   3  -1
M  END
>  <UniqueID>  (16) 
16

>  <SMILES>  (16) 
CN1CCN(S(=O)(=O)c2ccc(Oc3ccc(S(=O)(=O)/N=c4/[n-]ccs4)cc3)cc2)CC1

>  <Energy>  (16) 
105.66392605399008

>  <Genealogy>  (16) 
CN1CCN(S(=O)(=O)c2ccc(Oc3ccc(S(=O)(=O)N=c4[n-]ccs4)cc3)cc2)CC1 (protonated)
CN1CCN(S(=O)(=O)c2ccc(Oc3ccc(S(=O)(=O)/N=c4/[n-]ccs4)cc3)cc2)CC1 (cis-trans isomerization)
CN1CCN(S(=O)(=O)c2ccc(Oc3ccc(S(=O)(=O)/N=c4/[n-]ccs4)cc3)cc2)CC1 (3D coordinates assigned)
CN1CCN(S(=O)(=O)c2ccc(Oc3ccc(S(=O)(=O)/N=c4/[n-]ccs4)cc3)cc2)CC1 (nonaromatic ring conformer: 105.66392605399008 kcal/mol)

>  <smiles>  (16) 
CN1CCN(S(=O)(=O)c2ccc(Oc3ccc(S(=O)(=O)N=c4[nH]ccs4)cc3)cc2)CC1

>  <score_type>  (16) 
oracle

>  <origin>  (16) 
adgpu

>  <m_score__min__energy>  (16) 
-10.359999999999999

>  <m_primary>  (16) 
energy

$$$$
16:0
     RDKit          3D

 51 53  0  0  0  0  0  0  0  0999 V2000
   -8.6790   19.1120  -32.3820 C   0  0  0  0  0  0  0  0  0  0  0  0
   -7.5560   19.5980  -33.1080 O   0  0  0  0  0  0  0  0  0  0  0  0
   -6.4040   18.8470  -33.3950 C   0  0  0  0  0  0  0  0  0  0  0  0
   -6.4730   17.6340  -34.1060 C   0  0  0  0  0  0  0  0  0  0  0  0
   -5.3180   16.8880  -34.3530 C   0  0  0  0  0  0  0  0  0  0  0  0
   -4.0690   17.3500  -33.9130 C   0  0  0  0  0  0  0  0  0  0  0  0
   -2.8690   16.5920  -34.1200 N   0  0  0  0  0  0  0  0  0  0  0  0
   -1.6590   17.0540  -34.7340 C   0  0  0  0  0  0  0  0  0  0  0  0
   -0.9440   18.2830  -34.2610 C   0  0  0  0  0  0  0  0  0  0  0  0
   -1.1630   16.3860  -35.6790 O   0  0  0  0  0  0  0  0  0  0  0  0
   -3.9960   18.5430  -33.1870 C   0  0  0  0  0  0  0  0  0  0  0  0
   -5.1500   19.3090  -32.9380 C   0  0  0  0  0  0  0  0  0  0  0  0
   -5.0270   20.5850  -32.1940 C   0  0  0  0  0  0  0  0  0  0  0  0
   -6.1140   21.0910  -31.4580 C   0  0  0  0  0  0  0  0  0  0  0  0
   -5.9980   22.3020  -30.7700 C   0  0  0  0  0  0  0  0  0  0  0  0
   -4.8010   23.0270  -30.8130 C   0  0  0  0  0  0  0  0  0  0  0  0
   -4.6570   24.5620  -29.9650 S   0  0  0  0  0  0  0  0  0  0  0  0
   -6.0320   25.0810  -29.6530 O   0  0  0  0  0  0  0  0  0  0  0  0
   -3.9380   25.5720  -30.8150 O   0  0  0  0  0  0  0  0  0  0  0  0
   -3.7800   24.3410  -28.4830 N   0  0  0  0  0  0  0  0  0  0  0  0
   -3.1080   23.1160  -28.1220 C   0  0  0  0  0  0  0  0  0  0  0  0
   -3.8390   21.9230  -27.9530 C   0  0  0  0  0  0  0  0  0  0  0  0
   -3.2020   20.7410  -27.5720 C   0  0  0  0  0  0  0  0  0  0  0  0
   -1.8280   20.7280  -27.3500 C   0  0  0  0  0  0  0  0  0  0  0  0
   -1.0830   21.8960  -27.5150 C   0  0  0  0  0  0  0  0  0  0  0  0
   -1.7060   23.0940  -27.9030 C   0  0  0  0  0  0  0  0  0  0  0  0
   -0.7020   24.5350  -28.1300 S   0  0  0  0  0  0  0  0  0  0  0  0
   -1.6080   25.7440  -28.9700 N   0  0  0  0  0  0  0  0  0  0  0  0
   -0.2730   25.0890  -26.7990 O   0  0  0  0  0  0  0  0  0  0  0  0
    0.5270   24.1760  -28.9170 O   0  0  0  0  0  0  0  0  0  0  0  0
   -3.7160   22.5280  -31.5450 C   0  0  0  0  0  0  0  0  0  0  0  0
   -3.8280   21.3170  -32.2340 C   0  0  0  0  0  0  0  0  0  0  0  0
   -8.4827   19.1969  -31.3030 H   0  0  0  0  0  0  0  0  0  0  0  0
   -9.5679   19.7059  -32.6409 H   0  0  0  0  0  0  0  0  0  0  0  0
   -8.8545   18.0574  -32.6409 H   0  0  0  0  0  0  0  0  0  0  0  0
   -7.4451   17.2703  -34.4704 H   0  0  0  0  0  0  0  0  0  0  0  0
   -5.3885   15.9335  -34.8953 H   0  0  0  0  0  0  0  0  0  0  0  0
   -0.9337   18.3008  -33.1612 H   0  0  0  0  0  0  0  0  0  0  0  0
    0.0896   18.2736  -34.6373 H   0  0  0  0  0  0  0  0  0  0  0  0
   -1.4631   19.1769  -34.6373 H   0  0  0  0  0  0  0  0  0  0  0  0
   -3.0234   18.8873  -32.8054 H   0  0  0  0  0  0  0  0  0  0  0  0
   -7.0600   20.5307  -31.4239 H   0  0  0  0  0  0  0  0  0  0  0  0
   -6.8510   22.6873  -30.1921 H   0  0  0  0  0  0  0  0  0  0  0  0
   -3.7590   25.1620  -27.8420 H   0  0  0  0  0  0  0  0  0  0  0  0
   -4.9257   21.9234  -28.1236 H   0  0  0  0  0  0  0  0  0  0  0  0
   -3.7870   19.8179  -27.4469 H   0  0  0  0  0  0  0  0  0  0  0  0
   -1.3293   19.7964  -27.0443 H   0  0  0  0  0  0  0  0  0  0  0  0
    0.0028   21.8788  -27.3396 H   0  0  0  0  0  0  0  0  0  0  0  0
   -2.0230   25.2840  -29.8120 H   0  0  0  0  0  0  0  0  0  0  0  0
   -2.7719   23.0915  -31.5778 H   0  0  0  0  0  0  0  0  0  0  0  0
   -2.9729   20.9348  -32.8108 H   0  0  0  0  0  0  0  0  0  0  0  0
  1  2  1  0
  2  3  1  0
  3  4  2  0
  4  5  1  0
  5  6  2  0
  6  7  1  0
  7  8  1  0
  8  9  1  0
  8 10  2  0
  6 11  1  0
 11 12  2  0
 12 13  1  0
 13 14  2  0
 14 15  1  0
 15 16  2  0
 16 17  1  0
 17 18  2  0
 17 19  2  0
 17 20  1  0
 20 21  1  0
 21 22  2  0
 22 23  1  0
 23 24  2  0
 24 25  1  0
 25 26  2  0
 26 27  1  0
 27 28  1  0
 27 29  2  0
 27 30  2  0
 16 31  1  0
 31 32  2  0
 12  3  1  0
 32 13  1  0
 26 21  1  0
  1 33  1  0
  1 34  1  0
  1 35  1  0
  4 36  1  0
  5 37  1  0
  9 38  1  0
  9 39  1  0
  9 40  1  0
 11 41  1  0
 14 42  1  0
 15 43  1  0
 20 44  1  0
 22 45  1  0
 23 46  1  0
 24 47  1  0
 25 48  1  0
 28 49  1  0
 31 50  1  0
 32 51  1  0
M  CHG  2   7  -1  28  -1
M  END
>  <UniqueID>  (17) 
17

>  <SMILES>  (17) 
COc1ccc([N-]C(C)=O)cc1-c1ccc(S(=O)(=O)Nc2ccccc2S([NH-])(=O)=O)cc1

>  <Energy>  (17) 
67.89286446015724

>  <Genealogy>  (17) 
COc1ccc([N-]C(C)=O)cc1-c1ccc(S(=O)(=O)Nc2ccccc2S([NH-])(=O)=O)cc1 (protonated)
COc1ccc([N-]C(C)=O)cc1-c1ccc(S(=O)(=O)Nc2ccccc2S([NH-])(=O)=O)cc1 (3D coordinates assigned)
COc1ccc([N-]C(C)=O)cc1-c1ccc(S(=O)(=O)Nc2ccccc2S([NH-])(=O)=O)cc1 (optimized conformer: 67.89286446015724 kcal/mol)

>  <smiles>  (17) 
COc1ccc(NC(C)=O)cc1-c1ccc(S(=O)(=O)Nc2ccccc2S(N)(=O)=O)cc1

>  <score_type>  (17) 
oracle

>  <origin>  (17) 
adgpu

>  <m_score__min__energy>  (17) 
-12.57

>  <m_primary>  (17) 
energy

$$$$
17:0
     RDKit          3D

 59 62  0  0  0  0  0  0  0  0999 V2000
   -4.1290   24.6210  -27.4620 O   0  0  0  0  0  0  0  0  0  0  0  0
   -3.5340   23.9520  -28.6690 S   0  0  0  0  0  0  0  0  0  0  0  0
   -2.6060   24.9210  -29.3470 O   0  0  0  0  0  0  0  0  0  0  0  0
   -4.8590   23.5540  -29.7960 C   0  0  0  0  0  0  0  0  0  0  0  0
   -4.9460   22.2790  -30.3870 C   0  0  0  0  0  0  0  0  0  0  0  0
   -5.9720   21.9680  -31.2920 C   0  0  0  0  0  0  0  0  0  0  0  0
   -6.0610   20.5850  -31.8810 C   0  0  0  0  0  0  0  0  0  0  0  0
   -4.9200   20.3900  -33.2950 S   0  0  0  0  0  0  0  0  0  0  0  0
   -5.2960   18.6530  -33.5690 C   0  0  0  0  0  0  0  0  0  0  0  0
   -6.5210   18.1510  -33.1050 C   0  0  0  0  0  0  0  0  0  0  0  0
   -6.8470   16.8050  -33.2840 C   0  0  0  0  0  0  0  0  0  0  0  0
   -5.9430   15.9470  -33.9100 C   0  0  0  0  0  0  0  0  0  0  0  0
   -4.7140   16.4310  -34.3630 C   0  0  0  0  0  0  0  0  0  0  0  0
   -4.3830   17.7930  -34.2180 C   0  0  0  0  0  0  0  0  0  0  0  0
   -3.0990   18.2820  -34.6480 N   0  0  0  0  0  0  0  0  0  0  0  0
   -2.2500   19.1260  -33.8550 C   0  0  0  0  0  0  0  0  0  0  0  0
   -1.2430   20.1670  -34.6320 S   0  0  0  0  0  0  0  0  0  0  0  0
   -2.2720   19.0370  -32.4150 N   0  0  0  0  0  0  0  0  0  0  0  0
   -1.5480   19.9060  -31.5310 C   0  0  0  0  0  0  0  0  0  0  0  0
   -0.6390   19.3940  -30.5900 C   0  0  0  0  0  0  0  0  0  0  0  0
    0.0280   20.2540  -29.7120 C   0  0  0  0  0  0  0  0  0  0  0  0
   -0.2210   21.6280  -29.7560 C   0  0  0  0  0  0  0  0  0  0  0  0
   -1.1480   22.1420  -30.6660 C   0  0  0  0  0  0  0  0  0  0  0  0
   -1.8170   21.2810  -31.5450 C   0  0  0  0  0  0  0  0  0  0  0  0
   -6.9260   22.9400  -31.6100 C   0  0  0  0  0  0  0  0  0  0  0  0
   -6.8720   24.1970  -31.0110 C   0  0  0  0  0  0  0  0  0  0  0  0
   -5.8610   24.5100  -30.0960 C   0  0  0  0  0  0  0  0  0  0  0  0
   -5.8990   25.7740  -29.5010 O   0  0  0  0  0  0  0  0  0  0  0  0
   -2.5670   22.5980  -28.1260 N   0  0  0  0  0  0  0  0  0  0  0  0
   -1.5700   22.9980  -27.1130 C   0  0  0  0  0  0  0  0  0  0  0  0
   -1.2090   21.8370  -26.1810 C   0  0  0  0  0  0  0  0  0  0  0  0
   -1.2380   20.6300  -26.9040 O   0  0  0  0  0  0  0  0  0  0  0  0
   -2.5820   20.2770  -27.1790 C   0  0  0  0  0  0  0  0  0  0  0  0
   -3.4080   21.4350  -27.7830 C   0  0  0  0  0  0  0  0  0  0  0  0
   -4.1970   21.5139  -30.1349 H   0  0  0  0  0  0  0  0  0  0  0  0
   -5.8008   19.8484  -31.1066 H   0  0  0  0  0  0  0  0  0  0  0  0
   -7.0886   20.4263  -32.2400 H   0  0  0  0  0  0  0  0  0  0  0  0
   -7.2293   18.8219  -32.5969 H   0  0  0  0  0  0  0  0  0  0  0  0
   -7.8160   16.4217  -32.9316 H   0  0  0  0  0  0  0  0  0  0  0  0
   -6.1989   14.8860  -34.0473 H   0  0  0  0  0  0  0  0  0  0  0  0
   -3.9982   15.7433  -34.8370 H   0  0  0  0  0  0  0  0  0  0  0  0
   -2.7950   18.0730  -35.6260 H   0  0  0  0  0  0  0  0  0  0  0  0
   -2.9440   18.3740  -31.9690 H   0  0  0  0  0  0  0  0  0  0  0  0
   -0.4511   18.3112  -30.5437 H   0  0  0  0  0  0  0  0  0  0  0  0
    0.7488   19.8487  -28.9866 H   0  0  0  0  0  0  0  0  0  0  0  0
    0.3132   22.3055  -29.0737 H   0  0  0  0  0  0  0  0  0  0  0  0
   -1.3524   23.2225  -30.6921 H   0  0  0  0  0  0  0  0  0  0  0  0
   -2.5576   21.6864  -32.2501 H   0  0  0  0  0  0  0  0  0  0  0  0
   -7.7212   22.7116  -32.3350 H   0  0  0  0  0  0  0  0  0  0  0  0
   -7.6327   24.9515  -31.2603 H   0  0  0  0  0  0  0  0  0  0  0  0
   -5.3820   26.0170  -28.6690 H   0  0  0  0  0  0  0  0  0  0  0  0
   -0.6587   23.3396  -27.6257 H   0  0  0  0  0  0  0  0  0  0  0  0
   -2.0059   23.8032  -26.5033 H   0  0  0  0  0  0  0  0  0  0  0  0
   -0.2004   21.9952  -25.7715 H   0  0  0  0  0  0  0  0  0  0  0  0
   -1.9355   21.7886  -25.3564 H   0  0  0  0  0  0  0  0  0  0  0  0
   -2.5838   19.4386  -27.8911 H   0  0  0  0  0  0  0  0  0  0  0  0
   -3.0505   20.0086  -26.2206 H   0  0  0  0  0  0  0  0  0  0  0  0
   -3.9065   21.0765  -28.6957 H   0  0  0  0  0  0  0  0  0  0  0  0
   -4.1402   21.7578  -27.0283 H   0  0  0  0  0  0  0  0  0  0  0  0
  1  2  2  0
  2  3  2  0
  2  4  1  0
  4  5  2  0
  5  6  1  0
  6  7  1  0
  7  8  1  0
  8  9  1  0
  9 10  2  0
 10 11  1  0
 11 12  2  0
 12 13  1  0
 13 14  2  0
 14 15  1  0
 15 16  1  0
 16 17  2  0
 16 18  1  0
 18 19  1  0
 19 20  2  0
 20 21  1  0
 21 22  2  0
 22 23  1  0
 23 24  2  0
  6 25  2  0
 25 26  1  0
 26 27  2  0
 27 28  1  0
  2 29  1  0
 29 30  1  0
 30 31  1  0
 31 32  1  0
 32 33  1  0
 33 34  1  0
 27  4  1  0
 34 29  1  0
 14  9  1  0
 24 19  1  0
  5 35  1  0
  7 36  1  0
  7 37  1  0
 10 38  1  0
 11 39  1  0
 12 40  1  0
 13 41  1  0
 15 42  1  0
 18 43  1  0
 20 44  1  0
 21 45  1  0
 22 46  1  0
 23 47  1  0
 24 48  1  0
 25 49  1  0
 26 50  1  0
 28 51  1  0
 30 52  1  0
 30 53  1  0
 31 54  1  0
 31 55  1  0
 33 56  1  0
 33 57  1  0
 34 58  1  0
 34 59  1  0
M  END
>  <UniqueID>  (18) 
18

>  <SMILES>  (18) 
O=S(=O)(c1cc(CSc2ccccc2NC(=S)Nc2ccccc2)ccc1O)N1CCOCC1

>  <Energy>  (18) 
77.09504323442015

>  <Genealogy>  (18) 
O=S(=O)(c1cc(CSc2ccccc2NC(=S)Nc2ccccc2)ccc1O)N1CCOCC1 (3D coordinates assigned)
O=S(=O)(c1cc(CSc2ccccc2NC(=S)Nc2ccccc2)ccc1O)N1CCOCC1 (nonaromatic ring conformer: 77.09504323442015 kcal/mol)

>  <smiles>  (18) 
O=S(=O)(c1cc(CSc2ccccc2NC(=S)Nc2ccccc2)ccc1O)N1CCOCC1

>  <score_type>  (18) 
oracle

>  <origin>  (18) 
adgpu

>  <m_score__min__energy>  (18) 
-10.58

>  <m_primary>  (18) 
energy

$$$$
18:0
     RDKit          3D

 49 52  0  0  0  0  0  0  0  0999 V2000
   -4.5600   17.5980  -34.2860 C   0  0  0  0  0  0  0  0  0  0  0  0
   -4.9140   19.0840  -34.1610 C   0  0  0  0  0  0  0  0  0  0  0  0
   -6.4330   19.2860  -34.0970 C   0  0  0  0  0  0  0  0  0  0  0  0
   -4.2290   19.7110  -32.9610 C   0  0  0  0  0  0  0  0  0  0  0  0
   -4.9600   20.4420  -32.0060 C   0  0  0  0  0  0  0  0  0  0  0  0
   -4.3160   21.0140  -30.9050 C   0  0  0  0  0  0  0  0  0  0  0  0
   -2.9300   20.8640  -30.7340 C   0  0  0  0  0  0  0  0  0  0  0  0
   -2.2400   21.4790  -29.5720 C   0  0  0  0  0  0  0  0  0  0  0  0
   -1.7710   20.6630  -28.5370 C   0  0  0  0  0  0  0  0  0  0  0  0
   -1.1230   21.1810  -27.5060 O   0  0  0  0  0  0  0  0  0  0  0  0
   -0.8980   22.4820  -27.3740 C   0  0  0  0  0  0  0  0  0  0  0  0
   -0.1700   22.9230  -26.2660 C   0  0  0  0  0  0  0  0  0  0  0  0
    0.1000   24.2790  -26.0950 C   0  0  0  0  0  0  0  0  0  0  0  0
   -0.3860   25.2110  -27.0150 C   0  0  0  0  0  0  0  0  0  0  0  0
   -1.1410   24.8000  -28.1240 C   0  0  0  0  0  0  0  0  0  0  0  0
   -1.6440   25.8140  -28.9470 O   0  0  0  0  0  0  0  0  0  0  0  0
   -1.3750   23.4080  -28.3410 C   0  0  0  0  0  0  0  0  0  0  0  0
   -2.0310   22.8690  -29.4780 C   0  0  0  0  0  0  0  0  0  0  0  0
   -2.4270   23.6090  -30.4150 O   0  0  0  0  0  0  0  0  0  0  0  0
   -0.1110   26.5700  -26.8210 O   0  0  0  0  0  0  0  0  0  0  0  0
    0.3720   27.1080  -25.5820 C   0  0  0  0  0  0  0  0  0  0  0  0
    1.3320   28.2610  -25.9010 C   0  0  0  0  0  0  0  0  0  0  0  0
   -0.8230   27.6330  -24.7770 C   0  0  0  0  0  0  0  0  0  0  0  0
    1.1010   26.0610  -24.7600 C   0  0  0  0  0  0  0  0  0  0  0  0
    0.9200   24.7540  -24.9690 C   0  0  0  0  0  0  0  0  0  0  0  0
   -2.1980   20.1450  -31.6910 C   0  0  0  0  0  0  0  0  0  0  0  0
   -2.8410   19.5710  -32.7920 C   0  0  0  0  0  0  0  0  0  0  0  0
   -4.4557   17.1602  -33.2823 H   0  0  0  0  0  0  0  0  0  0  0  0
   -5.3588   17.0755  -34.8327 H   0  0  0  0  0  0  0  0  0  0  0  0
   -3.6114   17.4918  -34.8327 H   0  0  0  0  0  0  0  0  0  0  0  0
   -4.5442   19.5939  -35.0628 H   0  0  0  0  0  0  0  0  0  0  0  0
   -6.7532   19.3286  -33.0455 H   0  0  0  0  0  0  0  0  0  0  0  0
   -6.6992   20.2275  -34.5998 H   0  0  0  0  0  0  0  0  0  0  0  0
   -6.9360   18.4468  -34.5998 H   0  0  0  0  0  0  0  0  0  0  0  0
   -6.0465   20.5642  -32.1269 H   0  0  0  0  0  0  0  0  0  0  0  0
   -4.8987   21.5855  -30.1675 H   0  0  0  0  0  0  0  0  0  0  0  0
   -1.9430   19.5774  -28.5807 H   0  0  0  0  0  0  0  0  0  0  0  0
    0.1920   22.1955  -25.5246 H   0  0  0  0  0  0  0  0  0  0  0  0
   -2.0350   25.6730  -29.8650 H   0  0  0  0  0  0  0  0  0  0  0  0
    1.6995   28.7024  -24.9628 H   0  0  0  0  0  0  0  0  0  0  0  0
    2.1827   27.8791  -26.4845 H   0  0  0  0  0  0  0  0  0  0  0  0
    0.8023   29.0284  -26.4845 H   0  0  0  0  0  0  0  0  0  0  0  0
   -0.6103   27.5396  -23.7018 H   0  0  0  0  0  0  0  0  0  0  0  0
   -0.9967   28.6903  -25.0259 H   0  0  0  0  0  0  0  0  0  0  0  0
   -1.7192   27.0457  -25.0259 H   0  0  0  0  0  0  0  0  0  0  0  0
    1.7961   26.3866  -23.9721 H   0  0  0  0  0  0  0  0  0  0  0  0
    1.3890   24.0248  -24.2920 H   0  0  0  0  0  0  0  0  0  0  0  0
   -1.1101   20.0320  -31.5742 H   0  0  0  0  0  0  0  0  0  0  0  0
   -2.2556   19.0053  -33.5318 H   0  0  0  0  0  0  0  0  0  0  0  0
  1  2  1  0
  2  3  1  0
  2  4  1  0
  4  5  2  0
  5  6  1  0
  6  7  2  0
  7  8  1  0
  8  9  2  0
  9 10  1  0
 10 11  1  0
 11 12  2  0
 12 13  1  0
 13 14  2  0
 14 15  1  0
 15 16  1  0
 15 17  2  0
 17 18  1  0
 18 19  2  0
 14 20  1  0
 20 21  1  0
 21 22  1  0
 21 23  1  0
 21 24  1  0
 24 25  2  0
  7 26  1  0
 26 27  2  0
 27  4  1  0
 18  8  1  0
 17 11  1  0
 25 13  1  0
  1 28  1  0
  1 29  1  0
  1 30  1  0
  2 31  1  0
  3 32  1  0
  3 33  1  0
  3 34  1  0
  5 35  1  0
  6 36  1  0
  9 37  1  0
 12 38  1  0
 16 39  1  0
 22 40  1  0
 22 41  1  0
 22 42  1  0
 23 43  1  0
 23 44  1  0
 23 45  1  0
 24 46  1  0
 25 47  1  0
 26 48  1  0
 27 49  1  0
M  END
>  <UniqueID>  (19) 
19

>  <SMILES>  (19) 
CC(C)c1ccc(-c2coc3cc4c(c(O)c3c2=O)OC(C)(C)C=C4)cc1

>  <Energy>  (19) 
66.69818021146403

>  <Genealogy>  (19) 
CC(C)c1ccc(-c2coc3cc4c(c(O)c3c2=O)OC(C)(C)C=C4)cc1 (3D coordinates assigned)
CC(C)c1ccc(-c2coc3cc4c(c(O)c3c2=O)OC(C)(C)C=C4)cc1 (nonaromatic ring conformer: 66.69818021146403 kcal/mol)

>  <smiles>  (19) 
CC(C)c1ccc(-c2coc3cc4c(c(O)c3c2=O)OC(C)(C)C=C4)cc1

>  <score_type>  (19) 
oracle

>  <origin>  (19) 
adgpu

>  <m_score__min__energy>  (19) 
-8.6500000000000004

>  <m_primary>  (19) 
energy

$$$$
19:0
     RDKit          3D

 73 77  0  0  0  0  0  0  0  0999 V2000
    4.5140   21.8610  -36.7800 C   0  0  0  0  0  0  0  0  0  0  0  0
    4.0180   21.1160  -37.9360 N   0  0  0  0  0  0  0  0  0  0  0  0
    3.8460   19.4300  -37.5290 S   0  0  0  0  0  0  0  0  0  0  0  0
    3.6270   18.6160  -38.7790 O   0  0  0  0  0  0  0  0  0  0  0  0
    5.1180   18.9680  -36.8690 O   0  0  0  0  0  0  0  0  0  0  0  0
    2.4980   19.2170  -36.4150 C   0  0  0  0  0  0  0  0  0  0  0  0
    2.5570   19.7530  -35.1150 C   0  0  0  0  0  0  0  0  0  0  0  0
    1.4100   19.7510  -34.3050 C   0  0  0  0  0  0  0  0  0  0  0  0
    0.2120   19.2020  -34.7720 C   0  0  0  0  0  0  0  0  0  0  0  0
   -1.0020   19.5460  -34.1010 N   0  0  0  0  0  0  0  0  0  0  0  0
   -2.1070   18.8790  -33.9140 C   0  0  0  0  0  0  0  0  0  0  0  0
   -2.2140   17.4690  -34.0660 C   0  0  0  0  0  0  0  0  0  0  0  0
   -1.0870   16.5960  -34.2880 C   0  0  0  0  0  0  0  0  0  0  0  0
   -0.1900   15.8760  -34.4580 N   0  0  0  0  0  0  0  0  0  0  0  0
   -3.4640   16.8630  -33.8890 C   0  0  0  0  0  0  0  0  0  0  0  0
   -4.5500   17.6050  -33.5610 N   0  0  0  0  0  0  0  0  0  0  0  0
   -4.4960   18.9510  -33.3850 C   0  0  0  0  0  0  0  0  0  0  0  0
   -5.6600   19.6860  -33.0470 C   0  0  0  0  0  0  0  0  0  0  0  0
   -7.0000   18.9960  -32.8730 C   0  0  0  0  0  0  0  0  0  0  0  0
   -5.5860   21.0910  -32.9240 C   0  0  0  0  0  0  0  0  0  0  0  0
   -6.7770   21.8670  -32.6670 N   0  0  0  0  0  0  0  0  0  0  0  0
   -6.9740   22.5020  -31.3590 C   0  0  0  0  0  0  0  0  0  0  0  0
   -5.7290   23.1940  -30.8470 C   0  0  0  0  0  0  0  0  0  0  0  0
   -5.4750   24.5270  -31.2260 C   0  0  0  0  0  0  0  0  0  0  0  0
   -4.3640   25.2020  -30.7400 C   0  0  0  0  0  0  0  0  0  0  0  0
   -3.4750   24.5610  -29.8800 C   0  0  0  0  0  0  0  0  0  0  0  0
   -2.4190   25.2950  -29.3440 O   0  0  0  0  0  0  0  0  0  0  0  0
   -3.6600   23.2030  -29.5340 C   0  0  0  0  0  0  0  0  0  0  0  0
   -2.7450   22.5210  -28.5820 C   0  0  0  0  0  0  0  0  0  0  0  0
   -2.7450   22.8710  -27.3710 O   0  0  0  0  0  0  0  0  0  0  0  0
   -1.7880   21.5570  -29.0410 N   0  0  0  0  0  0  0  0  0  0  0  0
   -2.2430   20.4060  -29.8280 C   0  0  0  0  0  0  0  0  0  0  0  0
   -1.1560   19.9890  -30.7990 C   0  0  0  0  0  0  0  0  0  0  0  0
    0.0760   19.5950  -30.0770 N   0  0  0  0  0  0  0  0  0  0  0  0
    1.1870   19.4210  -31.0360 C   0  0  0  0  0  0  0  0  0  0  0  0
    0.4680   20.4840  -28.9490 C   0  0  0  0  0  0  0  0  0  0  0  0
   -0.3590   21.7850  -28.8060 C   0  0  0  0  0  0  0  0  0  0  0  0
   -4.7990   22.5310  -30.0180 C   0  0  0  0  0  0  0  0  0  0  0  0
   -4.3590   21.7350  -33.1350 C   0  0  0  0  0  0  0  0  0  0  0  0
   -3.2010   21.0210  -33.3990 C   0  0  0  0  0  0  0  0  0  0  0  0
   -3.2530   19.6170  -33.5350 C   0  0  0  0  0  0  0  0  0  0  0  0
    0.1600   18.6360  -36.0610 C   0  0  0  0  0  0  0  0  0  0  0  0
    1.3000   18.6230  -36.8670 C   0  0  0  0  0  0  0  0  0  0  0  0
    4.1839   21.3652  -35.8552 H   0  0  0  0  0  0  0  0  0  0  0  0
    5.6132   21.8914  -36.8075 H   0  0  0  0  0  0  0  0  0  0  0  0
    4.1180   22.8869  -36.8075 H   0  0  0  0  0  0  0  0  0  0  0  0
    3.4998   20.1727  -34.7342 H   0  0  0  0  0  0  0  0  0  0  0  0
    1.4544   20.1848  -33.2951 H   0  0  0  0  0  0  0  0  0  0  0  0
   -3.5655   15.7752  -34.0173 H   0  0  0  0  0  0  0  0  0  0  0  0
   -7.2181   18.8837  -31.8007 H   0  0  0  0  0  0  0  0  0  0  0  0
   -7.7879   19.6005  -33.3461 H   0  0  0  0  0  0  0  0  0  0  0  0
   -6.9655   18.0035  -33.3461 H   0  0  0  0  0  0  0  0  0  0  0  0
   -7.2400   22.3040  -33.4990 H   0  0  0  0  0  0  0  0  0  0  0  0
   -7.7783   23.2471  -31.4481 H   0  0  0  0  0  0  0  0  0  0  0  0
   -7.2292   21.7081  -30.6416 H   0  0  0  0  0  0  0  0  0  0  0  0
   -6.1644   25.0380  -31.9142 H   0  0  0  0  0  0  0  0  0  0  0  0
   -4.1848   26.2465  -31.0348 H   0  0  0  0  0  0  0  0  0  0  0  0
   -2.4709   19.5683  -29.1525 H   0  0  0  0  0  0  0  0  0  0  0  0
   -3.1468   20.6836  -30.3903 H   0  0  0  0  0  0  0  0  0  0  0  0
   -1.5130   19.1356  -31.3942 H   0  0  0  0  0  0  0  0  0  0  0  0
   -0.9224   20.8426  -31.4523 H   0  0  0  0  0  0  0  0  0  0  0  0
    2.1275   19.2737  -30.4848 H   0  0  0  0  0  0  0  0  0  0  0  0
    0.9912   18.5426  -31.6685 H   0  0  0  0  0  0  0  0  0  0  0  0
    1.2692   20.3172  -31.6685 H   0  0  0  0  0  0  0  0  0  0  0  0
    0.3639   19.9121  -28.0151 H   0  0  0  0  0  0  0  0  0  0  0  0
    1.4989   20.8038  -29.1612 H   0  0  0  0  0  0  0  0  0  0  0  0
   -0.2253   22.1806  -27.7883 H   0  0  0  0  0  0  0  0  0  0  0  0
   -0.0006   22.4997  -29.5615 H   0  0  0  0  0  0  0  0  0  0  0  0
   -4.9656   21.4780  -29.7470 H   0  0  0  0  0  0  0  0  0  0  0  0
   -4.3142   22.8332  -33.0900 H   0  0  0  0  0  0  0  0  0  0  0  0
   -2.2413   21.5484  -33.5026 H   0  0  0  0  0  0  0  0  0  0  0  0
   -0.7804   18.2035  -36.4332 H   0  0  0  0  0  0  0  0  0  0  0  0
    1.2644   18.1478  -37.8584 H   0  0  0  0  0  0  0  0  0  0  0  0
  1  2  1  0
  2  3  1  0
  3  4  2  0
  3  5  2  0
  3  6  1  0
  6  7  2  0
  7  8  1  0
  8  9  2  0
  9 10  1  0
 10 11  2  3
 11 12  1  0
 12 13  1  0
 13 14  3  0
 12 15  2  0
 15 16  1  0
 16 17  1  0
 17 18  2  0
 18 19  1  0
 18 20  1  0
 20 21  1  0
 21 22  1  0
 22 23  1  0
 23 24  2  0
 24 25  1  0
 25 26  2  0
 26 27  1  0
 26 28  1  0
 28 29  1  0
 29 30  2  0
 29 31  1  0
 31 32  1  0
 32 33  1  0
 33 34  1  0
 34 35  1  0
 34 36  1  0
 36 37  1  0
 28 38  2  0
 20 39  2  0
 39 40  1  0
 40 41  2  0
  9 42  1  0
 42 43  2  0
 43  6  1  0
 41 11  1  0
 41 17  1  0
 38 23  1  0
 37 31  1  0
  1 44  1  0
  1 45  1  0
  1 46  1  0
  7 47  1  0
  8 48  1  0
 15 49  1  0
 19 50  1  0
 19 51  1  0
 19 52  1  0
 21 53  1  0
 22 54  1  0
 22 55  1  0
 24 56  1  0
 25 57  1  0
 32 58  1  0
 32 59  1  0
 33 60  1  0
 33 61  1  0
 35 62  1  0
 35 63  1  0
 35 64  1  0
 36 65  1  0
 36 66  1  0
 37 67  1  0
 37 68  1  0
 38 69  1  0
 39 70  1  0
 40 71  1  0
 42 72  1  0
 43 73  1  0
M  CHG  3   2  -1  16  -1  27  -1
M  END
>  <UniqueID>  (20) 
20

>  <SMILES>  (20) 
C[N-]S(=O)(=O)c1ccc(N=c2c(C#N)c[n-]c3c(C)c(NCc4ccc([O-])c(C(=O)N5CCN(C)CC5)c4)ccc23)cc1

>  <Energy>  (20) 
127.92218020979705

>  <Genealogy>  (20) 
C[N-]S(=O)(=O)c1ccc(N=c2c(C#N)c[n-]c3c(C)c(NCc4ccc([O-])c(C(=O)N5CCN(C)CC5)c4)ccc23)cc1 (protonated)
C[N-]S(=O)(=O)c1ccc(N=c2c(C#N)c[n-]c3c(C)c(NCc4ccc([O-])c(C(=O)N5CCN(C)CC5)c4)ccc23)cc1 (3D coordinates assigned)
C[N-]S(=O)(=O)c1ccc(N=c2c(C#N)c[n-]c3c(C)c(NCc4ccc([O-])c(C(=O)N5CCN(C)CC5)c4)ccc23)cc1 (nonaromatic ring conformer: 127.92218020979705 kcal/mol)

>  <smiles>  (20) 
CNS(=O)(=O)c1ccc(N=c2c(C#N)c[nH]c3c(C)c(NCc4ccc(O)c(C(=O)N5CCN(C)CC5)c4)ccc23)cc1

>  <score_type>  (20) 
oracle

>  <origin>  (20) 
adgpu

>  <m_score__min__energy>  (20) 
-13.82

>  <m_primary>  (20) 
energy

$$$$
20:0
     RDKit          3D

 39 41  0  0  0  0  0  0  0  0999 V2000
   -0.3731   22.7949  -28.5188 H   0  0  0  0  0  0  0  0  0  0  0  0
   -1.2800   23.3900  -28.3360 C   0  0  0  0  0  0  0  0  0  0  0  0
   -1.1470   24.5570  -27.4410 C   0  0  0  0  0  0  0  0  0  0  0  0
   -1.1110   24.3810  -26.0470 C   0  0  0  0  0  0  0  0  0  0  0  0
   -1.1388   23.3669  -25.6218 H   0  0  0  0  0  0  0  0  0  0  0  0
   -1.0400   25.4900  -25.1990 C   0  0  0  0  0  0  0  0  0  0  0  0
   -0.9966   25.3460  -24.1093 H   0  0  0  0  0  0  0  0  0  0  0  0
   -1.0240   26.7810  -25.7330 C   0  0  0  0  0  0  0  0  0  0  0  0
   -0.9618   27.6523  -25.0644 H   0  0  0  0  0  0  0  0  0  0  0  0
   -1.0870   26.9650  -27.1170 C   0  0  0  0  0  0  0  0  0  0  0  0
   -1.0807   27.9823  -27.5355 H   0  0  0  0  0  0  0  0  0  0  0  0
   -1.1580   25.8600  -27.9720 C   0  0  0  0  0  0  0  0  0  0  0  0
   -1.2320   26.0600  -29.3470 O   0  0  0  0  0  0  0  0  0  0  0  0
   -2.4130   22.9860  -28.9510 C   0  0  0  0  0  0  0  0  0  0  0  0
   -2.3100   21.9630  -29.8380 N   0  0  0  0  0  0  0  0  0  0  0  0
   -3.3740   21.4680  -30.5190 C   0  0  0  0  0  0  0  0  0  0  0  0
   -3.1730   20.5540  -31.3620 O   0  0  0  0  0  0  0  0  0  0  0  0
   -4.6610   22.0140  -30.2940 C   0  0  0  0  0  0  0  0  0  0  0  0
   -5.7850   21.5840  -30.9160 C   0  0  0  0  0  0  0  0  0  0  0  0
   -6.6996   22.1744  -30.7584 H   0  0  0  0  0  0  0  0  0  0  0  0
   -5.8960   20.3960  -31.7860 C   0  0  0  0  0  0  0  0  0  0  0  0
   -5.6310   20.5150  -33.1580 C   0  0  0  0  0  0  0  0  0  0  0  0
   -5.3027   21.4800  -33.5715 H   0  0  0  0  0  0  0  0  0  0  0  0
   -5.7830   19.4100  -34.0020 C   0  0  0  0  0  0  0  0  0  0  0  0
   -5.5597   19.5036  -35.0750 H   0  0  0  0  0  0  0  0  0  0  0  0
   -6.2190   18.1850  -33.4830 C   0  0  0  0  0  0  0  0  0  0  0  0
   -6.4160   16.7700  -34.5680 S   0  0  0  0  0  0  0  0  0  0  0  0
   -4.6360   16.6450  -34.9270 C   0  0  0  0  0  0  0  0  0  0  0  0
   -4.0734   16.6055  -33.9826 H   0  0  0  0  0  0  0  0  0  0  0  0
   -4.4424   15.7310  -35.5077 H   0  0  0  0  0  0  0  0  0  0  0  0
   -4.3165   17.5229  -35.5077 H   0  0  0  0  0  0  0  0  0  0  0  0
   -6.5190   18.0710  -32.1210 C   0  0  0  0  0  0  0  0  0  0  0  0
   -6.8746   17.1126  -31.7147 H   0  0  0  0  0  0  0  0  0  0  0  0
   -6.3670   19.1750  -31.2760 C   0  0  0  0  0  0  0  0  0  0  0  0
   -6.6171   19.0868  -30.2085 H   0  0  0  0  0  0  0  0  0  0  0  0
   -4.7660   23.0530  -29.4090 N   0  0  0  0  0  0  0  0  0  0  0  0
   -5.7020   23.4840  -29.2180 H   0  0  0  0  0  0  0  0  0  0  0  0
   -3.6950   23.5380  -28.7220 C   0  0  0  0  0  0  0  0  0  0  0  0
   -3.8810   24.4500  -27.8710 O   0  0  0  0  0  0  0  0  0  0  0  0
  1  2  1  0
  2  3  1  0
  3  4  2  0
  4  5  1  0
  4  6  1  0
  6  7  1  0
  6  8  2  0
  8  9  1  0
  8 10  1  0
 10 11  1  0
 10 12  2  0
 12 13  1  0
  2 14  2  0
 14 15  1  0
 15 16  1  0
 16 17  2  0
 16 18  1  0
 18 19  2  0
 19 20  1  0
 19 21  1  0
 21 22  2  0
 22 23  1  0
 22 24  1  0
 24 25  1  0
 24 26  2  0
 26 27  1  0
 27 28  1  0
 28 29  1  0
 28 30  1  0
 28 31  1  0
 26 32  1  0
 32 33  1  0
 32 34  2  0
 34 35  1  0
 18 36  1  0
 36 37  1  0
 36 38  1  0
 38 39  2  0
 12  3  1  0
 38 14  1  0
 34 21  1  0
M  CHG  2  13  -1  15  -1
M  END
>  <UniqueID>  (21) 
21

>  <SMILES>  (21) 
CSc1ccc(/C=c2/[nH]c(=O)/c(=C\c3ccccc3[O-])[n-]c2=O)cc1

>  <Energy>  (21) 
65.38774359635593

>  <Genealogy>  (21) 
CSc1ccc(C=c2[nH]c(=O)c(=Cc3ccccc3[O-])[n-]c2=O)cc1 (protonated)
CSc1ccc(/C=c2/[nH]c(=O)/c(=C\c3ccccc3[O-])[n-]c2=O)cc1 (cis-trans isomerization)
CSc1ccc(/C=c2/[nH]c(=O)/c(=C\c3ccccc3[O-])[n-]c2=O)cc1 (3D coordinates assigned)
CSc1ccc(/C=c2/[nH]c(=O)/c(=C\c3ccccc3[O-])[n-]c2=O)cc1 (optimized conformer: 65.38774359635593 kcal/mol)

>  <smiles>  (21) 
CSc1ccc(C=c2[nH]c(=O)c(=Cc3ccccc3O)[nH]c2=O)cc1

>  <score_type>  (21) 
oracle

>  <origin>  (21) 
adgpu

>  <m_score__min__energy>  (21) 
-10.44

>  <m_primary>  (21) 
energy

$$$$
21:0
     RDKit          3D

 69 73  0  0  0  0  0  0  0  0999 V2000
   -3.8970   19.1150  -34.2100 O   0  0  0  0  0  0  0  0  0  0  0  0
   -4.4150   19.9890  -33.4660 C   0  0  0  0  0  0  0  0  0  0  0  0
   -3.6670   21.1850  -33.2020 N   0  0  0  0  0  0  0  0  0  0  0  0
   -2.5770   21.3570  -32.2840 C   0  0  0  0  0  0  0  0  0  0  0  0
   -2.7030   22.3620  -31.3160 C   0  0  0  0  0  0  0  0  0  0  0  0
   -1.6860   22.5990  -30.3880 C   0  0  0  0  0  0  0  0  0  0  0  0
   -1.8600   23.8790  -29.1840 S   0  0  0  0  0  0  0  0  0  0  0  0
   -0.5280   24.5410  -28.9700 O   0  0  0  0  0  0  0  0  0  0  0  0
   -2.8140   24.9180  -29.7050 O   0  0  0  0  0  0  0  0  0  0  0  0
   -2.4520   23.2650  -27.6530 N   0  0  0  0  0  0  0  0  0  0  0  0
   -1.3620   22.6870  -26.8590 C   0  0  0  0  0  0  0  0  0  0  0  0
   -1.3720   21.1790  -27.0600 C   0  0  0  0  0  0  0  0  0  0  0  0
   -2.7170   20.8550  -27.6780 C   0  0  0  0  0  0  0  0  0  0  0  0
   -3.4280   22.1900  -27.8540 C   0  0  0  0  0  0  0  0  0  0  0  0
   -0.5310   21.8130  -30.4160 C   0  0  0  0  0  0  0  0  0  0  0  0
   -0.4050   20.7830  -31.3480 C   0  0  0  0  0  0  0  0  0  0  0  0
   -1.4220   20.5320  -32.2870 C   0  0  0  0  0  0  0  0  0  0  0  0
   -1.2920   19.3960  -33.1640 N   0  0  0  0  0  0  0  0  0  0  0  0
   -1.7150   18.0750  -32.6700 C   0  0  0  0  0  0  0  0  0  0  0  0
   -1.4020   16.9590  -33.6650 C   0  0  0  0  0  0  0  0  0  0  0  0
   -1.5880   17.4150  -34.9860 O   0  0  0  0  0  0  0  0  0  0  0  0
   -0.5440   18.3080  -35.3070 C   0  0  0  0  0  0  0  0  0  0  0  0
   -0.5930   19.5830  -34.4500 C   0  0  0  0  0  0  0  0  0  0  0  0
   -5.7490   19.7290  -32.8760 C   0  0  0  0  0  0  0  0  0  0  0  0
   -6.5080   20.8160  -32.4080 C   0  0  0  0  0  0  0  0  0  0  0  0
   -7.7670   20.6130  -31.8300 C   0  0  0  0  0  0  0  0  0  0  0  0
   -8.7050   21.9840  -31.2440 S   0  0  0  0  0  0  0  0  0  0  0  0
   -9.6020   22.4860  -32.3420 O   0  0  0  0  0  0  0  0  0  0  0  0
   -9.5620   21.5460  -30.0890 O   0  0  0  0  0  0  0  0  0  0  0  0
   -7.6200   23.2440  -30.7100 N   0  0  0  0  0  0  0  0  0  0  0  0
   -6.6330   22.7300  -29.7620 C   0  0  0  0  0  0  0  0  0  0  0  0
   -5.4270   23.6450  -29.8640 C   0  0  0  0  0  0  0  0  0  0  0  0
   -5.5100   24.2530  -31.2560 C   0  0  0  0  0  0  0  0  0  0  0  0
   -6.8440   23.7890  -31.8260 C   0  0  0  0  0  0  0  0  0  0  0  0
   -8.2870   19.3170  -31.7430 C   0  0  0  0  0  0  0  0  0  0  0  0
   -7.5620   18.2340  -32.2410 C   0  0  0  0  0  0  0  0  0  0  0  0
   -6.3030   18.4320  -32.8270 C   0  0  0  0  0  0  0  0  0  0  0  0
   -5.6270   17.3480  -33.3860 O   0  0  0  0  0  0  0  0  0  0  0  0
   -3.6167   22.9738  -31.2862 H   0  0  0  0  0  0  0  0  0  0  0  0
   -0.3989   23.1003  -27.1930 H   0  0  0  0  0  0  0  0  0  0  0  0
   -1.4993   22.9283  -25.7946 H   0  0  0  0  0  0  0  0  0  0  0  0
   -0.5575   20.8769  -27.7347 H   0  0  0  0  0  0  0  0  0  0  0  0
   -1.2220   20.6426  -26.1114 H   0  0  0  0  0  0  0  0  0  0  0  0
   -2.5817   20.3622  -28.6521 H   0  0  0  0  0  0  0  0  0  0  0  0
   -3.2978   20.1686  -27.0443 H   0  0  0  0  0  0  0  0  0  0  0  0
   -3.8491   22.2556  -28.8681 H   0  0  0  0  0  0  0  0  0  0  0  0
   -4.2459   22.2813  -27.1242 H   0  0  0  0  0  0  0  0  0  0  0  0
    0.2816   22.0072  -29.7005 H   0  0  0  0  0  0  0  0  0  0  0  0
    0.5010   20.1591  -31.3488 H   0  0  0  0  0  0  0  0  0  0  0  0
   -1.1905   17.8653  -31.7261 H   0  0  0  0  0  0  0  0  0  0  0  0
   -2.8051   18.1021  -32.5251 H   0  0  0  0  0  0  0  0  0  0  0  0
   -0.3575   16.6394  -33.5351 H   0  0  0  0  0  0  0  0  0  0  0  0
   -2.0806   16.1134  -33.4794 H   0  0  0  0  0  0  0  0  0  0  0  0
    0.4190   17.8037  -35.1387 H   0  0  0  0  0  0  0  0  0  0  0  0
   -0.6603   18.6021  -36.3606 H   0  0  0  0  0  0  0  0  0  0  0  0
    0.4385   19.9044  -34.2431 H   0  0  0  0  0  0  0  0  0  0  0  0
   -1.1559   20.3369  -35.0199 H   0  0  0  0  0  0  0  0  0  0  0  0
   -6.1084   21.8370  -32.4969 H   0  0  0  0  0  0  0  0  0  0  0  0
   -7.0403   22.7493  -28.7404 H   0  0  0  0  0  0  0  0  0  0  0  0
   -6.3645   21.6880  -29.9904 H   0  0  0  0  0  0  0  0  0  0  0  0
   -5.4720   24.4309  -29.0956 H   0  0  0  0  0  0  0  0  0  0  0  0
   -4.4829   23.1031  -29.7057 H   0  0  0  0  0  0  0  0  0  0  0  0
   -5.4781   25.3510  -31.1981 H   0  0  0  0  0  0  0  0  0  0  0  0
   -4.6660   23.9400  -31.8882 H   0  0  0  0  0  0  0  0  0  0  0  0
   -7.3775   24.6381  -32.2781 H   0  0  0  0  0  0  0  0  0  0  0  0
   -6.6941   23.0298  -32.6078 H   0  0  0  0  0  0  0  0  0  0  0  0
   -9.2711   19.1513  -31.2802 H   0  0  0  0  0  0  0  0  0  0  0  0
   -7.9802   17.2188  -32.1737 H   0  0  0  0  0  0  0  0  0  0  0  0
   -4.7570   17.4640  -33.8920 H   0  0  0  0  0  0  0  0  0  0  0  0
  1  2  2  0
  2  3  1  0
  3  4  1  0
  4  5  2  0
  5  6  1  0
  6  7  1  0
  7  8  2  0
  7  9  2  0
  7 10  1  0
 10 11  1  0
 11 12  1  0
 12 13  1  0
 13 14  1  0
  6 15  2  0
 15 16  1  0
 16 17  2  0
 17 18  1  0
 18 19  1  0
 19 20  1  0
 20 21  1  0
 21 22  1  0
 22 23  1  0
  2 24  1  0
 24 25  2  0
 25 26  1  0
 26 27  1  0
 27 28  2  0
 27 29  2  0
 27 30  1  0
 30 31  1  0
 31 32  1  0
 32 33  1  0
 33 34  1  0
 26 35  2  0
 35 36  1  0
 36 37  2  0
 37 38  1  0
 17  4  1  0
 23 18  1  0
 37 24  1  0
 14 10  1  0
 34 30  1  0
  5 39  1  0
 11 40  1  0
 11 41  1  0
 12 42  1  0
 12 43  1  0
 13 44  1  0
 13 45  1  0
 14 46  1  0
 14 47  1  0
 15 48  1  0
 16 49  1  0
 19 50  1  0
 19 51  1  0
 20 52  1  0
 20 53  1  0
 22 54  1  0
 22 55  1  0
 23 56  1  0
 23 57  1  0
 25 58  1  0
 31 59  1  0
 31 60  1  0
 32 61  1  0
 32 62  1  0
 33 63  1  0
 33 64  1  0
 34 65  1  0
 34 66  1  0
 35 67  1  0
 36 68  1  0
 38 69  1  0
M  CHG  1   3  -1
M  END
>  <UniqueID>  (22) 
22

>  <SMILES>  (22) 
O=C([N-]c1cc(S(=O)(=O)N2CCCC2)ccc1N1CCOCC1)c1cc(S(=O)(=O)N2CCCC2)ccc1O

>  <Energy>  (22) 
89.27064702001634

>  <Genealogy>  (22) 
O=C([N-]c1cc(S(=O)(=O)N2CCCC2)ccc1N1CCOCC1)c1cc(S(=O)(=O)N2CCCC2)ccc1O (protonated)
O=C([N-]c1cc(S(=O)(=O)N2CCCC2)ccc1N1CCOCC1)c1cc(S(=O)(=O)N2CCCC2)ccc1O (3D coordinates assigned)
O=C([N-]c1cc(S(=O)(=O)N2CCCC2)ccc1N1CCOCC1)c1cc(S(=O)(=O)N2CCCC2)ccc1O (nonaromatic ring conformer: 89.27064702001634 kcal/mol)

>  <smiles>  (22) 
O=C(Nc1cc(S(=O)(=O)N2CCCC2)ccc1N1CCOCC1)c1cc(S(=O)(=O)N2CCCC2)ccc1O

>  <score_type>  (22) 
oracle

>  <origin>  (22) 
adgpu

>  <m_score__min__energy>  (22) 
-12.44

>  <m_primary>  (22) 
energy

$$$$
22:0
     RDKit          3D

 69 73  0  0  0  0  0  0  0  0999 V2000
    0.3300   24.6640  -24.4070 N   0  0  0  0  0  0  0  0  0  0  0  0
   -0.2080   24.1430  -25.4540 C   0  0  0  0  0  0  0  0  0  0  0  0
   -0.9340   24.9140  -26.3270 C   0  0  0  0  0  0  0  0  0  0  0  0
   -1.5020   24.3410  -27.4400 C   0  0  0  0  0  0  0  0  0  0  0  0
   -2.3060   25.0830  -28.4410 C   0  0  0  0  0  0  0  0  0  0  0  0
   -3.4580   24.3490  -28.9160 N   0  0  0  0  0  0  0  0  0  0  0  0
   -4.1870   24.6690  -30.0830 C   0  0  0  0  0  0  0  0  0  0  0  0
   -3.8680   25.6610  -30.8240 O   0  0  0  0  0  0  0  0  0  0  0  0
   -5.3490   23.9070  -30.5380 C   0  0  0  0  0  0  0  0  0  0  0  0
   -6.1000   23.2240  -29.6040 C   0  0  0  0  0  0  0  0  0  0  0  0
   -7.2200   22.4830  -29.9980 C   0  0  0  0  0  0  0  0  0  0  0  0
   -7.6150   22.4070  -31.3180 C   0  0  0  0  0  0  0  0  0  0  0  0
   -9.0080   21.4780  -31.7490 S   0  0  0  0  0  0  0  0  0  0  0  0
   -9.8080   21.2270  -30.5130 O   0  0  0  0  0  0  0  0  0  0  0  0
   -9.8800   22.2700  -32.6940 O   0  0  0  0  0  0  0  0  0  0  0  0
   -8.6320   19.9880  -32.5130 N   0  0  0  0  0  0  0  0  0  0  0  0
   -7.4750   20.0550  -33.3490 C   0  0  0  0  0  0  0  0  0  0  0  0
   -6.2820   19.4040  -32.6890 C   0  0  0  0  0  0  0  0  0  0  0  0
   -6.5190   18.0720  -32.4090 O   0  0  0  0  0  0  0  0  0  0  0  0
   -7.8600   17.7510  -32.3410 C   0  0  0  0  0  0  0  0  0  0  0  0
   -8.6620   18.8550  -31.6400 C   0  0  0  0  0  0  0  0  0  0  0  0
   -6.8400   23.1040  -32.2320 C   0  0  0  0  0  0  0  0  0  0  0  0
   -5.7340   23.8390  -31.8600 C   0  0  0  0  0  0  0  0  0  0  0  0
   -1.3020   23.0070  -27.6140 N   0  0  0  0  0  0  0  0  0  0  0  0
   -0.5870   22.2780  -26.7440 C   0  0  0  0  0  0  0  0  0  0  0  0
   -0.4170   20.5250  -27.1220 S   0  0  0  0  0  0  0  0  0  0  0  0
    0.1630   20.3110  -28.8470 C   0  0  0  0  0  0  0  0  0  0  0  0
   -0.9700   20.7220  -29.7160 C   0  0  0  0  0  0  0  0  0  0  0  0
   -0.7980   21.2930  -30.9600 C   0  0  0  0  0  0  0  0  0  0  0  0
   -1.8430   21.6780  -31.7720 C   0  0  0  0  0  0  0  0  0  0  0  0
   -3.1180   21.4740  -31.2990 C   0  0  0  0  0  0  0  0  0  0  0  0
   -3.3530   20.9090  -30.0660 C   0  0  0  0  0  0  0  0  0  0  0  0
   -2.2870   20.5360  -29.2780 C   0  0  0  0  0  0  0  0  0  0  0  0
    0.4290   18.8490  -28.9950 C   0  0  0  0  0  0  0  0  0  0  0  0
    0.6730   18.1510  -27.8200 C   0  0  0  0  0  0  0  0  0  0  0  0
    0.9360   16.7900  -27.8180 C   0  0  0  0  0  0  0  0  0  0  0  0
    0.9440   16.1520  -29.0450 C   0  0  0  0  0  0  0  0  0  0  0  0
    0.7000   16.8530  -30.2110 C   0  0  0  0  0  0  0  0  0  0  0  0
    0.4380   18.2120  -30.2160 C   0  0  0  0  0  0  0  0  0  0  0  0
   -0.0270   22.8210  -25.6530 N   0  0  0  0  0  0  0  0  0  0  0  0
    0.8910   24.1550  -23.7030 H   0  0  0  0  0  0  0  0  0  0  0  0
   -1.0613   25.9898  -26.1362 H   0  0  0  0  0  0  0  0  0  0  0  0
   -2.6553   26.0195  -27.9817 H   0  0  0  0  0  0  0  0  0  0  0  0
   -1.6556   25.2610  -29.3100 H   0  0  0  0  0  0  0  0  0  0  0  0
   -3.7500   23.5220  -28.3280 H   0  0  0  0  0  0  0  0  0  0  0  0
   -5.8165   23.2620  -28.5418 H   0  0  0  0  0  0  0  0  0  0  0  0
   -7.8017   21.9462  -29.2341 H   0  0  0  0  0  0  0  0  0  0  0  0
   -7.6870   19.5376  -34.2963 H   0  0  0  0  0  0  0  0  0  0  0  0
   -7.2374   21.1139  -33.5285 H   0  0  0  0  0  0  0  0  0  0  0  0
   -5.4163   19.4783  -33.3636 H   0  0  0  0  0  0  0  0  0  0  0  0
   -6.0870   19.9253  -31.7402 H   0  0  0  0  0  0  0  0  0  0  0  0
   -8.2490   17.6183  -33.3613 H   0  0  0  0  0  0  0  0  0  0  0  0
   -7.9660   16.8226  -31.7606 H   0  0  0  0  0  0  0  0  0  0  0  0
   -9.6992   18.5272  -31.4766 H   0  0  0  0  0  0  0  0  0  0  0  0
   -8.2343   19.0968  -30.6558 H   0  0  0  0  0  0  0  0  0  0  0  0
   -7.1182   23.0694  -33.2957 H   0  0  0  0  0  0  0  0  0  0  0  0
   -5.1538   24.3758  -32.6250 H   0  0  0  0  0  0  0  0  0  0  0  0
    1.0599   20.8940  -29.1033 H   0  0  0  0  0  0  0  0  0  0  0  0
    0.2284   21.4494  -31.3234 H   0  0  0  0  0  0  0  0  0  0  0  0
   -1.6643   22.1302  -32.7587 H   0  0  0  0  0  0  0  0  0  0  0  0
   -3.9738   21.7705  -31.9232 H   0  0  0  0  0  0  0  0  0  0  0  0
   -4.3837   20.7567  -29.7131 H   0  0  0  0  0  0  0  0  0  0  0  0
   -2.4725   20.0860  -28.2915 H   0  0  0  0  0  0  0  0  0  0  0  0
    0.6572   18.6935  -26.8632 H   0  0  0  0  0  0  0  0  0  0  0  0
    1.1294   16.2427  -26.8836 H   0  0  0  0  0  0  0  0  0  0  0  0
    1.1473   15.0720  -29.0937 H   0  0  0  0  0  0  0  0  0  0  0  0
    0.7146   16.3118  -31.1685 H   0  0  0  0  0  0  0  0  0  0  0  0
    0.2459   18.7578  -31.1515 H   0  0  0  0  0  0  0  0  0  0  0  0
    0.5080   22.1980  -25.0300 H   0  0  0  0  0  0  0  0  0  0  0  0
  1  2  2  3
  2  3  1  0
  3  4  2  0
  4  5  1  0
  5  6  1  0
  6  7  1  0
  7  8  2  0
  7  9  1  0
  9 10  2  0
 10 11  1  0
 11 12  2  0
 12 13  1  0
 13 14  2  0
 13 15  2  0
 13 16  1  0
 16 17  1  0
 17 18  1  0
 18 19  1  0
 19 20  1  0
 20 21  1  0
 12 22  1  0
 22 23  2  0
  4 24  1  0
 24 25  2  0
 25 26  1  0
 26 27  1  0
 27 28  1  0
 28 29  2  0
 29 30  1  0
 30 31  2  0
 31 32  1  0
 32 33  2  0
 27 34  1  0
 34 35  2  0
 35 36  1  0
 36 37  2  0
 37 38  1  0
 38 39  2  0
 25 40  1  0
 40  2  1  0
 23  9  1  0
 33 28  1  0
 39 34  1  0
 21 16  1  0
  1 41  1  0
  3 42  1  0
  5 43  1  0
  5 44  1  0
  6 45  1  0
 10 46  1  0
 11 47  1  0
 17 48  1  0
 17 49  1  0
 18 50  1  0
 18 51  1  0
 20 52  1  0
 20 53  1  0
 21 54  1  0
 21 55  1  0
 22 56  1  0
 23 57  1  0
 27 58  1  0
 29 59  1  0
 30 60  1  0
 31 61  1  0
 32 62  1  0
 33 63  1  0
 35 64  1  0
 36 65  1  0
 37 66  1  0
 38 67  1  0
 39 68  1  0
 40 69  1  0
M  END
>  <smiles>  (23) 
N=c1cc(CNC(=O)c2ccc(S(=O)(=O)N3CCOCC3)cc2)nc(SC(c2ccccc2)c2ccccc2)[nH]1

>  <score_type>  (23) 
oracle

>  <origin>  (23) 
adgpu

>  <m_score__min__energy>  (23) 
-11.09

>  <m_primary>  (23) 
energy

$$$$
23:0
     RDKit          3D

 42 44  0  0  0  0  0  0  0  0999 V2000
   -2.0070   25.6810  -26.6210 C   0  0  0  0  0  0  0  0  0  0  0  0
   -1.7920   24.9860  -27.9310 C   0  0  0  0  0  0  0  0  0  0  0  0
   -1.5460   25.6780  -28.9540 O   0  0  0  0  0  0  0  0  0  0  0  0
   -1.9190   23.5610  -28.0580 N   0  0  0  0  0  0  0  0  0  0  0  0
   -1.1290   22.6690  -27.2050 C   0  0  0  0  0  0  0  0  0  0  0  0
   -0.8100   21.4210  -28.0550 C   0  0  0  0  0  0  0  0  0  0  0  0
   -1.5820   21.6540  -29.3020 C   0  0  0  0  0  0  0  0  0  0  0  0
   -1.6830   20.8060  -30.4040 C   0  0  0  0  0  0  0  0  0  0  0  0
   -2.4910   21.1940  -31.4820 C   0  0  0  0  0  0  0  0  0  0  0  0
   -2.6520   20.1270  -32.8750 S   0  0  0  0  0  0  0  0  0  0  0  0
   -2.4190   20.8940  -34.1470 O   0  0  0  0  0  0  0  0  0  0  0  0
   -1.6210   19.0380  -32.7790 O   0  0  0  0  0  0  0  0  0  0  0  0
   -4.2340   19.4120  -32.9040 N   0  0  0  0  0  0  0  0  0  0  0  0
   -5.2000   20.3630  -33.4500 C   0  0  0  0  0  0  0  0  0  0  0  0
   -6.5490   20.1090  -32.8340 C   0  0  0  0  0  0  0  0  0  0  0  0
   -7.0970   18.8150  -32.8750 C   0  0  0  0  0  0  0  0  0  0  0  0
   -8.3590   18.5620  -32.3300 C   0  0  0  0  0  0  0  0  0  0  0  0
   -9.0920   19.5990  -31.7530 C   0  0  0  0  0  0  0  0  0  0  0  0
   -8.5680   20.8930  -31.7200 C   0  0  0  0  0  0  0  0  0  0  0  0
   -7.3040   21.1570  -32.2610 C   0  0  0  0  0  0  0  0  0  0  0  0
   -6.7020   22.8120  -32.2130 Cl  0  0  0  0  0  0  0  0  0  0  0  0
   -3.2260   22.3950  -31.4120 C   0  0  0  0  0  0  0  0  0  0  0  0
   -3.1360   23.2310  -30.2790 C   0  0  0  0  0  0  0  0  0  0  0  0
   -4.0550   24.3830  -30.1610 C   0  0  0  0  0  0  0  0  0  0  0  0
   -3.8600   25.4320  -30.8300 O   0  0  0  0  0  0  0  0  0  0  0  0
   -5.1130   24.3440  -29.2610 O   0  0  0  0  0  0  0  0  0  0  0  0
   -2.2370   22.8560  -29.2560 C   0  0  0  0  0  0  0  0  0  0  0  0
   -1.7917   24.9849  -25.7969 H   0  0  0  0  0  0  0  0  0  0  0  0
   -1.3356   26.5496  -26.5522 H   0  0  0  0  0  0  0  0  0  0  0  0
   -3.0516   26.0187  -26.5522 H   0  0  0  0  0  0  0  0  0  0  0  0
   -0.1979   23.1658  -26.8946 H   0  0  0  0  0  0  0  0  0  0  0  0
   -1.6805   22.3990  -26.2923 H   0  0  0  0  0  0  0  0  0  0  0  0
    0.2675   21.3517  -28.2652 H   0  0  0  0  0  0  0  0  0  0  0  0
   -1.0743   20.4783  -27.5536 H   0  0  0  0  0  0  0  0  0  0  0  0
   -1.1389   19.8503  -30.4272 H   0  0  0  0  0  0  0  0  0  0  0  0
   -4.8773   21.3888  -33.2183 H   0  0  0  0  0  0  0  0  0  0  0  0
   -5.2634   20.2390  -34.5411 H   0  0  0  0  0  0  0  0  0  0  0  0
   -6.5285   17.9957  -33.3393 H   0  0  0  0  0  0  0  0  0  0  0  0
   -8.7746   17.5439  -32.3562 H   0  0  0  0  0  0  0  0  0  0  0  0
  -10.0843   19.3972  -31.3233 H   0  0  0  0  0  0  0  0  0  0  0  0
   -9.1509   21.7084  -31.2670 H   0  0  0  0  0  0  0  0  0  0  0  0
   -3.8771   22.6836  -32.2503 H   0  0  0  0  0  0  0  0  0  0  0  0
  1  2  1  0
  2  3  2  0
  2  4  1  0
  4  5  1  0
  5  6  1  0
  6  7  1  0
  7  8  2  0
  8  9  1  0
  9 10  1  0
 10 11  2  0
 10 12  2  0
 10 13  1  0
 13 14  1  0
 14 15  1  0
 15 16  2  0
 16 17  1  0
 17 18  2  0
 18 19  1  0
 19 20  2  0
 20 21  1  0
  9 22  2  0
 22 23  1  0
 23 24  1  0
 24 25  2  0
 24 26  1  0
 23 27  2  0
 27  4  1  0
 27  7  1  0
 20 15  1  0
  1 28  1  0
  1 29  1  0
  1 30  1  0
  5 31  1  0
  5 32  1  0
  6 33  1  0
  6 34  1  0
  8 35  1  0
 14 36  1  0
 14 37  1  0
 16 38  1  0
 17 39  1  0
 18 40  1  0
 19 41  1  0
 22 42  1  0
M  CHG  2  13  -1  26  -1
M  END
>  <UniqueID>  (24) 
23

>  <SMILES>  (24) 
CC(=O)N1CCc2cc(S(=O)(=O)[N-]Cc3ccccc3Cl)cc(C(=O)[O-])c21

>  <Energy>  (24) 
66.05988756800197

>  <Genealogy>  (24) 
CC(=O)N1CCc2cc(S(=O)(=O)[N-]Cc3ccccc3Cl)cc(C(=O)[O-])c21 (protonated)
CC(=O)N1CCc2cc(S(=O)(=O)[N-]Cc3ccccc3Cl)cc(C(=O)[O-])c21 (3D coordinates assigned)
CC(=O)N1CCc2cc(S(=O)(=O)[N-]Cc3ccccc3Cl)cc(C(=O)[O-])c21 (nonaromatic ring conformer: 66.05988756800197 kcal/mol)

>  <smiles>  (24) 
CC(=O)N1CCc2cc(S(=O)(=O)NCc3ccccc3Cl)cc(C(=O)O)c21

>  <score_type>  (24) 
oracle

>  <origin>  (24) 
adgpu

>  <m_score__min__energy>  (24) 
-11.08

>  <m_primary>  (24) 
energy

$$$$
24:0
     RDKit          3D

 60 63  0  0  0  0  0  0  0  0999 V2000
   -4.7770   15.7730  -34.2750 C   0  0  0  0  0  0  0  0  0  0  0  0
   -3.5610   16.6500  -34.2250 C   0  0  0  0  0  0  0  0  0  0  0  0
   -2.4210   16.3130  -34.9710 C   0  0  0  0  0  0  0  0  0  0  0  0
   -1.2920   17.1450  -34.9590 C   0  0  0  0  0  0  0  0  0  0  0  0
   -0.0970   16.8030  -35.7990 C   0  0  0  0  0  0  0  0  0  0  0  0
   -1.3210   18.3380  -34.2220 C   0  0  0  0  0  0  0  0  0  0  0  0
   -2.4600   18.6900  -33.4850 C   0  0  0  0  0  0  0  0  0  0  0  0
   -2.5030   20.2110  -32.5950 S   0  0  0  0  0  0  0  0  0  0  0  0
   -3.8870   20.4170  -32.0410 O   0  0  0  0  0  0  0  0  0  0  0  0
   -2.1950   21.3250  -33.5590 O   0  0  0  0  0  0  0  0  0  0  0  0
   -1.3260   20.2200  -31.2660 C   0  0  0  0  0  0  0  0  0  0  0  0
   -0.1940   19.3900  -31.3590 C   0  0  0  0  0  0  0  0  0  0  0  0
    0.7780   19.3930  -30.3580 C   0  0  0  0  0  0  0  0  0  0  0  0
    0.6340   20.2220  -29.2480 C   0  0  0  0  0  0  0  0  0  0  0  0
   -0.4850   21.0450  -29.1310 C   0  0  0  0  0  0  0  0  0  0  0  0
   -1.4790   21.0570  -30.1270 C   0  0  0  0  0  0  0  0  0  0  0  0
   -2.6630   21.9250  -29.9370 C   0  0  0  0  0  0  0  0  0  0  0  0
   -3.0720   22.1710  -28.7700 O   0  0  0  0  0  0  0  0  0  0  0  0
   -3.3130   22.5320  -31.0670 N   0  0  0  0  0  0  0  0  0  0  0  0
   -4.5860   23.1930  -30.9750 C   0  0  0  0  0  0  0  0  0  0  0  0
   -5.7790   22.4880  -31.2150 C   0  0  0  0  0  0  0  0  0  0  0  0
   -7.0200   23.1290  -31.1140 C   0  0  0  0  0  0  0  0  0  0  0  0
   -8.5120   22.2330  -31.4170 S   0  0  0  0  0  0  0  0  0  0  0  0
   -9.4590   23.1100  -32.1910 O   0  0  0  0  0  0  0  0  0  0  0  0
   -9.1580   21.8970  -30.1000 O   0  0  0  0  0  0  0  0  0  0  0  0
   -8.2460   20.7500  -32.3050 N   0  0  0  0  0  0  0  0  0  0  0  0
   -8.0520   19.6000  -31.4200 C   0  0  0  0  0  0  0  0  0  0  0  0
   -7.2540   18.5770  -32.2190 C   0  0  0  0  0  0  0  0  0  0  0  0
   -6.6160   19.3650  -33.3590 C   0  0  0  0  0  0  0  0  0  0  0  0
   -7.0390   20.8090  -33.1310 C   0  0  0  0  0  0  0  0  0  0  0  0
   -7.0660   24.4950  -30.8040 C   0  0  0  0  0  0  0  0  0  0  0  0
   -5.8840   25.2110  -30.5970 C   0  0  0  0  0  0  0  0  0  0  0  0
   -4.6460   24.5670  -30.6840 C   0  0  0  0  0  0  0  0  0  0  0  0
   -3.4790   25.2930  -30.4670 O   0  0  0  0  0  0  0  0  0  0  0  0
   -3.5820   17.8500  -33.4960 C   0  0  0  0  0  0  0  0  0  0  0  0
   -5.1023   15.5384  -33.2507 H   0  0  0  0  0  0  0  0  0  0  0  0
   -5.5856   16.2972  -34.8055 H   0  0  0  0  0  0  0  0  0  0  0  0
   -4.5348   14.8403  -34.8055 H   0  0  0  0  0  0  0  0  0  0  0  0
   -2.4129   15.3899  -35.5692 H   0  0  0  0  0  0  0  0  0  0  0  0
    0.7534   16.5596  -35.1450 H   0  0  0  0  0  0  0  0  0  0  0  0
   -0.3312   15.9358  -36.4339 H   0  0  0  0  0  0  0  0  0  0  0  0
    0.1631   17.6628  -36.4339 H   0  0  0  0  0  0  0  0  0  0  0  0
   -0.4439   19.0018  -34.2224 H   0  0  0  0  0  0  0  0  0  0  0  0
   -0.0737   18.7307  -32.2313 H   0  0  0  0  0  0  0  0  0  0  0  0
    1.6589   18.7400  -30.4455 H   0  0  0  0  0  0  0  0  0  0  0  0
    1.4043   20.2273  -28.4627 H   0  0  0  0  0  0  0  0  0  0  0  0
   -0.5924   21.6933  -28.2489 H   0  0  0  0  0  0  0  0  0  0  0  0
   -2.8330   22.5230  -31.9940 H   0  0  0  0  0  0  0  0  0  0  0  0
   -5.7369   21.4224  -31.4848 H   0  0  0  0  0  0  0  0  0  0  0  0
   -7.4940   19.9008  -30.5210 H   0  0  0  0  0  0  0  0  0  0  0  0
   -9.0144   19.1849  -31.0862 H   0  0  0  0  0  0  0  0  0  0  0  0
   -6.4794   18.1154  -31.5890 H   0  0  0  0  0  0  0  0  0  0  0  0
   -7.8903   17.7604  -32.5909 H   0  0  0  0  0  0  0  0  0  0  0  0
   -5.5203   19.2740  -33.3250 H   0  0  0  0  0  0  0  0  0  0  0  0
   -6.9345   18.9938  -34.3443 H   0  0  0  0  0  0  0  0  0  0  0  0
   -6.2447   21.3620  -32.6082 H   0  0  0  0  0  0  0  0  0  0  0  0
   -7.2265   21.3289  -34.0820 H   0  0  0  0  0  0  0  0  0  0  0  0
   -8.0369   25.0058  -30.7233 H   0  0  0  0  0  0  0  0  0  0  0  0
   -5.9277   26.2853  -30.3647 H   0  0  0  0  0  0  0  0  0  0  0  0
   -4.4828   18.1320  -32.9312 H   0  0  0  0  0  0  0  0  0  0  0  0
  1  2  1  0
  2  3  2  0
  3  4  1  0
  4  5  1  0
  4  6  2  0
  6  7  1  0
  7  8  1  0
  8  9  2  0
  8 10  2  0
  8 11  1  0
 11 12  2  0
 12 13  1  0
 13 14  2  0
 14 15  1  0
 15 16  2  0
 16 17  1  0
 17 18  2  0
 17 19  1  0
 19 20  1  0
 20 21  2  0
 21 22  1  0
 22 23  1  0
 23 24  2  0
 23 25  2  0
 23 26  1  0
 26 27  1  0
 27 28  1  0
 28 29  1  0
 29 30  1  0
 22 31  2  0
 31 32  1  0
 32 33  2  0
 33 34  1  0
  7 35  2  0
 35  2  1  0
 16 11  1  0
 33 20  1  0
 30 26  1  0
  1 36  1  0
  1 37  1  0
  1 38  1  0
  3 39  1  0
  5 40  1  0
  5 41  1  0
  5 42  1  0
  6 43  1  0
 12 44  1  0
 13 45  1  0
 14 46  1  0
 15 47  1  0
 19 48  1  0
 21 49  1  0
 27 50  1  0
 27 51  1  0
 28 52  1  0
 28 53  1  0
 29 54  1  0
 29 55  1  0
 30 56  1  0
 30 57  1  0
 31 58  1  0
 32 59  1  0
 35 60  1  0
M  CHG  1  34  -1
M  END
>  <UniqueID>  (25) 
24

>  <SMILES>  (25) 
Cc1cc(C)cc(S(=O)(=O)c2ccccc2C(=O)Nc2cc(S(=O)(=O)N3CCCC3)ccc2[O-])c1

>  <Energy>  (25) 
75.1891525666612

>  <Genealogy>  (25) 
Cc1cc(C)cc(S(=O)(=O)c2ccccc2C(=O)Nc2cc(S(=O)(=O)N3CCCC3)ccc2[O-])c1 (protonated)
Cc1cc(C)cc(S(=O)(=O)c2ccccc2C(=O)Nc2cc(S(=O)(=O)N3CCCC3)ccc2[O-])c1 (3D coordinates assigned)
Cc1cc(C)cc(S(=O)(=O)c2ccccc2C(=O)Nc2cc(S(=O)(=O)N3CCCC3)ccc2[O-])c1 (nonaromatic ring conformer: 75.1891525666612 kcal/mol)

>  <smiles>  (25) 
Cc1cc(C)cc(S(=O)(=O)c2ccccc2C(=O)Nc2cc(S(=O)(=O)N3CCCC3)ccc2O)c1

>  <score_type>  (25) 
oracle

>  <origin>  (25) 
adgpu

>  <m_score__min__energy>  (25) 
-14.130000000000001

>  <m_primary>  (25) 
energy

$$$$
25:0
     RDKit          3D

 75 78  0  0  0  0  0  0  0  0999 V2000
   -1.6260   25.9400  -25.1940 C   0  0  0  0  0  0  0  0  0  0  0  0
   -0.3140   25.1910  -24.9650 C   0  0  0  0  0  0  0  0  0  0  0  0
   -0.5120   23.9310  -24.1190 C   0  0  0  0  0  0  0  0  0  0  0  0
   -0.4310   22.7430  -24.9600 N   0  0  0  0  0  0  0  0  0  0  0  0
   -0.0010   22.7800  -26.3250 C   0  0  0  0  0  0  0  0  0  0  0  0
    1.2150   22.5850  -26.6000 O   0  0  0  0  0  0  0  0  0  0  0  0
   -0.9550   23.0390  -27.3730 N   0  0  0  0  0  0  0  0  0  0  0  0
   -0.5430   23.0080  -28.7880 C   0  0  0  0  0  0  0  0  0  0  0  0
   -1.1680   24.1650  -29.5850 C   0  0  0  0  0  0  0  0  0  0  0  0
   -2.6100   24.5070  -29.1280 C   0  0  0  0  0  0  0  0  0  0  0  0
   -3.5070   24.9850  -30.1980 N   0  0  0  0  0  0  0  0  0  0  0  0
   -4.7250   23.8810  -30.7930 S   0  0  0  0  0  0  0  0  0  0  0  0
   -5.5500   24.5610  -31.8510 O   0  0  0  0  0  0  0  0  0  0  0  0
   -5.6470   23.5550  -29.6520 O   0  0  0  0  0  0  0  0  0  0  0  0
   -4.0910   22.3570  -31.4140 C   0  0  0  0  0  0  0  0  0  0  0  0
   -4.9460   21.4700  -32.0660 C   0  0  0  0  0  0  0  0  0  0  0  0
   -4.4520   20.2850  -32.6040 C   0  0  0  0  0  0  0  0  0  0  0  0
   -3.0880   19.9580  -32.5060 C   0  0  0  0  0  0  0  0  0  0  0  0
   -2.5460   18.4730  -33.3150 S   0  0  0  0  0  0  0  0  0  0  0  0
   -1.8630   18.8300  -34.6050 O   0  0  0  0  0  0  0  0  0  0  0  0
   -1.5550   17.7440  -32.4510 O   0  0  0  0  0  0  0  0  0  0  0  0
   -3.9010   17.3820  -33.5890 C   0  0  0  0  0  0  0  0  0  0  0  0
   -4.9980   17.8170  -34.3440 C   0  0  0  0  0  0  0  0  0  0  0  0
   -6.0780   16.9600  -34.5750 C   0  0  0  0  0  0  0  0  0  0  0  0
   -6.0690   15.6560  -34.0560 C   0  0  0  0  0  0  0  0  0  0  0  0
   -7.2440   14.7500  -34.2760 C   0  0  0  0  0  0  0  0  0  0  0  0
   -4.9840   15.2330  -33.2730 C   0  0  0  0  0  0  0  0  0  0  0  0
   -3.9050   16.0920  -33.0420 C   0  0  0  0  0  0  0  0  0  0  0  0
   -2.2120   20.8420  -31.8120 C   0  0  0  0  0  0  0  0  0  0  0  0
   -0.4660   20.5590  -31.6270 S   0  0  0  0  0  0  0  0  0  0  0  0
    0.2230   21.8620  -31.3330 O   0  0  0  0  0  0  0  0  0  0  0  0
    0.1330   19.9690  -32.8710 O   0  0  0  0  0  0  0  0  0  0  0  0
   -0.1370   19.4260  -30.3140 C   0  0  0  0  0  0  0  0  0  0  0  0
   -0.7030   19.6340  -29.0470 C   0  0  0  0  0  0  0  0  0  0  0  0
   -0.4330   18.7450  -28.0020 C   0  0  0  0  0  0  0  0  0  0  0  0
    0.4190   17.6510  -28.2080 C   0  0  0  0  0  0  0  0  0  0  0  0
    0.6940   16.6920  -27.0880 C   0  0  0  0  0  0  0  0  0  0  0  0
    0.9630   17.4280  -29.4820 C   0  0  0  0  0  0  0  0  0  0  0  0
    0.6860   18.3130  -30.5290 C   0  0  0  0  0  0  0  0  0  0  0  0
   -2.7340   22.0420  -31.2910 C   0  0  0  0  0  0  0  0  0  0  0  0
   -3.2500   23.4100  -28.2620 C   0  0  0  0  0  0  0  0  0  0  0  0
   -2.3790   23.1650  -27.0230 C   0  0  0  0  0  0  0  0  0  0  0  0
   -2.0758   26.1968  -24.2236 H   0  0  0  0  0  0  0  0  0  0  0  0
   -1.4281   26.8612  -25.7616 H   0  0  0  0  0  0  0  0  0  0  0  0
   -2.3186   25.3012  -25.7616 H   0  0  0  0  0  0  0  0  0  0  0  0
    0.1044   24.9016  -25.9403 H   0  0  0  0  0  0  0  0  0  0  0  0
    0.3687   25.8608  -24.4215 H   0  0  0  0  0  0  0  0  0  0  0  0
    0.2708   23.8844  -23.3476 H   0  0  0  0  0  0  0  0  0  0  0  0
   -1.5039   23.9687  -23.6450 H   0  0  0  0  0  0  0  0  0  0  0  0
    0.5527   23.0879  -28.8426 H   0  0  0  0  0  0  0  0  0  0  0  0
   -0.8902   22.0609  -29.2268 H   0  0  0  0  0  0  0  0  0  0  0  0
   -0.5389   25.0583  -29.4576 H   0  0  0  0  0  0  0  0  0  0  0  0
   -1.2230   23.8477  -30.6368 H   0  0  0  0  0  0  0  0  0  0  0  0
   -2.4748   25.3813  -28.4743 H   0  0  0  0  0  0  0  0  0  0  0  0
   -6.0163   21.7076  -32.1558 H   0  0  0  0  0  0  0  0  0  0  0  0
   -5.1393   19.5937  -33.1137 H   0  0  0  0  0  0  0  0  0  0  0  0
   -5.0096   18.8366  -34.7566 H   0  0  0  0  0  0  0  0  0  0  0  0
   -6.9379   17.3089  -35.1656 H   0  0  0  0  0  0  0  0  0  0  0  0
   -7.6517   14.4356  -33.3039 H   0  0  0  0  0  0  0  0  0  0  0  0
   -8.0194   15.2862  -34.8427 H   0  0  0  0  0  0  0  0  0  0  0  0
   -6.9226   13.8637  -34.8427 H   0  0  0  0  0  0  0  0  0  0  0  0
   -4.9823   14.2221  -32.8394 H   0  0  0  0  0  0  0  0  0  0  0  0
   -3.0566   15.7539  -32.4289 H   0  0  0  0  0  0  0  0  0  0  0  0
   -1.3609   20.4987  -28.8754 H   0  0  0  0  0  0  0  0  0  0  0  0
   -0.8908   18.9047  -27.0146 H   0  0  0  0  0  0  0  0  0  0  0  0
    0.5478   17.2020  -26.1244 H   0  0  0  0  0  0  0  0  0  0  0  0
    0.0046   15.8378  -27.1591 H   0  0  0  0  0  0  0  0  0  0  0  0
    1.7313   16.3329  -27.1591 H   0  0  0  0  0  0  0  0  0  0  0  0
    1.6089   16.5551  -29.6577 H   0  0  0  0  0  0  0  0  0  0  0  0
    1.1162   18.1343  -31.5255 H   0  0  0  0  0  0  0  0  0  0  0  0
   -2.0614   22.7449  -30.7775 H   0  0  0  0  0  0  0  0  0  0  0  0
   -4.2541   23.7303  -27.9471 H   0  0  0  0  0  0  0  0  0  0  0  0
   -3.3283   22.4807  -28.8453 H   0  0  0  0  0  0  0  0  0  0  0  0
   -2.5018   24.0093  -26.3287 H   0  0  0  0  0  0  0  0  0  0  0  0
   -2.7021   22.2216  -26.5587 H   0  0  0  0  0  0  0  0  0  0  0  0
  1  2  1  0
  2  3  1  0
  3  4  1  0
  4  5  1  0
  5  6  2  0
  5  7  1  0
  7  8  1  0
  8  9  1  0
  9 10  1  0
 10 11  1  0
 11 12  1  0
 12 13  2  0
 12 14  2  0
 12 15  1  0
 15 16  2  0
 16 17  1  0
 17 18  2  0
 18 19  1  0
 19 20  2  0
 19 21  2  0
 19 22  1  0
 22 23  2  0
 23 24  1  0
 24 25  2  0
 25 26  1  0
 25 27  1  0
 27 28  2  0
 18 29  1  0
 29 30  1  0
 30 31  2  0
 30 32  2  0
 30 33  1  0
 33 34  2  0
 34 35  1  0
 35 36  2  0
 36 37  1  0
 36 38  1  0
 38 39  2  0
 29 40  2  0
 10 41  1  0
 41 42  1  0
 42  7  1  0
 40 15  1  0
 28 22  1  0
 39 33  1  0
  1 43  1  0
  1 44  1  0
  1 45  1  0
  2 46  1  0
  2 47  1  0
  3 48  1  0
  3 49  1  0
  8 50  1  0
  8 51  1  0
  9 52  1  0
  9 53  1  0
 10 54  1  0
 16 55  1  0
 17 56  1  0
 23 57  1  0
 24 58  1  0
 26 59  1  0
 26 60  1  0
 26 61  1  0
 27 62  1  0
 28 63  1  0
 34 64  1  0
 35 65  1  0
 37 66  1  0
 37 67  1  0
 37 68  1  0
 38 69  1  0
 39 70  1  0
 40 71  1  0
 41 72  1  0
 41 73  1  0
 42 74  1  0
 42 75  1  0
M  CHG  2   4  -1  11  -1
M  END
>  <UniqueID>  (26) 
25

>  <SMILES>  (26) 
CCC[N-]C(=O)N1CCC([N-]S(=O)(=O)c2ccc(S(=O)(=O)c3ccc(C)cc3)c(S(=O)(=O)c3ccc(C)cc3)c2)CC1

>  <Energy>  (26) 
82.3817138530436

>  <Genealogy>  (26) 
CCC[N-]C(=O)N1CCC([N-]S(=O)(=O)c2ccc(S(=O)(=O)c3ccc(C)cc3)c(S(=O)(=O)c3ccc(C)cc3)c2)CC1 (protonated)
CCC[N-]C(=O)N1CCC([N-]S(=O)(=O)c2ccc(S(=O)(=O)c3ccc(C)cc3)c(S(=O)(=O)c3ccc(C)cc3)c2)CC1 (3D coordinates assigned)
CCC[N-]C(=O)N1CCC([N-]S(=O)(=O)c2ccc(S(=O)(=O)c3ccc(C)cc3)c(S(=O)(=O)c3ccc(C)cc3)c2)CC1 (nonaromatic ring conformer: 82.3817138530436 kcal/mol)

>  <smiles>  (26) 
CCCNC(=O)N1CCC(NS(=O)(=O)c2ccc(S(=O)(=O)c3ccc(C)cc3)c(S(=O)(=O)c3ccc(C)cc3)c2)CC1

>  <score_type>  (26) 
oracle

>  <origin>  (26) 
adgpu

>  <m_score__min__energy>  (26) 
-12.69

>  <m_primary>  (26) 
energy

$$$$
26:0
     RDKit          3D

 58 61  0  0  0  0  0  0  0  0999 V2000
   -5.6840   16.3900  -32.0380 C   0  0  0  0  0  0  0  0  0  0  0  0
   -5.3510   16.8610  -33.3890 N   0  0  0  0  0  0  0  0  0  0  0  0
   -4.6010   18.1380  -33.3180 C   0  0  0  0  0  0  0  0  0  0  0  0
   -3.7760   18.3820  -34.5930 C   0  0  0  0  0  0  0  0  0  0  0  0
   -2.7900   17.3030  -34.8410 N   0  0  0  0  0  0  0  0  0  0  0  0
   -1.1720   17.7870  -34.3860 S   0  0  0  0  0  0  0  0  0  0  0  0
   -0.3900   16.5760  -33.9510 O   0  0  0  0  0  0  0  0  0  0  0  0
   -0.4790   18.3830  -35.5800 O   0  0  0  0  0  0  0  0  0  0  0  0
   -1.1900   18.9690  -33.0740 C   0  0  0  0  0  0  0  0  0  0  0  0
   -1.5090   20.3100  -33.3340 C   0  0  0  0  0  0  0  0  0  0  0  0
   -1.5440   21.2420  -32.2900 C   0  0  0  0  0  0  0  0  0  0  0  0
   -1.2680   20.8410  -30.9780 C   0  0  0  0  0  0  0  0  0  0  0  0
   -1.4460   21.9650  -29.6320 S   0  0  0  0  0  0  0  0  0  0  0  0
   -0.1040   22.4030  -29.1200 O   0  0  0  0  0  0  0  0  0  0  0  0
   -2.2030   21.2780  -28.5250 O   0  0  0  0  0  0  0  0  0  0  0  0
   -2.3450   23.3550  -30.1640 N   0  0  0  0  0  0  0  0  0  0  0  0
   -3.6720   23.2790  -30.7030 C   0  0  0  0  0  0  0  0  0  0  0  0
   -4.2410   22.0500  -31.0730 C   0  0  0  0  0  0  0  0  0  0  0  0
   -5.5720   21.9780  -31.5120 C   0  0  0  0  0  0  0  0  0  0  0  0
   -6.3500   23.1540  -31.5650 C   0  0  0  0  0  0  0  0  0  0  0  0
   -5.7580   24.3890  -31.2580 C   0  0  0  0  0  0  0  0  0  0  0  0
   -4.4280   24.4510  -30.8320 C   0  0  0  0  0  0  0  0  0  0  0  0
   -3.8670   25.6810  -30.5150 O   0  0  0  0  0  0  0  0  0  0  0  0
   -7.7870   23.1140  -32.0310 C   0  0  0  0  0  0  0  0  0  0  0  0
   -8.3980   21.7750  -31.8940 N   0  0  0  0  0  0  0  0  0  0  0  0
   -8.7550   21.4680  -30.4940 C   0  0  0  0  0  0  0  0  0  0  0  0
   -7.5490   20.7330  -32.5030 C   0  0  0  0  0  0  0  0  0  0  0  0
   -6.1680   20.6290  -31.8300 C   0  0  0  0  0  0  0  0  0  0  0  0
   -0.9350   19.5040  -30.7190 C   0  0  0  0  0  0  0  0  0  0  0  0
   -0.8970   18.5730  -31.7610 C   0  0  0  0  0  0  0  0  0  0  0  0
   -3.1400   16.0130  -34.2080 C   0  0  0  0  0  0  0  0  0  0  0  0
   -4.6610   15.8070  -34.1730 C   0  0  0  0  0  0  0  0  0  0  0  0
   -5.2165   17.0512  -31.2936 H   0  0  0  0  0  0  0  0  0  0  0  0
   -6.7758   16.4015  -31.9044 H   0  0  0  0  0  0  0  0  0  0  0  0
   -5.3091   15.3645  -31.9044 H   0  0  0  0  0  0  0  0  0  0  0  0
   -5.3153   18.9649  -33.1914 H   0  0  0  0  0  0  0  0  0  0  0  0
   -3.9082   18.0831  -32.4653 H   0  0  0  0  0  0  0  0  0  0  0  0
   -4.4609   18.4394  -35.4518 H   0  0  0  0  0  0  0  0  0  0  0  0
   -3.2198   19.3215  -34.4589 H   0  0  0  0  0  0  0  0  0  0  0  0
   -1.7325   20.6305  -34.3622 H   0  0  0  0  0  0  0  0  0  0  0  0
   -1.7893   22.2932  -32.5017 H   0  0  0  0  0  0  0  0  0  0  0  0
   -3.6364   21.1327  -31.0181 H   0  0  0  0  0  0  0  0  0  0  0  0
   -6.3447   25.3146  -31.3533 H   0  0  0  0  0  0  0  0  0  0  0  0
   -8.3703   23.8291  -31.4324 H   0  0  0  0  0  0  0  0  0  0  0  0
   -7.7952   23.3733  -33.1000 H   0  0  0  0  0  0  0  0  0  0  0  0
   -8.0983   22.0327  -29.8159 H   0  0  0  0  0  0  0  0  0  0  0  0
   -9.8019   21.7523  -30.3118 H   0  0  0  0  0  0  0  0  0  0  0  0
   -8.6307   20.3903  -30.3118 H   0  0  0  0  0  0  0  0  0  0  0  0
   -8.0601   19.7633  -32.4109 H   0  0  0  0  0  0  0  0  0  0  0  0
   -7.3876   21.0070  -33.5560 H   0  0  0  0  0  0  0  0  0  0  0  0
   -6.2747   20.0619  -30.8935 H   0  0  0  0  0  0  0  0  0  0  0  0
   -5.4915   20.1251  -32.5360 H   0  0  0  0  0  0  0  0  0  0  0  0
   -0.7027   19.1864  -29.6918 H   0  0  0  0  0  0  0  0  0  0  0  0
   -0.6362   17.5254  -31.5502 H   0  0  0  0  0  0  0  0  0  0  0  0
   -2.6802   15.1951  -34.7820 H   0  0  0  0  0  0  0  0  0  0  0  0
   -2.7652   16.0191  -33.1738 H   0  0  0  0  0  0  0  0  0  0  0  0
   -5.0447   15.8238  -35.2038 H   0  0  0  0  0  0  0  0  0  0  0  0
   -4.8599   14.8401  -33.6877 H   0  0  0  0  0  0  0  0  0  0  0  0
  1  2  1  0
  2  3  1  0
  3  4  1  0
  4  5  1  0
  5  6  1  0
  6  7  2  0
  6  8  2  0
  6  9  1  0
  9 10  2  0
 10 11  1  0
 11 12  2  0
 12 13  1  0
 13 14  2  0
 13 15  2  0
 13 16  1  0
 16 17  1  0
 17 18  2  0
 18 19  1  0
 19 20  2  0
 20 21  1  0
 21 22  2  0
 22 23  1  0
 20 24  1  0
 24 25  1  0
 25 26  1  0
 25 27  1  0
 27 28  1  0
 12 29  1  0
 29 30  2  0
  5 31  1  0
 31 32  1  0
 32  2  1  0
 30  9  1  0
 22 17  1  0
 28 19  1  0
  1 33  1  0
  1 34  1  0
  1 35  1  0
  3 36  1  0
  3 37  1  0
  4 38  1  0
  4 39  1  0
 10 40  1  0
 11 41  1  0
 18 42  1  0
 21 43  1  0
 24 44  1  0
 24 45  1  0
 26 46  1  0
 26 47  1  0
 26 48  1  0
 27 49  1  0
 27 50  1  0
 28 51  1  0
 28 52  1  0
 29 53  1  0
 30 54  1  0
 31 55  1  0
 31 56  1  0
 32 57  1  0
 32 58  1  0
M  CHG  2  16  -1  23  -1
M  END
>  <UniqueID>  (27) 
26

>  <SMILES>  (27) 
CN1CCN(S(=O)(=O)c2ccc(S(=O)(=O)[N-]c3cc4c(cc3[O-])CN(C)CC4)cc2)CC1

>  <Energy>  (27) 
78.34345097906663

>  <Genealogy>  (27) 
CN1CCN(S(=O)(=O)c2ccc(S(=O)(=O)[N-]c3cc4c(cc3[O-])CN(C)CC4)cc2)CC1 (protonated)
CN1CCN(S(=O)(=O)c2ccc(S(=O)(=O)[N-]c3cc4c(cc3[O-])CN(C)CC4)cc2)CC1 (3D coordinates assigned)
CN1CCN(S(=O)(=O)c2ccc(S(=O)(=O)[N-]c3cc4c(cc3[O-])CN(C)CC4)cc2)CC1 (nonaromatic ring conformer: 78.34345097906663 kcal/mol)

>  <smiles>  (27) 
CN1CCN(S(=O)(=O)c2ccc(S(=O)(=O)Nc3cc4c(cc3O)CN(C)CC4)cc2)CC1

>  <score_type>  (27) 
oracle

>  <origin>  (27) 
adgpu

>  <m_score__min__energy>  (27) 
-15.75

>  <m_primary>  (27) 
energy

$$$$
27:0
     RDKit          3D

 35 36  0  0  0  0  0  0  0  0999 V2000
   -0.4950   22.3760  -24.8680 C   0  0  0  0  0  0  0  0  0  0  0  0
   -0.7690   23.3970  -25.9390 C   0  0  0  0  0  0  0  0  0  0  0  0
   -1.4510   23.0070  -27.1040 C   0  0  0  0  0  0  0  0  0  0  0  0
   -1.7200   23.9320  -28.1270 C   0  0  0  0  0  0  0  0  0  0  0  0
   -2.4400   23.5400  -29.3090 N   0  0  0  0  0  0  0  0  0  0  0  0
   -2.4580   22.1970  -29.8230 C   0  0  0  0  0  0  0  0  0  0  0  0
   -1.6720   21.3280  -29.3560 O   0  0  0  0  0  0  0  0  0  0  0  0
   -3.3570   21.8370  -30.9400 C   0  0  0  0  0  0  0  0  0  0  0  0
   -3.0370   20.7160  -31.7260 C   0  0  0  0  0  0  0  0  0  0  0  0
   -3.8760   20.3150  -32.7680 C   0  0  0  0  0  0  0  0  0  0  0  0
   -5.0430   21.0260  -33.0380 C   0  0  0  0  0  0  0  0  0  0  0  0
   -5.3740   22.1460  -32.2730 C   0  0  0  0  0  0  0  0  0  0  0  0
   -4.5380   22.5710  -31.2270 C   0  0  0  0  0  0  0  0  0  0  0  0
   -4.9740   24.0380  -30.3360 S   0  0  0  0  0  0  0  0  0  0  0  0
   -3.9070   25.3340  -30.7520 N   0  0  0  0  0  0  0  0  0  0  0  0
   -4.8630   23.7900  -28.8580 O   0  0  0  0  0  0  0  0  0  0  0  0
   -6.3830   24.4340  -30.6780 O   0  0  0  0  0  0  0  0  0  0  0  0
   -1.3310   25.2700  -27.9600 C   0  0  0  0  0  0  0  0  0  0  0  0
   -1.6030   26.2100  -28.9480 O   0  0  0  0  0  0  0  0  0  0  0  0
   -0.6540   25.6670  -26.8050 C   0  0  0  0  0  0  0  0  0  0  0  0
   -0.3630   24.7450  -25.7900 C   0  0  0  0  0  0  0  0  0  0  0  0
    0.3340   25.1940  -24.6210 N   0  0  0  0  0  0  0  0  0  0  0  0
   -0.6195   22.8401  -23.8785 H   0  0  0  0  0  0  0  0  0  0  0  0
   -1.2000   21.5380  -24.9713 H   0  0  0  0  0  0  0  0  0  0  0  0
    0.5349   22.0036  -24.9713 H   0  0  0  0  0  0  0  0  0  0  0  0
   -1.7789   21.9631  -27.2167 H   0  0  0  0  0  0  0  0  0  0  0  0
   -2.9440   24.2830  -29.8430 H   0  0  0  0  0  0  0  0  0  0  0  0
   -2.1172   20.1495  -31.5183 H   0  0  0  0  0  0  0  0  0  0  0  0
   -3.6149   19.4365  -33.3763 H   0  0  0  0  0  0  0  0  0  0  0  0
   -5.7050   20.7044  -33.8555 H   0  0  0  0  0  0  0  0  0  0  0  0
   -6.2983   22.7010  -32.4914 H   0  0  0  0  0  0  0  0  0  0  0  0
   -3.4960   25.6890  -29.8600 H   0  0  0  0  0  0  0  0  0  0  0  0
   -0.3452   26.7165  -26.6902 H   0  0  0  0  0  0  0  0  0  0  0  0
    0.2670   24.6970  -23.7060 H   0  0  0  0  0  0  0  0  0  0  0  0
    0.9380   26.0460  -24.6590 H   0  0  0  0  0  0  0  0  0  0  0  0
  1  2  1  0
  2  3  2  0
  3  4  1  0
  4  5  1  0
  5  6  1  0
  6  7  2  0
  6  8  1  0
  8  9  2  0
  9 10  1  0
 10 11  2  0
 11 12  1  0
 12 13  2  0
 13 14  1  0
 14 15  1  0
 14 16  2  0
 14 17  2  0
  4 18  2  0
 18 19  1  0
 18 20  1  0
 20 21  2  0
 21 22  1  0
 21  2  1  0
 13  8  1  0
  1 23  1  0
  1 24  1  0
  1 25  1  0
  3 26  1  0
  5 27  1  0
  9 28  1  0
 10 29  1  0
 11 30  1  0
 12 31  1  0
 15 32  1  0
 20 33  1  0
 22 34  1  0
 22 35  1  0
M  CHG  2  15  -1  19  -1
M  END
>  <UniqueID>  (28) 
27

>  <SMILES>  (28) 
Cc1cc(NC(=O)c2ccccc2S([NH-])(=O)=O)c([O-])cc1N

>  <Energy>  (28) 
46.41123409373606

>  <Genealogy>  (28) 
Cc1cc(NC(=O)c2ccccc2S([NH-])(=O)=O)c([O-])cc1N (protonated)
Cc1cc(NC(=O)c2ccccc2S([NH-])(=O)=O)c([O-])cc1N (3D coordinates assigned)
Cc1cc(NC(=O)c2ccccc2S([NH-])(=O)=O)c([O-])cc1N (optimized conformer: 46.41123409373606 kcal/mol)

>  <smiles>  (28) 
Cc1cc(NC(=O)c2ccccc2S(N)(=O)=O)c(O)cc1N

>  <score_type>  (28) 
oracle

>  <origin>  (28) 
adgpu

>  <m_score__min__energy>  (28) 
-12.09

>  <m_primary>  (28) 
energy

$$$$
28:0
     RDKit          3D

 60 63  0  0  0  0  0  0  0  0999 V2000
   -8.2050   18.1320  -31.2500 C   0  0  0  0  0  0  0  0  0  0  0  0
   -6.7000   17.9080  -31.1470 C   0  0  0  0  0  0  0  0  0  0  0  0
   -6.0840   17.7770  -32.5190 C   0  0  0  0  0  0  0  0  0  0  0  0
   -5.0850   16.8130  -32.7370 C   0  0  0  0  0  0  0  0  0  0  0  0
   -4.4530   16.7110  -33.9830 C   0  0  0  0  0  0  0  0  0  0  0  0
   -3.1830   15.5170  -34.2520 S   0  0  0  0  0  0  0  0  0  0  0  0
   -2.0830   15.7570  -33.2560 O   0  0  0  0  0  0  0  0  0  0  0  0
   -2.6180   15.6710  -35.6370 O   0  0  0  0  0  0  0  0  0  0  0  0
   -3.8300   13.9060  -34.0470 N   0  0  0  0  0  0  0  0  0  0  0  0
   -5.3070   13.9760  -33.9330 C   0  0  0  0  0  0  0  0  0  0  0  0
   -5.8850   12.7090  -33.2910 C   0  0  0  0  0  0  0  0  0  0  0  0
   -5.3600   12.5280  -31.8550 C   0  0  0  0  0  0  0  0  0  0  0  0
   -3.9980   13.2070  -31.6300 C   0  0  0  0  0  0  0  0  0  0  0  0
   -3.1600   13.2020  -32.9170 C   0  0  0  0  0  0  0  0  0  0  0  0
   -4.8070   17.5880  -35.0140 C   0  0  0  0  0  0  0  0  0  0  0  0
   -5.7890   18.5570  -34.8050 C   0  0  0  0  0  0  0  0  0  0  0  0
   -6.4340   18.6550  -33.5670 C   0  0  0  0  0  0  0  0  0  0  0  0
   -7.4060   19.6450  -33.3870 O   0  0  0  0  0  0  0  0  0  0  0  0
   -7.2150   20.8010  -32.6170 C   0  0  0  0  0  0  0  0  0  0  0  0
   -8.2700   21.4420  -31.9550 C   0  0  0  0  0  0  0  0  0  0  0  0
   -8.0340   22.5910  -31.2040 C   0  0  0  0  0  0  0  0  0  0  0  0
   -6.7430   23.1400  -31.1000 C   0  0  0  0  0  0  0  0  0  0  0  0
   -5.6570   22.4710  -31.7400 C   0  0  0  0  0  0  0  0  0  0  0  0
   -5.9250   21.3240  -32.5120 C   0  0  0  0  0  0  0  0  0  0  0  0
   -4.2250   22.9720  -31.7170 C   0  0  0  0  0  0  0  0  0  0  0  0
   -3.8880   23.8220  -30.4830 C   0  0  0  0  0  0  0  0  0  0  0  0
   -4.2690   25.2360  -30.6340 N   0  0  0  0  0  0  0  0  0  0  0  0
   -5.7050   25.4650  -30.8560 C   0  0  0  0  0  0  0  0  0  0  0  0
   -6.5810   24.3720  -30.2270 C   0  0  0  0  0  0  0  0  0  0  0  0
   -8.6361   18.1962  -30.2400 H   0  0  0  0  0  0  0  0  0  0  0  0
   -8.4000   19.0691  -31.7921 H   0  0  0  0  0  0  0  0  0  0  0  0
   -8.6644   17.2923  -31.7921 H   0  0  0  0  0  0  0  0  0  0  0  0
   -6.2428   18.7622  -30.6261 H   0  0  0  0  0  0  0  0  0  0  0  0
   -6.5187   16.9781  -30.5881 H   0  0  0  0  0  0  0  0  0  0  0  0
   -4.7968   16.1326  -31.9221 H   0  0  0  0  0  0  0  0  0  0  0  0
   -3.6020   13.3840  -34.9260 H   0  0  0  0  0  0  0  0  0  0  0  0
   -5.5764   14.8445  -33.3139 H   0  0  0  0  0  0  0  0  0  0  0  0
   -5.7259   14.0700  -34.9458 H   0  0  0  0  0  0  0  0  0  0  0  0
   -6.9819   12.7872  -33.2656 H   0  0  0  0  0  0  0  0  0  0  0  0
   -5.5738   11.8402  -33.8895 H   0  0  0  0  0  0  0  0  0  0  0  0
   -6.0897   12.9631  -31.1562 H   0  0  0  0  0  0  0  0  0  0  0  0
   -5.2256   11.4497  -31.6842 H   0  0  0  0  0  0  0  0  0  0  0  0
   -4.1629   14.2472  -31.3124 H   0  0  0  0  0  0  0  0  0  0  0  0
   -3.4524   12.6488  -30.8549 H   0  0  0  0  0  0  0  0  0  0  0  0
   -2.2003   13.6993  -32.7131 H   0  0  0  0  0  0  0  0  0  0  0  0
   -3.0212   12.1528  -33.2170 H   0  0  0  0  0  0  0  0  0  0  0  0
   -4.3097   17.5134  -35.9923 H   0  0  0  0  0  0  0  0  0  0  0  0
   -6.0576   19.2477  -35.6179 H   0  0  0  0  0  0  0  0  0  0  0  0
   -9.2897   21.0360  -32.0286 H   0  0  0  0  0  0  0  0  0  0  0  0
   -8.8718   23.0777  -30.6831 H   0  0  0  0  0  0  0  0  0  0  0  0
   -5.0993   20.8291  -33.0442 H   0  0  0  0  0  0  0  0  0  0  0  0
   -3.5523   22.1018  -31.7335 H   0  0  0  0  0  0  0  0  0  0  0  0
   -4.0965   23.6186  -32.5976 H   0  0  0  0  0  0  0  0  0  0  0  0
   -4.4215   23.4064  -29.6154 H   0  0  0  0  0  0  0  0  0  0  0  0
   -2.7966   23.7888  -30.3501 H   0  0  0  0  0  0  0  0  0  0  0  0
   -3.7520   25.6320  -31.4550 H   0  0  0  0  0  0  0  0  0  0  0  0
   -5.9797   26.4343  -30.4144 H   0  0  0  0  0  0  0  0  0  0  0  0
   -5.8811   25.4496  -31.9417 H   0  0  0  0  0  0  0  0  0  0  0  0
   -6.1229   24.0651  -29.2752 H   0  0  0  0  0  0  0  0  0  0  0  0
   -7.5838   24.8031  -30.0912 H   0  0  0  0  0  0  0  0  0  0  0  0
  1  2  1  0
  2  3  1  0
  3  4  2  0
  4  5  1  0
  5  6  1  0
  6  7  2  0
  6  8  2  0
  6  9  1  0
  9 10  1  0
 10 11  1  0
 11 12  1  0
 12 13  1  0
 13 14  1  0
  5 15  2  0
 15 16  1  0
 16 17  2  0
 17 18  1  0
 18 19  1  0
 19 20  2  0
 20 21  1  0
 21 22  2  0
 22 23  1  0
 23 24  2  0
 23 25  1  0
 25 26  1  0
 26 27  1  0
 27 28  1  0
 28 29  1  0
 17  3  1  0
 24 19  1  0
 14  9  1  0
 29 22  1  0
  1 30  1  0
  1 31  1  0
  1 32  1  0
  2 33  1  0
  2 34  1  0
  4 35  1  0
  9 36  1  0
 10 37  1  0
 10 38  1  0
 11 39  1  0
 11 40  1  0
 12 41  1  0
 12 42  1  0
 13 43  1  0
 13 44  1  0
 14 45  1  0
 14 46  1  0
 15 47  1  0
 16 48  1  0
 20 49  1  0
 21 50  1  0
 24 51  1  0
 25 52  1  0
 25 53  1  0
 26 54  1  0
 26 55  1  0
 27 56  1  0
 28 57  1  0
 28 58  1  0
 29 59  1  0
 29 60  1  0
M  CHG  1   9   1
M  END
>  <UniqueID>  (29) 
28

>  <SMILES>  (29) 
CCc1cc(S(=O)(=O)[NH+]2CCCCC2)ccc1Oc1ccc2c(c1)CCNCC2

>  <Energy>  (29) 
82.7960306998462

>  <Genealogy>  (29) 
CCc1cc(S(=O)(=O)[NH+]2CCCCC2)ccc1Oc1ccc2c(c1)CCNCC2 (protonated)
CCc1cc(S(=O)(=O)[NH+]2CCCCC2)ccc1Oc1ccc2c(c1)CCNCC2 (3D coordinates assigned)
CCc1cc(S(=O)(=O)[NH+]2CCCCC2)ccc1Oc1ccc2c(c1)CCNCC2 (nonaromatic ring conformer: 82.7960306998462 kcal/mol)

>  <smiles>  (29) 
CCc1cc(S(=O)(=O)N2CCCCC2)ccc1Oc1ccc2c(c1)CCNCC2

>  <score_type>  (29) 
oracle

>  <origin>  (29) 
adgpu

>  <m_score__min__energy>  (29) 
-7.7300000000000004

>  <m_primary>  (29) 
energy

$$$$
29:0
     RDKit          3D

 56 59  0  0  0  0  0  0  0  0999 V2000
   -6.0590   18.4970  -35.3950 O   0  0  0  0  0  0  0  0  0  0  0  0
   -5.8140   18.3400  -34.1680 C   0  0  0  0  0  0  0  0  0  0  0  0
   -6.1600   19.4260  -33.2270 C   0  0  0  0  0  0  0  0  0  0  0  0
   -5.1720   20.3330  -32.8080 C   0  0  0  0  0  0  0  0  0  0  0  0
   -5.4900   21.3650  -31.9200 C   0  0  0  0  0  0  0  0  0  0  0  0
   -6.7990   21.4960  -31.4170 C   0  0  0  0  0  0  0  0  0  0  0  0
   -7.1660   22.5480  -30.5050 N   0  0  0  0  0  0  0  0  0  0  0  0
   -6.3780   24.0930  -30.4310 S   0  0  0  0  0  0  0  0  0  0  0  0
   -6.1940   24.6260  -31.8250 O   0  0  0  0  0  0  0  0  0  0  0  0
   -7.2410   25.0530  -29.6590 O   0  0  0  0  0  0  0  0  0  0  0  0
   -4.8330   23.9320  -29.6020 C   0  0  0  0  0  0  0  0  0  0  0  0
   -4.6230   22.8520  -28.7370 C   0  0  0  0  0  0  0  0  0  0  0  0
   -3.4000   22.7050  -28.0780 C   0  0  0  0  0  0  0  0  0  0  0  0
   -2.3660   23.6280  -28.2870 C   0  0  0  0  0  0  0  0  0  0  0  0
   -0.8250   23.4260  -27.4490 S   0  0  0  0  0  0  0  0  0  0  0  0
    0.2730   24.0960  -28.2340 O   0  0  0  0  0  0  0  0  0  0  0  0
   -0.9260   24.0650  -26.0920 O   0  0  0  0  0  0  0  0  0  0  0  0
   -0.4560   21.7270  -27.2650 N   0  0  0  0  0  0  0  0  0  0  0  0
   -1.2600   21.1030  -26.2020 C   0  0  0  0  0  0  0  0  0  0  0  0
   -1.8330   19.8000  -26.7480 C   0  0  0  0  0  0  0  0  0  0  0  0
   -1.1540   19.5970  -28.0830 C   0  0  0  0  0  0  0  0  0  0  0  0
   -0.7430   20.9930  -28.4980 C   0  0  0  0  0  0  0  0  0  0  0  0
   -2.5830   24.7240  -29.1430 C   0  0  0  0  0  0  0  0  0  0  0  0
   -1.5870   25.6740  -29.3460 O   0  0  0  0  0  0  0  0  0  0  0  0
   -3.8120   24.8720  -29.7960 C   0  0  0  0  0  0  0  0  0  0  0  0
   -7.7730   20.5650  -31.8120 C   0  0  0  0  0  0  0  0  0  0  0  0
   -7.4570   19.5380  -32.7060 C   0  0  0  0  0  0  0  0  0  0  0  0
   -5.2200   17.1080  -33.7160 N   0  0  0  0  0  0  0  0  0  0  0  0
   -5.3600   16.5810  -32.3660 C   0  0  0  0  0  0  0  0  0  0  0  0
   -4.9340   15.1210  -32.4510 C   0  0  0  0  0  0  0  0  0  0  0  0
   -4.1470   14.9960  -33.7530 C   0  0  0  0  0  0  0  0  0  0  0  0
   -4.6120   16.1540  -34.6260 C   0  0  0  0  0  0  0  0  0  0  0  0
   -4.1422   20.2305  -33.1809 H   0  0  0  0  0  0  0  0  0  0  0  0
   -4.7125   22.0796  -31.6121 H   0  0  0  0  0  0  0  0  0  0  0  0
   -7.9660   22.3950  -29.8490 H   0  0  0  0  0  0  0  0  0  0  0  0
   -5.4242   22.1159  -28.5754 H   0  0  0  0  0  0  0  0  0  0  0  0
   -3.2475   21.8597  -27.3908 H   0  0  0  0  0  0  0  0  0  0  0  0
   -0.6257   20.8945  -25.3278 H   0  0  0  0  0  0  0  0  0  0  0  0
   -2.0720   21.7770  -25.8915 H   0  0  0  0  0  0  0  0  0  0  0  0
   -1.6066   18.9646  -26.0691 H   0  0  0  0  0  0  0  0  0  0  0  0
   -2.9279   19.8415  -26.8458 H   0  0  0  0  0  0  0  0  0  0  0  0
   -0.2745   18.9445  -27.9796 H   0  0  0  0  0  0  0  0  0  0  0  0
   -1.8075   19.1098  -28.8217 H   0  0  0  0  0  0  0  0  0  0  0  0
    0.1543   20.9517  -29.1330 H   0  0  0  0  0  0  0  0  0  0  0  0
   -1.5379   21.4853  -29.0774 H   0  0  0  0  0  0  0  0  0  0  0  0
   -3.9772   25.7299  -30.4644 H   0  0  0  0  0  0  0  0  0  0  0  0
   -8.7953   20.6447  -31.4138 H   0  0  0  0  0  0  0  0  0  0  0  0
   -8.2300   18.8137  -33.0024 H   0  0  0  0  0  0  0  0  0  0  0  0
   -4.7099   17.1309  -31.6696 H   0  0  0  0  0  0  0  0  0  0  0  0
   -6.3898   16.6839  -31.9933 H   0  0  0  0  0  0  0  0  0  0  0  0
   -4.2996   14.8559  -31.5923 H   0  0  0  0  0  0  0  0  0  0  0  0
   -5.8003   14.4434  -32.4334 H   0  0  0  0  0  0  0  0  0  0  0  0
   -3.0672   15.0720  -33.5577 H   0  0  0  0  0  0  0  0  0  0  0  0
   -4.3183   14.0248  -34.2403 H   0  0  0  0  0  0  0  0  0  0  0  0
   -3.7570   16.6104  -35.1461 H   0  0  0  0  0  0  0  0  0  0  0  0
   -5.3191   15.8220  -35.4005 H   0  0  0  0  0  0  0  0  0  0  0  0
  1  2  2  0
  2  3  1  0
  3  4  2  0
  4  5  1  0
  5  6  2  0
  6  7  1  0
  7  8  1  0
  8  9  2  0
  8 10  2  0
  8 11  1  0
 11 12  2  0
 12 13  1  0
 13 14  2  0
 14 15  1  0
 15 16  2  0
 15 17  2  0
 15 18  1  0
 18 19  1  0
 19 20  1  0
 20 21  1  0
 21 22  1  0
 14 23  1  0
 23 24  1  0
 23 25  2  0
  6 26  1  0
 26 27  2  0
  2 28  1  0
 28 29  1  0
 29 30  1  0
 30 31  1  0
 31 32  1  0
 27  3  1  0
 32 28  1  0
 25 11  1  0
 22 18  1  0
  4 33  1  0
  5 34  1  0
  7 35  1  0
 12 36  1  0
 13 37  1  0
 19 38  1  0
 19 39  1  0
 20 40  1  0
 20 41  1  0
 21 42  1  0
 21 43  1  0
 22 44  1  0
 22 45  1  0
 25 46  1  0
 26 47  1  0
 27 48  1  0
 29 49  1  0
 29 50  1  0
 30 51  1  0
 30 52  1  0
 31 53  1  0
 31 54  1  0
 32 55  1  0
 32 56  1  0
M  CHG  1  24  -1
M  END
>  <UniqueID>  (30) 
29

>  <SMILES>  (30) 
O=C(c1ccc(NS(=O)(=O)c2ccc(S(=O)(=O)N3CCCC3)c([O-])c2)cc1)N1CCCC1

>  <Energy>  (30) 
66.66589314287658

>  <Genealogy>  (30) 
O=C(c1ccc(NS(=O)(=O)c2ccc(S(=O)(=O)N3CCCC3)c([O-])c2)cc1)N1CCCC1 (protonated)
O=C(c1ccc(NS(=O)(=O)c2ccc(S(=O)(=O)N3CCCC3)c([O-])c2)cc1)N1CCCC1 (3D coordinates assigned)
O=C(c1ccc(NS(=O)(=O)c2ccc(S(=O)(=O)N3CCCC3)c([O-])c2)cc1)N1CCCC1 (nonaromatic ring conformer: 66.66589314287658 kcal/mol)

>  <smiles>  (30) 
O=C(c1ccc(NS(=O)(=O)c2ccc(S(=O)(=O)N3CCCC3)c(O)c2)cc1)N1CCCC1

>  <score_type>  (30) 
oracle

>  <origin>  (30) 
adgpu

>  <m_score__min__energy>  (30) 
-13.359999999999999

>  <m_primary>  (30) 
energy

$$$$
30:0
     RDKit          3D

 48 51  0  0  0  0  0  0  0  0999 V2000
   -0.1180   23.7270  -29.2440 C   0  0  0  0  0  0  0  0  0  0  0  0
   -1.1150   24.7390  -29.1640 O   0  0  0  0  0  0  0  0  0  0  0  0
   -2.0090   24.8960  -28.0920 C   0  0  0  0  0  0  0  0  0  0  0  0
   -1.6400   25.5680  -26.9100 C   0  0  0  0  0  0  0  0  0  0  0  0
   -2.5600   25.7290  -25.8720 C   0  0  0  0  0  0  0  0  0  0  0  0
   -3.8550   25.2260  -25.9990 C   0  0  0  0  0  0  0  0  0  0  0  0
   -4.2330   24.5550  -27.1630 C   0  0  0  0  0  0  0  0  0  0  0  0
   -3.3170   24.3790  -28.2130 C   0  0  0  0  0  0  0  0  0  0  0  0
   -3.7220   23.6760  -29.4010 N   0  0  0  0  0  0  0  0  0  0  0  0
   -2.9730   22.4960  -29.8520 C   0  0  0  0  0  0  0  0  0  0  0  0
   -3.9370   21.4130  -30.3470 C   0  0  0  0  0  0  0  0  0  0  0  0
   -4.9660   21.9760  -31.2280 N   0  0  0  0  0  0  0  0  0  0  0  0
   -5.8170   21.0830  -31.9610 C   0  0  0  0  0  0  0  0  0  0  0  0
   -7.2220   21.0920  -31.7950 C   0  0  0  0  0  0  0  0  0  0  0  0
   -7.8820   22.0430  -30.8250 C   0  0  0  0  0  0  0  0  0  0  0  0
   -7.9890   20.1400  -32.5290 C   0  0  0  0  0  0  0  0  0  0  0  0
   -9.4810   20.0590  -32.3960 C   0  0  0  0  0  0  0  0  0  0  0  0
   -7.3700   19.2820  -33.3940 N   0  0  0  0  0  0  0  0  0  0  0  0
   -6.0260   19.3280  -33.5330 C   0  0  0  0  0  0  0  0  0  0  0  0
   -5.3070   18.5230  -34.3400 N   0  0  0  0  0  0  0  0  0  0  0  0
   -4.0330   18.9290  -34.1180 C   0  0  0  0  0  0  0  0  0  0  0  0
   -4.0120   19.9580  -33.1900 C   0  0  0  0  0  0  0  0  0  0  0  0
   -5.2840   20.1950  -32.8360 N   0  0  0  0  0  0  0  0  0  0  0  0
   -5.0220   23.4150  -31.5020 C   0  0  0  0  0  0  0  0  0  0  0  0
   -4.8390   24.2020  -30.2010 C   0  0  0  0  0  0  0  0  0  0  0  0
    0.1798   23.4247  -28.2292 H   0  0  0  0  0  0  0  0  0  0  0  0
   -0.5213   22.8567  -29.7823 H   0  0  0  0  0  0  0  0  0  0  0  0
    0.7583   24.1173  -29.7823 H   0  0  0  0  0  0  0  0  0  0  0  0
   -0.6209   25.9683  -26.8042 H   0  0  0  0  0  0  0  0  0  0  0  0
   -2.2629   26.2537  -24.9520 H   0  0  0  0  0  0  0  0  0  0  0  0
   -4.5787   25.3583  -25.1812 H   0  0  0  0  0  0  0  0  0  0  0  0
   -5.2556   24.1612  -27.2587 H   0  0  0  0  0  0  0  0  0  0  0  0
   -2.2995   22.7851  -30.6723 H   0  0  0  0  0  0  0  0  0  0  0  0
   -2.3895   22.0981  -29.0087 H   0  0  0  0  0  0  0  0  0  0  0  0
   -3.3674   20.6529  -30.9018 H   0  0  0  0  0  0  0  0  0  0  0  0
   -4.4348   20.9665  -29.4736 H   0  0  0  0  0  0  0  0  0  0  0  0
   -7.6625   21.7267  -29.7946 H   0  0  0  0  0  0  0  0  0  0  0  0
   -7.4943   23.0596  -30.9870 H   0  0  0  0  0  0  0  0  0  0  0  0
   -8.9700   22.0354  -30.9870 H   0  0  0  0  0  0  0  0  0  0  0  0
   -9.7539   20.0442  -31.3305 H   0  0  0  0  0  0  0  0  0  0  0  0
   -9.9403   20.9335  -32.8800 H   0  0  0  0  0  0  0  0  0  0  0  0
   -9.8429   19.1399  -32.8800 H   0  0  0  0  0  0  0  0  0  0  0  0
   -3.1433   18.5028  -34.6047 H   0  0  0  0  0  0  0  0  0  0  0  0
   -3.1205   20.4816  -32.8145 H   0  0  0  0  0  0  0  0  0  0  0  0
   -4.2207   23.6834  -32.2062 H   0  0  0  0  0  0  0  0  0  0  0  0
   -6.0005   23.6620  -31.9396 H   0  0  0  0  0  0  0  0  0  0  0  0
   -4.6371   25.2551  -30.4465 H   0  0  0  0  0  0  0  0  0  0  0  0
   -5.7609   24.1058  -29.6087 H   0  0  0  0  0  0  0  0  0  0  0  0
  1  2  1  0
  2  3  1  0
  3  4  2  0
  4  5  1  0
  5  6  2  0
  6  7  1  0
  7  8  2  0
  8  9  1  0
  9 10  1  0
 10 11  1  0
 11 12  1  0
 12 13  1  0
 13 14  2  0
 14 15  1  0
 14 16  1  0
 16 17  1  0
 16 18  2  0
 18 19  1  0
 19 20  2  0
 20 21  1  0
 21 22  2  0
 22 23  1  0
 12 24  1  0
 24 25  1  0
  8  3  1  0
 25  9  1  0
 23 13  1  0
 23 19  1  0
  1 26  1  0
  1 27  1  0
  1 28  1  0
  4 29  1  0
  5 30  1  0
  6 31  1  0
  7 32  1  0
 10 33  1  0
 10 34  1  0
 11 35  1  0
 11 36  1  0
 15 37  1  0
 15 38  1  0
 15 39  1  0
 17 40  1  0
 17 41  1  0
 17 42  1  0
 21 43  1  0
 22 44  1  0
 24 45  1  0
 24 46  1  0
 25 47  1  0
 25 48  1  0
M  END
>  <UniqueID>  (31) 
30

>  <SMILES>  (31) 
COc1ccccc1N1CCN(c2c(C)c(C)nc3nccn23)CC1

>  <Energy>  (31) 
95.50029791309444

>  <Genealogy>  (31) 
COc1ccccc1N1CCN(c2c(C)c(C)nc3nccn23)CC1 (3D coordinates assigned)
COc1ccccc1N1CCN(c2c(C)c(C)nc3nccn23)CC1 (nonaromatic ring conformer: 95.50029791309444 kcal/mol)

>  <smiles>  (31) 
COc1ccccc1N1CCN(c2c(C)c(C)nc3nccn23)CC1

>  <score_type>  (31) 
oracle

>  <origin>  (31) 
adgpu

>  <m_score__min__energy>  (31) 
-7.7699999999999996

>  <m_primary>  (31) 
energy

$$$$
31:0
     RDKit          3D

 43 46  0  0  0  0  0  0  0  0999 V2000
   -5.6560   25.4590  -29.6640 O   0  0  0  0  0  0  0  0  0  0  0  0
   -4.9020   24.6720  -30.2960 C   0  0  0  0  0  0  0  0  0  0  0  0
   -3.4910   24.9260  -30.2960 N   0  0  0  0  0  0  0  0  0  0  0  0
   -2.5450   24.3720  -29.3710 C   0  0  0  0  0  0  0  0  0  0  0  0
   -2.7550   23.0740  -28.8910 C   0  0  0  0  0  0  0  0  0  0  0  0
   -1.8370   22.4820  -28.0150 C   0  0  0  0  0  0  0  0  0  0  0  0
   -2.0850   20.8170  -27.4970 S   0  0  0  0  0  0  0  0  0  0  0  0
   -3.5580   20.5270  -27.4750 O   0  0  0  0  0  0  0  0  0  0  0  0
   -1.5250   20.6200  -26.1130 O   0  0  0  0  0  0  0  0  0  0  0  0
   -1.2910   19.7460  -28.6240 N   0  0  0  0  0  0  0  0  0  0  0  0
   -1.1410   20.3730  -29.9370 C   0  0  0  0  0  0  0  0  0  0  0  0
    0.0700   19.7260  -30.5880 C   0  0  0  0  0  0  0  0  0  0  0  0
    0.8630   19.1100  -29.4450 C   0  0  0  0  0  0  0  0  0  0  0  0
    0.0660   19.4200  -28.1870 C   0  0  0  0  0  0  0  0  0  0  0  0
   -0.7160   23.2080  -27.5910 C   0  0  0  0  0  0  0  0  0  0  0  0
   -0.5190   24.5160  -28.0370 C   0  0  0  0  0  0  0  0  0  0  0  0
   -1.4310   25.1060  -28.9180 C   0  0  0  0  0  0  0  0  0  0  0  0
   -1.2310   26.4230  -29.3190 O   0  0  0  0  0  0  0  0  0  0  0  0
   -5.4860   23.4940  -30.9790 C   0  0  0  0  0  0  0  0  0  0  0  0
   -4.6650   22.6600  -31.7840 C   0  0  0  0  0  0  0  0  0  0  0  0
   -5.2050   21.5370  -32.4380 C   0  0  0  0  0  0  0  0  0  0  0  0
   -6.5620   21.2820  -32.2780 C   0  0  0  0  0  0  0  0  0  0  0  0
   -7.3580   22.0800  -31.5240 C   0  0  0  0  0  0  0  0  0  0  0  0
   -6.8660   23.2000  -30.8600 C   0  0  0  0  0  0  0  0  0  0  0  0
   -8.6520   21.5970  -31.5490 O   0  0  0  0  0  0  0  0  0  0  0  0
   -8.6690   20.4190  -32.3680 C   0  0  0  0  0  0  0  0  0  0  0  0
   -7.3150   20.2550  -32.8140 O   0  0  0  0  0  0  0  0  0  0  0  0
   -3.6486   22.5144  -29.2046 H   0  0  0  0  0  0  0  0  0  0  0  0
   -2.0395   20.1975  -30.5469 H   0  0  0  0  0  0  0  0  0  0  0  0
   -1.0096   21.4613  -29.8456 H   0  0  0  0  0  0  0  0  0  0  0  0
   -0.2451   18.9492  -31.3002 H   0  0  0  0  0  0  0  0  0  0  0  0
    0.6681   20.4551  -31.1543 H   0  0  0  0  0  0  0  0  0  0  0  0
    0.9561   18.0227  -29.5834 H   0  0  0  0  0  0  0  0  0  0  0  0
    1.8847   19.5140  -29.3918 H   0  0  0  0  0  0  0  0  0  0  0  0
    0.0507   18.5442  -27.5216 H   0  0  0  0  0  0  0  0  0  0  0  0
    0.5146   20.2542  -27.6278 H   0  0  0  0  0  0  0  0  0  0  0  0
    0.0100   22.7464  -26.9055 H   0  0  0  0  0  0  0  0  0  0  0  0
    0.3575   25.0853  -27.6940 H   0  0  0  0  0  0  0  0  0  0  0  0
   -3.5962   22.8943  -31.8974 H   0  0  0  0  0  0  0  0  0  0  0  0
   -4.5734   20.8820  -33.0561 H   0  0  0  0  0  0  0  0  0  0  0  0
   -7.5305   23.8388  -30.2597 H   0  0  0  0  0  0  0  0  0  0  0  0
   -8.9911   19.5457  -31.7819 H   0  0  0  0  0  0  0  0  0  0  0  0
   -9.3719   20.5115  -33.2090 H   0  0  0  0  0  0  0  0  0  0  0  0
  1  2  2  0
  2  3  1  0
  3  4  1  0
  4  5  2  0
  5  6  1  0
  6  7  1  0
  7  8  2  0
  7  9  2  0
  7 10  1  0
 10 11  1  0
 11 12  1  0
 12 13  1  0
 13 14  1  0
  6 15  2  0
 15 16  1  0
 16 17  2  0
 17 18  1  0
  2 19  1  0
 19 20  2  0
 20 21  1  0
 21 22  2  0
 22 23  1  0
 23 24  2  0
 23 25  1  0
 25 26  1  0
 26 27  1  0
 17  4  1  0
 24 19  1  0
 14 10  1  0
 27 22  1  0
  5 28  1  0
 11 29  1  0
 11 30  1  0
 12 31  1  0
 12 32  1  0
 13 33  1  0
 13 34  1  0
 14 35  1  0
 14 36  1  0
 15 37  1  0
 16 38  1  0
 20 39  1  0
 21 40  1  0
 24 41  1  0
 26 42  1  0
 26 43  1  0
M  CHG  2   3  -1  18  -1
M  END
>  <UniqueID>  (32) 
31

>  <SMILES>  (32) 
O=C([N-]c1cc(S(=O)(=O)N2CCCC2)ccc1[O-])c1ccc2c(c1)OCO2

>  <Energy>  (32) 
82.45577010523539

>  <Genealogy>  (32) 
O=C([N-]c1cc(S(=O)(=O)N2CCCC2)ccc1[O-])c1ccc2c(c1)OCO2 (protonated)
O=C([N-]c1cc(S(=O)(=O)N2CCCC2)ccc1[O-])c1ccc2c(c1)OCO2 (3D coordinates assigned)
O=C([N-]c1cc(S(=O)(=O)N2CCCC2)ccc1[O-])c1ccc2c(c1)OCO2 (nonaromatic ring conformer: 82.45577010523539 kcal/mol)

>  <smiles>  (32) 
O=C(Nc1cc(S(=O)(=O)N2CCCC2)ccc1O)c1ccc2c(c1)OCO2

>  <score_type>  (32) 
oracle

>  <origin>  (32) 
adgpu

>  <m_score__min__energy>  (32) 
-12.94

>  <m_primary>  (32) 
energy

$$$$
32:0
     RDKit          3D

 61 64  0  0  0  0  0  0  0  0999 V2000
    0.5940   17.0980  -33.2030 C   0  0  0  0  0  0  0  0  0  0  0  0
   -0.0820   17.6180  -34.4050 N   0  0  0  0  0  0  0  0  0  0  0  0
   -0.4770   16.5440  -35.3490 C   0  0  0  0  0  0  0  0  0  0  0  0
   -1.9990   16.3040  -35.4090 C   0  0  0  0  0  0  0  0  0  0  0  0
   -2.5970   16.4140  -34.0630 N   0  0  0  0  0  0  0  0  0  0  0  0
   -4.0350   16.0520  -34.0800 C   0  0  0  0  0  0  0  0  0  0  0  0
   -4.9190   17.2020  -33.6560 C   0  0  0  0  0  0  0  0  0  0  0  0
   -5.2930   18.1850  -34.5850 C   0  0  0  0  0  0  0  0  0  0  0  0
   -6.0980   19.2570  -34.1940 C   0  0  0  0  0  0  0  0  0  0  0  0
   -6.5500   19.3560  -32.8690 C   0  0  0  0  0  0  0  0  0  0  0  0
   -7.4010   20.4880  -32.4530 C   0  0  0  0  0  0  0  0  0  0  0  0
   -8.7950   20.3080  -32.4480 C   0  0  0  0  0  0  0  0  0  0  0  0
   -9.6420   21.3320  -32.0220 C   0  0  0  0  0  0  0  0  0  0  0  0
   -9.1080   22.5470  -31.5940 C   0  0  0  0  0  0  0  0  0  0  0  0
   -7.7260   22.7470  -31.6060 C   0  0  0  0  0  0  0  0  0  0  0  0
   -6.8590   21.7350  -32.0490 C   0  0  0  0  0  0  0  0  0  0  0  0
   -5.1200   22.0780  -32.1060 S   0  0  0  0  0  0  0  0  0  0  0  0
   -4.6010   21.6890  -33.4610 O   0  0  0  0  0  0  0  0  0  0  0  0
   -4.8770   23.5440  -31.8820 O   0  0  0  0  0  0  0  0  0  0  0  0
   -4.2980   21.1580  -30.8620 N   0  0  0  0  0  0  0  0  0  0  0  0
   -3.8670   22.0180  -29.7300 C   0  0  0  0  0  0  0  0  0  0  0  0
   -2.3420   22.0720  -29.5250 C   0  0  0  0  0  0  0  0  0  0  0  0
   -1.6250   22.2300  -30.8650 C   0  0  0  0  0  0  0  0  0  0  0  0
   -1.9860   21.1020  -31.8480 C   0  0  0  0  0  0  0  0  0  0  0  0
   -3.2340   20.3040  -31.4240 C   0  0  0  0  0  0  0  0  0  0  0  0
   -6.1640   18.3840  -31.9340 C   0  0  0  0  0  0  0  0  0  0  0  0
   -5.3590   17.3110  -32.3260 C   0  0  0  0  0  0  0  0  0  0  0  0
   -2.4260   17.7850  -33.5090 C   0  0  0  0  0  0  0  0  0  0  0  0
   -1.1890   18.5280  -34.0650 C   0  0  0  0  0  0  0  0  0  0  0  0
    0.0918   17.4843  -32.3038 H   0  0  0  0  0  0  0  0  0  0  0  0
    0.5498   15.9989  -33.2040 H   0  0  0  0  0  0  0  0  0  0  0  0
    1.6450   17.4227  -33.2040 H   0  0  0  0  0  0  0  0  0  0  0  0
   -0.1285   16.8199  -36.3552 H   0  0  0  0  0  0  0  0  0  0  0  0
   -0.0174   15.6121  -34.9880 H   0  0  0  0  0  0  0  0  0  0  0  0
   -2.4573   17.0540  -36.0704 H   0  0  0  0  0  0  0  0  0  0  0  0
   -2.1829   15.2911  -35.7966 H   0  0  0  0  0  0  0  0  0  0  0  0
   -2.1040   15.7430  -33.4280 H   0  0  0  0  0  0  0  0  0  0  0  0
   -4.3121   15.7501  -35.1008 H   0  0  0  0  0  0  0  0  0  0  0  0
   -4.1844   15.2300  -33.3645 H   0  0  0  0  0  0  0  0  0  0  0  0
   -4.9500   18.1107  -35.6275 H   0  0  0  0  0  0  0  0  0  0  0  0
   -6.3790   20.0270  -34.9275 H   0  0  0  0  0  0  0  0  0  0  0  0
   -9.2222   19.3513  -32.7829 H   0  0  0  0  0  0  0  0  0  0  0  0
  -10.7315   21.1806  -32.0238 H   0  0  0  0  0  0  0  0  0  0  0  0
   -9.7761   23.3488  -31.2465 H   0  0  0  0  0  0  0  0  0  0  0  0
   -7.3121   23.7074  -31.2649 H   0  0  0  0  0  0  0  0  0  0  0  0
   -4.2266   23.0406  -29.9170 H   0  0  0  0  0  0  0  0  0  0  0  0
   -4.2938   21.5771  -28.8171 H   0  0  0  0  0  0  0  0  0  0  0  0
   -2.0940   22.9272  -28.8792 H   0  0  0  0  0  0  0  0  0  0  0  0
   -2.0136   21.1330  -29.0554 H   0  0  0  0  0  0  0  0  0  0  0  0
   -1.9119   23.1942  -31.3099 H   0  0  0  0  0  0  0  0  0  0  0  0
   -0.5419   22.1847  -30.6785 H   0  0  0  0  0  0  0  0  0  0  0  0
   -2.1744   21.5465  -32.8364 H   0  0  0  0  0  0  0  0  0  0  0  0
   -1.1393   20.4000  -31.8654 H   0  0  0  0  0  0  0  0  0  0  0  0
   -3.6327   19.7812  -32.3059 H   0  0  0  0  0  0  0  0  0  0  0  0
   -2.9245   19.6010  -30.6366 H   0  0  0  0  0  0  0  0  0  0  0  0
   -6.4961   18.4667  -30.8886 H   0  0  0  0  0  0  0  0  0  0  0  0
   -5.0682   16.5476  -31.5893 H   0  0  0  0  0  0  0  0  0  0  0  0
   -3.3232   18.3729  -33.7527 H   0  0  0  0  0  0  0  0  0  0  0  0
   -2.2774   17.6782  -32.4243 H   0  0  0  0  0  0  0  0  0  0  0  0
   -1.4858   19.0748  -34.9722 H   0  0  0  0  0  0  0  0  0  0  0  0
   -0.8295   19.2076  -33.2783 H   0  0  0  0  0  0  0  0  0  0  0  0
  1  2  1  0
  2  3  1  0
  3  4  1  0
  4  5  1  0
  5  6  1  0
  6  7  1  0
  7  8  2  0
  8  9  1  0
  9 10  2  0
 10 11  1  0
 11 12  2  0
 12 13  1  0
 13 14  2  0
 14 15  1  0
 15 16  2  0
 16 17  1  0
 17 18  2  0
 17 19  2  0
 17 20  1  0
 20 21  1  0
 21 22  1  0
 22 23  1  0
 23 24  1  0
 24 25  1  0
 10 26  1  0
 26 27  2  0
  5 28  1  0
 28 29  1  0
 29  2  1  0
 27  7  1  0
 16 11  1  0
 25 20  1  0
  1 30  1  0
  1 31  1  0
  1 32  1  0
  3 33  1  0
  3 34  1  0
  4 35  1  0
  4 36  1  0
  5 37  1  0
  6 38  1  0
  6 39  1  0
  8 40  1  0
  9 41  1  0
 12 42  1  0
 13 43  1  0
 14 44  1  0
 15 45  1  0
 21 46  1  0
 21 47  1  0
 22 48  1  0
 22 49  1  0
 23 50  1  0
 23 51  1  0
 24 52  1  0
 24 53  1  0
 25 54  1  0
 25 55  1  0
 26 56  1  0
 27 57  1  0
 28 58  1  0
 28 59  1  0
 29 60  1  0
 29 61  1  0
M  CHG  1   5   1
M  END
>  <UniqueID>  (33) 
32

>  <SMILES>  (33) 
CN1CC[NH+](Cc2ccc(-c3ccccc3S(=O)(=O)N3CCCCC3)cc2)CC1

>  <Energy>  (33) 
90.87626631450095

>  <Genealogy>  (33) 
CN1CC[NH+](Cc2ccc(-c3ccccc3S(=O)(=O)N3CCCCC3)cc2)CC1 (protonated)
CN1CC[NH+](Cc2ccc(-c3ccccc3S(=O)(=O)N3CCCCC3)cc2)CC1 (3D coordinates assigned)
CN1CC[NH+](Cc2ccc(-c3ccccc3S(=O)(=O)N3CCCCC3)cc2)CC1 (nonaromatic ring conformer: 90.87626631450095 kcal/mol)

>  <smiles>  (33) 
CN1CCN(Cc2ccc(-c3ccccc3S(=O)(=O)N3CCCCC3)cc2)CC1

>  <score_type>  (33) 
oracle

>  <origin>  (33) 
adgpu

>  <m_score__min__energy>  (33) 
-9.1699999999999999

>  <m_primary>  (33) 
energy

$$$$
33:0
     RDKit          3D

 45 48  0  0  0  0  0  0  0  0999 V2000
   -9.3467   18.7364  -30.3433 H   0  0  0  0  0  0  0  0  0  0  0  0
   -8.7240   18.9010  -31.2350 C   0  0  0  0  0  0  0  0  0  0  0  0
   -9.0780   19.8380  -32.1540 N   0  0  0  0  0  0  0  0  0  0  0  0
   -8.3410   20.0550  -33.2440 N   0  0  0  0  0  0  0  0  0  0  0  0
   -7.2040   19.3510  -33.4850 C   0  0  0  0  0  0  0  0  0  0  0  0
   -6.6176   19.5432  -34.3956 H   0  0  0  0  0  0  0  0  0  0  0  0
   -6.7820   18.3790  -32.5680 C   0  0  0  0  0  0  0  0  0  0  0  0
   -5.5410   17.6030  -32.7960 C   0  0  0  0  0  0  0  0  0  0  0  0
   -5.5100   16.2480  -32.4240 C   0  0  0  0  0  0  0  0  0  0  0  0
   -6.3834   15.8028  -31.9251 H   0  0  0  0  0  0  0  0  0  0  0  0
   -4.3800   15.4540  -32.6800 C   0  0  0  0  0  0  0  0  0  0  0  0
   -4.3790   13.9880  -32.3270 C   0  0  0  0  0  0  0  0  0  0  0  0
   -5.3050   13.3000  -33.0920 F   0  0  0  0  0  0  0  0  0  0  0  0
   -4.6980   13.8070  -30.9930 F   0  0  0  0  0  0  0  0  0  0  0  0
   -3.1220   13.4640  -32.5640 F   0  0  0  0  0  0  0  0  0  0  0  0
   -3.2930   16.0180  -33.3650 C   0  0  0  0  0  0  0  0  0  0  0  0
   -2.4232   15.3938  -33.6177 H   0  0  0  0  0  0  0  0  0  0  0  0
   -3.3080   17.3660  -33.7280 C   0  0  0  0  0  0  0  0  0  0  0  0
   -2.4471   17.7959  -34.2610 H   0  0  0  0  0  0  0  0  0  0  0  0
   -4.4060   18.1750  -33.4210 C   0  0  0  0  0  0  0  0  0  0  0  0
   -4.3390   19.5320  -33.7690 O   0  0  0  0  0  0  0  0  0  0  0  0
   -4.3130   20.6010  -32.8590 C   0  0  0  0  0  0  0  0  0  0  0  0
   -5.3600   21.5280  -32.8960 C   0  0  0  0  0  0  0  0  0  0  0  0
   -6.1607   21.4162  -33.6419 H   0  0  0  0  0  0  0  0  0  0  0  0
   -5.3980   22.5960  -31.9930 C   0  0  0  0  0  0  0  0  0  0  0  0
   -6.4310   23.4720  -32.0550 F   0  0  0  0  0  0  0  0  0  0  0  0
   -4.3770   22.7490  -31.0420 C   0  0  0  0  0  0  0  0  0  0  0  0
   -4.3950   24.0740  -29.8770 S   0  0  0  0  0  0  0  0  0  0  0  0
   -3.8210   25.3000  -30.5280 O   0  0  0  0  0  0  0  0  0  0  0  0
   -5.7920   24.3780  -29.4150 O   0  0  0  0  0  0  0  0  0  0  0  0
   -3.4250   23.6550  -28.5020 N   0  0  0  0  0  0  0  0  0  0  0  0
   -2.1540   23.9010  -28.4050 C   0  0  0  0  0  0  0  0  0  0  0  0
   -1.3730   23.5750  -27.3200 C   0  0  0  0  0  0  0  0  0  0  0  0
   -1.6762   23.0773  -26.3871 H   0  0  0  0  0  0  0  0  0  0  0  0
   -0.1150   24.0230  -27.6830 C   0  0  0  0  0  0  0  0  0  0  0  0
    0.7944   23.9441  -27.0692 H   0  0  0  0  0  0  0  0  0  0  0  0
   -0.1850   24.5590  -28.8830 O   0  0  0  0  0  0  0  0  0  0  0  0
   -1.4000   24.5020  -29.3430 N   0  0  0  0  0  0  0  0  0  0  0  0
   -1.6950   24.8700  -30.2740 H   0  0  0  0  0  0  0  0  0  0  0  0
   -3.3090   21.8430  -31.0260 C   0  0  0  0  0  0  0  0  0  0  0  0
   -2.4976   21.9688  -30.2940 H   0  0  0  0  0  0  0  0  0  0  0  0
   -3.2660   20.7800  -31.9330 C   0  0  0  0  0  0  0  0  0  0  0  0
   -2.1950   19.9480  -31.9170 F   0  0  0  0  0  0  0  0  0  0  0  0
   -7.5670   18.1510  -31.4310 C   0  0  0  0  0  0  0  0  0  0  0  0
   -7.2720   17.3854  -30.6983 H   0  0  0  0  0  0  0  0  0  0  0  0
  1  2  1  0
  2  3  2  0
  3  4  1  0
  4  5  2  0
  5  6  1  0
  5  7  1  0
  7  8  1  0
  8  9  2  0
  9 10  1  0
  9 11  1  0
 11 12  1  0
 12 13  1  0
 12 14  1  0
 12 15  1  0
 11 16  2  0
 16 17  1  0
 16 18  1  0
 18 19  1  0
 18 20  2  0
 20 21  1  0
 21 22  1  0
 22 23  2  0
 23 24  1  0
 23 25  1  0
 25 26  1  0
 25 27  2  0
 27 28  1  0
 28 29  2  0
 28 30  2  0
 28 31  1  0
 31 32  2  0
 32 33  1  0
 33 34  1  0
 33 35  2  0
 35 36  1  0
 35 37  1  0
 37 38  1  0
 38 39  1  0
 27 40  1  0
 40 41  1  0
 40 42  2  0
 42 43  1  0
  7 44  2  0
 44 45  1  0
 44  2  1  0
 20  8  1  0
 42 22  1  0
 38 32  1  0
M  END
>  <UniqueID>  (34) 
33

>  <SMILES>  (34) 
O=S(=O)(/N=c1/cco[nH]1)c1cc(F)c(Oc2ccc(C(F)(F)F)cc2-c2ccnnc2)cc1F

>  <Energy>  (34) 
99.68547869696518

>  <Genealogy>  (34) 
O=S(=O)(/N=c1/cco[nH]1)c1cc(F)c(Oc2ccc(C(F)(F)F)cc2-c2ccnnc2)cc1F (cis-trans isomerization)
O=S(=O)(/N=c1/cco[nH]1)c1cc(F)c(Oc2ccc(C(F)(F)F)cc2-c2ccnnc2)cc1F (3D coordinates assigned)
O=S(=O)(/N=c1/cco[nH]1)c1cc(F)c(Oc2ccc(C(F)(F)F)cc2-c2ccnnc2)cc1F (optimized conformer: 99.68547869696518 kcal/mol)

>  <smiles>  (34) 
O=S(=O)(N=c1cco[nH]1)c1cc(F)c(Oc2ccc(C(F)(F)F)cc2-c2ccnnc2)cc1F

>  <score_type>  (34) 
oracle

>  <origin>  (34) 
adgpu

>  <m_score__min__energy>  (34) 
-9.9199999999999999

>  <m_primary>  (34) 
energy

$$$$
34:0
     RDKit          3D

 39 41  0  0  0  0  0  0  0  0999 V2000
   -6.1730   18.4590  -34.7950 N   0  0  0  0  0  0  0  0  0  0  0  0
   -5.1550   19.0140  -33.9520 C   0  0  0  0  0  0  0  0  0  0  0  0
   -3.8090   18.7500  -34.2430 C   0  0  0  0  0  0  0  0  0  0  0  0
   -2.7940   19.2390  -33.4210 C   0  0  0  0  0  0  0  0  0  0  0  0
   -3.0990   20.0040  -32.2870 C   0  0  0  0  0  0  0  0  0  0  0  0
   -2.0250   20.5040  -31.4660 N   0  0  0  0  0  0  0  0  0  0  0  0
   -2.1340   20.7700  -30.0310 C   0  0  0  0  0  0  0  0  0  0  0  0
   -1.9830   22.2420  -29.7470 C   0  0  0  0  0  0  0  0  0  0  0  0
   -0.8370   22.7180  -29.0890 C   0  0  0  0  0  0  0  0  0  0  0  0
   -0.6890   24.0840  -28.8280 C   0  0  0  0  0  0  0  0  0  0  0  0
    0.4540   24.5430  -28.1820 O   0  0  0  0  0  0  0  0  0  0  0  0
   -1.6880   24.9850  -29.2160 C   0  0  0  0  0  0  0  0  0  0  0  0
   -1.5390   26.3430  -28.9580 O   0  0  0  0  0  0  0  0  0  0  0  0
   -2.8380   24.5160  -29.8630 C   0  0  0  0  0  0  0  0  0  0  0  0
   -3.8340   25.4050  -30.2480 O   0  0  0  0  0  0  0  0  0  0  0  0
   -2.9870   23.1500  -30.1220 C   0  0  0  0  0  0  0  0  0  0  0  0
   -4.4470   20.2650  -31.9860 C   0  0  0  0  0  0  0  0  0  0  0  0
   -5.4770   19.7930  -32.8170 C   0  0  0  0  0  0  0  0  0  0  0  0
   -6.8750   20.1400  -32.4790 C   0  0  0  0  0  0  0  0  0  0  0  0
   -7.2340   21.4880  -32.3090 C   0  0  0  0  0  0  0  0  0  0  0  0
   -8.5550   21.8310  -32.0060 C   0  0  0  0  0  0  0  0  0  0  0  0
   -9.5260   20.8350  -31.8800 C   0  0  0  0  0  0  0  0  0  0  0  0
   -9.1800   19.4930  -32.0620 C   0  0  0  0  0  0  0  0  0  0  0  0
   -7.8600   19.1420  -32.3670 C   0  0  0  0  0  0  0  0  0  0  0  0
   -7.5390   17.8030  -32.5660 O   0  0  0  0  0  0  0  0  0  0  0  0
   -6.4960   18.9410  -35.6630 H   0  0  0  0  0  0  0  0  0  0  0  0
   -6.6540   17.5700  -34.5310 H   0  0  0  0  0  0  0  0  0  0  0  0
   -3.5510   18.1510  -35.1288 H   0  0  0  0  0  0  0  0  0  0  0  0
   -1.7436   19.0221  -33.6651 H   0  0  0  0  0  0  0  0  0  0  0  0
   -1.1190   20.7490  -31.9280 H   0  0  0  0  0  0  0  0  0  0  0  0
   -3.1190   20.4333  -29.6756 H   0  0  0  0  0  0  0  0  0  0  0  0
   -1.3325   20.2262  -29.5096 H   0  0  0  0  0  0  0  0  0  0  0  0
   -0.0522   22.0130  -28.7775 H   0  0  0  0  0  0  0  0  0  0  0  0
   -3.8958   22.7843  -30.6224 H   0  0  0  0  0  0  0  0  0  0  0  0
   -4.6991   20.8470  -31.0872 H   0  0  0  0  0  0  0  0  0  0  0  0
   -6.4734   22.2756  -32.4146 H   0  0  0  0  0  0  0  0  0  0  0  0
   -8.8301   22.8869  -31.8666 H   0  0  0  0  0  0  0  0  0  0  0  0
  -10.5639   21.1069  -31.6373 H   0  0  0  0  0  0  0  0  0  0  0  0
   -9.9472   18.7107  -31.9652 H   0  0  0  0  0  0  0  0  0  0  0  0
  1  2  1  0
  2  3  2  0
  3  4  1  0
  4  5  2  0
  5  6  1  0
  6  7  1  0
  7  8  1  0
  8  9  2  0
  9 10  1  0
 10 11  1  0
 10 12  2  0
 12 13  1  0
 12 14  1  0
 14 15  1  0
 14 16  2  0
  5 17  1  0
 17 18  2  0
 18 19  1  0
 19 20  2  0
 20 21  1  0
 21 22  2  0
 22 23  1  0
 23 24  2  0
 24 25  1  0
 18  2  1  0
 24 19  1  0
 16  8  1  0
  1 26  1  0
  1 27  1  0
  3 28  1  0
  4 29  1  0
  6 30  1  0
  7 31  1  0
  7 32  1  0
  9 33  1  0
 16 34  1  0
 17 35  1  0
 20 36  1  0
 21 37  1  0
 22 38  1  0
 23 39  1  0
M  CHG  4  11  -1  13  -1  15  -1  25  -1
M  END
>  <UniqueID>  (35) 
34

>  <SMILES>  (35) 
Nc1ccc(NCc2cc([O-])c([O-])c([O-])c2)cc1-c1ccccc1[O-]

>  <Energy>  (35) 
49.2803737593074

>  <Genealogy>  (35) 
Nc1ccc(NCc2cc([O-])c([O-])c([O-])c2)cc1-c1ccccc1[O-] (protonated)
Nc1ccc(NCc2cc([O-])c([O-])c([O-])c2)cc1-c1ccccc1[O-] (3D coordinates assigned)
Nc1ccc(NCc2cc([O-])c([O-])c([O-])c2)cc1-c1ccccc1[O-] (optimized conformer: 49.2803737593074 kcal/mol)

>  <smiles>  (35) 
Nc1ccc(NCc2cc(O)c(O)c(O)c2)cc1-c1ccccc1O

>  <score_type>  (35) 
oracle

>  <origin>  (35) 
adgpu

>  <m_score__min__energy>  (35) 
-14.27

>  <m_primary>  (35) 
energy

$$$$
35:0
     RDKit          3D

 65 68  0  0  0  0  0  0  0  0999 V2000
   -2.1810   25.5310  -26.0800 C   0  0  0  0  0  0  0  0  0  0  0  0
   -3.3200   24.8020  -26.7270 C   0  0  0  0  0  0  0  0  0  0  0  0
   -4.4740   24.9390  -26.2340 O   0  0  0  0  0  0  0  0  0  0  0  0
   -3.1370   23.9320  -27.9200 C   0  0  0  0  0  0  0  0  0  0  0  0
   -3.6530   22.6240  -27.8920 C   0  0  0  0  0  0  0  0  0  0  0  0
   -3.4940   21.7680  -28.9820 C   0  0  0  0  0  0  0  0  0  0  0  0
   -2.8060   22.1950  -30.1280 C   0  0  0  0  0  0  0  0  0  0  0  0
   -2.6160   21.2850  -31.2810 C   0  0  0  0  0  0  0  0  0  0  0  0
   -1.8390   21.6210  -32.2130 O   0  0  0  0  0  0  0  0  0  0  0  0
   -3.3290   20.0460  -31.3940 N   0  0  0  0  0  0  0  0  0  0  0  0
   -4.5760   19.8500  -32.0780 C   0  0  0  0  0  0  0  0  0  0  0  0
   -5.7650   20.4290  -31.5990 C   0  0  0  0  0  0  0  0  0  0  0  0
   -6.9720   20.2480  -32.2860 C   0  0  0  0  0  0  0  0  0  0  0  0
   -8.4560   20.9840  -31.6750 S   0  0  0  0  0  0  0  0  0  0  0  0
   -8.9440   20.2030  -30.4860 O   0  0  0  0  0  0  0  0  0  0  0  0
   -9.5150   20.9160  -32.7410 O   0  0  0  0  0  0  0  0  0  0  0  0
   -8.2040   22.6510  -31.2140 N   0  0  0  0  0  0  0  0  0  0  0  0
   -7.4180   22.7230  -29.9620 C   0  0  0  0  0  0  0  0  0  0  0  0
   -6.8140   24.1160  -29.7600 C   0  0  0  0  0  0  0  0  0  0  0  0
   -5.8330   24.4650  -30.8930 C   0  0  0  0  0  0  0  0  0  0  0  0
   -6.1490   23.7210  -32.2020 C   0  0  0  0  0  0  0  0  0  0  0  0
   -7.6560   23.4530  -32.3370 C   0  0  0  0  0  0  0  0  0  0  0  0
   -6.9920   19.4810  -33.4570 C   0  0  0  0  0  0  0  0  0  0  0  0
   -5.8210   18.8850  -33.9270 C   0  0  0  0  0  0  0  0  0  0  0  0
   -4.6140   19.0530  -33.2370 C   0  0  0  0  0  0  0  0  0  0  0  0
   -3.4200   18.4430  -33.7460 N   0  0  0  0  0  0  0  0  0  0  0  0
   -3.3150   16.9860  -33.8200 C   0  0  0  0  0  0  0  0  0  0  0  0
   -1.9990   16.5030  -33.1820 C   0  0  0  0  0  0  0  0  0  0  0  0
   -0.8580   17.4430  -33.3470 N   0  0  0  0  0  0  0  0  0  0  0  0
   -0.4930   18.0900  -32.0740 C   0  0  0  0  0  0  0  0  0  0  0  0
   -1.0500   18.4310  -34.4300 C   0  0  0  0  0  0  0  0  0  0  0  0
   -2.3100   19.2800  -34.2060 C   0  0  0  0  0  0  0  0  0  0  0  0
   -2.3140   23.5090  -30.1760 C   0  0  0  0  0  0  0  0  0  0  0  0
   -2.4750   24.3730  -29.0880 C   0  0  0  0  0  0  0  0  0  0  0  0
   -1.9900   25.6720  -29.1990 O   0  0  0  0  0  0  0  0  0  0  0  0
   -2.2794   25.4680  -24.9862 H   0  0  0  0  0  0  0  0  0  0  0  0
   -1.2298   25.0735  -26.3895 H   0  0  0  0  0  0  0  0  0  0  0  0
   -2.1981   26.5864  -26.3895 H   0  0  0  0  0  0  0  0  0  0  0  0
   -4.1891   22.2712  -26.9987 H   0  0  0  0  0  0  0  0  0  0  0  0
   -3.9110   20.7509  -28.9428 H   0  0  0  0  0  0  0  0  0  0  0  0
   -5.7467   21.0289  -30.6772 H   0  0  0  0  0  0  0  0  0  0  0  0
   -8.0770   22.4921  -29.1121 H   0  0  0  0  0  0  0  0  0  0  0  0
   -6.5955   21.9955  -30.0275 H   0  0  0  0  0  0  0  0  0  0  0  0
   -7.6242   24.8599  -29.7446 H   0  0  0  0  0  0  0  0  0  0  0  0
   -6.2639   24.1231  -28.8075 H   0  0  0  0  0  0  0  0  0  0  0  0
   -5.8845   25.5474  -31.0821 H   0  0  0  0  0  0  0  0  0  0  0  0
   -4.8281   24.1560  -30.5694 H   0  0  0  0  0  0  0  0  0  0  0  0
   -5.8156   24.3335  -33.0527 H   0  0  0  0  0  0  0  0  0  0  0  0
   -5.6224   22.7553  -32.1905 H   0  0  0  0  0  0  0  0  0  0  0  0
   -8.1826   24.4183  -32.3684 H   0  0  0  0  0  0  0  0  0  0  0  0
   -7.8065   22.8738  -33.2600 H   0  0  0  0  0  0  0  0  0  0  0  0
   -7.9343   19.3477  -34.0087 H   0  0  0  0  0  0  0  0  0  0  0  0
   -5.8462   18.2796  -34.8450 H   0  0  0  0  0  0  0  0  0  0  0  0
   -4.1632   16.5350  -33.2841 H   0  0  0  0  0  0  0  0  0  0  0  0
   -3.3279   16.6833  -34.8775 H   0  0  0  0  0  0  0  0  0  0  0  0
   -2.1715   16.3561  -32.1056 H   0  0  0  0  0  0  0  0  0  0  0  0
   -1.7196   15.5741  -33.7007 H   0  0  0  0  0  0  0  0  0  0  0  0
   -0.8423   17.4708  -31.2346 H   0  0  0  0  0  0  0  0  0  0  0  0
    0.6001   18.1997  -32.0187 H   0  0  0  0  0  0  0  0  0  0  0  0
   -0.9644   19.0823  -32.0187 H   0  0  0  0  0  0  0  0  0  0  0  0
   -0.1740   19.0954  -34.4662 H   0  0  0  0  0  0  0  0  0  0  0  0
   -1.1685   17.8839  -35.3769 H   0  0  0  0  0  0  0  0  0  0  0  0
   -2.0982   20.0484  -33.4479 H   0  0  0  0  0  0  0  0  0  0  0  0
   -2.5931   19.7528  -35.1580 H   0  0  0  0  0  0  0  0  0  0  0  0
   -1.7960   23.8630  -31.0795 H   0  0  0  0  0  0  0  0  0  0  0  0
  1  2  1  0
  2  3  2  0
  2  4  1  0
  4  5  2  0
  5  6  1  0
  6  7  2  0
  7  8  1  0
  8  9  2  0
  8 10  1  0
 10 11  1  0
 11 12  2  0
 12 13  1  0
 13 14  1  0
 14 15  2  0
 14 16  2  0
 14 17  1  0
 17 18  1  0
 18 19  1  0
 19 20  1  0
 20 21  1  0
 21 22  1  0
 13 23  2  0
 23 24  1  0
 24 25  2  0
 25 26  1  0
 26 27  1  0
 27 28  1  0
 28 29  1  0
 29 30  1  0
 29 31  1  0
 31 32  1  0
  7 33  1  0
 33 34  2  0
 34 35  1  0
 34  4  1  0
 25 11  1  0
 32 26  1  0
 22 17  1  0
  1 36  1  0
  1 37  1  0
  1 38  1  0
  5 39  1  0
  6 40  1  0
 12 41  1  0
 18 42  1  0
 18 43  1  0
 19 44  1  0
 19 45  1  0
 20 46  1  0
 20 47  1  0
 21 48  1  0
 21 49  1  0
 22 50  1  0
 22 51  1  0
 23 52  1  0
 24 53  1  0
 27 54  1  0
 27 55  1  0
 28 56  1  0
 28 57  1  0
 30 58  1  0
 30 59  1  0
 30 60  1  0
 31 61  1  0
 31 62  1  0
 32 63  1  0
 32 64  1  0
 33 65  1  0
M  CHG  2  10  -1  35  -1
M  END
>  <UniqueID>  (36) 
35

>  <SMILES>  (36) 
CC(=O)c1ccc(C(=O)[N-]c2cc(S(=O)(=O)N3CCCCC3)ccc2N2CCN(C)CC2)cc1[O-]

>  <Energy>  (36) 
92.90599282497305

>  <Genealogy>  (36) 
CC(=O)c1ccc(C(=O)[N-]c2cc(S(=O)(=O)N3CCCCC3)ccc2N2CCN(C)CC2)cc1[O-] (protonated)
CC(=O)c1ccc(C(=O)[N-]c2cc(S(=O)(=O)N3CCCCC3)ccc2N2CCN(C)CC2)cc1[O-] (3D coordinates assigned)
CC(=O)c1ccc(C(=O)[N-]c2cc(S(=O)(=O)N3CCCCC3)ccc2N2CCN(C)CC2)cc1[O-] (nonaromatic ring conformer: 92.90599282497305 kcal/mol)

>  <smiles>  (36) 
CC(=O)c1ccc(C(=O)Nc2cc(S(=O)(=O)N3CCCCC3)ccc2N2CCN(C)CC2)cc1O

>  <score_type>  (36) 
oracle

>  <origin>  (36) 
adgpu

>  <m_score__min__energy>  (36) 
-13.050000000000001

>  <m_primary>  (36) 
energy

$$$$
36:0
     RDKit          3D

 58 61  0  0  0  0  0  0  0  0999 V2000
   -9.5020   19.5850  -32.7190 C   0  0  0  0  0  0  0  0  0  0  0  0
   -8.4270   20.0050  -31.7080 C   0  0  2  0  0  0  0  0  0  0  0  0
   -8.0550   21.5100  -31.8530 C   0  0  0  0  0  0  0  0  0  0  0  0
   -6.5880   21.4810  -32.1140 C   0  0  0  0  0  0  0  0  0  0  0  0
   -5.7230   22.5630  -32.2730 C   0  0  0  0  0  0  0  0  0  0  0  0
   -4.3580   22.3070  -32.4810 C   0  0  0  0  0  0  0  0  0  0  0  0
   -3.8810   20.9780  -32.5290 C   0  0  0  0  0  0  0  0  0  0  0  0
   -2.1700   20.6490  -32.7760 S   0  0  0  0  0  0  0  0  0  0  0  0
   -1.9580   19.2400  -33.2540 O   0  0  0  0  0  0  0  0  0  0  0  0
   -1.6350   21.5920  -33.8140 O   0  0  0  0  0  0  0  0  0  0  0  0
   -1.3100   20.8850  -31.2850 N   0  0  0  0  0  0  0  0  0  0  0  0
   -1.7760   21.7200  -30.2100 C   0  0  0  0  0  0  0  0  0  0  0  0
   -2.0660   21.2010  -28.9350 C   0  0  0  0  0  0  0  0  0  0  0  0
   -2.4800   22.0480  -27.9030 C   0  0  0  0  0  0  0  0  0  0  0  0
   -2.6110   23.4280  -28.1230 C   0  0  0  0  0  0  0  0  0  0  0  0
   -3.0160   24.3090  -27.0040 C   0  0  0  0  0  0  0  0  0  0  0  0
   -4.2440   24.5130  -26.8030 O   0  0  0  0  0  0  0  0  0  0  0  0
   -2.0420   24.8940  -26.1150 N   0  0  0  0  0  0  0  0  0  0  0  0
   -0.7990   24.1810  -25.7810 C   0  0  0  0  0  0  0  0  0  0  0  0
   -0.4280   24.4430  -24.3150 C   0  0  0  0  0  0  0  0  0  0  0  0
   -0.3140   25.8900  -23.9870 N   0  0  0  0  0  0  0  0  0  0  0  0
    1.1000   26.3080  -23.9120 C   0  0  0  0  0  0  0  0  0  0  0  0
   -1.0700   26.7910  -24.8920 C   0  0  0  0  0  0  0  0  0  0  0  0
   -2.3580   26.1420  -25.4140 C   0  0  0  0  0  0  0  0  0  0  0  0
   -2.3790   23.9420  -29.4120 C   0  0  0  0  0  0  0  0  0  0  0  0
   -2.5900   25.2890  -29.6910 O   0  0  0  0  0  0  0  0  0  0  0  0
   -1.9530   23.0940  -30.4390 C   0  0  0  0  0  0  0  0  0  0  0  0
   -4.7790   19.9050  -32.3680 C   0  0  0  0  0  0  0  0  0  0  0  0
   -6.1320   20.1930  -32.1610 C   0  0  0  0  0  0  0  0  0  0  0  0
   -7.1790   19.2660  -31.9370 N   0  0  0  0  0  0  0  0  0  0  0  0
   -7.0050   17.8260  -31.7670 C   0  0  0  0  0  0  0  0  0  0  0  0
  -10.3954   19.2359  -32.1805 H   0  0  0  0  0  0  0  0  0  0  0  0
   -9.7675   20.4455  -33.3507 H   0  0  0  0  0  0  0  0  0  0  0  0
   -9.1138   18.7724  -33.3507 H   0  0  0  0  0  0  0  0  0  0  0  0
   -8.8517   19.7976  -30.7147 H   0  0  0  0  0  0  0  0  0  0  0  0
   -8.5952   21.9695  -32.6939 H   0  0  0  0  0  0  0  0  0  0  0  0
   -8.3213   22.1049  -30.9669 H   0  0  0  0  0  0  0  0  0  0  0  0
   -6.1017   23.5951  -32.2363 H   0  0  0  0  0  0  0  0  0  0  0  0
   -3.6569   23.1451  -32.6071 H   0  0  0  0  0  0  0  0  0  0  0  0
   -0.4290   20.3400  -31.1590 H   0  0  0  0  0  0  0  0  0  0  0  0
   -1.9663   20.1214  -28.7490 H   0  0  0  0  0  0  0  0  0  0  0  0
   -2.7049   21.6298  -26.9108 H   0  0  0  0  0  0  0  0  0  0  0  0
   -0.9448   23.1014  -25.9336 H   0  0  0  0  0  0  0  0  0  0  0  0
    0.0122   24.5406  -26.4311 H   0  0  0  0  0  0  0  0  0  0  0  0
   -1.2040   23.9996  -23.6737 H   0  0  0  0  0  0  0  0  0  0  0  0
    0.5598   23.9907  -24.1427 H   0  0  0  0  0  0  0  0  0  0  0  0
    1.4006   26.3969  -22.8576 H   0  0  0  0  0  0  0  0  0  0  0  0
    1.7310   25.5580  -24.4113 H   0  0  0  0  0  0  0  0  0  0  0  0
    1.2218   27.2806  -24.4113 H   0  0  0  0  0  0  0  0  0  0  0  0
   -1.3327   27.7065  -24.3417 H   0  0  0  0  0  0  0  0  0  0  0  0
   -0.4296   27.0138  -25.7582 H   0  0  0  0  0  0  0  0  0  0  0  0
   -3.0257   25.9252  -24.5672 H   0  0  0  0  0  0  0  0  0  0  0  0
   -2.8532   26.8329  -26.1121 H   0  0  0  0  0  0  0  0  0  0  0  0
   -1.7541   23.5083  -31.4384 H   0  0  0  0  0  0  0  0  0  0  0  0
   -4.4244   18.8643  -32.4042 H   0  0  0  0  0  0  0  0  0  0  0  0
   -6.9758   17.5843  -30.6943 H   0  0  0  0  0  0  0  0  0  0  0  0
   -7.8457   17.2968  -32.2393 H   0  0  0  0  0  0  0  0  0  0  0  0
   -6.0624   17.5123  -32.2393 H   0  0  0  0  0  0  0  0  0  0  0  0
  1  2  1  0
  2  3  1  0
  3  4  1  0
  4  5  2  0
  5  6  1  0
  6  7  2  0
  7  8  1  0
  8  9  2  0
  8 10  2  0
  8 11  1  0
 11 12  1  0
 12 13  2  0
 13 14  1  0
 14 15  2  0
 15 16  1  0
 16 17  2  0
 16 18  1  0
 18 19  1  0
 19 20  1  0
 20 21  1  0
 21 22  1  0
 21 23  1  0
 23 24  1  0
 15 25  1  0
 25 26  1  0
 25 27  2  0
  7 28  1  0
 28 29  2  0
 29 30  1  0
 30 31  1  0
 30  2  1  0
 29  4  1  0
 27 12  1  0
 24 18  1  0
  1 32  1  0
  1 33  1  0
  1 34  1  0
  2 35  1  1
  3 36  1  0
  3 37  1  0
  5 38  1  0
  6 39  1  0
 11 40  1  0
 13 41  1  0
 14 42  1  0
 19 43  1  0
 19 44  1  0
 20 45  1  0
 20 46  1  0
 22 47  1  0
 22 48  1  0
 22 49  1  0
 23 50  1  0
 23 51  1  0
 24 52  1  0
 24 53  1  0
 27 54  1  0
 28 55  1  0
 31 56  1  0
 31 57  1  0
 31 58  1  0
M  CHG  1  26  -1
M  END
>  <UniqueID>  (37) 
36

>  <SMILES>  (37) 
C[C@@H]1Cc2ccc(S(=O)(=O)Nc3ccc(C(=O)N4CCN(C)CC4)c([O-])c3)cc2N1C

>  <Energy>  (37) 
86.34921119335922

>  <Genealogy>  (37) 
CC1Cc2ccc(S(=O)(=O)Nc3ccc(C(=O)N4CCN(C)CC4)c([O-])c3)cc2N1C (protonated)
C[C@@H]1Cc2ccc(S(=O)(=O)Nc3ccc(C(=O)N4CCN(C)CC4)c([O-])c3)cc2N1C (chirality)
C[C@@H]1Cc2ccc(S(=O)(=O)Nc3ccc(C(=O)N4CCN(C)CC4)c([O-])c3)cc2N1C (3D coordinates assigned)
C[C@@H]1Cc2ccc(S(=O)(=O)Nc3ccc(C(=O)N4CCN(C)CC4)c([O-])c3)cc2N1C (nonaromatic ring conformer: 86.34921119335922 kcal/mol)

>  <smiles>  (37) 
CC1Cc2ccc(S(=O)(=O)Nc3ccc(C(=O)N4CCN(C)CC4)c(O)c3)cc2N1C

>  <score_type>  (37) 
oracle

>  <origin>  (37) 
adgpu

>  <m_score__min__energy>  (37) 
-13.48

>  <m_primary>  (37) 
energy

$$$$
37:0
     RDKit          3D

 48 50  0  0  0  0  0  0  0  0999 V2000
   -1.8790   24.2850  -29.5920 O   0  0  0  0  0  0  0  0  0  0  0  0
   -2.4790   22.9940  -30.0750 S   0  0  0  0  0  0  0  0  0  0  0  0
   -2.5780   22.0360  -28.9220 O   0  0  0  0  0  0  0  0  0  0  0  0
   -1.4380   22.3070  -31.2820 N   0  0  0  0  0  0  0  0  0  0  0  0
   -1.7310   21.1430  -32.0660 C   0  0  0  0  0  0  0  0  0  0  0  0
   -2.6810   21.1590  -33.1020 C   0  0  0  0  0  0  0  0  0  0  0  0
   -2.9370   20.0000  -33.8390 C   0  0  0  0  0  0  0  0  0  0  0  0
   -2.2570   18.8140  -33.5480 C   0  0  0  0  0  0  0  0  0  0  0  0
   -2.5180   17.6770  -34.3050 O   0  0  0  0  0  0  0  0  0  0  0  0
   -1.3180   18.7790  -32.5010 C   0  0  0  0  0  0  0  0  0  0  0  0
   -0.5550   17.5200  -32.1910 C   0  0  0  0  0  0  0  0  0  0  0  0
   -1.3850   16.4130  -32.3950 O   0  0  0  0  0  0  0  0  0  0  0  0
   -1.0520   19.9530  -31.7760 C   0  0  0  0  0  0  0  0  0  0  0  0
   -4.0970   23.2720  -30.7230 C   0  0  0  0  0  0  0  0  0  0  0  0
   -4.8880   22.1860  -31.1280 C   0  0  0  0  0  0  0  0  0  0  0  0
   -6.1710   22.3960  -31.6520 C   0  0  0  0  0  0  0  0  0  0  0  0
   -7.1610   21.0330  -32.1680 S   0  0  0  0  0  0  0  0  0  0  0  0
   -6.9590   20.7900  -33.6380 O   0  0  0  0  0  0  0  0  0  0  0  0
   -8.6070   21.3750  -31.9340 O   0  0  0  0  0  0  0  0  0  0  0  0
   -6.7150   19.6150  -31.2440 N   0  0  0  0  0  0  0  0  0  0  0  0
   -5.3850   19.0860  -31.6370 C   0  0  0  0  0  0  0  0  0  0  0  0
   -5.4230   17.6710  -32.2410 C   0  0  0  0  0  0  0  0  0  0  0  0
   -6.5820   17.5370  -33.2260 C   0  0  0  0  0  0  0  0  0  0  0  0
   -7.9350   17.8650  -32.5700 C   0  0  0  0  0  0  0  0  0  0  0  0
   -7.7950   18.6080  -31.2290 C   0  0  0  0  0  0  0  0  0  0  0  0
   -6.6730   23.7000  -31.7510 C   0  0  0  0  0  0  0  0  0  0  0  0
   -5.8960   24.7840  -31.3370 C   0  0  0  0  0  0  0  0  0  0  0  0
   -4.6120   24.5760  -30.8250 C   0  0  0  0  0  0  0  0  0  0  0  0
   -3.8570   25.6710  -30.4140 O   0  0  0  0  0  0  0  0  0  0  0  0
   -3.2246   22.0870  -33.3332 H   0  0  0  0  0  0  0  0  0  0  0  0
   -3.6774   20.0210  -34.6523 H   0  0  0  0  0  0  0  0  0  0  0  0
    0.3209   17.4491  -32.8526 H   0  0  0  0  0  0  0  0  0  0  0  0
   -0.2205   17.5410  -31.1433 H   0  0  0  0  0  0  0  0  0  0  0  0
   -1.9210   16.6160  -33.2040 H   0  0  0  0  0  0  0  0  0  0  0  0
   -0.3019   19.9371  -30.9715 H   0  0  0  0  0  0  0  0  0  0  0  0
   -4.4981   21.1618  -31.0335 H   0  0  0  0  0  0  0  0  0  0  0  0
   -4.9489   19.7677  -32.3821 H   0  0  0  0  0  0  0  0  0  0  0  0
   -4.7858   19.0212  -30.7168 H   0  0  0  0  0  0  0  0  0  0  0  0
   -4.4769   17.4775  -32.7678 H   0  0  0  0  0  0  0  0  0  0  0  0
   -5.5626   16.9427  -31.4285 H   0  0  0  0  0  0  0  0  0  0  0  0
   -6.4170   18.2287  -34.0652 H   0  0  0  0  0  0  0  0  0  0  0  0
   -6.6156   16.4934  -33.5722 H   0  0  0  0  0  0  0  0  0  0  0  0
   -8.5143   18.4958  -33.2603 H   0  0  0  0  0  0  0  0  0  0  0  0
   -8.4379   16.9089  -32.3628 H   0  0  0  0  0  0  0  0  0  0  0  0
   -8.7456   19.1151  -31.0070 H   0  0  0  0  0  0  0  0  0  0  0  0
   -7.5422   17.8619  -30.4613 H   0  0  0  0  0  0  0  0  0  0  0  0
   -7.6815   23.8705  -32.1558 H   0  0  0  0  0  0  0  0  0  0  0  0
   -6.2960   25.8058  -31.4141 H   0  0  0  0  0  0  0  0  0  0  0  0
  1  2  2  0
  2  3  2  0
  2  4  1  0
  4  5  1  0
  5  6  2  0
  6  7  1  0
  7  8  2  0
  8  9  1  0
  8 10  1  0
 10 11  1  0
 11 12  1  0
 10 13  2  0
  2 14  1  0
 14 15  2  0
 15 16  1  0
 16 17  1  0
 17 18  2  0
 17 19  2  0
 17 20  1  0
 20 21  1  0
 21 22  1  0
 22 23  1  0
 23 24  1  0
 24 25  1  0
 16 26  2  0
 26 27  1  0
 27 28  2  0
 28 29  1  0
 13  5  1  0
 28 14  1  0
 25 20  1  0
  6 30  1  0
  7 31  1  0
 11 32  1  0
 11 33  1  0
 12 34  1  0
 13 35  1  0
 15 36  1  0
 21 37  1  0
 21 38  1  0
 22 39  1  0
 22 40  1  0
 23 41  1  0
 23 42  1  0
 24 43  1  0
 24 44  1  0
 25 45  1  0
 25 46  1  0
 26 47  1  0
 27 48  1  0
M  CHG  3   4  -1   9  -1  29  -1
M  END
>  <UniqueID>  (38) 
37

>  <SMILES>  (38) 
O=S(=O)([N-]c1ccc([O-])c(CO)c1)c1cc(S(=O)(=O)N2CCCCC2)ccc1[O-]

>  <Energy>  (38) 
59.502732879663235

>  <Genealogy>  (38) 
O=S(=O)([N-]c1ccc([O-])c(CO)c1)c1cc(S(=O)(=O)N2CCCCC2)ccc1[O-] (protonated)
O=S(=O)([N-]c1ccc([O-])c(CO)c1)c1cc(S(=O)(=O)N2CCCCC2)ccc1[O-] (3D coordinates assigned)
O=S(=O)([N-]c1ccc([O-])c(CO)c1)c1cc(S(=O)(=O)N2CCCCC2)ccc1[O-] (nonaromatic ring conformer: 59.502732879663235 kcal/mol)

>  <smiles>  (38) 
O=S(=O)(Nc1ccc(O)c(CO)c1)c1cc(S(=O)(=O)N2CCCCC2)ccc1O

>  <score_type>  (38) 
oracle

>  <origin>  (38) 
adgpu

>  <m_score__min__energy>  (38) 
-12.609999999999999

>  <m_primary>  (38) 
energy

$$$$
38:0
     RDKit          3D

 58 61  0  0  0  0  0  0  0  0999 V2000
   -0.6020   19.8000  -29.8120 C   0  0  0  0  0  0  0  0  0  0  0  0
   -0.3730   20.2360  -31.2300 C   0  0  0  0  0  0  0  0  0  0  0  0
   -1.2360   20.9930  -32.0110 C   0  0  0  0  0  0  0  0  0  0  0  0
   -2.5690   21.4110  -31.6750 N   0  0  0  0  0  0  0  0  0  0  0  0
   -2.8510   22.4980  -30.7830 C   0  0  0  0  0  0  0  0  0  0  0  0
   -1.9900   22.8470  -29.9290 O   0  0  0  0  0  0  0  0  0  0  0  0
   -4.1720   23.1700  -30.7990 C   0  0  0  0  0  0  0  0  0  0  0  0
   -5.3220   22.4270  -31.1230 C   0  0  0  0  0  0  0  0  0  0  0  0
   -6.5840   23.0360  -31.1480 C   0  0  0  0  0  0  0  0  0  0  0  0
   -8.0250   22.0970  -31.5350 S   0  0  0  0  0  0  0  0  0  0  0  0
   -8.4740   21.3840  -30.2900 O   0  0  0  0  0  0  0  0  0  0  0  0
   -9.1300   23.0160  -31.9760 O   0  0  0  0  0  0  0  0  0  0  0  0
   -7.6770   20.9160  -32.7810 N   0  0  0  0  0  0  0  0  0  0  0  0
   -8.8390   20.0530  -33.0720 C   0  0  0  0  0  0  0  0  0  0  0  0
   -9.1040   19.0140  -31.9660 C   0  0  0  0  0  0  0  0  0  0  0  0
   -7.8150   18.4070  -31.3840 C   0  0  0  0  0  0  0  0  0  0  0  0
   -6.6060   18.6700  -32.2810 C   0  0  0  0  0  0  0  0  0  0  0  0
   -6.4160   20.1790  -32.5100 C   0  0  0  0  0  0  0  0  0  0  0  0
   -6.7030   24.3940  -30.8350 C   0  0  0  0  0  0  0  0  0  0  0  0
   -5.5730   25.1390  -30.4990 C   0  0  0  0  0  0  0  0  0  0  0  0
   -4.3110   24.5360  -30.4710 C   0  0  0  0  0  0  0  0  0  0  0  0
   -3.2120   25.2970  -30.0870 O   0  0  0  0  0  0  0  0  0  0  0  0
   -0.5680   21.1730  -33.2060 C   0  0  0  0  0  0  0  0  0  0  0  0
   -1.0250   21.7390  -34.2350 O   0  0  0  0  0  0  0  0  0  0  0  0
    0.6440   20.5880  -33.1360 N   0  0  0  0  0  0  0  0  0  0  0  0
    1.6140   20.5340  -34.1980 C   0  0  0  0  0  0  0  0  0  0  0  0
    2.0910   19.2970  -34.6620 C   0  0  0  0  0  0  0  0  0  0  0  0
    3.0220   19.2480  -35.7050 C   0  0  0  0  0  0  0  0  0  0  0  0
    3.4760   20.4320  -36.2950 C   0  0  0  0  0  0  0  0  0  0  0  0
    2.9970   21.6650  -35.8450 C   0  0  0  0  0  0  0  0  0  0  0  0
    2.0650   21.7170  -34.8030 C   0  0  0  0  0  0  0  0  0  0  0  0
    0.7750   20.0390  -31.9280 N   0  0  0  0  0  0  0  0  0  0  0  0
    1.9680   19.3430  -31.4370 C   0  0  0  0  0  0  0  0  0  0  0  0
   -0.2024   20.5608  -29.1254 H   0  0  0  0  0  0  0  0  0  0  0  0
   -1.6809   19.6775  -29.6358 H   0  0  0  0  0  0  0  0  0  0  0  0
   -0.0906   18.8422  -29.6358 H   0  0  0  0  0  0  0  0  0  0  0  0
   -3.3730   20.8520  -32.0370 H   0  0  0  0  0  0  0  0  0  0  0  0
   -5.2296   21.3566  -31.3592 H   0  0  0  0  0  0  0  0  0  0  0  0
   -9.7307   20.6884  -33.1780 H   0  0  0  0  0  0  0  0  0  0  0  0
   -8.6179   19.5016  -33.9977 H   0  0  0  0  0  0  0  0  0  0  0  0
   -9.6587   19.5035  -31.1519 H   0  0  0  0  0  0  0  0  0  0  0  0
   -9.6769   18.1919  -32.4198 H   0  0  0  0  0  0  0  0  0  0  0  0
   -7.6276   18.8512  -30.3953 H   0  0  0  0  0  0  0  0  0  0  0  0
   -7.9541   17.3184  -31.3097 H   0  0  0  0  0  0  0  0  0  0  0  0
   -5.7046   18.2615  -31.8008 H   0  0  0  0  0  0  0  0  0  0  0  0
   -6.7748   18.1836  -33.2531 H   0  0  0  0  0  0  0  0  0  0  0  0
   -5.9514   20.6089  -31.6104 H   0  0  0  0  0  0  0  0  0  0  0  0
   -5.7874   20.2866  -33.4063 H   0  0  0  0  0  0  0  0  0  0  0  0
   -7.6915   24.8761  -30.8539 H   0  0  0  0  0  0  0  0  0  0  0  0
   -5.6746   26.2067  -30.2546 H   0  0  0  0  0  0  0  0  0  0  0  0
    1.7314   18.3639  -34.2038 H   0  0  0  0  0  0  0  0  0  0  0  0
    3.3973   18.2774  -36.0614 H   0  0  0  0  0  0  0  0  0  0  0  0
    4.2101   20.3925  -37.1132 H   0  0  0  0  0  0  0  0  0  0  0  0
    3.3531   22.5958  -36.3106 H   0  0  0  0  0  0  0  0  0  0  0  0
    1.6842   22.6891  -34.4566 H   0  0  0  0  0  0  0  0  0  0  0  0
    1.9664   19.3440  -30.3370 H   0  0  0  0  0  0  0  0  0  0  0  0
    1.9639   18.3056  -31.8028 H   0  0  0  0  0  0  0  0  0  0  0  0
    2.8690   19.8572  -31.8028 H   0  0  0  0  0  0  0  0  0  0  0  0
  1  2  1  0
  2  3  2  0
  3  4  1  0
  4  5  1  0
  5  6  2  0
  5  7  1  0
  7  8  2  0
  8  9  1  0
  9 10  1  0
 10 11  2  0
 10 12  2  0
 10 13  1  0
 13 14  1  0
 14 15  1  0
 15 16  1  0
 16 17  1  0
 17 18  1  0
  9 19  2  0
 19 20  1  0
 20 21  2  0
 21 22  1  0
  3 23  1  0
 23 24  2  0
 23 25  1  0
 25 26  1  0
 26 27  2  0
 27 28  1  0
 28 29  2  0
 29 30  1  0
 30 31  2  0
 25 32  1  0
 32 33  1  0
 32  2  1  0
 21  7  1  0
 31 26  1  0
 18 13  1  0
  1 34  1  0
  1 35  1  0
  1 36  1  0
  4 37  1  0
  8 38  1  0
 14 39  1  0
 14 40  1  0
 15 41  1  0
 15 42  1  0
 16 43  1  0
 16 44  1  0
 17 45  1  0
 17 46  1  0
 18 47  1  0
 18 48  1  0
 19 49  1  0
 20 50  1  0
 27 51  1  0
 28 52  1  0
 29 53  1  0
 30 54  1  0
 31 55  1  0
 33 56  1  0
 33 57  1  0
 33 58  1  0
M  CHG  1  22  -1
M  END
>  <UniqueID>  (39) 
38

>  <SMILES>  (39) 
Cc1c(NC(=O)c2cc(S(=O)(=O)N3CCCCC3)ccc2[O-])c(=O)n(-c2ccccc2)n1C

>  <Energy>  (39) 
116.00870818661849

>  <Genealogy>  (39) 
Cc1c(NC(=O)c2cc(S(=O)(=O)N3CCCCC3)ccc2[O-])c(=O)n(-c2ccccc2)n1C (protonated)
Cc1c(NC(=O)c2cc(S(=O)(=O)N3CCCCC3)ccc2[O-])c(=O)n(-c2ccccc2)n1C (3D coordinates assigned)
Cc1c(NC(=O)c2cc(S(=O)(=O)N3CCCCC3)ccc2[O-])c(=O)n(-c2ccccc2)n1C (nonaromatic ring conformer: 116.00870818661849 kcal/mol)

>  <smiles>  (39) 
Cc1c(NC(=O)c2cc(S(=O)(=O)N3CCCCC3)ccc2O)c(=O)n(-c2ccccc2)n1C

>  <score_type>  (39) 
oracle

>  <origin>  (39) 
adgpu

>  <m_score__min__energy>  (39) 
-12.74

>  <m_primary>  (39) 
energy

$$$$
39:0
     RDKit          3D

 60 64  0  0  0  0  0  0  0  0999 V2000
   -5.0500   18.5390  -32.7200 C   0  0  0  0  0  0  0  0  0  0  0  0
   -4.0810   19.5970  -32.4520 N   0  0  0  0  0  0  0  0  0  0  0  0
   -4.3650   20.8390  -31.8040 C   0  0  0  0  0  0  0  0  0  0  0  0
   -5.4140   21.0660  -31.1430 O   0  0  0  0  0  0  0  0  0  0  0  0
   -3.2890   21.7970  -32.0540 C   0  0  0  0  0  0  0  0  0  0  0  0
   -3.2070   22.9870  -31.6350 O   0  0  0  0  0  0  0  0  0  0  0  0
   -2.3440   21.1010  -32.9080 C   0  0  0  0  0  0  0  0  0  0  0  0
   -1.1510   21.5450  -33.4810 C   0  0  0  0  0  0  0  0  0  0  0  0
   -0.4460   20.6600  -34.3210 C   0  0  0  0  0  0  0  0  0  0  0  0
    1.0380   21.1990  -35.1010 S   0  0  0  0  0  0  0  0  0  0  0  0
    0.9550   22.6730  -35.3820 O   0  0  0  0  0  0  0  0  0  0  0  0
    1.2240   20.4700  -36.4010 O   0  0  0  0  0  0  0  0  0  0  0  0
    2.3840   20.8940  -34.0610 N   0  0  0  0  0  0  0  0  0  0  0  0
    2.3860   19.7490  -33.2100 C   0  0  0  0  0  0  0  0  0  0  0  0
    1.3860   19.6010  -32.2440 C   0  0  0  0  0  0  0  0  0  0  0  0
    1.4030   18.5080  -31.3640 C   0  0  0  0  0  0  0  0  0  0  0  0
    0.3460   18.3440  -30.3420 C   0  0  0  0  0  0  0  0  0  0  0  0
   -0.6370   17.5940  -30.6030 O   0  0  0  0  0  0  0  0  0  0  0  0
    0.3900   19.0570  -29.0850 N   0  0  0  0  0  0  0  0  0  0  0  0
   -0.4950   18.6550  -27.9830 C   0  0  0  0  0  0  0  0  0  0  0  0
   -1.6310   19.6760  -27.8670 C   0  0  0  0  0  0  0  0  0  0  0  0
   -1.1170   21.0500  -27.9990 N   0  0  0  0  0  0  0  0  0  0  0  0
   -2.0310   22.1370  -28.2190 C   0  0  0  0  0  0  0  0  0  0  0  0
   -3.4140   21.9470  -28.0530 C   0  0  0  0  0  0  0  0  0  0  0  0
   -4.3060   22.9860  -28.3150 C   0  0  0  0  0  0  0  0  0  0  0  0
   -3.8270   24.2290  -28.7380 C   0  0  0  0  0  0  0  0  0  0  0  0
   -2.4520   24.4310  -28.9080 C   0  0  0  0  0  0  0  0  0  0  0  0
   -1.9740   25.6700  -29.3250 O   0  0  0  0  0  0  0  0  0  0  0  0
   -1.5540   23.3840  -28.6520 C   0  0  0  0  0  0  0  0  0  0  0  0
    0.3340   21.2950  -27.9850 C   0  0  0  0  0  0  0  0  0  0  0  0
    1.0290   20.3850  -29.0150 C   0  0  0  0  0  0  0  0  0  0  0  0
    2.4470   17.5770  -31.4450 C   0  0  0  0  0  0  0  0  0  0  0  0
    3.4430   17.7190  -32.4130 C   0  0  0  0  0  0  0  0  0  0  0  0
    3.4170   18.8020  -33.3000 C   0  0  0  0  0  0  0  0  0  0  0  0
    4.4140   18.9510  -34.2620 O   0  0  0  0  0  0  0  0  0  0  0  0
   -0.9610   19.3650  -34.5750 C   0  0  0  0  0  0  0  0  0  0  0  0
   -2.1690   18.9400  -33.9860 C   0  0  0  0  0  0  0  0  0  0  0  0
   -2.8450   19.8270  -33.1440 C   0  0  0  0  0  0  0  0  0  0  0  0
   -5.4221   18.1328  -31.7679 H   0  0  0  0  0  0  0  0  0  0  0  0
   -5.8915   18.9500  -33.2971 H   0  0  0  0  0  0  0  0  0  0  0  0
   -4.5668   17.7368  -33.2971 H   0  0  0  0  0  0  0  0  0  0  0  0
   -0.7715   22.5582  -33.2822 H   0  0  0  0  0  0  0  0  0  0  0  0
    0.5803   20.3466  -32.1733 H   0  0  0  0  0  0  0  0  0  0  0  0
   -0.9128   17.6584  -28.1887 H   0  0  0  0  0  0  0  0  0  0  0  0
    0.0726   18.6177  -27.0415 H   0  0  0  0  0  0  0  0  0  0  0  0
   -2.3667   19.4885  -28.6630 H   0  0  0  0  0  0  0  0  0  0  0  0
   -2.1003   19.5694  -26.8779 H   0  0  0  0  0  0  0  0  0  0  0  0
   -3.7949   20.9722  -27.7142 H   0  0  0  0  0  0  0  0  0  0  0  0
   -5.3872   22.8274  -28.1887 H   0  0  0  0  0  0  0  0  0  0  0  0
   -4.5314   25.0499  -28.9377 H   0  0  0  0  0  0  0  0  0  0  0  0
   -0.4741   23.5406  -28.7909 H   0  0  0  0  0  0  0  0  0  0  0  0
    0.5287   22.3476  -28.2382 H   0  0  0  0  0  0  0  0  0  0  0  0
    0.7289   21.0747  -26.9822 H   0  0  0  0  0  0  0  0  0  0  0  0
    0.9742   20.8602  -30.0056 H   0  0  0  0  0  0  0  0  0  0  0  0
    2.0747   20.2476  -28.7025 H   0  0  0  0  0  0  0  0  0  0  0  0
    2.4820   16.7308  -30.7431 H   0  0  0  0  0  0  0  0  0  0  0  0
    4.2519   16.9766  -32.4791 H   0  0  0  0  0  0  0  0  0  0  0  0
    4.4070   19.7260  -34.9140 H   0  0  0  0  0  0  0  0  0  0  0  0
   -0.4114   18.6827  -35.2401 H   0  0  0  0  0  0  0  0  0  0  0  0
   -2.5697   17.9349  -34.1843 H   0  0  0  0  0  0  0  0  0  0  0  0
  1  2  1  0
  2  3  1  0
  3  4  2  0
  3  5  1  0
  5  6  2  0
  5  7  1  0
  7  8  2  0
  8  9  1  0
  9 10  1  0
 10 11  2  0
 10 12  2  0
 10 13  1  0
 13 14  1  0
 14 15  2  0
 15 16  1  0
 16 17  1  0
 17 18  2  0
 17 19  1  0
 19 20  1  0
 20 21  1  0
 21 22  1  0
 22 23  1  0
 23 24  2  0
 24 25  1  0
 25 26  2  0
 26 27  1  0
 27 28  1  0
 27 29  2  0
 22 30  1  0
 30 31  1  0
 16 32  2  0
 32 33  1  0
 33 34  2  0
 34 35  1  0
  9 36  2  0
 36 37  1  0
 37 38  2  0
 38  2  1  0
 38  7  1  0
 34 14  1  0
 31 19  1  0
 29 23  1  0
  1 39  1  0
  1 40  1  0
  1 41  1  0
  8 42  1  0
 15 43  1  0
 20 44  1  0
 20 45  1  0
 21 46  1  0
 21 47  1  0
 24 48  1  0
 25 49  1  0
 26 50  1  0
 29 51  1  0
 30 52  1  0
 30 53  1  0
 31 54  1  0
 31 55  1  0
 32 56  1  0
 33 57  1  0
 35 58  1  0
 36 59  1  0
 37 60  1  0
M  CHG  2  13  -1  28  -1
M  END
>  <UniqueID>  (40) 
39

>  <SMILES>  (40) 
CN1C(=O)C(=O)c2cc(S(=O)(=O)[N-]c3cc(C(=O)N4CCN(c5cccc([O-])c5)CC4)ccc3O)ccc21

>  <Energy>  (40) 
117.53376221266238

>  <Genealogy>  (40) 
CN1C(=O)C(=O)c2cc(S(=O)(=O)[N-]c3cc(C(=O)N4CCN(c5cccc([O-])c5)CC4)ccc3O)ccc21 (protonated)
CN1C(=O)C(=O)c2cc(S(=O)(=O)[N-]c3cc(C(=O)N4CCN(c5cccc([O-])c5)CC4)ccc3O)ccc21 (3D coordinates assigned)
CN1C(=O)C(=O)c2cc(S(=O)(=O)[N-]c3cc(C(=O)N4CCN(c5cccc([O-])c5)CC4)ccc3O)ccc21 (nonaromatic ring conformer: 117.53376221266238 kcal/mol)

>  <smiles>  (40) 
CN1C(=O)C(=O)c2cc(S(=O)(=O)Nc3cc(C(=O)N4CCN(c5cccc(O)c5)CC4)ccc3O)ccc21

>  <score_type>  (40) 
oracle

>  <origin>  (40) 
adgpu

>  <m_score__min__energy>  (40) 
-13.9

>  <m_primary>  (40) 
energy

$$$$
40:0
     RDKit          3D

 38 41  0  0  0  0  0  0  0  0999 V2000
   -9.8620   19.4280  -32.6120 O   0  0  0  0  0  0  0  0  0  0  0  0
   -8.8870   20.1910  -32.3900 C   0  0  0  0  0  0  0  0  0  0  0  0
   -8.9900   21.4170  -31.6630 N   0  0  0  0  0  0  0  0  0  0  0  0
   -7.6500   21.9180  -31.6760 C   0  0  0  0  0  0  0  0  0  0  0  0
   -7.2150   23.1060  -31.0890 C   0  0  0  0  0  0  0  0  0  0  0  0
   -5.8510   23.4470  -31.1910 C   0  0  0  0  0  0  0  0  0  0  0  0
   -5.2400   24.9140  -30.4340 S   0  0  0  0  0  0  0  0  0  0  0  0
   -5.7180   25.0240  -29.0130 O   0  0  0  0  0  0  0  0  0  0  0  0
   -5.7340   26.1010  -31.2100 O   0  0  0  0  0  0  0  0  0  0  0  0
   -3.5050   24.9030  -30.4510 N   0  0  0  0  0  0  0  0  0  0  0  0
   -2.6750   24.1520  -29.5510 C   0  0  0  0  0  0  0  0  0  0  0  0
   -2.9660   22.8200  -29.2070 C   0  0  0  0  0  0  0  0  0  0  0  0
   -2.1280   22.1060  -28.3390 C   0  0  0  0  0  0  0  0  0  0  0  0
   -0.9690   22.7220  -27.8260 C   0  0  0  0  0  0  0  0  0  0  0  0
   -0.6960   24.0590  -28.1460 C   0  0  0  0  0  0  0  0  0  0  0  0
   -1.5400   24.7670  -29.0070 C   0  0  0  0  0  0  0  0  0  0  0  0
   -1.2420   26.0890  -29.3220 O   0  0  0  0  0  0  0  0  0  0  0  0
   -0.0740   21.9930  -26.8490 C   0  0  0  0  0  0  0  0  0  0  0  0
   -0.2220   20.5330  -26.9380 N   0  0  0  0  0  0  0  0  0  0  0  0
   -1.6350   20.1460  -26.8390 C   0  0  0  0  0  0  0  0  0  0  0  0
   -2.4290   20.6600  -28.0450 C   0  0  0  0  0  0  0  0  0  0  0  0
   -4.9570   22.5960  -31.8820 C   0  0  0  0  0  0  0  0  0  0  0  0
   -5.4150   21.4040  -32.4680 C   0  0  0  0  0  0  0  0  0  0  0  0
   -6.7670   21.0930  -32.3460 C   0  0  0  0  0  0  0  0  0  0  0  0
   -7.5200   19.9570  -32.8300 C   0  0  0  0  0  0  0  0  0  0  0  0
   -7.0870   18.9770  -33.4930 O   0  0  0  0  0  0  0  0  0  0  0  0
   -7.9205   23.7622  -30.5583 H   0  0  0  0  0  0  0  0  0  0  0  0
   -3.8603   22.3332  -29.6232 H   0  0  0  0  0  0  0  0  0  0  0  0
    0.1876   24.5543  -27.7172 H   0  0  0  0  0  0  0  0  0  0  0  0
    0.9723   22.2561  -27.0638 H   0  0  0  0  0  0  0  0  0  0  0  0
   -0.3653   22.2991  -25.8334 H   0  0  0  0  0  0  0  0  0  0  0  0
    0.1590   20.2080  -27.8580 H   0  0  0  0  0  0  0  0  0  0  0  0
   -1.7061   19.0489  -26.8021 H   0  0  0  0  0  0  0  0  0  0  0  0
   -2.0575   20.5895  -25.9253 H   0  0  0  0  0  0  0  0  0  0  0  0
   -2.1681   20.0559  -28.9265 H   0  0  0  0  0  0  0  0  0  0  0  0
   -3.5002   20.5752  -27.8098 H   0  0  0  0  0  0  0  0  0  0  0  0
   -3.8945   22.8697  -31.9612 H   0  0  0  0  0  0  0  0  0  0  0  0
   -4.7265   20.7365  -33.0069 H   0  0  0  0  0  0  0  0  0  0  0  0
  1  2  2  0
  2  3  1  0
  3  4  1  0
  4  5  2  0
  5  6  1  0
  6  7  1  0
  7  8  2  0
  7  9  2  0
  7 10  1  0
 10 11  1  0
 11 12  2  0
 12 13  1  0
 13 14  2  0
 14 15  1  0
 15 16  2  0
 16 17  1  0
 14 18  1  0
 18 19  1  0
 19 20  1  0
 20 21  1  0
  6 22  2  0
 22 23  1  0
 23 24  2  0
 24 25  1  0
 25 26  2  0
 25  2  1  0
 24  4  1  0
 16 11  1  0
 21 13  1  0
  5 27  1  0
 12 28  1  0
 15 29  1  0
 18 30  1  0
 18 31  1  0
 19 32  1  0
 20 33  1  0
 20 34  1  0
 21 35  1  0
 21 36  1  0
 22 37  1  0
 23 38  1  0
M  CHG  3   3  -1  10  -1  17  -1
M  END
>  <UniqueID>  (41) 
40

>  <SMILES>  (41) 
O=C1[N-]c2cc(S(=O)(=O)[N-]c3cc4c(cc3[O-])CNCC4)ccc2C1=O

>  <Energy>  (41) 
77.3041877043121

>  <Genealogy>  (41) 
O=C1[N-]c2cc(S(=O)(=O)[N-]c3cc4c(cc3[O-])CNCC4)ccc2C1=O (protonated)
O=C1[N-]c2cc(S(=O)(=O)[N-]c3cc4c(cc3[O-])CNCC4)ccc2C1=O (3D coordinates assigned)
O=C1[N-]c2cc(S(=O)(=O)[N-]c3cc4c(cc3[O-])CNCC4)ccc2C1=O (nonaromatic ring conformer: 77.3041877043121 kcal/mol)

>  <smiles>  (41) 
O=C1Nc2cc(S(=O)(=O)Nc3cc4c(cc3O)CNCC4)ccc2C1=O

>  <score_type>  (41) 
oracle

>  <origin>  (41) 
adgpu

>  <m_score__min__energy>  (41) 
-14.109999999999999

>  <m_primary>  (41) 
energy

$$$$
41:0
     RDKit          3D

 43 44  0  0  0  0  0  0  0  0999 V2000
   -9.8730   21.5530  -31.2190 C   0  0  0  0  0  0  0  0  0  0  0  0
   -9.0540   20.8180  -32.2890 C   0  0  0  0  0  0  0  0  0  0  0  0
   -9.2400   19.2770  -32.1740 C   0  0  0  0  0  0  0  0  0  0  0  0
   -8.0040   18.5710  -31.5890 C   0  0  0  0  0  0  0  0  0  0  0  0
   -6.8190   18.8910  -32.3980 N   0  0  0  0  0  0  0  0  0  0  0  0
   -5.7830   17.9070  -32.5620 C   0  0  0  0  0  0  0  0  0  0  0  0
   -5.6720   16.9770  -31.7210 O   0  0  0  0  0  0  0  0  0  0  0  0
   -4.8660   17.9080  -33.7590 C   0  0  0  0  0  0  0  0  0  0  0  0
   -3.9040   19.0950  -33.7110 C   0  0  0  0  0  0  0  0  0  0  0  0
   -3.8040   19.6040  -32.3450 N   0  0  0  0  0  0  0  0  0  0  0  0
   -2.7160   20.9580  -32.2980 S   0  0  0  0  0  0  0  0  0  0  0  0
   -1.5250   20.6190  -31.4450 O   0  0  0  0  0  0  0  0  0  0  0  0
   -2.2390   21.2610  -33.6900 O   0  0  0  0  0  0  0  0  0  0  0  0
   -3.5410   22.3740  -31.6570 C   0  0  0  0  0  0  0  0  0  0  0  0
   -4.8740   22.6390  -32.0010 C   0  0  0  0  0  0  0  0  0  0  0  0
   -5.5100   23.7850  -31.5150 C   0  0  0  0  0  0  0  0  0  0  0  0
   -4.8200   24.6780  -30.6840 C   0  0  0  0  0  0  0  0  0  0  0  0
   -5.4510   25.8240  -30.2050 O   0  0  0  0  0  0  0  0  0  0  0  0
   -3.4880   24.4150  -30.3370 C   0  0  0  0  0  0  0  0  0  0  0  0
   -2.7970   25.2920  -29.5120 O   0  0  0  0  0  0  0  0  0  0  0  0
   -2.8500   23.2680  -30.8270 C   0  0  0  0  0  0  0  0  0  0  0  0
   -6.6450   20.2550  -32.9260 C   0  0  0  0  0  0  0  0  0  0  0  0
   -7.5720   21.2580  -32.2180 C   0  0  0  0  0  0  0  0  0  0  0  0
   -9.5306   21.2457  -30.2198 H   0  0  0  0  0  0  0  0  0  0  0  0
   -9.7378   22.6385  -31.3352 H   0  0  0  0  0  0  0  0  0  0  0  0
  -10.9376   21.3016  -31.3352 H   0  0  0  0  0  0  0  0  0  0  0  0
   -9.4259   21.0951  -33.2865 H   0  0  0  0  0  0  0  0  0  0  0  0
  -10.1024   19.0744  -31.5219 H   0  0  0  0  0  0  0  0  0  0  0  0
   -9.3967   18.8848  -33.1897 H   0  0  0  0  0  0  0  0  0  0  0  0
   -7.8436   18.9119  -30.5555 H   0  0  0  0  0  0  0  0  0  0  0  0
   -8.1680   17.4833  -31.5990 H   0  0  0  0  0  0  0  0  0  0  0  0
   -4.2848   16.9741  -33.7677 H   0  0  0  0  0  0  0  0  0  0  0  0
   -5.4781   17.9895  -34.6693 H   0  0  0  0  0  0  0  0  0  0  0  0
   -2.9097   18.7717  -34.0527 H   0  0  0  0  0  0  0  0  0  0  0  0
   -4.2832   19.8931  -34.3662 H   0  0  0  0  0  0  0  0  0  0  0  0
   -5.4207   21.9435  -32.6548 H   0  0  0  0  0  0  0  0  0  0  0  0
   -6.5568   23.9868  -31.7860 H   0  0  0  0  0  0  0  0  0  0  0  0
   -5.0340   26.3810  -29.4630 H   0  0  0  0  0  0  0  0  0  0  0  0
   -1.8020   23.0679  -30.5593 H   0  0  0  0  0  0  0  0  0  0  0  0
   -5.6007   20.5659  -32.7750 H   0  0  0  0  0  0  0  0  0  0  0  0
   -6.9009   20.2454  -33.9958 H   0  0  0  0  0  0  0  0  0  0  0  0
   -7.2734   21.3351  -31.1621 H   0  0  0  0  0  0  0  0  0  0  0  0
   -7.4783   22.2288  -32.7266 H   0  0  0  0  0  0  0  0  0  0  0  0
  1  2  1  0
  2  3  1  0
  3  4  1  0
  4  5  1  0
  5  6  1  0
  6  7  2  0
  6  8  1  0
  8  9  1  0
  9 10  1  0
 10 11  1  0
 11 12  2  0
 11 13  2  0
 11 14  1  0
 14 15  2  0
 15 16  1  0
 16 17  2  0
 17 18  1  0
 17 19  1  0
 19 20  1  0
 19 21  2  0
  5 22  1  0
 22 23  1  0
 23  2  1  0
 21 14  1  0
  1 24  1  0
  1 25  1  0
  1 26  1  0
  2 27  1  0
  3 28  1  0
  3 29  1  0
  4 30  1  0
  4 31  1  0
  8 32  1  0
  8 33  1  0
  9 34  1  0
  9 35  1  0
 15 36  1  0
 16 37  1  0
 18 38  1  0
 21 39  1  0
 22 40  1  0
 22 41  1  0
 23 42  1  0
 23 43  1  0
M  CHG  2  10  -1  20  -1
M  END
>  <UniqueID>  (42) 
41

>  <SMILES>  (42) 
CC1CCN(C(=O)CC[N-]S(=O)(=O)c2ccc(O)c([O-])c2)CC1

>  <Energy>  (42) 
38.31749627776

>  <Genealogy>  (42) 
CC1CCN(C(=O)CC[N-]S(=O)(=O)c2ccc(O)c([O-])c2)CC1 (protonated)
CC1CCN(C(=O)CC[N-]S(=O)(=O)c2ccc(O)c([O-])c2)CC1 (3D coordinates assigned)
CC1CCN(C(=O)CC[N-]S(=O)(=O)c2ccc(O)c([O-])c2)CC1 (nonaromatic ring conformer: 38.31749627776 kcal/mol)

>  <smiles>  (42) 
CC1CCN(C(=O)CCNS(=O)(=O)c2ccc(O)c(O)c2)CC1

>  <score_type>  (42) 
oracle

>  <origin>  (42) 
adgpu

>  <m_score__min__energy>  (42) 
-10.73

>  <m_primary>  (42) 
energy

$$$$
42:0
     RDKit          3D

 42 44  0  0  0  0  0  0  0  0999 V2000
   -9.1070   18.6440  -31.7230 C   0  0  0  0  0  0  0  0  0  0  0  0
   -8.4300   19.6800  -32.4280 O   0  0  0  0  0  0  0  0  0  0  0  0
   -7.0660   19.6590  -32.7640 C   0  0  0  0  0  0  0  0  0  0  0  0
   -6.4890   18.5760  -33.4460 C   0  0  0  0  0  0  0  0  0  0  0  0
   -5.1330   18.5810  -33.7740 C   0  0  0  0  0  0  0  0  0  0  0  0
   -4.3030   19.6740  -33.4360 C   0  0  0  0  0  0  0  0  0  0  0  0
   -2.8830   19.6830  -33.7840 N   0  0  0  0  0  0  0  0  0  0  0  0
   -2.1420   20.9630  -33.7680 C   0  0  0  0  0  0  0  0  0  0  0  0
   -0.6510   20.8140  -34.0810 C   0  0  0  0  0  0  0  0  0  0  0  0
   -0.4380   19.8420  -35.0760 O   0  0  0  0  0  0  0  0  0  0  0  0
   -0.7460   18.5800  -34.5360 C   0  0  0  0  0  0  0  0  0  0  0  0
   -2.2500   18.4430  -34.2860 C   0  0  0  0  0  0  0  0  0  0  0  0
   -4.8960   20.7530  -32.7430 C   0  0  0  0  0  0  0  0  0  0  0  0
   -6.2590   20.7500  -32.4070 C   0  0  0  0  0  0  0  0  0  0  0  0
   -6.9670   22.1220  -31.5420 S   0  0  0  0  0  0  0  0  0  0  0  0
   -7.6510   21.6260  -30.2980 O   0  0  0  0  0  0  0  0  0  0  0  0
   -7.9880   22.7870  -32.4210 O   0  0  0  0  0  0  0  0  0  0  0  0
   -5.7450   23.3040  -31.0780 C   0  0  0  0  0  0  0  0  0  0  0  0
   -4.4400   22.8910  -30.7780 C   0  0  0  0  0  0  0  0  0  0  0  0
   -3.4960   23.8420  -30.3760 C   0  0  0  0  0  0  0  0  0  0  0  0
   -2.1510   23.4420  -30.0610 C   0  0  0  0  0  0  0  0  0  0  0  0
   -1.0690   23.1200  -29.8070 N   0  0  0  0  0  0  0  0  0  0  0  0
   -3.8480   25.1520  -30.2760 N   0  0  0  0  0  0  0  0  0  0  0  0
   -5.1080   25.5760  -30.5560 C   0  0  0  0  0  0  0  0  0  0  0  0
   -5.3970   26.7970  -30.4480 O   0  0  0  0  0  0  0  0  0  0  0  0
   -6.0830   24.6580  -30.9610 C   0  0  0  0  0  0  0  0  0  0  0  0
   -9.0005   18.8070  -30.6404 H   0  0  0  0  0  0  0  0  0  0  0  0
  -10.1735   18.6537  -31.9921 H   0  0  0  0  0  0  0  0  0  0  0  0
   -8.6698   17.6711  -31.9921 H   0  0  0  0  0  0  0  0  0  0  0  0
   -7.1129   17.7140  -33.7248 H   0  0  0  0  0  0  0  0  0  0  0  0
   -4.7023   17.7193  -34.3049 H   0  0  0  0  0  0  0  0  0  0  0  0
   -2.5891   21.6326  -34.5175 H   0  0  0  0  0  0  0  0  0  0  0  0
   -2.2178   21.3660  -32.7473 H   0  0  0  0  0  0  0  0  0  0  0  0
   -0.2592   21.7799  -34.4323 H   0  0  0  0  0  0  0  0  0  0  0  0
   -0.1312   20.4967  -33.1650 H   0  0  0  0  0  0  0  0  0  0  0  0
   -0.4259   17.7990  -35.2414 H   0  0  0  0  0  0  0  0  0  0  0  0
   -0.2197   18.4714  -33.5762 H   0  0  0  0  0  0  0  0  0  0  0  0
   -2.7357   18.1633  -35.2325 H   0  0  0  0  0  0  0  0  0  0  0  0
   -2.3789   17.6771  -33.5070 H   0  0  0  0  0  0  0  0  0  0  0  0
   -4.2750   21.6158  -32.4601 H   0  0  0  0  0  0  0  0  0  0  0  0
   -4.1607   21.8300  -30.8578 H   0  0  0  0  0  0  0  0  0  0  0  0
   -7.1053   24.9965  -31.1854 H   0  0  0  0  0  0  0  0  0  0  0  0
  1  2  1  0
  2  3  1  0
  3  4  2  0
  4  5  1  0
  5  6  2  0
  6  7  1  0
  7  8  1  0
  8  9  1  0
  9 10  1  0
 10 11  1  0
 11 12  1  0
  6 13  1  0
 13 14  2  0
 14 15  1  0
 15 16  2  0
 15 17  2  0
 15 18  1  0
 18 19  1  0
 19 20  2  0
 20 21  1  0
 21 22  3  0
 20 23  1  0
 23 24  1  0
 24 25  2  0
 24 26  1  0
 14  3  1  0
 26 18  2  0
 12  7  1  0
  1 27  1  0
  1 28  1  0
  1 29  1  0
  4 30  1  0
  5 31  1  0
  8 32  1  0
  8 33  1  0
  9 34  1  0
  9 35  1  0
 11 36  1  0
 11 37  1  0
 12 38  1  0
 12 39  1  0
 13 40  1  0
 19 41  1  0
 26 42  1  0
M  CHG  1  23  -1
M  END
>  <UniqueID>  (43) 
42

>  <SMILES>  (43) 
COc1ccc(N2CCOCC2)cc1S(=O)(=O)c1cc(C#N)[n-]c(=O)c1

>  <Energy>  (43) 
53.41106605185684

>  <Genealogy>  (43) 
COc1ccc(N2CCOCC2)cc1S(=O)(=O)c1cc(C#N)[n-]c(=O)c1 (protonated)
COc1ccc(N2CCOCC2)cc1S(=O)(=O)c1cc(C#N)[n-]c(=O)c1 (3D coordinates assigned)
COc1ccc(N2CCOCC2)cc1S(=O)(=O)c1cc(C#N)[n-]c(=O)c1 (nonaromatic ring conformer: 53.41106605185684 kcal/mol)

>  <smiles>  (43) 
COc1ccc(N2CCOCC2)cc1S(=O)(=O)c1cc(C#N)[nH]c(=O)c1

>  <score_type>  (43) 
oracle

>  <origin>  (43) 
adgpu

>  <m_score__min__energy>  (43) 
-9.6300000000000008

>  <m_primary>  (43) 
energy

$$$$
43:0
     RDKit          3D

 55 59  0  0  0  0  0  0  0  0999 V2000
   -8.6730   23.8000  -32.1880 O   0  0  0  0  0  0  0  0  0  0  0  0
   -8.4170   22.5690  -32.2100 C   0  0  0  0  0  0  0  0  0  0  0  0
   -7.2860   22.0090  -32.8830 N   0  0  0  0  0  0  0  0  0  0  0  0
   -7.4130   20.6060  -32.6230 C   0  0  0  0  0  0  0  0  0  0  0  0
   -6.5630   19.6070  -33.0930 C   0  0  0  0  0  0  0  0  0  0  0  0
   -6.8640   18.2630  -32.7800 C   0  0  0  0  0  0  0  0  0  0  0  0
   -5.8490   16.9550  -33.3880 S   0  0  0  0  0  0  0  0  0  0  0  0
   -5.1760   16.2660  -32.2340 O   0  0  0  0  0  0  0  0  0  0  0  0
   -6.7060   15.9510  -34.1060 O   0  0  0  0  0  0  0  0  0  0  0  0
   -4.6500   17.5460  -34.4900 N   0  0  0  0  0  0  0  0  0  0  0  0
   -3.2600   17.5180  -34.1690 C   0  0  0  0  0  0  0  0  0  0  0  0
   -2.3860   16.7430  -34.9380 C   0  0  0  0  0  0  0  0  0  0  0  0
   -1.0260   16.6980  -34.6190 C   0  0  0  0  0  0  0  0  0  0  0  0
   -0.5330   17.4400  -33.5410 C   0  0  0  0  0  0  0  0  0  0  0  0
   -1.3960   18.2460  -32.7810 C   0  0  0  0  0  0  0  0  0  0  0  0
   -0.8740   19.0280  -31.6380 C   0  0  0  0  0  0  0  0  0  0  0  0
   -0.0130   18.5050  -30.8780 O   0  0  0  0  0  0  0  0  0  0  0  0
   -1.3530   20.3570  -31.3590 N   0  0  0  0  0  0  0  0  0  0  0  0
   -1.4970   21.3470  -32.4380 C   0  0  0  0  0  0  0  0  0  0  0  0
   -2.8070   22.1270  -32.2680 C   0  0  0  0  0  0  0  0  0  0  0  0
   -3.0390   22.4890  -30.8600 N   0  0  0  0  0  0  0  0  0  0  0  0
   -4.2960   23.0810  -30.4840 C   0  0  0  0  0  0  0  0  0  0  0  0
   -5.4220   22.2680  -30.2780 C   0  0  0  0  0  0  0  0  0  0  0  0
   -6.6450   22.8350  -29.9090 C   0  0  0  0  0  0  0  0  0  0  0  0
   -6.7520   24.2180  -29.7390 C   0  0  0  0  0  0  0  0  0  0  0  0
   -5.6340   25.0350  -29.9300 C   0  0  0  0  0  0  0  0  0  0  0  0
   -4.4090   24.4730  -30.3020 C   0  0  0  0  0  0  0  0  0  0  0  0
   -3.3040   25.3000  -30.4660 O   0  0  0  0  0  0  0  0  0  0  0  0
   -2.0030   22.2230  -29.8550 C   0  0  0  0  0  0  0  0  0  0  0  0
   -1.5430   20.7640  -29.9590 C   0  0  0  0  0  0  0  0  0  0  0  0
   -2.7650   18.2740  -33.0990 C   0  0  0  0  0  0  0  0  0  0  0  0
   -8.0020   17.9570  -31.9950 C   0  0  0  0  0  0  0  0  0  0  0  0
   -8.8380   18.9800  -31.5190 C   0  0  0  0  0  0  0  0  0  0  0  0
   -8.5190   20.2940  -31.8540 C   0  0  0  0  0  0  0  0  0  0  0  0
   -9.2020   21.5340  -31.5560 C   0  0  0  0  0  0  0  0  0  0  0  0
  -10.2530   21.6850  -30.8780 O   0  0  0  0  0  0  0  0  0  0  0  0
   -5.6772   19.8594  -33.6944 H   0  0  0  0  0  0  0  0  0  0  0  0
   -2.7691   16.1686  -35.7943 H   0  0  0  0  0  0  0  0  0  0  0  0
   -0.3421   16.0778  -35.2170 H   0  0  0  0  0  0  0  0  0  0  0  0
    0.5362   17.3920  -33.2871 H   0  0  0  0  0  0  0  0  0  0  0  0
   -0.6496   22.0476  -32.4041 H   0  0  0  0  0  0  0  0  0  0  0  0
   -1.5128   20.8243  -33.4058 H   0  0  0  0  0  0  0  0  0  0  0  0
   -2.7567   23.0462  -32.8700 H   0  0  0  0  0  0  0  0  0  0  0  0
   -3.6366   21.4863  -32.6015 H   0  0  0  0  0  0  0  0  0  0  0  0
   -5.3412   21.1787  -30.4078 H   0  0  0  0  0  0  0  0  0  0  0  0
   -7.5239   22.1923  -29.7523 H   0  0  0  0  0  0  0  0  0  0  0  0
   -7.7166   24.6639  -29.4547 H   0  0  0  0  0  0  0  0  0  0  0  0
   -5.7181   26.1225  -29.7873 H   0  0  0  0  0  0  0  0  0  0  0  0
   -1.1456   22.8898  -30.0287 H   0  0  0  0  0  0  0  0  0  0  0  0
   -2.4149   22.4039  -28.8512 H   0  0  0  0  0  0  0  0  0  0  0  0
   -0.5901   20.6506  -29.4214 H   0  0  0  0  0  0  0  0  0  0  0  0
   -2.3210   20.1246  -29.5164 H   0  0  0  0  0  0  0  0  0  0  0  0
   -3.4518   18.8936  -32.5037 H   0  0  0  0  0  0  0  0  0  0  0  0
   -8.2333   16.9085  -31.7559 H   0  0  0  0  0  0  0  0  0  0  0  0
   -9.7181   18.7507  -30.9003 H   0  0  0  0  0  0  0  0  0  0  0  0
  1  2  2  0
  2  3  1  0
  3  4  1  0
  4  5  2  0
  5  6  1  0
  6  7  1  0
  7  8  2  0
  7  9  2  0
  7 10  1  0
 10 11  1  0
 11 12  2  0
 12 13  1  0
 13 14  2  0
 14 15  1  0
 15 16  1  0
 16 17  2  0
 16 18  1  0
 18 19  1  0
 19 20  1  0
 20 21  1  0
 21 22  1  0
 22 23  2  0
 23 24  1  0
 24 25  2  0
 25 26  1  0
 26 27  2  0
 27 28  1  0
 21 29  1  0
 29 30  1  0
 15 31  2  0
  6 32  2  0
 32 33  1  0
 33 34  2  0
 34 35  1  0
 35 36  2  0
 35  2  1  0
 34  4  1  0
 31 11  1  0
 30 18  1  0
 27 22  1  0
  5 37  1  0
 12 38  1  0
 13 39  1  0
 14 40  1  0
 19 41  1  0
 19 42  1  0
 20 43  1  0
 20 44  1  0
 23 45  1  0
 24 46  1  0
 25 47  1  0
 26 48  1  0
 29 49  1  0
 29 50  1  0
 30 51  1  0
 30 52  1  0
 31 53  1  0
 32 54  1  0
 33 55  1  0
M  CHG  3   3  -1  10  -1  28  -1
M  END
>  <UniqueID>  (44) 
43

>  <SMILES>  (44) 
O=C1[N-]c2cc(S(=O)(=O)[N-]c3cccc(C(=O)N4CCN(c5ccccc5[O-])CC4)c3)ccc2C1=O

>  <Energy>  (44) 
107.42715744081667

>  <Genealogy>  (44) 
O=C1[N-]c2cc(S(=O)(=O)[N-]c3cccc(C(=O)N4CCN(c5ccccc5[O-])CC4)c3)ccc2C1=O (protonated)
O=C1[N-]c2cc(S(=O)(=O)[N-]c3cccc(C(=O)N4CCN(c5ccccc5[O-])CC4)c3)ccc2C1=O (3D coordinates assigned)
O=C1[N-]c2cc(S(=O)(=O)[N-]c3cccc(C(=O)N4CCN(c5ccccc5[O-])CC4)c3)ccc2C1=O (nonaromatic ring conformer: 107.42715744081667 kcal/mol)

>  <smiles>  (44) 
O=C1Nc2cc(S(=O)(=O)Nc3cccc(C(=O)N4CCN(c5ccccc5O)CC4)c3)ccc2C1=O

>  <score_type>  (44) 
oracle

>  <origin>  (44) 
adgpu

>  <m_score__min__energy>  (44) 
-13.58

>  <m_primary>  (44) 
energy

$$$$
44:0
     RDKit          3D

 44 46  0  0  0  0  0  0  0  0999 V2000
   -1.2520   26.7910  -24.7220 C   0  0  0  0  0  0  0  0  0  0  0  0
   -1.6110   26.0390  -25.9700 C   0  0  0  0  0  0  0  0  0  0  0  0
   -2.7780   25.2620  -26.0030 C   0  0  0  0  0  0  0  0  0  0  0  0
   -3.1380   24.5790  -27.1680 C   0  0  0  0  0  0  0  0  0  0  0  0
   -2.3390   24.6730  -28.3200 C   0  0  0  0  0  0  0  0  0  0  0  0
   -2.7750   24.0110  -29.6020 C   0  0  0  0  0  0  0  0  0  0  0  0
   -3.4880   24.9470  -30.4750 N   0  0  0  0  0  0  0  0  0  0  0  0
   -5.1990   24.6170  -30.5150 S   0  0  0  0  0  0  0  0  0  0  0  0
   -5.7400   24.5160  -29.1150 O   0  0  0  0  0  0  0  0  0  0  0  0
   -5.9000   25.7420  -31.2210 O   0  0  0  0  0  0  0  0  0  0  0  0
   -5.4880   23.1220  -31.4020 C   0  0  0  0  0  0  0  0  0  0  0  0
   -4.4870   22.6130  -32.2300 C   0  0  0  0  0  0  0  0  0  0  0  0
   -4.6440   21.3740  -32.8510 C   0  0  0  0  0  0  0  0  0  0  0  0
   -5.8180   20.6050  -32.6560 C   0  0  0  0  0  0  0  0  0  0  0  0
   -6.8380   21.1390  -31.8370 C   0  0  0  0  0  0  0  0  0  0  0  0
   -6.6710   22.3970  -31.2240 C   0  0  0  0  0  0  0  0  0  0  0  0
   -7.9970   20.3810  -31.6250 C   0  0  0  0  0  0  0  0  0  0  0  0
   -8.9140   20.8320  -30.8820 O   0  0  0  0  0  0  0  0  0  0  0  0
   -8.1350   19.1550  -32.2150 N   0  0  0  0  0  0  0  0  0  0  0  0
   -9.3500   18.3590  -31.9590 C   0  0  0  0  0  0  0  0  0  0  0  0
   -7.1210   18.6350  -32.9780 C   0  0  0  0  0  0  0  0  0  0  0  0
   -7.2430   17.4720  -33.4600 O   0  0  0  0  0  0  0  0  0  0  0  0
   -5.9750   19.3580  -33.2210 N   0  0  0  0  0  0  0  0  0  0  0  0
   -4.9080   18.7800  -34.0650 C   0  0  0  0  0  0  0  0  0  0  0  0
   -1.1500   25.4180  -28.2720 C   0  0  0  0  0  0  0  0  0  0  0  0
   -0.7900   26.0990  -27.1060 C   0  0  0  0  0  0  0  0  0  0  0  0
   -1.5359   26.1964  -23.8412 H   0  0  0  0  0  0  0  0  0  0  0  0
   -0.1680   26.9770  -24.7050 H   0  0  0  0  0  0  0  0  0  0  0  0
   -1.7890   27.7509  -24.7050 H   0  0  0  0  0  0  0  0  0  0  0  0
   -3.4130   25.1898  -25.1077 H   0  0  0  0  0  0  0  0  0  0  0  0
   -4.0507   23.9652  -27.1831 H   0  0  0  0  0  0  0  0  0  0  0  0
   -1.8863   23.6357  -30.1305 H   0  0  0  0  0  0  0  0  0  0  0  0
   -3.4580   23.1866  -29.3494 H   0  0  0  0  0  0  0  0  0  0  0  0
   -3.5670   23.1932  -32.3943 H   0  0  0  0  0  0  0  0  0  0  0  0
   -3.8451   20.9884  -33.5014 H   0  0  0  0  0  0  0  0  0  0  0  0
   -7.4770   22.8119  -30.6009 H   0  0  0  0  0  0  0  0  0  0  0  0
   -9.5015   18.2598  -30.8740 H   0  0  0  0  0  0  0  0  0  0  0  0
  -10.2195   18.8631  -32.4060 H   0  0  0  0  0  0  0  0  0  0  0  0
   -9.2351   17.3605  -32.4060 H   0  0  0  0  0  0  0  0  0  0  0  0
   -4.1226   18.3546  -33.4229 H   0  0  0  0  0  0  0  0  0  0  0  0
   -5.3315   17.9879  -34.7001 H   0  0  0  0  0  0  0  0  0  0  0  0
   -4.4759   19.5674  -34.7001 H   0  0  0  0  0  0  0  0  0  0  0  0
   -0.4983   25.4659  -29.1569 H   0  0  0  0  0  0  0  0  0  0  0  0
    0.1409   26.6845  -27.0788 H   0  0  0  0  0  0  0  0  0  0  0  0
  1  2  1  0
  2  3  2  0
  3  4  1  0
  4  5  2  0
  5  6  1  0
  6  7  1  0
  7  8  1  0
  8  9  2  0
  8 10  2  0
  8 11  1  0
 11 12  2  0
 12 13  1  0
 13 14  2  0
 14 15  1  0
 15 16  2  0
 15 17  1  0
 17 18  2  0
 17 19  1  0
 19 20  1  0
 19 21  1  0
 21 22  2  0
 21 23  1  0
 23 24  1  0
  5 25  1  0
 25 26  2  0
 26  2  1  0
 16 11  1  0
 23 14  1  0
  1 27  1  0
  1 28  1  0
  1 29  1  0
  3 30  1  0
  4 31  1  0
  6 32  1  0
  6 33  1  0
 12 34  1  0
 13 35  1  0
 16 36  1  0
 20 37  1  0
 20 38  1  0
 20 39  1  0
 24 40  1  0
 24 41  1  0
 24 42  1  0
 25 43  1  0
 26 44  1  0
M  CHG  1   7  -1
M  END
>  <UniqueID>  (45) 
44

>  <SMILES>  (45) 
Cc1ccc(C[N-]S(=O)(=O)c2ccc3c(c2)c(=O)n(C)c(=O)n3C)cc1

>  <Energy>  (45) 
53.58254512873597

>  <Genealogy>  (45) 
Cc1ccc(C[N-]S(=O)(=O)c2ccc3c(c2)c(=O)n(C)c(=O)n3C)cc1 (protonated)
Cc1ccc(C[N-]S(=O)(=O)c2ccc3c(c2)c(=O)n(C)c(=O)n3C)cc1 (3D coordinates assigned)
Cc1ccc(C[N-]S(=O)(=O)c2ccc3c(c2)c(=O)n(C)c(=O)n3C)cc1 (optimized conformer: 53.58254512873597 kcal/mol)

>  <smiles>  (45) 
Cc1ccc(CNS(=O)(=O)c2ccc3c(c2)c(=O)n(C)c(=O)n3C)cc1

>  <score_type>  (45) 
oracle

>  <origin>  (45) 
adgpu

>  <m_score__min__energy>  (45) 
-10.859999999999999

>  <m_primary>  (45) 
energy

$$$$
45:0
     RDKit          3D

 62 64  0  0  0  0  0  0  0  0999 V2000
   -8.4970   22.6670  -31.8690 C   0  0  0  0  0  0  0  0  0  0  0  0
   -7.5590   21.8370  -30.9880 C   0  0  0  0  0  0  0  0  0  0  0  0
   -6.2220   21.7390  -31.5860 N   0  0  0  0  0  0  0  0  0  0  0  0
   -5.9950   20.8180  -32.7090 C   0  0  0  0  0  0  0  0  0  0  0  0
   -7.0090   19.6780  -32.6930 C   0  0  0  0  0  0  0  0  0  0  0  0
   -5.1290   22.5120  -31.0480 C   0  0  0  0  0  0  0  0  0  0  0  0
   -4.0460   21.8720  -30.4180 C   0  0  0  0  0  0  0  0  0  0  0  0
   -3.0410   22.6240  -29.8040 C   0  0  0  0  0  0  0  0  0  0  0  0
   -3.1080   24.0230  -29.8070 C   0  0  0  0  0  0  0  0  0  0  0  0
   -2.2150   24.7730  -28.9770 N   0  0  0  0  0  0  0  0  0  0  0  0
   -1.0110   24.1740  -28.4980 C   0  0  0  0  0  0  0  0  0  0  0  0
    0.0950   24.5120  -28.9910 O   0  0  0  0  0  0  0  0  0  0  0  0
   -1.0900   23.2020  -27.4460 N   0  0  0  0  0  0  0  0  0  0  0  0
   -1.2000   21.7720  -27.5020 C   0  0  0  0  0  0  0  0  0  0  0  0
   -1.8790   21.0250  -26.5230 C   0  0  0  0  0  0  0  0  0  0  0  0
   -1.8850   19.6320  -26.5870 C   0  0  0  0  0  0  0  0  0  0  0  0
   -1.1920   18.9700  -27.6020 C   0  0  0  0  0  0  0  0  0  0  0  0
   -0.4850   19.6930  -28.5730 C   0  0  0  0  0  0  0  0  0  0  0  0
    0.5000   18.8120  -29.7510 S   0  0  0  0  0  0  0  0  0  0  0  0
    0.3300   17.3330  -29.5480 O   0  0  0  0  0  0  0  0  0  0  0  0
    1.9540   19.1520  -29.5640 O   0  0  0  0  0  0  0  0  0  0  0  0
   -0.0050   19.2820  -31.4090 C   0  0  0  0  0  0  0  0  0  0  0  0
   -1.3390   20.0610  -31.3830 C   0  0  0  0  0  0  0  0  0  0  0  0
   -1.4180   21.1590  -32.4650 C   0  0  0  0  0  0  0  0  0  0  0  0
   -0.7500   20.7690  -33.7240 N   0  0  0  0  0  0  0  0  0  0  0  0
   -1.5000   19.7230  -34.4430 C   0  0  0  0  0  0  0  0  0  0  0  0
    0.6870   20.4260  -33.5570 C   0  0  0  0  0  0  0  0  0  0  0  0
    1.0940   20.0860  -32.1080 C   0  0  0  0  0  0  0  0  0  0  0  0
   -0.5120   21.1080  -28.5330 C   0  0  0  0  0  0  0  0  0  0  0  0
    0.1450   21.8930  -29.4860 O   0  0  0  0  0  0  0  0  0  0  0  0
   -4.1620   24.6690  -30.4700 C   0  0  0  0  0  0  0  0  0  0  0  0
   -4.2410   26.0590  -30.4830 O   0  0  0  0  0  0  0  0  0  0  0  0
   -5.1590   23.9180  -31.0980 C   0  0  0  0  0  0  0  0  0  0  0  0
   -9.1684   23.2611  -31.2317 H   0  0  0  0  0  0  0  0  0  0  0  0
   -7.9030   23.3407  -32.5041 H   0  0  0  0  0  0  0  0  0  0  0  0
   -9.0934   21.9954  -32.5041 H   0  0  0  0  0  0  0  0  0  0  0  0
   -7.4769   22.3149  -30.0006 H   0  0  0  0  0  0  0  0  0  0  0  0
   -7.9747   20.8230  -30.8931 H   0  0  0  0  0  0  0  0  0  0  0  0
   -6.0914   21.3723  -33.6542 H   0  0  0  0  0  0  0  0  0  0  0  0
   -4.9856   20.3913  -32.6145 H   0  0  0  0  0  0  0  0  0  0  0  0
   -7.2454   19.4122  -31.6521 H   0  0  0  0  0  0  0  0  0  0  0  0
   -7.9274   19.9969  -33.2077 H   0  0  0  0  0  0  0  0  0  0  0  0
   -6.5852   18.8031  -33.2077 H   0  0  0  0  0  0  0  0  0  0  0  0
   -3.9901   20.7735  -30.4087 H   0  0  0  0  0  0  0  0  0  0  0  0
   -2.1954   22.1161  -29.3172 H   0  0  0  0  0  0  0  0  0  0  0  0
   -2.4058   21.5399  -25.7061 H   0  0  0  0  0  0  0  0  0  0  0  0
   -2.4386   19.0519  -25.8339 H   0  0  0  0  0  0  0  0  0  0  0  0
   -1.2007   17.8707  -27.6403 H   0  0  0  0  0  0  0  0  0  0  0  0
   -0.1678   18.3614  -31.9887 H   0  0  0  0  0  0  0  0  0  0  0  0
   -2.1630   19.3503  -31.5441 H   0  0  0  0  0  0  0  0  0  0  0  0
   -1.4105   20.5580  -30.4043 H   0  0  0  0  0  0  0  0  0  0  0  0
   -2.4769   21.3671  -32.6784 H   0  0  0  0  0  0  0  0  0  0  0  0
   -0.8991   22.0471  -32.0752 H   0  0  0  0  0  0  0  0  0  0  0  0
   -1.9812   19.0518  -33.7164 H   0  0  0  0  0  0  0  0  0  0  0  0
   -2.2691   20.1917  -35.0745 H   0  0  0  0  0  0  0  0  0  0  0  0
   -0.8093   19.1450  -35.0745 H   0  0  0  0  0  0  0  0  0  0  0  0
    0.9092   19.5548  -34.1908 H   0  0  0  0  0  0  0  0  0  0  0  0
    1.2599   21.3202  -33.8437 H   0  0  0  0  0  0  0  0  0  0  0  0
    2.0203   19.4930  -32.1233 H   0  0  0  0  0  0  0  0  0  0  0  0
    1.2493   21.0247  -31.5560 H   0  0  0  0  0  0  0  0  0  0  0  0
    0.2790   22.8910  -29.4050 H   0  0  0  0  0  0  0  0  0  0  0  0
   -5.9721   24.4288  -31.6346 H   0  0  0  0  0  0  0  0  0  0  0  0
  1  2  1  0
  2  3  1  0
  3  4  1  0
  4  5  1  0
  3  6  1  0
  6  7  2  0
  7  8  1  0
  8  9  2  0
  9 10  1  0
 10 11  1  0
 11 12  2  0
 11 13  1  0
 13 14  1  0
 14 15  2  0
 15 16  1  0
 16 17  2  0
 17 18  1  0
 18 19  1  0
 19 20  2  0
 19 21  2  0
 19 22  1  0
 22 23  1  0
 23 24  1  0
 24 25  1  0
 25 26  1  0
 25 27  1  0
 27 28  1  0
 18 29  2  0
 29 30  1  0
  9 31  1  0
 31 32  1  0
 31 33  2  0
 33  6  1  0
 29 14  1  0
 28 22  1  0
  1 34  1  0
  1 35  1  0
  1 36  1  0
  2 37  1  0
  2 38  1  0
  4 39  1  0
  4 40  1  0
  5 41  1  0
  5 42  1  0
  5 43  1  0
  7 44  1  0
  8 45  1  0
 15 46  1  0
 16 47  1  0
 17 48  1  0
 22 49  1  0
 23 50  1  0
 23 51  1  0
 24 52  1  0
 24 53  1  0
 26 54  1  0
 26 55  1  0
 26 56  1  0
 27 57  1  0
 27 58  1  0
 28 59  1  0
 28 60  1  0
 30 61  1  0
 33 62  1  0
M  CHG  3  10  -1  13  -1  32  -1
M  END
>  <UniqueID>  (46) 
45

>  <SMILES>  (46) 
CCN(CC)c1ccc([N-]C(=O)[N-]c2cccc(S(=O)(=O)C3CCN(C)CC3)c2O)c([O-])c1

>  <Energy>  (46) 
79.18385397319983

>  <Genealogy>  (46) 
CCN(CC)c1ccc([N-]C(=O)[N-]c2cccc(S(=O)(=O)C3CCN(C)CC3)c2O)c([O-])c1 (protonated)
CCN(CC)c1ccc([N-]C(=O)[N-]c2cccc(S(=O)(=O)C3CCN(C)CC3)c2O)c([O-])c1 (3D coordinates assigned)
CCN(CC)c1ccc([N-]C(=O)[N-]c2cccc(S(=O)(=O)C3CCN(C)CC3)c2O)c([O-])c1 (nonaromatic ring conformer: 79.18385397319983 kcal/mol)

>  <smiles>  (46) 
CCN(CC)c1ccc(NC(=O)Nc2cccc(S(=O)(=O)C3CCN(C)CC3)c2O)c(O)c1

>  <score_type>  (46) 
oracle

>  <origin>  (46) 
adgpu

>  <m_score__min__energy>  (46) 
-14.73

>  <m_primary>  (46) 
energy

$$$$
46:0
     RDKit          3D

 62 65  0  0  0  0  0  0  0  0999 V2000
   -4.9540   14.3620  -32.9670 C   0  0  0  0  0  0  0  0  0  0  0  0
   -5.4200   15.8750  -33.7890 S   0  0  0  0  0  0  0  0  0  0  0  0
   -6.8620   15.7820  -34.2020 O   0  0  0  0  0  0  0  0  0  0  0  0
   -4.5750   16.0410  -35.0210 O   0  0  0  0  0  0  0  0  0  0  0  0
   -5.2010   17.2660  -32.7520 N   0  0  0  0  0  0  0  0  0  0  0  0
   -4.9340   18.4700  -33.5650 C   0  0  0  0  0  0  0  0  0  0  0  0
   -5.0540   19.7450  -32.7270 C   0  0  0  0  0  0  0  0  0  0  0  0
   -6.3910   19.8320  -32.1190 N   0  0  0  0  0  0  0  0  0  0  0  0
   -6.9920   21.1150  -31.8600 C   0  0  0  0  0  0  0  0  0  0  0  0
   -8.2390   21.2540  -31.9950 O   0  0  0  0  0  0  0  0  0  0  0  0
   -6.1810   22.2870  -31.4620 C   0  0  0  0  0  0  0  0  0  0  0  0
   -6.5940   23.5790  -31.8180 C   0  0  0  0  0  0  0  0  0  0  0  0
   -5.8210   24.6860  -31.4660 C   0  0  0  0  0  0  0  0  0  0  0  0
   -4.6370   24.5240  -30.7410 C   0  0  0  0  0  0  0  0  0  0  0  0
   -3.8640   25.6450  -30.4690 O   0  0  0  0  0  0  0  0  0  0  0  0
   -4.2340   23.2360  -30.3280 C   0  0  0  0  0  0  0  0  0  0  0  0
   -3.0250   23.0120  -29.5850 N   0  0  0  0  0  0  0  0  0  0  0  0
   -1.5380   22.4770  -30.3050 S   0  0  0  0  0  0  0  0  0  0  0  0
   -1.7560   22.3380  -31.7840 O   0  0  0  0  0  0  0  0  0  0  0  0
   -0.4870   23.5220  -30.0660 O   0  0  0  0  0  0  0  0  0  0  0  0
   -1.0160   20.9510  -29.5640 C   0  0  0  0  0  0  0  0  0  0  0  0
   -0.5540   19.9380  -30.4230 C   0  0  0  0  0  0  0  0  0  0  0  0
   -0.1280   18.7080  -29.9180 C   0  0  0  0  0  0  0  0  0  0  0  0
    0.3240   17.7460  -30.7630 F   0  0  0  0  0  0  0  0  0  0  0  0
   -0.1650   18.4680  -28.5460 C   0  0  0  0  0  0  0  0  0  0  0  0
   -0.6320   19.4540  -27.6770 C   0  0  0  0  0  0  0  0  0  0  0  0
   -1.0710   20.6980  -28.1640 C   0  0  0  0  0  0  0  0  0  0  0  0
   -1.6390   21.8940  -26.9830 S   0  0  0  0  0  0  0  0  0  0  0  0
   -3.1100   22.1370  -27.1870 O   0  0  0  0  0  0  0  0  0  0  0  0
   -1.4390   21.3730  -25.5870 O   0  0  0  0  0  0  0  0  0  0  0  0
   -0.7370   23.3990  -27.1470 C   0  0  0  0  0  0  0  0  0  0  0  0
   -1.4160   24.6080  -27.3500 C   0  0  0  0  0  0  0  0  0  0  0  0
   -0.7010   25.8020  -27.4950 C   0  0  0  0  0  0  0  0  0  0  0  0
    0.6950   25.7930  -27.4310 C   0  0  0  0  0  0  0  0  0  0  0  0
    1.3780   24.5910  -27.2160 C   0  0  0  0  0  0  0  0  0  0  0  0
    0.6650   23.3980  -27.0720 C   0  0  0  0  0  0  0  0  0  0  0  0
   -5.0100   22.1270  -30.7020 C   0  0  0  0  0  0  0  0  0  0  0  0
   -7.2070   18.6170  -32.0280 C   0  0  0  0  0  0  0  0  0  0  0  0
   -6.3110   17.3970  -31.7750 C   0  0  0  0  0  0  0  0  0  0  0  0
   -4.9989   14.5077  -31.8776 H   0  0  0  0  0  0  0  0  0  0  0  0
   -5.6462   13.5583  -33.2582 H   0  0  0  0  0  0  0  0  0  0  0  0
   -3.9295   14.0870  -33.2582 H   0  0  0  0  0  0  0  0  0  0  0  0
   -3.9158   18.4061  -33.9762 H   0  0  0  0  0  0  0  0  0  0  0  0
   -5.6783   18.5148  -34.3737 H   0  0  0  0  0  0  0  0  0  0  0  0
   -4.2940   19.7296  -31.9319 H   0  0  0  0  0  0  0  0  0  0  0  0
   -4.8996   20.6176  -33.3787 H   0  0  0  0  0  0  0  0  0  0  0  0
   -7.5309   23.7203  -32.3768 H   0  0  0  0  0  0  0  0  0  0  0  0
   -6.1460   25.6945  -31.7615 H   0  0  0  0  0  0  0  0  0  0  0  0
   -2.9710   23.3620  -28.6030 H   0  0  0  0  0  0  0  0  0  0  0  0
   -0.5279   20.1172  -31.5080 H   0  0  0  0  0  0  0  0  0  0  0  0
    0.1743   17.5003  -28.1479 H   0  0  0  0  0  0  0  0  0  0  0  0
   -0.6573   19.2557  -26.5953 H   0  0  0  0  0  0  0  0  0  0  0  0
   -2.5150   24.6184  -27.3955 H   0  0  0  0  0  0  0  0  0  0  0  0
   -1.2378   26.7479  -27.6594 H   0  0  0  0  0  0  0  0  0  0  0  0
    1.2570   26.7311  -27.5497 H   0  0  0  0  0  0  0  0  0  0  0  0
    2.4766   24.5852  -27.1603 H   0  0  0  0  0  0  0  0  0  0  0  0
    1.2040   22.4548  -26.8993 H   0  0  0  0  0  0  0  0  0  0  0  0
   -4.6965   21.1181  -30.3955 H   0  0  0  0  0  0  0  0  0  0  0  0
   -7.9227   18.7208  -31.1992 H   0  0  0  0  0  0  0  0  0  0  0  0
   -7.7485   18.4755  -32.9750 H   0  0  0  0  0  0  0  0  0  0  0  0
   -5.8794   17.4848  -30.7670 H   0  0  0  0  0  0  0  0  0  0  0  0
   -6.9432   16.5031  -31.8811 H   0  0  0  0  0  0  0  0  0  0  0  0
  1  2  1  0
  2  3  2  0
  2  4  2  0
  2  5  1  0
  5  6  1  0
  6  7  1  0
  7  8  1  0
  8  9  1  0
  9 10  2  0
  9 11  1  0
 11 12  2  0
 12 13  1  0
 13 14  2  0
 14 15  1  0
 14 16  1  0
 16 17  1  0
 17 18  1  0
 18 19  2  0
 18 20  2  0
 18 21  1  0
 21 22  2  0
 22 23  1  0
 23 24  1  0
 23 25  2  0
 25 26  1  0
 26 27  2  0
 27 28  1  0
 28 29  2  0
 28 30  2  0
 28 31  1  0
 31 32  2  0
 32 33  1  0
 33 34  2  0
 34 35  1  0
 35 36  2  0
 16 37  2  0
  8 38  1  0
 38 39  1  0
 39  5  1  0
 37 11  1  0
 27 21  1  0
 36 31  1  0
  1 40  1  0
  1 41  1  0
  1 42  1  0
  6 43  1  0
  6 44  1  0
  7 45  1  0
  7 46  1  0
 12 47  1  0
 13 48  1  0
 17 49  1  0
 22 50  1  0
 25 51  1  0
 26 52  1  0
 32 53  1  0
 33 54  1  0
 34 55  1  0
 35 56  1  0
 36 57  1  0
 37 58  1  0
 38 59  1  0
 38 60  1  0
 39 61  1  0
 39 62  1  0
M  CHG  1  15  -1
M  END
>  <UniqueID>  (47) 
46

>  <SMILES>  (47) 
CS(=O)(=O)N1CCN(C(=O)c2ccc([O-])c(NS(=O)(=O)c3cc(F)ccc3S(=O)(=O)c3ccccc3)c2)CC1

>  <Energy>  (47) 
82.01751276844311

>  <Genealogy>  (47) 
CS(=O)(=O)N1CCN(C(=O)c2ccc([O-])c(NS(=O)(=O)c3cc(F)ccc3S(=O)(=O)c3ccccc3)c2)CC1 (protonated)
CS(=O)(=O)N1CCN(C(=O)c2ccc([O-])c(NS(=O)(=O)c3cc(F)ccc3S(=O)(=O)c3ccccc3)c2)CC1 (3D coordinates assigned)
CS(=O)(=O)N1CCN(C(=O)c2ccc([O-])c(NS(=O)(=O)c3cc(F)ccc3S(=O)(=O)c3ccccc3)c2)CC1 (nonaromatic ring conformer: 82.01751276844311 kcal/mol)

>  <smiles>  (47) 
CS(=O)(=O)N1CCN(C(=O)c2ccc(O)c(NS(=O)(=O)c3cc(F)ccc3S(=O)(=O)c3ccccc3)c2)CC1

>  <score_type>  (47) 
oracle

>  <origin>  (47) 
adgpu

>  <m_score__min__energy>  (47) 
-14.31

>  <m_primary>  (47) 
energy

$$$$
47:0
     RDKit          3D

 55 58  0  0  0  0  0  0  0  0999 V2000
   -8.0290   23.4450  -32.4800 C   0  0  0  0  0  0  0  0  0  0  0  0
   -7.2750   22.4190  -31.5890 C   0  0  1  0  0  0  0  0  0  0  0  0
   -8.2840   21.7960  -30.5750 C   0  0  0  0  0  0  0  0  0  0  0  0
   -9.4490   21.0500  -31.2550 C   0  0  0  0  0  0  0  0  0  0  0  0
   -8.9870   20.2350  -32.4320 C   0  0  0  0  0  0  0  0  0  0  0  0
   -9.7870   19.4310  -32.9810 O   0  0  0  0  0  0  0  0  0  0  0  0
   -7.6070   20.3390  -32.9330 C   0  0  0  0  0  0  0  0  0  0  0  0
   -6.7730   21.2980  -32.4920 C   0  0  0  0  0  0  0  0  0  0  0  0
   -5.2970   21.1010  -32.6360 C   0  0  0  0  0  0  0  0  0  0  0  0
   -4.7560   20.8670  -31.2330 C   0  0  0  0  0  0  0  0  0  0  0  0
   -4.9350   22.1090  -30.3120 C   0  0  2  0  0  0  0  0  0  0  0  0
   -6.0900   23.1070  -30.7660 C   0  0  1  0  0  0  0  0  0  0  0  0
   -5.5010   24.4120  -31.4010 C   0  0  0  0  0  0  0  0  0  0  0  0
   -4.4900   25.1620  -30.4890 C   0  0  0  0  0  0  0  0  0  0  0  0
   -3.6880   24.2330  -29.5340 C   0  0  2  0  0  0  0  0  0  0  0  0
   -4.3460   24.1970  -28.1160 C   0  0  0  0  0  0  0  0  0  0  0  0
   -2.1920   24.6060  -29.3860 C   0  0  1  0  0  0  0  0  0  0  0  0
   -1.9540   25.5820  -28.3680 O   0  0  0  0  0  0  0  0  0  0  0  0
   -0.8810   25.5290  -27.4720 C   0  0  0  0  0  0  0  0  0  0  0  0
    0.2600   25.1560  -27.8580 O   0  0  0  0  0  0  0  0  0  0  0  0
   -1.0890   25.8980  -26.0660 C   0  0  0  0  0  0  0  0  0  0  0  0
   -2.3560   26.3820  -25.6180 N   0  0  0  0  0  0  0  0  0  0  0  0
   -0.1390   25.7930  -25.2430 O   0  0  0  0  0  0  0  0  0  0  0  0
   -1.4910   23.2820  -29.0270 C   0  0  0  0  0  0  0  0  0  0  0  0
   -2.4520   22.1500  -29.4190 C   0  0  0  0  0  0  0  0  0  0  0  0
   -3.5750   22.8500  -30.1800 C   0  0  1  0  0  0  0  0  0  0  0  0
   -8.5590   24.1662  -31.8405 H   0  0  0  0  0  0  0  0  0  0  0  0
   -7.3071   23.9794  -33.1151 H   0  0  0  0  0  0  0  0  0  0  0  0
   -8.7546   22.9156  -33.1151 H   0  0  0  0  0  0  0  0  0  0  0  0
   -8.7008   22.6041  -29.9559 H   0  0  0  0  0  0  0  0  0  0  0  0
   -7.7302   21.0584  -29.9756 H   0  0  0  0  0  0  0  0  0  0  0  0
  -10.1882   21.7871  -31.6019 H   0  0  0  0  0  0  0  0  0  0  0  0
   -9.8881   20.3622  -30.5174 H   0  0  0  0  0  0  0  0  0  0  0  0
   -7.2503   19.6179  -33.6832 H   0  0  0  0  0  0  0  0  0  0  0  0
   -4.8350   21.9963  -33.0775 H   0  0  0  0  0  0  0  0  0  0  0  0
   -5.0706   20.2518  -33.2975 H   0  0  0  0  0  0  0  0  0  0  0  0
   -3.6839   20.6308  -31.3028 H   0  0  0  0  0  0  0  0  0  0  0  0
   -5.3242   20.0363  -30.7892 H   0  0  0  0  0  0  0  0  0  0  0  0
   -5.2625   21.7310  -29.3323 H   0  0  0  0  0  0  0  0  0  0  0  0
   -6.6085   23.4295  -29.8510 H   0  0  0  0  0  0  0  0  0  0  0  0
   -6.3348   25.0934  -31.6257 H   0  0  0  0  0  0  0  0  0  0  0  0
   -4.9484   24.1049  -32.3012 H   0  0  0  0  0  0  0  0  0  0  0  0
   -5.0476   25.8872  -29.8781 H   0  0  0  0  0  0  0  0  0  0  0  0
   -3.7575   25.6422  -31.1544 H   0  0  0  0  0  0  0  0  0  0  0  0
   -3.5612   24.2399  -27.3464 H   0  0  0  0  0  0  0  0  0  0  0  0
   -5.0189   25.0597  -28.0020 H   0  0  0  0  0  0  0  0  0  0  0  0
   -4.9208   23.2661  -28.0020 H   0  0  0  0  0  0  0  0  0  0  0  0
   -1.8159   25.0623  -30.3135 H   0  0  0  0  0  0  0  0  0  0  0  0
   -2.4950   26.6420  -24.6160 H   0  0  0  0  0  0  0  0  0  0  0  0
   -3.1580   26.4870  -26.2780 H   0  0  0  0  0  0  0  0  0  0  0  0
   -1.2823   23.2447  -27.9476 H   0  0  0  0  0  0  0  0  0  0  0  0
   -0.5321   23.1869  -29.5575 H   0  0  0  0  0  0  0  0  0  0  0  0
   -2.8444   21.6453  -28.5238 H   0  0  0  0  0  0  0  0  0  0  0  0
   -1.9595   21.3723  -30.0212 H   0  0  0  0  0  0  0  0  0  0  0  0
   -3.3034   22.8904  -31.2452 H   0  0  0  0  0  0  0  0  0  0  0  0
  2  1  1  6
  2  3  1  0
  3  4  1  0
  4  5  1  0
  5  6  2  0
  5  7  1  0
  7  8  2  0
  8  9  1  0
  9 10  1  0
 10 11  1  0
 11 12  1  0
 12 13  1  0
 13 14  1  0
 14 15  1  0
 15 16  1  1
 15 17  1  0
 17 18  1  0
 18 19  1  0
 19 20  2  0
 19 21  1  0
 21 22  1  0
 21 23  2  0
 17 24  1  0
 24 25  1  0
 25 26  1  0
  8  2  1  0
 26 11  1  0
 12  2  1  0
 26 15  1  0
  1 27  1  0
  1 28  1  0
  1 29  1  0
  3 30  1  0
  3 31  1  0
  4 32  1  0
  4 33  1  0
  7 34  1  0
  9 35  1  0
  9 36  1  0
 10 37  1  0
 10 38  1  0
 11 39  1  1
 12 40  1  1
 13 41  1  0
 13 42  1  0
 14 43  1  0
 14 44  1  0
 16 45  1  0
 16 46  1  0
 16 47  1  0
 17 48  1  6
 22 49  1  0
 22 50  1  0
 24 51  1  0
 24 52  1  0
 25 53  1  0
 25 54  1  0
 26 55  1  6
M  END
>  <UniqueID>  (48) 
47

>  <SMILES>  (48) 
CC12CCC3[C@@H](CCC4=CC(=O)CC[C@]43C)C1CCC2OC(=O)C(N)=O

>  <Energy>  (48) 
85.764588661021

>  <Genealogy>  (48) 
CC12CCC3[C@@H](CCC4=CC(=O)CC[C@]43C)C1CCC2OC(=O)C(N)=O (chirality)
CC12CCC3[C@@H](CCC4=CC(=O)CC[C@]43C)C1CCC2OC(=O)C(N)=O (3D coordinates assigned)
CC12CCC3[C@@H](CCC4=CC(=O)CC[C@]43C)C1CCC2OC(=O)C(N)=O (nonaromatic ring conformer: 85.764588661021 kcal/mol)

>  <smiles>  (48) 
CC12CCC(=O)C=C1CCC1C2CCC2(C)C(OC(=O)C(N)=O)CCC12

>  <score_type>  (48) 
oracle

>  <origin>  (48) 
adgpu

>  <m_score__min__energy>  (48) 
-10.06

>  <m_primary>  (48) 
energy

$$$$
48:0
     RDKit          3D

 61 64  0  0  0  0  0  0  0  0999 V2000
   -4.0600   16.4520  -34.9460 C   0  0  0  0  0  0  0  0  0  0  0  0
   -4.6930   17.4560  -34.0730 N   0  0  0  0  0  0  0  0  0  0  0  0
   -5.7190   18.2130  -34.8130 C   0  0  0  0  0  0  0  0  0  0  0  0
   -6.5000   19.0820  -33.8260 C   0  0  0  0  0  0  0  0  0  0  0  0
   -5.5840   19.8450  -32.9670 N   0  0  0  0  0  0  0  0  0  0  0  0
   -6.1320   20.6560  -31.9080 C   0  0  0  0  0  0  0  0  0  0  0  0
   -7.1560   20.2540  -31.2930 O   0  0  0  0  0  0  0  0  0  0  0  0
   -5.5300   21.9560  -31.5270 C   0  0  0  0  0  0  0  0  0  0  0  0
   -6.2830   23.1370  -31.6200 C   0  0  0  0  0  0  0  0  0  0  0  0
   -5.7160   24.3640  -31.2690 C   0  0  0  0  0  0  0  0  0  0  0  0
   -4.3950   24.4280  -30.8160 C   0  0  0  0  0  0  0  0  0  0  0  0
   -3.8610   25.6600  -30.4540 O   0  0  0  0  0  0  0  0  0  0  0  0
   -3.6240   23.2560  -30.7190 C   0  0  0  0  0  0  0  0  0  0  0  0
   -2.2740   23.3230  -30.2270 N   0  0  0  0  0  0  0  0  0  0  0  0
   -1.7900   22.6860  -28.6830 S   0  0  0  0  0  0  0  0  0  0  0  0
   -2.9570   21.9910  -28.0390 O   0  0  0  0  0  0  0  0  0  0  0  0
   -0.6900   21.6850  -28.8990 O   0  0  0  0  0  0  0  0  0  0  0  0
   -1.1750   23.9580  -27.6250 C   0  0  0  0  0  0  0  0  0  0  0  0
   -1.6650   25.2660  -27.7490 C   0  0  0  0  0  0  0  0  0  0  0  0
   -1.2990   26.2520  -26.8260 C   0  0  0  0  0  0  0  0  0  0  0  0
   -0.4310   25.9430  -25.7680 C   0  0  0  0  0  0  0  0  0  0  0  0
   -0.1390   27.1170  -24.4730 S   0  0  0  0  0  0  0  0  0  0  0  0
   -1.3510   27.1530  -23.5840 O   0  0  0  0  0  0  0  0  0  0  0  0
    1.0240   26.6480  -23.6430 O   0  0  0  0  0  0  0  0  0  0  0  0
    0.2160   28.7360  -25.0330 N   0  0  0  0  0  0  0  0  0  0  0  0
   -0.9730   29.5930  -25.1100 C   0  0  0  0  0  0  0  0  0  0  0  0
   -0.8410   30.4470  -26.3710 C   0  0  0  0  0  0  0  0  0  0  0  0
    0.5320   30.1240  -26.9260 C   0  0  0  0  0  0  0  0  0  0  0  0
    0.8400   28.7570  -26.3530 C   0  0  0  0  0  0  0  0  0  0  0  0
    0.0950   24.6430  -25.6700 C   0  0  0  0  0  0  0  0  0  0  0  0
   -0.2850   23.6540  -26.5830 C   0  0  0  0  0  0  0  0  0  0  0  0
   -4.1930   22.0310  -31.1040 C   0  0  0  0  0  0  0  0  0  0  0  0
   -4.1350   19.7810  -33.2130 C   0  0  0  0  0  0  0  0  0  0  0  0
   -3.6700   18.3310  -33.4430 C   0  0  0  0  0  0  0  0  0  0  0  0
   -3.5747   15.6823  -34.3278 H   0  0  0  0  0  0  0  0  0  0  0  0
   -4.8261   15.9830  -35.5810 H   0  0  0  0  0  0  0  0  0  0  0  0
   -3.3066   16.9410  -35.5810 H   0  0  0  0  0  0  0  0  0  0  0  0
   -5.2350   18.8527  -35.5657 H   0  0  0  0  0  0  0  0  0  0  0  0
   -6.4034   17.5167  -35.3197 H   0  0  0  0  0  0  0  0  0  0  0  0
   -7.1364   19.7823  -34.3868 H   0  0  0  0  0  0  0  0  0  0  0  0
   -7.1174   18.4288  -33.1918 H   0  0  0  0  0  0  0  0  0  0  0  0
   -7.3247   23.0958  -31.9710 H   0  0  0  0  0  0  0  0  0  0  0  0
   -6.3120   25.2850  -31.3494 H   0  0  0  0  0  0  0  0  0  0  0  0
   -1.5770   23.9170  -30.7270 H   0  0  0  0  0  0  0  0  0  0  0  0
   -2.3422   25.5189  -28.5781 H   0  0  0  0  0  0  0  0  0  0  0  0
   -1.6935   27.2735  -26.9304 H   0  0  0  0  0  0  0  0  0  0  0  0
   -1.8798   28.9732  -25.1690 H   0  0  0  0  0  0  0  0  0  0  0  0
   -1.0509   30.2298  -24.2164 H   0  0  0  0  0  0  0  0  0  0  0  0
   -1.6230   30.1844  -27.0986 H   0  0  0  0  0  0  0  0  0  0  0  0
   -0.9562   31.5196  -26.1558 H   0  0  0  0  0  0  0  0  0  0  0  0
    0.5130   30.0930  -28.0254 H   0  0  0  0  0  0  0  0  0  0  0  0
    1.2873   30.8777  -26.6586 H   0  0  0  0  0  0  0  0  0  0  0  0
    0.4152   27.9683  -26.9913 H   0  0  0  0  0  0  0  0  0  0  0  0
    1.9231   28.5743  -26.2946 H   0  0  0  0  0  0  0  0  0  0  0  0
    0.8103   24.4020  -24.8698 H   0  0  0  0  0  0  0  0  0  0  0  0
    0.1151   22.6341  -26.4841 H   0  0  0  0  0  0  0  0  0  0  0  0
   -3.5822   21.1166  -31.0737 H   0  0  0  0  0  0  0  0  0  0  0  0
   -3.8961   20.3796  -34.1044 H   0  0  0  0  0  0  0  0  0  0  0  0
   -3.6148   20.1762  -32.3280 H   0  0  0  0  0  0  0  0  0  0  0  0
   -2.7848   18.3520  -34.0956 H   0  0  0  0  0  0  0  0  0  0  0  0
   -3.4579   17.9058  -32.4509 H   0  0  0  0  0  0  0  0  0  0  0  0
  1  2  1  0
  2  3  1  0
  3  4  1  0
  4  5  1  0
  5  6  1  0
  6  7  2  0
  6  8  1  0
  8  9  2  0
  9 10  1  0
 10 11  2  0
 11 12  1  0
 11 13  1  0
 13 14  1  0
 14 15  1  0
 15 16  2  0
 15 17  2  0
 15 18  1  0
 18 19  2  0
 19 20  1  0
 20 21  2  0
 21 22  1  0
 22 23  2  0
 22 24  2  0
 22 25  1  0
 25 26  1  0
 26 27  1  0
 27 28  1  0
 28 29  1  0
 21 30  1  0
 30 31  2  0
 13 32  2  0
  5 33  1  0
 33 34  1  0
 34  2  1  0
 32  8  1  0
 31 18  1  0
 29 25  1  0
  1 35  1  0
  1 36  1  0
  1 37  1  0
  3 38  1  0
  3 39  1  0
  4 40  1  0
  4 41  1  0
  9 42  1  0
 10 43  1  0
 14 44  1  0
 19 45  1  0
 20 46  1  0
 26 47  1  0
 26 48  1  0
 27 49  1  0
 27 50  1  0
 28 51  1  0
 28 52  1  0
 29 53  1  0
 29 54  1  0
 30 55  1  0
 31 56  1  0
 32 57  1  0
 33 58  1  0
 33 59  1  0
 34 60  1  0
 34 61  1  0
M  CHG  1  12  -1
M  END
>  <UniqueID>  (49) 
48

>  <SMILES>  (49) 
CN1CCN(C(=O)c2ccc([O-])c(NS(=O)(=O)c3ccc(S(=O)(=O)N4CCCC4)cc3)c2)CC1

>  <Energy>  (49) 
75.05375045170828

>  <Genealogy>  (49) 
CN1CCN(C(=O)c2ccc([O-])c(NS(=O)(=O)c3ccc(S(=O)(=O)N4CCCC4)cc3)c2)CC1 (protonated)
CN1CCN(C(=O)c2ccc([O-])c(NS(=O)(=O)c3ccc(S(=O)(=O)N4CCCC4)cc3)c2)CC1 (3D coordinates assigned)
CN1CCN(C(=O)c2ccc([O-])c(NS(=O)(=O)c3ccc(S(=O)(=O)N4CCCC4)cc3)c2)CC1 (nonaromatic ring conformer: 75.05375045170828 kcal/mol)

>  <smiles>  (49) 
CN1CCN(C(=O)c2ccc(O)c(NS(=O)(=O)c3ccc(S(=O)(=O)N4CCCC4)cc3)c2)CC1

>  <score_type>  (49) 
oracle

>  <origin>  (49) 
adgpu

>  <m_score__min__energy>  (49) 
-14.82

>  <m_primary>  (49) 
energy

$$$$
