0:0
     RDKit          3D

 66 70  0  0  0  0  0  0  0  0999 V2000
    0.4040   22.1430  -35.4400 O   0  0  0  0  0  0  0  0  0  0  0  0
    0.2270   21.1150  -34.7350 C   0  0  0  0  0  0  0  0  0  0  0  0
    0.6710   19.8400  -35.2050 N   0  0  0  0  0  0  0  0  0  0  0  0
    0.1570   18.5820  -34.7440 C   0  0  0  0  0  0  0  0  0  0  0  0
    0.9910   17.6330  -34.1230 C   0  0  0  0  0  0  0  0  0  0  0  0
    0.4860   16.3820  -33.7620 C   0  0  0  0  0  0  0  0  0  0  0  0
   -0.8440   16.0580  -34.0340 C   0  0  0  0  0  0  0  0  0  0  0  0
   -1.6830   16.9890  -34.6680 C   0  0  0  0  0  0  0  0  0  0  0  0
   -3.3520   16.5610  -35.0470 S   0  0  0  0  0  0  0  0  0  0  0  0
   -3.3620   15.6530  -36.2480 O   0  0  0  0  0  0  0  0  0  0  0  0
   -4.1150   17.8070  -35.4080 O   0  0  0  0  0  0  0  0  0  0  0  0
   -4.1650   15.7880  -33.7000 N   0  0  0  0  0  0  0  0  0  0  0  0
   -4.6270   16.7700  -32.7130 C   0  0  0  0  0  0  0  0  0  0  0  0
   -6.1240   16.9850  -32.8980 C   0  0  0  0  0  0  0  0  0  0  0  0
   -6.5660   15.9680  -33.9300 C   0  0  0  0  0  0  0  0  0  0  0  0
   -5.3610   15.0650  -34.1470 C   0  0  0  0  0  0  0  0  0  0  0  0
   -1.1790   18.2540  -35.0130 C   0  0  0  0  0  0  0  0  0  0  0  0
   -0.5040   21.2120  -33.4610 C   0  0  0  0  0  0  0  0  0  0  0  0
    0.1760   21.3270  -32.2450 C   0  0  0  0  0  0  0  0  0  0  0  0
   -0.5340   21.3450  -31.0430 C   0  0  0  0  0  0  0  0  0  0  0  0
   -1.9320   21.1730  -31.0250 C   0  0  0  0  0  0  0  0  0  0  0  0
   -2.7680   21.2680  -29.4650 S   0  0  0  0  0  0  0  0  0  0  0  0
   -4.2500   21.1090  -29.6560 O   0  0  0  0  0  0  0  0  0  0  0  0
   -2.2630   20.1780  -28.5620 O   0  0  0  0  0  0  0  0  0  0  0  0
   -2.4970   22.8360  -28.7030 C   0  0  0  0  0  0  0  0  0  0  0  0
   -1.4020   23.6200  -29.0900 C   0  0  0  0  0  0  0  0  0  0  0  0
   -1.1580   24.8450  -28.4630 C   0  0  0  0  0  0  0  0  0  0  0  0
   -2.0030   25.2870  -27.4350 C   0  0  0  0  0  0  0  0  0  0  0  0
   -3.0930   24.5070  -27.0440 C   0  0  0  0  0  0  0  0  0  0  0  0
   -3.3380   23.2830  -27.6730 C   0  0  0  0  0  0  0  0  0  0  0  0
   -2.6140   20.9720  -32.2540 C   0  0  0  0  0  0  0  0  0  0  0  0
   -4.3170   20.4670  -32.3710 S   0  0  0  0  0  0  0  0  0  0  0  0
   -4.5390   19.3020  -31.4470 O   0  0  0  0  0  0  0  0  0  0  0  0
   -4.6920   20.0760  -33.7730 O   0  0  0  0  0  0  0  0  0  0  0  0
   -5.3640   21.8160  -31.9180 C   0  0  0  0  0  0  0  0  0  0  0  0
   -6.7570   21.6970  -32.0630 C   0  0  0  0  0  0  0  0  0  0  0  0
   -7.5940   22.7750  -31.7600 C   0  0  0  0  0  0  0  0  0  0  0  0
   -9.3320   22.6310  -31.9810 Cl  0  0  0  0  0  0  0  0  0  0  0  0
   -7.0470   23.9670  -31.2800 C   0  0  0  0  0  0  0  0  0  0  0  0
   -5.6610   24.0850  -31.1090 C   0  0  0  0  0  0  0  0  0  0  0  0
   -4.9870   25.5800  -30.4920 Cl  0  0  0  0  0  0  0  0  0  0  0  0
   -4.8200   23.0140  -31.4320 C   0  0  0  0  0  0  0  0  0  0  0  0
   -1.8960   21.0800  -33.4570 C   0  0  0  0  0  0  0  0  0  0  0  0
    2.0443   17.8777  -33.9214 H   0  0  0  0  0  0  0  0  0  0  0  0
    1.1379   15.6504  -33.2622 H   0  0  0  0  0  0  0  0  0  0  0  0
   -1.2365   15.0702  -33.7509 H   0  0  0  0  0  0  0  0  0  0  0  0
   -4.4300   16.3947  -31.6979 H   0  0  0  0  0  0  0  0  0  0  0  0
   -4.0926   17.7211  -32.8536 H   0  0  0  0  0  0  0  0  0  0  0  0
   -6.6542   16.8213  -31.9482 H   0  0  0  0  0  0  0  0  0  0  0  0
   -6.3471   18.0121  -33.2224 H   0  0  0  0  0  0  0  0  0  0  0  0
   -7.4210   15.3859  -33.5555 H   0  0  0  0  0  0  0  0  0  0  0  0
   -6.8920   16.4478  -34.8646 H   0  0  0  0  0  0  0  0  0  0  0  0
   -5.4779   14.1401  -33.5631 H   0  0  0  0  0  0  0  0  0  0  0  0
   -5.2706   14.7981  -35.2103 H   0  0  0  0  0  0  0  0  0  0  0  0
   -1.8364   18.9913  -35.4970 H   0  0  0  0  0  0  0  0  0  0  0  0
    1.2733   21.4035  -32.2352 H   0  0  0  0  0  0  0  0  0  0  0  0
    0.0060   21.4956  -30.0966 H   0  0  0  0  0  0  0  0  0  0  0  0
   -0.7325   23.2703  -29.8896 H   0  0  0  0  0  0  0  0  0  0  0  0
   -0.3031   25.4624  -28.7759 H   0  0  0  0  0  0  0  0  0  0  0  0
   -1.8072   26.2480  -26.9368 H   0  0  0  0  0  0  0  0  0  0  0  0
   -3.7590   24.8557  -26.2409 H   0  0  0  0  0  0  0  0  0  0  0  0
   -4.1940   22.6676  -27.3590 H   0  0  0  0  0  0  0  0  0  0  0  0
   -7.1911   20.7503  -32.4169 H   0  0  0  0  0  0  0  0  0  0  0  0
   -7.7048   24.8142  -31.0359 H   0  0  0  0  0  0  0  0  0  0  0  0
   -3.7318   23.1118  -31.3047 H   0  0  0  0  0  0  0  0  0  0  0  0
   -2.4391   21.0603  -34.4134 H   0  0  0  0  0  0  0  0  0  0  0  0
  1  2  2  0
  2  3  1  0
  3  4  1  0
  4  5  2  0
  5  6  1  0
  6  7  2  0
  7  8  1  0
  8  9  1  0
  9 10  2  0
  9 11  2  0
  9 12  1  0
 12 13  1  0
 13 14  1  0
 14 15  1  0
 15 16  1  0
  8 17  2  0
  2 18  1  0
 18 19  2  0
 19 20  1  0
 20 21  2  0
 21 22  1  0
 22 23  2  0
 22 24  2  0
 22 25  1  0
 25 26  2  0
 26 27  1  0
 27 28  2  0
 28 29  1  0
 29 30  2  0
 21 31  1  0
 31 32  1  0
 32 33  2  0
 32 34  2  0
 32 35  1  0
 35 36  2  0
 36 37  1  0
 37 38  1  0
 37 39  2  0
 39 40  1  0
 40 41  1  0
 40 42  2  0
 31 43  2  0
 17  4  1  0
 43 18  1  0
 16 12  1  0
 30 25  1  0
 42 35  1  0
  5 44  1  0
  6 45  1  0
  7 46  1  0
 13 47  1  0
 13 48  1  0
 14 49  1  0
 14 50  1  0
 15 51  1  0
 15 52  1  0
 16 53  1  0
 16 54  1  0
 17 55  1  0
 19 56  1  0
 20 57  1  0
 26 58  1  0
 27 59  1  0
 28 60  1  0
 29 61  1  0
 30 62  1  0
 36 63  1  0
 39 64  1  0
 42 65  1  0
 43 66  1  0
M  CHG  1   3  -1
M  END
>  <UniqueID>  (1) 
1

>  <SMILES>  (1) 
O=C([N-]c1cccc(S(=O)(=O)N2CCCC2)c1)c1ccc(S(=O)(=O)c2ccccc2)c(S(=O)(=O)c2cc(Cl)cc(Cl)c2)c1

>  <Energy>  (1) 
89.69850282904004

>  <Genealogy>  (1) 
O=C([N-]c1cccc(S(=O)(=O)N2CCCC2)c1)c1ccc(S(=O)(=O)c2ccccc2)c(S(=O)(=O)c2cc(Cl)cc(Cl)c2)c1 (protonated)
O=C([N-]c1cccc(S(=O)(=O)N2CCCC2)c1)c1ccc(S(=O)(=O)c2ccccc2)c(S(=O)(=O)c2cc(Cl)cc(Cl)c2)c1 (3D coordinates assigned)
O=C([N-]c1cccc(S(=O)(=O)N2CCCC2)c1)c1ccc(S(=O)(=O)c2ccccc2)c(S(=O)(=O)c2cc(Cl)cc(Cl)c2)c1 (nonaromatic ring conformer: 89.69850282904004 kcal/mol)

>  <smiles>  (1) 
O=C(Nc1cccc(S(=O)(=O)N2CCCC2)c1)c1ccc(S(=O)(=O)c2ccccc2)c(S(=O)(=O)c2cc(Cl)cc(Cl)c2)c1

>  <score_type>  (1) 
oracle

>  <origin>  (1) 
adgpu

>  <m_score__min__energy>  (1) 
-13.27

>  <m_primary>  (1) 
energy

$$$$
1:0
     RDKit          3D

 57 59  0  0  0  0  0  0  0  0999 V2000
   -1.7930   20.0240  -27.7450 C   0  0  0  0  0  0  0  0  0  0  0  0
   -2.3050   21.3160  -28.3000 C   0  0  0  0  0  0  0  0  0  0  0  0
   -2.9500   22.2380  -27.4720 C   0  0  0  0  0  0  0  0  0  0  0  0
   -3.4550   23.4300  -28.0100 C   0  0  0  0  0  0  0  0  0  0  0  0
   -4.1500   24.4060  -27.0950 C   0  0  0  0  0  0  0  0  0  0  0  0
   -3.3210   23.6750  -29.4010 C   0  0  0  0  0  0  0  0  0  0  0  0
   -3.8840   24.9330  -30.0360 C   0  0  0  0  0  0  0  0  0  0  0  0
   -4.6890   24.6020  -31.2070 N   0  0  0  0  0  0  0  0  0  0  0  0
   -6.0530   24.1740  -31.1450 C   0  0  0  0  0  0  0  0  0  0  0  0
   -6.9180   24.9020  -30.5890 O   0  0  0  0  0  0  0  0  0  0  0  0
   -6.4600   22.8890  -31.7390 C   0  0  0  0  0  0  0  0  0  0  0  0
   -5.6290   21.8220  -32.0160 C   0  0  0  0  0  0  0  0  0  0  0  0
   -6.3840   20.8270  -32.5150 N   0  0  0  0  0  0  0  0  0  0  0  0
   -5.8140   19.2490  -32.9290 S   0  0  0  0  0  0  0  0  0  0  0  0
   -6.4640   18.7940  -34.2060 O   0  0  0  0  0  0  0  0  0  0  0  0
   -6.1780   18.2800  -31.8390 O   0  0  0  0  0  0  0  0  0  0  0  0
   -4.0670   19.3060  -33.1210 C   0  0  0  0  0  0  0  0  0  0  0  0
   -3.4420   18.5190  -34.0980 C   0  0  0  0  0  0  0  0  0  0  0  0
   -2.0590   18.6000  -34.2880 C   0  0  0  0  0  0  0  0  0  0  0  0
   -1.2900   19.4720  -33.5050 C   0  0  0  0  0  0  0  0  0  0  0  0
    0.4520   19.5990  -33.7650 S   0  0  0  0  0  0  0  0  0  0  0  0
    0.9990   18.2440  -34.1170 O   0  0  0  0  0  0  0  0  0  0  0  0
    1.1090   20.0480  -32.4890 O   0  0  0  0  0  0  0  0  0  0  0  0
    0.8290   20.7310  -35.0420 N   0  0  0  0  0  0  0  0  0  0  0  0
   -0.0580   21.8980  -34.9520 C   0  0  0  0  0  0  0  0  0  0  0  0
    0.6770   20.0780  -36.3470 C   0  0  0  0  0  0  0  0  0  0  0  0
   -1.9160   20.2600  -32.5290 C   0  0  0  0  0  0  0  0  0  0  0  0
   -3.2990   20.1800  -32.3400 C   0  0  0  0  0  0  0  0  0  0  0  0
   -7.6540   21.1900  -32.5690 N   0  0  0  0  0  0  0  0  0  0  0  0
   -7.7290   22.4550  -32.1080 C   0  0  0  0  0  0  0  0  0  0  0  0
   -9.0120   23.2110  -31.9920 C   0  0  0  0  0  0  0  0  0  0  0  0
   -2.6740   22.7030  -30.1950 C   0  0  0  0  0  0  0  0  0  0  0  0
   -2.5350   22.8700  -31.4360 O   0  0  0  0  0  0  0  0  0  0  0  0
   -2.1950   21.5650  -29.6290 N   0  0  0  0  0  0  0  0  0  0  0  0
   -1.8093   20.0650  -26.6459 H   0  0  0  0  0  0  0  0  0  0  0  0
   -2.4317   19.1978  -28.0906 H   0  0  0  0  0  0  0  0  0  0  0  0
   -0.7617   19.8595  -28.0906 H   0  0  0  0  0  0  0  0  0  0  0  0
   -3.0616   22.0287  -26.3979 H   0  0  0  0  0  0  0  0  0  0  0  0
   -3.9539   24.1306  -26.0482 H   0  0  0  0  0  0  0  0  0  0  0  0
   -3.7700   25.4207  -27.2846 H   0  0  0  0  0  0  0  0  0  0  0  0
   -5.2332   24.3788  -27.2846 H   0  0  0  0  0  0  0  0  0  0  0  0
   -4.5128   25.4581  -29.3019 H   0  0  0  0  0  0  0  0  0  0  0  0
   -3.0484   25.5755  -30.3506 H   0  0  0  0  0  0  0  0  0  0  0  0
   -4.5410   21.7910  -31.8567 H   0  0  0  0  0  0  0  0  0  0  0  0
   -4.0414   17.8354  -34.7173 H   0  0  0  0  0  0  0  0  0  0  0  0
   -1.5732   17.9777  -35.0540 H   0  0  0  0  0  0  0  0  0  0  0  0
   -0.2410   22.1388  -33.8944 H   0  0  0  0  0  0  0  0  0  0  0  0
    0.4164   22.7582  -35.4471 H   0  0  0  0  0  0  0  0  0  0  0  0
   -1.0137   21.6712  -35.4471 H   0  0  0  0  0  0  0  0  0  0  0  0
    0.4299   19.0164  -36.1992 H   0  0  0  0  0  0  0  0  0  0  0  0
   -0.1312   20.5676  -36.9101 H   0  0  0  0  0  0  0  0  0  0  0  0
    1.6183   20.1604  -36.9101 H   0  0  0  0  0  0  0  0  0  0  0  0
   -1.3169   20.9437  -31.9096 H   0  0  0  0  0  0  0  0  0  0  0  0
   -3.7854   20.8047  -31.5763 H   0  0  0  0  0  0  0  0  0  0  0  0
   -9.2576   23.3557  -30.9296 H   0  0  0  0  0  0  0  0  0  0  0  0
   -8.9057   24.1908  -32.4805 H   0  0  0  0  0  0  0  0  0  0  0  0
   -9.8176   22.6432  -32.4805 H   0  0  0  0  0  0  0  0  0  0  0  0
  1  2  1  0
  2  3  2  0
  3  4  1  0
  4  5  1  0
  4  6  2  0
  6  7  1  0
  7  8  1  0
  8  9  1  0
  9 10  2  0
  9 11  1  0
 11 12  2  0
 12 13  1  0
 13 14  1  0
 14 15  2  0
 14 16  2  0
 14 17  1  0
 17 18  2  0
 18 19  1  0
 19 20  2  0
 20 21  1  0
 21 22  2  0
 21 23  2  0
 21 24  1  0
 24 25  1  0
 24 26  1  0
 20 27  1  0
 27 28  2  0
 13 29  1  0
 29 30  2  0
 30 31  1  0
  6 32  1  0
 32 33  2  0
 32 34  1  0
 34  2  1  0
 30 11  1  0
 28 17  1  0
  1 35  1  0
  1 36  1  0
  1 37  1  0
  3 38  1  0
  5 39  1  0
  5 40  1  0
  5 41  1  0
  7 42  1  0
  7 43  1  0
 12 44  1  0
 18 45  1  0
 19 46  1  0
 25 47  1  0
 25 48  1  0
 25 49  1  0
 26 50  1  0
 26 51  1  0
 26 52  1  0
 27 53  1  0
 28 54  1  0
 31 55  1  0
 31 56  1  0
 31 57  1  0
M  CHG  2   8  -1  34  -1
M  END
>  <UniqueID>  (2) 
2

>  <SMILES>  (2) 
Cc1cc(C)c(C[N-]C(=O)c2cn(S(=O)(=O)c3ccc(S(=O)(=O)N(C)C)cc3)nc2C)c(=O)[n-]1

>  <Energy>  (2) 
86.10669441187997

>  <Genealogy>  (2) 
Cc1cc(C)c(C[N-]C(=O)c2cn(S(=O)(=O)c3ccc(S(=O)(=O)N(C)C)cc3)nc2C)c(=O)[n-]1 (protonated)
Cc1cc(C)c(C[N-]C(=O)c2cn(S(=O)(=O)c3ccc(S(=O)(=O)N(C)C)cc3)nc2C)c(=O)[n-]1 (3D coordinates assigned)
Cc1cc(C)c(C[N-]C(=O)c2cn(S(=O)(=O)c3ccc(S(=O)(=O)N(C)C)cc3)nc2C)c(=O)[n-]1 (optimized conformer: 86.10669441187997 kcal/mol)

>  <smiles>  (2) 
Cc1cc(C)c(CNC(=O)c2cn(S(=O)(=O)c3ccc(S(=O)(=O)N(C)C)cc3)nc2C)c(=O)[nH]1

>  <score_type>  (2) 
oracle

>  <origin>  (2) 
adgpu

>  <m_score__min__energy>  (2) 
-12.52

>  <m_primary>  (2) 
energy

$$$$
2:0
     RDKit          3D

 42 44  0  0  0  0  0  0  0  0999 V2000
   -8.5960   19.6860  -31.5970 C   0  0  0  0  0  0  0  0  0  0  0  0
   -8.3630   18.2880  -32.1690 C   0  0  0  0  0  0  0  0  0  0  0  0
   -6.8850   18.0110  -32.4750 C   0  0  0  0  0  0  0  0  0  0  0  0
   -6.1580   19.2370  -33.5580 S   0  0  0  0  0  0  0  0  0  0  0  0
   -5.3490   18.5640  -34.6310 O   0  0  0  0  0  0  0  0  0  0  0  0
   -7.2340   20.0620  -34.2080 O   0  0  0  0  0  0  0  0  0  0  0  0
   -5.1100   20.2830  -32.6070 C   0  0  0  0  0  0  0  0  0  0  0  0
   -3.8080   19.8560  -32.2630 C   0  0  0  0  0  0  0  0  0  0  0  0
   -2.9670   20.6760  -31.4910 C   0  0  0  0  0  0  0  0  0  0  0  0
   -3.4440   21.9140  -31.0650 C   0  0  0  0  0  0  0  0  0  0  0  0
   -2.7330   22.7930  -30.3140 N   0  0  0  0  0  0  0  0  0  0  0  0
   -3.4680   23.9050  -30.0570 C   0  0  0  0  0  0  0  0  0  0  0  0
   -3.0430   24.9160  -29.3600 N   0  0  0  0  0  0  0  0  0  0  0  0
   -1.7480   25.0410  -28.7470 C   0  0  0  0  0  0  0  0  0  0  0  0
   -0.9760   25.9890  -29.0580 O   0  0  0  0  0  0  0  0  0  0  0  0
   -1.3160   24.0520  -27.7440 C   0  0  0  0  0  0  0  0  0  0  0  0
   -0.3500   24.3260  -26.7740 C   0  0  0  0  0  0  0  0  0  0  0  0
   -0.1320   22.9370  -25.8490 S   0  0  0  0  0  0  0  0  0  0  0  0
   -1.2750   22.0530  -26.7000 C   0  0  0  0  0  0  0  0  0  0  0  0
   -1.5480   20.8080  -26.4340 N   0  0  0  0  0  0  0  0  0  0  0  0
   -2.5360   19.9650  -27.0460 C   0  0  0  0  0  0  0  0  0  0  0  0
   -2.9740   18.7270  -26.3370 C   0  0  0  0  0  0  0  0  0  0  0  0
   -3.1170   20.3000  -28.1120 O   0  0  0  0  0  0  0  0  0  0  0  0
   -1.8230   22.7870  -27.7010 N   0  0  0  0  0  0  0  0  0  0  0  0
   -5.0130   23.8420  -30.7420 S   0  0  0  0  0  0  0  0  0  0  0  0
   -4.7260   22.3240  -31.3990 C   0  0  0  0  0  0  0  0  0  0  0  0
   -5.5790   21.5330  -32.1630 C   0  0  0  0  0  0  0  0  0  0  0  0
   -8.5881   19.6385  -30.4981 H   0  0  0  0  0  0  0  0  0  0  0  0
   -7.7979   20.3605  -31.9406 H   0  0  0  0  0  0  0  0  0  0  0  0
   -9.5697   20.0652  -31.9406 H   0  0  0  0  0  0  0  0  0  0  0  0
   -8.7160   17.5456  -31.4381 H   0  0  0  0  0  0  0  0  0  0  0  0
   -8.9164   18.2210  -33.1173 H   0  0  0  0  0  0  0  0  0  0  0  0
   -6.3257   18.0031  -31.5278 H   0  0  0  0  0  0  0  0  0  0  0  0
   -6.8301   17.0406  -32.9900 H   0  0  0  0  0  0  0  0  0  0  0  0
   -3.4492   18.8731  -32.6023 H   0  0  0  0  0  0  0  0  0  0  0  0
   -1.9510   20.3465  -31.2280 H   0  0  0  0  0  0  0  0  0  0  0  0
    0.1764   25.2822  -26.6381 H   0  0  0  0  0  0  0  0  0  0  0  0
   -2.9173   18.8873  -25.2502 H   0  0  0  0  0  0  0  0  0  0  0  0
   -4.0105   18.4901  -26.6191 H   0  0  0  0  0  0  0  0  0  0  0  0
   -2.3171   17.8910  -26.6191 H   0  0  0  0  0  0  0  0  0  0  0  0
   -2.5220   22.4400  -28.3910 H   0  0  0  0  0  0  0  0  0  0  0  0
   -6.5937   21.8762  -32.4133 H   0  0  0  0  0  0  0  0  0  0  0  0
  1  2  1  0
  2  3  1  0
  3  4  1  0
  4  5  2  0
  4  6  2  0
  4  7  1  0
  7  8  2  0
  8  9  1  0
  9 10  2  0
 10 11  1  0
 11 12  1  0
 12 13  2  3
 13 14  1  0
 14 15  2  0
 14 16  1  0
 16 17  2  0
 17 18  1  0
 18 19  1  0
 19 20  2  3
 20 21  1  0
 21 22  1  0
 21 23  2  0
 19 24  1  0
 12 25  1  0
 25 26  1  0
 26 27  2  0
 27  7  1  0
 26 10  1  0
 24 16  1  0
  1 28  1  0
  1 29  1  0
  1 30  1  0
  2 31  1  0
  2 32  1  0
  3 33  1  0
  3 34  1  0
  8 35  1  0
  9 36  1  0
 17 37  1  0
 22 38  1  0
 22 39  1  0
 22 40  1  0
 24 41  1  0
 27 42  1  0
M  CHG  1  11  -1
M  END
>  <UniqueID>  (3) 
3

>  <SMILES>  (3) 
CCCS(=O)(=O)c1ccc2[n-]c(=NC(=O)c3csc(=NC(C)=O)[nH]3)sc2c1

>  <Energy>  (3) 
106.88212813902858

>  <Genealogy>  (3) 
CCCS(=O)(=O)c1ccc2[n-]c(=NC(=O)c3csc(=NC(C)=O)[nH]3)sc2c1 (protonated)
CCCS(=O)(=O)c1ccc2[n-]c(=NC(=O)c3csc(=NC(C)=O)[nH]3)sc2c1 (3D coordinates assigned)
CCCS(=O)(=O)c1ccc2[n-]c(=NC(=O)c3csc(=NC(C)=O)[nH]3)sc2c1 (optimized conformer: 106.88212813902858 kcal/mol)

>  <smiles>  (3) 
CCCS(=O)(=O)c1ccc2[nH]c(=NC(=O)c3csc(=NC(C)=O)[nH]3)sc2c1

>  <score_type>  (3) 
oracle

>  <origin>  (3) 
adgpu

>  <m_score__min__energy>  (3) 
-9.4900000000000002

>  <m_primary>  (3) 
energy

$$$$
3:0
     RDKit          3D

 56 59  0  0  0  0  0  0  0  0999 V2000
   -1.6160   19.7070  -29.3460 O   0  0  0  0  0  0  0  0  0  0  0  0
   -1.3420   20.5560  -30.2390 C   0  0  0  0  0  0  0  0  0  0  0  0
   -1.4160   21.9970  -29.9110 C   0  0  0  0  0  0  0  0  0  0  0  0
   -0.4160   22.5960  -29.1290 C   0  0  0  0  0  0  0  0  0  0  0  0
   -0.4850   23.9560  -28.8170 C   0  0  0  0  0  0  0  0  0  0  0  0
   -1.5450   24.7340  -29.2890 C   0  0  0  0  0  0  0  0  0  0  0  0
   -1.5990   26.0860  -28.9680 O   0  0  0  0  0  0  0  0  0  0  0  0
   -2.5450   24.1570  -30.0860 C   0  0  0  0  0  0  0  0  0  0  0  0
   -3.6170   24.9850  -30.5610 N   0  0  0  0  0  0  0  0  0  0  0  0
   -5.2850   24.8050  -30.1230 S   0  0  0  0  0  0  0  0  0  0  0  0
   -5.3820   24.6150  -28.6340 O   0  0  0  0  0  0  0  0  0  0  0  0
   -6.0350   26.0480  -30.5060 O   0  0  0  0  0  0  0  0  0  0  0  0
   -5.9810   23.4290  -30.9750 C   0  0  0  0  0  0  0  0  0  0  0  0
   -7.3120   23.0610  -30.7300 C   0  0  0  0  0  0  0  0  0  0  0  0
   -7.8780   21.9810  -31.4160 C   0  0  0  0  0  0  0  0  0  0  0  0
   -7.1180   21.2650  -32.3460 C   0  0  0  0  0  0  0  0  0  0  0  0
   -5.7920   21.6310  -32.5940 C   0  0  0  0  0  0  0  0  0  0  0  0
   -5.2230   22.7100  -31.9090 C   0  0  0  0  0  0  0  0  0  0  0  0
   -2.4670   22.7880  -30.4000 C   0  0  0  0  0  0  0  0  0  0  0  0
   -0.9820   20.1050  -31.5610 N   0  0  0  0  0  0  0  0  0  0  0  0
   -1.5120   20.7970  -32.7470 C   0  0  0  0  0  0  0  0  0  0  0  0
   -1.7520   19.8140  -33.9080 C   0  0  0  0  0  0  0  0  0  0  0  0
   -2.2800   18.4560  -33.4000 C   0  0  0  0  0  0  0  0  0  0  0  0
   -3.7000   18.6090  -32.7950 C   0  0  0  0  0  0  0  0  0  0  0  0
   -4.6380   17.5200  -33.2540 C   0  0  0  0  0  0  0  0  0  0  0  0
   -4.1370   16.3340  -33.8180 C   0  0  0  0  0  0  0  0  0  0  0  0
   -5.0140   15.3340  -34.2470 C   0  0  0  0  0  0  0  0  0  0  0  0
   -6.3950   15.5080  -34.1150 C   0  0  0  0  0  0  0  0  0  0  0  0
   -6.9020   16.6840  -33.5540 C   0  0  0  0  0  0  0  0  0  0  0  0
   -6.0290   17.6870  -33.1250 C   0  0  0  0  0  0  0  0  0  0  0  0
   -1.2810   17.8010  -32.3990 C   0  0  0  0  0  0  0  0  0  0  0  0
   -0.3200   18.8070  -31.7430 C   0  0  0  0  0  0  0  0  0  0  0  0
    0.4259   21.9918  -28.7601 H   0  0  0  0  0  0  0  0  0  0  0  0
    0.2986   24.4162  -28.1971 H   0  0  0  0  0  0  0  0  0  0  0  0
   -7.9114   23.6220  -29.9979 H   0  0  0  0  0  0  0  0  0  0  0  0
   -8.9225   21.6947  -31.2235 H   0  0  0  0  0  0  0  0  0  0  0  0
   -7.5634   20.4141  -32.8822 H   0  0  0  0  0  0  0  0  0  0  0  0
   -5.1953   21.0701  -33.3284 H   0  0  0  0  0  0  0  0  0  0  0  0
   -4.1785   22.9946  -32.1039 H   0  0  0  0  0  0  0  0  0  0  0  0
   -3.2394   22.3319  -31.0367 H   0  0  0  0  0  0  0  0  0  0  0  0
   -2.4645   21.2803  -32.4840 H   0  0  0  0  0  0  0  0  0  0  0  0
   -0.7731   21.5442  -33.0720 H   0  0  0  0  0  0  0  0  0  0  0  0
   -2.4903   20.2490  -34.5977 H   0  0  0  0  0  0  0  0  0  0  0  0
   -0.7928   19.6421  -34.4182 H   0  0  0  0  0  0  0  0  0  0  0  0
   -2.3627   17.7738  -34.2589 H   0  0  0  0  0  0  0  0  0  0  0  0
   -3.6233   18.5709  -31.6983 H   0  0  0  0  0  0  0  0  0  0  0  0
   -4.1092   19.5715  -33.1357 H   0  0  0  0  0  0  0  0  0  0  0  0
   -3.0511   16.1925  -33.9221 H   0  0  0  0  0  0  0  0  0  0  0  0
   -4.6171   14.4084  -34.6893 H   0  0  0  0  0  0  0  0  0  0  0  0
   -7.0831   14.7191  -34.4528 H   0  0  0  0  0  0  0  0  0  0  0  0
   -7.9887   16.8197  -33.4503 H   0  0  0  0  0  0  0  0  0  0  0  0
   -6.4310   18.6113  -32.6845 H   0  0  0  0  0  0  0  0  0  0  0  0
   -1.8588   17.3037  -31.6060 H   0  0  0  0  0  0  0  0  0  0  0  0
   -0.6652   17.0933  -32.9735 H   0  0  0  0  0  0  0  0  0  0  0  0
   -0.0048   18.4205  -30.7626 H   0  0  0  0  0  0  0  0  0  0  0  0
    0.5550   18.9417  -32.3959 H   0  0  0  0  0  0  0  0  0  0  0  0
  1  2  2  0
  2  3  1  0
  3  4  2  0
  4  5  1  0
  5  6  2  0
  6  7  1  0
  6  8  1  0
  8  9  1  0
  9 10  1  0
 10 11  2  0
 10 12  2  0
 10 13  1  0
 13 14  2  0
 14 15  1  0
 15 16  2  0
 16 17  1  0
 17 18  2  0
  8 19  2  0
  2 20  1  0
 20 21  1  0
 21 22  1  0
 22 23  1  0
 23 24  1  0
 24 25  1  0
 25 26  2  0
 26 27  1  0
 27 28  2  0
 28 29  1  0
 29 30  2  0
 23 31  1  0
 31 32  1  0
 19  3  1  0
 32 20  1  0
 18 13  1  0
 30 25  1  0
  4 33  1  0
  5 34  1  0
 14 35  1  0
 15 36  1  0
 16 37  1  0
 17 38  1  0
 18 39  1  0
 19 40  1  0
 21 41  1  0
 21 42  1  0
 22 43  1  0
 22 44  1  0
 23 45  1  0
 24 46  1  0
 24 47  1  0
 26 48  1  0
 27 49  1  0
 28 50  1  0
 29 51  1  0
 30 52  1  0
 31 53  1  0
 31 54  1  0
 32 55  1  0
 32 56  1  0
M  CHG  2   7  -1   9  -1
M  END
>  <UniqueID>  (4) 
4

>  <SMILES>  (4) 
O=C(c1ccc([O-])c([N-]S(=O)(=O)c2ccccc2)c1)N1CCC(Cc2ccccc2)CC1

>  <Energy>  (4) 
68.89863462546191

>  <Genealogy>  (4) 
O=C(c1ccc([O-])c([N-]S(=O)(=O)c2ccccc2)c1)N1CCC(Cc2ccccc2)CC1 (protonated)
O=C(c1ccc([O-])c([N-]S(=O)(=O)c2ccccc2)c1)N1CCC(Cc2ccccc2)CC1 (3D coordinates assigned)
O=C(c1ccc([O-])c([N-]S(=O)(=O)c2ccccc2)c1)N1CCC(Cc2ccccc2)CC1 (nonaromatic ring conformer: 68.89863462546191 kcal/mol)

>  <smiles>  (4) 
O=C(c1ccc(O)c(NS(=O)(=O)c2ccccc2)c1)N1CCC(Cc2ccccc2)CC1

>  <score_type>  (4) 
oracle

>  <origin>  (4) 
adgpu

>  <m_score__min__energy>  (4) 
-13.789999999999999

>  <m_primary>  (4) 
energy

$$$$
4:0
     RDKit          3D

 41 44  0  0  0  0  0  0  0  0999 V2000
   -0.4900   25.2080  -28.5390 O   0  0  0  0  0  0  0  0  0  0  0  0
   -1.4770   24.5670  -28.9860 C   0  0  0  0  0  0  0  0  0  0  0  0
   -1.4100   23.1760  -29.1150 C   0  0  0  0  0  0  0  0  0  0  0  0
   -2.5130   22.4780  -29.6130 C   0  0  0  0  0  0  0  0  0  0  0  0
   -3.6720   23.1740  -29.9780 C   0  0  0  0  0  0  0  0  0  0  0  0
   -4.7950   22.5050  -30.4840 C   0  0  0  0  0  0  0  0  0  0  0  0
   -5.9400   23.2300  -30.8480 C   0  0  0  0  0  0  0  0  0  0  0  0
   -7.3420   22.4040  -31.5200 S   0  0  0  0  0  0  0  0  0  0  0  0
   -8.4360   23.4090  -31.7440 O   0  0  0  0  0  0  0  0  0  0  0  0
   -7.8390   21.3400  -30.5820 O   0  0  0  0  0  0  0  0  0  0  0  0
   -6.9220   21.6730  -33.0360 N   0  0  0  0  0  0  0  0  0  0  0  0
   -6.1420   20.4770  -33.1920 C   0  0  0  0  0  0  0  0  0  0  0  0
   -6.7320   19.2020  -33.1440 C   0  0  0  0  0  0  0  0  0  0  0  0
   -5.9520   18.0450  -33.2810 C   0  0  0  0  0  0  0  0  0  0  0  0
   -4.5570   18.1600  -33.4450 C   0  0  0  0  0  0  0  0  0  0  0  0
   -3.9740   19.4320  -33.5240 C   0  0  0  0  0  0  0  0  0  0  0  0
   -4.7540   20.5840  -33.3930 C   0  0  0  0  0  0  0  0  0  0  0  0
   -4.1240   21.8280  -33.4630 O   0  0  0  0  0  0  0  0  0  0  0  0
   -3.7000   16.9320  -33.6450 C   0  0  0  0  0  0  0  0  0  0  0  0
   -4.3350   15.7170  -33.1140 N   0  0  0  0  0  0  0  0  0  0  0  0
   -5.6940   15.5660  -33.6480 C   0  0  0  0  0  0  0  0  0  0  0  0
   -6.6060   16.6940  -33.1520 C   0  0  0  0  0  0  0  0  0  0  0  0
   -5.9600   24.6230  -30.6960 C   0  0  0  0  0  0  0  0  0  0  0  0
   -4.8440   25.2960  -30.1900 C   0  0  0  0  0  0  0  0  0  0  0  0
   -3.6980   24.5790  -29.8310 C   0  0  0  0  0  0  0  0  0  0  0  0
   -2.6080   25.2320  -29.3420 N   0  0  0  0  0  0  0  0  0  0  0  0
   -0.4962   22.6359  -28.8267 H   0  0  0  0  0  0  0  0  0  0  0  0
   -2.4711   21.3838  -29.7182 H   0  0  0  0  0  0  0  0  0  0  0  0
   -4.7787   21.4108  -30.5958 H   0  0  0  0  0  0  0  0  0  0  0  0
   -7.8184   19.1109  -32.9972 H   0  0  0  0  0  0  0  0  0  0  0  0
   -2.8907   19.5245  -33.6909 H   0  0  0  0  0  0  0  0  0  0  0  0
   -4.6360   22.6890  -33.6140 H   0  0  0  0  0  0  0  0  0  0  0  0
   -3.5217   16.7964  -34.7220 H   0  0  0  0  0  0  0  0  0  0  0  0
   -2.7578   17.0861  -33.0986 H   0  0  0  0  0  0  0  0  0  0  0  0
   -4.3820   15.7860  -32.0690 H   0  0  0  0  0  0  0  0  0  0  0  0
   -5.6540   15.5923  -34.7470 H   0  0  0  0  0  0  0  0  0  0  0  0
   -6.1029   14.6056  -33.3009 H   0  0  0  0  0  0  0  0  0  0  0  0
   -7.5320   16.6893  -33.7457 H   0  0  0  0  0  0  0  0  0  0  0  0
   -6.8162   16.5181  -32.0867 H   0  0  0  0  0  0  0  0  0  0  0  0
   -6.8596   25.1905  -30.9766 H   0  0  0  0  0  0  0  0  0  0  0  0
   -4.8672   26.3896  -30.0742 H   0  0  0  0  0  0  0  0  0  0  0  0
  1  2  2  0
  2  3  1  0
  3  4  2  0
  4  5  1  0
  5  6  2  0
  6  7  1  0
  7  8  1  0
  8  9  2  0
  8 10  2  0
  8 11  1  0
 11 12  1  0
 12 13  2  0
 13 14  1  0
 14 15  2  0
 15 16  1  0
 16 17  2  0
 17 18  1  0
 15 19  1  0
 19 20  1  0
 20 21  1  0
 21 22  1  0
  7 23  2  0
 23 24  1  0
 24 25  2  0
 25 26  1  0
 26  2  1  0
 25  5  1  0
 17 12  1  0
 22 14  1  0
  3 27  1  0
  4 28  1  0
  6 29  1  0
 13 30  1  0
 16 31  1  0
 18 32  1  0
 19 33  1  0
 19 34  1  0
 20 35  1  0
 21 36  1  0
 21 37  1  0
 22 38  1  0
 22 39  1  0
 23 40  1  0
 24 41  1  0
M  CHG  2  11  -1  26  -1
M  END
>  <UniqueID>  (5) 
5

>  <SMILES>  (5) 
O=c1ccc2cc(S(=O)(=O)[N-]c3cc4c(cc3O)CNCC4)ccc2[n-]1

>  <Energy>  (5) 
53.222771648669706

>  <Genealogy>  (5) 
O=c1ccc2cc(S(=O)(=O)[N-]c3cc4c(cc3O)CNCC4)ccc2[n-]1 (protonated)
O=c1ccc2cc(S(=O)(=O)[N-]c3cc4c(cc3O)CNCC4)ccc2[n-]1 (3D coordinates assigned)
O=c1ccc2cc(S(=O)(=O)[N-]c3cc4c(cc3O)CNCC4)ccc2[n-]1 (nonaromatic ring conformer: 53.222771648669706 kcal/mol)

>  <smiles>  (5) 
O=c1ccc2cc(S(=O)(=O)Nc3cc4c(cc3O)CNCC4)ccc2[nH]1

>  <score_type>  (5) 
oracle

>  <origin>  (5) 
adgpu

>  <m_score__min__energy>  (5) 
-11.789999999999999

>  <m_primary>  (5) 
energy

$$$$
5:0
     RDKit          3D

 58 61  0  0  0  0  0  0  0  0999 V2000
   -6.4570   16.3160  -34.1210 C   0  0  0  0  0  0  0  0  0  0  0  0
   -5.1350   17.0990  -34.0610 C   0  0  0  0  0  0  0  0  0  0  0  0
   -4.2500   16.8270  -35.2890 C   0  0  0  0  0  0  0  0  0  0  0  0
   -3.5680   15.4490  -35.2280 C   0  0  0  0  0  0  0  0  0  0  0  0
   -2.8560   15.2060  -33.9580 N   0  0  0  0  0  0  0  0  0  0  0  0
   -1.3010   16.0070  -33.8700 S   0  0  0  0  0  0  0  0  0  0  0  0
   -0.4030   15.3500  -32.8600 O   0  0  0  0  0  0  0  0  0  0  0  0
   -0.6250   15.9460  -35.2130 O   0  0  0  0  0  0  0  0  0  0  0  0
   -1.5330   17.7000  -33.4440 C   0  0  0  0  0  0  0  0  0  0  0  0
   -2.0440   18.6140  -34.3950 C   0  0  0  0  0  0  0  0  0  0  0  0
   -2.1970   19.9700  -34.0670 C   0  0  0  0  0  0  0  0  0  0  0  0
   -1.8280   20.3820  -32.7900 C   0  0  0  0  0  0  0  0  0  0  0  0
   -1.8890   21.9230  -32.1260 S   0  0  0  0  0  0  0  0  0  0  0  0
   -1.2650   21.3800  -30.6480 C   0  0  0  0  0  0  0  0  0  0  0  0
   -0.9570   22.4320  -29.2330 S   0  0  0  0  0  0  0  0  0  0  0  0
   -2.6970   22.9560  -29.0320 C   0  0  0  0  0  0  0  0  0  0  0  0
   -2.9020   24.2930  -29.6840 C   0  0  0  0  0  0  0  0  0  0  0  0
   -2.2410   25.2840  -29.2750 O   0  0  0  0  0  0  0  0  0  0  0  0
   -3.8580   24.4860  -30.7340 N   0  0  0  0  0  0  0  0  0  0  0  0
   -5.0540   23.7180  -30.9070 C   0  0  0  0  0  0  0  0  0  0  0  0
   -4.9690   22.4680  -31.5340 C   0  0  0  0  0  0  0  0  0  0  0  0
   -6.1200   21.6870  -31.7200 C   0  0  0  0  0  0  0  0  0  0  0  0
   -6.0290   20.1300  -32.5390 S   0  0  0  0  0  0  0  0  0  0  0  0
   -7.6670   19.5980  -32.9930 C   0  0  0  0  0  0  0  0  0  0  0  0
   -5.4020   19.1190  -31.6210 O   0  0  0  0  0  0  0  0  0  0  0  0
   -5.1950   20.2420  -33.7850 O   0  0  0  0  0  0  0  0  0  0  0  0
   -7.3540   22.1510  -31.2510 C   0  0  0  0  0  0  0  0  0  0  0  0
   -7.4410   23.3850  -30.6030 C   0  0  0  0  0  0  0  0  0  0  0  0
   -6.2980   24.1720  -30.4220 C   0  0  0  0  0  0  0  0  0  0  0  0
   -6.4470   25.6790  -29.5290 Cl  0  0  0  0  0  0  0  0  0  0  0  0
   -1.0040   20.0500  -30.6500 N   0  0  0  0  0  0  0  0  0  0  0  0
   -1.3220   19.5000  -31.8500 C   0  0  0  0  0  0  0  0  0  0  0  0
   -1.1660   18.1490  -32.1600 C   0  0  0  0  0  0  0  0  0  0  0  0
   -3.6920   15.4400  -32.7650 C   0  0  0  0  0  0  0  0  0  0  0  0
   -4.3600   16.8240  -32.7610 C   0  0  0  0  0  0  0  0  0  0  0  0
   -6.8071   16.1087  -33.0990 H   0  0  0  0  0  0  0  0  0  0  0  0
   -7.2125   16.9124  -34.6535 H   0  0  0  0  0  0  0  0  0  0  0  0
   -6.2971   15.3668  -34.6535 H   0  0  0  0  0  0  0  0  0  0  0  0
   -5.4056   18.1652  -34.0704 H   0  0  0  0  0  0  0  0  0  0  0  0
   -4.8762   16.8714  -36.1923 H   0  0  0  0  0  0  0  0  0  0  0  0
   -3.4594   17.5915  -35.3081 H   0  0  0  0  0  0  0  0  0  0  0  0
   -4.3376   14.6727  -35.3509 H   0  0  0  0  0  0  0  0  0  0  0  0
   -2.8184   15.4204  -36.0326 H   0  0  0  0  0  0  0  0  0  0  0  0
   -2.3233   18.2596  -35.3982 H   0  0  0  0  0  0  0  0  0  0  0  0
   -2.5974   20.6870  -34.7988 H   0  0  0  0  0  0  0  0  0  0  0  0
   -3.3589   22.2143  -29.5030 H   0  0  0  0  0  0  0  0  0  0  0  0
   -2.9323   23.0337  -27.9603 H   0  0  0  0  0  0  0  0  0  0  0  0
   -3.9941   22.0965  -31.8826 H   0  0  0  0  0  0  0  0  0  0  0  0
   -8.2556   19.4068  -32.0836 H   0  0  0  0  0  0  0  0  0  0  0  0
   -8.1559   20.3835  -33.5879 H   0  0  0  0  0  0  0  0  0  0  0  0
   -7.6011   18.6751  -33.5879 H   0  0  0  0  0  0  0  0  0  0  0  0
   -8.2587   21.5416  -31.3932 H   0  0  0  0  0  0  0  0  0  0  0  0
   -8.4138   23.7406  -30.2326 H   0  0  0  0  0  0  0  0  0  0  0  0
   -0.7636   17.4466  -31.4152 H   0  0  0  0  0  0  0  0  0  0  0  0
   -4.4782   14.6714  -32.7318 H   0  0  0  0  0  0  0  0  0  0  0  0
   -3.0320   15.3910  -31.8864 H   0  0  0  0  0  0  0  0  0  0  0  0
   -5.0594   16.8773  -31.9136 H   0  0  0  0  0  0  0  0  0  0  0  0
   -3.5671   17.5814  -32.6740 H   0  0  0  0  0  0  0  0  0  0  0  0
  1  2  1  0
  2  3  1  0
  3  4  1  0
  4  5  1  0
  5  6  1  0
  6  7  2  0
  6  8  2  0
  6  9  1  0
  9 10  2  0
 10 11  1  0
 11 12  2  0
 12 13  1  0
 13 14  1  0
 14 15  1  0
 15 16  1  0
 16 17  1  0
 17 18  2  0
 17 19  1  0
 19 20  1  0
 20 21  2  0
 21 22  1  0
 22 23  1  0
 23 24  1  0
 23 25  2  0
 23 26  2  0
 22 27  2  0
 27 28  1  0
 28 29  2  0
 29 30  1  0
 14 31  2  0
 31 32  1  0
 32 33  2  0
  5 34  1  0
 34 35  1  0
 35  2  1  0
 33  9  1  0
 32 12  1  0
 29 20  1  0
  1 36  1  0
  1 37  1  0
  1 38  1  0
  2 39  1  0
  3 40  1  0
  3 41  1  0
  4 42  1  0
  4 43  1  0
 10 44  1  0
 11 45  1  0
 16 46  1  0
 16 47  1  0
 21 48  1  0
 24 49  1  0
 24 50  1  0
 24 51  1  0
 27 52  1  0
 28 53  1  0
 33 54  1  0
 34 55  1  0
 34 56  1  0
 35 57  1  0
 35 58  1  0
M  CHG  1  19  -1
M  END
>  <UniqueID>  (6) 
6

>  <SMILES>  (6) 
CC1CCN(S(=O)(=O)c2ccc3sc(SCC(=O)[N-]c4cc(S(C)(=O)=O)ccc4Cl)nc3c2)CC1

>  <Energy>  (6) 
97.19425475375147

>  <Genealogy>  (6) 
CC1CCN(S(=O)(=O)c2ccc3sc(SCC(=O)[N-]c4cc(S(C)(=O)=O)ccc4Cl)nc3c2)CC1 (protonated)
CC1CCN(S(=O)(=O)c2ccc3sc(SCC(=O)[N-]c4cc(S(C)(=O)=O)ccc4Cl)nc3c2)CC1 (3D coordinates assigned)
CC1CCN(S(=O)(=O)c2ccc3sc(SCC(=O)[N-]c4cc(S(C)(=O)=O)ccc4Cl)nc3c2)CC1 (nonaromatic ring conformer: 97.19425475375147 kcal/mol)

>  <smiles>  (6) 
CC1CCN(S(=O)(=O)c2ccc3sc(SCC(=O)Nc4cc(S(C)(=O)=O)ccc4Cl)nc3c2)CC1

>  <score_type>  (6) 
oracle

>  <origin>  (6) 
adgpu

>  <m_score__min__energy>  (6) 
-13.25

>  <m_primary>  (6) 
energy

$$$$
6:0
     RDKit          3D

 40 42  0  0  0  0  0  0  0  0999 V2000
    2.0290   24.1920  -27.6130 C   0  0  0  0  0  0  0  0  0  0  0  0
    0.8290   24.3310  -28.3410 O   0  0  0  0  0  0  0  0  0  0  0  0
   -0.2680   23.9220  -27.5460 C   0  0  0  0  0  0  0  0  0  0  0  0
   -1.5040   23.9040  -28.3380 N   0  0  0  0  0  0  0  0  0  0  0  0
   -2.0220   24.9590  -28.9970 C   0  0  0  0  0  0  0  0  0  0  0  0
   -1.5040   26.2480  -28.9410 O   0  0  0  0  0  0  0  0  0  0  0  0
   -3.1160   24.5790  -29.7360 C   0  0  0  0  0  0  0  0  0  0  0  0
   -3.8960   25.4270  -30.5190 O   0  0  0  0  0  0  0  0  0  0  0  0
   -3.2870   23.2180  -29.5380 C   0  0  0  0  0  0  0  0  0  0  0  0
   -4.3140   22.3560  -30.1640 C   0  0  0  0  0  0  0  0  0  0  0  0
   -5.4910   22.3810  -29.7140 O   0  0  0  0  0  0  0  0  0  0  0  0
   -4.0010   21.4860  -31.3190 C   0  0  0  0  0  0  0  0  0  0  0  0
   -5.0040   20.7150  -31.9330 C   0  0  0  0  0  0  0  0  0  0  0  0
   -4.6910   19.8730  -33.0030 C   0  0  0  0  0  0  0  0  0  0  0  0
   -3.3810   19.8030  -33.4820 C   0  0  0  0  0  0  0  0  0  0  0  0
   -3.0710   18.9630  -34.5440 O   0  0  0  0  0  0  0  0  0  0  0  0
   -2.3810   20.5830  -32.8920 C   0  0  0  0  0  0  0  0  0  0  0  0
   -2.6880   21.4250  -31.8190 C   0  0  0  0  0  0  0  0  0  0  0  0
   -2.2610   22.8290  -28.6740 C   0  0  0  0  0  0  0  0  0  0  0  0
   -1.9780   21.4400  -28.2510 C   0  0  0  0  0  0  0  0  0  0  0  0
   -2.7490   20.8490  -27.2370 C   0  0  0  0  0  0  0  0  0  0  0  0
   -2.5290   19.5190  -26.8690 C   0  0  0  0  0  0  0  0  0  0  0  0
   -1.5390   18.7700  -27.5080 C   0  0  0  0  0  0  0  0  0  0  0  0
   -0.7630   19.3510  -28.5140 C   0  0  0  0  0  0  0  0  0  0  0  0
   -0.9760   20.6820  -28.8880 C   0  0  0  0  0  0  0  0  0  0  0  0
   -0.1890   21.2460  -29.8860 O   0  0  0  0  0  0  0  0  0  0  0  0
    1.8092   24.2175  -26.5355 H   0  0  0  0  0  0  0  0  0  0  0  0
    2.5035   23.2329  -27.8679 H   0  0  0  0  0  0  0  0  0  0  0  0
    2.7102   25.0172  -27.8679 H   0  0  0  0  0  0  0  0  0  0  0  0
   -0.0744   22.9120  -27.1556 H   0  0  0  0  0  0  0  0  0  0  0  0
   -0.3893   24.6346  -26.7169 H   0  0  0  0  0  0  0  0  0  0  0  0
   -3.8710   26.4310  -30.4030 H   0  0  0  0  0  0  0  0  0  0  0  0
   -6.0403   20.7752  -31.5690 H   0  0  0  0  0  0  0  0  0  0  0  0
   -5.4788   19.2633  -33.4696 H   0  0  0  0  0  0  0  0  0  0  0  0
   -1.3504   20.5338  -33.2732 H   0  0  0  0  0  0  0  0  0  0  0  0
   -1.8994   22.0423  -31.3640 H   0  0  0  0  0  0  0  0  0  0  0  0
   -3.5295   21.4355  -26.7302 H   0  0  0  0  0  0  0  0  0  0  0  0
   -3.1368   19.0614  -26.0745 H   0  0  0  0  0  0  0  0  0  0  0  0
   -1.3700   17.7221  -27.2192 H   0  0  0  0  0  0  0  0  0  0  0  0
    0.0183   18.7597  -29.0138 H   0  0  0  0  0  0  0  0  0  0  0  0
  1  2  1  0
  2  3  1  0
  3  4  1  0
  4  5  1  0
  5  6  1  0
  5  7  2  0
  7  8  1  0
  7  9  1  0
  9 10  1  0
 10 11  2  0
 10 12  1  0
 12 13  2  0
 13 14  1  0
 14 15  2  0
 15 16  1  0
 15 17  1  0
 17 18  2  0
  9 19  2  0
 19 20  1  0
 20 21  2  0
 21 22  1  0
 22 23  2  0
 23 24  1  0
 24 25  2  0
 25 26  1  0
 19  4  1  0
 25 20  1  0
 18 12  1  0
  1 27  1  0
  1 28  1  0
  1 29  1  0
  3 30  1  0
  3 31  1  0
  8 32  1  0
 13 33  1  0
 14 34  1  0
 17 35  1  0
 18 36  1  0
 21 37  1  0
 22 38  1  0
 23 39  1  0
 24 40  1  0
M  CHG  3   6  -1  16  -1  26  -1
M  END
>  <UniqueID>  (7) 
7

>  <SMILES>  (7) 
COCn1c([O-])c(O)c(C(=O)c2ccc([O-])cc2)c1-c1ccccc1[O-]

>  <Energy>  (7) 
83.59844874970368

>  <Genealogy>  (7) 
COCn1c([O-])c(O)c(C(=O)c2ccc([O-])cc2)c1-c1ccccc1[O-] (protonated)
COCn1c([O-])c(O)c(C(=O)c2ccc([O-])cc2)c1-c1ccccc1[O-] (3D coordinates assigned)
COCn1c([O-])c(O)c(C(=O)c2ccc([O-])cc2)c1-c1ccccc1[O-] (optimized conformer: 83.59844874970368 kcal/mol)

>  <smiles>  (7) 
COCn1c(O)c(O)c(C(=O)c2ccc(O)cc2)c1-c1ccccc1O

>  <score_type>  (7) 
oracle

>  <origin>  (7) 
adgpu

>  <m_score__min__energy>  (7) 
-11

>  <m_primary>  (7) 
energy

$$$$
7:0
     RDKit          3D

 53 55  0  0  0  0  0  0  0  0999 V2000
   -0.1237   24.2674  -26.9665 H   0  0  0  0  0  0  0  0  0  0  0  0
   -0.8390   24.1140  -27.7880 C   0  0  0  0  0  0  0  0  0  0  0  0
   -1.4690   25.1770  -28.3460 N   0  0  0  0  0  0  0  0  0  0  0  0
   -2.3340   25.0300  -29.3480 N   0  0  0  0  0  0  0  0  0  0  0  0
   -2.6320   23.8110  -29.8660 C   0  0  0  0  0  0  0  0  0  0  0  0
   -3.4820   23.7440  -30.8530 N   0  0  0  0  0  0  0  0  0  0  0  0
   -3.9270   22.5370  -31.5550 C   0  0  0  0  0  0  0  0  0  0  0  0
   -3.5602   21.6517  -31.0149 H   0  0  0  0  0  0  0  0  0  0  0  0
   -3.5247   22.5603  -32.5785 H   0  0  0  0  0  0  0  0  0  0  0  0
   -5.4360   22.4770  -31.6340 C   0  0  0  0  0  0  0  0  0  0  0  0
   -6.0640   21.2430  -31.8690 C   0  0  0  0  0  0  0  0  0  0  0  0
   -5.4525   20.3383  -32.0012 H   0  0  0  0  0  0  0  0  0  0  0  0
   -7.4590   21.1510  -31.9370 C   0  0  0  0  0  0  0  0  0  0  0  0
   -8.2160   19.5830  -32.1910 S   0  0  0  0  0  0  0  0  0  0  0  0
   -8.7000   19.0440  -30.8740 O   0  0  0  0  0  0  0  0  0  0  0  0
   -9.3880   19.7150  -33.1230 O   0  0  0  0  0  0  0  0  0  0  0  0
   -7.0320   18.4590  -32.9030 C   0  0  0  0  0  0  0  0  0  0  0  0
   -6.4876   17.9422  -32.0990 H   0  0  0  0  0  0  0  0  0  0  0  0
   -7.5570   17.7189  -33.5249 H   0  0  0  0  0  0  0  0  0  0  0  0
   -6.3202   19.0217  -33.5249 H   0  0  0  0  0  0  0  0  0  0  0  0
   -8.2370   22.3040  -31.7900 C   0  0  0  0  0  0  0  0  0  0  0  0
   -9.3337   22.2350  -31.8401 H   0  0  0  0  0  0  0  0  0  0  0  0
   -7.6270   23.5420  -31.5800 C   0  0  0  0  0  0  0  0  0  0  0  0
   -8.2468   24.4445  -31.4737 H   0  0  0  0  0  0  0  0  0  0  0  0
   -6.2230   23.6450  -31.5030 C   0  0  0  0  0  0  0  0  0  0  0  0
   -5.5880   24.8800  -31.2870 O   0  0  0  0  0  0  0  0  0  0  0  0
   -5.7540   25.6870  -30.1280 C   0  0  0  0  0  0  0  0  0  0  0  0
   -5.6265   25.0671  -29.2283 H   0  0  0  0  0  0  0  0  0  0  0  0
   -5.0022   26.4900  -30.1296 H   0  0  0  0  0  0  0  0  0  0  0  0
   -6.7617   26.1281  -30.1296 H   0  0  0  0  0  0  0  0  0  0  0  0
   -2.0080   22.6750  -29.3220 C   0  0  0  0  0  0  0  0  0  0  0  0
   -2.2312   21.6777  -29.7288 H   0  0  0  0  0  0  0  0  0  0  0  0
   -1.1010   22.8120  -28.2610 C   0  0  0  0  0  0  0  0  0  0  0  0
   -0.4420   21.6330  -27.7150 N   0  0  1  0  0  0  0  0  0  0  0  0
    0.5500   21.8450  -27.4520 H   0  0  0  0  0  0  0  0  0  0  0  0
   -1.1360   21.1950  -26.5410 C   0  0  0  0  0  0  0  0  0  0  0  0
   -1.1100   21.8290  -25.4510 O   0  0  0  0  0  0  0  0  0  0  0  0
   -1.8560   20.0270  -26.7060 O   0  0  0  0  0  0  0  0  0  0  0  0
   -1.6850   19.5620  -28.0320 C   0  0  0  0  0  0  0  0  0  0  0  0
   -1.4493   18.4877  -28.0463 H   0  0  0  0  0  0  0  0  0  0  0  0
   -2.5888   19.6735  -28.6491 H   0  0  0  0  0  0  0  0  0  0  0  0
   -0.4940   20.3970  -28.5450 C   0  0  1  0  0  0  0  0  0  0  0  0
    0.4565   19.8646  -28.3925 H   0  0  0  0  0  0  0  0  0  0  0  0
   -0.3470   20.5100  -30.1010 C   0  0  0  0  0  0  0  0  0  0  0  0
   -0.1933   21.5890  -30.2500 H   0  0  0  0  0  0  0  0  0  0  0  0
    0.9000   19.8730  -30.7400 C   0  0  0  0  0  0  0  0  0  0  0  0
    1.5805   19.5254  -29.9487 H   0  0  0  0  0  0  0  0  0  0  0  0
    0.5968   19.0194  -31.3640 H   0  0  0  0  0  0  0  0  0  0  0  0
    1.4139   20.6190  -31.3640 H   0  0  0  0  0  0  0  0  0  0  0  0
   -1.6210   20.0410  -30.8210 C   0  0  0  0  0  0  0  0  0  0  0  0
   -2.3810   19.7612  -30.0766 H   0  0  0  0  0  0  0  0  0  0  0  0
   -2.0073   20.8559  -31.4509 H   0  0  0  0  0  0  0  0  0  0  0  0
   -1.3867   19.1702  -31.4509 H   0  0  0  0  0  0  0  0  0  0  0  0
  1  2  1  0
  2  3  2  0
  3  4  1  0
  4  5  1  0
  5  6  2  0
  6  7  1  0
  7  8  1  0
  7  9  1  0
  7 10  1  0
 10 11  2  0
 11 12  1  0
 11 13  1  0
 13 14  1  0
 14 15  2  0
 14 16  2  0
 14 17  1  0
 17 18  1  0
 17 19  1  0
 17 20  1  0
 13 21  2  0
 21 22  1  0
 21 23  1  0
 23 24  1  0
 23 25  2  0
 25 26  1  0
 26 27  1  0
 27 28  1  0
 27 29  1  0
 27 30  1  0
  5 31  1  0
 31 32  1  0
 31 33  2  0
 33 34  1  0
 34 35  1  1
 34 36  1  0
 36 37  2  0
 36 38  1  0
 38 39  1  0
 39 40  1  0
 39 41  1  0
 39 42  1  0
 42 43  1  1
 42 44  1  0
 44 45  1  0
 44 46  1  0
 46 47  1  0
 46 48  1  0
 46 49  1  0
 44 50  1  0
 50 51  1  0
 50 52  1  0
 50 53  1  0
 33  2  1  0
 42 34  1  0
 25 10  1  0
M  CHG  2   4  -1  34   1
M  END
>  <UniqueID>  (8) 
8

>  <SMILES>  (8) 
COc1ccc(S(C)(=O)=O)cc1C/N=c1\cc([N@H+]2C(=O)OC[C@H]2C(C)C)cn[n-]1

>  <Energy>  (8) 
76.66691770299808

>  <Genealogy>  (8) 
COc1ccc(S(C)(=O)=O)cc1CN=c1cc([NH+]2C(=O)OCC2C(C)C)cn[n-]1 (protonated)
COc1ccc(S(C)(=O)=O)cc1CN=c1cc([N@H+]2C(=O)OC[C@H]2C(C)C)cn[n-]1 (chirality)
COc1ccc(S(C)(=O)=O)cc1C/N=c1\cc([N@H+]2C(=O)OC[C@H]2C(C)C)cn[n-]1 (cis-trans isomerization)
COc1ccc(S(C)(=O)=O)cc1C/N=c1\cc([N@H+]2C(=O)OC[C@H]2C(C)C)cn[n-]1 (3D coordinates assigned)
COc1ccc(S(C)(=O)=O)cc1C/N=c1\cc([N@H+]2C(=O)OC[C@H]2C(C)C)cn[n-]1 (nonaromatic ring conformer: 76.66691770299808 kcal/mol)

>  <smiles>  (8) 
COc1ccc(S(C)(=O)=O)cc1CN=c1cc(N2C(=O)OCC2C(C)C)cn[nH]1

>  <score_type>  (8) 
oracle

>  <origin>  (8) 
adgpu

>  <m_score__min__energy>  (8) 
-9.5500000000000007

>  <m_primary>  (8) 
energy

$$$$
8:0
     RDKit          3D

 46 47  0  0  0  0  0  0  0  0999 V2000
   -2.2680   19.8610  -27.2850 C   0  0  0  0  0  0  0  0  0  0  0  0
   -1.8010   21.1060  -27.1630 C   0  0  0  0  0  0  0  0  0  0  0  0
   -2.6590   22.2980  -27.4740 C   0  0  0  0  0  0  0  0  0  0  0  0
   -1.8920   23.5310  -27.2800 N   0  0  0  0  0  0  0  0  0  0  0  0
   -1.3730   24.1490  -28.8180 S   0  0  0  0  0  0  0  0  0  0  0  0
    0.0930   23.8740  -29.0110 O   0  0  0  0  0  0  0  0  0  0  0  0
   -1.5920   25.6350  -28.8560 O   0  0  0  0  0  0  0  0  0  0  0  0
   -2.3130   23.3980  -30.1040 C   0  0  0  0  0  0  0  0  0  0  0  0
   -3.6290   23.8120  -30.3290 C   0  0  0  0  0  0  0  0  0  0  0  0
   -4.4060   23.1840  -31.3020 C   0  0  0  0  0  0  0  0  0  0  0  0
   -3.8880   22.1220  -32.0570 C   0  0  0  0  0  0  0  0  0  0  0  0
   -4.7580   21.4650  -32.9960 N   0  0  0  0  0  0  0  0  0  0  0  0
   -5.8790   20.6360  -32.6270 C   0  0  0  0  0  0  0  0  0  0  0  0
   -7.1090   21.2170  -32.2650 C   0  0  0  0  0  0  0  0  0  0  0  0
   -7.3000   22.6520  -32.2770 C   0  0  0  0  0  0  0  0  0  0  0  0
   -7.4550   23.7990  -32.2850 N   0  0  0  0  0  0  0  0  0  0  0  0
   -8.1780   20.3810  -31.9330 C   0  0  0  0  0  0  0  0  0  0  0  0
   -9.2890   20.8910  -31.6100 O   0  0  0  0  0  0  0  0  0  0  0  0
   -8.0280   19.0210  -31.9680 N   0  0  0  0  0  0  0  0  0  0  0  0
   -9.1730   18.1480  -31.6490 C   0  0  0  0  0  0  0  0  0  0  0  0
   -6.8440   18.4720  -32.3850 C   0  0  0  0  0  0  0  0  0  0  0  0
   -6.7460   17.2160  -32.5020 O   0  0  0  0  0  0  0  0  0  0  0  0
   -5.7650   19.2690  -32.6820 N   0  0  0  0  0  0  0  0  0  0  0  0
   -4.4950   18.6570  -33.1110 C   0  0  0  0  0  0  0  0  0  0  0  0
   -2.5350   21.7340  -31.8730 C   0  0  0  0  0  0  0  0  0  0  0  0
   -1.8910   20.6590  -32.7070 C   0  0  0  0  0  0  0  0  0  0  0  0
   -1.7710   22.3630  -30.8760 C   0  0  0  0  0  0  0  0  0  0  0  0
   -1.6186   19.0046  -27.0508 H   0  0  0  0  0  0  0  0  0  0  0  0
   -3.3021   19.6918  -27.6197 H   0  0  0  0  0  0  0  0  0  0  0  0
   -0.7651   21.2616  -26.8273 H   0  0  0  0  0  0  0  0  0  0  0  0
   -2.9980   22.2403  -28.5189 H   0  0  0  0  0  0  0  0  0  0  0  0
   -3.5282   22.3033  -26.7999 H   0  0  0  0  0  0  0  0  0  0  0  0
   -1.0260   23.2940  -26.7400 H   0  0  0  0  0  0  0  0  0  0  0  0
   -4.0532   24.6360  -29.7365 H   0  0  0  0  0  0  0  0  0  0  0  0
   -5.4365   23.5255  -31.4791 H   0  0  0  0  0  0  0  0  0  0  0  0
   -4.6390   21.6900  -34.0100 H   0  0  0  0  0  0  0  0  0  0  0  0
   -9.2793   18.0670  -30.5571 H   0  0  0  0  0  0  0  0  0  0  0  0
  -10.0914   18.5772  -32.0760 H   0  0  0  0  0  0  0  0  0  0  0  0
   -9.0023   17.1487  -32.0760 H   0  0  0  0  0  0  0  0  0  0  0  0
   -3.9070   18.3737  -32.2256 H   0  0  0  0  0  0  0  0  0  0  0  0
   -4.7049   17.7612  -33.7138 H   0  0  0  0  0  0  0  0  0  0  0  0
   -3.9251   19.3794  -33.7138 H   0  0  0  0  0  0  0  0  0  0  0  0
   -1.4388   19.9042  -32.0468 H   0  0  0  0  0  0  0  0  0  0  0  0
   -2.6522   20.1820  -33.3418 H   0  0  0  0  0  0  0  0  0  0  0  0
   -1.1113   21.1052  -33.3418 H   0  0  0  0  0  0  0  0  0  0  0  0
   -0.7348   22.0387  -30.6996 H   0  0  0  0  0  0  0  0  0  0  0  0
  1  2  2  0
  2  3  1  0
  3  4  1  0
  4  5  1  0
  5  6  2  0
  5  7  2  0
  5  8  1  0
  8  9  2  0
  9 10  1  0
 10 11  2  0
 11 12  1  0
 12 13  1  0
 13 14  2  0
 14 15  1  0
 15 16  3  0
 14 17  1  0
 17 18  2  0
 17 19  1  0
 19 20  1  0
 19 21  1  0
 21 22  2  0
 21 23  1  0
 23 24  1  0
 11 25  1  0
 25 26  1  0
 25 27  2  0
 27  8  1  0
 23 13  1  0
  1 28  1  0
  1 29  1  0
  2 30  1  0
  3 31  1  0
  3 32  1  0
  4 33  1  0
  9 34  1  0
 10 35  1  0
 12 36  1  0
 20 37  1  0
 20 38  1  0
 20 39  1  0
 24 40  1  0
 24 41  1  0
 24 42  1  0
 26 43  1  0
 26 44  1  0
 26 45  1  0
 27 46  1  0
M  END
>  <UniqueID>  (9) 
9

>  <SMILES>  (9) 
C=CCNS(=O)(=O)c1ccc(Nc2c(C#N)c(=O)n(C)c(=O)n2C)c(C)c1

>  <Energy>  (9) 
57.29311455267819

>  <Genealogy>  (9) 
C=CCNS(=O)(=O)c1ccc(Nc2c(C#N)c(=O)n(C)c(=O)n2C)c(C)c1 (3D coordinates assigned)
C=CCNS(=O)(=O)c1ccc(Nc2c(C#N)c(=O)n(C)c(=O)n2C)c(C)c1 (optimized conformer: 57.29311455267819 kcal/mol)

>  <smiles>  (9) 
C=CCNS(=O)(=O)c1ccc(Nc2c(C#N)c(=O)n(C)c(=O)n2C)c(C)c1

>  <score_type>  (9) 
oracle

>  <origin>  (9) 
adgpu

>  <m_score__min__energy>  (9) 
-9.0899999999999999

>  <m_primary>  (9) 
energy

$$$$
9:0
     RDKit          3D

 51 53  0  0  0  0  0  0  0  0999 V2000
   -0.4360   23.7700  -24.5740 C   0  0  0  0  0  0  0  0  0  0  0  0
   -0.4660   25.2870  -24.3890 C   0  0  0  0  0  0  0  0  0  0  0  0
   -1.6080   25.9580  -25.1690 C   0  0  0  0  0  0  0  0  0  0  0  0
   -1.1970   26.4700  -26.5650 C   0  0  0  0  0  0  0  0  0  0  0  0
   -0.8920   25.3550  -27.4900 N   0  0  0  0  0  0  0  0  0  0  0  0
   -1.8990   24.5860  -28.0430 C   0  0  0  0  0  0  0  0  0  0  0  0
   -3.2900   24.8960  -27.8200 N   0  0  0  0  0  0  0  0  0  0  0  0
   -1.5660   23.4640  -28.8350 C   0  0  0  0  0  0  0  0  0  0  0  0
   -2.5770   22.5640  -29.3270 N   0  0  0  0  0  0  0  0  0  0  0  0
   -2.9460   21.4040  -28.4980 C   0  0  0  0  0  0  0  0  0  0  0  0
   -1.7990   20.4340  -28.4030 C   0  0  0  0  0  0  0  0  0  0  0  0
   -1.2730   19.8320  -29.5570 C   0  0  0  0  0  0  0  0  0  0  0  0
   -0.1610   18.9930  -29.4620 C   0  0  0  0  0  0  0  0  0  0  0  0
    0.4190   18.7650  -28.2120 C   0  0  0  0  0  0  0  0  0  0  0  0
   -0.0970   19.3580  -27.1020 N   0  0  0  0  0  0  0  0  0  0  0  0
   -1.1800   20.1800  -27.1680 C   0  0  0  0  0  0  0  0  0  0  0  0
   -3.2100   22.8400  -30.5960 C   0  0  0  0  0  0  0  0  0  0  0  0
   -2.5700   22.6470  -31.6650 O   0  0  0  0  0  0  0  0  0  0  0  0
   -4.5970   23.3420  -30.6880 C   0  0  0  0  0  0  0  0  0  0  0  0
   -5.6570   22.4250  -30.7750 C   0  0  0  0  0  0  0  0  0  0  0  0
   -6.9760   22.8780  -30.8560 C   0  0  0  0  0  0  0  0  0  0  0  0
   -7.2510   24.2470  -30.8410 C   0  0  0  0  0  0  0  0  0  0  0  0
   -6.2060   25.1670  -30.7350 C   0  0  0  0  0  0  0  0  0  0  0  0
   -4.8820   24.7220  -30.6500 C   0  0  0  0  0  0  0  0  0  0  0  0
   -3.8610   25.6550  -30.5110 O   0  0  0  0  0  0  0  0  0  0  0  0
   -0.2210   23.1920  -29.0800 C   0  0  0  0  0  0  0  0  0  0  0  0
    0.1160   22.2080  -29.7880 O   0  0  0  0  0  0  0  0  0  0  0  0
    0.7320   23.9900  -28.5540 N   0  0  0  0  0  0  0  0  0  0  0  0
    0.4210   25.0510  -27.7700 C   0  0  0  0  0  0  0  0  0  0  0  0
    1.3630   25.7450  -27.3010 O   0  0  0  0  0  0  0  0  0  0  0  0
   -0.4263   23.2806  -23.5889 H   0  0  0  0  0  0  0  0  0  0  0  0
   -1.3280   23.4511  -25.1331 H   0  0  0  0  0  0  0  0  0  0  0  0
    0.4679   23.4866  -25.1331 H   0  0  0  0  0  0  0  0  0  0  0  0
   -0.5932   25.5085  -23.3191 H   0  0  0  0  0  0  0  0  0  0  0  0
    0.4818   25.6876  -24.7779 H   0  0  0  0  0  0  0  0  0  0  0  0
   -2.4189   25.2253  -25.2940 H   0  0  0  0  0  0  0  0  0  0  0  0
   -1.9186   26.8374  -24.5858 H   0  0  0  0  0  0  0  0  0  0  0  0
   -2.0223   27.0647  -26.9836 H   0  0  0  0  0  0  0  0  0  0  0  0
   -0.2886   27.0800  -26.4524 H   0  0  0  0  0  0  0  0  0  0  0  0
   -3.9630   24.9810  -28.6110 H   0  0  0  0  0  0  0  0  0  0  0  0
   -3.6950   25.0800  -26.8790 H   0  0  0  0  0  0  0  0  0  0  0  0
   -3.2106   21.7509  -27.4882 H   0  0  0  0  0  0  0  0  0  0  0  0
   -3.8033   20.8948  -28.9624 H   0  0  0  0  0  0  0  0  0  0  0  0
   -1.7370   20.0213  -30.5362 H   0  0  0  0  0  0  0  0  0  0  0  0
    0.2540   18.5165  -30.3624 H   0  0  0  0  0  0  0  0  0  0  0  0
    1.2945   18.1048  -28.1251 H   0  0  0  0  0  0  0  0  0  0  0  0
   -1.5714   20.6465  -26.2519 H   0  0  0  0  0  0  0  0  0  0  0  0
   -5.4478   21.3451  -30.7794 H   0  0  0  0  0  0  0  0  0  0  0  0
   -7.8006   22.1540  -30.9318 H   0  0  0  0  0  0  0  0  0  0  0  0
   -8.2902   24.6004  -30.9126 H   0  0  0  0  0  0  0  0  0  0  0  0
   -6.4242   26.2450  -30.7183 H   0  0  0  0  0  0  0  0  0  0  0  0
  1  2  1  0
  2  3  1  0
  3  4  1  0
  4  5  1  0
  5  6  1  0
  6  7  1  0
  6  8  2  0
  8  9  1  0
  9 10  1  0
 10 11  1  0
 11 12  2  0
 12 13  1  0
 13 14  2  0
 14 15  1  0
 15 16  2  0
  9 17  1  0
 17 18  2  0
 17 19  1  0
 19 20  2  0
 20 21  1  0
 21 22  2  0
 22 23  1  0
 23 24  2  0
 24 25  1  0
  8 26  1  0
 26 27  2  0
 26 28  1  0
 28 29  1  0
 29 30  2  0
 29  5  1  0
 16 11  1  0
 24 19  1  0
  1 31  1  0
  1 32  1  0
  1 33  1  0
  2 34  1  0
  2 35  1  0
  3 36  1  0
  3 37  1  0
  4 38  1  0
  4 39  1  0
  7 40  1  0
  7 41  1  0
 10 42  1  0
 10 43  1  0
 12 44  1  0
 13 45  1  0
 14 46  1  0
 16 47  1  0
 20 48  1  0
 21 49  1  0
 22 50  1  0
 23 51  1  0
M  CHG  2  25  -1  28  -1
M  END
>  <UniqueID>  (10) 
10

>  <SMILES>  (10) 
CCCCn1c(N)c(N(Cc2cccnc2)C(=O)c2ccccc2[O-])c(=O)[n-]c1=O

>  <Energy>  (10) 
66.84116714032807

>  <Genealogy>  (10) 
CCCCn1c(N)c(N(Cc2cccnc2)C(=O)c2ccccc2[O-])c(=O)[n-]c1=O (protonated)
CCCCn1c(N)c(N(Cc2cccnc2)C(=O)c2ccccc2[O-])c(=O)[n-]c1=O (3D coordinates assigned)
CCCCn1c(N)c(N(Cc2cccnc2)C(=O)c2ccccc2[O-])c(=O)[n-]c1=O (optimized conformer: 66.84116714032807 kcal/mol)

>  <smiles>  (10) 
CCCCn1c(N)c(N(Cc2cccnc2)C(=O)c2ccccc2O)c(=O)[nH]c1=O

>  <score_type>  (10) 
oracle

>  <origin>  (10) 
adgpu

>  <m_score__min__energy>  (10) 
-11.4

>  <m_primary>  (10) 
energy

$$$$
10:0
     RDKit          3D

 29 30  0  0  0  0  0  0  0  0999 V2000
   -0.8530   22.7890  -25.9260 C   0  0  0  0  0  0  0  0  0  0  0  0
   -1.5590   23.4020  -27.0980 C   0  0  0  0  0  0  0  0  0  0  0  0
   -2.6840   22.7740  -27.6530 C   0  0  0  0  0  0  0  0  0  0  0  0
   -3.3170   23.3240  -28.7700 C   0  0  0  0  0  0  0  0  0  0  0  0
   -2.8210   24.4890  -29.3680 C   0  0  0  0  0  0  0  0  0  0  0  0
   -3.4980   25.0100  -30.5220 N   0  0  0  0  0  0  0  0  0  0  0  0
   -4.9180   25.1420  -30.6790 C   0  0  0  0  0  0  0  0  0  0  0  0
   -5.4410   26.2750  -30.5110 O   0  0  0  0  0  0  0  0  0  0  0  0
   -5.7850   23.9860  -31.0050 C   0  0  0  0  0  0  0  0  0  0  0  0
   -5.3940   23.0980  -32.0220 C   0  0  0  0  0  0  0  0  0  0  0  0
   -6.1830   21.9890  -32.3380 C   0  0  0  0  0  0  0  0  0  0  0  0
   -7.3740   21.7580  -31.6490 C   0  0  0  0  0  0  0  0  0  0  0  0
   -7.7880   22.6460  -30.6530 C   0  0  0  0  0  0  0  0  0  0  0  0
   -7.0080   23.7660  -30.3330 C   0  0  0  0  0  0  0  0  0  0  0  0
   -7.4590   24.6700  -29.3710 O   0  0  0  0  0  0  0  0  0  0  0  0
   -1.7050   25.1350  -28.7990 C   0  0  0  0  0  0  0  0  0  0  0  0
   -1.2370   26.3390  -29.3110 O   0  0  0  0  0  0  0  0  0  0  0  0
   -1.0680   24.5780  -27.6840 C   0  0  0  0  0  0  0  0  0  0  0  0
   -1.2925   23.1706  -24.9926 H   0  0  0  0  0  0  0  0  0  0  0  0
   -0.9631   21.6951  -25.9628 H   0  0  0  0  0  0  0  0  0  0  0  0
    0.2146   23.0515  -25.9628 H   0  0  0  0  0  0  0  0  0  0  0  0
   -3.0690   21.8451  -27.2069 H   0  0  0  0  0  0  0  0  0  0  0  0
   -4.2129   22.8378  -29.1835 H   0  0  0  0  0  0  0  0  0  0  0  0
   -4.4594   23.2776  -32.5735 H   0  0  0  0  0  0  0  0  0  0  0  0
   -5.8646   21.2968  -33.1314 H   0  0  0  0  0  0  0  0  0  0  0  0
   -7.9869   20.8769  -31.8899 H   0  0  0  0  0  0  0  0  0  0  0  0
   -8.7314   22.4653  -30.1169 H   0  0  0  0  0  0  0  0  0  0  0  0
   -6.8790   25.4320  -29.0420 H   0  0  0  0  0  0  0  0  0  0  0  0
   -0.1760   25.0660  -27.2643 H   0  0  0  0  0  0  0  0  0  0  0  0
  1  2  1  0
  2  3  2  0
  3  4  1  0
  4  5  2  0
  5  6  1  0
  6  7  1  0
  7  8  2  0
  7  9  1  0
  9 10  2  0
 10 11  1  0
 11 12  2  0
 12 13  1  0
 13 14  2  0
 14 15  1  0
  5 16  1  0
 16 17  1  0
 16 18  2  0
 18  2  1  0
 14  9  1  0
  1 19  1  0
  1 20  1  0
  1 21  1  0
  3 22  1  0
  4 23  1  0
 10 24  1  0
 11 25  1  0
 12 26  1  0
 13 27  1  0
 15 28  1  0
 18 29  1  0
M  CHG  2   6  -1  17  -1
M  END
>  <UniqueID>  (11) 
11

>  <SMILES>  (11) 
Cc1ccc([N-]C(=O)c2ccccc2O)c([O-])c1

>  <Energy>  (11) 
38.89262714448265

>  <Genealogy>  (11) 
Cc1ccc([N-]C(=O)c2ccccc2O)c([O-])c1 (protonated)
Cc1ccc([N-]C(=O)c2ccccc2O)c([O-])c1 (3D coordinates assigned)
Cc1ccc([N-]C(=O)c2ccccc2O)c([O-])c1 (optimized conformer: 38.89262714448265 kcal/mol)

>  <smiles>  (11) 
Cc1ccc(NC(=O)c2ccccc2O)c(O)c1

>  <score_type>  (11) 
oracle

>  <origin>  (11) 
adgpu

>  <m_score__min__energy>  (11) 
-11.65

>  <m_primary>  (11) 
energy

$$$$
11:0
     RDKit          3D

 58 61  0  0  0  0  0  0  0  0999 V2000
   -5.7470   25.9950  -30.0990 C   0  0  0  0  0  0  0  0  0  0  0  0
   -4.7580   25.3440  -30.9480 N   0  0  0  0  0  0  0  0  0  0  0  0
   -4.6320   23.9260  -31.1160 C   0  0  0  0  0  0  0  0  0  0  0  0
   -3.4870   23.4060  -31.0360 O   0  0  0  0  0  0  0  0  0  0  0  0
   -5.7910   23.0620  -31.4180 C   0  0  0  0  0  0  0  0  0  0  0  0
   -7.1000   23.5210  -31.2140 C   0  0  0  0  0  0  0  0  0  0  0  0
   -8.1880   22.6920  -31.4930 C   0  0  0  0  0  0  0  0  0  0  0  0
   -7.9850   21.3890  -31.9600 C   0  0  0  0  0  0  0  0  0  0  0  0
   -9.4000   20.4190  -32.3590 Cl  0  0  0  0  0  0  0  0  0  0  0  0
   -6.6720   20.9030  -32.1380 C   0  0  0  0  0  0  0  0  0  0  0  0
   -6.4110   19.5240  -32.6080 C   0  0  0  0  0  0  0  0  0  0  0  0
   -6.2260   19.2580  -33.9730 C   0  0  0  0  0  0  0  0  0  0  0  0
   -6.0040   17.9520  -34.4150 C   0  0  0  0  0  0  0  0  0  0  0  0
   -5.9740   16.8840  -33.5010 C   0  0  0  0  0  0  0  0  0  0  0  0
   -5.7640   15.5320  -33.9640 N   0  0  0  0  0  0  0  0  0  0  0  0
   -6.9120   14.6640  -34.2390 C   0  0  0  0  0  0  0  0  0  0  0  0
   -4.4330   15.0310  -34.2080 C   0  0  0  0  0  0  0  0  0  0  0  0
   -4.2730   13.8210  -34.5190 O   0  0  0  0  0  0  0  0  0  0  0  0
   -3.2480   15.9030  -34.1070 C   0  0  0  0  0  0  0  0  0  0  0  0
   -2.1270   15.6950  -33.3080 C   0  0  0  0  0  0  0  0  0  0  0  0
   -1.1670   16.7070  -33.4210 C   0  0  0  0  0  0  0  0  0  0  0  0
   -1.5380   17.7290  -34.2910 C   0  0  0  0  0  0  0  0  0  0  0  0
   -0.7260   18.9080  -34.6610 C   0  0  0  0  0  0  0  0  0  0  0  0
   -0.9800   20.1240  -34.0040 C   0  0  0  0  0  0  0  0  0  0  0  0
   -0.2710   21.2770  -34.3380 C   0  0  0  0  0  0  0  0  0  0  0  0
    0.7020   21.2430  -35.3430 C   0  0  0  0  0  0  0  0  0  0  0  0
    1.4830   22.4770  -35.6830 C   0  0  0  0  0  0  0  0  0  0  0  0
    0.9920   20.0290  -35.9790 C   0  0  0  0  0  0  0  0  0  0  0  0
    0.2990   18.8530  -35.6400 C   0  0  0  0  0  0  0  0  0  0  0  0
    0.6780   17.5700  -36.3330 C   0  0  0  0  0  0  0  0  0  0  0  0
   -3.0490   17.3530  -34.9360 S   0  0  0  0  0  0  0  0  0  0  0  0
   -6.1660   17.1530  -32.1340 C   0  0  0  0  0  0  0  0  0  0  0  0
   -6.3890   18.4600  -31.6930 C   0  0  0  0  0  0  0  0  0  0  0  0
   -5.5840   21.7490  -31.8630 C   0  0  0  0  0  0  0  0  0  0  0  0
   -5.4911   25.8266  -29.0425 H   0  0  0  0  0  0  0  0  0  0  0  0
   -5.7545   27.0752  -30.3067 H   0  0  0  0  0  0  0  0  0  0  0  0
   -6.7421   25.5748  -30.3067 H   0  0  0  0  0  0  0  0  0  0  0  0
   -7.2704   24.5386  -30.8325 H   0  0  0  0  0  0  0  0  0  0  0  0
   -9.2118   23.0658  -31.3446 H   0  0  0  0  0  0  0  0  0  0  0  0
   -6.2560   20.0833  -34.6996 H   0  0  0  0  0  0  0  0  0  0  0  0
   -5.8514   17.7573  -35.4868 H   0  0  0  0  0  0  0  0  0  0  0  0
   -7.3545   14.3294  -33.2892 H   0  0  0  0  0  0  0  0  0  0  0  0
   -7.6633   15.2219  -34.8171 H   0  0  0  0  0  0  0  0  0  0  0  0
   -6.5800   13.7891  -34.8171 H   0  0  0  0  0  0  0  0  0  0  0  0
   -2.0075   14.8203  -32.6517 H   0  0  0  0  0  0  0  0  0  0  0  0
   -0.2119   16.6962  -32.8754 H   0  0  0  0  0  0  0  0  0  0  0  0
   -1.7473   20.1666  -33.2169 H   0  0  0  0  0  0  0  0  0  0  0  0
   -0.4777   22.2188  -33.8085 H   0  0  0  0  0  0  0  0  0  0  0  0
    1.7997   22.9775  -34.7561 H   0  0  0  0  0  0  0  0  0  0  0  0
    2.3700   22.1991  -36.2712 H   0  0  0  0  0  0  0  0  0  0  0  0
    0.8522   23.1597  -36.2712 H   0  0  0  0  0  0  0  0  0  0  0  0
    1.7721   19.9950  -36.7538 H   0  0  0  0  0  0  0  0  0  0  0  0
    0.9054   16.8003  -35.5808 H   0  0  0  0  0  0  0  0  0  0  0  0
   -0.1587   17.2321  -36.9621 H   0  0  0  0  0  0  0  0  0  0  0  0
    1.5640   17.7409  -36.9621 H   0  0  0  0  0  0  0  0  0  0  0  0
   -6.1404   16.3283  -31.4065 H   0  0  0  0  0  0  0  0  0  0  0  0
   -6.5482   18.6561  -30.6224 H   0  0  0  0  0  0  0  0  0  0  0  0
   -4.5579   21.3764  -31.9986 H   0  0  0  0  0  0  0  0  0  0  0  0
  1  2  1  0
  2  3  1  0
  3  4  2  0
  3  5  1  0
  5  6  2  0
  6  7  1  0
  7  8  2  0
  8  9  1  0
  8 10  1  0
 10 11  1  0
 11 12  2  0
 12 13  1  0
 13 14  2  0
 14 15  1  0
 15 16  1  0
 15 17  1  0
 17 18  2  0
 17 19  1  0
 19 20  2  0
 20 21  1  0
 21 22  2  0
 22 23  1  0
 23 24  2  0
 24 25  1  0
 25 26  2  0
 26 27  1  0
 26 28  1  0
 28 29  2  0
 29 30  1  0
 22 31  1  0
 14 32  1  0
 32 33  2  0
 10 34  2  0
 34  5  1  0
 33 11  1  0
 31 19  1  0
 29 23  1  0
  1 35  1  0
  1 36  1  0
  1 37  1  0
  6 38  1  0
  7 39  1  0
 12 40  1  0
 13 41  1  0
 16 42  1  0
 16 43  1  0
 16 44  1  0
 20 45  1  0
 21 46  1  0
 24 47  1  0
 25 48  1  0
 27 49  1  0
 27 50  1  0
 27 51  1  0
 28 52  1  0
 30 53  1  0
 30 54  1  0
 30 55  1  0
 32 56  1  0
 33 57  1  0
 34 58  1  0
M  CHG  1   2  -1
M  END
>  <UniqueID>  (12) 
12

>  <SMILES>  (12) 
C[N-]C(=O)c1ccc(Cl)c(-c2ccc(N(C)C(=O)c3ccc(-c4ccc(C)cc4C)s3)cc2)c1

>  <Energy>  (12) 
111.19309216708719

>  <Genealogy>  (12) 
C[N-]C(=O)c1ccc(Cl)c(-c2ccc(N(C)C(=O)c3ccc(-c4ccc(C)cc4C)s3)cc2)c1 (protonated)
C[N-]C(=O)c1ccc(Cl)c(-c2ccc(N(C)C(=O)c3ccc(-c4ccc(C)cc4C)s3)cc2)c1 (3D coordinates assigned)
C[N-]C(=O)c1ccc(Cl)c(-c2ccc(N(C)C(=O)c3ccc(-c4ccc(C)cc4C)s3)cc2)c1 (optimized conformer: 111.19309216708719 kcal/mol)

>  <smiles>  (12) 
CNC(=O)c1ccc(Cl)c(-c2ccc(N(C)C(=O)c3ccc(-c4ccc(C)cc4C)s3)cc2)c1

>  <score_type>  (12) 
oracle

>  <origin>  (12) 
adgpu

>  <m_score__min__energy>  (12) 
-11.75

>  <m_primary>  (12) 
energy

$$$$
12:0
     RDKit          3D

 54 57  0  0  0  0  0  0  0  0999 V2000
   -5.5960   24.0810  -31.9500 O   0  0  0  0  0  0  0  0  0  0  0  0
   -5.0560   23.0690  -31.4240 C   0  0  0  0  0  0  0  0  0  0  0  0
   -5.3730   21.7520  -31.8930 N   0  0  0  0  0  0  0  0  0  0  0  0
   -4.5100   20.8750  -32.6290 C   0  0  0  0  0  0  0  0  0  0  0  0
   -3.1410   21.1580  -32.7910 C   0  0  0  0  0  0  0  0  0  0  0  0
   -2.3050   20.2710  -33.4840 C   0  0  0  0  0  0  0  0  0  0  0  0
   -0.5920   20.6490  -33.6990 S   0  0  0  0  0  0  0  0  0  0  0  0
   -0.4650   21.9610  -34.4220 O   0  0  0  0  0  0  0  0  0  0  0  0
    0.0410   19.5850  -34.5530 O   0  0  0  0  0  0  0  0  0  0  0  0
    0.2720   20.7510  -32.1830 N   0  0  0  0  0  0  0  0  0  0  0  0
    0.4720   19.4370  -31.5770 C   0  0  0  0  0  0  0  0  0  0  0  0
    0.6700   19.6870  -30.0940 C   0  0  0  0  0  0  0  0  0  0  0  0
   -0.0590   20.9930  -29.8180 C   0  0  0  0  0  0  0  0  0  0  0  0
   -0.4500   21.5410  -31.1860 C   0  0  0  0  0  0  0  0  0  0  0  0
   -2.8300   19.0700  -33.9770 C   0  0  0  0  0  0  0  0  0  0  0  0
   -4.1800   18.7660  -33.7930 C   0  0  0  0  0  0  0  0  0  0  0  0
   -5.0240   19.6610  -33.1240 C   0  0  0  0  0  0  0  0  0  0  0  0
   -6.4110   19.3260  -32.9610 N   0  0  0  0  0  0  0  0  0  0  0  0
   -6.8140   17.9370  -32.7300 C   0  0  0  0  0  0  0  0  0  0  0  0
   -8.1080   17.9130  -31.9120 C   0  0  0  0  0  0  0  0  0  0  0  0
   -9.0970   18.7270  -32.5160 O   0  0  0  0  0  0  0  0  0  0  0  0
   -8.6880   20.0820  -32.4860 C   0  0  0  0  0  0  0  0  0  0  0  0
   -7.4360   20.2950  -33.3430 C   0  0  0  0  0  0  0  0  0  0  0  0
   -4.1880   23.2400  -30.2410 C   0  0  0  0  0  0  0  0  0  0  0  0
   -3.9300   22.1240  -29.4260 C   0  0  0  0  0  0  0  0  0  0  0  0
   -3.0590   22.2220  -28.3390 C   0  0  0  0  0  0  0  0  0  0  0  0
   -2.4350   23.4360  -28.0500 C   0  0  0  0  0  0  0  0  0  0  0  0
   -2.6970   24.5600  -28.8360 C   0  0  0  0  0  0  0  0  0  0  0  0
   -3.5840   24.4830  -29.9180 C   0  0  0  0  0  0  0  0  0  0  0  0
   -3.8650   25.6590  -30.6170 O   0  0  0  0  0  0  0  0  0  0  0  0
   -2.7227   22.0841  -32.3698 H   0  0  0  0  0  0  0  0  0  0  0  0
   -0.4101   18.8011  -31.7431 H   0  0  0  0  0  0  0  0  0  0  0  0
    1.3358   18.9173  -32.0171 H   0  0  0  0  0  0  0  0  0  0  0  0
    0.2353   18.8682  -29.5018 H   0  0  0  0  0  0  0  0  0  0  0  0
    1.7342   19.7404  -29.8210 H   0  0  0  0  0  0  0  0  0  0  0  0
   -0.9552   20.8108  -29.2068 H   0  0  0  0  0  0  0  0  0  0  0  0
    0.5716   21.7014  -29.2607 H   0  0  0  0  0  0  0  0  0  0  0  0
   -1.5349   21.4408  -31.3375 H   0  0  0  0  0  0  0  0  0  0  0  0
   -0.1956   22.6079  -31.2699 H   0  0  0  0  0  0  0  0  0  0  0  0
   -2.1767   18.3641  -34.5108 H   0  0  0  0  0  0  0  0  0  0  0  0
   -4.5835   17.8171  -34.1761 H   0  0  0  0  0  0  0  0  0  0  0  0
   -6.9809   17.4377  -33.6958 H   0  0  0  0  0  0  0  0  0  0  0  0
   -6.0207   17.4108  -32.1788 H   0  0  0  0  0  0  0  0  0  0  0  0
   -8.4784   16.8790  -31.8524 H   0  0  0  0  0  0  0  0  0  0  0  0
   -7.8970   18.3014  -30.9047 H   0  0  0  0  0  0  0  0  0  0  0  0
   -9.5016   20.7123  -32.8743 H   0  0  0  0  0  0  0  0  0  0  0  0
   -8.4527   20.3549  -31.4467 H   0  0  0  0  0  0  0  0  0  0  0  0
   -7.6911   20.1591  -34.4043 H   0  0  0  0  0  0  0  0  0  0  0  0
   -7.0532   21.3140  -33.1844 H   0  0  0  0  0  0  0  0  0  0  0  0
   -4.4192   21.1638  -29.6468 H   0  0  0  0  0  0  0  0  0  0  0  0
   -2.8646   21.3410  -27.7097 H   0  0  0  0  0  0  0  0  0  0  0  0
   -1.7367   23.5077  -27.2031 H   0  0  0  0  0  0  0  0  0  0  0  0
   -2.2025   25.5147  -28.6036 H   0  0  0  0  0  0  0  0  0  0  0  0
   -4.1590   25.6730  -31.5840 H   0  0  0  0  0  0  0  0  0  0  0  0
  1  2  2  0
  2  3  1  0
  3  4  1  0
  4  5  2  0
  5  6  1  0
  6  7  1  0
  7  8  2  0
  7  9  2  0
  7 10  1  0
 10 11  1  0
 11 12  1  0
 12 13  1  0
 13 14  1  0
  6 15  2  0
 15 16  1  0
 16 17  2  0
 17 18  1  0
 18 19  1  0
 19 20  1  0
 20 21  1  0
 21 22  1  0
 22 23  1  0
  2 24  1  0
 24 25  2  0
 25 26  1  0
 26 27  2  0
 27 28  1  0
 28 29  2  0
 29 30  1  0
 17  4  1  0
 23 18  1  0
 29 24  1  0
 14 10  1  0
  5 31  1  0
 11 32  1  0
 11 33  1  0
 12 34  1  0
 12 35  1  0
 13 36  1  0
 13 37  1  0
 14 38  1  0
 14 39  1  0
 15 40  1  0
 16 41  1  0
 19 42  1  0
 19 43  1  0
 20 44  1  0
 20 45  1  0
 22 46  1  0
 22 47  1  0
 23 48  1  0
 23 49  1  0
 25 50  1  0
 26 51  1  0
 27 52  1  0
 28 53  1  0
 30 54  1  0
M  CHG  1   3  -1
M  END
>  <UniqueID>  (13) 
13

>  <SMILES>  (13) 
O=C([N-]c1cc(S(=O)(=O)N2CCCC2)ccc1N1CCOCC1)c1ccccc1O

>  <Energy>  (13) 
72.24001970716687

>  <Genealogy>  (13) 
O=C([N-]c1cc(S(=O)(=O)N2CCCC2)ccc1N1CCOCC1)c1ccccc1O (protonated)
O=C([N-]c1cc(S(=O)(=O)N2CCCC2)ccc1N1CCOCC1)c1ccccc1O (3D coordinates assigned)
O=C([N-]c1cc(S(=O)(=O)N2CCCC2)ccc1N1CCOCC1)c1ccccc1O (nonaromatic ring conformer: 72.24001970716687 kcal/mol)

>  <smiles>  (13) 
O=C(Nc1cc(S(=O)(=O)N2CCCC2)ccc1N1CCOCC1)c1ccccc1O

>  <score_type>  (13) 
oracle

>  <origin>  (13) 
adgpu

>  <m_score__min__energy>  (13) 
-10.640000000000001

>  <m_primary>  (13) 
energy

$$$$
13:0
     RDKit          3D

 57 61  0  0  0  0  0  0  0  0999 V2000
   -4.9150   18.0460  -34.5010 C   0  0  0  0  0  0  0  0  0  0  0  0
   -4.8570   19.4310  -34.1820 O   0  0  0  0  0  0  0  0  0  0  0  0
   -3.9170   20.0100  -33.3170 C   0  0  0  0  0  0  0  0  0  0  0  0
   -2.7940   20.7100  -33.8040 C   0  0  0  0  0  0  0  0  0  0  0  0
   -1.8820   21.2920  -32.9190 C   0  0  0  0  0  0  0  0  0  0  0  0
   -2.0800   21.1850  -31.5420 C   0  0  0  0  0  0  0  0  0  0  0  0
   -3.1860   20.4890  -31.0460 C   0  0  0  0  0  0  0  0  0  0  0  0
   -4.1110   19.8970  -31.9240 C   0  0  0  0  0  0  0  0  0  0  0  0
   -5.2730   19.1170  -31.3590 C   0  0  0  0  0  0  0  0  0  0  0  0
   -6.5340   19.7970  -31.6540 N   0  0  0  0  0  0  0  0  0  0  0  0
   -7.7030   19.2040  -32.2240 C   0  0  0  0  0  0  0  0  0  0  0  0
   -7.8270   17.9790  -32.4890 O   0  0  0  0  0  0  0  0  0  0  0  0
   -8.7190   20.2210  -32.4350 C   0  0  0  0  0  0  0  0  0  0  0  0
   -9.8710   20.0520  -32.9080 O   0  0  0  0  0  0  0  0  0  0  0  0
   -8.1300   21.4650  -31.9730 C   0  0  0  0  0  0  0  0  0  0  0  0
   -8.6760   22.7420  -31.9050 C   0  0  0  0  0  0  0  0  0  0  0  0
   -7.8870   23.7720  -31.3710 C   0  0  0  0  0  0  0  0  0  0  0  0
   -6.5730   23.5130  -30.9190 C   0  0  0  0  0  0  0  0  0  0  0  0
   -5.5940   24.8130  -30.2410 S   0  0  0  0  0  0  0  0  0  0  0  0
   -4.4760   25.1840  -31.1740 O   0  0  0  0  0  0  0  0  0  0  0  0
   -6.4710   26.0170  -30.0470 O   0  0  0  0  0  0  0  0  0  0  0  0
   -4.9240   24.3430  -28.7080 N   0  0  0  0  0  0  0  0  0  0  0  0
   -3.7610   23.5080  -28.5470 C   0  0  0  0  0  0  0  0  0  0  0  0
   -3.8620   22.1890  -28.0670 C   0  0  0  0  0  0  0  0  0  0  0  0
   -2.7160   21.4120  -27.8500 C   0  0  0  0  0  0  0  0  0  0  0  0
   -1.4470   21.9330  -28.1710 C   0  0  0  0  0  0  0  0  0  0  0  0
   -1.3440   23.2360  -28.6730 C   0  0  0  0  0  0  0  0  0  0  0  0
   -2.4860   24.0160  -28.8690 C   0  0  0  0  0  0  0  0  0  0  0  0
   -2.3430   25.3010  -29.3820 O   0  0  0  0  0  0  0  0  0  0  0  0
   -0.1910   21.1470  -27.8750 C   0  0  0  0  0  0  0  0  0  0  0  0
   -0.4480   19.7040  -27.7610 N   0  0  0  0  0  0  0  0  0  0  0  0
   -1.5410   19.4460  -26.8170 C   0  0  0  0  0  0  0  0  0  0  0  0
   -2.8660   20.0000  -27.3500 C   0  0  0  0  0  0  0  0  0  0  0  0
   -6.0500   22.2070  -30.9890 C   0  0  0  0  0  0  0  0  0  0  0  0
   -6.8480   21.1910  -31.5280 C   0  0  0  0  0  0  0  0  0  0  0  0
   -4.9397   17.4566  -33.5726 H   0  0  0  0  0  0  0  0  0  0  0  0
   -5.8224   17.8428  -35.0886 H   0  0  0  0  0  0  0  0  0  0  0  0
   -4.0277   17.7676  -35.0886 H   0  0  0  0  0  0  0  0  0  0  0  0
   -2.6344   20.7987  -34.8887 H   0  0  0  0  0  0  0  0  0  0  0  0
   -1.0079   21.8346  -33.3083 H   0  0  0  0  0  0  0  0  0  0  0  0
   -1.3652   21.6487  -30.8463 H   0  0  0  0  0  0  0  0  0  0  0  0
   -3.3340   20.4037  -29.9594 H   0  0  0  0  0  0  0  0  0  0  0  0
   -5.2886   18.1131  -31.8084 H   0  0  0  0  0  0  0  0  0  0  0  0
   -5.1551   19.0405  -30.2680 H   0  0  0  0  0  0  0  0  0  0  0  0
   -9.6983   22.9392  -32.2601 H   0  0  0  0  0  0  0  0  0  0  0  0
   -8.2951   24.7913  -31.3034 H   0  0  0  0  0  0  0  0  0  0  0  0
   -5.4320   24.6850  -27.8620 H   0  0  0  0  0  0  0  0  0  0  0  0
   -4.8542   21.7619  -27.8592 H   0  0  0  0  0  0  0  0  0  0  0  0
   -0.3539   23.6495  -28.9154 H   0  0  0  0  0  0  0  0  0  0  0  0
    0.5306   21.3144  -28.6882 H   0  0  0  0  0  0  0  0  0  0  0  0
    0.2033   21.4953  -26.9090 H   0  0  0  0  0  0  0  0  0  0  0  0
   -0.7120   19.3310  -28.7030 H   0  0  0  0  0  0  0  0  0  0  0  0
   -1.6387   18.3606  -26.6671 H   0  0  0  0  0  0  0  0  0  0  0  0
   -1.3086   19.9460  -25.8652 H   0  0  0  0  0  0  0  0  0  0  0  0
   -3.2119   19.3632  -28.1776 H   0  0  0  0  0  0  0  0  0  0  0  0
   -3.5939   20.0029  -26.5253 H   0  0  0  0  0  0  0  0  0  0  0  0
   -5.0342   21.9897  -30.6271 H   0  0  0  0  0  0  0  0  0  0  0  0
  1  2  1  0
  2  3  1  0
  3  4  2  0
  4  5  1  0
  5  6  2  0
  6  7  1  0
  7  8  2  0
  8  9  1  0
  9 10  1  0
 10 11  1  0
 11 12  2  0
 11 13  1  0
 13 14  2  0
 13 15  1  0
 15 16  2  0
 16 17  1  0
 17 18  2  0
 18 19  1  0
 19 20  2  0
 19 21  2  0
 19 22  1  0
 22 23  1  0
 23 24  2  0
 24 25  1  0
 25 26  2  0
 26 27  1  0
 27 28  2  0
 28 29  1  0
 26 30  1  0
 30 31  1  0
 31 32  1  0
 32 33  1  0
 18 34  1  0
 34 35  2  0
  8  3  1  0
 35 10  1  0
 35 15  1  0
 28 23  1  0
 33 25  1  0
  1 36  1  0
  1 37  1  0
  1 38  1  0
  4 39  1  0
  5 40  1  0
  6 41  1  0
  7 42  1  0
  9 43  1  0
  9 44  1  0
 16 45  1  0
 17 46  1  0
 22 47  1  0
 24 48  1  0
 27 49  1  0
 30 50  1  0
 30 51  1  0
 31 52  1  0
 32 53  1  0
 32 54  1  0
 33 55  1  0
 33 56  1  0
 34 57  1  0
M  CHG  1  29  -1
M  END
>  <UniqueID>  (14) 
14

>  <SMILES>  (14) 
COc1ccccc1CN1C(=O)C(=O)c2ccc(S(=O)(=O)Nc3cc4c(cc3[O-])CNCC4)cc21

>  <Energy>  (14) 
96.57748121342117

>  <Genealogy>  (14) 
COc1ccccc1CN1C(=O)C(=O)c2ccc(S(=O)(=O)Nc3cc4c(cc3[O-])CNCC4)cc21 (protonated)
COc1ccccc1CN1C(=O)C(=O)c2ccc(S(=O)(=O)Nc3cc4c(cc3[O-])CNCC4)cc21 (3D coordinates assigned)
COc1ccccc1CN1C(=O)C(=O)c2ccc(S(=O)(=O)Nc3cc4c(cc3[O-])CNCC4)cc21 (nonaromatic ring conformer: 96.57748121342117 kcal/mol)

>  <smiles>  (14) 
COc1ccccc1CN1C(=O)C(=O)c2ccc(S(=O)(=O)Nc3cc4c(cc3O)CNCC4)cc21

>  <score_type>  (14) 
oracle

>  <origin>  (14) 
adgpu

>  <m_score__min__energy>  (14) 
-14.640000000000001

>  <m_primary>  (14) 
energy

$$$$
14:0
     RDKit          3D

 56 59  0  0  0  0  0  0  0  0999 V2000
   -8.0250   18.2940  -31.5960 C   0  0  0  0  0  0  0  0  0  0  0  0
   -6.6870   18.6110  -32.1950 C   0  0  0  0  0  0  0  0  0  0  0  0
   -5.6670   17.6490  -32.2080 C   0  0  0  0  0  0  0  0  0  0  0  0
   -4.4130   17.9600  -32.7410 C   0  0  0  0  0  0  0  0  0  0  0  0
   -4.1650   19.2390  -33.2520 C   0  0  0  0  0  0  0  0  0  0  0  0
   -2.5620   19.6280  -33.9550 S   0  0  0  0  0  0  0  0  0  0  0  0
   -1.7330   19.5200  -32.3630 C   0  0  0  0  0  0  0  0  0  0  0  0
   -0.8210   18.4770  -32.1500 C   0  0  0  0  0  0  0  0  0  0  0  0
   -0.1400   18.3720  -30.9370 C   0  0  0  0  0  0  0  0  0  0  0  0
   -0.3690   19.3010  -29.9150 C   0  0  0  0  0  0  0  0  0  0  0  0
    0.4490   19.1340  -28.3580 S   0  0  0  0  0  0  0  0  0  0  0  0
    1.0870   17.7740  -28.2760 O   0  0  0  0  0  0  0  0  0  0  0  0
    1.5390   20.1650  -28.2560 O   0  0  0  0  0  0  0  0  0  0  0  0
   -0.6640   19.3400  -27.0250 N   0  0  0  0  0  0  0  0  0  0  0  0
   -1.3190   20.6670  -27.0580 C   0  0  0  0  0  0  0  0  0  0  0  0
   -2.7800   20.5780  -27.5390 C   0  0  0  0  0  0  0  0  0  0  0  0
   -3.5830   19.7410  -26.7200 O   0  0  0  0  0  0  0  0  0  0  0  0
   -2.8880   18.6160  -26.1900 C   0  0  0  0  0  0  0  0  0  0  0  0
   -1.6280   18.2200  -26.9800 C   0  0  0  0  0  0  0  0  0  0  0  0
   -1.2710   20.3510  -30.1280 C   0  0  0  0  0  0  0  0  0  0  0  0
   -1.9590   20.4720  -31.3480 C   0  0  0  0  0  0  0  0  0  0  0  0
   -2.9270   21.5190  -31.5350 N   0  0  0  0  0  0  0  0  0  0  0  0
   -3.3550   22.3910  -30.4760 C   0  0  0  0  0  0  0  0  0  0  0  0
   -2.6080   22.5740  -29.4760 O   0  0  0  0  0  0  0  0  0  0  0  0
   -4.6390   23.1240  -30.5700 C   0  0  0  0  0  0  0  0  0  0  0  0
   -5.8420   22.4050  -30.7060 C   0  0  0  0  0  0  0  0  0  0  0  0
   -7.0650   23.0770  -30.7920 C   0  0  0  0  0  0  0  0  0  0  0  0
   -7.1040   24.4710  -30.7520 C   0  0  0  0  0  0  0  0  0  0  0  0
   -5.9160   25.1960  -30.6320 C   0  0  0  0  0  0  0  0  0  0  0  0
   -4.6850   24.5340  -30.5520 C   0  0  0  0  0  0  0  0  0  0  0  0
   -3.5170   25.2910  -30.4870 O   0  0  0  0  0  0  0  0  0  0  0  0
   -5.1710   20.2110  -33.2150 C   0  0  0  0  0  0  0  0  0  0  0  0
   -6.4270   19.9010  -32.6860 C   0  0  0  0  0  0  0  0  0  0  0  0
   -7.9491   18.3120  -30.4988 H   0  0  0  0  0  0  0  0  0  0  0  0
   -8.7607   19.0427  -31.9250 H   0  0  0  0  0  0  0  0  0  0  0  0
   -8.3466   17.2948  -31.9250 H   0  0  0  0  0  0  0  0  0  0  0  0
   -5.8544   16.6459  -31.7972 H   0  0  0  0  0  0  0  0  0  0  0  0
   -3.6197   17.1982  -32.7589 H   0  0  0  0  0  0  0  0  0  0  0  0
   -0.6413   17.7371  -32.9439 H   0  0  0  0  0  0  0  0  0  0  0  0
    0.5805   17.5552  -30.7828 H   0  0  0  0  0  0  0  0  0  0  0  0
   -1.3041   21.0956  -26.0450 H   0  0  0  0  0  0  0  0  0  0  0  0
   -0.7661   21.3011  -27.7667 H   0  0  0  0  0  0  0  0  0  0  0  0
   -3.2121   21.5896  -27.5368 H   0  0  0  0  0  0  0  0  0  0  0  0
   -2.7686   20.1389  -28.5475 H   0  0  0  0  0  0  0  0  0  0  0  0
   -2.5879   18.8513  -25.1582 H   0  0  0  0  0  0  0  0  0  0  0  0
   -3.5788   17.7621  -26.2502 H   0  0  0  0  0  0  0  0  0  0  0  0
   -1.1538   17.3552  -26.4930 H   0  0  0  0  0  0  0  0  0  0  0  0
   -1.9220   17.9658  -28.0091 H   0  0  0  0  0  0  0  0  0  0  0  0
   -1.4431   21.0897  -29.3313 H   0  0  0  0  0  0  0  0  0  0  0  0
   -3.3010   21.6930  -32.4930 H   0  0  0  0  0  0  0  0  0  0  0  0
   -5.8194   21.3059  -30.7449 H   0  0  0  0  0  0  0  0  0  0  0  0
   -7.9992   22.5049  -30.8915 H   0  0  0  0  0  0  0  0  0  0  0  0
   -8.0676   24.9978  -30.8148 H   0  0  0  0  0  0  0  0  0  0  0  0
   -5.9480   26.2951  -30.6001 H   0  0  0  0  0  0  0  0  0  0  0  0
   -4.9729   21.2210  -33.6030 H   0  0  0  0  0  0  0  0  0  0  0  0
   -7.2137   20.6691  -32.6541 H   0  0  0  0  0  0  0  0  0  0  0  0
  1  2  1  0
  2  3  2  0
  3  4  1  0
  4  5  2  0
  5  6  1  0
  6  7  1  0
  7  8  2  0
  8  9  1  0
  9 10  2  0
 10 11  1  0
 11 12  2  0
 11 13  2  0
 11 14  1  0
 14 15  1  0
 15 16  1  0
 16 17  1  0
 17 18  1  0
 18 19  1  0
 10 20  1  0
 20 21  2  0
 21 22  1  0
 22 23  1  0
 23 24  2  0
 23 25  1  0
 25 26  2  0
 26 27  1  0
 27 28  2  0
 28 29  1  0
 29 30  2  0
 30 31  1  0
  5 32  1  0
 32 33  2  0
 33  2  1  0
 21  7  1  0
 30 25  1  0
 19 14  1  0
  1 34  1  0
  1 35  1  0
  1 36  1  0
  3 37  1  0
  4 38  1  0
  8 39  1  0
  9 40  1  0
 15 41  1  0
 15 42  1  0
 16 43  1  0
 16 44  1  0
 18 45  1  0
 18 46  1  0
 19 47  1  0
 19 48  1  0
 20 49  1  0
 22 50  1  0
 26 51  1  0
 27 52  1  0
 28 53  1  0
 29 54  1  0
 32 55  1  0
 33 56  1  0
M  CHG  1  31  -1
M  END
>  <UniqueID>  (15) 
15

>  <SMILES>  (15) 
Cc1ccc(Sc2ccc(S(=O)(=O)N3CCOCC3)cc2NC(=O)c2ccccc2[O-])cc1

>  <Energy>  (15) 
73.11439663547536

>  <Genealogy>  (15) 
Cc1ccc(Sc2ccc(S(=O)(=O)N3CCOCC3)cc2NC(=O)c2ccccc2[O-])cc1 (protonated)
Cc1ccc(Sc2ccc(S(=O)(=O)N3CCOCC3)cc2NC(=O)c2ccccc2[O-])cc1 (3D coordinates assigned)
Cc1ccc(Sc2ccc(S(=O)(=O)N3CCOCC3)cc2NC(=O)c2ccccc2[O-])cc1 (nonaromatic ring conformer: 73.11439663547536 kcal/mol)

>  <smiles>  (15) 
Cc1ccc(Sc2ccc(S(=O)(=O)N3CCOCC3)cc2NC(=O)c2ccccc2O)cc1

>  <score_type>  (15) 
oracle

>  <origin>  (15) 
adgpu

>  <m_score__min__energy>  (15) 
-12.85

>  <m_primary>  (15) 
energy

$$$$
15:0
     RDKit          3D

 47 49  0  0  0  0  0  0  0  0999 V2000
   -8.5200   23.2740  -32.0370 C   0  0  0  0  0  0  0  0  0  0  0  0
   -7.6880   22.8320  -30.8700 C   0  0  0  0  0  0  0  0  0  0  0  0
   -8.1340   21.9120  -30.1320 O   0  0  0  0  0  0  0  0  0  0  0  0
   -6.3680   23.4480  -30.5660 C   0  0  0  0  0  0  0  0  0  0  0  0
   -6.0630   24.7310  -31.0490 C   0  0  0  0  0  0  0  0  0  0  0  0
   -4.8330   25.3230  -30.7630 C   0  0  0  0  0  0  0  0  0  0  0  0
   -3.8810   24.6490  -29.9950 C   0  0  0  0  0  0  0  0  0  0  0  0
   -2.6880   25.2970  -29.7050 O   0  0  0  0  0  0  0  0  0  0  0  0
   -4.1560   23.3480  -29.5160 C   0  0  0  0  0  0  0  0  0  0  0  0
   -3.2320   22.5800  -28.7310 N   0  0  0  0  0  0  0  0  0  0  0  0
   -2.4140   21.1210  -29.1920 S   0  0  0  0  0  0  0  0  0  0  0  0
   -2.9420   19.9720  -28.3790 O   0  0  0  0  0  0  0  0  0  0  0  0
   -0.9340   21.2620  -28.9750 O   0  0  0  0  0  0  0  0  0  0  0  0
   -2.7040   20.8340  -30.9080 C   0  0  0  0  0  0  0  0  0  0  0  0
   -3.8380   20.1190  -31.3230 C   0  0  0  0  0  0  0  0  0  0  0  0
   -4.0690   19.8770  -32.6850 C   0  0  0  0  0  0  0  0  0  0  0  0
   -5.5010   18.9770  -33.1990 S   0  0  0  0  0  0  0  0  0  0  0  0
   -5.7740   19.2780  -34.6450 O   0  0  0  0  0  0  0  0  0  0  0  0
   -5.2240   17.5050  -33.0740 O   0  0  0  0  0  0  0  0  0  0  0  0
   -6.9210   19.3680  -32.2580 N   0  0  0  0  0  0  0  0  0  0  0  0
   -7.9060   20.1170  -33.0330 C   0  0  0  0  0  0  0  0  0  0  0  0
   -9.2560   19.8500  -32.3840 C   0  0  0  0  0  0  0  0  0  0  0  0
   -9.0680   18.5760  -31.5730 C   0  0  0  0  0  0  0  0  0  0  0  0
   -7.6180   18.1710  -31.7920 C   0  0  0  0  0  0  0  0  0  0  0  0
   -3.1660   20.3720  -33.6360 C   0  0  0  0  0  0  0  0  0  0  0  0
   -2.0360   21.0830  -33.2310 C   0  0  0  0  0  0  0  0  0  0  0  0
   -1.7980   21.3160  -31.8690 C   0  0  0  0  0  0  0  0  0  0  0  0
   -0.6640   22.0240  -31.4710 O   0  0  0  0  0  0  0  0  0  0  0  0
   -5.4030   22.7700  -29.7940 C   0  0  0  0  0  0  0  0  0  0  0  0
   -9.4360   23.7606  -31.6708 H   0  0  0  0  0  0  0  0  0  0  0  0
   -7.9457   23.9859  -32.6480 H   0  0  0  0  0  0  0  0  0  0  0  0
   -8.7885   22.3996  -32.6480 H   0  0  0  0  0  0  0  0  0  0  0  0
   -6.8007   25.2738  -31.6582 H   0  0  0  0  0  0  0  0  0  0  0  0
   -4.6107   26.3300  -31.1458 H   0  0  0  0  0  0  0  0  0  0  0  0
   -4.5516   19.7453  -30.5739 H   0  0  0  0  0  0  0  0  0  0  0  0
   -7.6756   21.1922  -33.0035 H   0  0  0  0  0  0  0  0  0  0  0  0
   -7.9025   19.8071  -34.0884 H   0  0  0  0  0  0  0  0  0  0  0  0
   -9.5399   20.6859  -31.7277 H   0  0  0  0  0  0  0  0  0  0  0  0
  -10.0563   19.7455  -33.1314 H   0  0  0  0  0  0  0  0  0  0  0  0
   -9.2579   18.7667  -30.5064 H   0  0  0  0  0  0  0  0  0  0  0  0
   -9.7662   17.7850  -31.8842 H   0  0  0  0  0  0  0  0  0  0  0  0
   -7.1757   17.8159  -30.8495 H   0  0  0  0  0  0  0  0  0  0  0  0
   -7.5385   17.3532  -32.5234 H   0  0  0  0  0  0  0  0  0  0  0  0
   -3.3492   20.1990  -34.7068 H   0  0  0  0  0  0  0  0  0  0  0  0
   -1.3288   21.4624  -33.9833 H   0  0  0  0  0  0  0  0  0  0  0  0
   -0.5610   22.3740  -30.5260 H   0  0  0  0  0  0  0  0  0  0  0  0
   -5.6326   21.7682  -29.4021 H   0  0  0  0  0  0  0  0  0  0  0  0
  1  2  1  0
  2  3  2  0
  2  4  1  0
  4  5  2  0
  5  6  1  0
  6  7  2  0
  7  8  1  0
  7  9  1  0
  9 10  1  0
 10 11  1  0
 11 12  2  0
 11 13  2  0
 11 14  1  0
 14 15  2  0
 15 16  1  0
 16 17  1  0
 17 18  2  0
 17 19  2  0
 17 20  1  0
 20 21  1  0
 21 22  1  0
 22 23  1  0
 23 24  1  0
 16 25  2  0
 25 26  1  0
 26 27  2  0
 27 28  1  0
  9 29  2  0
 29  4  1  0
 27 14  1  0
 24 20  1  0
  1 30  1  0
  1 31  1  0
  1 32  1  0
  5 33  1  0
  6 34  1  0
 15 35  1  0
 21 36  1  0
 21 37  1  0
 22 38  1  0
 22 39  1  0
 23 40  1  0
 23 41  1  0
 24 42  1  0
 24 43  1  0
 25 44  1  0
 26 45  1  0
 28 46  1  0
 29 47  1  0
M  CHG  2   8  -1  10  -1
M  END
>  <UniqueID>  (16) 
16

>  <SMILES>  (16) 
CC(=O)c1ccc([O-])c([N-]S(=O)(=O)c2cc(S(=O)(=O)N3CCCC3)ccc2O)c1

>  <Energy>  (16) 
57.486096951156

>  <Genealogy>  (16) 
CC(=O)c1ccc([O-])c([N-]S(=O)(=O)c2cc(S(=O)(=O)N3CCCC3)ccc2O)c1 (protonated)
CC(=O)c1ccc([O-])c([N-]S(=O)(=O)c2cc(S(=O)(=O)N3CCCC3)ccc2O)c1 (3D coordinates assigned)
CC(=O)c1ccc([O-])c([N-]S(=O)(=O)c2cc(S(=O)(=O)N3CCCC3)ccc2O)c1 (nonaromatic ring conformer: 57.486096951156 kcal/mol)

>  <smiles>  (16) 
CC(=O)c1ccc(O)c(NS(=O)(=O)c2cc(S(=O)(=O)N3CCCC3)ccc2O)c1

>  <score_type>  (16) 
oracle

>  <origin>  (16) 
adgpu

>  <m_score__min__energy>  (16) 
-13.529999999999999

>  <m_primary>  (16) 
energy

$$$$
16:0
     RDKit          3D

 38 39  0  0  0  0  0  0  0  0999 V2000
   -9.1400   20.0050  -32.3290 C   0  0  0  0  0  0  0  0  0  0  0  0
   -7.9300   20.8800  -32.3210 C   0  0  0  0  0  0  0  0  0  0  0  0
   -7.9480   22.1860  -31.9870 N   0  0  0  0  0  0  0  0  0  0  0  0
   -6.7080   22.6400  -32.0840 N   0  0  0  0  0  0  0  0  0  0  0  0
   -6.3340   24.0160  -31.7650 C   0  0  0  0  0  0  0  0  0  0  0  0
   -5.8370   24.1030  -30.3180 C   0  0  0  0  0  0  0  0  0  0  0  0
   -4.8640   25.2670  -30.0970 C   0  0  0  0  0  0  0  0  0  0  0  0
   -3.4980   24.8790  -30.4370 N   0  0  0  0  0  0  0  0  0  0  0  0
   -2.4580   24.6760  -29.4750 C   0  0  0  0  0  0  0  0  0  0  0  0
   -1.8880   25.6660  -28.9400 O   0  0  0  0  0  0  0  0  0  0  0  0
   -1.9970   23.3090  -29.1570 C   0  0  0  0  0  0  0  0  0  0  0  0
   -2.9340   22.2600  -29.1850 C   0  0  0  0  0  0  0  0  0  0  0  0
   -2.5640   20.9650  -28.8160 C   0  0  0  0  0  0  0  0  0  0  0  0
   -1.2550   20.7000  -28.4150 C   0  0  0  0  0  0  0  0  0  0  0  0
   -0.3080   21.7240  -28.4000 C   0  0  0  0  0  0  0  0  0  0  0  0
   -0.6590   23.0250  -28.7870 C   0  0  0  0  0  0  0  0  0  0  0  0
    0.3500   23.9900  -28.8240 O   0  0  0  0  0  0  0  0  0  0  0  0
   -5.8820   21.6340  -32.4520 C   0  0  0  0  0  0  0  0  0  0  0  0
   -4.4100   21.7720  -32.6990 C   0  0  0  0  0  0  0  0  0  0  0  0
   -6.6390   20.4910  -32.6250 C   0  0  0  0  0  0  0  0  0  0  0  0
   -6.0490   18.7550  -33.1700 Br  0  0  0  0  0  0  0  0  0  0  0  0
   -9.4416   19.7869  -31.2939 H   0  0  0  0  0  0  0  0  0  0  0  0
   -9.9612   20.5196  -32.8495 H   0  0  0  0  0  0  0  0  0  0  0  0
   -8.9086   19.0640  -32.8495 H   0  0  0  0  0  0  0  0  0  0  0  0
   -5.5336   24.3428  -32.4452 H   0  0  0  0  0  0  0  0  0  0  0  0
   -7.2137   24.6657  -31.8839 H   0  0  0  0  0  0  0  0  0  0  0  0
   -6.7044   24.2384  -29.6553 H   0  0  0  0  0  0  0  0  0  0  0  0
   -5.2971   23.1709  -30.0949 H   0  0  0  0  0  0  0  0  0  0  0  0
   -5.1659   26.1135  -30.7312 H   0  0  0  0  0  0  0  0  0  0  0  0
   -4.8934   25.5515  -29.0348 H   0  0  0  0  0  0  0  0  0  0  0  0
   -3.9682   22.4618  -29.5006 H   0  0  0  0  0  0  0  0  0  0  0  0
   -3.3058   20.1532  -28.8417 H   0  0  0  0  0  0  0  0  0  0  0  0
   -0.9690   19.6825  -28.1102 H   0  0  0  0  0  0  0  0  0  0  0  0
    0.7228   21.5090  -28.0819 H   0  0  0  0  0  0  0  0  0  0  0  0
    0.1750   24.9690  -29.0040 H   0  0  0  0  0  0  0  0  0  0  0  0
   -3.8798   21.8217  -31.7365 H   0  0  0  0  0  0  0  0  0  0  0  0
   -4.0512   20.9036  -33.2709 H   0  0  0  0  0  0  0  0  0  0  0  0
   -4.2188   22.6920  -33.2709 H   0  0  0  0  0  0  0  0  0  0  0  0
  1  2  1  0
  2  3  2  0
  3  4  1  0
  4  5  1  0
  5  6  1  0
  6  7  1  0
  7  8  1  0
  8  9  1  0
  9 10  2  0
  9 11  1  0
 11 12  2  0
 12 13  1  0
 13 14  2  0
 14 15  1  0
 15 16  2  0
 16 17  1  0
  4 18  1  0
 18 19  1  0
 18 20  2  0
 20 21  1  0
 20  2  1  0
 16 11  1  0
  1 22  1  0
  1 23  1  0
  1 24  1  0
  5 25  1  0
  5 26  1  0
  6 27  1  0
  6 28  1  0
  7 29  1  0
  7 30  1  0
 12 31  1  0
 13 32  1  0
 14 33  1  0
 15 34  1  0
 17 35  1  0
 19 36  1  0
 19 37  1  0
 19 38  1  0
M  CHG  1   8  -1
M  END
>  <UniqueID>  (17) 
17

>  <SMILES>  (17) 
Cc1nn(CCC[N-]C(=O)c2ccccc2O)c(C)c1Br

>  <Energy>  (17) 
66.45245989992368

>  <Genealogy>  (17) 
Cc1nn(CCC[N-]C(=O)c2ccccc2O)c(C)c1Br (protonated)
Cc1nn(CCC[N-]C(=O)c2ccccc2O)c(C)c1Br (3D coordinates assigned)
Cc1nn(CCC[N-]C(=O)c2ccccc2O)c(C)c1Br (optimized conformer: 66.45245989992368 kcal/mol)

>  <smiles>  (17) 
Cc1nn(CCCNC(=O)c2ccccc2O)c(C)c1Br

>  <score_type>  (17) 
oracle

>  <origin>  (17) 
adgpu

>  <m_score__min__energy>  (17) 
-10.43

>  <m_primary>  (17) 
energy

$$$$
17:0
     RDKit          3D

 57 61  0  0  0  0  0  0  0  0999 V2000
   -4.8210   22.9320  -29.0830 C   0  0  0  0  0  0  0  0  0  0  0  0
   -3.6940   22.4560  -29.9690 C   0  0  0  0  0  0  0  0  0  0  0  0
   -2.3580   22.5020  -29.5160 C   0  0  0  0  0  0  0  0  0  0  0  0
   -2.0300   23.0340  -28.2240 N   0  0  0  0  0  0  0  0  0  0  0  0
   -1.9000   22.1200  -27.0890 C   0  0  0  0  0  0  0  0  0  0  0  0
   -0.7770   22.5960  -26.1730 C   0  0  0  0  0  0  0  0  0  0  0  0
   -0.8900   24.0680  -25.8650 C   0  0  0  0  0  0  0  0  0  0  0  0
   -0.2330   24.5820  -24.7370 C   0  0  0  0  0  0  0  0  0  0  0  0
   -0.2730   25.9550  -24.4540 C   0  0  0  0  0  0  0  0  0  0  0  0
    0.3710   26.4680  -23.3310 O   0  0  0  0  0  0  0  0  0  0  0  0
   -0.9640   26.8180  -25.3060 C   0  0  0  0  0  0  0  0  0  0  0  0
   -1.6090   26.3200  -26.4410 C   0  0  0  0  0  0  0  0  0  0  0  0
   -1.5690   24.9490  -26.7390 C   0  0  0  0  0  0  0  0  0  0  0  0
   -2.3080   24.4470  -27.9570 C   0  0  0  0  0  0  0  0  0  0  0  0
   -1.3570   22.0390  -30.3100 N   0  0  0  0  0  0  0  0  0  0  0  0
   -1.5800   21.5540  -31.5560 C   0  0  0  0  0  0  0  0  0  0  0  0
   -0.5030   21.0960  -32.3250 C   0  0  0  0  0  0  0  0  0  0  0  0
   -0.7200   20.6130  -33.6170 C   0  0  0  0  0  0  0  0  0  0  0  0
   -2.0120   20.5870  -34.1470 C   0  0  0  0  0  0  0  0  0  0  0  0
   -3.0930   21.0400  -33.3880 C   0  0  0  0  0  0  0  0  0  0  0  0
   -2.8920   21.5250  -32.0800 C   0  0  0  0  0  0  0  0  0  0  0  0
   -3.9570   21.9840  -31.2750 C   0  0  0  0  0  0  0  0  0  0  0  0
   -5.3050   21.9710  -31.7730 N   0  0  0  0  0  0  0  0  0  0  0  0
   -5.9890   23.2460  -32.0010 C   0  0  0  0  0  0  0  0  0  0  0  0
   -7.4610   23.0170  -32.3400 C   0  0  0  0  0  0  0  0  0  0  0  0
   -7.9870   21.9600  -31.4620 N   0  0  0  0  0  0  0  0  0  0  0  0
   -9.4560   21.9190  -31.5270 C   0  0  0  0  0  0  0  0  0  0  0  0
   -7.4190   20.6400  -31.8180 C   0  0  0  0  0  0  0  0  0  0  0  0
   -5.9160   20.6990  -32.1770 C   0  0  0  0  0  0  0  0  0  0  0  0
   -4.5342   22.8109  -28.0280 H   0  0  0  0  0  0  0  0  0  0  0  0
   -5.0253   23.9933  -29.2879 H   0  0  0  0  0  0  0  0  0  0  0  0
   -5.7242   22.3385  -29.2879 H   0  0  0  0  0  0  0  0  0  0  0  0
   -2.8455   22.0974  -26.5273 H   0  0  0  0  0  0  0  0  0  0  0  0
   -1.6662   21.1106  -27.4585 H   0  0  0  0  0  0  0  0  0  0  0  0
   -0.8228   22.0307  -25.2305 H   0  0  0  0  0  0  0  0  0  0  0  0
    0.1795   22.4277  -26.6895 H   0  0  0  0  0  0  0  0  0  0  0  0
    0.3177   23.9029  -24.0695 H   0  0  0  0  0  0  0  0  0  0  0  0
    0.7310   25.8610  -22.6030 H   0  0  0  0  0  0  0  0  0  0  0  0
   -1.0009   27.8945  -25.0830 H   0  0  0  0  0  0  0  0  0  0  0  0
   -2.1522   27.0075  -27.1060 H   0  0  0  0  0  0  0  0  0  0  0  0
   -3.3886   24.5715  -27.7931 H   0  0  0  0  0  0  0  0  0  0  0  0
   -1.9674   25.0302  -28.8253 H   0  0  0  0  0  0  0  0  0  0  0  0
    0.5157   21.1168  -31.9105 H   0  0  0  0  0  0  0  0  0  0  0  0
    0.1277   20.2525  -34.2182 H   0  0  0  0  0  0  0  0  0  0  0  0
   -2.1786   20.2082  -35.1662 H   0  0  0  0  0  0  0  0  0  0  0  0
   -4.1072   21.0182  -33.8134 H   0  0  0  0  0  0  0  0  0  0  0  0
   -5.9195   23.8606  -31.0914 H   0  0  0  0  0  0  0  0  0  0  0  0
   -5.5074   23.7591  -32.8465 H   0  0  0  0  0  0  0  0  0  0  0  0
   -8.0268   23.9467  -32.1804 H   0  0  0  0  0  0  0  0  0  0  0  0
   -7.5611   22.7147  -33.3929 H   0  0  0  0  0  0  0  0  0  0  0  0
   -9.8680   21.9075  -30.5071 H   0  0  0  0  0  0  0  0  0  0  0  0
   -9.8243   22.8072  -32.0612 H   0  0  0  0  0  0  0  0  0  0  0  0
   -9.7742   21.0116  -32.0612 H   0  0  0  0  0  0  0  0  0  0  0  0
   -7.5473   19.9619  -30.9614 H   0  0  0  0  0  0  0  0  0  0  0  0
   -7.9541   20.2845  -32.7109 H   0  0  0  0  0  0  0  0  0  0  0  0
   -5.3957   19.8763  -31.6647 H   0  0  0  0  0  0  0  0  0  0  0  0
   -5.8232   20.6086  -33.2693 H   0  0  0  0  0  0  0  0  0  0  0  0
  1  2  1  0
  2  3  2  0
  3  4  1  0
  4  5  1  0
  5  6  1  0
  6  7  1  0
  7  8  2  0
  8  9  1  0
  9 10  1  0
  9 11  2  0
 11 12  1  0
 12 13  2  0
 13 14  1  0
  3 15  1  0
 15 16  2  0
 16 17  1  0
 17 18  2  0
 18 19  1  0
 19 20  2  0
 20 21  1  0
 21 22  2  0
 22 23  1  0
 23 24  1  0
 24 25  1  0
 25 26  1  0
 26 27  1  0
 26 28  1  0
 28 29  1  0
 22  2  1  0
 29 23  1  0
 14  4  1  0
 21 16  1  0
 13  7  1  0
  1 30  1  0
  1 31  1  0
  1 32  1  0
  5 33  1  0
  5 34  1  0
  6 35  1  0
  6 36  1  0
  8 37  1  0
 10 38  1  0
 11 39  1  0
 12 40  1  0
 14 41  1  0
 14 42  1  0
 17 43  1  0
 18 44  1  0
 19 45  1  0
 20 46  1  0
 24 47  1  0
 24 48  1  0
 25 49  1  0
 25 50  1  0
 27 51  1  0
 27 52  1  0
 27 53  1  0
 28 54  1  0
 28 55  1  0
 29 56  1  0
 29 57  1  0
M  END
>  <UniqueID>  (18) 
18

>  <SMILES>  (18) 
Cc1c(N2CCc3cc(O)ccc3C2)nc2ccccc2c1N1CCN(C)CC1

>  <Energy>  (18) 
81.3991135285961

>  <Genealogy>  (18) 
Cc1c(N2CCc3cc(O)ccc3C2)nc2ccccc2c1N1CCN(C)CC1 (3D coordinates assigned)
Cc1c(N2CCc3cc(O)ccc3C2)nc2ccccc2c1N1CCN(C)CC1 (nonaromatic ring conformer: 81.3991135285961 kcal/mol)

>  <smiles>  (18) 
Cc1c(N2CCc3cc(O)ccc3C2)nc2ccccc2c1N1CCN(C)CC1

>  <score_type>  (18) 
oracle

>  <origin>  (18) 
adgpu

>  <m_score__min__energy>  (18) 
-8.5399999999999991

>  <m_primary>  (18) 
energy

$$$$
18:0
     RDKit          3D

 33 35  0  0  0  0  0  0  0  0999 V2000
   -3.1150   20.3720  -28.1630 O   0  0  0  0  0  0  0  0  0  0  0  0
   -2.3350   21.1230  -27.5190 C   0  0  0  0  0  0  0  0  0  0  0  0
   -1.7430   20.6420  -26.3560 O   0  0  0  0  0  0  0  0  0  0  0  0
   -2.0530   22.4970  -27.9910 C   0  0  0  0  0  0  0  0  0  0  0  0
   -0.9090   23.1840  -27.5490 C   0  0  0  0  0  0  0  0  0  0  0  0
   -0.6450   24.4790  -27.9990 C   0  0  0  0  0  0  0  0  0  0  0  0
   -1.5150   25.1040  -28.8960 C   0  0  0  0  0  0  0  0  0  0  0  0
   -1.2350   26.3930  -29.3370 O   0  0  0  0  0  0  0  0  0  0  0  0
   -2.6610   24.4360  -29.3520 C   0  0  0  0  0  0  0  0  0  0  0  0
   -3.5250   25.1030  -30.2830 N   0  0  0  0  0  0  0  0  0  0  0  0
   -5.2380   24.8630  -30.4090 S   0  0  0  0  0  0  0  0  0  0  0  0
   -5.8400   24.8870  -29.0330 O   0  0  0  0  0  0  0  0  0  0  0  0
   -5.8330   25.9760  -31.2240 O   0  0  0  0  0  0  0  0  0  0  0  0
   -5.5710   23.3300  -31.2100 C   0  0  0  0  0  0  0  0  0  0  0  0
   -4.5300   22.6310  -31.8350 C   0  0  0  0  0  0  0  0  0  0  0  0
   -4.7740   21.4010  -32.4530 C   0  0  0  0  0  0  0  0  0  0  0  0
   -6.0680   20.8610  -32.4530 C   0  0  0  0  0  0  0  0  0  0  0  0
   -6.3440   19.6300  -33.0610 C   0  0  0  0  0  0  0  0  0  0  0  0
   -7.6450   19.1220  -33.0400 C   0  0  0  0  0  0  0  0  0  0  0  0
   -8.6600   19.8510  -32.4120 C   0  0  0  0  0  0  0  0  0  0  0  0
   -9.8360   19.4040  -32.3860 O   0  0  0  0  0  0  0  0  0  0  0  0
   -8.3780   21.0460  -31.8250 N   0  0  0  0  0  0  0  0  0  0  0  0
   -7.1210   21.5660  -31.8280 C   0  0  0  0  0  0  0  0  0  0  0  0
   -6.8680   22.7970  -31.2120 C   0  0  0  0  0  0  0  0  0  0  0  0
   -2.9280   23.1330  -28.8900 C   0  0  0  0  0  0  0  0  0  0  0  0
   -0.2178   22.6984  -26.8444 H   0  0  0  0  0  0  0  0  0  0  0  0
    0.2516   25.0094  -27.6459 H   0  0  0  0  0  0  0  0  0  0  0  0
   -3.5141   23.0528  -31.8395 H   0  0  0  0  0  0  0  0  0  0  0  0
   -3.9509   20.8569  -32.9392 H   0  0  0  0  0  0  0  0  0  0  0  0
   -5.5389   19.0650  -33.5535 H   0  0  0  0  0  0  0  0  0  0  0  0
   -7.8697   18.1552  -33.5141 H   0  0  0  0  0  0  0  0  0  0  0  0
   -7.6884   23.3476  -30.7284 H   0  0  0  0  0  0  0  0  0  0  0  0
   -3.8301   22.6071  -29.2357 H   0  0  0  0  0  0  0  0  0  0  0  0
  1  2  2  0
  2  3  1  0
  2  4  1  0
  4  5  2  0
  5  6  1  0
  6  7  2  0
  7  8  1  0
  7  9  1  0
  9 10  1  0
 10 11  1  0
 11 12  2  0
 11 13  2  0
 11 14  1  0
 14 15  2  0
 15 16  1  0
 16 17  2  0
 17 18  1  0
 18 19  2  0
 19 20  1  0
 20 21  2  0
 20 22  1  0
 22 23  1  0
 23 24  2  0
  9 25  2  0
 25  4  1  0
 24 14  1  0
 23 17  1  0
  5 26  1  0
  6 27  1  0
 15 28  1  0
 16 29  1  0
 18 30  1  0
 19 31  1  0
 24 32  1  0
 25 33  1  0
M  CHG  4   3  -1   8  -1  10  -1  22  -1
M  END
>  <UniqueID>  (19) 
19

>  <SMILES>  (19) 
O=C([O-])c1ccc([O-])c([N-]S(=O)(=O)c2ccc3ccc(=O)[n-]c3c2)c1

>  <Energy>  (19) 
43.170183592673084

>  <Genealogy>  (19) 
O=C([O-])c1ccc([O-])c([N-]S(=O)(=O)c2ccc3ccc(=O)[n-]c3c2)c1 (protonated)
O=C([O-])c1ccc([O-])c([N-]S(=O)(=O)c2ccc3ccc(=O)[n-]c3c2)c1 (3D coordinates assigned)
O=C([O-])c1ccc([O-])c([N-]S(=O)(=O)c2ccc3ccc(=O)[n-]c3c2)c1 (optimized conformer: 43.170183592673084 kcal/mol)

>  <smiles>  (19) 
O=C(O)c1ccc(O)c(NS(=O)(=O)c2ccc3ccc(=O)[nH]c3c2)c1

>  <score_type>  (19) 
oracle

>  <origin>  (19) 
adgpu

>  <m_score__min__energy>  (19) 
-13.17

>  <m_primary>  (19) 
energy

$$$$
19:0
     RDKit          3D

 59 62  0  0  0  0  0  0  0  0999 V2000
   -4.1370   24.7570  -30.7460 O   0  0  0  0  0  0  0  0  0  0  0  0
   -3.6410   23.6110  -30.5860 C   0  0  0  0  0  0  0  0  0  0  0  0
   -3.6800   22.6360  -31.6390 N   0  0  0  0  0  0  0  0  0  0  0  0
   -4.7980   21.9110  -32.1800 C   0  0  0  0  0  0  0  0  0  0  0  0
   -6.1380   22.3160  -32.0140 C   0  0  0  0  0  0  0  0  0  0  0  0
   -7.1690   21.5790  -32.5990 C   0  0  0  0  0  0  0  0  0  0  0  0
   -6.8850   20.4200  -33.3250 C   0  0  0  0  0  0  0  0  0  0  0  0
   -5.5630   19.9880  -33.4670 C   0  0  0  0  0  0  0  0  0  0  0  0
   -5.1940   18.4960  -34.3320 S   0  0  0  0  0  0  0  0  0  0  0  0
   -3.7000   18.3870  -34.4870 O   0  0  0  0  0  0  0  0  0  0  0  0
   -5.8150   18.5300  -35.7040 O   0  0  0  0  0  0  0  0  0  0  0  0
   -5.7910   17.1190  -33.4260 N   0  0  0  0  0  0  0  0  0  0  0  0
   -7.2560   17.1380  -33.3760 C   0  0  0  0  0  0  0  0  0  0  0  0
   -7.6830   17.7920  -32.0650 C   0  0  0  0  0  0  0  0  0  0  0  0
   -6.4200   17.9200  -31.2370 C   0  0  0  0  0  0  0  0  0  0  0  0
   -5.3510   17.1880  -32.0270 C   0  0  0  0  0  0  0  0  0  0  0  0
   -4.5270   20.7350  -32.8940 C   0  0  0  0  0  0  0  0  0  0  0  0
   -2.9230   23.2910  -29.3360 C   0  0  0  0  0  0  0  0  0  0  0  0
   -2.9010   21.9560  -28.8960 C   0  0  0  0  0  0  0  0  0  0  0  0
   -2.1600   21.5840  -27.7670 C   0  0  0  0  0  0  0  0  0  0  0  0
   -2.1010   19.8920  -27.2680 S   0  0  0  0  0  0  0  0  0  0  0  0
   -1.6190   19.8070  -25.8440 O   0  0  0  0  0  0  0  0  0  0  0  0
   -3.4870   19.3160  -27.3260 O   0  0  0  0  0  0  0  0  0  0  0  0
   -1.0460   18.9570  -28.3000 N   0  0  0  0  0  0  0  0  0  0  0  0
   -0.1680   18.0910  -27.4810 C   0  0  0  0  0  0  0  0  0  0  0  0
    0.9880   17.4750  -28.3020 C   0  0  0  0  0  0  0  0  0  0  0  0
    0.7240   17.5730  -29.8100 C   0  0  0  0  0  0  0  0  0  0  0  0
    0.4850   19.0340  -30.2410 C   0  0  0  0  0  0  0  0  0  0  0  0
   -0.2510   19.8480  -29.1630 C   0  0  0  0  0  0  0  0  0  0  0  0
   -1.4470   22.5580  -27.0570 C   0  0  0  0  0  0  0  0  0  0  0  0
   -1.4810   23.8920  -27.4680 C   0  0  0  0  0  0  0  0  0  0  0  0
   -2.2220   24.2730  -28.5920 C   0  0  0  0  0  0  0  0  0  0  0  0
   -2.2640   25.6300  -28.9210 O   0  0  0  0  0  0  0  0  0  0  0  0
   -6.3714   23.2138  -31.4228 H   0  0  0  0  0  0  0  0  0  0  0  0
   -8.2112   21.9129  -32.4876 H   0  0  0  0  0  0  0  0  0  0  0  0
   -7.7027   19.8463  -33.7857 H   0  0  0  0  0  0  0  0  0  0  0  0
   -7.6496   17.7158  -34.2252 H   0  0  0  0  0  0  0  0  0  0  0  0
   -7.6502   16.1127  -33.4337 H   0  0  0  0  0  0  0  0  0  0  0  0
   -8.1182   18.7841  -32.2557 H   0  0  0  0  0  0  0  0  0  0  0  0
   -8.4488   17.1967  -31.5461 H   0  0  0  0  0  0  0  0  0  0  0  0
   -6.1483   18.9782  -31.1088 H   0  0  0  0  0  0  0  0  0  0  0  0
   -6.5454   17.5004  -30.2279 H   0  0  0  0  0  0  0  0  0  0  0  0
   -4.3983   17.7339  -31.9614 H   0  0  0  0  0  0  0  0  0  0  0  0
   -5.2011   16.1762  -31.6223 H   0  0  0  0  0  0  0  0  0  0  0  0
   -3.4868   20.3950  -33.0053 H   0  0  0  0  0  0  0  0  0  0  0  0
   -3.4730   21.1938  -29.4454 H   0  0  0  0  0  0  0  0  0  0  0  0
    0.2599   18.6928  -26.6657 H   0  0  0  0  0  0  0  0  0  0  0  0
   -0.7811   17.2637  -27.0941 H   0  0  0  0  0  0  0  0  0  0  0  0
    1.9187   18.0121  -28.0668 H   0  0  0  0  0  0  0  0  0  0  0  0
    1.0706   16.4110  -28.0355 H   0  0  0  0  0  0  0  0  0  0  0  0
    1.5946   17.1767  -30.3531 H   0  0  0  0  0  0  0  0  0  0  0  0
   -0.1783   16.9890  -30.0441 H   0  0  0  0  0  0  0  0  0  0  0  0
    1.4577   19.5079  -30.4394 H   0  0  0  0  0  0  0  0  0  0  0  0
   -0.1464   19.0201  -31.1416 H   0  0  0  0  0  0  0  0  0  0  0  0
    0.4862   20.3851  -28.5481 H   0  0  0  0  0  0  0  0  0  0  0  0
   -0.9260   20.5636  -29.6551 H   0  0  0  0  0  0  0  0  0  0  0  0
   -0.8585   22.2713  -26.1730 H   0  0  0  0  0  0  0  0  0  0  0  0
   -0.9198   24.6506  -26.9027 H   0  0  0  0  0  0  0  0  0  0  0  0
   -3.0730   26.0720  -29.3380 H   0  0  0  0  0  0  0  0  0  0  0  0
  1  2  2  0
  2  3  1  0
  3  4  1  0
  4  5  2  0
  5  6  1  0
  6  7  2  0
  7  8  1  0
  8  9  1  0
  9 10  2  0
  9 11  2  0
  9 12  1  0
 12 13  1  0
 13 14  1  0
 14 15  1  0
 15 16  1  0
  8 17  2  0
  2 18  1  0
 18 19  2  0
 19 20  1  0
 20 21  1  0
 21 22  2  0
 21 23  2  0
 21 24  1  0
 24 25  1  0
 25 26  1  0
 26 27  1  0
 27 28  1  0
 28 29  1  0
 20 30  2  0
 30 31  1  0
 31 32  2  0
 32 33  1  0
 17  4  1  0
 32 18  1  0
 16 12  1  0
 29 24  1  0
  5 34  1  0
  6 35  1  0
  7 36  1  0
 13 37  1  0
 13 38  1  0
 14 39  1  0
 14 40  1  0
 15 41  1  0
 15 42  1  0
 16 43  1  0
 16 44  1  0
 17 45  1  0
 19 46  1  0
 25 47  1  0
 25 48  1  0
 26 49  1  0
 26 50  1  0
 27 51  1  0
 27 52  1  0
 28 53  1  0
 28 54  1  0
 29 55  1  0
 29 56  1  0
 30 57  1  0
 31 58  1  0
 33 59  1  0
M  CHG  1   3  -1
M  END
>  <UniqueID>  (20) 
20

>  <SMILES>  (20) 
O=C([N-]c1cccc(S(=O)(=O)N2CCCC2)c1)c1cc(S(=O)(=O)N2CCCCC2)ccc1O

>  <Energy>  (20) 
74.25570147806143

>  <Genealogy>  (20) 
O=C([N-]c1cccc(S(=O)(=O)N2CCCC2)c1)c1cc(S(=O)(=O)N2CCCCC2)ccc1O (protonated)
O=C([N-]c1cccc(S(=O)(=O)N2CCCC2)c1)c1cc(S(=O)(=O)N2CCCCC2)ccc1O (3D coordinates assigned)
O=C([N-]c1cccc(S(=O)(=O)N2CCCC2)c1)c1cc(S(=O)(=O)N2CCCCC2)ccc1O (nonaromatic ring conformer: 74.25570147806143 kcal/mol)

>  <smiles>  (20) 
O=C(Nc1cccc(S(=O)(=O)N2CCCC2)c1)c1cc(S(=O)(=O)N2CCCCC2)ccc1O

>  <score_type>  (20) 
oracle

>  <origin>  (20) 
adgpu

>  <m_score__min__energy>  (20) 
-11.970000000000001

>  <m_primary>  (20) 
energy

$$$$
20:0
     RDKit          3D

 78 83  0  0  1  0  0  0  0  0999 V2000
   -4.2260   20.3180  -33.3680 C   0  0  0  0  0  0  0  0  0  0  0  0
   -5.3650   20.6580  -32.4730 C   0  0  0  0  0  0  0  0  0  0  0  0
   -6.3420   19.6870  -32.4460 C   0  0  0  0  0  0  0  0  0  0  0  0
   -6.2130   18.3120  -32.8440 C   0  0  0  0  0  0  0  0  0  0  0  0
   -6.0710   17.4640  -31.8920 O   0  0  0  0  0  0  0  0  0  0  0  0
   -6.2100   17.7650  -34.1460 N   0  0  0  0  0  0  0  0  0  0  0  0
   -6.0000   16.3630  -34.2530 C   0  0  0  0  0  0  0  0  0  0  0  0
   -7.1860   15.6090  -34.1250 C   0  0  0  0  0  0  0  0  0  0  0  0
   -7.2030   14.2450  -34.2200 C   0  0  0  0  0  0  0  0  0  0  0  0
   -6.0250   13.5950  -34.4470 C   0  0  0  0  0  0  0  0  0  0  0  0
   -4.8750   14.3280  -34.5700 C   0  0  0  0  0  0  0  0  0  0  0  0
   -4.8260   15.7250  -34.4780 C   0  0  0  0  0  0  0  0  0  0  0  0
   -3.5780   16.3190  -34.5740 N   0  0  0  0  0  0  0  0  0  0  0  0
   -2.3680   15.4760  -34.4520 C   0  0  0  0  0  0  0  0  0  0  0  0
   -1.7270   15.8380  -33.1410 C   0  0  0  0  0  0  0  0  0  0  0  0
   -2.1930   17.0700  -32.6840 O   0  0  0  0  0  0  0  0  0  0  0  0
   -2.2300   18.0530  -33.6460 C   0  0  0  0  0  0  0  0  0  0  0  0
   -3.2730   17.7300  -34.7360 C   0  0  0  0  0  0  0  0  0  0  0  0
   -7.5860   20.0850  -31.9780 C   0  0  0  0  0  0  0  0  0  0  0  0
   -7.9040   21.3070  -31.5650 N   0  0  0  0  0  0  0  0  0  0  0  0
   -6.9730   22.2620  -31.5740 C   0  0  0  0  0  0  0  0  0  0  0  0
   -7.2440   23.5240  -31.1650 N   0  0  0  0  0  0  0  0  0  0  0  0
   -6.2800   24.4950  -31.1630 C   0  0  0  0  0  0  0  0  0  0  0  0
   -5.0010   24.2000  -31.5710 N   0  0  0  0  0  0  0  0  0  0  0  0
   -4.7980   22.9390  -31.9590 C   0  0  0  0  0  0  0  0  0  0  0  0
   -3.6280   22.5190  -31.8000 N   0  0  0  0  0  0  0  0  0  0  0  0
   -2.6880   21.6690  -31.8410 C   0  0  0  0  0  0  0  0  0  0  0  0
   -1.7530   21.5640  -32.9080 C   0  0  0  0  0  0  0  0  0  0  0  0
   -0.7010   20.7370  -32.9030 C   0  0  0  0  0  0  0  0  0  0  0  0
    0.1960   20.6670  -34.0030 N   0  0  0  0  0  0  0  0  0  0  0  0
    1.6410   20.6190  -33.8670 C   0  0  0  0  0  0  0  0  0  0  0  0
    2.1680   21.8230  -34.6150 C   0  0  0  0  0  0  0  0  0  0  0  0
    1.1090   22.5950  -35.1980 N   0  0  0  0  0  0  0  0  0  0  0  0
    1.5480   23.8470  -35.7260 C   0  0  0  0  0  0  0  0  0  0  0  0
    0.2510   21.8860  -36.0970 C   0  0  0  0  0  0  0  0  0  0  0  0
   -0.2690   20.6410  -35.4000 C   0  0  0  0  0  0  0  0  0  0  0  0
   -0.4890   19.9250  -31.8050 C   0  0  0  0  0  0  0  0  0  0  0  0
   -1.3570   19.9610  -30.7080 C   0  0  0  0  0  0  0  0  0  0  0  0
   -2.4190   20.8040  -30.7270 C   0  0  0  0  0  0  0  0  0  0  0  0
   -3.2720   20.8260  -29.6290 O   0  0  0  0  0  0  0  0  0  0  0  0
   -3.3630   21.9160  -28.7510 C   0  0  0  0  0  0  0  0  0  0  0  0
   -4.6420   22.4540  -28.9040 F   0  0  0  0  0  0  0  0  0  0  0  0
   -3.2540   21.4890  -27.4520 F   0  0  0  0  0  0  0  0  0  0  0  0
   -2.4840   22.9380  -29.0410 F   0  0  0  0  0  0  0  0  0  0  0  0
   -5.6960   21.9010  -32.0280 C   0  0  0  0  0  0  0  0  0  0  0  0
   -3.3476   20.0558  -32.7600 H   0  0  0  0  0  0  0  0  0  0  0  0
   -4.5011   19.4628  -34.0028 H   0  0  0  0  0  0  0  0  0  0  0  0
   -3.9873   21.1841  -34.0028 H   0  0  0  0  0  0  0  0  0  0  0  0
   -6.3500   18.4160  -34.9400 H   0  0  0  0  0  0  0  0  0  0  0  0
   -8.1326   16.1386  -33.9419 H   0  0  0  0  0  0  0  0  0  0  0  0
   -8.1441   13.6850  -34.1159 H   0  0  0  0  0  0  0  0  0  0  0  0
   -5.9995   12.4984  -34.5300 H   0  0  0  0  0  0  0  0  0  0  0  0
   -3.9341   13.7880  -34.7518 H   0  0  0  0  0  0  0  0  0  0  0  0
   -2.6442   14.4113  -34.4590 H   0  0  0  0  0  0  0  0  0  0  0  0
   -1.6786   15.6450  -35.2924 H   0  0  0  0  0  0  0  0  0  0  0  0
   -1.9661   15.0638  -32.3970 H   0  0  0  0  0  0  0  0  0  0  0  0
   -0.6390   15.9058  -33.2880 H   0  0  0  0  0  0  0  0  0  0  0  0
   -2.4924   19.0098  -33.1710 H   0  0  0  0  0  0  0  0  0  0  0  0
   -1.2391   18.1132  -34.1199 H   0  0  0  0  0  0  0  0  0  0  0  0
   -4.1786   18.3380  -34.5940 H   0  0  0  0  0  0  0  0  0  0  0  0
   -2.8929   17.9527  -35.7439 H   0  0  0  0  0  0  0  0  0  0  0  0
   -8.3780   19.3223  -31.9461 H   0  0  0  0  0  0  0  0  0  0  0  0
   -8.1920   23.8100  -30.8360 H   0  0  0  0  0  0  0  0  0  0  0  0
   -6.5293   25.5146  -30.8339 H   0  0  0  0  0  0  0  0  0  0  0  0
   -1.9041   22.2018  -33.7914 H   0  0  0  0  0  0  0  0  0  0  0  0
    1.9274   20.6721  -32.8063 H   0  0  0  0  0  0  0  0  0  0  0  0
    2.0535   19.6817  -34.2687 H   0  0  0  0  0  0  0  0  0  0  0  0
    2.7285   22.4597  -33.9146 H   0  0  0  0  0  0  0  0  0  0  0  0
    2.8156   21.4631  -35.4281 H   0  0  0  0  0  0  0  0  0  0  0  0
    1.7876   24.5304  -34.8980 H   0  0  0  0  0  0  0  0  0  0  0  0
    2.4448   23.6904  -36.3434 H   0  0  0  0  0  0  0  0  0  0  0  0
    0.7497   24.2847  -36.3434 H   0  0  0  0  0  0  0  0  0  0  0  0
   -0.5942   22.5284  -36.3850 H   0  0  0  0  0  0  0  0  0  0  0  0
    0.8104   21.6017  -37.0005 H   0  0  0  0  0  0  0  0  0  0  0  0
   -1.3686   20.6315  -35.4262 H   0  0  0  0  0  0  0  0  0  0  0  0
    0.1028   19.7385  -35.9072 H   0  0  0  0  0  0  0  0  0  0  0  0
    0.3730   19.2417  -31.7932 H   0  0  0  0  0  0  0  0  0  0  0  0
   -1.1795   19.3114  -29.8382 H   0  0  0  0  0  0  0  0  0  0  0  0
  1  2  1  0
  2  3  2  0
  3  4  1  0
  4  5  2  0
  4  6  1  0
  6  7  1  0
  7  8  2  0
  8  9  1  0
  9 10  2  0
 10 11  1  0
 11 12  2  0
 12 13  1  0
 13 14  1  0
 14 15  1  0
 15 16  1  0
 16 17  1  0
 17 18  1  0
  3 19  1  0
 19 20  2  0
 20 21  1  0
 21 22  1  0
 22 23  1  0
 23 24  2  0
 24 25  1  0
 25 26  2  0
 26 27  1  0
 27 28  2  0
 28 29  1  0
 29 30  1  0
 30 31  1  0
 31 32  1  0
 32 33  1  0
 33 34  1  0
 33 35  1  0
 35 36  1  0
 29 37  2  0
 37 38  1  0
 38 39  2  0
 39 40  1  0
 40 41  1  0
 41 42  1  0
 41 43  1  0
 41 44  1  0
 25 45  1  0
 45  2  1  0
 12  7  1  0
 18 13  1  0
 45 21  2  0
 39 27  1  0
 36 30  1  0
  1 46  1  0
  1 47  1  0
  1 48  1  0
  6 49  1  0
  8 50  1  0
  9 51  1  0
 10 52  1  0
 11 53  1  0
 14 54  1  0
 14 55  1  0
 15 56  1  0
 15 57  1  0
 17 58  1  0
 17 59  1  0
 18 60  1  0
 18 61  1  0
 19 62  1  0
 22 63  1  0
 23 64  1  0
 28 65  1  0
 31 66  1  0
 31 67  1  0
 32 68  1  0
 32 69  1  0
 34 70  1  0
 34 71  1  0
 34 72  1  0
 35 73  1  0
 35 74  1  0
 36 75  1  0
 36 76  1  0
 37 77  1  0
 38 78  1  0
M  END
>  <smiles>  (21) 
Cc1c(C(=O)Nc2ccccc2N2CCOCC2)cnc2[nH]cnc(=Nc3cc(N4CCN(C)CC4)ccc3OC(F)(F)F)c12

>  <score_type>  (21) 
oracle

>  <origin>  (21) 
adgpu

>  <m_score__min__energy>  (21) 
-10.220000000000001

>  <m_primary>  (21) 
energy

$$$$
21:0
     RDKit          3D

 47 50  0  0  0  0  0  0  0  0999 V2000
   -9.4060   19.5790  -32.7050 C   0  0  0  0  0  0  0  0  0  0  0  0
   -8.0540   18.9630  -32.5190 C   0  0  0  0  0  0  0  0  0  0  0  0
   -7.9700   17.7080  -32.4070 O   0  0  0  0  0  0  0  0  0  0  0  0
   -6.8540   19.7550  -32.5030 N   0  0  0  0  0  0  0  0  0  0  0  0
   -5.6410   19.3710  -33.2270 C   0  0  0  0  0  0  0  0  0  0  0  0
   -4.7040   20.5960  -33.1790 C   0  0  0  0  0  0  0  0  0  0  0  0
   -5.4430   21.5600  -32.3170 C   0  0  0  0  0  0  0  0  0  0  0  0
   -4.9940   22.7930  -31.8450 C   0  0  0  0  0  0  0  0  0  0  0  0
   -5.8040   23.5060  -30.9430 C   0  0  0  0  0  0  0  0  0  0  0  0
   -5.2160   25.0170  -30.2500 S   0  0  0  0  0  0  0  0  0  0  0  0
   -5.7390   26.1590  -31.0770 O   0  0  0  0  0  0  0  0  0  0  0  0
   -5.6930   25.1750  -28.8320 O   0  0  0  0  0  0  0  0  0  0  0  0
   -3.4810   25.0370  -30.2720 N   0  0  0  0  0  0  0  0  0  0  0  0
   -2.6580   24.2120  -29.4350 C   0  0  0  0  0  0  0  0  0  0  0  0
   -2.9430   22.8500  -29.2410 C   0  0  0  0  0  0  0  0  0  0  0  0
   -2.0690   22.0360  -28.5090 C   0  0  0  0  0  0  0  0  0  0  0  0
   -0.8840   22.5860  -27.9790 C   0  0  0  0  0  0  0  0  0  0  0  0
   -0.6370   23.9580  -28.1140 C   0  0  0  0  0  0  0  0  0  0  0  0
   -1.5180   24.7690  -28.8400 C   0  0  0  0  0  0  0  0  0  0  0  0
   -1.2540   26.1280  -28.9930 O   0  0  0  0  0  0  0  0  0  0  0  0
    0.0800   21.7270  -27.1930 C   0  0  0  0  0  0  0  0  0  0  0  0
   -0.0590   20.3020  -27.5170 N   0  0  0  0  0  0  0  0  0  0  0  0
   -1.4530   19.8730  -27.3650 C   0  0  0  0  0  0  0  0  0  0  0  0
   -2.3620   20.5630  -28.3930 C   0  0  0  0  0  0  0  0  0  0  0  0
   -7.0430   22.9700  -30.5400 C   0  0  0  0  0  0  0  0  0  0  0  0
   -7.4710   21.7260  -31.0310 C   0  0  0  0  0  0  0  0  0  0  0  0
   -6.6570   21.0480  -31.9480 C   0  0  0  0  0  0  0  0  0  0  0  0
   -9.8543   19.7833  -31.7215 H   0  0  0  0  0  0  0  0  0  0  0  0
   -9.3061   20.5205  -33.2651 H   0  0  0  0  0  0  0  0  0  0  0  0
  -10.0508   18.8858  -33.2651 H   0  0  0  0  0  0  0  0  0  0  0  0
   -5.1642   18.5071  -32.7408 H   0  0  0  0  0  0  0  0  0  0  0  0
   -5.8681   19.0809  -34.2635 H   0  0  0  0  0  0  0  0  0  0  0  0
   -3.7336   20.3325  -32.7330 H   0  0  0  0  0  0  0  0  0  0  0  0
   -4.4726   20.9999  -34.1757 H   0  0  0  0  0  0  0  0  0  0  0  0
   -4.0256   23.1998  -32.1716 H   0  0  0  0  0  0  0  0  0  0  0  0
   -3.8607   22.4190  -29.6677 H   0  0  0  0  0  0  0  0  0  0  0  0
    0.2547   24.4013  -27.6468 H   0  0  0  0  0  0  0  0  0  0  0  0
   -1.9950   26.8200  -28.9640 H   0  0  0  0  0  0  0  0  0  0  0  0
    1.1075   22.0446  -27.4241 H   0  0  0  0  0  0  0  0  0  0  0  0
   -0.1467   21.8548  -26.1242 H   0  0  0  0  0  0  0  0  0  0  0  0
    0.2420   20.1460  -28.5080 H   0  0  0  0  0  0  0  0  0  0  0  0
   -1.5109   18.7840  -27.5087 H   0  0  0  0  0  0  0  0  0  0  0  0
   -1.7946   20.1500  -26.3567 H   0  0  0  0  0  0  0  0  0  0  0  0
   -2.2082   20.0922  -29.3752 H   0  0  0  0  0  0  0  0  0  0  0  0
   -3.4027   20.4499  -28.0552 H   0  0  0  0  0  0  0  0  0  0  0  0
   -7.6784   23.5288  -29.8371 H   0  0  0  0  0  0  0  0  0  0  0  0
   -8.4268   21.2922  -30.7021 H   0  0  0  0  0  0  0  0  0  0  0  0
  1  2  1  0
  2  3  2  0
  2  4  1  0
  4  5  1  0
  5  6  1  0
  6  7  1  0
  7  8  2  0
  8  9  1  0
  9 10  1  0
 10 11  2  0
 10 12  2  0
 10 13  1  0
 13 14  1  0
 14 15  2  0
 15 16  1  0
 16 17  2  0
 17 18  1  0
 18 19  2  0
 19 20  1  0
 17 21  1  0
 21 22  1  0
 22 23  1  0
 23 24  1  0
  9 25  2  0
 25 26  1  0
 26 27  2  0
 27  4  1  0
 27  7  1  0
 19 14  1  0
 24 16  1  0
  1 28  1  0
  1 29  1  0
  1 30  1  0
  5 31  1  0
  5 32  1  0
  6 33  1  0
  6 34  1  0
  8 35  1  0
 15 36  1  0
 18 37  1  0
 20 38  1  0
 21 39  1  0
 21 40  1  0
 22 41  1  0
 23 42  1  0
 23 43  1  0
 24 44  1  0
 24 45  1  0
 25 46  1  0
 26 47  1  0
M  CHG  1  13  -1
M  END
>  <UniqueID>  (22) 
21

>  <SMILES>  (22) 
CC(=O)N1CCc2cc(S(=O)(=O)[N-]c3cc4c(cc3O)CNCC4)ccc21

>  <Energy>  (22) 
71.60845398090487

>  <Genealogy>  (22) 
CC(=O)N1CCc2cc(S(=O)(=O)[N-]c3cc4c(cc3O)CNCC4)ccc21 (protonated)
CC(=O)N1CCc2cc(S(=O)(=O)[N-]c3cc4c(cc3O)CNCC4)ccc21 (3D coordinates assigned)
CC(=O)N1CCc2cc(S(=O)(=O)[N-]c3cc4c(cc3O)CNCC4)ccc21 (nonaromatic ring conformer: 71.60845398090487 kcal/mol)

>  <smiles>  (22) 
CC(=O)N1CCc2cc(S(=O)(=O)Nc3cc4c(cc3O)CNCC4)ccc21

>  <score_type>  (22) 
oracle

>  <origin>  (22) 
adgpu

>  <m_score__min__energy>  (22) 
-12.66

>  <m_primary>  (22) 
energy

$$$$
22:0
     RDKit          3D

 55 58  0  0  0  0  0  0  0  0999 V2000
   -9.3170   21.3050  -31.1000 C   0  0  0  0  0  0  0  0  0  0  0  0
   -8.5000   20.2680  -31.8120 C   0  0  0  0  0  0  0  0  0  0  0  0
   -7.5320   20.6530  -32.7510 C   0  0  0  0  0  0  0  0  0  0  0  0
   -6.7750   19.6880  -33.4200 C   0  0  0  0  0  0  0  0  0  0  0  0
   -7.0000   18.3250  -33.1830 C   0  0  0  0  0  0  0  0  0  0  0  0
   -6.0270   17.1000  -33.9960 S   0  0  0  0  0  0  0  0  0  0  0  0
   -6.9240   15.9920  -34.4730 O   0  0  0  0  0  0  0  0  0  0  0  0
   -5.3540   17.7160  -35.1900 O   0  0  0  0  0  0  0  0  0  0  0  0
   -4.8090   16.4380  -32.9520 N   0  0  0  0  0  0  0  0  0  0  0  0
   -3.4190   16.7480  -33.0740 C   0  0  0  0  0  0  0  0  0  0  0  0
   -2.9740   18.0770  -33.0220 C   0  0  0  0  0  0  0  0  0  0  0  0
   -1.6040   18.3750  -33.1070 C   0  0  0  0  0  0  0  0  0  0  0  0
   -1.1330   19.7720  -32.9820 C   0  0  0  0  0  0  0  0  0  0  0  0
    0.0710   20.0460  -33.2400 O   0  0  0  0  0  0  0  0  0  0  0  0
   -2.0230   20.8190  -32.5610 N   0  0  0  0  0  0  0  0  0  0  0  0
   -1.5290   21.8580  -31.6510 C   0  0  0  0  0  0  0  0  0  0  0  0
   -2.6650   22.3540  -30.7510 C   0  0  0  0  0  0  0  0  0  0  0  0
   -3.8840   22.6380  -31.5230 N   0  0  0  0  0  0  0  0  0  0  0  0
   -4.9480   23.3810  -30.9090 C   0  0  0  0  0  0  0  0  0  0  0  0
   -6.2140   22.7920  -30.7500 C   0  0  0  0  0  0  0  0  0  0  0  0
   -7.2580   23.5100  -30.1620 C   0  0  0  0  0  0  0  0  0  0  0  0
   -7.0470   24.8200  -29.7240 C   0  0  0  0  0  0  0  0  0  0  0  0
   -5.7890   25.4100  -29.8660 C   0  0  0  0  0  0  0  0  0  0  0  0
   -4.7380   24.6960  -30.4510 C   0  0  0  0  0  0  0  0  0  0  0  0
   -3.4860   25.2890  -30.5500 O   0  0  0  0  0  0  0  0  0  0  0  0
   -3.9330   22.3540  -32.9620 C   0  0  0  0  0  0  0  0  0  0  0  0
   -3.3140   20.9820  -33.2480 C   0  0  0  0  0  0  0  0  0  0  0  0
   -0.6830   17.3270  -33.2620 C   0  0  0  0  0  0  0  0  0  0  0  0
   -1.1280   16.0070  -33.3630 C   0  0  0  0  0  0  0  0  0  0  0  0
   -2.4930   15.7150  -33.2740 C   0  0  0  0  0  0  0  0  0  0  0  0
   -2.9230   14.3970  -33.3690 O   0  0  0  0  0  0  0  0  0  0  0  0
   -7.9930   17.9380  -32.2730 C   0  0  0  0  0  0  0  0  0  0  0  0
   -8.7380   18.9040  -31.5900 C   0  0  0  0  0  0  0  0  0  0  0  0
   -9.2121   21.1718  -30.0131 H   0  0  0  0  0  0  0  0  0  0  0  0
   -8.9636   22.3077  -31.3823 H   0  0  0  0  0  0  0  0  0  0  0  0
  -10.3745   21.1960  -31.3823 H   0  0  0  0  0  0  0  0  0  0  0  0
   -7.3680   21.7201  -32.9618 H   0  0  0  0  0  0  0  0  0  0  0  0
   -5.9995   19.9991  -34.1354 H   0  0  0  0  0  0  0  0  0  0  0  0
   -3.7039   18.8928  -32.9137 H   0  0  0  0  0  0  0  0  0  0  0  0
   -0.7251   21.4419  -31.0260 H   0  0  0  0  0  0  0  0  0  0  0  0
   -1.1446   22.7016  -32.2430 H   0  0  0  0  0  0  0  0  0  0  0  0
   -2.8895   21.5811  -30.0012 H   0  0  0  0  0  0  0  0  0  0  0  0
   -2.3387   23.2871  -30.2685 H   0  0  0  0  0  0  0  0  0  0  0  0
   -6.3837   21.7599  -31.0905 H   0  0  0  0  0  0  0  0  0  0  0  0
   -8.2472   23.0437  -30.0437 H   0  0  0  0  0  0  0  0  0  0  0  0
   -7.8718   25.3867  -29.2673 H   0  0  0  0  0  0  0  0  0  0  0  0
   -5.6241   26.4399  -29.5165 H   0  0  0  0  0  0  0  0  0  0  0  0
   -4.9803   22.3582  -33.2984 H   0  0  0  0  0  0  0  0  0  0  0  0
   -3.3642   23.1257  -33.5014 H   0  0  0  0  0  0  0  0  0  0  0  0
   -4.0046   20.1991  -32.9015 H   0  0  0  0  0  0  0  0  0  0  0  0
   -3.1412   20.9004  -34.3313 H   0  0  0  0  0  0  0  0  0  0  0  0
    0.3941   17.5464  -33.3041 H   0  0  0  0  0  0  0  0  0  0  0  0
   -0.4023   15.1940  -33.5131 H   0  0  0  0  0  0  0  0  0  0  0  0
   -8.1871   16.8699  -32.0954 H   0  0  0  0  0  0  0  0  0  0  0  0
   -9.5142   18.5927  -30.8754 H   0  0  0  0  0  0  0  0  0  0  0  0
  1  2  1  0
  2  3  2  0
  3  4  1  0
  4  5  2  0
  5  6  1  0
  6  7  2  0
  6  8  2  0
  6  9  1  0
  9 10  1  0
 10 11  2  0
 11 12  1  0
 12 13  1  0
 13 14  2  0
 13 15  1  0
 15 16  1  0
 16 17  1  0
 17 18  1  0
 18 19  1  0
 19 20  2  0
 20 21  1  0
 21 22  2  0
 22 23  1  0
 23 24  2  0
 24 25  1  0
 18 26  1  0
 26 27  1  0
 12 28  2  0
 28 29  1  0
 29 30  2  0
 30 31  1  0
  5 32  1  0
 32 33  2  0
 33  2  1  0
 30 10  1  0
 27 15  1  0
 24 19  1  0
  1 34  1  0
  1 35  1  0
  1 36  1  0
  3 37  1  0
  4 38  1  0
 11 39  1  0
 16 40  1  0
 16 41  1  0
 17 42  1  0
 17 43  1  0
 20 44  1  0
 21 45  1  0
 22 46  1  0
 23 47  1  0
 26 48  1  0
 26 49  1  0
 27 50  1  0
 27 51  1  0
 28 52  1  0
 29 53  1  0
 32 54  1  0
 33 55  1  0
M  CHG  3   9  -1  25  -1  31  -1
M  END
>  <UniqueID>  (23) 
22

>  <SMILES>  (23) 
Cc1ccc(S(=O)(=O)[N-]c2cc(C(=O)N3CCN(c4ccccc4[O-])CC3)ccc2[O-])cc1

>  <Energy>  (23) 
72.97338278963394

>  <Genealogy>  (23) 
Cc1ccc(S(=O)(=O)[N-]c2cc(C(=O)N3CCN(c4ccccc4[O-])CC3)ccc2[O-])cc1 (protonated)
Cc1ccc(S(=O)(=O)[N-]c2cc(C(=O)N3CCN(c4ccccc4[O-])CC3)ccc2[O-])cc1 (3D coordinates assigned)
Cc1ccc(S(=O)(=O)[N-]c2cc(C(=O)N3CCN(c4ccccc4[O-])CC3)ccc2[O-])cc1 (nonaromatic ring conformer: 72.97338278963394 kcal/mol)

>  <smiles>  (23) 
Cc1ccc(S(=O)(=O)Nc2cc(C(=O)N3CCN(c4ccccc4O)CC3)ccc2O)cc1

>  <score_type>  (23) 
oracle

>  <origin>  (23) 
adgpu

>  <m_score__min__energy>  (23) 
-14

>  <m_primary>  (23) 
energy

$$$$
23:0
     RDKit          3D

 62 65  0  0  0  0  0  0  0  0999 V2000
    2.6790   26.1670  -35.7500 C   0  0  0  0  0  0  0  0  0  0  0  0
    1.9190   25.2140  -36.6780 C   0  0  0  0  0  0  0  0  0  0  0  0
    0.6700   25.8820  -37.2580 C   0  0  0  0  0  0  0  0  0  0  0  0
    1.5660   23.9500  -35.9450 C   0  0  0  0  0  0  0  0  0  0  0  0
    0.2910   23.5480  -35.7480 N   0  0  0  0  0  0  0  0  0  0  0  0
    0.1940   22.3610  -35.1550 N   0  0  0  0  0  0  0  0  0  0  0  0
    1.3970   21.8110  -34.8820 C   0  0  0  0  0  0  0  0  0  0  0  0
    1.5550   20.6530  -34.3230 N   0  0  0  0  0  0  0  0  0  0  0  0
    0.2270   19.6260  -33.8870 S   0  0  0  0  0  0  0  0  0  0  0  0
   -0.4350   19.1160  -35.1360 O   0  0  0  0  0  0  0  0  0  0  0  0
    0.7250   18.4460  -33.0990 O   0  0  0  0  0  0  0  0  0  0  0  0
   -0.9320   20.5610  -32.9490 C   0  0  0  0  0  0  0  0  0  0  0  0
   -2.2240   20.7650  -33.4510 C   0  0  0  0  0  0  0  0  0  0  0  0
   -3.1300   21.5690  -32.7560 C   0  0  0  0  0  0  0  0  0  0  0  0
   -2.7460   22.2070  -31.5720 C   0  0  0  0  0  0  0  0  0  0  0  0
   -3.6830   23.0800  -30.9260 N   0  0  0  0  0  0  0  0  0  0  0  0
   -3.3800   24.2350  -30.1280 C   0  0  0  0  0  0  0  0  0  0  0  0
   -3.8650   25.3420  -30.4740 O   0  0  0  0  0  0  0  0  0  0  0  0
   -2.4840   24.1760  -28.9470 C   0  0  0  0  0  0  0  0  0  0  0  0
   -1.2640   24.8740  -28.9220 C   0  0  0  0  0  0  0  0  0  0  0  0
   -0.4030   24.7580  -27.8280 C   0  0  0  0  0  0  0  0  0  0  0  0
   -0.7580   23.9650  -26.7300 C   0  0  0  0  0  0  0  0  0  0  0  0
    0.3550   23.7830  -25.3710 S   0  0  0  0  0  0  0  0  0  0  0  0
    1.7350   23.5060  -25.9030 O   0  0  0  0  0  0  0  0  0  0  0  0
   -0.0720   22.5850  -24.5690 O   0  0  0  0  0  0  0  0  0  0  0  0
    0.3980   25.1820  -24.3070 N   0  0  0  0  0  0  0  0  0  0  0  0
   -0.9430   25.8100  -24.1340 C   0  0  0  0  0  0  0  0  0  0  0  0
   -1.0240   27.2690  -24.6150 C   0  0  0  0  0  0  0  0  0  0  0  0
   -0.3100   27.4350  -25.9470 C   0  0  0  0  0  0  0  0  0  0  0  0
    1.1710   27.0570  -25.8360 C   0  0  0  0  0  0  0  0  0  0  0  0
    1.4880   26.1250  -24.6500 C   0  0  0  0  0  0  0  0  0  0  0  0
   -2.0120   23.3430  -26.7100 C   0  0  0  0  0  0  0  0  0  0  0  0
   -2.8650   23.4350  -27.8140 C   0  0  0  0  0  0  0  0  0  0  0  0
   -1.4630   21.9720  -31.0460 C   0  0  0  0  0  0  0  0  0  0  0  0
   -0.5570   21.1600  -31.7390 C   0  0  0  0  0  0  0  0  0  0  0  0
    2.6660   22.7920  -35.3820 S   0  0  0  0  0  0  0  0  0  0  0  0
    2.4692   25.9039  -34.7027 H   0  0  0  0  0  0  0  0  0  0  0  0
    3.7589   26.0807  -35.9405 H   0  0  0  0  0  0  0  0  0  0  0  0
    2.3545   27.2007  -35.9405 H   0  0  0  0  0  0  0  0  0  0  0  0
    2.5749   24.9567  -37.5227 H   0  0  0  0  0  0  0  0  0  0  0  0
    0.0242   26.2274  -36.4372 H   0  0  0  0  0  0  0  0  0  0  0  0
    0.9676   26.7413  -37.8768 H   0  0  0  0  0  0  0  0  0  0  0  0
    0.1205   25.1574  -37.8768 H   0  0  0  0  0  0  0  0  0  0  0  0
   -2.5259   20.2901  -34.3961 H   0  0  0  0  0  0  0  0  0  0  0  0
   -4.1515   21.7013  -33.1420 H   0  0  0  0  0  0  0  0  0  0  0  0
   -0.9852   25.5164  -29.7703 H   0  0  0  0  0  0  0  0  0  0  0  0
    0.5585   25.2923  -27.8292 H   0  0  0  0  0  0  0  0  0  0  0  0
    0.6610   24.7800  -23.3750 H   0  0  0  0  0  0  0  0  0  0  0  0
   -1.6765   25.2186  -24.7017 H   0  0  0  0  0  0  0  0  0  0  0  0
   -1.1489   25.8220  -23.0535 H   0  0  0  0  0  0  0  0  0  0  0  0
   -2.0803   27.5522  -24.7335 H   0  0  0  0  0  0  0  0  0  0  0  0
   -0.5375   27.9152  -23.8695 H   0  0  0  0  0  0  0  0  0  0  0  0
   -0.7903   26.7863  -26.6943 H   0  0  0  0  0  0  0  0  0  0  0  0
   -0.3771   28.4910  -26.2476 H   0  0  0  0  0  0  0  0  0  0  0  0
    1.4701   26.5498  -26.7652 H   0  0  0  0  0  0  0  0  0  0  0  0
    1.7281   27.9904  -25.6677 H   0  0  0  0  0  0  0  0  0  0  0  0
    2.3839   25.5388  -24.9025 H   0  0  0  0  0  0  0  0  0  0  0  0
    1.6333   26.7712  -23.7718 H   0  0  0  0  0  0  0  0  0  0  0  0
   -2.3281   22.7785  -25.8204 H   0  0  0  0  0  0  0  0  0  0  0  0
   -3.8395   22.9250  -27.7963 H   0  0  0  0  0  0  0  0  0  0  0  0
   -1.1707   22.4271  -30.0882 H   0  0  0  0  0  0  0  0  0  0  0  0
    0.4513   20.9919  -31.3327 H   0  0  0  0  0  0  0  0  0  0  0  0
  1  2  1  0
  2  3  1  0
  2  4  1  0
  4  5  2  0
  5  6  1  0
  6  7  1  0
  7  8  2  3
  8  9  1  0
  9 10  2  0
  9 11  2  0
  9 12  1  0
 12 13  2  0
 13 14  1  0
 14 15  2  0
 15 16  1  0
 16 17  1  0
 17 18  2  0
 17 19  1  0
 19 20  2  0
 20 21  1  0
 21 22  2  0
 22 23  1  0
 23 24  2  0
 23 25  2  0
 23 26  1  0
 26 27  1  0
 27 28  1  0
 28 29  1  0
 29 30  1  0
 30 31  1  0
 22 32  1  0
 32 33  2  0
 15 34  1  0
 34 35  2  0
  7 36  1  0
 36  4  1  0
 35 12  1  0
 33 19  1  0
 31 26  1  0
  1 37  1  0
  1 38  1  0
  1 39  1  0
  2 40  1  0
  3 41  1  0
  3 42  1  0
  3 43  1  0
 13 44  1  0
 14 45  1  0
 20 46  1  0
 21 47  1  0
 26 48  1  0
 27 49  1  0
 27 50  1  0
 28 51  1  0
 28 52  1  0
 29 53  1  0
 29 54  1  0
 30 55  1  0
 30 56  1  0
 31 57  1  0
 31 58  1  0
 32 59  1  0
 33 60  1  0
 34 61  1  0
 35 62  1  0
M  CHG  3   6  -1  16  -1  26   1
M  END
>  <UniqueID>  (24) 
23

>  <SMILES>  (24) 
CC(C)c1n[n-]c(=NS(=O)(=O)c2ccc([N-]C(=O)c3ccc(S(=O)(=O)[NH+]4CCCCC4)cc3)cc2)s1

>  <Energy>  (24) 
108.00147427351165

>  <Genealogy>  (24) 
CC(C)c1n[n-]c(=NS(=O)(=O)c2ccc([N-]C(=O)c3ccc(S(=O)(=O)[NH+]4CCCCC4)cc3)cc2)s1 (protonated)
CC(C)c1n[n-]c(=NS(=O)(=O)c2ccc([N-]C(=O)c3ccc(S(=O)(=O)[NH+]4CCCCC4)cc3)cc2)s1 (3D coordinates assigned)
CC(C)c1n[n-]c(=NS(=O)(=O)c2ccc([N-]C(=O)c3ccc(S(=O)(=O)[NH+]4CCCCC4)cc3)cc2)s1 (nonaromatic ring conformer: 108.00147427351165 kcal/mol)

>  <smiles>  (24) 
CC(C)c1n[nH]c(=NS(=O)(=O)c2ccc(NC(=O)c3ccc(S(=O)(=O)N4CCCCC4)cc3)cc2)s1

>  <score_type>  (24) 
oracle

>  <origin>  (24) 
adgpu

>  <m_score__min__energy>  (24) 
-13

>  <m_primary>  (24) 
energy

$$$$
24:0
     RDKit          3D

 46 49  0  0  0  0  0  0  0  0999 V2000
   -9.6170   17.7480  -30.5910 H   0  0  0  0  0  0  0  0  0  0  0  0
   -9.4540   17.9270  -31.5750 O   0  0  0  0  0  0  0  0  0  0  0  0
   -8.2040   18.3200  -32.0470 C   0  0  0  0  0  0  0  0  0  0  0  0
   -7.5960   17.5970  -33.0780 C   0  0  0  0  0  0  0  0  0  0  0  0
   -8.1074   16.7236  -33.5089 H   0  0  0  0  0  0  0  0  0  0  0  0
   -6.3420   17.9780  -33.5640 C   0  0  0  0  0  0  0  0  0  0  0  0
   -5.8708   17.4042  -34.3757 H   0  0  0  0  0  0  0  0  0  0  0  0
   -5.6810   19.0930  -33.0180 C   0  0  0  0  0  0  0  0  0  0  0  0
   -4.4290   19.5240  -33.4840 C   0  0  0  0  0  0  0  0  0  0  0  0
   -3.8560   18.9100  -34.4260 O   0  0  0  0  0  0  0  0  0  0  0  0
   -3.8250   20.6590  -32.9110 C   0  0  0  0  0  0  0  0  0  0  0  0
   -2.5400   21.1480  -33.4710 C   0  0  0  0  0  0  0  0  0  0  0  0
   -2.4444   22.2106  -33.7387 H   0  0  0  0  0  0  0  0  0  0  0  0
   -1.4930   20.3330  -33.6600 C   0  0  0  0  0  0  0  0  0  0  0  0
   -1.5975   19.2778  -33.3674 H   0  0  0  0  0  0  0  0  0  0  0  0
   -0.2020   20.7730  -34.2410 C   0  0  0  0  0  0  0  0  0  0  0  0
    0.9490   20.0180  -33.9650 C   0  0  0  0  0  0  0  0  0  0  0  0
    0.8740   19.1221  -33.3311 H   0  0  0  0  0  0  0  0  0  0  0  0
    2.1890   20.3940  -34.4880 C   0  0  0  0  0  0  0  0  0  0  0  0
    3.0799   19.7870  -34.2691 H   0  0  0  0  0  0  0  0  0  0  0  0
    2.3070   21.5350  -35.2870 C   0  0  0  0  0  0  0  0  0  0  0  0
    3.5740   21.8700  -35.7880 O   0  0  0  0  0  0  0  0  0  0  0  0
    4.8010   21.3570  -35.2800 C   0  0  0  0  0  0  0  0  0  0  0  0
    4.7756   21.3676  -34.1803 H   0  0  0  0  0  0  0  0  0  0  0  0
    4.9413   20.3249  -35.6336 H   0  0  0  0  0  0  0  0  0  0  0  0
    5.6342   21.9821  -35.6336 H   0  0  0  0  0  0  0  0  0  0  0  0
    1.1600   22.3050  -35.5550 C   0  0  0  0  0  0  0  0  0  0  0  0
    1.2412   23.2080  -36.1780 H   0  0  0  0  0  0  0  0  0  0  0  0
   -0.0810   21.9300  -35.0350 C   0  0  0  0  0  0  0  0  0  0  0  0
   -0.9698   22.5424  -35.2470 H   0  0  0  0  0  0  0  0  0  0  0  0
   -4.4870   21.2990  -31.8310 C   0  0  0  0  0  0  0  0  0  0  0  0
   -3.8980   22.4350  -31.0870 C   0  0  0  0  0  0  0  0  0  0  0  0
   -4.6400   23.6150  -30.9210 C   0  0  0  0  0  0  0  0  0  0  0  0
   -5.6511   23.6904  -31.3476 H   0  0  0  0  0  0  0  0  0  0  0  0
   -4.1000   24.6950  -30.2160 C   0  0  0  0  0  0  0  0  0  0  0  0
   -4.6818   25.6213  -30.1000 H   0  0  0  0  0  0  0  0  0  0  0  0
   -2.8210   24.5990  -29.6580 C   0  0  0  0  0  0  0  0  0  0  0  0
   -2.2840   25.6750  -28.9620 O   0  0  0  0  0  0  0  0  0  0  0  0
   -2.0860   23.4190  -29.7970 C   0  0  0  0  0  0  0  0  0  0  0  0
   -1.0826   23.3410  -29.3531 H   0  0  0  0  0  0  0  0  0  0  0  0
   -2.6250   22.3370  -30.5000 C   0  0  0  0  0  0  0  0  0  0  0  0
   -2.0495   21.4043  -30.5940 H   0  0  0  0  0  0  0  0  0  0  0  0
   -5.6830   20.8660  -31.4360 O   0  0  0  0  0  0  0  0  0  0  0  0
   -6.2940   19.8190  -31.9760 C   0  0  0  0  0  0  0  0  0  0  0  0
   -7.5500   19.4320  -31.4970 C   0  0  0  0  0  0  0  0  0  0  0  0
   -8.0265   20.0021  -30.6858 H   0  0  0  0  0  0  0  0  0  0  0  0
  1  2  1  0
  2  3  1  0
  3  4  2  0
  4  5  1  0
  4  6  1  0
  6  7  1  0
  6  8  2  0
  8  9  1  0
  9 10  2  0
  9 11  1  0
 11 12  1  0
 12 13  1  0
 12 14  2  0
 14 15  1  0
 14 16  1  0
 16 17  2  0
 17 18  1  0
 17 19  1  0
 19 20  1  0
 19 21  2  0
 21 22  1  0
 22 23  1  0
 23 24  1  0
 23 25  1  0
 23 26  1  0
 21 27  1  0
 27 28  1  0
 27 29  2  0
 29 30  1  0
 11 31  2  0
 31 32  1  0
 32 33  2  0
 33 34  1  0
 33 35  1  0
 35 36  1  0
 35 37  2  0
 37 38  1  0
 37 39  1  0
 39 40  1  0
 39 41  2  0
 41 42  1  0
 31 43  1  0
 43 44  1  0
 44 45  2  0
 45 46  1  0
 45  3  1  0
 44  8  1  0
 29 16  1  0
 41 32  1  0
M  CHG  1  38  -1
M  END
>  <UniqueID>  (25) 
24

>  <SMILES>  (25) 
COc1ccc(/C=C/c2c(-c3ccc([O-])cc3)oc3cc(O)ccc3c2=O)cc1

>  <Energy>  (25) 
68.87628499407568

>  <Genealogy>  (25) 
COc1ccc(C=Cc2c(-c3ccc([O-])cc3)oc3cc(O)ccc3c2=O)cc1 (protonated)
COc1ccc(/C=C/c2c(-c3ccc([O-])cc3)oc3cc(O)ccc3c2=O)cc1 (cis-trans isomerization)
COc1ccc(/C=C/c2c(-c3ccc([O-])cc3)oc3cc(O)ccc3c2=O)cc1 (3D coordinates assigned)
COc1ccc(/C=C/c2c(-c3ccc([O-])cc3)oc3cc(O)ccc3c2=O)cc1 (optimized conformer: 68.87628499407568 kcal/mol)

>  <smiles>  (25) 
COc1ccc(C=Cc2c(-c3ccc(O)cc3)oc3cc(O)ccc3c2=O)cc1

>  <score_type>  (25) 
oracle

>  <origin>  (25) 
adgpu

>  <m_score__min__energy>  (25) 
-10.710000000000001

>  <m_primary>  (25) 
energy

$$$$
25:0
     RDKit          3D

 57 60  0  0  0  0  0  0  0  0999 V2000
   -6.3080   18.7400  -33.8190 C   0  0  0  0  0  0  0  0  0  0  0  0
   -5.2260   19.6690  -33.5090 N   0  0  0  0  0  0  0  0  0  0  0  0
   -3.8300   19.3780  -33.5650 C   0  0  0  0  0  0  0  0  0  0  0  0
   -3.3650   18.3600  -34.1440 O   0  0  0  0  0  0  0  0  0  0  0  0
   -2.9880   20.4050  -32.8520 C   0  0  0  0  0  0  0  0  0  0  0  0
   -2.1850   19.7640  -31.7100 C   0  0  0  0  0  0  0  0  0  0  0  0
   -2.0820   21.1590  -33.8380 C   0  0  0  0  0  0  0  0  0  0  0  0
   -4.0770   21.2990  -32.3220 C   0  0  0  0  0  0  0  0  0  0  0  0
   -3.9500   22.4380  -31.5210 C   0  0  0  0  0  0  0  0  0  0  0  0
   -5.1160   23.1090  -31.1080 C   0  0  0  0  0  0  0  0  0  0  0  0
   -4.9790   24.5540  -30.1110 S   0  0  0  0  0  0  0  0  0  0  0  0
   -6.3570   24.9910  -29.7010 O   0  0  0  0  0  0  0  0  0  0  0  0
   -4.3220   25.6710  -30.8760 O   0  0  0  0  0  0  0  0  0  0  0  0
   -4.0400   24.2120  -28.6920 N   0  0  0  0  0  0  0  0  0  0  0  0
   -3.0360   23.1840  -28.6150 C   0  0  0  0  0  0  0  0  0  0  0  0
   -1.8540   23.3360  -29.3480 C   0  0  0  0  0  0  0  0  0  0  0  0
   -0.8640   22.3570  -29.3080 C   0  0  0  0  0  0  0  0  0  0  0  0
   -1.0230   21.2110  -28.5210 C   0  0  0  0  0  0  0  0  0  0  0  0
    0.0020   20.2060  -28.5420 N   0  0  0  0  0  0  0  0  0  0  0  0
   -0.1240   19.0870  -29.4850 C   0  0  0  0  0  0  0  0  0  0  0  0
    0.7290   17.8680  -29.0560 C   0  0  0  0  0  0  0  0  0  0  0  0
    1.4690   18.0880  -27.8690 O   0  0  0  0  0  0  0  0  0  0  0  0
    2.2130   19.2820  -27.9870 C   0  0  0  0  0  0  0  0  0  0  0  0
    1.2690   20.4770  -27.8580 C   0  0  0  0  0  0  0  0  0  0  0  0
   -2.1990   21.0500  -27.7450 C   0  0  0  0  0  0  0  0  0  0  0  0
   -2.4230   19.8180  -26.8910 C   0  0  0  0  0  0  0  0  0  0  0  0
   -1.8960   18.6910  -27.4960 F   0  0  0  0  0  0  0  0  0  0  0  0
   -1.8070   19.9880  -25.6680 F   0  0  0  0  0  0  0  0  0  0  0  0
   -3.7710   19.5900  -26.6920 F   0  0  0  0  0  0  0  0  0  0  0  0
   -3.2070   22.0290  -27.8300 C   0  0  0  0  0  0  0  0  0  0  0  0
   -6.3840   22.6300  -31.4990 C   0  0  0  0  0  0  0  0  0  0  0  0
   -6.4930   21.4850  -32.3050 C   0  0  0  0  0  0  0  0  0  0  0  0
   -5.3210   20.8380  -32.7080 C   0  0  0  0  0  0  0  0  0  0  0  0
   -6.7470   18.3631  -32.8835 H   0  0  0  0  0  0  0  0  0  0  0  0
   -7.0814   19.2598  -34.4036 H   0  0  0  0  0  0  0  0  0  0  0  0
   -5.9112   17.8969  -34.4036 H   0  0  0  0  0  0  0  0  0  0  0  0
   -2.5959   20.0920  -30.7438 H   0  0  0  0  0  0  0  0  0  0  0  0
   -2.2524   18.6686  -31.7842 H   0  0  0  0  0  0  0  0  0  0  0  0
   -1.1317   20.0724  -31.7842 H   0  0  0  0  0  0  0  0  0  0  0  0
   -1.3544   21.7646  -33.2778 H   0  0  0  0  0  0  0  0  0  0  0  0
   -1.5470   20.4357  -34.4710 H   0  0  0  0  0  0  0  0  0  0  0  0
   -2.6961   21.8164  -34.4710 H   0  0  0  0  0  0  0  0  0  0  0  0
   -2.9571   22.8028  -31.2193 H   0  0  0  0  0  0  0  0  0  0  0  0
   -4.2430   24.7850  -27.8440 H   0  0  0  0  0  0  0  0  0  0  0  0
   -1.7052   24.2368  -29.9615 H   0  0  0  0  0  0  0  0  0  0  0  0
    0.0530   22.4862  -29.9017 H   0  0  0  0  0  0  0  0  0  0  0  0
   -1.1796   18.7818  -29.5350 H   0  0  0  0  0  0  0  0  0  0  0  0
    0.2388   19.4271  -30.4662 H   0  0  0  0  0  0  0  0  0  0  0  0
    0.0572   17.0122  -28.8942 H   0  0  0  0  0  0  0  0  0  0  0  0
    1.4551   17.6810  -29.8608 H   0  0  0  0  0  0  0  0  0  0  0  0
    2.9704   19.3238  -27.1904 H   0  0  0  0  0  0  0  0  0  0  0  0
    2.7135   19.3104  -28.9661 H   0  0  0  0  0  0  0  0  0  0  0  0
    1.0716   20.6691  -26.7930 H   0  0  0  0  0  0  0  0  0  0  0  0
    1.7422   21.3558  -28.3204 H   0  0  0  0  0  0  0  0  0  0  0  0
   -4.1450   21.8885  -27.2728 H   0  0  0  0  0  0  0  0  0  0  0  0
   -7.2925   23.1563  -31.1708 H   0  0  0  0  0  0  0  0  0  0  0  0
   -7.4787   21.1057  -32.6124 H   0  0  0  0  0  0  0  0  0  0  0  0
  1  2  1  0
  2  3  1  0
  3  4  2  0
  3  5  1  0
  5  6  1  0
  5  7  1  0
  5  8  1  0
  8  9  2  0
  9 10  1  0
 10 11  1  0
 11 12  2  0
 11 13  2  0
 11 14  1  0
 14 15  1  0
 15 16  2  0
 16 17  1  0
 17 18  2  0
 18 19  1  0
 19 20  1  0
 20 21  1  0
 21 22  1  0
 22 23  1  0
 23 24  1  0
 18 25  1  0
 25 26  1  0
 26 27  1  0
 26 28  1  0
 26 29  1  0
 25 30  2  0
 10 31  2  0
 31 32  1  0
 32 33  2  0
 33  2  1  0
 33  8  1  0
 30 15  1  0
 24 19  1  0
  1 34  1  0
  1 35  1  0
  1 36  1  0
  6 37  1  0
  6 38  1  0
  6 39  1  0
  7 40  1  0
  7 41  1  0
  7 42  1  0
  9 43  1  0
 14 44  1  0
 16 45  1  0
 17 46  1  0
 20 47  1  0
 20 48  1  0
 21 49  1  0
 21 50  1  0
 23 51  1  0
 23 52  1  0
 24 53  1  0
 24 54  1  0
 30 55  1  0
 31 56  1  0
 32 57  1  0
M  END
>  <UniqueID>  (26) 
25

>  <SMILES>  (26) 
CN1C(=O)C(C)(C)c2cc(S(=O)(=O)Nc3ccc(N4CCOCC4)c(C(F)(F)F)c3)ccc21

>  <Energy>  (26) 
90.20333447003499

>  <Genealogy>  (26) 
CN1C(=O)C(C)(C)c2cc(S(=O)(=O)Nc3ccc(N4CCOCC4)c(C(F)(F)F)c3)ccc21 (3D coordinates assigned)
CN1C(=O)C(C)(C)c2cc(S(=O)(=O)Nc3ccc(N4CCOCC4)c(C(F)(F)F)c3)ccc21 (nonaromatic ring conformer: 90.20333447003499 kcal/mol)

>  <smiles>  (26) 
CN1C(=O)C(C)(C)c2cc(S(=O)(=O)Nc3ccc(N4CCOCC4)c(C(F)(F)F)c3)ccc21

>  <score_type>  (26) 
oracle

>  <origin>  (26) 
adgpu

>  <m_score__min__energy>  (26) 
-9.6600000000000001

>  <m_primary>  (26) 
energy

$$$$
26:0
     RDKit          3D

 48 51  0  0  0  0  0  0  0  0999 V2000
    0.5190   17.7470  -32.0770 O   0  0  0  0  0  0  0  0  0  0  0  0
   -0.2820   18.7200  -32.0400 C   0  0  0  0  0  0  0  0  0  0  0  0
   -0.1360   19.5790  -31.0080 N   0  0  0  0  0  0  0  0  0  0  0  0
   -0.7630   20.7070  -30.6090 C   0  0  0  0  0  0  0  0  0  0  0  0
   -0.2530   21.3130  -29.4480 C   0  0  0  0  0  0  0  0  0  0  0  0
   -0.7940   22.4970  -28.9540 C   0  0  0  0  0  0  0  0  0  0  0  0
   -1.8740   23.0940  -29.6000 C   0  0  0  0  0  0  0  0  0  0  0  0
   -2.4490   24.6710  -29.0600 S   0  0  0  0  0  0  0  0  0  0  0  0
   -3.0360   24.5900  -27.6780 O   0  0  0  0  0  0  0  0  0  0  0  0
   -1.2960   25.6330  -29.0430 O   0  0  0  0  0  0  0  0  0  0  0  0
   -3.6520   25.2290  -30.1780 N   0  0  0  0  0  0  0  0  0  0  0  0
   -4.8890   24.5390  -30.3870 C   0  0  0  0  0  0  0  0  0  0  0  0
   -5.2590   23.4470  -29.5860 C   0  0  0  0  0  0  0  0  0  0  0  0
   -6.3960   22.7010  -29.8960 C   0  0  0  0  0  0  0  0  0  0  0  0
   -7.1840   23.0440  -31.0010 C   0  0  0  0  0  0  0  0  0  0  0  0
   -8.5180   21.9920  -31.4630 S   0  0  0  0  0  0  0  0  0  0  0  0
   -9.5110   22.7490  -32.3000 O   0  0  0  0  0  0  0  0  0  0  0  0
   -9.1980   21.4940  -30.2190 O   0  0  0  0  0  0  0  0  0  0  0  0
   -7.8800   20.6450  -32.3710 N   0  0  0  0  0  0  0  0  0  0  0  0
   -8.0940   19.3890  -31.6340 C   0  0  0  0  0  0  0  0  0  0  0  0
   -7.5530   18.2010  -32.4590 C   0  0  0  0  0  0  0  0  0  0  0  0
   -6.7930   18.6220  -33.5810 O   0  0  0  0  0  0  0  0  0  0  0  0
   -5.8030   19.5450  -33.1710 C   0  0  0  0  0  0  0  0  0  0  0  0
   -6.4440   20.8420  -32.6340 C   0  0  0  0  0  0  0  0  0  0  0  0
   -6.8570   24.1740  -31.7620 C   0  0  0  0  0  0  0  0  0  0  0  0
   -5.7180   24.9250  -31.4470 C   0  0  0  0  0  0  0  0  0  0  0  0
   -2.4130   22.4840  -30.7380 C   0  0  0  0  0  0  0  0  0  0  0  0
   -1.8620   21.3040  -31.2660 C   0  0  0  0  0  0  0  0  0  0  0  0
   -2.4340   20.8440  -32.4010 N   0  0  0  0  0  0  0  0  0  0  0  0
   -2.2160   19.7950  -33.2240 C   0  0  0  0  0  0  0  0  0  0  0  0
   -2.9760   19.7000  -34.2260 O   0  0  0  0  0  0  0  0  0  0  0  0
   -1.2290   18.8150  -33.0680 C   0  0  0  0  0  0  0  0  0  0  0  0
   -1.1870   17.9150  -33.9550 O   0  0  0  0  0  0  0  0  0  0  0  0
    0.5895   20.8430  -28.9196 H   0  0  0  0  0  0  0  0  0  0  0  0
   -0.3680   22.9615  -28.0525 H   0  0  0  0  0  0  0  0  0  0  0  0
   -4.6497   23.1786  -28.7104 H   0  0  0  0  0  0  0  0  0  0  0  0
   -6.6744   21.8403  -29.2701 H   0  0  0  0  0  0  0  0  0  0  0  0
   -7.5649   19.4359  -30.6707 H   0  0  0  0  0  0  0  0  0  0  0  0
   -9.1709   19.2494  -31.4584 H   0  0  0  0  0  0  0  0  0  0  0  0
   -6.9137   17.5833  -31.8112 H   0  0  0  0  0  0  0  0  0  0  0  0
   -8.4169   17.6324  -32.8338 H   0  0  0  0  0  0  0  0  0  0  0  0
   -5.1935   19.0894  -32.3767 H   0  0  0  0  0  0  0  0  0  0  0  0
   -5.1777   19.7971  -34.0402 H   0  0  0  0  0  0  0  0  0  0  0  0
   -5.9424   21.1320  -31.6989 H   0  0  0  0  0  0  0  0  0  0  0  0
   -6.3290   21.6320  -33.3907 H   0  0  0  0  0  0  0  0  0  0  0  0
   -7.4952   24.4713  -32.6072 H   0  0  0  0  0  0  0  0  0  0  0  0
   -5.4736   25.8220  -32.0349 H   0  0  0  0  0  0  0  0  0  0  0  0
   -3.2863   22.9376  -31.2296 H   0  0  0  0  0  0  0  0  0  0  0  0
  1  2  2  0
  2  3  1  0
  3  4  1  0
  4  5  2  0
  5  6  1  0
  6  7  2  0
  7  8  1  0
  8  9  2  0
  8 10  2  0
  8 11  1  0
 11 12  1  0
 12 13  2  0
 13 14  1  0
 14 15  2  0
 15 16  1  0
 16 17  2  0
 16 18  2  0
 16 19  1  0
 19 20  1  0
 20 21  1  0
 21 22  1  0
 22 23  1  0
 23 24  1  0
 15 25  1  0
 25 26  2  0
  7 27  1  0
 27 28  2  0
 28 29  1  0
 29 30  1  0
 30 31  2  0
 30 32  1  0
 32 33  2  0
 32  2  1  0
 28  4  1  0
 26 12  1  0
 24 19  1  0
  5 34  1  0
  6 35  1  0
 13 36  1  0
 14 37  1  0
 20 38  1  0
 20 39  1  0
 21 40  1  0
 21 41  1  0
 23 42  1  0
 23 43  1  0
 24 44  1  0
 24 45  1  0
 25 46  1  0
 26 47  1  0
 27 48  1  0
M  CHG  3   3  -1  11  -1  29  -1
M  END
>  <UniqueID>  (27) 
26

>  <SMILES>  (27) 
O=c1[n-]c2ccc(S(=O)(=O)[N-]c3ccc(S(=O)(=O)N4CCOCC4)cc3)cc2[n-]c(=O)c1=O

>  <Energy>  (27) 
89.52392426137757

>  <Genealogy>  (27) 
O=c1[n-]c2ccc(S(=O)(=O)[N-]c3ccc(S(=O)(=O)N4CCOCC4)cc3)cc2[n-]c(=O)c1=O (protonated)
O=c1[n-]c2ccc(S(=O)(=O)[N-]c3ccc(S(=O)(=O)N4CCOCC4)cc3)cc2[n-]c(=O)c1=O (3D coordinates assigned)
O=c1[n-]c2ccc(S(=O)(=O)[N-]c3ccc(S(=O)(=O)N4CCOCC4)cc3)cc2[n-]c(=O)c1=O (nonaromatic ring conformer: 89.52392426137757 kcal/mol)

>  <smiles>  (27) 
O=c1[nH]c2ccc(S(=O)(=O)Nc3ccc(S(=O)(=O)N4CCOCC4)cc3)cc2[nH]c(=O)c1=O

>  <score_type>  (27) 
oracle

>  <origin>  (27) 
adgpu

>  <m_score__min__energy>  (27) 
-11.48

>  <m_primary>  (27) 
energy

$$$$
27:0
     RDKit          3D

 43 45  0  0  0  0  0  0  0  0999 V2000
   -9.8690   20.7050  -32.3450 C   0  0  0  0  0  0  0  0  0  0  0  0
   -8.1260   20.3660  -32.2420 S   0  0  0  0  0  0  0  0  0  0  0  0
   -7.8900   19.2850  -31.2260 O   0  0  0  0  0  0  0  0  0  0  0  0
   -7.6260   19.8910  -33.5780 O   0  0  0  0  0  0  0  0  0  0  0  0
   -7.2620   21.8330  -31.7880 C   0  0  0  0  0  0  0  0  0  0  0  0
   -6.0690   22.1620  -32.4390 C   0  0  0  0  0  0  0  0  0  0  0  0
   -5.3590   23.3090  -32.0720 C   0  0  0  0  0  0  0  0  0  0  0  0
   -5.8460   24.1530  -31.0610 C   0  0  0  0  0  0  0  0  0  0  0  0
   -5.0650   25.3300  -30.6250 C   0  0  0  0  0  0  0  0  0  0  0  0
   -5.6680   26.4020  -30.3480 O   0  0  0  0  0  0  0  0  0  0  0  0
   -3.6410   25.2830  -30.4670 N   0  0  0  0  0  0  0  0  0  0  0  0
   -2.9470   24.5340  -29.4230 C   0  0  0  0  0  0  0  0  0  0  0  0
   -2.9850   23.0750  -29.7360 C   0  0  0  0  0  0  0  0  0  0  0  0
   -3.6720   22.1660  -29.0170 N   0  0  0  0  0  0  0  0  0  0  0  0
   -3.4660   20.9970  -29.6030 N   0  0  0  0  0  0  0  0  0  0  0  0
   -2.6660   21.2430  -30.6570 C   0  0  0  0  0  0  0  0  0  0  0  0
   -2.0870   19.9810  -31.7860 S   0  0  0  0  0  0  0  0  0  0  0  0
   -3.3110   20.3720  -33.0830 C   0  0  0  0  0  0  0  0  0  0  0  0
   -4.1920   19.1820  -33.3400 C   0  0  0  0  0  0  0  0  0  0  0  0
   -5.0820   18.7240  -32.3540 C   0  0  0  0  0  0  0  0  0  0  0  0
   -5.8980   17.6160  -32.6030 C   0  0  0  0  0  0  0  0  0  0  0  0
   -5.8340   16.9610  -33.8390 C   0  0  0  0  0  0  0  0  0  0  0  0
   -6.8260   15.5480  -34.1420 Cl  0  0  0  0  0  0  0  0  0  0  0  0
   -4.9650   17.4260  -34.8300 C   0  0  0  0  0  0  0  0  0  0  0  0
   -4.1510   18.5350  -34.5860 C   0  0  0  0  0  0  0  0  0  0  0  0
   -2.3660   22.5150  -30.7480 O   0  0  0  0  0  0  0  0  0  0  0  0
   -7.0430   23.8190  -30.4080 C   0  0  0  0  0  0  0  0  0  0  0  0
   -7.7480   22.6670  -30.7700 C   0  0  0  0  0  0  0  0  0  0  0  0
  -10.2873   20.7863  -31.3309 H   0  0  0  0  0  0  0  0  0  0  0  0
  -10.0274   21.6508  -32.8839 H   0  0  0  0  0  0  0  0  0  0  0  0
  -10.3703   19.8875  -32.8839 H   0  0  0  0  0  0  0  0  0  0  0  0
   -5.6876   21.5156  -33.2432 H   0  0  0  0  0  0  0  0  0  0  0  0
   -4.4131   23.5518  -32.5783 H   0  0  0  0  0  0  0  0  0  0  0  0
   -1.9005   24.8684  -29.3682 H   0  0  0  0  0  0  0  0  0  0  0  0
   -3.4442   24.7111  -28.4579 H   0  0  0  0  0  0  0  0  0  0  0  0
   -3.9310   21.2190  -32.7542 H   0  0  0  0  0  0  0  0  0  0  0  0
   -2.7805   20.6331  -34.0105 H   0  0  0  0  0  0  0  0  0  0  0  0
   -5.1371   19.2385  -31.3833 H   0  0  0  0  0  0  0  0  0  0  0  0
   -6.5909   17.2586  -31.8271 H   0  0  0  0  0  0  0  0  0  0  0  0
   -4.9218   16.9176  -35.8045 H   0  0  0  0  0  0  0  0  0  0  0  0
   -3.4756   18.9027  -35.3725 H   0  0  0  0  0  0  0  0  0  0  0  0
   -7.4284   24.4671  -29.6071 H   0  0  0  0  0  0  0  0  0  0  0  0
   -8.6865   22.4139  -30.2550 H   0  0  0  0  0  0  0  0  0  0  0  0
  1  2  1  0
  2  3  2  0
  2  4  2  0
  2  5  1  0
  5  6  2  0
  6  7  1  0
  7  8  2  0
  8  9  1  0
  9 10  2  0
  9 11  1  0
 11 12  1  0
 12 13  1  0
 13 14  2  0
 14 15  1  0
 15 16  2  0
 16 17  1  0
 17 18  1  0
 18 19  1  0
 19 20  2  0
 20 21  1  0
 21 22  2  0
 22 23  1  0
 22 24  1  0
 24 25  2  0
 16 26  1  0
  8 27  1  0
 27 28  2  0
 28  5  1  0
 26 13  1  0
 25 19  1  0
  1 29  1  0
  1 30  1  0
  1 31  1  0
  6 32  1  0
  7 33  1  0
 12 34  1  0
 12 35  1  0
 18 36  1  0
 18 37  1  0
 20 38  1  0
 21 39  1  0
 24 40  1  0
 25 41  1  0
 27 42  1  0
 28 43  1  0
M  CHG  1  11  -1
M  END
>  <UniqueID>  (28) 
27

>  <SMILES>  (28) 
CS(=O)(=O)c1ccc(C(=O)[N-]Cc2nnc(SCc3ccc(Cl)cc3)o2)cc1

>  <Energy>  (28) 
72.65653041899716

>  <Genealogy>  (28) 
CS(=O)(=O)c1ccc(C(=O)[N-]Cc2nnc(SCc3ccc(Cl)cc3)o2)cc1 (protonated)
CS(=O)(=O)c1ccc(C(=O)[N-]Cc2nnc(SCc3ccc(Cl)cc3)o2)cc1 (3D coordinates assigned)
CS(=O)(=O)c1ccc(C(=O)[N-]Cc2nnc(SCc3ccc(Cl)cc3)o2)cc1 (optimized conformer: 72.65653041899716 kcal/mol)

>  <smiles>  (28) 
CS(=O)(=O)c1ccc(C(=O)NCc2nnc(SCc3ccc(Cl)cc3)o2)cc1

>  <score_type>  (28) 
oracle

>  <origin>  (28) 
adgpu

>  <m_score__min__energy>  (28) 
-11.960000000000001

>  <m_primary>  (28) 
energy

$$$$
28:0
     RDKit          3D

 45 47  0  0  0  0  0  0  0  0999 V2000
   -0.7000   21.0770  -30.8380 H   0  0  0  0  0  0  0  0  0  0  0  0
   -0.4130   21.7940  -30.1870 O   0  0  0  0  0  0  0  0  0  0  0  0
   -1.1840   22.9190  -29.8900 C   0  0  0  0  0  0  0  0  0  0  0  0
   -0.6130   23.9050  -29.1500 N   0  0  0  0  0  0  0  0  0  0  0  0
   -1.2700   25.0580  -28.8740 C   0  0  0  0  0  0  0  0  0  0  0  0
   -0.7110   25.9510  -28.1870 O   0  0  0  0  0  0  0  0  0  0  0  0
   -2.5260   25.2530  -29.3470 N   0  0  0  0  0  0  0  0  0  0  0  0
   -3.1550   24.3010  -30.0810 C   0  0  0  0  0  0  0  0  0  0  0  0
   -4.3270   24.5180  -30.4910 O   0  0  0  0  0  0  0  0  0  0  0  0
   -2.5100   23.0800  -30.3590 C   0  0  0  0  0  0  0  0  0  0  0  0
   -3.2370   22.0250  -31.0990 C   0  0  0  0  0  0  0  0  0  0  0  0
   -4.3246   21.9232  -30.9692 H   0  0  0  0  0  0  0  0  0  0  0  0
   -2.6100   21.2180  -31.8990 N   0  0  0  0  0  0  0  0  0  0  0  0
   -3.2450   20.1500  -32.6160 C   0  0  0  0  0  0  0  0  0  0  0  0
   -4.5300   19.7630  -32.2160 C   0  0  0  0  0  0  0  0  0  0  0  0
   -5.0113   20.2705  -31.3670 H   0  0  0  0  0  0  0  0  0  0  0  0
   -5.2090   18.7370  -32.8850 C   0  0  0  0  0  0  0  0  0  0  0  0
   -6.8250   18.2510  -32.3720 S   0  0  0  0  0  0  0  0  0  0  0  0
   -6.7770   17.8780  -30.9160 O   0  0  0  0  0  0  0  0  0  0  0  0
   -7.2720   17.0510  -33.1590 O   0  0  0  0  0  0  0  0  0  0  0  0
   -7.9470   19.5700  -32.6040 N   0  0  0  0  0  0  0  0  0  0  0  0
   -8.7380   19.7800  -31.3710 C   0  0  0  0  0  0  0  0  0  0  0  0
   -9.5267   19.0150  -31.3179 H   0  0  0  0  0  0  0  0  0  0  0  0
   -8.0591   19.7038  -30.5089 H   0  0  0  0  0  0  0  0  0  0  0  0
   -9.3880   21.1670  -31.3490 C   0  0  0  0  0  0  0  0  0  0  0  0
  -10.0307   21.2768  -32.2349 H   0  0  0  0  0  0  0  0  0  0  0  0
   -9.9813   21.2606  -30.4275 H   0  0  0  0  0  0  0  0  0  0  0  0
   -8.3220   22.2780  -31.3600 C   0  0  0  0  0  0  0  0  0  0  0  0
   -8.7148   23.1370  -31.9238 H   0  0  0  0  0  0  0  0  0  0  0  0
   -8.1065   22.5421  -30.3141 H   0  0  0  0  0  0  0  0  0  0  0  0
   -7.0010   21.8270  -32.0070 C   0  0  0  0  0  0  0  0  0  0  0  0
   -6.5015   22.7013  -32.4499 H   0  0  0  0  0  0  0  0  0  0  0  0
   -6.3696   21.3723  -31.2295 H   0  0  0  0  0  0  0  0  0  0  0  0
   -7.2490   20.7820  -33.1050 C   0  0  0  0  0  0  0  0  0  0  0  0
   -7.8643   21.2405  -33.8931 H   0  0  0  0  0  0  0  0  0  0  0  0
   -6.2670   20.4635  -33.4848 H   0  0  0  0  0  0  0  0  0  0  0  0
   -4.5890   18.0760  -33.9480 C   0  0  0  0  0  0  0  0  0  0  0  0
   -5.1227   17.2756  -34.4815 H   0  0  0  0  0  0  0  0  0  0  0  0
   -3.2950   18.4270  -34.3360 C   0  0  0  0  0  0  0  0  0  0  0  0
   -2.8159   17.9018  -35.1754 H   0  0  0  0  0  0  0  0  0  0  0  0
   -2.5990   19.4460  -33.6630 C   0  0  0  0  0  0  0  0  0  0  0  0
   -1.1810   19.7470  -34.0740 C   0  0  0  0  0  0  0  0  0  0  0  0
   -0.5592   19.8790  -33.1763 H   0  0  0  0  0  0  0  0  0  0  0  0
   -0.7878   18.9123  -34.6729 H   0  0  0  0  0  0  0  0  0  0  0  0
   -1.1608   20.6694  -34.6729 H   0  0  0  0  0  0  0  0  0  0  0  0
  1  2  1  0
  2  3  1  0
  3  4  1  0
  4  5  1  0
  5  6  2  0
  5  7  1  0
  7  8  1  0
  8  9  2  0
  8 10  1  0
 10 11  1  0
 11 12  1  0
 11 13  2  0
 13 14  1  0
 14 15  2  0
 15 16  1  0
 15 17  1  0
 17 18  1  0
 18 19  2  0
 18 20  2  0
 18 21  1  0
 21 22  1  0
 22 23  1  0
 22 24  1  0
 22 25  1  0
 25 26  1  0
 25 27  1  0
 25 28  1  0
 28 29  1  0
 28 30  1  0
 28 31  1  0
 31 32  1  0
 31 33  1  0
 31 34  1  0
 34 35  1  0
 34 36  1  0
 17 37  2  0
 37 38  1  0
 37 39  1  0
 39 40  1  0
 39 41  2  0
 41 42  1  0
 42 43  1  0
 42 44  1  0
 42 45  1  0
 10  3  2  0
 41 14  1  0
 34 21  1  0
M  CHG  2   4  -1   7  -1
M  END
>  <UniqueID>  (29) 
28

>  <SMILES>  (29) 
Cc1ccc(S(=O)(=O)N2CCCCC2)cc1/N=C/c1c(O)[n-]c(=O)[n-]c1=O

>  <Energy>  (29) 
64.79718655371973

>  <Genealogy>  (29) 
Cc1ccc(S(=O)(=O)N2CCCCC2)cc1N=Cc1c(O)[n-]c(=O)[n-]c1=O (protonated)
Cc1ccc(S(=O)(=O)N2CCCCC2)cc1/N=C/c1c(O)[n-]c(=O)[n-]c1=O (cis-trans isomerization)
Cc1ccc(S(=O)(=O)N2CCCCC2)cc1/N=C/c1c(O)[n-]c(=O)[n-]c1=O (3D coordinates assigned)
Cc1ccc(S(=O)(=O)N2CCCCC2)cc1/N=C/c1c(O)[n-]c(=O)[n-]c1=O (nonaromatic ring conformer: 64.79718655371973 kcal/mol)

>  <smiles>  (29) 
Cc1ccc(S(=O)(=O)N2CCCCC2)cc1N=Cc1c(O)[nH]c(=O)[nH]c1=O

>  <score_type>  (29) 
oracle

>  <origin>  (29) 
adgpu

>  <m_score__min__energy>  (29) 
-11.6

>  <m_primary>  (29) 
energy

$$$$
29:0
     RDKit          3D

 50 53  0  0  0  0  0  0  0  0999 V2000
   -6.8500   20.1270  -31.5250 O   0  0  0  0  0  0  0  0  0  0  0  0
   -5.8930   20.6510  -32.1580 C   0  0  0  0  0  0  0  0  0  0  0  0
   -5.3780   20.0010  -33.3330 N   0  0  0  0  0  0  0  0  0  0  0  0
   -5.5110   18.5930  -33.5890 C   0  0  0  0  0  0  0  0  0  0  0  0
   -6.7490   17.9340  -33.4480 C   0  0  0  0  0  0  0  0  0  0  0  0
   -6.8510   16.5600  -33.6850 C   0  0  0  0  0  0  0  0  0  0  0  0
   -5.7180   15.8310  -34.0540 C   0  0  0  0  0  0  0  0  0  0  0  0
   -4.4750   16.4680  -34.1510 C   0  0  0  0  0  0  0  0  0  0  0  0
   -4.3720   17.8440  -33.9280 C   0  0  0  0  0  0  0  0  0  0  0  0
   -3.3450   15.7090  -34.4720 O   0  0  0  0  0  0  0  0  0  0  0  0
   -3.3800   14.2800  -34.4320 C   0  0  0  0  0  0  0  0  0  0  0  0
   -4.7270   13.7660  -34.9610 C   0  0  0  0  0  0  0  0  0  0  0  0
   -5.8030   14.4620  -34.3260 O   0  0  0  0  0  0  0  0  0  0  0  0
   -5.3440   21.9530  -31.7080 C   0  0  0  0  0  0  0  0  0  0  0  0
   -6.0500   23.1420  -31.9600 C   0  0  0  0  0  0  0  0  0  0  0  0
   -5.5440   24.3700  -31.5300 C   0  0  0  0  0  0  0  0  0  0  0  0
   -4.3360   24.4310  -30.8330 C   0  0  0  0  0  0  0  0  0  0  0  0
   -3.8590   25.6690  -30.4180 O   0  0  0  0  0  0  0  0  0  0  0  0
   -3.6230   23.2500  -30.5560 C   0  0  0  0  0  0  0  0  0  0  0  0
   -2.1060   23.2780  -29.6400 S   0  0  0  0  0  0  0  0  0  0  0  0
   -1.0190   22.6540  -30.4710 O   0  0  0  0  0  0  0  0  0  0  0  0
   -1.7060   24.6990  -29.3570 O   0  0  0  0  0  0  0  0  0  0  0  0
   -2.2480   22.4050  -28.1300 N   0  0  0  0  0  0  0  0  0  0  0  0
   -0.9550   22.3490  -27.4020 C   0  0  0  0  0  0  0  0  0  0  0  0
   -0.2700   20.9780  -27.5000 C   0  0  0  0  0  0  0  0  0  0  0  0
   -1.1790   19.8650  -26.9480 C   0  0  0  0  0  0  0  0  0  0  0  0
   -2.6750   20.1580  -27.1580 C   0  0  0  0  0  0  0  0  0  0  0  0
   -2.8900   21.0920  -28.3520 C   0  0  0  0  0  0  0  0  0  0  0  0
   -4.1300   22.0190  -31.0020 C   0  0  0  0  0  0  0  0  0  0  0  0
   -4.9800   20.6000  -34.0900 H   0  0  0  0  0  0  0  0  0  0  0  0
   -7.6408   18.5046  -33.1495 H   0  0  0  0  0  0  0  0  0  0  0  0
   -7.8220   16.0537  -33.5811 H   0  0  0  0  0  0  0  0  0  0  0  0
   -3.3954   18.3422  -34.0183 H   0  0  0  0  0  0  0  0  0  0  0  0
   -2.5679   13.8793  -35.0564 H   0  0  0  0  0  0  0  0  0  0  0  0
   -3.2534   13.9475  -33.3911 H   0  0  0  0  0  0  0  0  0  0  0  0
   -4.7780   13.9310  -36.0474 H   0  0  0  0  0  0  0  0  0  0  0  0
   -4.8137   12.6918  -34.7408 H   0  0  0  0  0  0  0  0  0  0  0  0
   -7.0078   23.1047  -32.4997 H   0  0  0  0  0  0  0  0  0  0  0  0
   -6.1004   25.2950  -31.7416 H   0  0  0  0  0  0  0  0  0  0  0  0
   -0.2812   23.1085  -27.8253 H   0  0  0  0  0  0  0  0  0  0  0  0
   -1.1676   22.5353  -26.3389 H   0  0  0  0  0  0  0  0  0  0  0  0
   -0.0410   20.7651  -28.5546 H   0  0  0  0  0  0  0  0  0  0  0  0
    0.6531   21.0045  -26.9023 H   0  0  0  0  0  0  0  0  0  0  0  0
   -0.9304   18.9228  -27.4583 H   0  0  0  0  0  0  0  0  0  0  0  0
   -1.0030   19.8008  -25.8641 H   0  0  0  0  0  0  0  0  0  0  0  0
   -3.2043   19.2115  -27.3421 H   0  0  0  0  0  0  0  0  0  0  0  0
   -3.0656   20.6492  -26.2546 H   0  0  0  0  0  0  0  0  0  0  0  0
   -2.4574   20.6292  -29.2513 H   0  0  0  0  0  0  0  0  0  0  0  0
   -3.9711   21.2512  -28.4777 H   0  0  0  0  0  0  0  0  0  0  0  0
   -3.5703   21.0946  -30.7965 H   0  0  0  0  0  0  0  0  0  0  0  0
  1  2  2  0
  2  3  1  0
  3  4  1  0
  4  5  2  0
  5  6  1  0
  6  7  2  0
  7  8  1  0
  8  9  2  0
  8 10  1  0
 10 11  1  0
 11 12  1  0
 12 13  1  0
  2 14  1  0
 14 15  2  0
 15 16  1  0
 16 17  2  0
 17 18  1  0
 17 19  1  0
 19 20  1  0
 20 21  2  0
 20 22  2  0
 20 23  1  0
 23 24  1  0
 24 25  1  0
 25 26  1  0
 26 27  1  0
 27 28  1  0
 19 29  2  0
  9  4  1  0
 29 14  1  0
 13  7  1  0
 28 23  1  0
  3 30  1  0
  5 31  1  0
  6 32  1  0
  9 33  1  0
 11 34  1  0
 11 35  1  0
 12 36  1  0
 12 37  1  0
 15 38  1  0
 16 39  1  0
 24 40  1  0
 24 41  1  0
 25 42  1  0
 25 43  1  0
 26 44  1  0
 26 45  1  0
 27 46  1  0
 27 47  1  0
 28 48  1  0
 28 49  1  0
 29 50  1  0
M  CHG  1  18  -1
M  END
>  <UniqueID>  (30) 
29

>  <SMILES>  (30) 
O=C(Nc1ccc2c(c1)OCCO2)c1ccc([O-])c(S(=O)(=O)N2CCCCC2)c1

>  <Energy>  (30) 
64.77494897158863

>  <Genealogy>  (30) 
O=C(Nc1ccc2c(c1)OCCO2)c1ccc([O-])c(S(=O)(=O)N2CCCCC2)c1 (protonated)
O=C(Nc1ccc2c(c1)OCCO2)c1ccc([O-])c(S(=O)(=O)N2CCCCC2)c1 (3D coordinates assigned)
O=C(Nc1ccc2c(c1)OCCO2)c1ccc([O-])c(S(=O)(=O)N2CCCCC2)c1 (nonaromatic ring conformer: 64.77494897158863 kcal/mol)

>  <smiles>  (30) 
O=C(Nc1ccc2c(c1)OCCO2)c1ccc(O)c(S(=O)(=O)N2CCCCC2)c1

>  <score_type>  (30) 
oracle

>  <origin>  (30) 
adgpu

>  <m_score__min__energy>  (30) 
-11.699999999999999

>  <m_primary>  (30) 
energy

$$$$
30:0
     RDKit          3D

 49 52  0  0  0  0  0  0  0  0999 V2000
   -7.2400   17.0940  -32.8580 C   0  0  0  0  0  0  0  0  0  0  0  0
   -7.2350   18.5580  -32.6680 N   0  0  0  0  0  0  0  0  0  0  0  0
   -8.3970   19.2010  -32.3290 C   0  0  0  0  0  0  0  0  0  0  0  0
   -9.4680   18.5510  -32.1730 O   0  0  0  0  0  0  0  0  0  0  0  0
   -8.4180   20.5890  -32.1510 C   0  0  0  0  0  0  0  0  0  0  0  0
   -9.5100   21.1460  -31.8410 O   0  0  0  0  0  0  0  0  0  0  0  0
   -7.2750   21.3300  -32.3070 N   0  0  0  0  0  0  0  0  0  0  0  0
   -7.3220   22.7940  -32.1050 C   0  0  0  0  0  0  0  0  0  0  0  0
   -6.0970   20.7010  -32.6550 C   0  0  0  0  0  0  0  0  0  0  0  0
   -4.8970   21.4320  -32.8420 C   0  0  0  0  0  0  0  0  0  0  0  0
   -3.6990   20.7910  -33.1890 C   0  0  0  0  0  0  0  0  0  0  0  0
   -2.4650   21.5010  -33.3860 N   0  0  0  0  0  0  0  0  0  0  0  0
   -0.8610   20.9810  -32.9710 S   0  0  0  0  0  0  0  0  0  0  0  0
   -0.6180   19.5640  -33.4120 O   0  0  0  0  0  0  0  0  0  0  0  0
    0.1130   21.8600  -33.7040 O   0  0  0  0  0  0  0  0  0  0  0  0
   -0.5960   21.1420  -31.2320 C   0  0  0  0  0  0  0  0  0  0  0  0
   -0.1360   20.0510  -30.4840 C   0  0  0  0  0  0  0  0  0  0  0  0
    0.0530   20.1710  -29.1070 C   0  0  0  0  0  0  0  0  0  0  0  0
   -0.1950   21.3850  -28.4590 C   0  0  0  0  0  0  0  0  0  0  0  0
    0.0130   21.4660  -27.0800 O   0  0  0  0  0  0  0  0  0  0  0  0
   -0.6310   22.4980  -29.2030 C   0  0  0  0  0  0  0  0  0  0  0  0
   -0.8780   23.7400  -28.5270 N   0  0  0  0  0  0  0  0  0  0  0  0
   -1.7010   24.8140  -29.0110 C   0  0  0  0  0  0  0  0  0  0  0  0
   -1.2970   26.0070  -28.9680 O   0  0  0  0  0  0  0  0  0  0  0  0
   -3.0500   24.5180  -29.5100 C   0  0  0  0  0  0  0  0  0  0  0  0
   -3.8800   23.5110  -29.0580 C   0  0  0  0  0  0  0  0  0  0  0  0
   -5.0300   23.6120  -29.8100 C   0  0  0  0  0  0  0  0  0  0  0  0
   -4.8320   24.6740  -30.6710 C   0  0  0  0  0  0  0  0  0  0  0  0
   -3.6420   25.1940  -30.4680 O   0  0  0  0  0  0  0  0  0  0  0  0
   -0.8530   22.3590  -30.5870 C   0  0  0  0  0  0  0  0  0  0  0  0
   -3.6870   19.4060  -33.3360 C   0  0  0  0  0  0  0  0  0  0  0  0
   -4.8500   18.6610  -33.1640 C   0  0  0  0  0  0  0  0  0  0  0  0
   -6.0760   19.2870  -32.8300 C   0  0  0  0  0  0  0  0  0  0  0  0
   -7.2417   16.5969  -31.8767 H   0  0  0  0  0  0  0  0  0  0  0  0
   -8.1392   16.8002  -33.4194 H   0  0  0  0  0  0  0  0  0  0  0  0
   -6.3429   16.7941  -33.4194 H   0  0  0  0  0  0  0  0  0  0  0  0
   -7.3291   23.0154  -31.0275 H   0  0  0  0  0  0  0  0  0  0  0  0
   -6.4382   23.2567  -32.5686 H   0  0  0  0  0  0  0  0  0  0  0  0
   -8.2336   23.1990  -32.5686 H   0  0  0  0  0  0  0  0  0  0  0  0
   -4.9057   22.5243  -32.7123 H   0  0  0  0  0  0  0  0  0  0  0  0
    0.0773   19.0950  -30.9846 H   0  0  0  0  0  0  0  0  0  0  0  0
    0.3999   19.3036  -28.5263 H   0  0  0  0  0  0  0  0  0  0  0  0
   -0.1490   22.3180  -26.5570 H   0  0  0  0  0  0  0  0  0  0  0  0
   -3.6673   22.7807  -28.2634 H   0  0  0  0  0  0  0  0  0  0  0  0
   -5.9246   22.9759  -29.7392 H   0  0  0  0  0  0  0  0  0  0  0  0
   -5.5603   25.0306  -31.4143 H   0  0  0  0  0  0  0  0  0  0  0  0
   -1.2316   23.2137  -31.1667 H   0  0  0  0  0  0  0  0  0  0  0  0
   -2.7470   18.8948  -33.5911 H   0  0  0  0  0  0  0  0  0  0  0  0
   -4.8166   17.5687  -33.2894 H   0  0  0  0  0  0  0  0  0  0  0  0
  1  2  1  0
  2  3  1  0
  3  4  2  0
  3  5  1  0
  5  6  2  0
  5  7  1  0
  7  8  1  0
  7  9  1  0
  9 10  2  0
 10 11  1  0
 11 12  1  0
 12 13  1  0
 13 14  2  0
 13 15  2  0
 13 16  1  0
 16 17  2  0
 17 18  1  0
 18 19  2  0
 19 20  1  0
 19 21  1  0
 21 22  1  0
 22 23  1  0
 23 24  2  0
 23 25  1  0
 25 26  2  0
 26 27  1  0
 27 28  2  0
 28 29  1  0
 21 30  2  0
 11 31  2  0
 31 32  1  0
 32 33  2  0
 33  2  1  0
 33  9  1  0
 30 16  1  0
 29 25  1  0
  1 34  1  0
  1 35  1  0
  1 36  1  0
  8 37  1  0
  8 38  1  0
  8 39  1  0
 10 40  1  0
 17 41  1  0
 18 42  1  0
 20 43  1  0
 26 44  1  0
 27 45  1  0
 28 46  1  0
 30 47  1  0
 31 48  1  0
 32 49  1  0
M  CHG  2  12  -1  22  -1
M  END
>  <UniqueID>  (31) 
30

>  <SMILES>  (31) 
Cn1c(=O)c(=O)n(C)c2cc([N-]S(=O)(=O)c3ccc(O)c([N-]C(=O)c4ccco4)c3)ccc21

>  <Energy>  (31) 
105.32489772688673

>  <Genealogy>  (31) 
Cn1c(=O)c(=O)n(C)c2cc([N-]S(=O)(=O)c3ccc(O)c([N-]C(=O)c4ccco4)c3)ccc21 (protonated)
Cn1c(=O)c(=O)n(C)c2cc([N-]S(=O)(=O)c3ccc(O)c([N-]C(=O)c4ccco4)c3)ccc21 (3D coordinates assigned)
Cn1c(=O)c(=O)n(C)c2cc([N-]S(=O)(=O)c3ccc(O)c([N-]C(=O)c4ccco4)c3)ccc21 (optimized conformer: 105.32489772688673 kcal/mol)

>  <smiles>  (31) 
Cn1c(=O)c(=O)n(C)c2cc(NS(=O)(=O)c3ccc(O)c(NC(=O)c4ccco4)c3)ccc21

>  <score_type>  (31) 
oracle

>  <origin>  (31) 
adgpu

>  <m_score__min__energy>  (31) 
-10.98

>  <m_primary>  (31) 
energy

$$$$
31:0
     RDKit          3D

 47 50  0  0  0  0  0  0  0  0999 V2000
   -5.8460   24.9840  -29.3970 C   0  0  0  0  0  0  0  0  0  0  0  0
   -4.5250   24.4370  -28.9500 C   0  0  0  0  0  0  0  0  0  0  0  0
   -4.2140   24.5300  -27.6270 N   0  0  0  0  0  0  0  0  0  0  0  0
   -3.0700   24.0160  -27.1110 C   0  0  0  0  0  0  0  0  0  0  0  0
   -2.1720   23.3460  -27.9390 C   0  0  0  0  0  0  0  0  0  0  0  0
   -2.4510   23.2360  -29.3000 C   0  0  0  0  0  0  0  0  0  0  0  0
   -3.6150   23.7980  -29.8330 C   0  0  0  0  0  0  0  0  0  0  0  0
   -3.8140   23.6780  -31.2190 O   0  0  0  0  0  0  0  0  0  0  0  0
   -4.8200   22.9290  -31.8400 C   0  0  0  0  0  0  0  0  0  0  0  0
   -6.0360   23.5100  -32.0100 N   0  0  0  0  0  0  0  0  0  0  0  0
   -7.0630   22.8450  -32.5910 C   0  0  0  0  0  0  0  0  0  0  0  0
   -6.9000   21.5590  -32.9850 N   0  0  0  0  0  0  0  0  0  0  0  0
   -5.7220   20.9090  -32.8130 C   0  0  0  0  0  0  0  0  0  0  0  0
   -5.6360   19.5300  -33.1970 N   0  0  0  0  0  0  0  0  0  0  0  0
   -5.8420   19.0880  -34.5630 C   0  0  0  0  0  0  0  0  0  0  0  0
   -5.7650   17.5660  -34.5160 C   0  0  0  0  0  0  0  0  0  0  0  0
   -5.1420   17.2130  -33.1660 C   0  0  0  0  0  0  0  0  0  0  0  0
   -5.3480   18.4410  -32.2740 C   0  0  2  0  0  0  0  0  0  0  0  0
   -6.4860   18.2620  -31.2480 C   0  0  0  0  0  0  0  0  0  0  0  0
   -7.7160   18.9360  -31.6660 N   0  0  0  0  0  0  0  0  0  0  0  0
   -8.5260   18.5830  -32.6780 C   0  0  0  0  0  0  0  0  0  0  0  0
   -9.5500   19.4480  -32.8040 N   0  0  0  0  0  0  0  0  0  0  0  0
   -9.3080   20.3320  -31.8100 C   0  0  0  0  0  0  0  0  0  0  0  0
   -8.1960   20.0330  -31.1130 N   0  0  0  0  0  0  0  0  0  0  0  0
   -4.6190   21.5900  -32.2520 C   0  0  0  0  0  0  0  0  0  0  0  0
   -3.3110   20.8800  -32.0040 C   0  0  0  0  0  0  0  0  0  0  0  0
   -6.4553   25.2363  -28.5166 H   0  0  0  0  0  0  0  0  0  0  0  0
   -5.6828   25.8885  -30.0013 H   0  0  0  0  0  0  0  0  0  0  0  0
   -6.3700   24.2289  -30.0013 H   0  0  0  0  0  0  0  0  0  0  0  0
   -2.8512   24.1281  -26.0388 H   0  0  0  0  0  0  0  0  0  0  0  0
   -1.2525   22.9085  -27.5230 H   0  0  0  0  0  0  0  0  0  0  0  0
   -1.7504   22.7032  -29.9597 H   0  0  0  0  0  0  0  0  0  0  0  0
   -8.0290   23.3488  -32.7429 H   0  0  0  0  0  0  0  0  0  0  0  0
   -6.8283   19.4118  -34.9270 H   0  0  0  0  0  0  0  0  0  0  0  0
   -5.0922   19.5131  -35.2464 H   0  0  0  0  0  0  0  0  0  0  0  0
   -6.7718   17.1304  -34.5971 H   0  0  0  0  0  0  0  0  0  0  0  0
   -5.1676   17.1686  -35.3498 H   0  0  0  0  0  0  0  0  0  0  0  0
   -5.6433   16.3358  -32.7310 H   0  0  0  0  0  0  0  0  0  0  0  0
   -4.0759   16.9616  -33.2668 H   0  0  0  0  0  0  0  0  0  0  0  0
   -4.4553   18.6304  -31.6598 H   0  0  0  0  0  0  0  0  0  0  0  0
   -6.6924   17.1879  -31.1312 H   0  0  0  0  0  0  0  0  0  0  0  0
   -6.1596   18.7116  -30.2986 H   0  0  0  0  0  0  0  0  0  0  0  0
   -8.3727   17.7027  -33.3195 H   0  0  0  0  0  0  0  0  0  0  0  0
   -9.9490   21.1996  -31.5947 H   0  0  0  0  0  0  0  0  0  0  0  0
   -3.1430   20.7888  -30.9207 H   0  0  0  0  0  0  0  0  0  0  0  0
   -3.3467   19.8774  -32.4552 H   0  0  0  0  0  0  0  0  0  0  0  0
   -2.4897   21.4561  -32.4552 H   0  0  0  0  0  0  0  0  0  0  0  0
  1  2  1  0
  2  3  2  0
  3  4  1  0
  4  5  2  0
  5  6  1  0
  6  7  2  0
  7  8  1  0
  8  9  1  0
  9 10  2  0
 10 11  1  0
 11 12  2  0
 12 13  1  0
 13 14  1  0
 14 15  1  0
 15 16  1  0
 16 17  1  0
 17 18  1  0
 18 19  1  0
 19 20  1  0
 20 21  1  0
 21 22  2  0
 22 23  1  0
 23 24  2  0
 13 25  2  0
 25 26  1  0
  7  2  1  0
 25  9  1  0
 18 14  1  0
 24 20  1  0
  1 27  1  0
  1 28  1  0
  1 29  1  0
  4 30  1  0
  5 31  1  0
  6 32  1  0
 11 33  1  0
 15 34  1  0
 15 35  1  0
 16 36  1  0
 16 37  1  0
 17 38  1  0
 17 39  1  0
 18 40  1  1
 19 41  1  0
 19 42  1  0
 21 43  1  0
 23 44  1  0
 26 45  1  0
 26 46  1  0
 26 47  1  0
M  END
>  <UniqueID>  (32) 
31

>  <SMILES>  (32) 
Cc1ncccc1Oc1ncnc(N2CCC[C@@H]2Cn2cncn2)c1C

>  <Energy>  (32) 
100.4375444323273

>  <Genealogy>  (32) 
Cc1ncccc1Oc1ncnc(N2CCC[C@@H]2Cn2cncn2)c1C (chirality)
Cc1ncccc1Oc1ncnc(N2CCC[C@@H]2Cn2cncn2)c1C (3D coordinates assigned)
Cc1ncccc1Oc1ncnc(N2CCC[C@@H]2Cn2cncn2)c1C (nonaromatic ring conformer: 100.4375444323273 kcal/mol)

>  <smiles>  (32) 
Cc1ncccc1Oc1ncnc(N2CCCC2Cn2cncn2)c1C

>  <score_type>  (32) 
oracle

>  <origin>  (32) 
adgpu

>  <m_score__min__energy>  (32) 
-7.79

>  <m_primary>  (32) 
energy

$$$$
32:0
     RDKit          3D

 50 53  0  0  0  0  0  0  0  0999 V2000
    0.5280   17.9940  -29.5630 C   0  0  0  0  0  0  0  0  0  0  0  0
    0.1850   18.6200  -28.3310 O   0  0  0  0  0  0  0  0  0  0  0  0
   -0.7110   19.6930  -28.2120 C   0  0  0  0  0  0  0  0  0  0  0  0
   -0.3680   20.9160  -28.8010 C   0  0  0  0  0  0  0  0  0  0  0  0
   -1.2330   22.0100  -28.7260 C   0  0  0  0  0  0  0  0  0  0  0  0
   -2.4640   21.9020  -28.0540 C   0  0  0  0  0  0  0  0  0  0  0  0
   -3.3880   23.0600  -27.9840 C   0  0  0  0  0  0  0  0  0  0  0  0
   -4.2420   23.1270  -27.0610 O   0  0  0  0  0  0  0  0  0  0  0  0
   -3.3040   24.1050  -28.9590 N   0  0  0  0  0  0  0  0  0  0  0  0
   -4.6240   24.6080  -29.9620 S   0  0  0  0  0  0  0  0  0  0  0  0
   -4.1340   25.6680  -30.9070 O   0  0  0  0  0  0  0  0  0  0  0  0
   -5.7280   25.2010  -29.1310 O   0  0  0  0  0  0  0  0  0  0  0  0
   -5.2370   23.2160  -30.8660 C   0  0  0  0  0  0  0  0  0  0  0  0
   -6.6170   23.0040  -30.9530 C   0  0  0  0  0  0  0  0  0  0  0  0
   -7.1260   21.9250  -31.6720 C   0  0  0  0  0  0  0  0  0  0  0  0
   -6.2710   21.0270  -32.3260 C   0  0  0  0  0  0  0  0  0  0  0  0
   -6.9940   19.6740  -33.2190 S   0  0  0  0  0  0  0  0  0  0  0  0
   -8.4540   19.5960  -32.8650 O   0  0  0  0  0  0  0  0  0  0  0  0
   -6.8720   19.9000  -34.7000 O   0  0  0  0  0  0  0  0  0  0  0  0
   -6.1900   18.1580  -32.8210 C   0  0  0  0  0  0  0  0  0  0  0  0
   -5.3830   17.5110  -33.7710 C   0  0  0  0  0  0  0  0  0  0  0  0
   -4.7520   16.3050  -33.4510 C   0  0  0  0  0  0  0  0  0  0  0  0
   -4.9250   15.7400  -32.1840 C   0  0  0  0  0  0  0  0  0  0  0  0
   -5.7380   16.3740  -31.2400 C   0  0  0  0  0  0  0  0  0  0  0  0
   -6.3690   17.5800  -31.5560 C   0  0  0  0  0  0  0  0  0  0  0  0
   -4.8690   21.2300  -32.2580 C   0  0  0  0  0  0  0  0  0  0  0  0
   -3.9450   20.3790  -32.8990 C   0  0  0  0  0  0  0  0  0  0  0  0
   -2.5770   20.6280  -32.8080 C   0  0  0  0  0  0  0  0  0  0  0  0
   -2.1240   21.7240  -32.0760 C   0  0  0  0  0  0  0  0  0  0  0  0
   -3.0140   22.5410  -31.4580 N   0  0  0  0  0  0  0  0  0  0  0  0
   -4.3590   22.3340  -31.5220 C   0  0  0  0  0  0  0  0  0  0  0  0
   -2.8030   20.6760  -27.4530 C   0  0  0  0  0  0  0  0  0  0  0  0
   -1.9360   19.5820  -27.5290 C   0  0  0  0  0  0  0  0  0  0  0  0
    1.0475   17.0458  -29.3603 H   0  0  0  0  0  0  0  0  0  0  0  0
   -0.3869   17.7947  -30.1402 H   0  0  0  0  0  0  0  0  0  0  0  0
    1.1884   18.6579  -30.1402 H   0  0  0  0  0  0  0  0  0  0  0  0
    0.5923   21.0162  -29.3281 H   0  0  0  0  0  0  0  0  0  0  0  0
   -0.9495   22.9633  -29.1960 H   0  0  0  0  0  0  0  0  0  0  0  0
   -7.3071   23.6963  -30.4486 H   0  0  0  0  0  0  0  0  0  0  0  0
   -8.2144   21.7754  -31.7274 H   0  0  0  0  0  0  0  0  0  0  0  0
   -5.2471   17.9538  -34.7687 H   0  0  0  0  0  0  0  0  0  0  0  0
   -4.1194   15.8007  -34.1963 H   0  0  0  0  0  0  0  0  0  0  0  0
   -4.4210   14.7959  -31.9297 H   0  0  0  0  0  0  0  0  0  0  0  0
   -5.8812   15.9229  -30.2470 H   0  0  0  0  0  0  0  0  0  0  0  0
   -7.0075   18.0770  -30.8109 H   0  0  0  0  0  0  0  0  0  0  0  0
   -4.3063   19.5137  -33.4741 H   0  0  0  0  0  0  0  0  0  0  0  0
   -1.8590   19.9635  -33.3109 H   0  0  0  0  0  0  0  0  0  0  0  0
   -1.0456   21.9267  -31.9992 H   0  0  0  0  0  0  0  0  0  0  0  0
   -3.7592   20.5773  -26.9183 H   0  0  0  0  0  0  0  0  0  0  0  0
   -2.2128   18.6300  -27.0526 H   0  0  0  0  0  0  0  0  0  0  0  0
  1  2  1  0
  2  3  1  0
  3  4  2  0
  4  5  1  0
  5  6  2  0
  6  7  1  0
  7  8  2  0
  7  9  1  0
  9 10  1  0
 10 11  2  0
 10 12  2  0
 10 13  1  0
 13 14  2  0
 14 15  1  0
 15 16  2  0
 16 17  1  0
 17 18  2  0
 17 19  2  0
 17 20  1  0
 20 21  2  0
 21 22  1  0
 22 23  2  0
 23 24  1  0
 24 25  2  0
 16 26  1  0
 26 27  2  0
 27 28  1  0
 28 29  2  0
 29 30  1  0
 30 31  2  0
  6 32  1  0
 32 33  2  0
 33  3  1  0
 31 13  1  0
 25 20  1  0
 31 26  1  0
  1 34  1  0
  1 35  1  0
  1 36  1  0
  4 37  1  0
  5 38  1  0
 14 39  1  0
 15 40  1  0
 21 41  1  0
 22 42  1  0
 23 43  1  0
 24 44  1  0
 25 45  1  0
 27 46  1  0
 28 47  1  0
 29 48  1  0
 32 49  1  0
 33 50  1  0
M  CHG  1   9  -1
M  END
>  <UniqueID>  (33) 
32

>  <SMILES>  (33) 
COc1ccc(C(=O)[N-]S(=O)(=O)c2ccc(S(=O)(=O)c3ccccc3)c3cccnc23)cc1

>  <Energy>  (33) 
66.48970057089566

>  <Genealogy>  (33) 
COc1ccc(C(=O)[N-]S(=O)(=O)c2ccc(S(=O)(=O)c3ccccc3)c3cccnc23)cc1 (protonated)
COc1ccc(C(=O)[N-]S(=O)(=O)c2ccc(S(=O)(=O)c3ccccc3)c3cccnc23)cc1 (3D coordinates assigned)
COc1ccc(C(=O)[N-]S(=O)(=O)c2ccc(S(=O)(=O)c3ccccc3)c3cccnc23)cc1 (optimized conformer: 66.48970057089566 kcal/mol)

>  <smiles>  (33) 
COc1ccc(C(=O)NS(=O)(=O)c2ccc(S(=O)(=O)c3ccccc3)c3cccnc23)cc1

>  <score_type>  (33) 
oracle

>  <origin>  (33) 
adgpu

>  <m_score__min__energy>  (33) 
-13.130000000000001

>  <m_primary>  (33) 
energy

$$$$
33:0
     RDKit          3D

 52 54  0  0  0  0  0  0  0  0999 V2000
   -2.2160   21.1200  -33.0080 C   0  0  0  0  0  0  0  0  0  0  0  0
   -3.5850   20.7850  -33.2160 O   0  0  0  0  0  0  0  0  0  0  0  0
   -4.6710   21.4730  -32.6490 C   0  0  0  0  0  0  0  0  0  0  0  0
   -4.4990   22.6790  -31.9480 C   0  0  0  0  0  0  0  0  0  0  0  0
   -5.5980   23.3460  -31.4010 C   0  0  0  0  0  0  0  0  0  0  0  0
   -5.3990   24.6160  -30.6150 C   0  0  0  0  0  0  0  0  0  0  0  0
   -4.4050   24.3910  -29.4780 C   0  0  0  0  0  0  0  0  0  0  0  0
   -3.1020   24.9280  -29.8520 N   0  0  0  0  0  0  0  0  0  0  0  0
   -1.9970   25.0480  -28.9510 C   0  0  0  0  0  0  0  0  0  0  0  0
   -1.2570   26.0630  -29.0180 O   0  0  0  0  0  0  0  0  0  0  0  0
   -1.6750   23.9870  -27.9790 C   0  0  0  0  0  0  0  0  0  0  0  0
   -1.5460   24.1090  -26.5990 C   0  0  0  0  0  0  0  0  0  0  0  0
   -1.6660   25.3610  -25.7900 C   0  0  0  0  0  0  0  0  0  0  0  0
   -1.2260   22.9100  -26.0560 N   0  0  0  0  0  0  0  0  0  0  0  0
   -1.1630   22.0880  -27.1250 C   0  0  0  0  0  0  0  0  0  0  0  0
   -0.8570   20.7290  -27.0880 C   0  0  0  0  0  0  0  0  0  0  0  0
   -0.8350   20.0230  -28.3080 C   0  0  0  0  0  0  0  0  0  0  0  0
   -0.4690   18.5700  -28.3260 C   0  0  0  0  0  0  0  0  0  0  0  0
   -1.0950   20.7060  -29.5180 C   0  0  0  0  0  0  0  0  0  0  0  0
   -1.3990   22.0750  -29.4930 C   0  0  0  0  0  0  0  0  0  0  0  0
   -1.4170   22.7070  -28.2900 N   0  0  0  0  0  0  0  0  0  0  0  0
   -6.8770   22.7930  -31.5340 C   0  0  0  0  0  0  0  0  0  0  0  0
   -7.0750   21.5880  -32.2330 C   0  0  0  0  0  0  0  0  0  0  0  0
   -8.3630   21.0430  -32.3750 O   0  0  0  0  0  0  0  0  0  0  0  0
   -9.5060   21.4390  -31.6230 C   0  0  0  0  0  0  0  0  0  0  0  0
   -5.9550   20.9220  -32.7980 C   0  0  0  0  0  0  0  0  0  0  0  0
   -6.0440   19.7140  -33.5150 O   0  0  0  0  0  0  0  0  0  0  0  0
   -6.7040   18.5250  -33.0980 C   0  0  0  0  0  0  0  0  0  0  0  0
   -2.0107   21.1702  -31.9285 H   0  0  0  0  0  0  0  0  0  0  0  0
   -1.5766   20.3518  -33.4675 H   0  0  0  0  0  0  0  0  0  0  0  0
   -2.0036   22.0966  -33.4675 H   0  0  0  0  0  0  0  0  0  0  0  0
   -3.4903   23.1014  -31.8290 H   0  0  0  0  0  0  0  0  0  0  0  0
   -5.0126   25.3990  -31.2840 H   0  0  0  0  0  0  0  0  0  0  0  0
   -6.3644   24.9249  -30.1877 H   0  0  0  0  0  0  0  0  0  0  0  0
   -4.7643   24.9006  -28.5718 H   0  0  0  0  0  0  0  0  0  0  0  0
   -4.3125   23.3125  -29.2826 H   0  0  0  0  0  0  0  0  0  0  0  0
   -1.6419   25.1095  -24.7194 H   0  0  0  0  0  0  0  0  0  0  0  0
   -0.8281   26.0329  -26.0278 H   0  0  0  0  0  0  0  0  0  0  0  0
   -2.6162   25.8615  -26.0278 H   0  0  0  0  0  0  0  0  0  0  0  0
   -0.6393   20.2227  -26.1360 H   0  0  0  0  0  0  0  0  0  0  0  0
   -0.3764   18.2024  -27.2934 H   0  0  0  0  0  0  0  0  0  0  0  0
   -1.2519   18.0011  -28.8489 H   0  0  0  0  0  0  0  0  0  0  0  0
    0.4900   18.4399  -28.8489 H   0  0  0  0  0  0  0  0  0  0  0  0
   -1.0590   20.1659  -30.4756 H   0  0  0  0  0  0  0  0  0  0  0  0
   -1.6169   22.6223  -30.4220 H   0  0  0  0  0  0  0  0  0  0  0  0
   -7.7396   23.3078  -31.0857 H   0  0  0  0  0  0  0  0  0  0  0  0
   -9.2829   21.3617  -30.5486 H   0  0  0  0  0  0  0  0  0  0  0  0
   -9.7649   22.4792  -31.8698 H   0  0  0  0  0  0  0  0  0  0  0  0
  -10.3529   20.7819  -31.8698 H   0  0  0  0  0  0  0  0  0  0  0  0
   -6.7266   18.4843  -31.9990 H   0  0  0  0  0  0  0  0  0  0  0  0
   -7.7332   18.5215  -33.4863 H   0  0  0  0  0  0  0  0  0  0  0  0
   -6.1626   17.6497  -33.4863 H   0  0  0  0  0  0  0  0  0  0  0  0
  1  2  1  0
  2  3  1  0
  3  4  2  0
  4  5  1  0
  5  6  1  0
  6  7  1  0
  7  8  1  0
  8  9  1  0
  9 10  2  0
  9 11  1  0
 11 12  2  0
 12 13  1  0
 12 14  1  0
 14 15  2  0
 15 16  1  0
 16 17  2  0
 17 18  1  0
 17 19  1  0
 19 20  2  0
 20 21  1  0
  5 22  2  0
 22 23  1  0
 23 24  1  0
 24 25  1  0
 23 26  2  0
 26 27  1  0
 27 28  1  0
 26  3  1  0
 21 11  1  0
 21 15  1  0
  1 29  1  0
  1 30  1  0
  1 31  1  0
  4 32  1  0
  6 33  1  0
  6 34  1  0
  7 35  1  0
  7 36  1  0
 13 37  1  0
 13 38  1  0
 13 39  1  0
 16 40  1  0
 18 41  1  0
 18 42  1  0
 18 43  1  0
 19 44  1  0
 20 45  1  0
 22 46  1  0
 25 47  1  0
 25 48  1  0
 25 49  1  0
 28 50  1  0
 28 51  1  0
 28 52  1  0
M  CHG  1   8  -1
M  END
>  <UniqueID>  (34) 
33

>  <SMILES>  (34) 
COc1cc(CC[N-]C(=O)c2c(C)nc3cc(C)ccn23)cc(OC)c1OC

>  <Energy>  (34) 
89.74276127032464

>  <Genealogy>  (34) 
COc1cc(CC[N-]C(=O)c2c(C)nc3cc(C)ccn23)cc(OC)c1OC (protonated)
COc1cc(CC[N-]C(=O)c2c(C)nc3cc(C)ccn23)cc(OC)c1OC (3D coordinates assigned)
COc1cc(CC[N-]C(=O)c2c(C)nc3cc(C)ccn23)cc(OC)c1OC (optimized conformer: 89.74276127032464 kcal/mol)

>  <smiles>  (34) 
COc1cc(CCNC(=O)c2c(C)nc3cc(C)ccn23)cc(OC)c1OC

>  <score_type>  (34) 
oracle

>  <origin>  (34) 
adgpu

>  <m_score__min__energy>  (34) 
-9

>  <m_primary>  (34) 
energy

$$$$
34:0
     RDKit          3D

 38 41  0  0  0  0  0  0  0  0999 V2000
   -6.1310   26.1360  -29.7090 N   0  0  0  0  0  0  0  0  0  0  0  0
   -6.1150   25.1400  -30.2990 C   0  0  0  0  0  0  0  0  0  0  0  0
   -6.0940   23.9020  -31.0340 C   0  0  0  0  0  0  0  0  0  0  0  0
   -7.2690   23.3830  -31.6150 C   0  0  0  0  0  0  0  0  0  0  0  0
   -7.2310   22.1670  -32.3350 C   0  0  0  0  0  0  0  0  0  0  0  0
   -6.0230   21.4600  -32.4800 C   0  0  0  0  0  0  0  0  0  0  0  0
   -4.8820   22.0020  -31.8920 C   0  0  0  0  0  0  0  0  0  0  0  0
   -3.6380   21.5030  -31.9070 N   0  0  0  0  0  0  0  0  0  0  0  0
   -2.9460   22.4290  -31.1950 C   0  0  0  0  0  0  0  0  0  0  0  0
   -1.1890   22.2890  -30.8880 S   0  0  0  0  0  0  0  0  0  0  0  0
   -1.4300   21.6830  -29.2120 C   0  0  0  0  0  0  0  0  0  0  0  0
   -1.7240   20.3270  -29.0250 C   0  0  0  0  0  0  0  0  0  0  0  0
   -1.9070   19.8190  -27.7390 C   0  0  0  0  0  0  0  0  0  0  0  0
   -1.8030   20.6770  -26.6460 C   0  0  0  0  0  0  0  0  0  0  0  0
   -1.5340   21.9950  -26.8390 N   0  0  0  0  0  0  0  0  0  0  0  0
   -1.3470   22.5240  -28.0800 C   0  0  0  0  0  0  0  0  0  0  0  0
   -1.0540   24.2570  -28.2130 S   0  0  0  0  0  0  0  0  0  0  0  0
    0.2480   24.4930  -28.9250 O   0  0  0  0  0  0  0  0  0  0  0  0
   -2.1590   24.8870  -29.0130 O   0  0  0  0  0  0  0  0  0  0  0  0
   -0.9520   24.9820  -26.6110 C   0  0  0  0  0  0  0  0  0  0  0  0
   -1.9590   25.8560  -26.1760 C   0  0  0  0  0  0  0  0  0  0  0  0
   -1.8810   26.4440  -24.9110 C   0  0  0  0  0  0  0  0  0  0  0  0
   -0.7990   26.1620  -24.0730 C   0  0  0  0  0  0  0  0  0  0  0  0
    0.2070   25.2890  -24.5000 C   0  0  0  0  0  0  0  0  0  0  0  0
    0.1310   24.6980  -25.7650 C   0  0  0  0  0  0  0  0  0  0  0  0
   -3.6890   23.4690  -30.7390 N   0  0  0  0  0  0  0  0  0  0  0  0
   -4.9140   23.1730  -31.1970 C   0  0  0  0  0  0  0  0  0  0  0  0
   -8.2193   23.9265  -31.5076 H   0  0  0  0  0  0  0  0  0  0  0  0
   -8.1529   21.7704  -32.7854 H   0  0  0  0  0  0  0  0  0  0  0  0
   -5.9810   20.5129  -33.0379 H   0  0  0  0  0  0  0  0  0  0  0  0
   -1.8110   19.6599  -29.8953 H   0  0  0  0  0  0  0  0  0  0  0  0
   -2.1310   18.7525  -27.5892 H   0  0  0  0  0  0  0  0  0  0  0  0
   -1.9387   20.2872  -25.6264 H   0  0  0  0  0  0  0  0  0  0  0  0
   -2.8127   26.0792  -26.8327 H   0  0  0  0  0  0  0  0  0  0  0  0
   -2.6724   27.1298  -24.5743 H   0  0  0  0  0  0  0  0  0  0  0  0
   -0.7384   26.6265  -23.0777 H   0  0  0  0  0  0  0  0  0  0  0  0
    1.0587   25.0672  -23.8401 H   0  0  0  0  0  0  0  0  0  0  0  0
    0.9216   24.0092  -26.0976 H   0  0  0  0  0  0  0  0  0  0  0  0
  1  2  3  0
  2  3  1  0
  3  4  2  0
  4  5  1  0
  5  6  2  0
  6  7  1  0
  7  8  1  0
  8  9  2  0
  9 10  1  0
 10 11  1  0
 11 12  2  0
 12 13  1  0
 13 14  2  0
 14 15  1  0
 15 16  2  0
 16 17  1  0
 17 18  2  0
 17 19  2  0
 17 20  1  0
 20 21  2  0
 21 22  1  0
 22 23  2  0
 23 24  1  0
 24 25  2  0
  9 26  1  0
 26 27  1  0
 27  3  1  0
 27  7  2  0
 16 11  1  0
 25 20  1  0
  4 28  1  0
  5 29  1  0
  6 30  1  0
 12 31  1  0
 13 32  1  0
 14 33  1  0
 21 34  1  0
 22 35  1  0
 23 36  1  0
 24 37  1  0
 25 38  1  0
M  CHG  1  26  -1
M  END
>  <UniqueID>  (35) 
34

>  <SMILES>  (35) 
N#Cc1cccc2nc(Sc3cccnc3S(=O)(=O)c3ccccc3)[n-]c12

>  <Energy>  (35) 
76.26004171837567

>  <Genealogy>  (35) 
N#Cc1cccc2nc(Sc3cccnc3S(=O)(=O)c3ccccc3)[n-]c12 (protonated)
N#Cc1cccc2nc(Sc3cccnc3S(=O)(=O)c3ccccc3)[n-]c12 (3D coordinates assigned)
N#Cc1cccc2nc(Sc3cccnc3S(=O)(=O)c3ccccc3)[n-]c12 (optimized conformer: 76.26004171837567 kcal/mol)

>  <smiles>  (35) 
N#Cc1cccc2nc(Sc3cccnc3S(=O)(=O)c3ccccc3)[nH]c12

>  <score_type>  (35) 
oracle

>  <origin>  (35) 
adgpu

>  <m_score__min__energy>  (35) 
-9.9800000000000004

>  <m_primary>  (35) 
energy

$$$$
35:0
     RDKit          3D

 65 69  0  0  0  0  0  0  0  0999 V2000
   -3.3760   17.8340  -34.3780 N   0  0  0  0  0  0  0  0  0  0  0  0
   -4.3660   18.4970  -33.5800 C   0  0  0  0  0  0  0  0  0  0  0  0
   -4.0890   19.7900  -33.1060 C   0  0  0  0  0  0  0  0  0  0  0  0
   -4.9860   20.4490  -32.2500 C   0  0  0  0  0  0  0  0  0  0  0  0
   -4.7080   21.8240  -31.7710 C   0  0  0  0  0  0  0  0  0  0  0  0
   -3.4620   22.1110  -31.1840 C   0  0  0  0  0  0  0  0  0  0  0  0
   -3.1650   23.4030  -30.7270 C   0  0  0  0  0  0  0  0  0  0  0  0
   -1.9160   23.6990  -30.0900 N   0  0  0  0  0  0  0  0  0  0  0  0
   -1.4610   23.2220  -28.4830 S   0  0  0  0  0  0  0  0  0  0  0  0
   -2.6550   23.3680  -27.5820 O   0  0  0  0  0  0  0  0  0  0  0  0
   -0.3830   24.1440  -27.9870 O   0  0  0  0  0  0  0  0  0  0  0  0
   -0.8850   21.5590  -28.3860 C   0  0  0  0  0  0  0  0  0  0  0  0
   -0.1360   21.0100  -29.4350 C   0  0  0  0  0  0  0  0  0  0  0  0
    0.3060   19.6860  -29.3660 C   0  0  0  0  0  0  0  0  0  0  0  0
   -0.0110   18.8870  -28.2550 C   0  0  0  0  0  0  0  0  0  0  0  0
    0.4060   17.4690  -28.2080 C   0  0  0  0  0  0  0  0  0  0  0  0
    0.6970   16.7250  -29.2910 N   0  0  0  0  0  0  0  0  0  0  0  0
    1.0480   15.5450  -28.8030 N   0  0  0  0  0  0  0  0  0  0  0  0
    0.9740   15.5660  -27.4810 N   0  0  0  0  0  0  0  0  0  0  0  0
    0.5750   16.7610  -27.0760 N   0  0  0  0  0  0  0  0  0  0  0  0
   -0.7560   19.4430  -27.2030 C   0  0  0  0  0  0  0  0  0  0  0  0
   -1.1840   20.7720  -27.2650 C   0  0  0  0  0  0  0  0  0  0  0  0
   -4.1410   24.4030  -30.8120 C   0  0  0  0  0  0  0  0  0  0  0  0
   -3.8820   25.6780  -30.3200 O   0  0  0  0  0  0  0  0  0  0  0  0
   -5.3820   24.1300  -31.3970 C   0  0  0  0  0  0  0  0  0  0  0  0
   -5.6690   22.8490  -31.8860 C   0  0  0  0  0  0  0  0  0  0  0  0
   -6.8980   22.5970  -32.4950 O   0  0  0  0  0  0  0  0  0  0  0  0
   -6.1670   19.8030  -31.8700 C   0  0  0  0  0  0  0  0  0  0  0  0
   -6.4650   18.5290  -32.3510 C   0  0  0  0  0  0  0  0  0  0  0  0
   -5.5840   17.8670  -33.2220 C   0  0  0  0  0  0  0  0  0  0  0  0
   -6.0020   16.5630  -33.7800 C   0  0  0  0  0  0  0  0  0  0  0  0
   -7.2080   16.3620  -34.0900 O   0  0  0  0  0  0  0  0  0  0  0  0
   -5.0430   15.5060  -33.9060 N   0  0  0  0  0  0  0  0  0  0  0  0
   -4.8590   14.4500  -32.9160 C   0  0  0  0  0  0  0  0  0  0  0  0
   -3.3680   14.2010  -32.6760 C   0  0  0  0  0  0  0  0  0  0  0  0
   -2.5570   15.1650  -33.4540 N   0  0  0  0  0  0  0  0  0  0  0  0
   -1.4070   15.6620  -32.6740 C   0  0  0  0  0  0  0  0  0  0  0  0
   -0.5480   16.6190  -33.5240 C   0  0  0  0  0  0  0  0  0  0  0  0
   -1.1050   16.8180  -34.8100 O   0  0  0  0  0  0  0  0  0  0  0  0
   -1.1930   15.5780  -35.4830 C   0  0  0  0  0  0  0  0  0  0  0  0
   -2.1000   14.5850  -34.7290 C   0  0  0  0  0  0  0  0  0  0  0  0
   -2.6100   18.3800  -34.8320 H   0  0  0  0  0  0  0  0  0  0  0  0
   -3.2930   16.7940  -34.3990 H   0  0  0  0  0  0  0  0  0  0  0  0
   -3.1584   20.2922  -33.4090 H   0  0  0  0  0  0  0  0  0  0  0  0
   -2.7121   21.3126  -31.0824 H   0  0  0  0  0  0  0  0  0  0  0  0
    0.1050   21.6231  -30.3159 H   0  0  0  0  0  0  0  0  0  0  0  0
    0.9061   19.2668  -30.1871 H   0  0  0  0  0  0  0  0  0  0  0  0
   -1.0043   18.8290  -26.3247 H   0  0  0  0  0  0  0  0  0  0  0  0
   -1.7578   21.2022  -26.4309 H   0  0  0  0  0  0  0  0  0  0  0  0
   -6.1372   24.9261  -31.4735 H   0  0  0  0  0  0  0  0  0  0  0  0
   -7.7260   22.3770  -31.9530 H   0  0  0  0  0  0  0  0  0  0  0  0
   -6.8668   20.3047  -31.1855 H   0  0  0  0  0  0  0  0  0  0  0  0
   -7.4000   18.0369  -32.0452 H   0  0  0  0  0  0  0  0  0  0  0  0
   -5.3332   14.7522  -31.9706 H   0  0  0  0  0  0  0  0  0  0  0  0
   -5.3207   13.5243  -33.2901 H   0  0  0  0  0  0  0  0  0  0  0  0
   -3.1472   14.3214  -31.6051 H   0  0  0  0  0  0  0  0  0  0  0  0
   -3.1182   13.1794  -32.9983 H   0  0  0  0  0  0  0  0  0  0  0  0
   -1.7762   16.1984  -31.7875 H   0  0  0  0  0  0  0  0  0  0  0  0
   -0.7879   14.8052  -32.3698 H   0  0  0  0  0  0  0  0  0  0  0  0
   -0.4806   17.5894  -33.0104 H   0  0  0  0  0  0  0  0  0  0  0  0
    0.4481   16.1689  -33.6470 H   0  0  0  0  0  0  0  0  0  0  0  0
   -1.6064   15.7462  -36.4884 H   0  0  0  0  0  0  0  0  0  0  0  0
   -0.1831   15.1457  -35.5403 H   0  0  0  0  0  0  0  0  0  0  0  0
   -2.9747   14.3490  -35.3529 H   0  0  0  0  0  0  0  0  0  0  0  0
   -1.5258   13.6710  -34.5171 H   0  0  0  0  0  0  0  0  0  0  0  0
  1  2  1  0
  2  3  2  0
  3  4  1  0
  4  5  1  0
  5  6  2  0
  6  7  1  0
  7  8  1  0
  8  9  1  0
  9 10  2  0
  9 11  2  0
  9 12  1  0
 12 13  2  0
 13 14  1  0
 14 15  2  0
 15 16  1  0
 16 17  1  0
 17 18  2  0
 18 19  1  0
 19 20  1  0
 15 21  1  0
 21 22  2  0
  7 23  2  0
 23 24  1  0
 23 25  1  0
 25 26  2  0
 26 27  1  0
  4 28  2  0
 28 29  1  0
 29 30  2  0
 30 31  1  0
 31 32  2  0
 31 33  1  0
 33 34  1  0
 34 35  1  0
 35 36  1  0
 36 37  1  0
 37 38  1  0
 38 39  1  0
 39 40  1  0
 40 41  1  0
 30  2  1  0
 41 36  1  0
 26  5  1  0
 22 12  1  0
 20 16  2  0
  1 42  1  0
  1 43  1  0
  3 44  1  0
  6 45  1  0
 13 46  1  0
 14 47  1  0
 21 48  1  0
 22 49  1  0
 25 50  1  0
 27 51  1  0
 28 52  1  0
 29 53  1  0
 34 54  1  0
 34 55  1  0
 35 56  1  0
 35 57  1  0
 37 58  1  0
 37 59  1  0
 38 60  1  0
 38 61  1  0
 40 62  1  0
 40 63  1  0
 41 64  1  0
 41 65  1  0
M  CHG  4   8  -1  19  -1  24  -1  33  -1
M  END
>  <UniqueID>  (36) 
35

>  <SMILES>  (36) 
Nc1cc(-c2cc([N-]S(=O)(=O)c3ccc(-c4nn[n-]n4)cc3)c([O-])cc2O)ccc1C(=O)[N-]CCN1CCOCC1

>  <Energy>  (36) 
131.6559827758909

>  <Genealogy>  (36) 
Nc1cc(-c2cc([N-]S(=O)(=O)c3ccc(-c4nn[n-]n4)cc3)c([O-])cc2O)ccc1C(=O)[N-]CCN1CCOCC1 (protonated)
Nc1cc(-c2cc([N-]S(=O)(=O)c3ccc(-c4nn[n-]n4)cc3)c([O-])cc2O)ccc1C(=O)[N-]CCN1CCOCC1 (3D coordinates assigned)
Nc1cc(-c2cc([N-]S(=O)(=O)c3ccc(-c4nn[n-]n4)cc3)c([O-])cc2O)ccc1C(=O)[N-]CCN1CCOCC1 (nonaromatic ring conformer: 131.6559827758909 kcal/mol)

>  <smiles>  (36) 
Nc1cc(-c2cc(NS(=O)(=O)c3ccc(-c4nn[nH]n4)cc3)c(O)cc2O)ccc1C(=O)NCCN1CCOCC1

>  <score_type>  (36) 
oracle

>  <origin>  (36) 
adgpu

>  <m_score__min__energy>  (36) 
-12.27

>  <m_primary>  (36) 
energy

$$$$
36:0
     RDKit          3D

 49 53  0  0  0  0  0  0  0  0999 V2000
   -0.8880   19.6790  -31.7410 C   0  0  0  0  0  0  0  0  0  0  0  0
   -0.8140   19.3120  -33.1670 N   0  0  0  0  0  0  0  0  0  0  0  0
   -1.3630   20.3590  -34.0500 C   0  0  0  0  0  0  0  0  0  0  0  0
   -2.8740   20.5680  -33.8490 C   0  0  0  0  0  0  0  0  0  0  0  0
   -3.6220   19.2650  -33.7220 C   0  0  0  0  0  0  0  0  0  0  0  0
   -5.0230   19.2820  -33.7780 C   0  0  0  0  0  0  0  0  0  0  0  0
   -5.7610   18.0970  -33.6080 C   0  0  0  0  0  0  0  0  0  0  0  0
   -7.1960   18.0890  -33.6420 N   0  0  0  0  0  0  0  0  0  0  0  0
   -8.2270   18.7910  -32.4380 S   0  0  0  0  0  0  0  0  0  0  0  0
   -9.6200   18.9310  -32.9910 O   0  0  0  0  0  0  0  0  0  0  0  0
   -8.2750   17.8880  -31.2390 O   0  0  0  0  0  0  0  0  0  0  0  0
   -7.5790   20.3510  -31.9440 C   0  0  0  0  0  0  0  0  0  0  0  0
   -8.3580   21.5120  -32.0370 C   0  0  0  0  0  0  0  0  0  0  0  0
   -7.8210   22.7520  -31.6870 C   0  0  0  0  0  0  0  0  0  0  0  0
   -6.4970   22.8520  -31.2290 C   0  0  0  0  0  0  0  0  0  0  0  0
   -5.7040   21.6720  -31.1230 C   0  0  0  0  0  0  0  0  0  0  0  0
   -6.2590   20.4350  -31.4890 C   0  0  0  0  0  0  0  0  0  0  0  0
   -4.2690   21.6930  -30.6110 C   0  0  0  0  0  0  0  0  0  0  0  0
   -3.7780   23.0820  -30.3130 C   0  0  0  0  0  0  0  0  0  0  0  0
   -2.5420   23.4720  -29.8510 C   0  0  0  0  0  0  0  0  0  0  0  0
   -2.6330   24.8470  -29.7180 C   0  0  0  0  0  0  0  0  0  0  0  0
   -1.6020   25.6650  -29.2730 O   0  0  0  0  0  0  0  0  0  0  0  0
   -3.8500   25.3200  -30.0650 N   0  0  0  0  0  0  0  0  0  0  0  0
   -4.5370   24.2180  -30.4250 C   0  0  0  0  0  0  0  0  0  0  0  0
   -5.9260   24.1730  -30.8650 C   0  0  0  0  0  0  0  0  0  0  0  0
   -6.6140   25.2280  -30.9190 O   0  0  0  0  0  0  0  0  0  0  0  0
   -5.0820   16.8920  -33.3930 C   0  0  0  0  0  0  0  0  0  0  0  0
   -5.8060   15.7100  -33.2400 O   0  0  0  0  0  0  0  0  0  0  0  0
   -3.6820   16.8720  -33.3300 C   0  0  0  0  0  0  0  0  0  0  0  0
   -2.9470   18.0560  -33.4650 C   0  0  0  0  0  0  0  0  0  0  0  0
   -1.4350   18.0010  -33.4360 C   0  0  0  0  0  0  0  0  0  0  0  0
   -0.7081   18.7870  -31.1230 H   0  0  0  0  0  0  0  0  0  0  0  0
   -0.1251   20.4395  -31.5180 H   0  0  0  0  0  0  0  0  0  0  0  0
   -1.8860   20.0844  -31.5180 H   0  0  0  0  0  0  0  0  0  0  0  0
   -0.8449   21.3060  -33.8385 H   0  0  0  0  0  0  0  0  0  0  0  0
   -1.2062   20.0350  -35.0894 H   0  0  0  0  0  0  0  0  0  0  0  0
   -3.0306   21.1561  -32.9327 H   0  0  0  0  0  0  0  0  0  0  0  0
   -3.2611   21.0923  -34.7351 H   0  0  0  0  0  0  0  0  0  0  0  0
   -5.5497   20.2311  -33.9566 H   0  0  0  0  0  0  0  0  0  0  0  0
   -9.3985   21.4459  -32.3878 H   0  0  0  0  0  0  0  0  0  0  0  0
   -8.4395   23.6578  -31.7705 H   0  0  0  0  0  0  0  0  0  0  0  0
   -5.6491   19.5224  -31.4171 H   0  0  0  0  0  0  0  0  0  0  0  0
   -4.2160   21.0959  -29.6887 H   0  0  0  0  0  0  0  0  0  0  0  0
   -3.6283   21.2777  -31.4029 H   0  0  0  0  0  0  0  0  0  0  0  0
   -1.6734   22.8325  -29.6350 H   0  0  0  0  0  0  0  0  0  0  0  0
   -6.8180   15.7080  -33.1920 H   0  0  0  0  0  0  0  0  0  0  0  0
   -3.1565   15.9185  -33.1732 H   0  0  0  0  0  0  0  0  0  0  0  0
   -1.1251   17.2985  -32.6483 H   0  0  0  0  0  0  0  0  0  0  0  0
   -1.0991   17.6767  -34.4320 H   0  0  0  0  0  0  0  0  0  0  0  0
  1  2  1  0
  2  3  1  0
  3  4  1  0
  4  5  1  0
  5  6  2  0
  6  7  1  0
  7  8  1  0
  8  9  1  0
  9 10  2  0
  9 11  2  0
  9 12  1  0
 12 13  2  0
 13 14  1  0
 14 15  2  0
 15 16  1  0
 16 17  2  0
 16 18  1  0
 18 19  1  0
 19 20  1  0
 20 21  2  0
 21 22  1  0
 21 23  1  0
 23 24  1  0
 24 25  1  0
 25 26  2  0
  7 27  2  0
 27 28  1  0
 27 29  1  0
 29 30  2  0
 30 31  1  0
 31  2  1  0
 30  5  1  0
 17 12  1  0
 24 19  2  0
 25 15  1  0
  1 32  1  0
  1 33  1  0
  1 34  1  0
  3 35  1  0
  3 36  1  0
  4 37  1  0
  4 38  1  0
  6 39  1  0
 13 40  1  0
 14 41  1  0
 17 42  1  0
 18 43  1  0
 18 44  1  0
 20 45  1  0
 28 46  1  0
 29 47  1  0
 31 48  1  0
 31 49  1  0
M  CHG  3   8  -1  22  -1  23  -1
M  END
>  <UniqueID>  (37) 
36

>  <SMILES>  (37) 
CN1CCc2cc([N-]S(=O)(=O)c3ccc4c(c3)Cc3cc([O-])[n-]c3C4=O)c(O)cc2C1

>  <Energy>  (37) 
92.79033580116239

>  <Genealogy>  (37) 
CN1CCc2cc([N-]S(=O)(=O)c3ccc4c(c3)Cc3cc([O-])[n-]c3C4=O)c(O)cc2C1 (protonated)
CN1CCc2cc([N-]S(=O)(=O)c3ccc4c(c3)Cc3cc([O-])[n-]c3C4=O)c(O)cc2C1 (3D coordinates assigned)
CN1CCc2cc([N-]S(=O)(=O)c3ccc4c(c3)Cc3cc([O-])[n-]c3C4=O)c(O)cc2C1 (nonaromatic ring conformer: 92.79033580116239 kcal/mol)

>  <smiles>  (37) 
CN1CCc2cc(NS(=O)(=O)c3ccc4c(c3)Cc3cc(O)[nH]c3C4=O)c(O)cc2C1

>  <score_type>  (37) 
oracle

>  <origin>  (37) 
adgpu

>  <m_score__min__energy>  (37) 
-13.85

>  <m_primary>  (37) 
energy

$$$$
37:0
     RDKit          3D

 63 66  0  0  0  0  0  0  0  0999 V2000
   -8.1561   22.8172  -30.9457 H   0  0  0  0  0  0  0  0  0  0  0  0
   -7.1170   22.5070  -31.1300 C   0  0  0  0  0  0  0  0  0  0  0  0
   -6.0780   23.1180  -30.4270 C   0  0  0  0  0  0  0  0  0  0  0  0
   -6.3026   23.9045  -29.6915 H   0  0  0  0  0  0  0  0  0  0  0  0
   -4.7500   22.7340  -30.6540 C   0  0  0  0  0  0  0  0  0  0  0  0
   -3.6390   23.3720  -29.9140 C   0  0  0  0  0  0  0  0  0  0  0  0
   -3.2500   24.6870  -30.0150 C   0  0  0  0  0  0  0  0  0  0  0  0
   -3.8850   25.6700  -30.7650 O   0  0  0  0  0  0  0  0  0  0  0  0
   -2.1240   24.9000  -29.3140 N   0  0  0  0  0  0  0  0  0  0  0  0
   -1.8330   23.6880  -28.7910 C   0  0  0  0  0  0  0  0  0  0  0  0
   -0.7080   23.4970  -28.1530 N   0  0  0  0  0  0  0  0  0  0  0  0
   -0.0750   22.2610  -27.6890 C   0  0  0  0  0  0  0  0  0  0  0  0
    0.9846   22.4622  -27.4725 H   0  0  0  0  0  0  0  0  0  0  0  0
   -0.6034   21.9222  -26.7856 H   0  0  0  0  0  0  0  0  0  0  0  0
   -0.1640   21.1670  -28.7260 C   0  0  0  0  0  0  0  0  0  0  0  0
   -0.1920   21.4780  -30.0960 C   0  0  0  0  0  0  0  0  0  0  0  0
   -0.1451   22.5286  -30.4185 H   0  0  0  0  0  0  0  0  0  0  0  0
   -0.2790   20.4620  -31.0520 C   0  0  0  0  0  0  0  0  0  0  0  0
   -0.3115   20.7175  -32.1214 H   0  0  0  0  0  0  0  0  0  0  0  0
   -0.3250   19.1200  -30.6540 C   0  0  0  0  0  0  0  0  0  0  0  0
   -0.4690   17.8490  -31.8670 S   0  0  0  0  0  0  0  0  0  0  0  0
   -0.1070   16.5260  -31.2500 O   0  0  0  0  0  0  0  0  0  0  0  0
   -1.8810   17.7840  -32.3810 O   0  0  0  0  0  0  0  0  0  0  0  0
    0.6110   18.1890  -33.2430 C   0  0  0  0  0  0  0  0  0  0  0  0
    1.5971   18.4994  -32.8672 H   0  0  0  0  0  0  0  0  0  0  0  0
    0.7210   17.2820  -33.8556 H   0  0  0  0  0  0  0  0  0  0  0  0
    0.1816   18.9954  -33.8556 H   0  0  0  0  0  0  0  0  0  0  0  0
   -0.2470   18.8020  -29.2910 C   0  0  0  0  0  0  0  0  0  0  0  0
   -0.2637   17.7492  -28.9727 H   0  0  0  0  0  0  0  0  0  0  0  0
   -0.1480   19.8170  -28.3340 C   0  0  0  0  0  0  0  0  0  0  0  0
   -0.0571   19.5577  -27.2689 H   0  0  0  0  0  0  0  0  0  0  0  0
   -2.7590   22.7340  -29.1080 N   0  0  0  0  0  0  0  0  0  0  0  0
   -2.9530   21.3940  -28.5450 C   0  0  0  0  0  0  0  0  0  0  0  0
   -2.9445   21.4530  -27.4466 H   0  0  0  0  0  0  0  0  0  0  0  0
   -3.9189   20.9906  -28.8830 H   0  0  0  0  0  0  0  0  0  0  0  0
   -2.1412   20.7332  -28.8830 H   0  0  0  0  0  0  0  0  0  0  0  0
   -4.4740   21.7530  -31.6180 C   0  0  0  0  0  0  0  0  0  0  0  0
   -3.4302   21.4751  -31.8259 H   0  0  0  0  0  0  0  0  0  0  0  0
   -5.5090   21.1230  -32.3190 C   0  0  0  0  0  0  0  0  0  0  0  0
   -5.1030   19.8360  -33.4710 S   0  0  0  0  0  0  0  0  0  0  0  0
   -6.1230   19.7970  -34.5740 O   0  0  0  0  0  0  0  0  0  0  0  0
   -3.7690   20.1400  -34.0930 O   0  0  0  0  0  0  0  0  0  0  0  0
   -5.0390   18.2730  -32.6910 N   0  0  0  0  0  0  0  0  0  0  0  0
   -4.0620   18.1500  -32.3330 H   0  0  0  0  0  0  0  0  0  0  0  0
   -5.9720   18.2210  -31.5500 C   0  0  0  0  0  0  0  0  0  0  0  0
   -5.6026   18.8845  -30.7542 H   0  0  0  0  0  0  0  0  0  0  0  0
   -6.9641   18.5455  -31.8969 H   0  0  0  0  0  0  0  0  0  0  0  0
   -6.0950   16.7850  -30.9920 C   0  0  0  0  0  0  0  0  0  0  0  0
   -5.9494   16.8114  -29.9020 H   0  0  0  0  0  0  0  0  0  0  0  0
   -7.0945   16.4012  -31.2445 H   0  0  0  0  0  0  0  0  0  0  0  0
   -5.1320   15.9230  -31.5630 O   0  0  0  0  0  0  0  0  0  0  0  0
   -5.3510   15.8190  -32.9580 C   0  0  0  0  0  0  0  0  0  0  0  0
   -4.5613   15.1899  -33.3947 H   0  0  0  0  0  0  0  0  0  0  0  0
   -6.3461   15.3762  -33.1117 H   0  0  0  0  0  0  0  0  0  0  0  0
   -5.3320   17.1980  -33.6560 C   0  0  0  0  0  0  0  0  0  0  0  0
   -4.5581   17.1952  -34.4377 H   0  0  0  0  0  0  0  0  0  0  0  0
   -6.3230   17.3822  -34.0965 H   0  0  0  0  0  0  0  0  0  0  0  0
   -6.8470   21.4960  -32.0740 C   0  0  0  0  0  0  0  0  0  0  0  0
   -7.8770   20.8450  -32.7710 O   0  0  0  0  0  0  0  0  0  0  0  0
   -8.9370   20.1170  -32.1580 C   0  0  0  0  0  0  0  0  0  0  0  0
   -8.8420   20.1823  -31.0641 H   0  0  0  0  0  0  0  0  0  0  0  0
   -9.9022   20.5436  -32.4683 H   0  0  0  0  0  0  0  0  0  0  0  0
   -8.8853   19.0629  -32.4683 H   0  0  0  0  0  0  0  0  0  0  0  0
  1  2  1  0
  2  3  2  0
  3  4  1  0
  3  5  1  0
  5  6  1  0
  6  7  2  0
  7  8  1  0
  7  9  1  0
  9 10  1  0
 10 11  2  0
 11 12  1  0
 12 13  1  0
 12 14  1  0
 12 15  1  0
 15 16  2  0
 16 17  1  0
 16 18  1  0
 18 19  1  0
 18 20  2  0
 20 21  1  0
 21 22  2  0
 21 23  2  0
 21 24  1  0
 24 25  1  0
 24 26  1  0
 24 27  1  0
 20 28  1  0
 28 29  1  0
 28 30  2  0
 30 31  1  0
 10 32  1  0
 32 33  1  0
 33 34  1  0
 33 35  1  0
 33 36  1  0
  5 37  2  0
 37 38  1  0
 37 39  1  0
 39 40  1  0
 40 41  2  0
 40 42  2  0
 40 43  1  0
 43 44  1  0
 43 45  1  0
 45 46  1  0
 45 47  1  0
 45 48  1  0
 48 49  1  0
 48 50  1  0
 48 51  1  0
 51 52  1  0
 52 53  1  0
 52 54  1  0
 52 55  1  0
 55 56  1  0
 55 57  1  0
 39 58  2  0
 58 59  1  0
 59 60  1  0
 60 61  1  0
 60 62  1  0
 60 63  1  0
 58  2  1  0
 32  6  1  0
 55 43  1  0
 30 15  1  0
M  CHG  3   8  -1   9  -1  43   1
M  END
>  <UniqueID>  (38) 
37

>  <SMILES>  (38) 
COc1ccc(-c2c([O-])[n-]/c(=N/Cc3ccc(S(C)(=O)=O)cc3)n2C)cc1S(=O)(=O)[NH+]1CCOCC1

>  <Energy>  (38) 
114.19857129002573

>  <Genealogy>  (38) 
COc1ccc(-c2c([O-])[n-]c(=NCc3ccc(S(C)(=O)=O)cc3)n2C)cc1S(=O)(=O)[NH+]1CCOCC1 (protonated)
COc1ccc(-c2c([O-])[n-]/c(=N/Cc3ccc(S(C)(=O)=O)cc3)n2C)cc1S(=O)(=O)[NH+]1CCOCC1 (cis-trans isomerization)
COc1ccc(-c2c([O-])[n-]/c(=N/Cc3ccc(S(C)(=O)=O)cc3)n2C)cc1S(=O)(=O)[NH+]1CCOCC1 (3D coordinates assigned)
COc1ccc(-c2c([O-])[n-]/c(=N/Cc3ccc(S(C)(=O)=O)cc3)n2C)cc1S(=O)(=O)[NH+]1CCOCC1 (nonaromatic ring conformer: 114.19857129002573 kcal/mol)

>  <smiles>  (38) 
COc1ccc(-c2c(O)[nH]c(=NCc3ccc(S(C)(=O)=O)cc3)n2C)cc1S(=O)(=O)N1CCOCC1

>  <score_type>  (38) 
oracle

>  <origin>  (38) 
adgpu

>  <m_score__min__energy>  (38) 
-12.640000000000001

>  <m_primary>  (38) 
energy

$$$$
38:0
     RDKit          3D

 46 48  0  0  0  0  0  0  0  0999 V2000
   -2.7980   19.0930  -26.6850 N   0  0  0  0  0  0  0  0  0  0  0  0
   -2.7030   20.1500  -27.1460 C   0  0  0  0  0  0  0  0  0  0  0  0
   -2.5830   21.4650  -27.7170 C   0  0  0  0  0  0  0  0  0  0  0  0
   -1.3280   21.9620  -28.0850 C   0  0  0  0  0  0  0  0  0  0  0  0
   -1.2150   23.2380  -28.6370 C   0  0  0  0  0  0  0  0  0  0  0  0
   -2.3530   24.0320  -28.8160 C   0  0  0  0  0  0  0  0  0  0  0  0
   -2.2160   25.3070  -29.3580 O   0  0  0  0  0  0  0  0  0  0  0  0
   -3.6200   23.5500  -28.4380 C   0  0  0  0  0  0  0  0  0  0  0  0
   -4.7830   24.3800  -28.5940 N   0  0  0  0  0  0  0  0  0  0  0  0
   -5.4220   24.7890  -30.1540 S   0  0  0  0  0  0  0  0  0  0  0  0
   -6.4220   25.9020  -30.0130 O   0  0  0  0  0  0  0  0  0  0  0  0
   -4.3050   25.2480  -31.0490 O   0  0  0  0  0  0  0  0  0  0  0  0
   -6.2320   23.3780  -30.8280 C   0  0  0  0  0  0  0  0  0  0  0  0
   -5.5790   22.1400  -30.8970 C   0  0  0  0  0  0  0  0  0  0  0  0
   -6.2750   21.0030  -31.3170 C   0  0  0  0  0  0  0  0  0  0  0  0
   -7.6280   21.0940  -31.6750 C   0  0  0  0  0  0  0  0  0  0  0  0
   -8.5280   19.6460  -32.1240 S   0  0  0  0  0  0  0  0  0  0  0  0
   -9.8140   20.0450  -32.7920 O   0  0  0  0  0  0  0  0  0  0  0  0
   -8.8700   18.8690  -30.8830 O   0  0  0  0  0  0  0  0  0  0  0  0
   -7.6000   18.6320  -33.2060 N   0  0  0  0  0  0  0  0  0  0  0  0
   -7.1260   17.3980  -32.5300 C   0  0  0  0  0  0  0  0  0  0  0  0
   -5.6210   17.4200  -32.2210 C   0  0  0  0  0  0  0  0  0  0  0  0
   -4.8040   17.6010  -33.5100 C   0  0  0  0  0  0  0  0  0  0  0  0
   -5.5050   18.5130  -34.5360 C   0  0  0  0  0  0  0  0  0  0  0  0
   -6.5380   19.4230  -33.8640 C   0  0  0  0  0  0  0  0  0  0  0  0
   -8.2680   22.3410  -31.6390 C   0  0  0  0  0  0  0  0  0  0  0  0
   -7.5750   23.4750  -31.2110 C   0  0  0  0  0  0  0  0  0  0  0  0
   -3.7260   22.2530  -27.9030 C   0  0  0  0  0  0  0  0  0  0  0  0
   -0.4289   21.3454  -27.9388 H   0  0  0  0  0  0  0  0  0  0  0  0
   -0.2273   23.6215  -28.9327 H   0  0  0  0  0  0  0  0  0  0  0  0
   -5.3870   24.5820  -27.7660 H   0  0  0  0  0  0  0  0  0  0  0  0
   -4.5172   22.0629  -30.6202 H   0  0  0  0  0  0  0  0  0  0  0  0
   -5.7594   20.0326  -31.3670 H   0  0  0  0  0  0  0  0  0  0  0  0
   -7.6759   17.2837  -31.5842 H   0  0  0  0  0  0  0  0  0  0  0  0
   -7.3076   16.5577  -33.2162 H   0  0  0  0  0  0  0  0  0  0  0  0
   -5.4051   18.2537  -31.5367 H   0  0  0  0  0  0  0  0  0  0  0  0
   -5.3414   16.4627  -31.7568 H   0  0  0  0  0  0  0  0  0  0  0  0
   -3.8317   18.0453  -33.2508 H   0  0  0  0  0  0  0  0  0  0  0  0
   -4.6882   16.6093  -33.9717 H   0  0  0  0  0  0  0  0  0  0  0  0
   -4.7490   19.1375  -35.0346 H   0  0  0  0  0  0  0  0  0  0  0  0
   -6.0280   17.8756  -35.2641 H   0  0  0  0  0  0  0  0  0  0  0  0
   -6.0326   20.0432  -33.1090 H   0  0  0  0  0  0  0  0  0  0  0  0
   -7.0017   20.0536  -34.6369 H   0  0  0  0  0  0  0  0  0  0  0  0
   -9.3199   22.4262  -31.9491 H   0  0  0  0  0  0  0  0  0  0  0  0
   -8.0862   24.4483  -31.1746 H   0  0  0  0  0  0  0  0  0  0  0  0
   -4.7140   21.8548  -27.6287 H   0  0  0  0  0  0  0  0  0  0  0  0
  1  2  3  0
  2  3  1  0
  3  4  2  0
  4  5  1  0
  5  6  2  0
  6  7  1  0
  6  8  1  0
  8  9  1  0
  9 10  1  0
 10 11  2  0
 10 12  2  0
 10 13  1  0
 13 14  2  0
 14 15  1  0
 15 16  2  0
 16 17  1  0
 17 18  2  0
 17 19  2  0
 17 20  1  0
 20 21  1  0
 21 22  1  0
 22 23  1  0
 23 24  1  0
 24 25  1  0
 16 26  1  0
 26 27  2  0
  8 28  2  0
 28  3  1  0
 27 13  1  0
 25 20  1  0
  4 29  1  0
  5 30  1  0
  9 31  1  0
 14 32  1  0
 15 33  1  0
 21 34  1  0
 21 35  1  0
 22 36  1  0
 22 37  1  0
 23 38  1  0
 23 39  1  0
 24 40  1  0
 24 41  1  0
 25 42  1  0
 25 43  1  0
 26 44  1  0
 27 45  1  0
 28 46  1  0
M  CHG  1   7  -1
M  END
>  <UniqueID>  (39) 
38

>  <SMILES>  (39) 
N#Cc1ccc([O-])c(NS(=O)(=O)c2ccc(S(=O)(=O)N3CCCCC3)cc2)c1

>  <Energy>  (39) 
51.58491752673269

>  <Genealogy>  (39) 
N#Cc1ccc([O-])c(NS(=O)(=O)c2ccc(S(=O)(=O)N3CCCCC3)cc2)c1 (protonated)
N#Cc1ccc([O-])c(NS(=O)(=O)c2ccc(S(=O)(=O)N3CCCCC3)cc2)c1 (3D coordinates assigned)
N#Cc1ccc([O-])c(NS(=O)(=O)c2ccc(S(=O)(=O)N3CCCCC3)cc2)c1 (nonaromatic ring conformer: 51.58491752673269 kcal/mol)

>  <smiles>  (39) 
N#Cc1ccc(O)c(NS(=O)(=O)c2ccc(S(=O)(=O)N3CCCCC3)cc2)c1

>  <score_type>  (39) 
oracle

>  <origin>  (39) 
adgpu

>  <m_score__min__energy>  (39) 
-14.710000000000001

>  <m_primary>  (39) 
energy

$$$$
39:0
     RDKit          3D

 65 68  0  0  0  0  0  0  0  0999 V2000
    0.8920   13.7260  -25.7570 N   0  0  0  0  0  0  0  0  0  0  0  0
    1.4160   13.1840  -27.0040 C   0  0  0  0  0  0  0  0  0  0  0  0
    1.4840   14.2690  -28.0450 C   0  0  0  0  0  0  0  0  0  0  0  0
    2.0500   14.0010  -29.3020 C   0  0  0  0  0  0  0  0  0  0  0  0
    2.1380   15.0110  -30.2610 C   0  0  0  0  0  0  0  0  0  0  0  0
    1.6780   16.2980  -29.9720 C   0  0  0  0  0  0  0  0  0  0  0  0
    1.1260   16.5910  -28.7120 C   0  0  0  0  0  0  0  0  0  0  0  0
    0.6080   17.9870  -28.4180 C   0  0  0  0  0  0  0  0  0  0  0  0
   -0.1730   18.0520  -27.0710 C   0  0  0  0  0  0  0  0  0  0  0  0
   -1.5870   18.6350  -27.2110 C   0  0  0  0  0  0  0  0  0  0  0  0
   -1.5620   19.8610  -28.0200 N   0  0  0  0  0  0  0  0  0  0  0  0
   -2.4800   20.9320  -27.7240 C   0  0  0  0  0  0  0  0  0  0  0  0
   -3.5730   20.6800  -27.1470 O   0  0  0  0  0  0  0  0  0  0  0  0
   -2.1790   22.3250  -28.1100 C   0  0  0  0  0  0  0  0  0  0  0  0
   -1.0320   22.9690  -27.6160 C   0  0  0  0  0  0  0  0  0  0  0  0
   -0.7230   24.2690  -28.0220 C   0  0  0  0  0  0  0  0  0  0  0  0
   -1.5550   24.9380  -28.9240 C   0  0  0  0  0  0  0  0  0  0  0  0
   -1.2250   26.2240  -29.3390 O   0  0  0  0  0  0  0  0  0  0  0  0
   -2.7250   24.3230  -29.3980 C   0  0  0  0  0  0  0  0  0  0  0  0
   -3.5360   25.0190  -30.3510 N   0  0  0  0  0  0  0  0  0  0  0  0
   -5.2550   24.8530  -30.5080 S   0  0  0  0  0  0  0  0  0  0  0  0
   -5.8550   26.0170  -31.2480 O   0  0  0  0  0  0  0  0  0  0  0  0
   -5.8470   24.8190  -29.1280 O   0  0  0  0  0  0  0  0  0  0  0  0
   -5.6130   23.3430  -31.3470 C   0  0  0  0  0  0  0  0  0  0  0  0
   -6.9350   22.8950  -31.4740 C   0  0  0  0  0  0  0  0  0  0  0  0
   -7.2170   21.6880  -32.1310 C   0  0  0  0  0  0  0  0  0  0  0  0
   -8.6390   21.2140  -32.2550 C   0  0  0  0  0  0  0  0  0  0  0  0
   -8.6730   19.9310  -32.8210 O   0  0  0  0  0  0  0  0  0  0  0  0
   -6.1600   20.9080  -32.6270 C   0  0  0  0  0  0  0  0  0  0  0  0
   -4.8290   21.3330  -32.4840 C   0  0  0  0  0  0  0  0  0  0  0  0
   -3.7100   20.5060  -33.0690 C   0  0  0  0  0  0  0  0  0  0  0  0
   -4.2480   19.5300  -33.8880 F   0  0  0  0  0  0  0  0  0  0  0  0
   -2.8410   21.2890  -33.8110 F   0  0  0  0  0  0  0  0  0  0  0  0
   -2.9900   19.8970  -32.0570 F   0  0  0  0  0  0  0  0  0  0  0  0
   -4.5650   22.5680  -31.8610 C   0  0  0  0  0  0  0  0  0  0  0  0
   -3.0370   23.0170  -28.9810 C   0  0  0  0  0  0  0  0  0  0  0  0
   -0.8050   19.8900  -29.2870 C   0  0  0  0  0  0  0  0  0  0  0  0
   -0.2060   18.5180  -29.6140 C   0  0  0  0  0  0  0  0  0  0  0  0
    1.0310   15.5650  -27.7530 C   0  0  0  0  0  0  0  0  0  0  0  0
   -0.0620   14.0990  -25.9610 H   0  0  0  0  0  0  0  0  0  0  0  0
    1.4790   14.5530  -25.4850 H   0  0  0  0  0  0  0  0  0  0  0  0
    2.4246   12.7805  -26.8311 H   0  0  0  0  0  0  0  0  0  0  0  0
    0.7510   12.3827  -27.3586 H   0  0  0  0  0  0  0  0  0  0  0  0
    2.4249   12.9926  -29.5312 H   0  0  0  0  0  0  0  0  0  0  0  0
    2.5712   14.7929  -31.2483 H   0  0  0  0  0  0  0  0  0  0  0  0
    1.7480   17.0874  -30.7349 H   0  0  0  0  0  0  0  0  0  0  0  0
    1.4710   18.6561  -28.2858 H   0  0  0  0  0  0  0  0  0  0  0  0
   -0.2551   17.0324  -26.6664 H   0  0  0  0  0  0  0  0  0  0  0  0
    0.3887   18.7215  -26.4030 H   0  0  0  0  0  0  0  0  0  0  0  0
   -2.2374   17.8935  -27.6980 H   0  0  0  0  0  0  0  0  0  0  0  0
   -1.9715   18.8782  -26.2095 H   0  0  0  0  0  0  0  0  0  0  0  0
   -0.3741   22.4465  -26.9059 H   0  0  0  0  0  0  0  0  0  0  0  0
    0.1765   24.7672  -27.6313 H   0  0  0  0  0  0  0  0  0  0  0  0
   -7.7572   23.4941  -31.0556 H   0  0  0  0  0  0  0  0  0  0  0  0
   -9.1004   21.1835  -31.2569 H   0  0  0  0  0  0  0  0  0  0  0  0
   -9.1940   21.9079  -32.9035 H   0  0  0  0  0  0  0  0  0  0  0  0
   -8.7510   20.0560  -33.8030 H   0  0  0  0  0  0  0  0  0  0  0  0
   -6.3764   19.9552  -33.1323 H   0  0  0  0  0  0  0  0  0  0  0  0
   -3.5286   22.9268  -31.7773 H   0  0  0  0  0  0  0  0  0  0  0  0
   -3.9583   22.5342  -29.3389 H   0  0  0  0  0  0  0  0  0  0  0  0
   -1.4820   20.1879  -30.1013 H   0  0  0  0  0  0  0  0  0  0  0  0
    0.0195   20.6103  -29.1804 H   0  0  0  0  0  0  0  0  0  0  0  0
   -1.0190   17.8125  -29.8407 H   0  0  0  0  0  0  0  0  0  0  0  0
    0.4613   18.6184  -30.4827 H   0  0  0  0  0  0  0  0  0  0  0  0
    0.5976   15.7810  -26.7653 H   0  0  0  0  0  0  0  0  0  0  0  0
  1  2  1  0
  2  3  1  0
  3  4  2  0
  4  5  1  0
  5  6  2  0
  6  7  1  0
  7  8  1  0
  8  9  1  0
  9 10  1  0
 10 11  1  0
 11 12  1  0
 12 13  2  0
 12 14  1  0
 14 15  2  0
 15 16  1  0
 16 17  2  0
 17 18  1  0
 17 19  1  0
 19 20  1  0
 20 21  1  0
 21 22  2  0
 21 23  2  0
 21 24  1  0
 24 25  2  0
 25 26  1  0
 26 27  1  0
 27 28  1  0
 26 29  2  0
 29 30  1  0
 30 31  1  0
 31 32  1  0
 31 33  1  0
 31 34  1  0
 30 35  2  0
 19 36  2  0
 11 37  1  0
 37 38  1  0
  7 39  2  0
 39  3  1  0
 38  8  1  0
 36 14  1  0
 35 24  1  0
  1 40  1  0
  1 41  1  0
  2 42  1  0
  2 43  1  0
  4 44  1  0
  5 45  1  0
  6 46  1  0
  8 47  1  0
  9 48  1  0
  9 49  1  0
 10 50  1  0
 10 51  1  0
 15 52  1  0
 16 53  1  0
 25 54  1  0
 27 55  1  0
 27 56  1  0
 28 57  1  0
 29 58  1  0
 35 59  1  0
 36 60  1  0
 37 61  1  0
 37 62  1  0
 38 63  1  0
 38 64  1  0
 39 65  1  0
M  CHG  2  18  -1  20  -1
M  END
>  <UniqueID>  (40) 
39

>  <SMILES>  (40) 
NCc1cccc(C2CCN(C(=O)c3ccc([O-])c([N-]S(=O)(=O)c4cc(CO)cc(C(F)(F)F)c4)c3)CC2)c1

>  <Energy>  (40) 
81.55445579181583

>  <Genealogy>  (40) 
NCc1cccc(C2CCN(C(=O)c3ccc([O-])c([N-]S(=O)(=O)c4cc(CO)cc(C(F)(F)F)c4)c3)CC2)c1 (protonated)
NCc1cccc(C2CCN(C(=O)c3ccc([O-])c([N-]S(=O)(=O)c4cc(CO)cc(C(F)(F)F)c4)c3)CC2)c1 (3D coordinates assigned)
NCc1cccc(C2CCN(C(=O)c3ccc([O-])c([N-]S(=O)(=O)c4cc(CO)cc(C(F)(F)F)c4)c3)CC2)c1 (nonaromatic ring conformer: 81.55445579181583 kcal/mol)

>  <smiles>  (40) 
NCc1cccc(C2CCN(C(=O)c3ccc(O)c(NS(=O)(=O)c4cc(CO)cc(C(F)(F)F)c4)c3)CC2)c1

>  <score_type>  (40) 
oracle

>  <origin>  (40) 
adgpu

>  <m_score__min__energy>  (40) 
-14.68

>  <m_primary>  (40) 
energy

$$$$
40:0
     RDKit          3D

 54 56  0  0  0  0  0  0  0  0999 V2000
   -9.7234   17.5973  -31.8021 H   0  0  0  0  0  0  0  0  0  0  0  0
   -9.1110   18.5030  -31.9230 C   0  0  0  0  0  0  0  0  0  0  0  0
   -9.6430   19.6100  -32.5060 N   0  0  0  0  0  0  0  0  0  0  0  0
   -8.9200   20.7500  -32.6690 C   0  0  0  0  0  0  0  0  0  0  0  0
   -9.3803   21.6258  -33.1496 H   0  0  0  0  0  0  0  0  0  0  0  0
   -7.5890   20.8150  -32.2270 C   0  0  0  0  0  0  0  0  0  0  0  0
   -6.8390   22.0300  -32.4100 N   0  0  0  0  0  0  0  0  0  0  0  0
   -6.9560   22.5570  -33.3040 H   0  0  0  0  0  0  0  0  0  0  0  0
   -5.8000   22.4640  -31.5180 C   0  0  0  0  0  0  0  0  0  0  0  0
   -6.1680   23.0580  -30.3040 C   0  0  0  0  0  0  0  0  0  0  0  0
   -7.2321   23.1356  -30.0365 H   0  0  0  0  0  0  0  0  0  0  0  0
   -5.1990   23.5520  -29.4310 C   0  0  0  0  0  0  0  0  0  0  0  0
   -5.5022   24.0237  -28.4847 H   0  0  0  0  0  0  0  0  0  0  0  0
   -3.8430   23.4490  -29.7560 C   0  0  0  0  0  0  0  0  0  0  0  0
   -2.6130   24.0890  -28.6710 S   0  0  0  0  0  0  0  0  0  0  0  0
   -1.9720   25.2990  -29.2920 O   0  0  0  0  0  0  0  0  0  0  0  0
   -1.5520   23.0540  -28.4240 O   0  0  0  0  0  0  0  0  0  0  0  0
   -3.3680   24.5390  -27.1250 C   0  0  0  0  0  0  0  0  0  0  0  0
   -2.7492   24.1702  -26.2937 H   0  0  0  0  0  0  0  0  0  0  0  0
   -3.4511   25.6341  -27.0625 H   0  0  0  0  0  0  0  0  0  0  0  0
   -4.3707   24.0911  -27.0625 H   0  0  0  0  0  0  0  0  0  0  0  0
   -3.4620   22.8410  -30.9590 C   0  0  0  0  0  0  0  0  0  0  0  0
   -2.3950   22.7654  -31.2154 H   0  0  0  0  0  0  0  0  0  0  0  0
   -4.4270   22.3260  -31.8430 C   0  0  0  0  0  0  0  0  0  0  0  0
   -3.9690   21.6150  -33.0590 C   0  0  0  0  0  0  0  0  0  0  0  0
   -2.8740   21.9190  -33.6040 O   0  0  0  0  0  0  0  0  0  0  0  0
   -4.7400   20.5260  -33.5800 N   0  0  0  0  0  0  0  0  0  0  0  0
   -4.5110   19.2460  -33.4890 C   0  0  0  0  0  0  0  0  0  0  0  0
   -5.6370   18.1130  -33.9980 S   0  0  0  0  0  0  0  0  0  0  0  0
   -4.6850   16.7850  -33.5800 C   0  0  0  0  0  0  0  0  0  0  0  0
   -5.0260   15.3170  -33.7910 C   0  0  0  0  0  0  0  0  0  0  0  0
   -4.1530   14.7420  -34.9240 C   0  0  0  0  0  0  0  0  0  0  0  0
   -3.3088   14.1860  -34.4902 H   0  0  0  0  0  0  0  0  0  0  0  0
   -4.7577   14.0648  -35.5451 H   0  0  0  0  0  0  0  0  0  0  0  0
   -3.7696   15.5649  -35.5451 H   0  0  0  0  0  0  0  0  0  0  0  0
   -6.5130   15.1950  -34.1730 C   0  0  0  0  0  0  0  0  0  0  0  0
   -7.1234   15.1449  -33.2593 H   0  0  0  0  0  0  0  0  0  0  0  0
   -6.8123   16.0716  -34.7663 H   0  0  0  0  0  0  0  0  0  0  0  0
   -6.6654   14.2813  -34.7663 H   0  0  0  0  0  0  0  0  0  0  0  0
   -4.7710   14.4970  -32.5080 C   0  0  0  0  0  0  0  0  0  0  0  0
   -4.9664   15.1252  -31.6264 H   0  0  0  0  0  0  0  0  0  0  0  0
   -5.4401   13.6241  -32.4917 H   0  0  0  0  0  0  0  0  0  0  0  0
   -3.7248   14.1575  -32.4917 H   0  0  0  0  0  0  0  0  0  0  0  0
   -3.4790   17.2790  -33.0770 C   0  0  0  0  0  0  0  0  0  0  0  0
   -2.6699   16.6164  -32.7360 H   0  0  0  0  0  0  0  0  0  0  0  0
   -3.3720   18.6400  -33.0370 N   0  0  0  0  0  0  0  0  0  0  0  0
   -2.1180   19.2860  -32.6400 C   0  0  0  0  0  0  0  0  0  0  0  0
   -2.0540   19.3190  -31.5424 H   0  0  0  0  0  0  0  0  0  0  0  0
   -1.2680   18.7135  -33.0398 H   0  0  0  0  0  0  0  0  0  0  0  0
   -2.0907   20.3104  -33.0398 H   0  0  0  0  0  0  0  0  0  0  0  0
   -7.0250   19.6720  -31.6330 C   0  0  0  0  0  0  0  0  0  0  0  0
   -5.9800   19.6902  -31.2901 H   0  0  0  0  0  0  0  0  0  0  0  0
   -7.7890   18.5150  -31.4780 C   0  0  0  0  0  0  0  0  0  0  0  0
   -7.3529   17.6205  -31.0092 H   0  0  0  0  0  0  0  0  0  0  0  0
  1  2  1  0
  2  3  2  0
  3  4  1  0
  4  5  1  0
  4  6  2  0
  6  7  1  0
  7  8  1  0
  7  9  1  0
  9 10  2  0
 10 11  1  0
 10 12  1  0
 12 13  1  0
 12 14  2  0
 14 15  1  0
 15 16  2  0
 15 17  2  0
 15 18  1  0
 18 19  1  0
 18 20  1  0
 18 21  1  0
 14 22  1  0
 22 23  1  0
 22 24  2  0
 24 25  1  0
 25 26  2  0
 25 27  1  0
 27 28  2  0
 28 29  1  0
 29 30  1  0
 30 31  1  0
 31 32  1  0
 32 33  1  0
 32 34  1  0
 32 35  1  0
 31 36  1  0
 36 37  1  0
 36 38  1  0
 36 39  1  0
 31 40  1  0
 40 41  1  0
 40 42  1  0
 40 43  1  0
 30 44  2  0
 44 45  1  0
 44 46  1  0
 46 47  1  0
 47 48  1  0
 47 49  1  0
 47 50  1  0
  6 51  1  0
 51 52  1  0
 51 53  2  0
 53 54  1  0
 53  2  1  0
 24  9  1  0
 46 28  1  0
M  END
>  <UniqueID>  (41) 
40

>  <SMILES>  (41) 
Cn1cc(C(C)(C)C)s/c1=N/C(=O)c1cc(S(C)(=O)=O)ccc1Nc1cccnc1

>  <Energy>  (41) 
103.11944730627025

>  <Genealogy>  (41) 
Cn1cc(C(C)(C)C)s/c1=N/C(=O)c1cc(S(C)(=O)=O)ccc1Nc1cccnc1 (cis-trans isomerization)
Cn1cc(C(C)(C)C)s/c1=N/C(=O)c1cc(S(C)(=O)=O)ccc1Nc1cccnc1 (3D coordinates assigned)
Cn1cc(C(C)(C)C)s/c1=N/C(=O)c1cc(S(C)(=O)=O)ccc1Nc1cccnc1 (optimized conformer: 103.11944730627025 kcal/mol)

>  <smiles>  (41) 
Cn1cc(C(C)(C)C)sc1=NC(=O)c1cc(S(C)(=O)=O)ccc1Nc1cccnc1

>  <score_type>  (41) 
oracle

>  <origin>  (41) 
adgpu

>  <m_score__min__energy>  (41) 
-9.6899999999999995

>  <m_primary>  (41) 
energy

$$$$
41:0
     RDKit          3D

 62 66  0  0  0  0  0  0  0  0999 V2000
   -8.9280   19.8840  -32.1970 O   0  0  0  0  0  0  0  0  0  0  0  0
   -7.7010   20.0350  -32.4270 C   0  0  0  0  0  0  0  0  0  0  0  0
   -6.9820   18.9820  -33.0870 N   0  0  0  0  0  0  0  0  0  0  0  0
   -6.0880   19.1380  -34.2350 C   0  0  0  0  0  0  0  0  0  0  0  0
   -4.6920   19.4550  -33.7930 C   0  0  0  0  0  0  0  0  0  0  0  0
   -3.8240   18.5070  -33.3510 N   0  0  0  0  0  0  0  0  0  0  0  0
   -2.7690   19.2400  -32.9660 C   0  0  0  0  0  0  0  0  0  0  0  0
   -1.5810   18.7900  -32.3930 C   0  0  0  0  0  0  0  0  0  0  0  0
   -0.6270   19.7580  -32.0240 C   0  0  0  0  0  0  0  0  0  0  0  0
   -0.8850   21.1320  -32.2310 C   0  0  0  0  0  0  0  0  0  0  0  0
   -2.0970   21.5480  -32.8130 C   0  0  0  0  0  0  0  0  0  0  0  0
   -3.0130   20.5620  -33.1710 C   0  0  0  0  0  0  0  0  0  0  0  0
   -4.2320   20.7300  -33.7000 N   0  0  0  0  0  0  0  0  0  0  0  0
   -7.0270   21.2520  -31.9450 C   0  0  0  0  0  0  0  0  0  0  0  0
   -5.7520   21.1830  -31.3620 C   0  0  0  0  0  0  0  0  0  0  0  0
   -5.1720   22.3270  -30.8080 C   0  0  0  0  0  0  0  0  0  0  0  0
   -5.8600   23.5470  -30.8270 C   0  0  0  0  0  0  0  0  0  0  0  0
   -5.1420   24.9620  -30.0680 S   0  0  0  0  0  0  0  0  0  0  0  0
   -5.6520   26.2160  -30.7210 O   0  0  0  0  0  0  0  0  0  0  0  0
   -5.5360   24.9940  -28.6180 O   0  0  0  0  0  0  0  0  0  0  0  0
   -3.4190   24.8910  -30.2640 N   0  0  0  0  0  0  0  0  0  0  0  0
   -2.5080   24.2980  -29.3310 C   0  0  0  0  0  0  0  0  0  0  0  0
   -2.7010   22.9970  -28.8400 C   0  0  0  0  0  0  0  0  0  0  0  0
   -1.7900   22.4370  -27.9340 C   0  0  0  0  0  0  0  0  0  0  0  0
   -2.0110   20.7810  -27.3640 S   0  0  0  0  0  0  0  0  0  0  0  0
   -3.4660   20.4200  -27.4500 O   0  0  0  0  0  0  0  0  0  0  0  0
   -1.5930   20.6910  -25.9240 O   0  0  0  0  0  0  0  0  0  0  0  0
   -1.0760   19.6490  -28.3130 N   0  0  0  0  0  0  0  0  0  0  0  0
   -0.7690   18.4410  -27.5140 C   0  0  0  0  0  0  0  0  0  0  0  0
    0.3840   17.6410  -28.1280 C   0  0  0  0  0  0  0  0  0  0  0  0
    1.6800   18.4690  -28.1550 C   0  0  0  0  0  0  0  0  0  0  0  0
    1.4170   19.9840  -28.2000 C   0  0  0  0  0  0  0  0  0  0  0  0
    0.1060   20.2990  -28.9330 C   0  0  0  0  0  0  0  0  0  0  0  0
   -0.6980   23.1960  -27.4920 C   0  0  0  0  0  0  0  0  0  0  0  0
   -0.5230   24.5040  -27.9500 C   0  0  0  0  0  0  0  0  0  0  0  0
   -1.4250   25.0570  -28.8630 C   0  0  0  0  0  0  0  0  0  0  0  0
   -1.2350   26.3590  -29.3130 O   0  0  0  0  0  0  0  0  0  0  0  0
   -7.1150   23.6260  -31.4480 C   0  0  0  0  0  0  0  0  0  0  0  0
   -7.6910   22.4860  -32.0110 C   0  0  0  0  0  0  0  0  0  0  0  0
   -6.0781   18.2017  -34.8123 H   0  0  0  0  0  0  0  0  0  0  0  0
   -6.4558   19.9700  -34.8535 H   0  0  0  0  0  0  0  0  0  0  0  0
   -1.3952   17.7174  -32.2347 H   0  0  0  0  0  0  0  0  0  0  0  0
    0.3249   19.4427  -31.5718 H   0  0  0  0  0  0  0  0  0  0  0  0
   -0.1346   21.8802  -31.9357 H   0  0  0  0  0  0  0  0  0  0  0  0
   -2.3130   22.6137  -32.9791 H   0  0  0  0  0  0  0  0  0  0  0  0
   -5.2086   20.2268  -31.3413 H   0  0  0  0  0  0  0  0  0  0  0  0
   -4.1712   22.2694  -30.3552 H   0  0  0  0  0  0  0  0  0  0  0  0
   -3.5733   22.4130  -29.1687 H   0  0  0  0  0  0  0  0  0  0  0  0
   -0.4889   18.7476  -26.4954 H   0  0  0  0  0  0  0  0  0  0  0  0
   -1.6635   17.8010  -27.4978 H   0  0  0  0  0  0  0  0  0  0  0  0
    0.5501   16.7332  -27.5294 H   0  0  0  0  0  0  0  0  0  0  0  0
    0.1155   17.3787  -29.1620 H   0  0  0  0  0  0  0  0  0  0  0  0
    2.2626   18.2399  -27.2506 H   0  0  0  0  0  0  0  0  0  0  0  0
    2.2267   18.1998  -29.0708 H   0  0  0  0  0  0  0  0  0  0  0  0
    1.3538   20.3678  -27.1711 H   0  0  0  0  0  0  0  0  0  0  0  0
    2.2437   20.4647  -28.7435 H   0  0  0  0  0  0  0  0  0  0  0  0
   -0.0478   21.3882  -28.9237 H   0  0  0  0  0  0  0  0  0  0  0  0
    0.1986   19.9060  -29.9562 H   0  0  0  0  0  0  0  0  0  0  0  0
    0.0223   22.7612  -26.7834 H   0  0  0  0  0  0  0  0  0  0  0  0
    0.3281   25.1011  -27.5906 H   0  0  0  0  0  0  0  0  0  0  0  0
   -7.6464   24.5881  -31.4915 H   0  0  0  0  0  0  0  0  0  0  0  0
   -8.6696   22.5555  -32.5085 H   0  0  0  0  0  0  0  0  0  0  0  0
  1  2  2  0
  2  3  1  0
  3  4  1  0
  4  5  1  0
  5  6  2  0
  6  7  1  0
  7  8  2  0
  8  9  1  0
  9 10  2  0
 10 11  1  0
 11 12  2  0
 12 13  1  0
  2 14  1  0
 14 15  2  0
 15 16  1  0
 16 17  2  0
 17 18  1  0
 18 19  2  0
 18 20  2  0
 18 21  1  0
 21 22  1  0
 22 23  2  0
 23 24  1  0
 24 25  1  0
 25 26  2  0
 25 27  2  0
 25 28  1  0
 28 29  1  0
 29 30  1  0
 30 31  1  0
 31 32  1  0
 32 33  1  0
 24 34  2  0
 34 35  1  0
 35 36  2  0
 36 37  1  0
 17 38  1  0
 38 39  2  0
 13  5  1  0
 39 14  1  0
 12  7  1  0
 36 22  1  0
 33 28  1  0
  4 40  1  0
  4 41  1  0
  8 42  1  0
  9 43  1  0
 10 44  1  0
 11 45  1  0
 15 46  1  0
 16 47  1  0
 23 48  1  0
 29 49  1  0
 29 50  1  0
 30 51  1  0
 30 52  1  0
 31 53  1  0
 31 54  1  0
 32 55  1  0
 32 56  1  0
 33 57  1  0
 33 58  1  0
 34 59  1  0
 35 60  1  0
 38 61  1  0
 39 62  1  0
M  CHG  4   3  -1  13  -1  21  -1  37  -1
M  END
>  <UniqueID>  (42) 
41

>  <SMILES>  (42) 
O=C([N-]Cc1nc2ccccc2[n-]1)c1ccc(S(=O)(=O)[N-]c2cc(S(=O)(=O)N3CCCCC3)ccc2[O-])cc1

>  <Energy>  (42) 
113.87419721605103

>  <Genealogy>  (42) 
O=C([N-]Cc1nc2ccccc2[n-]1)c1ccc(S(=O)(=O)[N-]c2cc(S(=O)(=O)N3CCCCC3)ccc2[O-])cc1 (protonated)
O=C([N-]Cc1nc2ccccc2[n-]1)c1ccc(S(=O)(=O)[N-]c2cc(S(=O)(=O)N3CCCCC3)ccc2[O-])cc1 (3D coordinates assigned)
O=C([N-]Cc1nc2ccccc2[n-]1)c1ccc(S(=O)(=O)[N-]c2cc(S(=O)(=O)N3CCCCC3)ccc2[O-])cc1 (nonaromatic ring conformer: 113.87419721605103 kcal/mol)

>  <smiles>  (42) 
O=C(NCc1nc2ccccc2[nH]1)c1ccc(S(=O)(=O)Nc2cc(S(=O)(=O)N3CCCCC3)ccc2O)cc1

>  <score_type>  (42) 
oracle

>  <origin>  (42) 
adgpu

>  <m_score__min__energy>  (42) 
-15.869999999999999

>  <m_primary>  (42) 
energy

$$$$
42:0
     RDKit          3D

 56 59  0  0  0  0  0  0  0  0999 V2000
   -5.8280   24.3530  -31.6500 O   0  0  0  0  0  0  0  0  0  0  0  0
   -5.5940   23.2640  -31.0560 C   0  0  0  0  0  0  0  0  0  0  0  0
   -5.3050   23.2660  -29.6520 N   0  0  0  0  0  0  0  0  0  0  0  0
   -4.0100   23.4740  -29.0700 C   0  0  0  0  0  0  0  0  0  0  0  0
   -3.5810   22.6020  -28.0620 C   0  0  0  0  0  0  0  0  0  0  0  0
   -2.3230   22.7640  -27.4730 C   0  0  0  0  0  0  0  0  0  0  0  0
   -1.4740   23.7940  -27.8980 C   0  0  0  0  0  0  0  0  0  0  0  0
    0.1100   24.0100  -27.1610 S   0  0  0  0  0  0  0  0  0  0  0  0
    1.1150   24.2910  -28.2420 O   0  0  0  0  0  0  0  0  0  0  0  0
    0.5100   22.7550  -26.4310 O   0  0  0  0  0  0  0  0  0  0  0  0
    0.0580   25.3550  -26.0480 N   0  0  0  0  0  0  0  0  0  0  0  0
   -1.1960   26.0980  -26.1660 C   0  0  0  0  0  0  0  0  0  0  0  0
   -1.4500   26.7370  -24.8100 C   0  0  0  0  0  0  0  0  0  0  0  0
   -0.5930   25.9550  -23.8270 C   0  0  0  0  0  0  0  0  0  0  0  0
    0.1120   24.8960  -24.6610 C   0  0  0  0  0  0  0  0  0  0  0  0
   -1.8810   24.6430  -28.9340 C   0  0  0  0  0  0  0  0  0  0  0  0
   -3.1370   24.4800  -29.5310 C   0  0  0  0  0  0  0  0  0  0  0  0
   -3.4890   25.3010  -30.5960 O   0  0  0  0  0  0  0  0  0  0  0  0
   -5.6670   21.9850  -31.7990 C   0  0  0  0  0  0  0  0  0  0  0  0
   -6.8890   21.3010  -31.9300 C   0  0  0  0  0  0  0  0  0  0  0  0
   -6.9550   20.0930  -32.6310 C   0  0  0  0  0  0  0  0  0  0  0  0
   -5.8030   19.5500  -33.2130 C   0  0  0  0  0  0  0  0  0  0  0  0
   -5.8910   18.0280  -34.1040 S   0  0  0  0  0  0  0  0  0  0  0  0
   -7.2240   17.3810  -33.8470 O   0  0  0  0  0  0  0  0  0  0  0  0
   -5.7900   18.3140  -35.5770 O   0  0  0  0  0  0  0  0  0  0  0  0
   -4.6160   16.9270  -33.6420 N   0  0  0  0  0  0  0  0  0  0  0  0
   -3.7470   16.6320  -34.7940 C   0  0  0  0  0  0  0  0  0  0  0  0
   -2.7710   15.4840  -34.4600 C   0  0  0  0  0  0  0  0  0  0  0  0
   -2.7660   15.2070  -33.0730 O   0  0  0  0  0  0  0  0  0  0  0  0
   -4.0410   14.7320  -32.6730 C   0  0  0  0  0  0  0  0  0  0  0  0
   -5.1810   15.6830  -33.1010 C   0  0  0  0  0  0  0  0  0  0  0  0
   -4.5810   20.2230  -33.0830 C   0  0  0  0  0  0  0  0  0  0  0  0
   -4.5140   21.4310  -32.3830 C   0  0  0  0  0  0  0  0  0  0  0  0
   -4.2379   21.7840  -27.7312 H   0  0  0  0  0  0  0  0  0  0  0  0
   -1.9993   22.0809  -26.6739 H   0  0  0  0  0  0  0  0  0  0  0  0
   -1.1063   26.8738  -26.9406 H   0  0  0  0  0  0  0  0  0  0  0  0
   -2.0250   25.4349  -26.4542 H   0  0  0  0  0  0  0  0  0  0  0  0
   -1.1525   27.7959  -24.8220 H   0  0  0  0  0  0  0  0  0  0  0  0
   -2.5152   26.7071  -24.5372 H   0  0  0  0  0  0  0  0  0  0  0  0
    0.1412   26.6171  -23.3447 H   0  0  0  0  0  0  0  0  0  0  0  0
   -1.1962   25.5084  -23.0228 H   0  0  0  0  0  0  0  0  0  0  0  0
    1.1577   24.7906  -24.3362 H   0  0  0  0  0  0  0  0  0  0  0  0
   -0.3714   23.9144  -24.5481 H   0  0  0  0  0  0  0  0  0  0  0  0
   -1.2102   25.4428  -29.2810 H   0  0  0  0  0  0  0  0  0  0  0  0
   -7.7999   21.7197  -31.4774 H   0  0  0  0  0  0  0  0  0  0  0  0
   -7.9163   19.5668  -32.7257 H   0  0  0  0  0  0  0  0  0  0  0  0
   -4.3707   16.3381  -35.6511 H   0  0  0  0  0  0  0  0  0  0  0  0
   -3.1642   17.5326  -35.0377 H   0  0  0  0  0  0  0  0  0  0  0  0
   -3.0794   14.5801  -35.0057 H   0  0  0  0  0  0  0  0  0  0  0  0
   -1.7573   15.7892  -34.7589 H   0  0  0  0  0  0  0  0  0  0  0  0
   -4.2113   13.7466  -33.1313 H   0  0  0  0  0  0  0  0  0  0  0  0
   -4.0482   14.6705  -31.5747 H   0  0  0  0  0  0  0  0  0  0  0  0
   -5.7935   15.1943  -33.8730 H   0  0  0  0  0  0  0  0  0  0  0  0
   -5.8049   15.9183  -32.2261 H   0  0  0  0  0  0  0  0  0  0  0  0
   -3.6713   19.7993  -33.5333 H   0  0  0  0  0  0  0  0  0  0  0  0
   -3.5505   21.9531  -32.2881 H   0  0  0  0  0  0  0  0  0  0  0  0
  1  2  2  0
  2  3  1  0
  3  4  1  0
  4  5  2  0
  5  6  1  0
  6  7  2  0
  7  8  1  0
  8  9  2  0
  8 10  2  0
  8 11  1  0
 11 12  1  0
 12 13  1  0
 13 14  1  0
 14 15  1  0
  7 16  1  0
 16 17  2  0
 17 18  1  0
  2 19  1  0
 19 20  2  0
 20 21  1  0
 21 22  2  0
 22 23  1  0
 23 24  2  0
 23 25  2  0
 23 26  1  0
 26 27  1  0
 27 28  1  0
 28 29  1  0
 29 30  1  0
 30 31  1  0
 22 32  1  0
 32 33  2  0
 17  4  1  0
 33 19  1  0
 15 11  1  0
 31 26  1  0
  5 34  1  0
  6 35  1  0
 12 36  1  0
 12 37  1  0
 13 38  1  0
 13 39  1  0
 14 40  1  0
 14 41  1  0
 15 42  1  0
 15 43  1  0
 16 44  1  0
 20 45  1  0
 21 46  1  0
 27 47  1  0
 27 48  1  0
 28 49  1  0
 28 50  1  0
 30 51  1  0
 30 52  1  0
 31 53  1  0
 31 54  1  0
 32 55  1  0
 33 56  1  0
M  CHG  2   3  -1  18  -1
M  END
>  <UniqueID>  (43) 
42

>  <SMILES>  (43) 
O=C([N-]c1ccc(S(=O)(=O)N2CCCC2)cc1[O-])c1ccc(S(=O)(=O)N2CCOCC2)cc1

>  <Energy>  (43) 
72.38781275597073

>  <Genealogy>  (43) 
O=C([N-]c1ccc(S(=O)(=O)N2CCCC2)cc1[O-])c1ccc(S(=O)(=O)N2CCOCC2)cc1 (protonated)
O=C([N-]c1ccc(S(=O)(=O)N2CCCC2)cc1[O-])c1ccc(S(=O)(=O)N2CCOCC2)cc1 (3D coordinates assigned)
O=C([N-]c1ccc(S(=O)(=O)N2CCCC2)cc1[O-])c1ccc(S(=O)(=O)N2CCOCC2)cc1 (nonaromatic ring conformer: 72.38781275597073 kcal/mol)

>  <smiles>  (43) 
O=C(Nc1ccc(S(=O)(=O)N2CCCC2)cc1O)c1ccc(S(=O)(=O)N2CCOCC2)cc1

>  <score_type>  (43) 
oracle

>  <origin>  (43) 
adgpu

>  <m_score__min__energy>  (43) 
-16.260000000000002

>  <m_primary>  (43) 
energy

$$$$
43:0
     RDKit          3D

 50 53  0  0  0  0  0  0  0  0999 V2000
   -1.2450   19.8820  -31.5190 C   0  0  0  0  0  0  0  0  0  0  0  0
   -1.9010   20.7790  -32.5220 C   0  0  0  0  0  0  0  0  0  0  0  0
   -1.2120   21.6860  -33.0620 O   0  0  0  0  0  0  0  0  0  0  0  0
   -3.2750   20.6120  -32.9120 N   0  0  0  0  0  0  0  0  0  0  0  0
   -3.7260   19.5330  -33.7920 C   0  0  0  0  0  0  0  0  0  0  0  0
   -5.2710   19.5800  -33.7730 C   0  0  0  0  0  0  0  0  0  0  0  0
   -5.5690   20.7690  -32.9290 C   0  0  0  0  0  0  0  0  0  0  0  0
   -6.8150   21.3300  -32.6640 C   0  0  0  0  0  0  0  0  0  0  0  0
   -6.8870   22.5150  -31.9020 C   0  0  0  0  0  0  0  0  0  0  0  0
   -8.2410   23.1180  -31.6340 C   0  0  0  0  0  0  0  0  0  0  0  0
   -5.6870   23.1030  -31.4070 C   0  0  0  0  0  0  0  0  0  0  0  0
   -5.6860   24.5930  -30.4460 S   0  0  0  0  0  0  0  0  0  0  0  0
   -4.8790   25.6260  -31.1810 O   0  0  0  0  0  0  0  0  0  0  0  0
   -7.0840   25.1010  -30.2340 O   0  0  0  0  0  0  0  0  0  0  0  0
   -4.9850   24.2780  -28.8890 N   0  0  0  0  0  0  0  0  0  0  0  0
   -3.7760   23.5240  -28.7310 C   0  0  0  0  0  0  0  0  0  0  0  0
   -3.8300   22.2750  -28.0970 C   0  0  0  0  0  0  0  0  0  0  0  0
   -2.6700   21.5060  -27.9290 C   0  0  0  0  0  0  0  0  0  0  0  0
   -1.4280   22.0160  -28.3590 C   0  0  0  0  0  0  0  0  0  0  0  0
   -1.3740   23.2710  -28.9840 C   0  0  0  0  0  0  0  0  0  0  0  0
   -2.5350   24.0310  -29.1550 C   0  0  0  0  0  0  0  0  0  0  0  0
   -2.4400   25.2960  -29.7230 O   0  0  0  0  0  0  0  0  0  0  0  0
   -0.1700   21.1880  -28.2380 C   0  0  0  0  0  0  0  0  0  0  0  0
   -0.2830   20.1470  -27.2070 N   0  0  0  0  0  0  0  0  0  0  0  0
   -1.4930   19.3410  -27.4120 C   0  0  0  0  0  0  0  0  0  0  0  0
   -2.7570   20.1870  -27.2060 C   0  0  0  0  0  0  0  0  0  0  0  0
   -4.4450   22.5210  -31.7270 C   0  0  0  0  0  0  0  0  0  0  0  0
   -4.4160   21.3310  -32.4580 C   0  0  0  0  0  0  0  0  0  0  0  0
   -1.4945   20.2232  -30.5034 H   0  0  0  0  0  0  0  0  0  0  0  0
   -1.6042   18.8517  -31.6583 H   0  0  0  0  0  0  0  0  0  0  0  0
   -0.1543   19.9120  -31.6583 H   0  0  0  0  0  0  0  0  0  0  0  0
   -3.3520   19.6927  -34.8141 H   0  0  0  0  0  0  0  0  0  0  0  0
   -3.3500   18.5560  -33.4542 H   0  0  0  0  0  0  0  0  0  0  0  0
   -5.6735   19.7073  -34.7887 H   0  0  0  0  0  0  0  0  0  0  0  0
   -5.7243   18.6549  -33.3874 H   0  0  0  0  0  0  0  0  0  0  0  0
   -7.7318   20.8554  -33.0439 H   0  0  0  0  0  0  0  0  0  0  0  0
   -8.4020   23.1897  -30.5482 H   0  0  0  0  0  0  0  0  0  0  0  0
   -8.2895   24.1228  -32.0790 H   0  0  0  0  0  0  0  0  0  0  0  0
   -9.0203   22.4819  -32.0790 H   0  0  0  0  0  0  0  0  0  0  0  0
   -5.5970   24.4190  -28.0560 H   0  0  0  0  0  0  0  0  0  0  0  0
   -4.7934   21.8940  -27.7272 H   0  0  0  0  0  0  0  0  0  0  0  0
   -0.4098   23.6604  -29.3426 H   0  0  0  0  0  0  0  0  0  0  0  0
    0.0306   20.7062  -29.2063 H   0  0  0  0  0  0  0  0  0  0  0  0
    0.6490   21.8620  -27.9465 H   0  0  0  0  0  0  0  0  0  0  0  0
   -0.3310   20.6050  -26.2650 H   0  0  0  0  0  0  0  0  0  0  0  0
   -1.4902   18.9417  -28.4369 H   0  0  0  0  0  0  0  0  0  0  0  0
   -1.4965   18.5204  -26.6795 H   0  0  0  0  0  0  0  0  0  0  0  0
   -3.6252   19.6288  -27.5863 H   0  0  0  0  0  0  0  0  0  0  0  0
   -2.8601   20.3923  -26.1303 H   0  0  0  0  0  0  0  0  0  0  0  0
   -3.5079   22.9984  -31.4047 H   0  0  0  0  0  0  0  0  0  0  0  0
  1  2  1  0
  2  3  2  0
  2  4  1  0
  4  5  1  0
  5  6  1  0
  6  7  1  0
  7  8  2  0
  8  9  1  0
  9 10  1  0
  9 11  2  0
 11 12  1  0
 12 13  2  0
 12 14  2  0
 12 15  1  0
 15 16  1  0
 16 17  2  0
 17 18  1  0
 18 19  2  0
 19 20  1  0
 20 21  2  0
 21 22  1  0
 19 23  1  0
 23 24  1  0
 24 25  1  0
 25 26  1  0
 11 27  1  0
 27 28  2  0
 28  4  1  0
 28  7  1  0
 21 16  1  0
 26 18  1  0
  1 29  1  0
  1 30  1  0
  1 31  1  0
  5 32  1  0
  5 33  1  0
  6 34  1  0
  6 35  1  0
  8 36  1  0
 10 37  1  0
 10 38  1  0
 10 39  1  0
 15 40  1  0
 17 41  1  0
 20 42  1  0
 23 43  1  0
 23 44  1  0
 24 45  1  0
 25 46  1  0
 25 47  1  0
 26 48  1  0
 26 49  1  0
 27 50  1  0
M  CHG  1  22  -1
M  END
>  <UniqueID>  (44) 
43

>  <SMILES>  (44) 
CC(=O)N1CCc2cc(C)c(S(=O)(=O)Nc3cc4c(cc3[O-])CNCC4)cc21

>  <Energy>  (44) 
79.17668154005698

>  <Genealogy>  (44) 
CC(=O)N1CCc2cc(C)c(S(=O)(=O)Nc3cc4c(cc3[O-])CNCC4)cc21 (protonated)
CC(=O)N1CCc2cc(C)c(S(=O)(=O)Nc3cc4c(cc3[O-])CNCC4)cc21 (3D coordinates assigned)
CC(=O)N1CCc2cc(C)c(S(=O)(=O)Nc3cc4c(cc3[O-])CNCC4)cc21 (nonaromatic ring conformer: 79.17668154005698 kcal/mol)

>  <smiles>  (44) 
CC(=O)N1CCc2cc(C)c(S(=O)(=O)Nc3cc4c(cc3O)CNCC4)cc21

>  <score_type>  (44) 
oracle

>  <origin>  (44) 
adgpu

>  <m_score__min__energy>  (44) 
-13.24

>  <m_primary>  (44) 
energy

$$$$
44:0
     RDKit          3D

 48 50  0  0  0  0  0  0  0  0999 V2000
   -9.8140   20.8390  -32.3190 C   0  0  0  0  0  0  0  0  0  0  0  0
   -8.4990   21.4790  -31.9650 C   0  0  0  0  0  0  0  0  0  0  0  0
   -8.4190   22.8800  -31.9220 C   0  0  0  0  0  0  0  0  0  0  0  0
   -7.2220   23.5160  -31.5910 C   0  0  0  0  0  0  0  0  0  0  0  0
   -6.0820   22.7610  -31.3010 C   0  0  0  0  0  0  0  0  0  0  0  0
   -4.5730   23.5470  -30.8410 S   0  0  0  0  0  0  0  0  0  0  0  0
   -4.6450   25.0190  -31.1430 O   0  0  0  0  0  0  0  0  0  0  0  0
   -3.4540   22.9450  -31.6450 O   0  0  0  0  0  0  0  0  0  0  0  0
   -4.2720   23.3040  -29.1370 N   0  0  0  0  0  0  0  0  0  0  0  0
   -4.6520   24.5190  -28.3820 C   0  0  0  0  0  0  0  0  0  0  0  0
   -4.0020   24.5440  -26.9950 C   0  0  0  0  0  0  0  0  0  0  0  0
   -2.4670   24.5790  -27.1040 C   0  0  0  0  0  0  0  0  0  0  0  0
   -1.9510   23.9600  -28.4140 C   0  0  0  0  0  0  0  0  0  0  0  0
   -2.8810   22.8410  -28.9030 C   0  0  0  0  0  0  0  0  0  0  0  0
   -6.1460   21.3650  -31.3480 C   0  0  0  0  0  0  0  0  0  0  0  0
   -7.3370   20.7100  -31.7020 C   0  0  0  0  0  0  0  0  0  0  0  0
   -7.3450   18.9380  -31.7600 S   0  0  0  0  0  0  0  0  0  0  0  0
   -8.6450   18.4080  -31.2190 O   0  0  0  0  0  0  0  0  0  0  0  0
   -6.2100   18.4240  -30.9190 O   0  0  0  0  0  0  0  0  0  0  0  0
   -7.1420   18.3800  -33.4040 N   0  0  0  0  0  0  0  0  0  0  0  0
   -6.7850   16.9530  -33.4540 C   0  0  0  0  0  0  0  0  0  0  0  0
   -5.5060   16.8120  -34.2660 C   0  0  0  0  0  0  0  0  0  0  0  0
   -5.3610   18.1320  -34.9840 C   0  0  0  0  0  0  0  0  0  0  0  0
   -6.0670   19.1160  -34.0780 C   0  0  0  0  0  0  0  0  0  0  0  0
  -10.3538   20.5763  -31.3973 H   0  0  0  0  0  0  0  0  0  0  0  0
  -10.4178   21.5440  -32.9093 H   0  0  0  0  0  0  0  0  0  0  0  0
   -9.6317   19.9289  -32.9093 H   0  0  0  0  0  0  0  0  0  0  0  0
   -9.3098   23.4830  -32.1518 H   0  0  0  0  0  0  0  0  0  0  0  0
   -7.1754   24.6145  -31.5582 H   0  0  0  0  0  0  0  0  0  0  0  0
   -4.3268   25.4062  -28.9452 H   0  0  0  0  0  0  0  0  0  0  0  0
   -5.7442   24.5168  -28.2514 H   0  0  0  0  0  0  0  0  0  0  0  0
   -4.3444   25.4383  -26.4537 H   0  0  0  0  0  0  0  0  0  0  0  0
   -4.2936   23.6308  -26.4555 H   0  0  0  0  0  0  0  0  0  0  0  0
   -2.1344   25.6264  -27.0547 H   0  0  0  0  0  0  0  0  0  0  0  0
   -2.0611   23.9839  -26.2727 H   0  0  0  0  0  0  0  0  0  0  0  0
   -1.8966   24.7436  -29.1841 H   0  0  0  0  0  0  0  0  0  0  0  0
   -0.9560   23.5296  -28.2278 H   0  0  0  0  0  0  0  0  0  0  0  0
   -2.4815   22.4403  -29.8463 H   0  0  0  0  0  0  0  0  0  0  0  0
   -2.9173   22.0750  -28.1144 H   0  0  0  0  0  0  0  0  0  0  0  0
   -5.2520   20.7721  -31.1046 H   0  0  0  0  0  0  0  0  0  0  0  0
   -6.6226   16.5737  -32.4343 H   0  0  0  0  0  0  0  0  0  0  0  0
   -7.5965   16.3740  -33.9190 H   0  0  0  0  0  0  0  0  0  0  0  0
   -4.6448   16.6330  -33.6055 H   0  0  0  0  0  0  0  0  0  0  0  0
   -5.5466   15.9615  -34.9624 H   0  0  0  0  0  0  0  0  0  0  0  0
   -4.3005   18.3994  -35.1019 H   0  0  0  0  0  0  0  0  0  0  0  0
   -5.7823   18.1118  -35.9999 H   0  0  0  0  0  0  0  0  0  0  0  0
   -5.3623   19.5198  -33.3361 H   0  0  0  0  0  0  0  0  0  0  0  0
   -6.4704   19.9618  -34.6541 H   0  0  0  0  0  0  0  0  0  0  0  0
  1  2  1  0
  2  3  2  0
  3  4  1  0
  4  5  2  0
  5  6  1  0
  6  7  2  0
  6  8  2  0
  6  9  1  0
  9 10  1  0
 10 11  1  0
 11 12  1  0
 12 13  1  0
 13 14  1  0
  5 15  1  0
 15 16  2  0
 16 17  1  0
 17 18  2  0
 17 19  2  0
 17 20  1  0
 20 21  1  0
 21 22  1  0
 22 23  1  0
 23 24  1  0
 16  2  1  0
 24 20  1  0
 14  9  1  0
  1 25  1  0
  1 26  1  0
  1 27  1  0
  3 28  1  0
  4 29  1  0
 10 30  1  0
 10 31  1  0
 11 32  1  0
 11 33  1  0
 12 34  1  0
 12 35  1  0
 13 36  1  0
 13 37  1  0
 14 38  1  0
 14 39  1  0
 15 40  1  0
 21 41  1  0
 21 42  1  0
 22 43  1  0
 22 44  1  0
 23 45  1  0
 23 46  1  0
 24 47  1  0
 24 48  1  0
M  END
>  <UniqueID>  (45) 
44

>  <SMILES>  (45) 
Cc1ccc(S(=O)(=O)N2CCCCC2)cc1S(=O)(=O)N1CCCC1

>  <Energy>  (45) 
54.94169294482271

>  <Genealogy>  (45) 
Cc1ccc(S(=O)(=O)N2CCCCC2)cc1S(=O)(=O)N1CCCC1 (3D coordinates assigned)
Cc1ccc(S(=O)(=O)N2CCCCC2)cc1S(=O)(=O)N1CCCC1 (nonaromatic ring conformer: 54.94169294482271 kcal/mol)

>  <smiles>  (45) 
Cc1ccc(S(=O)(=O)N2CCCCC2)cc1S(=O)(=O)N1CCCC1

>  <score_type>  (45) 
oracle

>  <origin>  (45) 
adgpu

>  <m_score__min__energy>  (45) 
-10.07

>  <m_primary>  (45) 
energy

$$$$
45:0
     RDKit          3D

 35 37  0  0  1  0  0  0  0  0999 V2000
   -1.1760   21.7820  -30.9290 C   0  0  0  0  0  0  0  0  0  0  0  0
   -2.6480   21.9520  -31.1720 C   0  0  0  0  0  0  0  0  0  0  0  0
   -3.3830   20.8970  -31.6780 N   0  0  0  0  0  0  0  0  0  0  0  0
   -4.6950   21.2350  -31.8330 C   0  0  0  0  0  0  0  0  0  0  0  0
   -5.2690   20.5280  -32.7230 N   0  0  0  0  0  0  0  0  0  0  0  0
   -6.4950   20.4460  -33.2930 C   0  0  0  0  0  0  0  0  0  0  0  0
   -6.4050   18.8700  -33.5870 C   0  0  0  0  0  0  0  0  0  0  0  0
   -5.4600   18.4020  -34.4460 C   0  0  0  0  0  0  0  0  0  0  0  0
   -5.4000   17.0050  -34.6010 C   0  0  0  0  0  0  0  0  0  0  0  0
   -6.2800   16.1980  -33.8920 C   0  0  0  0  0  0  0  0  0  0  0  0
   -7.1840   16.7530  -33.0610 N   0  0  0  0  0  0  0  0  0  0  0  0
   -7.2700   18.0840  -32.8880 C   0  0  0  0  0  0  0  0  0  0  0  0
   -5.2920   22.3940  -31.5390 C   0  0  0  0  0  0  0  0  0  0  0  0
   -6.6170   22.5840  -31.6300 C   0  0  0  0  0  0  0  0  0  0  0  0
   -7.8770   21.0590  -31.3430 Br  0  0  0  0  0  0  0  0  0  0  0  0
   -7.2940   23.7650  -31.3150 C   0  0  0  0  0  0  0  0  0  0  0  0
   -6.4480   24.7810  -30.8500 C   0  0  0  0  0  0  0  0  0  0  0  0
   -5.0890   24.6160  -30.7120 C   0  0  0  0  0  0  0  0  0  0  0  0
   -4.2510   25.6670  -30.2250 N   0  0  0  0  0  0  0  0  0  0  0  0
   -4.5140   23.4310  -31.0430 C   0  0  0  0  0  0  0  0  0  0  0  0
   -3.1970   23.1410  -30.8850 N   0  0  0  0  0  0  0  0  0  0  0  0
   -0.9833   21.7597  -29.8462 H   0  0  0  0  0  0  0  0  0  0  0  0
   -0.8362   20.8386  -31.3814 H   0  0  0  0  0  0  0  0  0  0  0  0
   -0.6302   22.6231  -31.3814 H   0  0  0  0  0  0  0  0  0  0  0  0
   -7.3088   20.7079  -32.6007 H   0  0  0  0  0  0  0  0  0  0  0  0
   -6.7113   21.1133  -34.1403 H   0  0  0  0  0  0  0  0  0  0  0  0
   -4.7816   19.0770  -34.9884 H   0  0  0  0  0  0  0  0  0  0  0  0
   -4.6606   16.5547  -35.2796 H   0  0  0  0  0  0  0  0  0  0  0  0
   -6.2391   15.1050  -34.0088 H   0  0  0  0  0  0  0  0  0  0  0  0
   -8.0131   18.5224  -32.2057 H   0  0  0  0  0  0  0  0  0  0  0  0
   -8.3822   23.8853  -31.4214 H   0  0  0  0  0  0  0  0  0  0  0  0
   -6.8897   25.7526  -30.5838 H   0  0  0  0  0  0  0  0  0  0  0  0
   -4.0260   25.6150  -29.1920 H   0  0  0  0  0  0  0  0  0  0  0  0
   -3.8900   26.4230  -30.8230 H   0  0  0  0  0  0  0  0  0  0  0  0
   -2.5920   23.9160  -30.5110 H   0  0  0  0  0  0  0  0  0  0  0  0
  1  2  1  0
  2  3  2  0
  3  4  1  0
  4  5  2  0
  5  6  1  0
  6  7  1  0
  7  8  2  0
  8  9  1  0
  9 10  2  0
 10 11  1  0
 11 12  2  0
  4 13  1  0
 13 14  2  0
 14 15  1  0
 14 16  1  0
 16 17  2  0
 17 18  1  0
 18 19  1  0
 18 20  2  0
 20 21  1  0
 21  2  1  0
 12  7  1  0
 20 13  1  0
  1 22  1  0
  1 23  1  0
  1 24  1  0
  6 25  1  0
  6 26  1  0
  8 27  1  0
  9 28  1  0
 10 29  1  0
 12 30  1  0
 16 31  1  0
 17 32  1  0
 19 33  1  0
 19 34  1  0
 21 35  1  0
M  END
>  <smiles>  (46) 
Cc1nc(=NCc2cccnc2)c2c(Br)ccc(N)c2[nH]1

>  <score_type>  (46) 
oracle

>  <origin>  (46) 
adgpu

>  <m_score__min__energy>  (46) 
-8.4700000000000006

>  <m_primary>  (46) 
energy

$$$$
46:0
     RDKit          3D

 51 53  0  0  0  0  0  0  0  0999 V2000
   -0.1120   26.4590  -23.4580 C   0  0  0  0  0  0  0  0  0  0  0  0
   -0.1670   25.7230  -24.7270 N   0  0  0  0  0  0  0  0  0  0  0  0
   -0.3680   24.2920  -24.4700 C   0  0  0  0  0  0  0  0  0  0  0  0
   -1.4890   26.3270  -25.6940 S   0  0  0  0  0  0  0  0  0  0  0  0
   -2.7550   26.3250  -24.8820 O   0  0  0  0  0  0  0  0  0  0  0  0
   -1.2080   27.7360  -26.1360 O   0  0  0  0  0  0  0  0  0  0  0  0
   -1.7230   25.2920  -27.1020 C   0  0  0  0  0  0  0  0  0  0  0  0
   -2.8570   24.4770  -27.1850 C   0  0  0  0  0  0  0  0  0  0  0  0
   -3.0450   23.6400  -28.2900 C   0  0  0  0  0  0  0  0  0  0  0  0
   -2.0930   23.6040  -29.3270 C   0  0  0  0  0  0  0  0  0  0  0  0
   -2.2890   22.7170  -30.4980 C   0  0  0  0  0  0  0  0  0  0  0  0
   -1.5870   21.6760  -30.6240 O   0  0  0  0  0  0  0  0  0  0  0  0
   -3.3070   23.0130  -31.4630 N   0  0  0  0  0  0  0  0  0  0  0  0
   -4.6330   23.4650  -31.1620 C   0  0  0  0  0  0  0  0  0  0  0  0
   -5.6910   22.5530  -31.2690 C   0  0  0  0  0  0  0  0  0  0  0  0
   -7.0070   22.9490  -30.9890 C   0  0  0  0  0  0  0  0  0  0  0  0
   -8.3380   21.7940  -31.1460 S   0  0  0  0  0  0  0  0  0  0  0  0
   -9.2020   22.2000  -32.3070 O   0  0  0  0  0  0  0  0  0  0  0  0
   -9.1780   21.8460  -29.9000 O   0  0  0  0  0  0  0  0  0  0  0  0
   -7.7870   20.1550  -31.3920 N   0  0  0  0  0  0  0  0  0  0  0  0
   -8.8990   19.2190  -31.5510 C   0  0  0  0  0  0  0  0  0  0  0  0
   -8.3600   18.0460  -32.3560 C   0  0  0  0  0  0  0  0  0  0  0  0
   -7.1020   18.5670  -33.0370 C   0  0  0  0  0  0  0  0  0  0  0  0
   -6.9850   20.0200  -32.6060 C   0  0  0  0  0  0  0  0  0  0  0  0
   -7.2570   24.2600  -30.5630 C   0  0  0  0  0  0  0  0  0  0  0  0
   -6.2040   25.1650  -30.4190 C   0  0  0  0  0  0  0  0  0  0  0  0
   -4.8920   24.7720  -30.7020 C   0  0  0  0  0  0  0  0  0  0  0  0
   -3.8560   25.6750  -30.4900 O   0  0  0  0  0  0  0  0  0  0  0  0
   -0.9530   24.4220  -29.2320 C   0  0  0  0  0  0  0  0  0  0  0  0
   -0.7690   25.2590  -28.1270 C   0  0  0  0  0  0  0  0  0  0  0  0
   -0.1651   25.7488  -22.6196 H   0  0  0  0  0  0  0  0  0  0  0  0
    0.8308   27.0229  -23.4017 H   0  0  0  0  0  0  0  0  0  0  0  0
   -0.9605   27.1568  -23.4017 H   0  0  0  0  0  0  0  0  0  0  0  0
   -0.3930   24.1143  -23.3847 H   0  0  0  0  0  0  0  0  0  0  0  0
   -1.3203   23.9695  -24.9163 H   0  0  0  0  0  0  0  0  0  0  0  0
    0.4586   23.7197  -24.9163 H   0  0  0  0  0  0  0  0  0  0  0  0
   -3.6041   24.4944  -26.3778 H   0  0  0  0  0  0  0  0  0  0  0  0
   -3.9420   23.0061  -28.3492 H   0  0  0  0  0  0  0  0  0  0  0  0
   -5.4876   21.5163  -31.5756 H   0  0  0  0  0  0  0  0  0  0  0  0
   -9.2511   18.8756  -30.5671 H   0  0  0  0  0  0  0  0  0  0  0  0
   -9.7511   19.6940  -32.0593 H   0  0  0  0  0  0  0  0  0  0  0  0
   -8.1174   17.2029  -31.6924 H   0  0  0  0  0  0  0  0  0  0  0  0
   -9.0967   17.6771  -33.0848 H   0  0  0  0  0  0  0  0  0  0  0  0
   -6.2213   17.9956  -32.7086 H   0  0  0  0  0  0  0  0  0  0  0  0
   -7.1565   18.4669  -34.1311 H   0  0  0  0  0  0  0  0  0  0  0  0
   -5.9346   20.2720  -32.3982 H   0  0  0  0  0  0  0  0  0  0  0  0
   -7.3378   20.7002  -33.3952 H   0  0  0  0  0  0  0  0  0  0  0  0
   -8.2866   24.5773  -30.3412 H   0  0  0  0  0  0  0  0  0  0  0  0
   -6.4071   26.1920  -30.0814 H   0  0  0  0  0  0  0  0  0  0  0  0
   -0.1999   24.4033  -30.0335 H   0  0  0  0  0  0  0  0  0  0  0  0
    0.1274   25.8932  -28.0626 H   0  0  0  0  0  0  0  0  0  0  0  0
  1  2  1  0
  2  3  1  0
  2  4  1  0
  4  5  2  0
  4  6  2  0
  4  7  1  0
  7  8  2  0
  8  9  1  0
  9 10  2  0
 10 11  1  0
 11 12  2  0
 11 13  1  0
 13 14  1  0
 14 15  2  0
 15 16  1  0
 16 17  1  0
 17 18  2  0
 17 19  2  0
 17 20  1  0
 20 21  1  0
 21 22  1  0
 22 23  1  0
 23 24  1  0
 16 25  2  0
 25 26  1  0
 26 27  2  0
 27 28  1  0
 10 29  1  0
 29 30  2  0
 30  7  1  0
 27 14  1  0
 24 20  1  0
  1 31  1  0
  1 32  1  0
  1 33  1  0
  3 34  1  0
  3 35  1  0
  3 36  1  0
  8 37  1  0
  9 38  1  0
 15 39  1  0
 21 40  1  0
 21 41  1  0
 22 42  1  0
 22 43  1  0
 23 44  1  0
 23 45  1  0
 24 46  1  0
 24 47  1  0
 25 48  1  0
 26 49  1  0
 29 50  1  0
 30 51  1  0
M  CHG  2  13  -1  28  -1
M  END
>  <UniqueID>  (47) 
45

>  <SMILES>  (47) 
CN(C)S(=O)(=O)c1ccc(C(=O)[N-]c2cc(S(=O)(=O)N3CCCC3)ccc2[O-])cc1

>  <Energy>  (47) 
57.300528846221745

>  <Genealogy>  (47) 
CN(C)S(=O)(=O)c1ccc(C(=O)[N-]c2cc(S(=O)(=O)N3CCCC3)ccc2[O-])cc1 (protonated)
CN(C)S(=O)(=O)c1ccc(C(=O)[N-]c2cc(S(=O)(=O)N3CCCC3)ccc2[O-])cc1 (3D coordinates assigned)
CN(C)S(=O)(=O)c1ccc(C(=O)[N-]c2cc(S(=O)(=O)N3CCCC3)ccc2[O-])cc1 (nonaromatic ring conformer: 57.300528846221745 kcal/mol)

>  <smiles>  (47) 
CN(C)S(=O)(=O)c1ccc(C(=O)Nc2cc(S(=O)(=O)N3CCCC3)ccc2O)cc1

>  <score_type>  (47) 
oracle

>  <origin>  (47) 
adgpu

>  <m_score__min__energy>  (47) 
-14.65

>  <m_primary>  (47) 
energy

$$$$
47:0
     RDKit          3D

 74 78  0  0  0  0  0  0  0  0999 V2000
   -6.4690   20.8770  -31.9790 C   0  0  0  0  0  0  0  0  0  0  0  0
   -6.6640   22.2250  -31.5630 O   0  0  0  0  0  0  0  0  0  0  0  0
   -5.8180   22.9120  -30.6810 C   0  0  0  0  0  0  0  0  0  0  0  0
   -6.1130   24.2030  -30.2050 C   0  0  0  0  0  0  0  0  0  0  0  0
   -5.2300   24.8560  -29.3390 C   0  0  0  0  0  0  0  0  0  0  0  0
   -4.0390   24.2320  -28.9340 C   0  0  0  0  0  0  0  0  0  0  0  0
   -3.1190   24.9110  -28.0600 N   0  0  0  0  0  0  0  0  0  0  0  0
   -1.9760   25.5430  -28.3970 C   0  0  0  0  0  0  0  0  0  0  0  0
   -1.4930   25.6630  -29.6960 O   0  0  0  0  0  0  0  0  0  0  0  0
   -1.3850   26.0680  -27.2630 C   0  0  0  0  0  0  0  0  0  0  0  0
   -0.1000   26.8520  -27.2180 C   0  0  0  0  0  0  0  0  0  0  0  0
    1.1220   25.9680  -27.3050 C   0  0  0  0  0  0  0  0  0  0  0  0
    2.1670   26.2860  -26.6800 O   0  0  0  0  0  0  0  0  0  0  0  0
    1.1830   24.8540  -28.2050 N   0  0  0  0  0  0  0  0  0  0  0  0
    0.4610   23.6250  -28.0780 C   0  0  0  0  0  0  0  0  0  0  0  0
   -0.1990   23.0470  -29.1760 C   0  0  0  0  0  0  0  0  0  0  0  0
   -0.8630   21.8250  -29.0370 C   0  0  0  0  0  0  0  0  0  0  0  0
   -0.9020   21.1840  -27.7930 C   0  0  0  0  0  0  0  0  0  0  0  0
   -1.6750   19.6100  -27.6150 S   0  0  0  0  0  0  0  0  0  0  0  0
   -1.6260   19.2190  -26.1650 O   0  0  0  0  0  0  0  0  0  0  0  0
   -3.1140   19.6920  -28.0420 O   0  0  0  0  0  0  0  0  0  0  0  0
   -0.8350   18.4080  -28.5720 N   0  0  0  0  0  0  0  0  0  0  0  0
    0.2990   17.8040  -27.8380 C   0  0  0  0  0  0  0  0  0  0  0  0
    1.5120   18.7470  -27.7260 C   0  0  0  0  0  0  0  0  0  0  0  0
    1.7710   19.5560  -29.0110 C   0  0  0  0  0  0  0  0  0  0  0  0
    1.0200   18.9780  -30.2100 C   0  0  0  0  0  0  0  0  0  0  0  0
   -0.4910   18.9180  -29.9240 C   0  0  0  0  0  0  0  0  0  0  0  0
   -0.3020   21.7930  -26.6810 C   0  0  0  0  0  0  0  0  0  0  0  0
    0.3650   23.0140  -26.8220 C   0  0  0  0  0  0  0  0  0  0  0  0
   -2.1710   25.7660  -26.2020 N   0  0  0  0  0  0  0  0  0  0  0  0
   -1.9850   26.1490  -24.7970 C   0  0  0  0  0  0  0  0  0  0  0  0
   -0.5260   26.1140  -24.4110 C   0  0  0  0  0  0  0  0  0  0  0  0
    0.1930   24.9090  -24.4780 C   0  0  0  0  0  0  0  0  0  0  0  0
    1.5510   24.8760  -24.1470 C   0  0  0  0  0  0  0  0  0  0  0  0
    2.2080   26.0430  -23.7330 C   0  0  0  0  0  0  0  0  0  0  0  0
    3.6590   25.9970  -23.3550 C   0  0  0  0  0  0  0  0  0  0  0  0
    1.4790   27.2350  -23.6070 C   0  0  0  0  0  0  0  0  0  0  0  0
    0.1220   27.2700  -23.9390 C   0  0  0  0  0  0  0  0  0  0  0  0
   -3.2070   25.0660  -26.7200 C   0  0  0  0  0  0  0  0  0  0  0  0
   -4.1440   24.5930  -26.0220 O   0  0  0  0  0  0  0  0  0  0  0  0
   -3.7510   22.9400  -29.4030 C   0  0  0  0  0  0  0  0  0  0  0  0
   -4.6360   22.2860  -30.2650 C   0  0  0  0  0  0  0  0  0  0  0  0
   -6.3754   20.2301  -31.0942 H   0  0  0  0  0  0  0  0  0  0  0  0
   -7.3294   20.5513  -32.5820 H   0  0  0  0  0  0  0  0  0  0  0  0
   -5.5516   20.8084  -32.5820 H   0  0  0  0  0  0  0  0  0  0  0  0
   -7.0431   24.7013  -30.5157 H   0  0  0  0  0  0  0  0  0  0  0  0
   -5.4701   25.8651  -28.9727 H   0  0  0  0  0  0  0  0  0  0  0  0
   -0.0868   27.5559  -28.0632 H   0  0  0  0  0  0  0  0  0  0  0  0
   -0.0635   27.3776  -26.2524 H   0  0  0  0  0  0  0  0  0  0  0  0
   -0.1929   23.5589  -30.1496 H   0  0  0  0  0  0  0  0  0  0  0  0
   -1.3559   21.3660  -29.9067 H   0  0  0  0  0  0  0  0  0  0  0  0
   -0.0382   17.5441  -26.8237 H   0  0  0  0  0  0  0  0  0  0  0  0
    0.6220   16.9168  -28.4024 H   0  0  0  0  0  0  0  0  0  0  0  0
    1.3329   19.4507  -26.8997 H   0  0  0  0  0  0  0  0  0  0  0  0
    2.3986   18.1203  -27.5494 H   0  0  0  0  0  0  0  0  0  0  0  0
    1.4408   20.5930  -28.8509 H   0  0  0  0  0  0  0  0  0  0  0  0
    2.8481   19.5119  -29.2301 H   0  0  0  0  0  0  0  0  0  0  0  0
    1.1967   19.6154  -31.0889 H   0  0  0  0  0  0  0  0  0  0  0  0
    1.3861   17.9583  -30.4002 H   0  0  0  0  0  0  0  0  0  0  0  0
   -0.9017   19.9335  -30.0244 H   0  0  0  0  0  0  0  0  0  0  0  0
   -0.9218   18.2105  -30.6478 H   0  0  0  0  0  0  0  0  0  0  0  0
   -0.3563   21.3086  -25.6949 H   0  0  0  0  0  0  0  0  0  0  0  0
    0.8161   23.4964  -25.9424 H   0  0  0  0  0  0  0  0  0  0  0  0
   -2.3712   27.1682  -24.6486 H   0  0  0  0  0  0  0  0  0  0  0  0
   -2.5301   25.4323  -24.1652 H   0  0  0  0  0  0  0  0  0  0  0  0
   -0.3155   23.9858  -24.7928 H   0  0  0  0  0  0  0  0  0  0  0  0
    2.1069   23.9290  -24.2118 H   0  0  0  0  0  0  0  0  0  0  0  0
    3.7525   25.9940  -22.2590 H   0  0  0  0  0  0  0  0  0  0  0  0
    4.1158   25.0839  -23.7644 H   0  0  0  0  0  0  0  0  0  0  0  0
    4.1727   26.8793  -23.7644 H   0  0  0  0  0  0  0  0  0  0  0  0
    1.9778   28.1462  -23.2452 H   0  0  0  0  0  0  0  0  0  0  0  0
   -0.4431   28.2075  -23.8306 H   0  0  0  0  0  0  0  0  0  0  0  0
   -2.8229   22.4394  -29.0900 H   0  0  0  0  0  0  0  0  0  0  0  0
   -4.4023   21.2713  -30.6196 H   0  0  0  0  0  0  0  0  0  0  0  0
  1  2  1  0
  2  3  1  0
  3  4  2  0
  4  5  1  0
  5  6  2  0
  6  7  1  0
  7  8  1  0
  8  9  1  0
  8 10  2  0
 10 11  1  0
 11 12  1  0
 12 13  2  0
 12 14  1  0
 14 15  1  0
 15 16  2  0
 16 17  1  0
 17 18  2  0
 18 19  1  0
 19 20  2  0
 19 21  2  0
 19 22  1  0
 22 23  1  0
 23 24  1  0
 24 25  1  0
 25 26  1  0
 26 27  1  0
 18 28  1  0
 28 29  2  0
 10 30  1  0
 30 31  1  0
 31 32  1  0
 32 33  2  0
 33 34  1  0
 34 35  2  0
 35 36  1  0
 35 37  1  0
 37 38  2  0
 30 39  1  0
 39 40  2  0
  6 41  1  0
 41 42  2  0
 42  3  1  0
 39  7  1  0
 29 15  1  0
 38 32  1  0
 27 22  1  0
  1 43  1  0
  1 44  1  0
  1 45  1  0
  4 46  1  0
  5 47  1  0
 11 48  1  0
 11 49  1  0
 16 50  1  0
 17 51  1  0
 23 52  1  0
 23 53  1  0
 24 54  1  0
 24 55  1  0
 25 56  1  0
 25 57  1  0
 26 58  1  0
 26 59  1  0
 27 60  1  0
 27 61  1  0
 28 62  1  0
 29 63  1  0
 31 64  1  0
 31 65  1  0
 33 66  1  0
 34 67  1  0
 36 68  1  0
 36 69  1  0
 36 70  1  0
 37 71  1  0
 38 72  1  0
 41 73  1  0
 42 74  1  0
M  CHG  2   9  -1  14  -1
M  END
>  <UniqueID>  (48) 
46

>  <SMILES>  (48) 
COc1ccc(-n2c([O-])c(CC(=O)[N-]c3ccc(S(=O)(=O)N4CCCCC4)cc3)n(Cc3ccc(C)cc3)c2=O)cc1

>  <Energy>  (48) 
128.1654039672026

>  <Genealogy>  (48) 
COc1ccc(-n2c([O-])c(CC(=O)[N-]c3ccc(S(=O)(=O)N4CCCCC4)cc3)n(Cc3ccc(C)cc3)c2=O)cc1 (protonated)
COc1ccc(-n2c([O-])c(CC(=O)[N-]c3ccc(S(=O)(=O)N4CCCCC4)cc3)n(Cc3ccc(C)cc3)c2=O)cc1 (3D coordinates assigned)
COc1ccc(-n2c([O-])c(CC(=O)[N-]c3ccc(S(=O)(=O)N4CCCCC4)cc3)n(Cc3ccc(C)cc3)c2=O)cc1 (nonaromatic ring conformer: 128.1654039672026 kcal/mol)

>  <smiles>  (48) 
COc1ccc(-n2c(O)c(CC(=O)Nc3ccc(S(=O)(=O)N4CCCCC4)cc3)n(Cc3ccc(C)cc3)c2=O)cc1

>  <score_type>  (48) 
oracle

>  <origin>  (48) 
adgpu

>  <m_score__min__energy>  (48) 
-14.859999999999999

>  <m_primary>  (48) 
energy

$$$$
