0:0
     RDKit          3D

 45 48  0  0  0  0  0  0  0  0999 V2000
   -7.7379   21.6499  -32.6363 H   0  0  0  0  0  0  0  0  0  0  0  0
   -6.9480   22.2690  -32.1860 C   0  0  0  0  0  0  0  0  0  0  0  0
   -7.2870   23.3990  -31.4360 C   0  0  0  0  0  0  0  0  0  0  0  0
   -8.3446   23.6631  -31.2885 H   0  0  0  0  0  0  0  0  0  0  0  0
   -6.2840   24.1940  -30.8730 C   0  0  0  0  0  0  0  0  0  0  0  0
   -6.5552   25.0729  -30.2696 H   0  0  0  0  0  0  0  0  0  0  0  0
   -4.9260   23.8730  -31.0760 C   0  0  0  0  0  0  0  0  0  0  0  0
   -3.8630   24.6450  -30.4920 N   0  0  0  0  0  0  0  0  0  0  0  0
   -2.9190   24.2100  -29.7100 C   0  0  0  0  0  0  0  0  0  0  0  0
   -2.8970   22.9230  -29.2790 N   0  0  0  0  0  0  0  0  0  0  0  0
   -1.9160   22.4800  -28.4520 C   0  0  0  0  0  0  0  0  0  0  0  0
   -1.9080   21.0970  -28.0380 N   0  0  0  0  0  0  0  0  0  0  0  0
   -3.1050   20.4760  -27.4560 C   0  0  0  0  0  0  0  0  0  0  0  0
   -3.6502   21.2248  -26.8627 H   0  0  0  0  0  0  0  0  0  0  0  0
   -3.7443   20.1007  -28.2687 H   0  0  0  0  0  0  0  0  0  0  0  0
   -2.7100   19.3040  -26.5510 C   0  0  0  0  0  0  0  0  0  0  0  0
   -2.2069   19.6952  -25.6544 H   0  0  0  0  0  0  0  0  0  0  0  0
   -3.6206   18.7536  -26.2718 H   0  0  0  0  0  0  0  0  0  0  0  0
   -1.8360   18.4190  -27.2230 O   0  0  0  0  0  0  0  0  0  0  0  0
   -0.6130   19.0760  -27.4890 C   0  0  0  0  0  0  0  0  0  0  0  0
   -0.2100   19.4830  -26.5499 H   0  0  0  0  0  0  0  0  0  0  0  0
    0.0908   18.3509  -27.9237 H   0  0  0  0  0  0  0  0  0  0  0  0
   -0.8190   20.2200  -28.4850 C   0  0  0  0  0  0  0  0  0  0  0  0
    0.1093   20.8051  -28.5621 H   0  0  0  0  0  0  0  0  0  0  0  0
   -1.0812   19.7966  -29.4658 H   0  0  0  0  0  0  0  0  0  0  0  0
   -0.9540   23.3520  -28.0320 N   0  0  0  0  0  0  0  0  0  0  0  0
   -0.1910   23.0090  -27.4100 H   0  0  0  0  0  0  0  0  0  0  0  0
   -0.9860   24.6580  -28.4360 C   0  0  0  0  0  0  0  0  0  0  0  0
   -0.0880   25.5250  -28.0580 N   0  0  0  0  0  0  0  0  0  0  0  0
    0.9580   25.3280  -27.0950 C   0  0  0  0  0  0  0  0  0  0  0  0
    0.6340   25.2780  -25.7330 C   0  0  0  0  0  0  0  0  0  0  0  0
   -0.4068   25.4324  -25.4121 H   0  0  0  0  0  0  0  0  0  0  0  0
    1.6260   25.0330  -24.7800 C   0  0  0  0  0  0  0  0  0  0  0  0
    1.3680   25.0139  -23.7109 H   0  0  0  0  0  0  0  0  0  0  0  0
    2.9470   24.8120  -25.1840 C   0  0  0  0  0  0  0  0  0  0  0  0
    3.9080   24.5720  -24.2600 F   0  0  0  0  0  0  0  0  0  0  0  0
    3.2710   24.8240  -26.5450 C   0  0  0  0  0  0  0  0  0  0  0  0
    4.3076   24.6410  -26.8644 H   0  0  0  0  0  0  0  0  0  0  0  0
    2.2800   25.0680  -27.4990 C   0  0  0  0  0  0  0  0  0  0  0  0
    2.5343   25.0568  -28.5691 H   0  0  0  0  0  0  0  0  0  0  0  0
   -1.9640   25.0690  -29.2820 N   0  0  0  0  0  0  0  0  0  0  0  0
   -4.6000   22.7190  -31.8010 C   0  0  0  0  0  0  0  0  0  0  0  0
   -3.5452   22.4342  -31.9289 H   0  0  0  0  0  0  0  0  0  0  0  0
   -5.6060   21.9270  -32.3630 C   0  0  0  0  0  0  0  0  0  0  0  0
   -5.3396   21.0328  -32.9457 H   0  0  0  0  0  0  0  0  0  0  0  0
  1  2  1  0
  2  3  2  0
  3  4  1  0
  3  5  1  0
  5  6  1  0
  5  7  2  0
  7  8  1  0
  8  9  2  0
  9 10  1  0
 10 11  2  0
 11 12  1  0
 12 13  1  0
 13 14  1  0
 13 15  1  0
 13 16  1  0
 16 17  1  0
 16 18  1  0
 16 19  1  0
 19 20  1  0
 20 21  1  0
 20 22  1  0
 20 23  1  0
 23 24  1  0
 23 25  1  0
 11 26  1  0
 26 27  1  0
 26 28  1  0
 28 29  2  0
 29 30  1  0
 30 31  2  0
 31 32  1  0
 31 33  1  0
 33 34  1  0
 33 35  2  0
 35 36  1  0
 35 37  1  0
 37 38  1  0
 37 39  2  0
 39 40  1  0
 28 41  1  0
  7 42  1  0
 42 43  1  0
 42 44  2  0
 44 45  1  0
 44  2  1  0
 41  9  1  0
 23 12  1  0
 39 30  1  0
M  CHG  1  41  -1
M  END
>  <UniqueID>  (1) 
1

>  <SMILES>  (1) 
Fc1ccc(/N=c2/[n-]/c(=N/c3ccccc3)nc(N3CCOCC3)[nH]2)cc1

>  <Energy>  (1) 
67.23665092961521

>  <Genealogy>  (1) 
Fc1ccc(N=c2[n-]c(=Nc3ccccc3)nc(N3CCOCC3)[nH]2)cc1 (protonated)
Fc1ccc(/N=c2/[n-]/c(=N/c3ccccc3)nc(N3CCOCC3)[nH]2)cc1 (cis-trans isomerization)
Fc1ccc(/N=c2/[n-]/c(=N/c3ccccc3)nc(N3CCOCC3)[nH]2)cc1 (3D coordinates assigned)
Fc1ccc(/N=c2/[n-]/c(=N/c3ccccc3)nc(N3CCOCC3)[nH]2)cc1 (nonaromatic ring conformer: 67.23665092961521 kcal/mol)

>  <smiles>  (1) 
Fc1ccc(N=c2[nH]c(N3CCOCC3)nc(=Nc3ccccc3)[nH]2)cc1

>  <score_type>  (1) 
oracle

>  <origin>  (1) 
adgpu

>  <m_score__min__energy>  (1) 
-8.7899999999999991

>  <m_primary>  (1) 
energy

$$$$
1:0
     RDKit          3D

 45 48  0  0  0  0  0  0  0  0999 V2000
   -6.8540   16.1640  -33.8700 C   0  0  0  0  0  0  0  0  0  0  0  0
   -6.9550   17.6270  -32.8580 S   0  0  0  0  0  0  0  0  0  0  0  0
   -6.0810   17.4310  -31.6520 O   0  0  0  0  0  0  0  0  0  0  0  0
   -8.3690   17.8510  -32.3980 O   0  0  0  0  0  0  0  0  0  0  0  0
   -6.3910   19.0100  -33.7430 N   0  0  0  0  0  0  0  0  0  0  0  0
   -5.3100   19.8620  -33.3200 C   0  0  0  0  0  0  0  0  0  0  0  0
   -4.0290   19.6450  -33.8490 C   0  0  0  0  0  0  0  0  0  0  0  0
   -2.9420   20.4470  -33.4640 C   0  0  0  0  0  0  0  0  0  0  0  0
   -1.5920   20.2100  -34.0350 C   0  0  0  0  0  0  0  0  0  0  0  0
   -1.1840   18.9180  -34.4100 C   0  0  0  0  0  0  0  0  0  0  0  0
    0.0880   18.7100  -34.9450 C   0  0  0  0  0  0  0  0  0  0  0  0
    0.9500   19.7950  -35.1020 C   0  0  0  0  0  0  0  0  0  0  0  0
    0.5490   21.0410  -34.7340 N   0  0  0  0  0  0  0  0  0  0  0  0
   -0.6860   21.2710  -34.2130 C   0  0  0  0  0  0  0  0  0  0  0  0
   -3.1510   21.4780  -32.5320 C   0  0  0  0  0  0  0  0  0  0  0  0
   -4.4230   21.7060  -31.9830 C   0  0  0  0  0  0  0  0  0  0  0  0
   -4.6190   22.7980  -31.0010 C   0  0  0  0  0  0  0  0  0  0  0  0
   -3.7270   23.0980  -30.0310 N   0  0  0  0  0  0  0  0  0  0  0  0
   -4.1210   24.1410  -29.2480 C   0  0  0  0  0  0  0  0  0  0  0  0
   -3.2810   24.6210  -28.1200 C   0  0  0  0  0  0  0  0  0  0  0  0
   -1.9080   24.8590  -28.3230 C   0  0  0  0  0  0  0  0  0  0  0  0
   -1.1010   25.3120  -27.2750 C   0  0  0  0  0  0  0  0  0  0  0  0
   -1.6520   25.5380  -26.0120 C   0  0  0  0  0  0  0  0  0  0  0  0
   -0.5480   26.1590  -24.5820 Br  0  0  0  0  0  0  0  0  0  0  0  0
   -3.0140   25.3130  -25.7970 C   0  0  0  0  0  0  0  0  0  0  0  0
   -3.8260   24.8590  -26.8410 C   0  0  0  0  0  0  0  0  0  0  0  0
   -5.3620   24.6850  -29.5980 C   0  0  0  0  0  0  0  0  0  0  0  0
   -5.9480   23.8270  -30.9180 S   0  0  0  0  0  0  0  0  0  0  0  0
   -5.4960   20.8910  -32.3800 C   0  0  0  0  0  0  0  0  0  0  0  0
   -6.7926   15.2753  -33.2247 H   0  0  0  0  0  0  0  0  0  0  0  0
   -7.7495   16.0949  -34.5050 H   0  0  0  0  0  0  0  0  0  0  0  0
   -5.9575   16.2186  -34.5050 H   0  0  0  0  0  0  0  0  0  0  0  0
   -6.9400   19.2760  -34.5910 H   0  0  0  0  0  0  0  0  0  0  0  0
   -3.8734   18.8345  -34.5763 H   0  0  0  0  0  0  0  0  0  0  0  0
   -1.8700   18.0678  -34.2812 H   0  0  0  0  0  0  0  0  0  0  0  0
    0.4077   17.6997  -35.2401 H   0  0  0  0  0  0  0  0  0  0  0  0
    1.9545   19.6427  -35.5236 H   0  0  0  0  0  0  0  0  0  0  0  0
   -0.9781   22.2928  -33.9291 H   0  0  0  0  0  0  0  0  0  0  0  0
   -2.3069   22.1147  -32.2287 H   0  0  0  0  0  0  0  0  0  0  0  0
   -1.4662   24.6869  -29.3156 H   0  0  0  0  0  0  0  0  0  0  0  0
   -0.0292   25.4908  -27.4459 H   0  0  0  0  0  0  0  0  0  0  0  0
   -3.4491   25.4936  -24.8030 H   0  0  0  0  0  0  0  0  0  0  0  0
   -4.8977   24.6862  -26.6635 H   0  0  0  0  0  0  0  0  0  0  0  0
   -5.8647   25.5256  -29.0974 H   0  0  0  0  0  0  0  0  0  0  0  0
   -6.4943   21.0599  -31.9501 H   0  0  0  0  0  0  0  0  0  0  0  0
  1  2  1  0
  2  3  2  0
  2  4  2  0
  2  5  1  0
  5  6  1  0
  6  7  2  0
  7  8  1  0
  8  9  1  0
  9 10  2  0
 10 11  1  0
 11 12  2  0
 12 13  1  0
 13 14  2  0
  8 15  2  0
 15 16  1  0
 16 17  1  0
 17 18  2  0
 18 19  1  0
 19 20  1  0
 20 21  2  0
 21 22  1  0
 22 23  2  0
 23 24  1  0
 23 25  1  0
 25 26  2  0
 19 27  2  0
 27 28  1  0
 16 29  2  0
 29  6  1  0
 14  9  1  0
 28 17  1  0
 26 20  1  0
  1 30  1  0
  1 31  1  0
  1 32  1  0
  5 33  1  0
  7 34  1  0
 10 35  1  0
 11 36  1  0
 12 37  1  0
 14 38  1  0
 15 39  1  0
 21 40  1  0
 22 41  1  0
 25 42  1  0
 26 43  1  0
 27 44  1  0
 29 45  1  0
M  END
>  <UniqueID>  (2) 
2

>  <SMILES>  (2) 
CS(=O)(=O)Nc1cc(-c2cccnc2)cc(-c2nc(-c3ccc(Br)cc3)cs2)c1

>  <Energy>  (2) 
87.04512655257528

>  <Genealogy>  (2) 
CS(=O)(=O)Nc1cc(-c2cccnc2)cc(-c2nc(-c3ccc(Br)cc3)cs2)c1 (3D coordinates assigned)
CS(=O)(=O)Nc1cc(-c2cccnc2)cc(-c2nc(-c3ccc(Br)cc3)cs2)c1 (optimized conformer: 87.04512655257528 kcal/mol)

>  <smiles>  (2) 
CS(=O)(=O)Nc1cc(-c2cccnc2)cc(-c2nc(-c3ccc(Br)cc3)cs2)c1

>  <score_type>  (2) 
oracle

>  <origin>  (2) 
adgpu

>  <m_score__min__energy>  (2) 
-9.4900000000000002

>  <m_primary>  (2) 
energy

$$$$
2:0
     RDKit          3D

 34 36  0  0  0  0  0  0  0  0999 V2000
   -4.9090   25.9420  -31.2990 H   0  0  0  0  0  0  0  0  0  0  0  0
   -4.2320   25.6590  -30.5560 N   0  0  0  0  0  0  0  0  0  0  0  0
   -3.8990   24.4200  -30.3910 C   0  0  0  0  0  0  0  0  0  0  0  0
   -4.4030   23.4090  -31.1320 N   0  0  0  0  0  0  0  0  0  0  0  0
   -3.8160   22.3340  -30.5510 C   0  0  0  0  0  0  0  0  0  0  0  0
   -3.9710   21.1050  -30.9490 N   0  0  0  0  0  0  0  0  0  0  0  0
   -4.8420   20.6460  -31.9960 C   0  0  0  0  0  0  0  0  0  0  0  0
   -6.2080   20.9920  -32.0420 C   0  0  0  0  0  0  0  0  0  0  0  0
   -6.6327   21.6538  -31.2727 H   0  0  0  0  0  0  0  0  0  0  0  0
   -7.0240   20.4960  -33.0630 C   0  0  0  0  0  0  0  0  0  0  0  0
   -8.0856   20.7811  -33.1038 H   0  0  0  0  0  0  0  0  0  0  0  0
   -6.4950   19.6390  -34.0320 C   0  0  0  0  0  0  0  0  0  0  0  0
   -7.1376   19.2563  -34.8386 H   0  0  0  0  0  0  0  0  0  0  0  0
   -5.1490   19.2690  -33.9750 C   0  0  0  0  0  0  0  0  0  0  0  0
   -4.7339   18.5882  -34.7327 H   0  0  0  0  0  0  0  0  0  0  0  0
   -4.3290   19.7630  -32.9560 C   0  0  0  0  0  0  0  0  0  0  0  0
   -3.2737   19.4565  -32.9074 H   0  0  0  0  0  0  0  0  0  0  0  0
   -3.0040   22.6730  -29.5330 N   0  0  0  0  0  0  0  0  0  0  0  0
   -2.4380   22.0360  -28.9290 H   0  0  0  0  0  0  0  0  0  0  0  0
   -3.0480   23.9880  -29.4390 N   0  0  0  0  0  0  0  0  0  0  0  0
   -2.3690   24.7580  -28.4350 C   0  0  0  0  0  0  0  0  0  0  0  0
   -1.1530   25.3780  -28.7630 C   0  0  0  0  0  0  0  0  0  0  0  0
   -0.7481   25.2817  -29.7812 H   0  0  0  0  0  0  0  0  0  0  0  0
   -0.4540   26.1160  -27.8060 C   0  0  0  0  0  0  0  0  0  0  0  0
    0.5010   26.5934  -28.0706 H   0  0  0  0  0  0  0  0  0  0  0  0
   -0.9650   26.2490  -26.5140 C   0  0  0  0  0  0  0  0  0  0  0  0
   -0.4068   26.8211  -25.7583 H   0  0  0  0  0  0  0  0  0  0  0  0
   -2.1850   25.6560  -26.1800 C   0  0  0  0  0  0  0  0  0  0  0  0
   -2.5823   25.7628  -25.1598 H   0  0  0  0  0  0  0  0  0  0  0  0
   -2.9090   24.9240  -27.1370 C   0  0  0  0  0  0  0  0  0  0  0  0
   -4.2360   24.3300  -26.7490 C   0  0  0  0  0  0  0  0  0  0  0  0
   -4.3153   24.2945  -25.6524 H   0  0  0  0  0  0  0  0  0  0  0  0
   -5.0483   24.9504  -27.1555 H   0  0  0  0  0  0  0  0  0  0  0  0
   -4.3144   23.3109  -27.1555 H   0  0  0  0  0  0  0  0  0  0  0  0
  1  2  1  0
  2  3  2  0
  3  4  1  0
  4  5  1  0
  5  6  2  0
  6  7  1  0
  7  8  2  0
  8  9  1  0
  8 10  1  0
 10 11  1  0
 10 12  2  0
 12 13  1  0
 12 14  1  0
 14 15  1  0
 14 16  2  0
 16 17  1  0
  5 18  1  0
 18 19  1  0
 18 20  1  0
 20 21  1  0
 21 22  2  0
 22 23  1  0
 22 24  1  0
 24 25  1  0
 24 26  2  0
 26 27  1  0
 26 28  1  0
 28 29  1  0
 28 30  2  0
 30 31  1  0
 31 32  1  0
 31 33  1  0
 31 34  1  0
 20  3  1  0
 30 21  1  0
 16  7  1  0
M  CHG  1   4  -1
M  END
>  <UniqueID>  (3) 
3

>  <SMILES>  (3) 
[H]/N=c1\[n-]/c(=N\c2ccccc2)[nH]n1-c1ccccc1C

>  <Energy>  (3) 
84.92197378363461

>  <Genealogy>  (3) 
Cc1ccccc1-n1[nH]c(=Nc2ccccc2)[n-]c1=N (protonated)
[H]/N=c1\[n-]/c(=N\c2ccccc2)[nH]n1-c1ccccc1C (cis-trans isomerization)
[H]/N=c1\[n-]/c(=N\c2ccccc2)[nH]n1-c1ccccc1C (3D coordinates assigned)
[H]/N=c1\[n-]/c(=N\c2ccccc2)[nH]n1-c1ccccc1C (optimized conformer: 84.92197378363461 kcal/mol)

>  <smiles>  (3) 
Cc1ccccc1-n1[nH]c(=Nc2ccccc2)[nH]c1=N

>  <score_type>  (3) 
oracle

>  <origin>  (3) 
adgpu

>  <m_score__min__energy>  (3) 
-7.9299999999999997

>  <m_primary>  (3) 
energy

$$$$
3:0
     RDKit          3D

 44 46  0  0  0  0  0  0  0  0999 V2000
   -0.9708   20.6820  -33.8977 H   0  0  0  0  0  0  0  0  0  0  0  0
   -1.8930   20.7730  -33.3050 C   0  0  0  0  0  0  0  0  0  0  0  0
   -3.0180   20.1270  -33.6980 N   0  0  0  0  0  0  0  0  0  0  0  0
   -4.1730   20.2230  -32.9920 C   0  0  0  0  0  0  0  0  0  0  0  0
   -5.2190   19.5740  -33.4180 N   0  0  0  0  0  0  0  0  0  0  0  0
   -6.5490   19.6210  -32.8780 C   0  0  0  0  0  0  0  0  0  0  0  0
   -7.2150   20.8500  -32.7300 C   0  0  0  0  0  0  0  0  0  0  0  0
   -6.7117   21.7833  -33.0226 H   0  0  0  0  0  0  0  0  0  0  0  0
   -8.5110   20.8930  -32.2140 C   0  0  0  0  0  0  0  0  0  0  0  0
   -9.0192   21.8601  -32.0854 H   0  0  0  0  0  0  0  0  0  0  0  0
   -9.1630   19.7110  -31.8610 C   0  0  0  0  0  0  0  0  0  0  0  0
  -10.1818   19.7477  -31.4477 H   0  0  0  0  0  0  0  0  0  0  0  0
   -8.5230   18.4810  -32.0320 C   0  0  0  0  0  0  0  0  0  0  0  0
   -9.0417   17.5521  -31.7527 H   0  0  0  0  0  0  0  0  0  0  0  0
   -7.2220   18.4220  -32.5580 C   0  0  0  0  0  0  0  0  0  0  0  0
   -6.5820   17.1450  -32.7320 N   0  0  0  0  0  0  0  0  0  0  0  0
   -5.7560   16.6020  -31.6550 C   0  0  0  0  0  0  0  0  0  0  0  0
   -6.1873   16.8855  -30.6836 H   0  0  0  0  0  0  0  0  0  0  0  0
   -5.7230   15.5054  -31.7355 H   0  0  0  0  0  0  0  0  0  0  0  0
   -4.7362   17.0064  -31.7355 H   0  0  0  0  0  0  0  0  0  0  0  0
   -6.6680   16.4350  -34.0090 C   0  0  0  0  0  0  0  0  0  0  0  0
   -6.7984   15.3589  -33.8221 H   0  0  0  0  0  0  0  0  0  0  0  0
   -7.5268   16.8143  -34.5823 H   0  0  0  0  0  0  0  0  0  0  0  0
   -5.7435   16.5983  -34.5823 H   0  0  0  0  0  0  0  0  0  0  0  0
   -4.1980   20.9620  -31.8380 N   0  0  0  0  0  0  0  0  0  0  0  0
   -5.0510   20.9760  -31.2380 H   0  0  0  0  0  0  0  0  0  0  0  0
   -3.0900   21.6360  -31.4090 C   0  0  0  0  0  0  0  0  0  0  0  0
   -3.1430   22.4510  -30.1680 C   0  0  0  0  0  0  0  0  0  0  0  0
   -3.8540   21.9880  -29.0480 C   0  0  0  0  0  0  0  0  0  0  0  0
   -4.3742   21.0198  -29.0924 H   0  0  0  0  0  0  0  0  0  0  0  0
   -3.9040   22.7500  -27.8790 C   0  0  0  0  0  0  0  0  0  0  0  0
   -4.4642   22.3798  -27.0077 H   0  0  0  0  0  0  0  0  0  0  0  0
   -3.2460   23.9800  -27.8110 C   0  0  0  0  0  0  0  0  0  0  0  0
   -3.2901   24.5756  -26.8872 H   0  0  0  0  0  0  0  0  0  0  0  0
   -2.5270   24.4590  -28.9210 C   0  0  0  0  0  0  0  0  0  0  0  0
   -1.8450   25.6850  -28.9030 O   0  0  0  0  0  0  0  0  0  0  0  0
   -0.9430   26.0890  -27.8770 C   0  0  0  0  0  0  0  0  0  0  0  0
   -1.3925   25.8877  -26.8934 H   0  0  0  0  0  0  0  0  0  0  0  0
   -0.0029   25.5260  -27.9727 H   0  0  0  0  0  0  0  0  0  0  0  0
   -0.7371   27.1653  -27.9727 H   0  0  0  0  0  0  0  0  0  0  0  0
   -2.4820   23.6910  -30.0920 C   0  0  0  0  0  0  0  0  0  0  0  0
   -1.9226   24.0622  -30.9634 H   0  0  0  0  0  0  0  0  0  0  0  0
   -1.9050   21.5510  -32.1520 C   0  0  0  0  0  0  0  0  0  0  0  0
   -1.0015   22.0893  -31.8296 H   0  0  0  0  0  0  0  0  0  0  0  0
  1  2  1  0
  2  3  2  0
  3  4  1  0
  4  5  2  0
  5  6  1  0
  6  7  2  0
  7  8  1  0
  7  9  1  0
  9 10  1  0
  9 11  2  0
 11 12  1  0
 11 13  1  0
 13 14  1  0
 13 15  2  0
 15 16  1  0
 16 17  1  0
 17 18  1  0
 17 19  1  0
 17 20  1  0
 16 21  1  0
 21 22  1  0
 21 23  1  0
 21 24  1  0
  4 25  1  0
 25 26  1  0
 25 27  1  0
 27 28  1  0
 28 29  2  0
 29 30  1  0
 29 31  1  0
 31 32  1  0
 31 33  2  0
 33 34  1  0
 33 35  1  0
 35 36  1  0
 36 37  1  0
 37 38  1  0
 37 39  1  0
 37 40  1  0
 35 41  2  0
 41 42  1  0
 27 43  2  0
 43 44  1  0
 43  2  1  0
 15  6  1  0
 41 28  1  0
M  END
>  <UniqueID>  (4) 
4

>  <SMILES>  (4) 
COc1cccc(-c2ccn/c(=N/c3ccccc3N(C)C)[nH]2)c1

>  <Energy>  (4) 
63.097620239952874

>  <Genealogy>  (4) 
COc1cccc(-c2ccn/c(=N/c3ccccc3N(C)C)[nH]2)c1 (cis-trans isomerization)
COc1cccc(-c2ccn/c(=N/c3ccccc3N(C)C)[nH]2)c1 (3D coordinates assigned)
COc1cccc(-c2ccn/c(=N/c3ccccc3N(C)C)[nH]2)c1 (optimized conformer: 63.097620239952874 kcal/mol)

>  <smiles>  (4) 
COc1cccc(-c2ccnc(=Nc3ccccc3N(C)C)[nH]2)c1

>  <score_type>  (4) 
oracle

>  <origin>  (4) 
adgpu

>  <m_score__min__energy>  (4) 
-7.9500000000000002

>  <m_primary>  (4) 
energy

$$$$
4:0
     RDKit          3D

 35 36  0  0  0  0  0  0  0  0999 V2000
   -0.1150   19.0470  -29.1920 C   0  0  0  0  0  0  0  0  0  0  0  0
   -0.7120   20.4230  -29.1550 C   0  0  0  0  0  0  0  0  0  0  0  0
   -0.4950   21.3230  -30.2100 C   0  0  0  0  0  0  0  0  0  0  0  0
   -1.0810   22.5920  -30.1840 C   0  0  0  0  0  0  0  0  0  0  0  0
   -1.8870   22.9760  -29.1020 C   0  0  0  0  0  0  0  0  0  0  0  0
   -2.6070   24.5820  -29.0610 S   0  0  0  0  0  0  0  0  0  0  0  0
   -1.5450   25.6410  -28.9620 O   0  0  0  0  0  0  0  0  0  0  0  0
   -3.4950   24.6680  -27.8530 O   0  0  0  0  0  0  0  0  0  0  0  0
   -3.5670   24.8530  -30.4800 N   0  0  0  0  0  0  0  0  0  0  0  0
   -4.8260   24.2290  -30.7600 C   0  0  0  0  0  0  0  0  0  0  0  0
   -6.1060   24.5970  -30.3640 C   0  0  0  0  0  0  0  0  0  0  0  0
   -6.5080   25.7060  -29.4490 C   0  0  0  0  0  0  0  0  0  0  0  0
   -6.9920   23.7190  -30.8840 N   0  0  0  0  0  0  0  0  0  0  0  0
   -6.3150   22.8190  -31.5830 N   0  0  0  0  0  0  0  0  0  0  0  0
   -6.9540   21.7280  -32.3110 C   0  0  0  0  0  0  0  0  0  0  0  0
   -4.9930   23.0890  -31.5150 C   0  0  0  0  0  0  0  0  0  0  0  0
   -3.9010   22.3290  -32.2040 C   0  0  0  0  0  0  0  0  0  0  0  0
   -2.1270   22.0680  -28.0640 C   0  0  0  0  0  0  0  0  0  0  0  0
   -1.5460   20.7970  -28.0900 C   0  0  0  0  0  0  0  0  0  0  0  0
    0.0411   18.6873  -28.1643 H   0  0  0  0  0  0  0  0  0  0  0  0
   -0.7981   18.3650  -29.7194 H   0  0  0  0  0  0  0  0  0  0  0  0
    0.8497   19.0799  -29.7194 H   0  0  0  0  0  0  0  0  0  0  0  0
    0.1382   21.0289  -31.0600 H   0  0  0  0  0  0  0  0  0  0  0  0
   -0.9094   23.2919  -31.0150 H   0  0  0  0  0  0  0  0  0  0  0  0
   -6.3901   25.3808  -28.4048 H   0  0  0  0  0  0  0  0  0  0  0  0
   -5.8707   26.5833  -29.6340 H   0  0  0  0  0  0  0  0  0  0  0  0
   -7.5594   25.9711  -29.6340 H   0  0  0  0  0  0  0  0  0  0  0  0
   -7.3761   21.0073  -31.5952 H   0  0  0  0  0  0  0  0  0  0  0  0
   -7.7588   22.1310  -32.9433 H   0  0  0  0  0  0  0  0  0  0  0  0
   -6.2088   21.2232  -32.9433 H   0  0  0  0  0  0  0  0  0  0  0  0
   -3.2423   21.8706  -31.4517 H   0  0  0  0  0  0  0  0  0  0  0  0
   -4.3425   21.5420  -32.8331 H   0  0  0  0  0  0  0  0  0  0  0  0
   -3.3164   23.0164  -32.8331 H   0  0  0  0  0  0  0  0  0  0  0  0
   -2.7759   22.3561  -27.2238 H   0  0  0  0  0  0  0  0  0  0  0  0
   -1.7431   20.0874  -27.2729 H   0  0  0  0  0  0  0  0  0  0  0  0
  1  2  1  0
  2  3  2  0
  3  4  1  0
  4  5  2  0
  5  6  1  0
  6  7  2  0
  6  8  2  0
  6  9  1  0
  9 10  1  0
 10 11  1  0
 11 12  1  0
 11 13  2  0
 13 14  1  0
 14 15  1  0
 14 16  1  0
 16 17  1  0
  5 18  1  0
 18 19  2  0
 19  2  1  0
 16 10  2  0
  1 20  1  0
  1 21  1  0
  1 22  1  0
  3 23  1  0
  4 24  1  0
 12 25  1  0
 12 26  1  0
 12 27  1  0
 15 28  1  0
 15 29  1  0
 15 30  1  0
 17 31  1  0
 17 32  1  0
 17 33  1  0
 18 34  1  0
 19 35  1  0
M  CHG  1   9  -1
M  END
>  <UniqueID>  (5) 
5

>  <SMILES>  (5) 
Cc1ccc(S(=O)(=O)[N-]c2c(C)nn(C)c2C)cc1

>  <Energy>  (5) 
68.82316542460622

>  <Genealogy>  (5) 
Cc1ccc(S(=O)(=O)[N-]c2c(C)nn(C)c2C)cc1 (protonated)
Cc1ccc(S(=O)(=O)[N-]c2c(C)nn(C)c2C)cc1 (3D coordinates assigned)
Cc1ccc(S(=O)(=O)[N-]c2c(C)nn(C)c2C)cc1 (optimized conformer: 68.82316542460622 kcal/mol)

>  <smiles>  (5) 
Cc1ccc(S(=O)(=O)Nc2c(C)nn(C)c2C)cc1

>  <score_type>  (5) 
oracle

>  <origin>  (5) 
adgpu

>  <m_score__min__energy>  (5) 
-8.2200000000000006

>  <m_primary>  (5) 
energy

$$$$
5:0
     RDKit          3D

 35 37  0  0  0  0  0  0  0  0999 V2000
   -8.3303   22.3592  -32.0405 H   0  0  0  0  0  0  0  0  0  0  0  0
   -7.3980   22.8560  -31.7340 C   0  0  0  0  0  0  0  0  0  0  0  0
   -7.4380   23.8950  -30.8580 N   0  0  0  0  0  0  0  0  0  0  0  0
   -6.3100   24.5310  -30.4410 C   0  0  0  0  0  0  0  0  0  0  0  0
   -6.4280   25.6720  -29.4770 C   0  0  0  0  0  0  0  0  0  0  0  0
   -6.3882   25.2875  -28.4471 H   0  0  0  0  0  0  0  0  0  0  0  0
   -5.5978   26.3755  -29.6381 H   0  0  0  0  0  0  0  0  0  0  0  0
   -7.3846   26.1907  -29.6381 H   0  0  0  0  0  0  0  0  0  0  0  0
   -5.0520   24.1020  -30.9050 C   0  0  0  0  0  0  0  0  0  0  0  0
   -3.8620   24.8020  -30.5020 N   0  0  0  0  0  0  0  0  0  0  0  0
   -3.1840   24.6070  -29.4080 C   0  0  0  0  0  0  0  0  0  0  0  0
   -2.0550   25.2910  -29.1350 N   0  0  0  0  0  0  0  0  0  0  0  0
   -1.5360   24.9680  -27.9170 C   0  0  0  0  0  0  0  0  0  0  0  0
   -0.2820   25.5950  -27.4210 C   0  0  0  0  0  0  0  0  0  0  0  0
   -0.2520   26.9320  -26.9790 C   0  0  0  0  0  0  0  0  0  0  0  0
   -1.1731   27.5330  -26.9950 H   0  0  0  0  0  0  0  0  0  0  0  0
    0.9400   27.5010  -26.5200 C   0  0  0  0  0  0  0  0  0  0  0  0
    0.9478   28.5465  -26.1782 H   0  0  0  0  0  0  0  0  0  0  0  0
    2.1220   26.7550  -26.4910 C   0  0  0  0  0  0  0  0  0  0  0  0
    3.2900   27.3730  -26.0180 O   0  0  0  0  0  0  0  0  0  0  0  0
    3.6180   27.5220  -24.6410 C   0  0  0  0  0  0  0  0  0  0  0  0
    2.7890   27.1454  -24.0238 H   0  0  0  0  0  0  0  0  0  0  0  0
    4.5307   26.9501  -24.4175 H   0  0  0  0  0  0  0  0  0  0  0  0
    3.7878   28.5856  -24.4175 H   0  0  0  0  0  0  0  0  0  0  0  0
    2.1000   25.4210  -26.9350 C   0  0  0  0  0  0  0  0  0  0  0  0
    3.0237   24.8238  -26.9193 H   0  0  0  0  0  0  0  0  0  0  0  0
    0.9110   24.8500  -27.3960 C   0  0  0  0  0  0  0  0  0  0  0  0
    0.9078   23.8063  -27.7433 H   0  0  0  0  0  0  0  0  0  0  0  0
   -2.2760   24.0130  -27.2090 C   0  0  0  0  0  0  0  0  0  0  0  0
   -2.0290   23.6145  -26.2139 H   0  0  0  0  0  0  0  0  0  0  0  0
   -3.6070   23.5800  -28.1410 S   0  0  0  0  0  0  0  0  0  0  0  0
   -5.0010   23.0520  -31.8370 C   0  0  0  0  0  0  0  0  0  0  0  0
   -4.0329   22.7277  -32.2464 H   0  0  0  0  0  0  0  0  0  0  0  0
   -6.1760   22.4200  -32.2440 C   0  0  0  0  0  0  0  0  0  0  0  0
   -6.1388   21.5859  -32.9602 H   0  0  0  0  0  0  0  0  0  0  0  0
  1  2  1  0
  2  3  2  0
  3  4  1  0
  4  5  1  0
  5  6  1  0
  5  7  1  0
  5  8  1  0
  4  9  2  0
  9 10  1  0
 10 11  2  0
 11 12  1  0
 12 13  1  0
 13 14  1  0
 14 15  2  0
 15 16  1  0
 15 17  1  0
 17 18  1  0
 17 19  2  0
 19 20  1  0
 20 21  1  0
 21 22  1  0
 21 23  1  0
 21 24  1  0
 19 25  1  0
 25 26  1  0
 25 27  2  0
 27 28  1  0
 13 29  2  0
 29 30  1  0
 29 31  1  0
  9 32  1  0
 32 33  1  0
 32 34  2  0
 34 35  1  0
 34  2  1  0
 31 11  1  0
 27 14  1  0
M  CHG  1  12  -1
M  END
>  <UniqueID>  (6) 
6

>  <SMILES>  (6) 
COc1ccc(-c2cs/c(=N\c3cccnc3C)[n-]2)cc1

>  <Energy>  (6) 
76.61454702951622

>  <Genealogy>  (6) 
COc1ccc(-c2csc(=Nc3cccnc3C)[n-]2)cc1 (protonated)
COc1ccc(-c2cs/c(=N\c3cccnc3C)[n-]2)cc1 (cis-trans isomerization)
COc1ccc(-c2cs/c(=N\c3cccnc3C)[n-]2)cc1 (3D coordinates assigned)
COc1ccc(-c2cs/c(=N\c3cccnc3C)[n-]2)cc1 (optimized conformer: 76.61454702951622 kcal/mol)

>  <smiles>  (6) 
COc1ccc(-c2csc(=Nc3cccnc3C)[nH]2)cc1

>  <score_type>  (6) 
oracle

>  <origin>  (6) 
adgpu

>  <m_score__min__energy>  (6) 
-8.1799999999999997

>  <m_primary>  (6) 
energy

$$$$
6:0
     RDKit          3D

 40 42  0  0  0  0  0  0  0  0999 V2000
   -0.8670   26.5640  -28.0930 C   0  0  0  0  0  0  0  0  0  0  0  0
   -1.4820   25.6530  -28.9960 O   0  0  0  0  0  0  0  0  0  0  0  0
   -1.3960   24.2540  -28.8970 C   0  0  0  0  0  0  0  0  0  0  0  0
   -0.1600   23.5940  -28.7420 C   0  0  0  0  0  0  0  0  0  0  0  0
   -0.1080   22.2020  -28.6530 C   0  0  0  0  0  0  0  0  0  0  0  0
   -1.2820   21.4520  -28.7080 C   0  0  0  0  0  0  0  0  0  0  0  0
   -2.5140   22.0910  -28.8630 C   0  0  0  0  0  0  0  0  0  0  0  0
   -2.5820   23.4900  -28.9700 C   0  0  0  0  0  0  0  0  0  0  0  0
   -3.9200   24.1590  -29.1890 C   0  0  0  0  0  0  0  0  0  0  0  0
   -3.8560   25.1700  -30.2590 N   0  0  0  0  0  0  0  0  0  0  0  0
   -5.1740   25.4680  -30.8420 C   0  0  0  0  0  0  0  0  0  0  0  0
   -6.0000   24.2220  -30.9030 C   0  0  0  0  0  0  0  0  0  0  0  0
   -5.6700   23.0460  -31.5370 C   0  0  0  0  0  0  0  0  0  0  0  0
   -6.7580   22.2560  -31.4570 N   0  0  0  0  0  0  0  0  0  0  0  0
   -6.9450   20.9450  -32.0260 C   0  0  0  0  0  0  0  0  0  0  0  0
   -8.0560   20.1470  -31.6830 C   0  0  0  0  0  0  0  0  0  0  0  0
   -8.2080   18.8700  -32.2300 C   0  0  0  0  0  0  0  0  0  0  0  0
   -7.2580   18.3730  -33.1250 C   0  0  0  0  0  0  0  0  0  0  0  0
   -6.1530   19.1500  -33.4720 C   0  0  0  0  0  0  0  0  0  0  0  0
   -5.9940   20.4270  -32.9260 C   0  0  0  0  0  0  0  0  0  0  0  0
   -7.6950   22.9180  -30.7950 N   0  0  0  0  0  0  0  0  0  0  0  0
   -7.2630   24.1220  -30.4490 N   0  0  0  0  0  0  0  0  0  0  0  0
   -1.0768   26.2532  -27.0589 H   0  0  0  0  0  0  0  0  0  0  0  0
    0.2201   26.5691  -28.2609 H   0  0  0  0  0  0  0  0  0  0  0  0
   -1.2687   27.5742  -28.2609 H   0  0  0  0  0  0  0  0  0  0  0  0
    0.7696   24.1799  -28.6909 H   0  0  0  0  0  0  0  0  0  0  0  0
    0.8618   21.6954  -28.5392 H   0  0  0  0  0  0  0  0  0  0  0  0
   -1.2378   20.3557  -28.6292 H   0  0  0  0  0  0  0  0  0  0  0  0
   -3.4376   21.4947  -28.9016 H   0  0  0  0  0  0  0  0  0  0  0  0
   -4.6600   23.3936  -29.4657 H   0  0  0  0  0  0  0  0  0  0  0  0
   -4.2065   24.6657  -28.2556 H   0  0  0  0  0  0  0  0  0  0  0  0
   -3.4930   26.0510  -29.8250 H   0  0  0  0  0  0  0  0  0  0  0  0
   -5.6874   26.2153  -30.2190 H   0  0  0  0  0  0  0  0  0  0  0  0
   -5.0379   25.8613  -31.8602 H   0  0  0  0  0  0  0  0  0  0  0  0
   -4.7096   22.8003  -32.0138 H   0  0  0  0  0  0  0  0  0  0  0  0
   -8.8087   20.5326  -30.9796 H   0  0  0  0  0  0  0  0  0  0  0  0
   -9.0776   18.2551  -31.9551 H   0  0  0  0  0  0  0  0  0  0  0  0
   -7.3813   17.3686  -33.5563 H   0  0  0  0  0  0  0  0  0  0  0  0
   -5.4052   18.7572  -34.1766 H   0  0  0  0  0  0  0  0  0  0  0  0
   -5.1181   21.0326  -33.2019 H   0  0  0  0  0  0  0  0  0  0  0  0
  1  2  1  0
  2  3  1  0
  3  4  2  0
  4  5  1  0
  5  6  2  0
  6  7  1  0
  7  8  2  0
  8  9  1  0
  9 10  1  0
 10 11  1  0
 11 12  1  0
 12 13  2  0
 13 14  1  0
 14 15  1  0
 15 16  2  0
 16 17  1  0
 17 18  2  0
 18 19  1  0
 19 20  2  0
 14 21  1  0
 21 22  2  0
  8  3  1  0
 22 12  1  0
 20 15  1  0
  1 23  1  0
  1 24  1  0
  1 25  1  0
  4 26  1  0
  5 27  1  0
  6 28  1  0
  7 29  1  0
  9 30  1  0
  9 31  1  0
 10 32  1  0
 11 33  1  0
 11 34  1  0
 13 35  1  0
 16 36  1  0
 17 37  1  0
 18 38  1  0
 19 39  1  0
 20 40  1  0
M  END
>  <UniqueID>  (7) 
7

>  <SMILES>  (7) 
COc1ccccc1CNCc1cn(-c2ccccc2)nn1

>  <Energy>  (7) 
74.91109988068744

>  <Genealogy>  (7) 
COc1ccccc1CNCc1cn(-c2ccccc2)nn1 (3D coordinates assigned)
COc1ccccc1CNCc1cn(-c2ccccc2)nn1 (optimized conformer: 74.91109988068744 kcal/mol)

>  <smiles>  (7) 
COc1ccccc1CNCc1cn(-c2ccccc2)nn1

>  <score_type>  (7) 
oracle

>  <origin>  (7) 
adgpu

>  <m_score__min__energy>  (7) 
-8.9299999999999997

>  <m_primary>  (7) 
energy

$$$$
7:0
     RDKit          3D

 42 45  0  0  0  0  0  0  0  0999 V2000
   -2.1920   23.6280  -30.5500 O   0  0  0  0  0  0  0  0  0  0  0  0
   -3.0700   22.9140  -31.1010 C   0  0  0  0  0  0  0  0  0  0  0  0
   -2.7030   21.6490  -31.6010 C   0  0  0  0  0  0  0  0  0  0  0  0
   -1.3700   21.1920  -31.5690 C   0  0  0  0  0  0  0  0  0  0  0  0
   -1.0440   19.9280  -32.0710 C   0  0  0  0  0  0  0  0  0  0  0  0
   -2.0400   19.1080  -32.6060 C   0  0  0  0  0  0  0  0  0  0  0  0
   -3.3650   19.5470  -32.6410 C   0  0  0  0  0  0  0  0  0  0  0  0
   -3.6990   20.8100  -32.1410 C   0  0  0  0  0  0  0  0  0  0  0  0
   -4.9900   21.2160  -32.1510 N   0  0  0  0  0  0  0  0  0  0  0  0
   -5.3880   22.4260  -31.6780 C   0  0  0  0  0  0  0  0  0  0  0  0
   -6.7610   22.7520  -31.6730 C   0  0  0  0  0  0  0  0  0  0  0  0
   -7.8170   21.7810  -32.1580 C   0  0  0  0  0  0  0  0  0  0  0  0
   -8.3360   20.9550  -31.0550 N   0  0  0  0  0  0  0  0  0  0  0  0
   -8.7280   19.5970  -31.4710 C   0  0  0  0  0  0  0  0  0  0  0  0
   -7.5890   18.8180  -32.0890 C   0  0  0  0  0  0  0  0  0  0  0  0
   -7.1720   19.0930  -33.4030 C   0  0  0  0  0  0  0  0  0  0  0  0
   -6.1260   18.3660  -33.9780 C   0  0  0  0  0  0  0  0  0  0  0  0
   -5.4820   17.3670  -33.2450 C   0  0  0  0  0  0  0  0  0  0  0  0
   -5.8770   17.0980  -31.9320 C   0  0  0  0  0  0  0  0  0  0  0  0
   -6.9240   17.8230  -31.3530 C   0  0  0  0  0  0  0  0  0  0  0  0
   -7.1690   24.0000  -31.1920 C   0  0  0  0  0  0  0  0  0  0  0  0
   -6.2340   24.9240  -30.7410 C   0  0  0  0  0  0  0  0  0  0  0  0
   -4.8670   24.6360  -30.7590 C   0  0  0  0  0  0  0  0  0  0  0  0
   -4.0070   25.6720  -30.3850 O   0  0  0  0  0  0  0  0  0  0  0  0
   -4.4220   23.3470  -31.1810 C   0  0  0  0  0  0  0  0  0  0  0  0
   -0.5819   21.8329  -31.1469 H   0  0  0  0  0  0  0  0  0  0  0  0
   -0.0012   19.5790  -32.0444 H   0  0  0  0  0  0  0  0  0  0  0  0
   -1.7801   18.1146  -33.0005 H   0  0  0  0  0  0  0  0  0  0  0  0
   -4.1474   18.8987  -33.0624 H   0  0  0  0  0  0  0  0  0  0  0  0
   -8.6483   22.3487  -32.6015 H   0  0  0  0  0  0  0  0  0  0  0  0
   -7.3577   21.1143  -32.9027 H   0  0  0  0  0  0  0  0  0  0  0  0
   -9.1640   21.4420  -30.6390 H   0  0  0  0  0  0  0  0  0  0  0  0
   -9.0885   19.0498  -30.5875 H   0  0  0  0  0  0  0  0  0  0  0  0
   -9.5107   19.7000  -32.2370 H   0  0  0  0  0  0  0  0  0  0  0  0
   -7.6714   19.8842  -33.9814 H   0  0  0  0  0  0  0  0  0  0  0  0
   -5.8096   18.5810  -35.0093 H   0  0  0  0  0  0  0  0  0  0  0  0
   -4.6632   16.7915  -33.7015 H   0  0  0  0  0  0  0  0  0  0  0  0
   -5.3643   16.3156  -31.3532 H   0  0  0  0  0  0  0  0  0  0  0  0
   -7.2280   17.6131  -30.3169 H   0  0  0  0  0  0  0  0  0  0  0  0
   -8.2394   24.2526  -31.1704 H   0  0  0  0  0  0  0  0  0  0  0  0
   -6.5761   25.8989  -30.3634 H   0  0  0  0  0  0  0  0  0  0  0  0
   -3.0100   25.6700  -30.5370 H   0  0  0  0  0  0  0  0  0  0  0  0
  1  2  2  0
  2  3  1  0
  3  4  2  0
  4  5  1  0
  5  6  2  0
  6  7  1  0
  7  8  2  0
  8  9  1  0
  9 10  1  0
 10 11  2  0
 11 12  1  0
 12 13  1  0
 13 14  1  0
 14 15  1  0
 15 16  2  0
 16 17  1  0
 17 18  2  0
 18 19  1  0
 19 20  2  0
 11 21  1  0
 21 22  2  0
 22 23  1  0
 23 24  1  0
 23 25  2  0
 25  2  1  0
  8  3  1  0
 25 10  1  0
 20 15  1  0
  4 26  1  0
  5 27  1  0
  6 28  1  0
  7 29  1  0
 12 30  1  0
 12 31  1  0
 13 32  1  0
 14 33  1  0
 14 34  1  0
 16 35  1  0
 17 36  1  0
 18 37  1  0
 19 38  1  0
 20 39  1  0
 21 40  1  0
 22 41  1  0
 24 42  1  0
M  CHG  1   9  -1
M  END
>  <UniqueID>  (8) 
8

>  <SMILES>  (8) 
O=c1c2ccccc2[n-]c2c(CNCc3ccccc3)ccc(O)c12

>  <Energy>  (8) 
61.65445792212165

>  <Genealogy>  (8) 
O=c1c2ccccc2[n-]c2c(CNCc3ccccc3)ccc(O)c12 (protonated)
O=c1c2ccccc2[n-]c2c(CNCc3ccccc3)ccc(O)c12 (3D coordinates assigned)
O=c1c2ccccc2[n-]c2c(CNCc3ccccc3)ccc(O)c12 (optimized conformer: 61.65445792212165 kcal/mol)

>  <smiles>  (8) 
O=c1c2ccccc2[nH]c2c(CNCc3ccccc3)ccc(O)c12

>  <score_type>  (8) 
oracle

>  <origin>  (8) 
adgpu

>  <m_score__min__energy>  (8) 
-9.2400000000000002

>  <m_primary>  (8) 
energy

$$$$
8:0
     RDKit          3D

 31 32  0  0  0  0  0  0  0  0999 V2000
   -4.0770   25.6690  -30.8230 O   0  0  0  0  0  0  0  0  0  0  0  0
   -3.8230   24.5010  -30.4250 C   0  0  0  0  0  0  0  0  0  0  0  0
   -3.0490   24.3150  -29.1550 C   0  0  0  0  0  0  0  0  0  0  0  0
   -1.9910   25.3140  -29.0160 N   0  0  0  0  0  0  0  0  0  0  0  0
   -0.8460   25.2270  -28.1540 C   0  0  0  0  0  0  0  0  0  0  0  0
    0.1920   24.6570  -28.5840 O   0  0  0  0  0  0  0  0  0  0  0  0
   -0.8530   25.7620  -26.7780 C   0  0  0  0  0  0  0  0  0  0  0  0
   -0.8990   27.1510  -26.5710 C   0  0  0  0  0  0  0  0  0  0  0  0
   -0.8940   27.6730  -25.2750 C   0  0  0  0  0  0  0  0  0  0  0  0
   -0.8280   26.8170  -24.1750 C   0  0  0  0  0  0  0  0  0  0  0  0
   -0.7630   25.4360  -24.3670 C   0  0  0  0  0  0  0  0  0  0  0  0
   -0.7710   24.9010  -25.6620 C   0  0  0  0  0  0  0  0  0  0  0  0
   -0.7200   23.1500  -25.8450 Cl  0  0  0  0  0  0  0  0  0  0  0  0
   -4.1630   23.3670  -31.2320 N   0  0  0  0  0  0  0  0  0  0  0  0
   -5.4860   22.8740  -31.4920 C   0  0  0  0  0  0  0  0  0  0  0  0
   -5.6190   21.6070  -32.0780 C   0  0  0  0  0  0  0  0  0  0  0  0
   -6.8850   21.0680  -32.3230 C   0  0  0  0  0  0  0  0  0  0  0  0
   -7.0020   19.8480  -32.9020 F   0  0  0  0  0  0  0  0  0  0  0  0
   -8.0310   21.7850  -31.9670 C   0  0  0  0  0  0  0  0  0  0  0  0
   -7.9110   23.0340  -31.3550 C   0  0  0  0  0  0  0  0  0  0  0  0
   -6.6460   23.5800  -31.1090 C   0  0  0  0  0  0  0  0  0  0  0  0
   -6.5680   24.7620  -30.4480 F   0  0  0  0  0  0  0  0  0  0  0  0
   -3.7374   24.4036  -28.3016 H   0  0  0  0  0  0  0  0  0  0  0  0
   -2.5803   23.3202  -29.1814 H   0  0  0  0  0  0  0  0  0  0  0  0
   -0.9392   27.8314  -27.4344 H   0  0  0  0  0  0  0  0  0  0  0  0
   -0.9422   28.7612  -25.1215 H   0  0  0  0  0  0  0  0  0  0  0  0
   -0.8272   27.2308  -23.1558 H   0  0  0  0  0  0  0  0  0  0  0  0
   -0.7052   24.7645  -23.4976 H   0  0  0  0  0  0  0  0  0  0  0  0
   -4.7200   21.0329  -32.3469 H   0  0  0  0  0  0  0  0  0  0  0  0
   -9.0274   21.3650  -32.1691 H   0  0  0  0  0  0  0  0  0  0  0  0
   -8.8141   23.5911  -31.0650 H   0  0  0  0  0  0  0  0  0  0  0  0
  1  2  2  0
  2  3  1  0
  3  4  1  0
  4  5  1  0
  5  6  2  0
  5  7  1  0
  7  8  2  0
  8  9  1  0
  9 10  2  0
 10 11  1  0
 11 12  2  0
 12 13  1  0
  2 14  1  0
 14 15  1  0
 15 16  2  0
 16 17  1  0
 17 18  1  0
 17 19  2  0
 19 20  1  0
 20 21  2  0
 21 22  1  0
 12  7  1  0
 21 15  1  0
  3 23  1  0
  3 24  1  0
  8 25  1  0
  9 26  1  0
 10 27  1  0
 11 28  1  0
 16 29  1  0
 19 30  1  0
 20 31  1  0
M  CHG  2   4  -1  14  -1
M  END
>  <UniqueID>  (9) 
9

>  <SMILES>  (9) 
O=C(C[N-]C(=O)c1ccccc1Cl)[N-]c1cc(F)ccc1F

>  <Energy>  (9) 
39.08856364274471

>  <Genealogy>  (9) 
O=C(C[N-]C(=O)c1ccccc1Cl)[N-]c1cc(F)ccc1F (protonated)
O=C(C[N-]C(=O)c1ccccc1Cl)[N-]c1cc(F)ccc1F (3D coordinates assigned)
O=C(C[N-]C(=O)c1ccccc1Cl)[N-]c1cc(F)ccc1F (optimized conformer: 39.08856364274471 kcal/mol)

>  <smiles>  (9) 
O=C(CNC(=O)c1ccccc1Cl)Nc1cc(F)ccc1F

>  <score_type>  (9) 
oracle

>  <origin>  (9) 
adgpu

>  <m_score__min__energy>  (9) 
-10.470000000000001

>  <m_primary>  (9) 
energy

$$$$
9:0
     RDKit          3D

 60 62  0  0  0  0  0  0  0  0999 V2000
   -1.1810   25.9330  -27.6010 C   0  0  0  0  0  0  0  0  0  0  0  0
   -1.7190   25.6350  -28.8870 O   0  0  0  0  0  0  0  0  0  0  0  0
   -2.0010   24.3400  -29.3530 C   0  0  0  0  0  0  0  0  0  0  0  0
   -1.1980   23.2380  -29.0130 C   0  0  0  0  0  0  0  0  0  0  0  0
   -1.5010   21.9570  -29.4810 C   0  0  0  0  0  0  0  0  0  0  0  0
   -0.6600   20.8490  -29.0960 N   0  0  0  0  0  0  0  0  0  0  0  0
   -0.8060   19.4850  -29.6010 C   0  0  0  0  0  0  0  0  0  0  0  0
   -0.5410   19.4400  -31.0800 C   0  0  0  0  0  0  0  0  0  0  0  0
    0.5190   20.1640  -31.6450 C   0  0  0  0  0  0  0  0  0  0  0  0
    0.7410   20.0900  -33.0210 C   0  0  0  0  0  0  0  0  0  0  0  0
   -0.0810   19.2910  -33.8170 C   0  0  0  0  0  0  0  0  0  0  0  0
   -1.1300   18.5760  -33.2210 C   0  0  0  0  0  0  0  0  0  0  0  0
   -2.0030   17.6750  -34.0430 C   0  0  0  0  0  0  0  0  0  0  0  0
   -3.1420   17.2080  -33.2510 N   0  0  0  0  0  0  0  0  0  0  0  0
   -4.4250   17.8630  -33.2100 C   0  0  0  0  0  0  0  0  0  0  0  0
   -5.3140   17.5630  -32.1680 C   0  0  0  0  0  0  0  0  0  0  0  0
   -6.5580   18.1960  -32.0890 C   0  0  0  0  0  0  0  0  0  0  0  0
   -6.9330   19.1490  -33.0470 C   0  0  0  0  0  0  0  0  0  0  0  0
   -8.2220   19.7790  -32.9480 N   0  0  0  0  0  0  0  0  0  0  0  0
   -8.5770   20.7190  -31.9210 C   0  0  0  0  0  0  0  0  0  0  0  0
   -9.8740   21.4580  -32.0070 C   0  0  0  0  0  0  0  0  0  0  0  0
   -7.8480   20.8670  -30.9040 O   0  0  0  0  0  0  0  0  0  0  0  0
   -6.0610   19.4220  -34.1140 C   0  0  0  0  0  0  0  0  0  0  0  0
   -4.8190   18.7890  -34.1940 C   0  0  0  0  0  0  0  0  0  0  0  0
   -1.3260   18.6640  -31.8780 N   0  0  0  0  0  0  0  0  0  0  0  0
   -2.6180   21.7830  -30.3140 C   0  0  0  0  0  0  0  0  0  0  0  0
   -3.4410   22.8710  -30.6650 C   0  0  0  0  0  0  0  0  0  0  0  0
   -4.5630   22.6860  -31.4880 O   0  0  0  0  0  0  0  0  0  0  0  0
   -4.5710   21.9520  -32.7100 C   0  0  0  0  0  0  0  0  0  0  0  0
   -3.1250   24.1630  -30.1760 C   0  0  0  0  0  0  0  0  0  0  0  0
   -3.8820   25.3150  -30.4660 O   0  0  0  0  0  0  0  0  0  0  0  0
   -5.2980   25.4450  -30.3780 C   0  0  0  0  0  0  0  0  0  0  0  0
   -1.8611   25.5563  -26.8228 H   0  0  0  0  0  0  0  0  0  0  0  0
   -0.1982   25.4507  -27.4939 H   0  0  0  0  0  0  0  0  0  0  0  0
   -1.0686   27.0220  -27.4939 H   0  0  0  0  0  0  0  0  0  0  0  0
   -0.3184   23.3861  -28.3693 H   0  0  0  0  0  0  0  0  0  0  0  0
    0.0810   21.0140  -28.3770 H   0  0  0  0  0  0  0  0  0  0  0  0
   -0.0895   18.8292  -29.0847 H   0  0  0  0  0  0  0  0  0  0  0  0
   -1.8350   19.1444  -29.4134 H   0  0  0  0  0  0  0  0  0  0  0  0
    1.1689   20.7840  -31.0100 H   0  0  0  0  0  0  0  0  0  0  0  0
    1.5630   20.6609  -33.4776 H   0  0  0  0  0  0  0  0  0  0  0  0
    0.0922   19.2227  -34.9011 H   0  0  0  0  0  0  0  0  0  0  0  0
   -2.3728   18.2286  -34.9186 H   0  0  0  0  0  0  0  0  0  0  0  0
   -1.4131   16.8052  -34.3678 H   0  0  0  0  0  0  0  0  0  0  0  0
   -2.9770   16.3950  -32.6140 H   0  0  0  0  0  0  0  0  0  0  0  0
   -5.0300   16.8227  -31.4056 H   0  0  0  0  0  0  0  0  0  0  0  0
   -7.2475   17.9448  -31.2696 H   0  0  0  0  0  0  0  0  0  0  0  0
   -8.9720   19.4770  -33.6100 H   0  0  0  0  0  0  0  0  0  0  0  0
  -10.2439   21.6687  -30.9927 H   0  0  0  0  0  0  0  0  0  0  0  0
   -9.7215   22.4048  -32.5458 H   0  0  0  0  0  0  0  0  0  0  0  0
  -10.6108   20.8441  -32.5458 H   0  0  0  0  0  0  0  0  0  0  0  0
   -6.3589   20.1399  -34.8924 H   0  0  0  0  0  0  0  0  0  0  0  0
   -4.1436   19.0157  -35.0321 H   0  0  0  0  0  0  0  0  0  0  0  0
   -2.8543   20.7800  -30.6990 H   0  0  0  0  0  0  0  0  0  0  0  0
   -4.5827   20.8742  -32.4903 H   0  0  0  0  0  0  0  0  0  0  0  0
   -5.4663   22.2175  -33.2913 H   0  0  0  0  0  0  0  0  0  0  0  0
   -3.6701   22.1979  -33.2913 H   0  0  0  0  0  0  0  0  0  0  0  0
   -5.5986   25.4726  -29.3202 H   0  0  0  0  0  0  0  0  0  0  0  0
   -5.6122   26.3758  -30.8729 H   0  0  0  0  0  0  0  0  0  0  0  0
   -5.7764   24.5870  -30.8729 H   0  0  0  0  0  0  0  0  0  0  0  0
  1  2  1  0
  2  3  1  0
  3  4  2  0
  4  5  1  0
  5  6  1  0
  6  7  1  0
  7  8  1  0
  8  9  2  0
  9 10  1  0
 10 11  2  0
 11 12  1  0
 12 13  1  0
 13 14  1  0
 14 15  1  0
 15 16  2  0
 16 17  1  0
 17 18  2  0
 18 19  1  0
 19 20  1  0
 20 21  1  0
 20 22  2  0
 18 23  1  0
 23 24  2  0
 12 25  2  0
  5 26  2  0
 26 27  1  0
 27 28  1  0
 28 29  1  0
 27 30  2  0
 30 31  1  0
 31 32  1  0
 30  3  1  0
 25  8  1  0
 24 15  1  0
  1 33  1  0
  1 34  1  0
  1 35  1  0
  4 36  1  0
  6 37  1  0
  7 38  1  0
  7 39  1  0
  9 40  1  0
 10 41  1  0
 11 42  1  0
 13 43  1  0
 13 44  1  0
 14 45  1  0
 16 46  1  0
 17 47  1  0
 19 48  1  0
 21 49  1  0
 21 50  1  0
 21 51  1  0
 23 52  1  0
 24 53  1  0
 26 54  1  0
 29 55  1  0
 29 56  1  0
 29 57  1  0
 32 58  1  0
 32 59  1  0
 32 60  1  0
M  END
>  <UniqueID>  (10) 
10

>  <SMILES>  (10) 
COc1cc(NCc2cccc(CNc3ccc(NC(C)=O)cc3)n2)cc(OC)c1OC

>  <Energy>  (10) 
62.40671923794003

>  <Genealogy>  (10) 
COc1cc(NCc2cccc(CNc3ccc(NC(C)=O)cc3)n2)cc(OC)c1OC (3D coordinates assigned)
COc1cc(NCc2cccc(CNc3ccc(NC(C)=O)cc3)n2)cc(OC)c1OC (optimized conformer: 62.40671923794003 kcal/mol)

>  <smiles>  (10) 
COc1cc(NCc2cccc(CNc3ccc(NC(C)=O)cc3)n2)cc(OC)c1OC

>  <score_type>  (10) 
oracle

>  <origin>  (10) 
adgpu

>  <m_score__min__energy>  (10) 
-8.5899999999999999

>  <m_primary>  (10) 
energy

$$$$
10:0
     RDKit          3D

 41 43  0  0  0  0  0  0  0  0999 V2000
   -7.2500   14.8010  -34.5320 O   0  0  0  0  0  0  0  0  0  0  0  0
   -6.3190   15.2630  -33.8400 N   0  0  0  0  0  0  0  0  0  0  0  0
   -5.3830   14.3960  -33.3230 O   0  0  0  0  0  0  0  0  0  0  0  0
   -6.2240   16.6760  -33.5870 C   0  0  0  0  0  0  0  0  0  0  0  0
   -5.8500   17.5620  -34.6080 C   0  0  0  0  0  0  0  0  0  0  0  0
   -5.7600   18.9310  -34.3550 C   0  0  0  0  0  0  0  0  0  0  0  0
   -6.0560   19.4200  -33.0730 C   0  0  0  0  0  0  0  0  0  0  0  0
   -5.9540   20.8240  -32.7680 N   0  0  0  0  0  0  0  0  0  0  0  0
   -4.7220   21.5760  -33.0400 C   0  0  0  0  0  0  0  0  0  0  0  0
   -4.3980   22.5480  -31.8860 C   0  0  0  0  0  0  0  0  0  0  0  0
   -5.5780   22.8830  -31.0530 N   0  0  0  0  0  0  0  0  0  0  0  0
   -5.3170   24.3960  -30.2210 S   0  0  0  0  0  0  0  0  0  0  0  0
   -4.9650   25.4740  -31.2090 O   0  0  0  0  0  0  0  0  0  0  0  0
   -6.5710   24.8020  -29.4970 O   0  0  0  0  0  0  0  0  0  0  0  0
   -4.0170   24.2130  -29.0450 C   0  0  0  0  0  0  0  0  0  0  0  0
   -4.2400   24.4850  -27.6870 C   0  0  0  0  0  0  0  0  0  0  0  0
   -3.1960   24.3590  -26.7650 C   0  0  0  0  0  0  0  0  0  0  0  0
   -1.9260   23.9650  -27.1960 C   0  0  0  0  0  0  0  0  0  0  0  0
   -1.6970   23.7000  -28.5500 C   0  0  0  0  0  0  0  0  0  0  0  0
   -2.7400   23.8270  -29.4730 C   0  0  0  0  0  0  0  0  0  0  0  0
   -6.8130   22.9560  -31.8540 C   0  0  0  0  0  0  0  0  0  0  0  0
   -7.1670   21.5650  -32.3990 C   0  0  0  0  0  0  0  0  0  0  0  0
   -6.4000   18.5410  -32.0910 N   0  0  0  0  0  0  0  0  0  0  0  0
   -6.4950   17.2040  -32.3140 C   0  0  0  0  0  0  0  0  0  0  0  0
   -5.6265   17.1755  -35.6133 H   0  0  0  0  0  0  0  0  0  0  0  0
   -5.4589   19.6230  -35.1553 H   0  0  0  0  0  0  0  0  0  0  0  0
   -3.8881   20.8685  -33.1586 H   0  0  0  0  0  0  0  0  0  0  0  0
   -4.8661   22.1616  -33.9599 H   0  0  0  0  0  0  0  0  0  0  0  0
   -3.6364   22.0840  -31.2421 H   0  0  0  0  0  0  0  0  0  0  0  0
   -4.0424   23.4851  -32.3392 H   0  0  0  0  0  0  0  0  0  0  0  0
   -5.6940   22.1460  -30.3170 H   0  0  0  0  0  0  0  0  0  0  0  0
   -5.2381   24.7980  -27.3466 H   0  0  0  0  0  0  0  0  0  0  0  0
   -3.3743   24.5700  -25.7003 H   0  0  0  0  0  0  0  0  0  0  0  0
   -1.1061   23.8633  -26.4697 H   0  0  0  0  0  0  0  0  0  0  0  0
   -0.6969   23.3918  -28.8888 H   0  0  0  0  0  0  0  0  0  0  0  0
   -2.5572   23.6232  -30.5384 H   0  0  0  0  0  0  0  0  0  0  0  0
   -7.6364   23.3202  -31.2220 H   0  0  0  0  0  0  0  0  0  0  0  0
   -6.6572   23.6456  -32.6967 H   0  0  0  0  0  0  0  0  0  0  0  0
   -7.7116   21.0029  -31.6260 H   0  0  0  0  0  0  0  0  0  0  0  0
   -7.7917   21.6869  -33.2962 H   0  0  0  0  0  0  0  0  0  0  0  0
   -6.7856   16.5317  -31.4933 H   0  0  0  0  0  0  0  0  0  0  0  0
  1  2  2  0
  2  3  1  0
  2  4  1  0
  4  5  2  0
  5  6  1  0
  6  7  2  0
  7  8  1  0
  8  9  1  0
  9 10  1  0
 10 11  1  0
 11 12  1  0
 12 13  2  0
 12 14  2  0
 12 15  1  0
 15 16  2  0
 16 17  1  0
 17 18  2  0
 18 19  1  0
 19 20  2  0
 11 21  1  0
 21 22  1  0
  7 23  1  0
 23 24  2  0
 24  4  1  0
 22  8  1  0
 20 15  1  0
  5 25  1  0
  6 26  1  0
  9 27  1  0
  9 28  1  0
 10 29  1  0
 10 30  1  0
 11 31  1  0
 16 32  1  0
 17 33  1  0
 18 34  1  0
 19 35  1  0
 20 36  1  0
 21 37  1  0
 21 38  1  0
 22 39  1  0
 22 40  1  0
 24 41  1  0
M  CHG  3   2   1   3  -1  11   1
M  END
>  <UniqueID>  (11) 
11

>  <SMILES>  (11) 
O=[N+]([O-])c1ccc(N2CC[NH+](S(=O)(=O)c3ccccc3)CC2)nc1

>  <Energy>  (11) 
51.447207691016764

>  <Genealogy>  (11) 
O=[N+]([O-])c1ccc(N2CC[NH+](S(=O)(=O)c3ccccc3)CC2)nc1 (protonated)
O=[N+]([O-])c1ccc(N2CC[NH+](S(=O)(=O)c3ccccc3)CC2)nc1 (3D coordinates assigned)
O=[N+]([O-])c1ccc(N2CC[NH+](S(=O)(=O)c3ccccc3)CC2)nc1 (nonaromatic ring conformer: 51.447207691016764 kcal/mol)

>  <smiles>  (11) 
O=[N+]([O-])c1ccc(N2CCN(S(=O)(=O)c3ccccc3)CC2)nc1

>  <score_type>  (11) 
oracle

>  <origin>  (11) 
adgpu

>  <m_score__min__energy>  (11) 
-7.3399999999999999

>  <m_primary>  (11) 
energy

$$$$
11:0
     RDKit          3D

 37 38  0  0  0  0  0  0  0  0999 V2000
   -1.0090   18.8130  -27.1350 C   0  0  0  0  0  0  0  0  0  0  0  0
   -1.5420   20.1920  -27.3870 C   0  0  0  0  0  0  0  0  0  0  0  0
   -0.6680   21.2860  -27.4550 C   0  0  0  0  0  0  0  0  0  0  0  0
   -1.1610   22.5670  -27.7240 C   0  0  0  0  0  0  0  0  0  0  0  0
   -2.5270   22.7670  -27.9580 C   0  0  0  0  0  0  0  0  0  0  0  0
   -2.9960   24.1000  -28.2100 N   0  0  0  0  0  0  0  0  0  0  0  0
   -2.6390   24.9240  -29.3240 C   0  0  0  0  0  0  0  0  0  0  0  0
   -1.5250   25.5070  -29.3170 O   0  0  0  0  0  0  0  0  0  0  0  0
   -3.4880   24.9920  -30.4780 N   0  0  0  0  0  0  0  0  0  0  0  0
   -4.5570   24.0940  -30.8080 C   0  0  0  0  0  0  0  0  0  0  0  0
   -4.3190   22.7980  -31.2920 C   0  0  0  0  0  0  0  0  0  0  0  0
   -5.3880   21.9620  -31.6260 C   0  0  0  0  0  0  0  0  0  0  0  0
   -6.7210   22.4050  -31.4990 C   0  0  0  0  0  0  0  0  0  0  0  0
   -7.8330   21.5360  -31.8450 N   0  0  0  0  0  0  0  0  0  0  0  0
   -7.6040   20.2830  -32.5740 C   0  0  0  0  0  0  0  0  0  0  0  0
   -9.2060   21.8960  -31.4680 C   0  0  0  0  0  0  0  0  0  0  0  0
   -6.9450   23.7180  -31.0360 C   0  0  0  0  0  0  0  0  0  0  0  0
   -5.8730   24.5510  -30.7040 C   0  0  0  0  0  0  0  0  0  0  0  0
   -3.4050   21.6720  -27.8800 C   0  0  0  0  0  0  0  0  0  0  0  0
   -2.9130   20.3910  -27.6110 C   0  0  0  0  0  0  0  0  0  0  0  0
   -0.9415   18.6384  -26.0510 H   0  0  0  0  0  0  0  0  0  0  0  0
   -1.6850   18.0708  -27.5846 H   0  0  0  0  0  0  0  0  0  0  0  0
   -0.0095   18.7184  -27.5846 H   0  0  0  0  0  0  0  0  0  0  0  0
    0.4101   21.1363  -27.2961 H   0  0  0  0  0  0  0  0  0  0  0  0
   -0.4709   23.4232  -27.7519 H   0  0  0  0  0  0  0  0  0  0  0  0
   -3.2860   22.4386  -31.4090 H   0  0  0  0  0  0  0  0  0  0  0  0
   -5.1870   20.9447  -31.9929 H   0  0  0  0  0  0  0  0  0  0  0  0
   -7.4542   19.4632  -31.8560 H   0  0  0  0  0  0  0  0  0  0  0  0
   -8.4766   20.0619  -33.2062 H   0  0  0  0  0  0  0  0  0  0  0  0
   -6.7096   20.3848  -33.2062 H   0  0  0  0  0  0  0  0  0  0  0  0
   -9.2913   21.9184  -30.3715 H   0  0  0  0  0  0  0  0  0  0  0  0
   -9.4498   22.8884  -31.8750 H   0  0  0  0  0  0  0  0  0  0  0  0
   -9.9053   21.1509  -31.8750 H   0  0  0  0  0  0  0  0  0  0  0  0
   -7.9750   24.0908  -30.9350 H   0  0  0  0  0  0  0  0  0  0  0  0
   -6.0674   25.5767  -30.3574 H   0  0  0  0  0  0  0  0  0  0  0  0
   -4.4840   21.8235  -28.0313 H   0  0  0  0  0  0  0  0  0  0  0  0
   -3.6036   19.5356  -27.5748 H   0  0  0  0  0  0  0  0  0  0  0  0
  1  2  1  0
  2  3  2  0
  3  4  1  0
  4  5  2  0
  5  6  1  0
  6  7  1  0
  7  8  2  0
  7  9  1  0
  9 10  1  0
 10 11  2  0
 11 12  1  0
 12 13  2  0
 13 14  1  0
 14 15  1  0
 14 16  1  0
 13 17  1  0
 17 18  2  0
  5 19  1  0
 19 20  2  0
 20  2  1  0
 18 10  1  0
  1 21  1  0
  1 22  1  0
  1 23  1  0
  3 24  1  0
  4 25  1  0
 11 26  1  0
 12 27  1  0
 15 28  1  0
 15 29  1  0
 15 30  1  0
 16 31  1  0
 16 32  1  0
 16 33  1  0
 17 34  1  0
 18 35  1  0
 19 36  1  0
 20 37  1  0
M  CHG  2   6  -1   9  -1
M  END
>  <UniqueID>  (12) 
12

>  <SMILES>  (12) 
Cc1ccc([N-]C(=O)[N-]c2ccc(N(C)C)cc2)cc1

>  <Energy>  (12) 
44.429123681028805

>  <Genealogy>  (12) 
Cc1ccc([N-]C(=O)[N-]c2ccc(N(C)C)cc2)cc1 (protonated)
Cc1ccc([N-]C(=O)[N-]c2ccc(N(C)C)cc2)cc1 (3D coordinates assigned)
Cc1ccc([N-]C(=O)[N-]c2ccc(N(C)C)cc2)cc1 (optimized conformer: 44.429123681028805 kcal/mol)

>  <smiles>  (12) 
Cc1ccc(NC(=O)Nc2ccc(N(C)C)cc2)cc1

>  <score_type>  (12) 
oracle

>  <origin>  (12) 
adgpu

>  <m_score__min__energy>  (12) 
-10.41

>  <m_primary>  (12) 
energy

$$$$
12:0
     RDKit          3D

 49 52  0  0  0  0  0  0  0  0999 V2000
   -3.8670   20.1170  -30.3820 H   0  0  0  0  0  0  0  0  0  0  0  0
   -3.8120   20.9160  -29.7630 O   0  0  0  0  0  0  0  0  0  0  0  0
   -4.2090   22.1900  -30.1660 C   0  0  0  0  0  0  0  0  0  0  0  0
   -5.3510   22.4760  -30.8960 C   0  0  0  0  0  0  0  0  0  0  0  0
   -6.3040   21.5440  -31.4260 N   0  0  0  0  0  0  0  0  0  0  0  0
   -7.3170   21.7490  -31.2770 H   0  0  0  0  0  0  0  0  0  0  0  0
   -5.9490   20.3480  -32.1370 C   0  0  0  0  0  0  0  0  0  0  0  0
   -6.7350   19.1870  -32.0450 C   0  0  0  0  0  0  0  0  0  0  0  0
   -7.6265   19.1791  -31.4007 H   0  0  0  0  0  0  0  0  0  0  0  0
   -6.3890   18.0410  -32.7690 C   0  0  0  0  0  0  0  0  0  0  0  0
   -7.0035   17.1327  -32.6837 H   0  0  0  0  0  0  0  0  0  0  0  0
   -5.2630   18.0460  -33.6020 C   0  0  0  0  0  0  0  0  0  0  0  0
   -4.8370   16.6110  -34.5280 S   0  0  0  0  0  0  0  0  0  0  0  0
   -5.9970   15.6550  -34.5240 O   0  0  0  0  0  0  0  0  0  0  0  0
   -4.5210   17.0060  -35.9440 O   0  0  0  0  0  0  0  0  0  0  0  0
   -3.4480   15.8690  -33.7950 N   0  0  0  0  0  0  0  0  0  0  0  0
   -3.4580   14.9070  -32.9170 C   0  0  0  0  0  0  0  0  0  0  0  0
   -2.2650   14.4470  -32.4490 N   0  0  0  0  0  0  0  0  0  0  0  0
   -2.1810   13.4460  -31.5310 C   0  0  0  0  0  0  0  0  0  0  0  0
   -1.1967   13.1046  -31.1779 H   0  0  0  0  0  0  0  0  0  0  0  0
   -3.3430   12.8530  -31.0380 C   0  0  0  0  0  0  0  0  0  0  0  0
   -3.2823   12.0424  -30.2969 H   0  0  0  0  0  0  0  0  0  0  0  0
   -4.5830   13.2990  -31.4950 C   0  0  0  0  0  0  0  0  0  0  0  0
   -5.5072   12.8404  -31.1136 H   0  0  0  0  0  0  0  0  0  0  0  0
   -4.6510   14.3280  -32.4370 C   0  0  0  0  0  0  0  0  0  0  0  0
   -5.6262   14.6835  -32.8012 H   0  0  0  0  0  0  0  0  0  0  0  0
   -4.4970   19.2140  -33.7210 C   0  0  0  0  0  0  0  0  0  0  0  0
   -3.6203   19.2291  -34.3852 H   0  0  0  0  0  0  0  0  0  0  0  0
   -4.8430   20.3590  -32.9990 C   0  0  0  0  0  0  0  0  0  0  0  0
   -4.2439   21.2751  -33.1075 H   0  0  0  0  0  0  0  0  0  0  0  0
   -5.3670   23.8400  -31.1140 C   0  0  0  0  0  0  0  0  0  0  0  0
   -6.1171   24.4168  -31.6750 H   0  0  0  0  0  0  0  0  0  0  0  0
   -4.2410   24.3260  -30.4780 C   0  0  0  0  0  0  0  0  0  0  0  0
   -3.8640   25.6630  -30.4550 O   0  0  0  0  0  0  0  0  0  0  0  0
   -3.5330   23.3300  -29.9020 N   0  0  0  0  0  0  0  0  0  0  0  0
   -2.2830   23.4710  -29.2060 C   0  0  0  0  0  0  0  0  0  0  0  0
   -1.3110   22.4620  -29.2780 C   0  0  0  0  0  0  0  0  0  0  0  0
   -1.5107   21.5508  -29.8610 H   0  0  0  0  0  0  0  0  0  0  0  0
   -0.0900   22.6080  -28.6130 C   0  0  0  0  0  0  0  0  0  0  0  0
    0.6602   21.8050  -28.6619 H   0  0  0  0  0  0  0  0  0  0  0  0
    0.1820   23.7760  -27.8830 C   0  0  0  0  0  0  0  0  0  0  0  0
    1.4760   23.9150  -27.1380 C   0  0  0  0  0  0  0  0  0  0  0  0
    1.2801   23.8940  -26.0558 H   0  0  0  0  0  0  0  0  0  0  0  0
    2.1445   23.0835  -27.4059 H   0  0  0  0  0  0  0  0  0  0  0  0
    1.9526   24.8695  -27.4059 H   0  0  0  0  0  0  0  0  0  0  0  0
   -0.7920   24.7820  -27.8050 C   0  0  0  0  0  0  0  0  0  0  0  0
   -0.5947   25.6907  -27.2174 H   0  0  0  0  0  0  0  0  0  0  0  0
   -2.0130   24.6350  -28.4710 C   0  0  0  0  0  0  0  0  0  0  0  0
   -2.7652   25.4359  -28.4182 H   0  0  0  0  0  0  0  0  0  0  0  0
  1  2  1  0
  2  3  1  0
  3  4  2  0
  4  5  1  0
  5  6  1  0
  5  7  1  0
  7  8  2  0
  8  9  1  0
  8 10  1  0
 10 11  1  0
 10 12  2  0
 12 13  1  0
 13 14  2  0
 13 15  2  0
 13 16  1  0
 16 17  2  0
 17 18  1  0
 18 19  1  0
 19 20  1  0
 19 21  2  0
 21 22  1  0
 21 23  1  0
 23 24  1  0
 23 25  2  0
 25 26  1  0
 12 27  1  0
 27 28  1  0
 27 29  2  0
 29 30  1  0
  4 31  1  0
 31 32  1  0
 31 33  2  0
 33 34  1  0
 33 35  1  0
 35 36  1  0
 36 37  2  0
 37 38  1  0
 37 39  1  0
 39 40  1  0
 39 41  2  0
 41 42  1  0
 42 43  1  0
 42 44  1  0
 42 45  1  0
 41 46  1  0
 46 47  1  0
 46 48  2  0
 48 49  1  0
 35  3  1  0
 48 36  1  0
 29  7  1  0
 25 17  1  0
M  CHG  2  18  -1  34  -1
M  END
>  <UniqueID>  (13) 
13

>  <SMILES>  (13) 
Cc1ccc(-n2c([O-])cc(Nc3ccc(S(=O)(=O)/N=c4\cccc[n-]4)cc3)c2O)cc1

>  <Energy>  (13) 
99.77371811629645

>  <Genealogy>  (13) 
Cc1ccc(-n2c([O-])cc(Nc3ccc(S(=O)(=O)N=c4cccc[n-]4)cc3)c2O)cc1 (protonated)
Cc1ccc(-n2c([O-])cc(Nc3ccc(S(=O)(=O)/N=c4\cccc[n-]4)cc3)c2O)cc1 (cis-trans isomerization)
Cc1ccc(-n2c([O-])cc(Nc3ccc(S(=O)(=O)/N=c4\cccc[n-]4)cc3)c2O)cc1 (3D coordinates assigned)
Cc1ccc(-n2c([O-])cc(Nc3ccc(S(=O)(=O)/N=c4\cccc[n-]4)cc3)c2O)cc1 (optimized conformer: 99.77371811629645 kcal/mol)

>  <smiles>  (13) 
Cc1ccc(-n2c(O)cc(Nc3ccc(S(=O)(=O)N=c4cccc[nH]4)cc3)c2O)cc1

>  <score_type>  (13) 
oracle

>  <origin>  (13) 
adgpu

>  <m_score__min__energy>  (13) 
-10.82

>  <m_primary>  (13) 
energy

$$$$
13:0
     RDKit          3D

 37 38  0  0  0  0  0  0  0  0999 V2000
   -6.4590   16.9040  -34.2190 C   0  0  0  0  0  0  0  0  0  0  0  0
   -5.9850   18.1080  -33.4720 C   0  0  0  0  0  0  0  0  0  0  0  0
   -5.1250   17.9690  -32.5600 O   0  0  0  0  0  0  0  0  0  0  0  0
   -6.4360   19.4140  -33.8620 N   0  0  0  0  0  0  0  0  0  0  0  0
   -6.1880   20.6120  -33.1070 C   0  0  0  0  0  0  0  0  0  0  0  0
   -7.2430   21.2150  -32.4070 C   0  0  0  0  0  0  0  0  0  0  0  0
   -7.0250   22.3700  -31.6490 C   0  0  0  0  0  0  0  0  0  0  0  0
   -5.7420   22.9290  -31.5710 C   0  0  0  0  0  0  0  0  0  0  0  0
   -5.4600   24.3820  -30.6180 S   0  0  0  0  0  0  0  0  0  0  0  0
   -4.2380   25.1060  -31.1110 O   0  0  0  0  0  0  0  0  0  0  0  0
   -6.6520   25.2870  -30.7390 O   0  0  0  0  0  0  0  0  0  0  0  0
   -5.2280   23.9610  -28.9540 N   0  0  0  0  0  0  0  0  0  0  0  0
   -3.9390   23.9560  -28.3380 C   0  0  0  0  0  0  0  0  0  0  0  0
   -3.6920   23.1530  -27.3970 O   0  0  0  0  0  0  0  0  0  0  0  0
   -2.9510   24.9020  -28.7690 N   0  0  0  0  0  0  0  0  0  0  0  0
   -1.5760   24.8850  -28.3490 C   0  0  0  0  0  0  0  0  0  0  0  0
   -0.7920   23.7490  -28.6070 C   0  0  0  0  0  0  0  0  0  0  0  0
    0.5420   23.6990  -28.1900 C   0  0  0  0  0  0  0  0  0  0  0  0
    1.1000   24.7790  -27.4990 C   0  0  0  0  0  0  0  0  0  0  0  0
    0.3220   25.9050  -27.2170 C   0  0  0  0  0  0  0  0  0  0  0  0
   -1.0130   25.9580  -27.6330 C   0  0  0  0  0  0  0  0  0  0  0  0
   -4.6780   22.3140  -32.2430 C   0  0  0  0  0  0  0  0  0  0  0  0
   -4.8960   21.1610  -33.0020 C   0  0  0  0  0  0  0  0  0  0  0  0
   -6.7653   16.1261  -33.5042 H   0  0  0  0  0  0  0  0  0  0  0  0
   -7.3161   17.1788  -34.8514 H   0  0  0  0  0  0  0  0  0  0  0  0
   -5.6446   16.5207  -34.8514 H   0  0  0  0  0  0  0  0  0  0  0  0
   -6.9030   19.5070  -34.7930 H   0  0  0  0  0  0  0  0  0  0  0  0
   -8.2504   20.7759  -32.4545 H   0  0  0  0  0  0  0  0  0  0  0  0
   -7.8622   22.8407  -31.1129 H   0  0  0  0  0  0  0  0  0  0  0  0
   -3.2790   25.7040  -29.3540 H   0  0  0  0  0  0  0  0  0  0  0  0
   -1.2300   22.8927  -29.1407 H   0  0  0  0  0  0  0  0  0  0  0  0
    1.1525   22.8097  -28.4057 H   0  0  0  0  0  0  0  0  0  0  0  0
    2.1513   24.7422  -27.1774 H   0  0  0  0  0  0  0  0  0  0  0  0
    0.7598   26.7511  -26.6671 H   0  0  0  0  0  0  0  0  0  0  0  0
   -1.6249   26.8418  -27.3995 H   0  0  0  0  0  0  0  0  0  0  0  0
   -3.6664   22.7404  -32.1730 H   0  0  0  0  0  0  0  0  0  0  0  0
   -4.0534   20.6798  -33.5202 H   0  0  0  0  0  0  0  0  0  0  0  0
  1  2  1  0
  2  3  2  0
  2  4  1  0
  4  5  1  0
  5  6  2  0
  6  7  1  0
  7  8  2  0
  8  9  1  0
  9 10  2  0
  9 11  2  0
  9 12  1  0
 12 13  1  0
 13 14  2  0
 13 15  1  0
 15 16  1  0
 16 17  2  0
 17 18  1  0
 18 19  2  0
 19 20  1  0
 20 21  2  0
  8 22  1  0
 22 23  2  0
 23  5  1  0
 21 16  1  0
  1 24  1  0
  1 25  1  0
  1 26  1  0
  4 27  1  0
  6 28  1  0
  7 29  1  0
 15 30  1  0
 17 31  1  0
 18 32  1  0
 19 33  1  0
 20 34  1  0
 21 35  1  0
 22 36  1  0
 23 37  1  0
M  CHG  1  12  -1
M  END
>  <UniqueID>  (14) 
14

>  <SMILES>  (14) 
CC(=O)Nc1ccc(S(=O)(=O)[N-]C(=O)Nc2ccccc2)cc1

>  <Energy>  (14) 
43.91266633442832

>  <Genealogy>  (14) 
CC(=O)Nc1ccc(S(=O)(=O)[N-]C(=O)Nc2ccccc2)cc1 (protonated)
CC(=O)Nc1ccc(S(=O)(=O)[N-]C(=O)Nc2ccccc2)cc1 (3D coordinates assigned)
CC(=O)Nc1ccc(S(=O)(=O)[N-]C(=O)Nc2ccccc2)cc1 (optimized conformer: 43.91266633442832 kcal/mol)

>  <smiles>  (14) 
CC(=O)Nc1ccc(S(=O)(=O)NC(=O)Nc2ccccc2)cc1

>  <score_type>  (14) 
oracle

>  <origin>  (14) 
adgpu

>  <m_score__min__energy>  (14) 
-9.5299999999999994

>  <m_primary>  (14) 
energy

$$$$
14:0
     RDKit          3D

 38 39  0  0  0  0  0  0  0  0999 V2000
   -0.6450   26.4400  -26.6800 C   0  0  0  0  0  0  0  0  0  0  0  0
   -0.7290   25.3910  -27.7410 C   0  0  0  0  0  0  0  0  0  0  0  0
    0.3330   24.8940  -28.2050 O   0  0  0  0  0  0  0  0  0  0  0  0
   -2.0050   25.0170  -28.2780 N   0  0  0  0  0  0  0  0  0  0  0  0
   -2.1750   23.9560  -29.2310 C   0  0  0  0  0  0  0  0  0  0  0  0
   -1.3680   22.8160  -29.1290 C   0  0  0  0  0  0  0  0  0  0  0  0
   -1.5040   21.7640  -30.0360 C   0  0  0  0  0  0  0  0  0  0  0  0
   -2.4350   21.8460  -31.0840 C   0  0  0  0  0  0  0  0  0  0  0  0
   -2.5710   20.7430  -32.0590 C   0  0  0  0  0  0  0  0  0  0  0  0
   -3.4920   19.8900  -31.9390 O   0  0  0  0  0  0  0  0  0  0  0  0
   -1.6880   20.6320  -33.1270 O   0  0  0  0  0  0  0  0  0  0  0  0
   -3.2230   23.0010  -31.2060 C   0  0  0  0  0  0  0  0  0  0  0  0
   -3.1130   24.0510  -30.2790 C   0  0  0  0  0  0  0  0  0  0  0  0
   -3.8530   25.2670  -30.4660 N   0  0  0  0  0  0  0  0  0  0  0  0
   -5.2780   25.4150  -30.3980 C   0  0  0  0  0  0  0  0  0  0  0  0
   -5.7530   26.5380  -30.0860 O   0  0  0  0  0  0  0  0  0  0  0  0
   -6.2120   24.2510  -30.5790 C   0  0  0  0  0  0  0  0  0  0  0  0
   -6.4030   23.8150  -32.3450 S   0  0  0  0  0  0  0  0  0  0  0  0
   -7.1820   22.2250  -32.0540 C   0  0  0  0  0  0  0  0  0  0  0  0
   -8.4670   22.1640  -31.4980 C   0  0  0  0  0  0  0  0  0  0  0  0
   -9.0690   20.9250  -31.2600 C   0  0  0  0  0  0  0  0  0  0  0  0
   -8.3850   19.7440  -31.5660 C   0  0  0  0  0  0  0  0  0  0  0  0
   -7.0980   19.8010  -32.1080 C   0  0  0  0  0  0  0  0  0  0  0  0
   -6.4940   21.0400  -32.3480 C   0  0  0  0  0  0  0  0  0  0  0  0
   -0.6832   25.9634  -25.6893 H   0  0  0  0  0  0  0  0  0  0  0  0
    0.3003   26.9927  -26.7848 H   0  0  0  0  0  0  0  0  0  0  0  0
   -1.4903   27.1361  -26.7848 H   0  0  0  0  0  0  0  0  0  0  0  0
   -2.8200   25.6450  -28.0900 H   0  0  0  0  0  0  0  0  0  0  0  0
   -0.6193   22.7490  -28.3259 H   0  0  0  0  0  0  0  0  0  0  0  0
   -0.8784   20.8656  -29.9293 H   0  0  0  0  0  0  0  0  0  0  0  0
   -3.9366   23.0853  -32.0389 H   0  0  0  0  0  0  0  0  0  0  0  0
   -5.8097   23.3821  -30.0376 H   0  0  0  0  0  0  0  0  0  0  0  0
   -7.1987   24.5350  -30.1844 H   0  0  0  0  0  0  0  0  0  0  0  0
   -9.0024   23.0920  -31.2486 H   0  0  0  0  0  0  0  0  0  0  0  0
  -10.0812   20.8788  -30.8318 H   0  0  0  0  0  0  0  0  0  0  0  0
   -8.8603   18.7696  -31.3799 H   0  0  0  0  0  0  0  0  0  0  0  0
   -6.5599   18.8716  -32.3459 H   0  0  0  0  0  0  0  0  0  0  0  0
   -5.4782   21.0840  -32.7678 H   0  0  0  0  0  0  0  0  0  0  0  0
  1  2  1  0
  2  3  2  0
  2  4  1  0
  4  5  1  0
  5  6  2  0
  6  7  1  0
  7  8  2  0
  8  9  1  0
  9 10  2  0
  9 11  1  0
  8 12  1  0
 12 13  2  0
 13 14  1  0
 14 15  1  0
 15 16  2  0
 15 17  1  0
 17 18  1  0
 18 19  1  0
 19 20  2  0
 20 21  1  0
 21 22  2  0
 22 23  1  0
 23 24  2  0
 13  5  1  0
 24 19  1  0
  1 25  1  0
  1 26  1  0
  1 27  1  0
  4 28  1  0
  6 29  1  0
  7 30  1  0
 12 31  1  0
 17 32  1  0
 17 33  1  0
 20 34  1  0
 21 35  1  0
 22 36  1  0
 23 37  1  0
 24 38  1  0
M  CHG  2  11  -1  14  -1
M  END
>  <UniqueID>  (15) 
15

>  <SMILES>  (15) 
CC(=O)Nc1ccc(C(=O)[O-])cc1[N-]C(=O)CSc1ccccc1

>  <Energy>  (15) 
43.36740480609715

>  <Genealogy>  (15) 
CC(=O)Nc1ccc(C(=O)[O-])cc1[N-]C(=O)CSc1ccccc1 (protonated)
CC(=O)Nc1ccc(C(=O)[O-])cc1[N-]C(=O)CSc1ccccc1 (3D coordinates assigned)
CC(=O)Nc1ccc(C(=O)[O-])cc1[N-]C(=O)CSc1ccccc1 (optimized conformer: 43.36740480609715 kcal/mol)

>  <smiles>  (15) 
CC(=O)Nc1ccc(C(=O)O)cc1NC(=O)CSc1ccccc1

>  <score_type>  (15) 
oracle

>  <origin>  (15) 
adgpu

>  <m_score__min__energy>  (15) 
-10.26

>  <m_primary>  (15) 
energy

$$$$
15:0
     RDKit          3D

 68 71  0  0  0  0  0  0  0  0999 V2000
   -3.0790   15.8290  -35.8400 H   0  0  0  0  0  0  0  0  0  0  0  0
   -3.0460   14.8390  -35.7960 O   0  0  0  0  0  0  0  0  0  0  0  0
   -1.9550   14.4640  -34.9830 C   0  0  0  0  0  0  0  0  0  0  0  0
   -0.6740   14.9710  -35.6710 C   0  0  0  0  0  0  0  0  0  0  0  0
    0.0618   15.2622  -34.9070 H   0  0  0  0  0  0  0  0  0  0  0  0
   -0.2539   14.1713  -36.2987 H   0  0  0  0  0  0  0  0  0  0  0  0
   -0.9149   15.8416  -36.2987 H   0  0  0  0  0  0  0  0  0  0  0  0
   -1.8570   12.9170  -34.8910 C   0  0  0  0  0  0  0  0  0  0  0  0
   -1.8377   12.6130  -33.8340 H   0  0  0  0  0  0  0  0  0  0  0  0
   -2.7283   12.4643  -35.3869 H   0  0  0  0  0  0  0  0  0  0  0  0
   -0.9356   12.5778  -35.3869 H   0  0  0  0  0  0  0  0  0  0  0  0
   -2.0670   15.1270  -33.5720 C   0  0  1  0  0  0  0  0  0  0  0  0
   -3.1196   14.9835  -33.2865 H   0  0  0  0  0  0  0  0  0  0  0  0
   -1.1780   14.5190  -32.7020 F   0  0  0  0  0  0  0  0  0  0  0  0
   -1.8000   16.6430  -33.5200 C   0  0  0  0  0  0  0  0  0  0  0  0
   -0.7145   16.8162  -33.4801 H   0  0  0  0  0  0  0  0  0  0  0  0
   -2.2883   17.0551  -32.6246 H   0  0  0  0  0  0  0  0  0  0  0  0
   -2.3460   17.3080  -34.6950 N   0  0  0  0  0  0  0  0  0  0  0  0
   -3.7160   17.7090  -34.8000 C   0  0  0  0  0  0  0  0  0  0  0  0
   -4.4710   17.1680  -35.6520 O   0  0  0  0  0  0  0  0  0  0  0  0
   -4.2210   18.7970  -33.9370 C   0  0  0  0  0  0  0  0  0  0  0  0
   -3.4060   19.9340  -33.8100 C   0  0  0  0  0  0  0  0  0  0  0  0
   -2.3758   19.9111  -34.1949 H   0  0  0  0  0  0  0  0  0  0  0  0
   -3.8760   21.0590  -33.2180 N   0  0  0  0  0  0  0  0  0  0  0  0
   -5.1330   21.1390  -32.7130 C   0  0  0  0  0  0  0  0  0  0  0  0
   -5.5840   22.3710  -32.1290 N   0  0  0  0  0  0  0  0  0  0  0  0
   -6.8130   22.9150  -32.3070 C   0  0  0  0  0  0  0  0  0  0  0  0
   -7.6069   22.4758  -32.9290 H   0  0  0  0  0  0  0  0  0  0  0  0
   -6.9330   24.1040  -31.5960 C   0  0  0  0  0  0  0  0  0  0  0  0
   -7.8126   24.7617  -31.5360 H   0  0  0  0  0  0  0  0  0  0  0  0
   -5.7120   24.2800  -30.9830 C   0  0  0  0  0  0  0  0  0  0  0  0
   -5.2420   25.3100  -30.1790 C   0  0  0  0  0  0  0  0  0  0  0  0
   -5.8937   26.1503  -29.8974 H   0  0  0  0  0  0  0  0  0  0  0  0
   -3.9480   25.2500  -29.7480 N   0  0  0  0  0  0  0  0  0  0  0  0
   -3.1080   24.2170  -30.0900 C   0  0  0  0  0  0  0  0  0  0  0  0
   -1.8800   24.1910  -29.6660 N   0  0  0  0  0  0  0  0  0  0  0  0
   -1.2900   25.2200  -28.8140 C   0  0  0  0  0  0  0  0  0  0  0  0
   -1.5744   26.2136  -29.1906 H   0  0  0  0  0  0  0  0  0  0  0  0
   -0.1947   25.1192  -28.8269 H   0  0  0  0  0  0  0  0  0  0  0  0
   -1.7930   25.0570  -27.3900 C   0  0  0  0  0  0  0  0  0  0  0  0
   -0.9895   25.3174  -26.6853 H   0  0  0  0  0  0  0  0  0  0  0  0
   -2.6537   25.7222  -27.2268 H   0  0  0  0  0  0  0  0  0  0  0  0
   -2.1000   24.0134  -27.2268 H   0  0  0  0  0  0  0  0  0  0  0  0
   -3.5770   23.1710  -30.9080 C   0  0  0  0  0  0  0  0  0  0  0  0
   -2.9187   22.3423  -31.2078 H   0  0  0  0  0  0  0  0  0  0  0  0
   -4.9110   23.2250  -31.3250 C   0  0  0  0  0  0  0  0  0  0  0  0
   -5.9860   20.0340  -32.8120 C   0  0  0  0  0  0  0  0  0  0  0  0
   -7.0241   20.1120  -32.4566 H   0  0  0  0  0  0  0  0  0  0  0  0
   -5.5270   18.8280  -33.3610 C   0  0  0  0  0  0  0  0  0  0  0  0
   -6.3350   17.8030  -33.2810 N   0  0  0  0  0  0  0  0  0  0  0  0
   -6.0770   16.4100  -33.4940 C   0  0  0  0  0  0  0  0  0  0  0  0
   -6.8620   15.5560  -34.2370 C   0  0  0  0  0  0  0  0  0  0  0  0
   -7.6940   15.8565  -34.8909 H   0  0  0  0  0  0  0  0  0  0  0  0
   -6.4430   14.2920  -34.0310 N   0  0  0  0  0  0  0  0  0  0  0  0
   -5.4370   14.3350  -33.1710 N   0  0  0  0  0  0  0  0  0  0  0  0
   -4.7840   13.1460  -32.6290 C   0  0  0  0  0  0  0  0  0  0  0  0
   -5.4181   12.2669  -32.8163 H   0  0  0  0  0  0  0  0  0  0  0  0
   -3.8080   13.0193  -33.1204 H   0  0  0  0  0  0  0  0  0  0  0  0
   -4.5660   13.2980  -31.1260 C   0  0  0  0  0  0  0  0  0  0  0  0
   -4.9525   14.2738  -30.7968 H   0  0  0  0  0  0  0  0  0  0  0  0
   -5.0978   12.4938  -30.5964 H   0  0  0  0  0  0  0  0  0  0  0  0
   -3.1800   13.2170  -30.8360 O   0  0  0  0  0  0  0  0  0  0  0  0
   -2.5730   12.2050  -31.6060 C   0  0  0  0  0  0  0  0  0  0  0  0
   -2.1235   11.4557  -30.9378 H   0  0  0  0  0  0  0  0  0  0  0  0
   -3.3310   11.7227  -32.2406 H   0  0  0  0  0  0  0  0  0  0  0  0
   -1.7906   12.6466  -32.2406 H   0  0  0  0  0  0  0  0  0  0  0  0
   -5.2080   15.6060  -32.7890 C   0  0  0  0  0  0  0  0  0  0  0  0
   -4.4645   15.9405  -32.0505 H   0  0  0  0  0  0  0  0  0  0  0  0
  1  2  1  0
  2  3  1  0
  3  4  1  0
  4  5  1  0
  4  6  1  0
  4  7  1  0
  3  8  1  0
  8  9  1  0
  8 10  1  0
  8 11  1  0
  3 12  1  0
 12 13  1  1
 12 14  1  0
 12 15  1  0
 15 16  1  0
 15 17  1  0
 15 18  1  0
 18 19  1  0
 19 20  2  0
 19 21  1  0
 21 22  2  0
 22 23  1  0
 22 24  1  0
 24 25  1  0
 25 26  1  0
 26 27  1  0
 27 28  1  0
 27 29  2  0
 29 30  1  0
 29 31  1  0
 31 32  2  0
 32 33  1  0
 32 34  1  0
 34 35  1  0
 35 36  2  0
 36 37  1  0
 37 38  1  0
 37 39  1  0
 37 40  1  0
 40 41  1  0
 40 42  1  0
 40 43  1  0
 35 44  1  0
 44 45  1  0
 44 46  2  0
 25 47  2  0
 47 48  1  0
 47 49  1  0
 49 50  2  0
 50 51  1  0
 51 52  1  0
 52 53  1  0
 52 54  2  0
 54 55  1  0
 55 56  1  0
 56 57  1  0
 56 58  1  0
 56 59  1  0
 59 60  1  0
 59 61  1  0
 59 62  1  0
 62 63  1  0
 63 64  1  0
 63 65  1  0
 63 66  1  0
 55 67  1  0
 67 68  1  0
 49 21  1  0
 67 51  2  0
 46 26  1  0
 46 31  1  0
M  CHG  3  18  -1  24  -1  34  -1
M  END
>  <UniqueID>  (16) 
16

>  <SMILES>  (16) 
CC/N=c1/cc2c(ccn2-c2c/c(=N/c3cnn(CCOC)c3)c(C(=O)[N-]C[C@H](F)C(C)(C)O)c[n-]2)c[n-]1

>  <Energy>  (16) 
153.24504114339967

>  <Genealogy>  (16) 
CCN=c1cc2c(ccn2-c2cc(=Nc3cnn(CCOC)c3)c(C(=O)[N-]CC(F)C(C)(C)O)c[n-]2)c[n-]1 (protonated)
CCN=c1cc2c(ccn2-c2cc(=Nc3cnn(CCOC)c3)c(C(=O)[N-]C[C@H](F)C(C)(C)O)c[n-]2)c[n-]1 (chirality)
CC/N=c1/cc2c(ccn2-c2c/c(=N/c3cnn(CCOC)c3)c(C(=O)[N-]C[C@H](F)C(C)(C)O)c[n-]2)c[n-]1 (cis-trans isomerization)
CC/N=c1/cc2c(ccn2-c2c/c(=N/c3cnn(CCOC)c3)c(C(=O)[N-]C[C@H](F)C(C)(C)O)c[n-]2)c[n-]1 (3D coordinates assigned)
CC/N=c1/cc2c(ccn2-c2c/c(=N/c3cnn(CCOC)c3)c(C(=O)[N-]C[C@H](F)C(C)(C)O)c[n-]2)c[n-]1 (optimized conformer: 153.24504114339967 kcal/mol)

>  <smiles>  (16) 
CCN=c1cc2c(ccn2-c2cc(=Nc3cnn(CCOC)c3)c(C(=O)NCC(F)C(C)(C)O)c[nH]2)c[nH]1

>  <score_type>  (16) 
oracle

>  <origin>  (16) 
adgpu

>  <m_score__min__energy>  (16) 
-10.26

>  <m_primary>  (16) 
energy

$$$$
16:0
     RDKit          3D

 52 55  0  0  0  0  0  0  0  0999 V2000
   -2.7080   22.4820  -29.0760 C   0  0  0  0  0  0  0  0  0  0  0  0
   -3.8150   23.2120  -29.7820 C   0  0  0  0  0  0  0  0  0  0  0  0
   -4.9540   22.5140  -30.2160 C   0  0  0  0  0  0  0  0  0  0  0  0
   -5.9810   23.1780  -30.9110 C   0  0  0  0  0  0  0  0  0  0  0  0
   -7.1820   22.4350  -31.3740 C   0  0  0  0  0  0  0  0  0  0  0  0
   -8.4630   23.0000  -31.2460 C   0  0  0  0  0  0  0  0  0  0  0  0
   -9.5890   22.3020  -31.6860 C   0  0  0  0  0  0  0  0  0  0  0  0
   -9.4540   21.0370  -32.2600 C   0  0  0  0  0  0  0  0  0  0  0  0
   -8.1820   20.4490  -32.3940 C   0  0  0  0  0  0  0  0  0  0  0  0
   -8.0050   19.1480  -32.9840 N   0  0  0  0  0  0  0  0  0  0  0  0
   -6.8550   17.9770  -32.4160 S   0  0  0  0  0  0  0  0  0  0  0  0
   -7.0470   16.6890  -33.1660 O   0  0  0  0  0  0  0  0  0  0  0  0
   -7.0870   17.7280  -30.9510 O   0  0  0  0  0  0  0  0  0  0  0  0
   -5.2200   18.5600  -32.7040 C   0  0  0  0  0  0  0  0  0  0  0  0
   -4.5600   18.2150  -33.8900 C   0  0  0  0  0  0  0  0  0  0  0  0
   -3.2660   18.6840  -34.1380 C   0  0  0  0  0  0  0  0  0  0  0  0
   -2.6160   19.5040  -33.2010 C   0  0  0  0  0  0  0  0  0  0  0  0
   -1.2470   19.9980  -33.4600 C   0  0  0  0  0  0  0  0  0  0  0  0
   -0.3310   19.5380  -34.3940 C   0  0  0  0  0  0  0  0  0  0  0  0
   -0.5140   18.4160  -35.3640 C   0  0  0  0  0  0  0  0  0  0  0  0
    0.8020   20.2620  -34.3020 N   0  0  0  0  0  0  0  0  0  0  0  0
    0.6180   21.1460  -33.3640 O   0  0  0  0  0  0  0  0  0  0  0  0
   -0.5760   21.0330  -32.8280 C   0  0  0  0  0  0  0  0  0  0  0  0
   -1.0780   21.9070  -31.7250 C   0  0  0  0  0  0  0  0  0  0  0  0
   -3.2820   19.8460  -32.0120 C   0  0  0  0  0  0  0  0  0  0  0  0
   -4.5750   19.3760  -31.7650 C   0  0  0  0  0  0  0  0  0  0  0  0
   -7.0540   21.1590  -31.9520 C   0  0  0  0  0  0  0  0  0  0  0  0
   -5.8520   24.5540  -31.1680 C   0  0  0  0  0  0  0  0  0  0  0  0
   -4.7150   25.2480  -30.7540 C   0  0  0  0  0  0  0  0  0  0  0  0
   -3.6930   24.5840  -30.0690 C   0  0  0  0  0  0  0  0  0  0  0  0
   -2.5610   25.2930  -29.6820 O   0  0  0  0  0  0  0  0  0  0  0  0
   -2.8447   22.5721  -27.9883 H   0  0  0  0  0  0  0  0  0  0  0  0
   -2.7288   21.4199  -29.3614 H   0  0  0  0  0  0  0  0  0  0  0  0
   -1.7399   22.9195  -29.3614 H   0  0  0  0  0  0  0  0  0  0  0  0
   -5.0438   21.4371  -30.0103 H   0  0  0  0  0  0  0  0  0  0  0  0
   -8.5786   23.9974  -30.7967 H   0  0  0  0  0  0  0  0  0  0  0  0
  -10.5875   22.7512  -31.5798 H   0  0  0  0  0  0  0  0  0  0  0  0
  -10.3461   20.4967  -32.6095 H   0  0  0  0  0  0  0  0  0  0  0  0
   -8.5270   18.9120  -33.8570 H   0  0  0  0  0  0  0  0  0  0  0  0
   -5.0612   17.5728  -34.6292 H   0  0  0  0  0  0  0  0  0  0  0  0
   -2.7544   18.4091  -35.0722 H   0  0  0  0  0  0  0  0  0  0  0  0
   -0.6673   17.4763  -34.8131 H   0  0  0  0  0  0  0  0  0  0  0  0
   -1.3912   18.6175  -35.9965 H   0  0  0  0  0  0  0  0  0  0  0  0
    0.3817   18.3283  -35.9965 H   0  0  0  0  0  0  0  0  0  0  0  0
   -0.8199   21.4576  -30.7547 H   0  0  0  0  0  0  0  0  0  0  0  0
   -0.6130   22.9008  -31.8041 H   0  0  0  0  0  0  0  0  0  0  0  0
   -2.1707   22.0061  -31.8041 H   0  0  0  0  0  0  0  0  0  0  0  0
   -2.7828   20.4876  -31.2710 H   0  0  0  0  0  0  0  0  0  0  0  0
   -5.0879   19.6475  -30.8305 H   0  0  0  0  0  0  0  0  0  0  0  0
   -6.0553   20.7106  -32.0594 H   0  0  0  0  0  0  0  0  0  0  0  0
   -6.6537   25.0875  -31.6996 H   0  0  0  0  0  0  0  0  0  0  0  0
   -4.6220   26.3231  -30.9675 H   0  0  0  0  0  0  0  0  0  0  0  0
  1  2  1  0
  2  3  2  0
  3  4  1  0
  4  5  1  0
  5  6  2  0
  6  7  1  0
  7  8  2  0
  8  9  1  0
  9 10  1  0
 10 11  1  0
 11 12  2  0
 11 13  2  0
 11 14  1  0
 14 15  2  0
 15 16  1  0
 16 17  2  0
 17 18  1  0
 18 19  1  0
 19 20  1  0
 19 21  2  0
 21 22  1  0
 22 23  1  0
 23 24  1  0
 17 25  1  0
 25 26  2  0
  9 27  2  0
  4 28  2  0
 28 29  1  0
 29 30  2  0
 30 31  1  0
 30  2  1  0
 27  5  1  0
 26 14  1  0
 23 18  2  0
  1 32  1  0
  1 33  1  0
  1 34  1  0
  3 35  1  0
  6 36  1  0
  7 37  1  0
  8 38  1  0
 10 39  1  0
 15 40  1  0
 16 41  1  0
 20 42  1  0
 20 43  1  0
 20 44  1  0
 24 45  1  0
 24 46  1  0
 24 47  1  0
 25 48  1  0
 26 49  1  0
 27 50  1  0
 28 51  1  0
 29 52  1  0
M  CHG  1  31  -1
M  END
>  <UniqueID>  (17) 
17

>  <SMILES>  (17) 
Cc1cc(-c2cccc(NS(=O)(=O)c3ccc(-c4c(C)noc4C)cc3)c2)ccc1[O-]

>  <Energy>  (17) 
97.63507482663148

>  <Genealogy>  (17) 
Cc1cc(-c2cccc(NS(=O)(=O)c3ccc(-c4c(C)noc4C)cc3)c2)ccc1[O-] (protonated)
Cc1cc(-c2cccc(NS(=O)(=O)c3ccc(-c4c(C)noc4C)cc3)c2)ccc1[O-] (3D coordinates assigned)
Cc1cc(-c2cccc(NS(=O)(=O)c3ccc(-c4c(C)noc4C)cc3)c2)ccc1[O-] (optimized conformer: 97.63507482663148 kcal/mol)

>  <smiles>  (17) 
Cc1cc(-c2cccc(NS(=O)(=O)c3ccc(-c4c(C)noc4C)cc3)c2)ccc1O

>  <score_type>  (17) 
oracle

>  <origin>  (17) 
adgpu

>  <m_score__min__energy>  (17) 
-13.51

>  <m_primary>  (17) 
energy

$$$$
17:0
     RDKit          3D

 31 32  0  0  0  0  0  0  0  0999 V2000
   -0.9290   26.3400  -28.0270 C   0  0  0  0  0  0  0  0  0  0  0  0
   -1.7100   25.6120  -28.9700 O   0  0  0  0  0  0  0  0  0  0  0  0
   -1.8770   24.2180  -28.9620 C   0  0  0  0  0  0  0  0  0  0  0  0
   -0.7750   23.3420  -29.0440 C   0  0  0  0  0  0  0  0  0  0  0  0
   -0.9680   21.9600  -29.0270 C   0  0  0  0  0  0  0  0  0  0  0  0
   -2.2560   21.4350  -28.9330 C   0  0  0  0  0  0  0  0  0  0  0  0
   -3.3570   22.2890  -28.8540 C   0  0  0  0  0  0  0  0  0  0  0  0
   -3.1810   23.6870  -28.8620 C   0  0  0  0  0  0  0  0  0  0  0  0
   -4.3100   24.5790  -28.7780 N   0  0  0  0  0  0  0  0  0  0  0  0
   -5.3130   24.9920  -30.1330 S   0  0  0  0  0  0  0  0  0  0  0  0
   -6.3510   25.9860  -29.6980 O   0  0  0  0  0  0  0  0  0  0  0  0
   -4.4590   25.6110  -31.2040 O   0  0  0  0  0  0  0  0  0  0  0  0
   -6.1290   23.5530  -30.7390 C   0  0  0  0  0  0  0  0  0  0  0  0
   -5.6500   22.8870  -31.8760 C   0  0  0  0  0  0  0  0  0  0  0  0
   -6.2970   21.7390  -32.3420 C   0  0  0  0  0  0  0  0  0  0  0  0
   -7.4260   21.2510  -31.6760 C   0  0  0  0  0  0  0  0  0  0  0  0
   -8.2360   19.8090  -32.2600 Cl  0  0  0  0  0  0  0  0  0  0  0  0
   -7.9100   21.9170  -30.5440 C   0  0  0  0  0  0  0  0  0  0  0  0
   -7.2640   23.0650  -30.0780 C   0  0  0  0  0  0  0  0  0  0  0  0
   -1.2302   26.0593  -27.0070 H   0  0  0  0  0  0  0  0  0  0  0  0
    0.1355   26.1045  -28.1729 H   0  0  0  0  0  0  0  0  0  0  0  0
   -1.0893   27.4184  -28.1729 H   0  0  0  0  0  0  0  0  0  0  0  0
    0.2433   23.7506  -29.1219 H   0  0  0  0  0  0  0  0  0  0  0  0
   -0.1025   21.2839  -29.0879 H   0  0  0  0  0  0  0  0  0  0  0  0
   -2.4049   20.3452  -28.9211 H   0  0  0  0  0  0  0  0  0  0  0  0
   -4.3706   21.8672  -28.7849 H   0  0  0  0  0  0  0  0  0  0  0  0
   -4.6210   24.9310  -27.8460 H   0  0  0  0  0  0  0  0  0  0  0  0
   -4.7629   23.2688  -32.4026 H   0  0  0  0  0  0  0  0  0  0  0  0
   -5.9177   21.2186  -33.2338 H   0  0  0  0  0  0  0  0  0  0  0  0
   -8.7996   21.5363  -30.0209 H   0  0  0  0  0  0  0  0  0  0  0  0
   -7.6478   23.5874  -29.1893 H   0  0  0  0  0  0  0  0  0  0  0  0
  1  2  1  0
  2  3  1  0
  3  4  2  0
  4  5  1  0
  5  6  2  0
  6  7  1  0
  7  8  2  0
  8  9  1  0
  9 10  1  0
 10 11  2  0
 10 12  2  0
 10 13  1  0
 13 14  2  0
 14 15  1  0
 15 16  2  0
 16 17  1  0
 16 18  1  0
 18 19  2  0
  8  3  1  0
 19 13  1  0
  1 20  1  0
  1 21  1  0
  1 22  1  0
  4 23  1  0
  5 24  1  0
  6 25  1  0
  7 26  1  0
  9 27  1  0
 14 28  1  0
 15 29  1  0
 18 30  1  0
 19 31  1  0
M  END
>  <UniqueID>  (18) 
18

>  <SMILES>  (18) 
COc1ccccc1NS(=O)(=O)c1ccc(Cl)cc1

>  <Energy>  (18) 
34.308995407747425

>  <Genealogy>  (18) 
COc1ccccc1NS(=O)(=O)c1ccc(Cl)cc1 (3D coordinates assigned)
COc1ccccc1NS(=O)(=O)c1ccc(Cl)cc1 (optimized conformer: 34.308995407747425 kcal/mol)

>  <smiles>  (18) 
COc1ccccc1NS(=O)(=O)c1ccc(Cl)cc1

>  <score_type>  (18) 
oracle

>  <origin>  (18) 
adgpu

>  <m_score__min__energy>  (18) 
-8.3900000000000006

>  <m_primary>  (18) 
energy

$$$$
18:0
     RDKit          3D

 57 61  0  0  0  0  0  0  0  0999 V2000
   -2.6134   19.8539  -34.7057 H   0  0  0  0  0  0  0  0  0  0  0  0
   -2.0470   19.6170  -33.7930 C   0  0  0  0  0  0  0  0  0  0  0  0
   -2.1180   20.4690  -32.6860 C   0  0  0  0  0  0  0  0  0  0  0  0
   -2.7355   21.3779  -32.7365 H   0  0  0  0  0  0  0  0  0  0  0  0
   -1.4070   20.1740  -31.5090 C   0  0  0  0  0  0  0  0  0  0  0  0
   -1.4840   21.0980  -30.3480 C   0  0  0  0  0  0  0  0  0  0  0  0
   -1.1600   20.6350  -29.1110 N   0  0  0  0  0  0  0  0  0  0  0  0
   -1.2050   21.4180  -28.0030 C   0  0  0  0  0  0  0  0  0  0  0  0
   -0.8450   20.8790  -26.7640 C   0  0  0  0  0  0  0  0  0  0  0  0
   -0.5430   19.8238  -26.6915 H   0  0  0  0  0  0  0  0  0  0  0  0
   -0.8680   21.6770  -25.6190 C   0  0  0  0  0  0  0  0  0  0  0  0
   -0.6002   21.2453  -24.6433 H   0  0  0  0  0  0  0  0  0  0  0  0
   -1.2300   23.0210  -25.7100 C   0  0  0  0  0  0  0  0  0  0  0  0
   -1.2401   23.6481  -24.8063 H   0  0  0  0  0  0  0  0  0  0  0  0
   -1.5800   23.5740  -26.9450 C   0  0  0  0  0  0  0  0  0  0  0  0
   -1.8399   24.6407  -27.0123 H   0  0  0  0  0  0  0  0  0  0  0  0
   -1.6020   22.7730  -28.1050 C   0  0  0  0  0  0  0  0  0  0  0  0
   -1.9750   23.2750  -29.3770 C   0  0  0  0  0  0  0  0  0  0  0  0
   -2.4940   24.6480  -29.5750 C   0  0  0  0  0  0  0  0  0  0  0  0
   -1.9630   25.6010  -28.9430 O   0  0  0  0  0  0  0  0  0  0  0  0
   -3.5950   24.9300  -30.4500 N   0  0  0  0  0  0  0  0  0  0  0  0
   -4.5860   23.9880  -30.8950 C   0  0  0  0  0  0  0  0  0  0  0  0
   -4.2500   22.9530  -31.7850 C   0  0  0  0  0  0  0  0  0  0  0  0
   -3.2233   22.8782  -32.1728 H   0  0  0  0  0  0  0  0  0  0  0  0
   -5.2090   22.0200  -32.1800 C   0  0  0  0  0  0  0  0  0  0  0  0
   -4.9334   21.2078  -32.8687 H   0  0  0  0  0  0  0  0  0  0  0  0
   -6.5210   22.1150  -31.7020 C   0  0  0  0  0  0  0  0  0  0  0  0
   -7.7360   20.9250  -32.1540 S   0  0  0  0  0  0  0  0  0  0  0  0
   -9.0940   21.5570  -32.2800 O   0  0  0  0  0  0  0  0  0  0  0  0
   -7.7980   19.8630  -31.0920 O   0  0  0  0  0  0  0  0  0  0  0  0
   -7.2940   20.1970  -33.6640 N   0  0  0  0  0  0  0  0  0  0  0  0
   -6.4480   19.2170  -33.7860 C   0  0  0  0  0  0  0  0  0  0  0  0
   -5.7410   18.5930  -32.7730 C   0  0  0  0  0  0  0  0  0  0  0  0
   -5.7721   18.7931  -31.6918 H   0  0  0  0  0  0  0  0  0  0  0  0
   -4.9850   17.6550  -33.4550 C   0  0  0  0  0  0  0  0  0  0  0  0
   -3.9890   16.7200  -32.8570 C   0  0  0  0  0  0  0  0  0  0  0  0
   -4.0473   16.7747  -31.7599 H   0  0  0  0  0  0  0  0  0  0  0  0
   -4.2072   15.6930  -33.1850 H   0  0  0  0  0  0  0  0  0  0  0  0
   -2.9778   17.0026  -33.1850 H   0  0  0  0  0  0  0  0  0  0  0  0
   -5.2450   17.7360  -34.7410 O   0  0  0  0  0  0  0  0  0  0  0  0
   -6.1240   18.6670  -34.9680 N   0  0  0  0  0  0  0  0  0  0  0  0
   -6.4910   18.9290  -35.9090 H   0  0  0  0  0  0  0  0  0  0  0  0
   -6.8710   23.1630  -30.8430 C   0  0  0  0  0  0  0  0  0  0  0  0
   -7.9031   23.2404  -30.4705 H   0  0  0  0  0  0  0  0  0  0  0  0
   -5.9170   24.1170  -30.4520 C   0  0  0  0  0  0  0  0  0  0  0  0
   -6.3070   25.2100  -29.4960 C   0  0  0  0  0  0  0  0  0  0  0  0
   -6.1805   24.8555  -28.4624 H   0  0  0  0  0  0  0  0  0  0  0  0
   -5.6670   26.0889  -29.6631 H   0  0  0  0  0  0  0  0  0  0  0  0
   -7.3588   25.4852  -29.6631 H   0  0  0  0  0  0  0  0  0  0  0  0
   -1.8810   22.4370  -30.4960 C   0  0  0  0  0  0  0  0  0  0  0  0
   -2.1193   22.8298  -31.4954 H   0  0  0  0  0  0  0  0  0  0  0  0
   -0.6040   19.0160  -31.4730 C   0  0  0  0  0  0  0  0  0  0  0  0
   -0.0281   18.7782  -30.5665 H   0  0  0  0  0  0  0  0  0  0  0  0
   -0.5350   18.1680  -32.5820 C   0  0  0  0  0  0  0  0  0  0  0  0
    0.0899   17.2636  -32.5428 H   0  0  0  0  0  0  0  0  0  0  0  0
   -1.2580   18.4660  -33.7410 C   0  0  0  0  0  0  0  0  0  0  0  0
   -1.1660   17.3990  -35.1310 Cl  0  0  0  0  0  0  0  0  0  0  0  0
  1  2  1  0
  2  3  2  0
  3  4  1  0
  3  5  1  0
  5  6  1  0
  6  7  2  0
  7  8  1  0
  8  9  2  0
  9 10  1  0
  9 11  1  0
 11 12  1  0
 11 13  2  0
 13 14  1  0
 13 15  1  0
 15 16  1  0
 15 17  2  0
 17 18  1  0
 18 19  1  0
 19 20  2  0
 19 21  1  0
 21 22  1  0
 22 23  2  0
 23 24  1  0
 23 25  1  0
 25 26  1  0
 25 27  2  0
 27 28  1  0
 28 29  2  0
 28 30  2  0
 28 31  1  0
 31 32  2  0
 32 33  1  0
 33 34  1  0
 33 35  2  0
 35 36  1  0
 36 37  1  0
 36 38  1  0
 36 39  1  0
 35 40  1  0
 40 41  1  0
 41 42  1  0
 27 43  1  0
 43 44  1  0
 43 45  2  0
 45 46  1  0
 46 47  1  0
 46 48  1  0
 46 49  1  0
 18 50  2  0
 50 51  1  0
  5 52  2  0
 52 53  1  0
 52 54  1  0
 54 55  1  0
 54 56  2  0
 56 57  1  0
 56  2  1  0
 50  6  1  0
 17  8  1  0
 45 22  1  0
 41 32  1  0
M  CHG  1  21  -1
M  END
>  <UniqueID>  (19) 
19

>  <SMILES>  (19) 
Cc1c/c(=N\S(=O)(=O)c2ccc([N-]C(=O)c3cc(-c4ccc(Cl)cc4)nc4ccccc34)c(C)c2)[nH]o1

>  <Energy>  (19) 
111.70565279866017

>  <Genealogy>  (19) 
Cc1cc(=NS(=O)(=O)c2ccc([N-]C(=O)c3cc(-c4ccc(Cl)cc4)nc4ccccc34)c(C)c2)[nH]o1 (protonated)
Cc1c/c(=N\S(=O)(=O)c2ccc([N-]C(=O)c3cc(-c4ccc(Cl)cc4)nc4ccccc34)c(C)c2)[nH]o1 (cis-trans isomerization)
Cc1c/c(=N\S(=O)(=O)c2ccc([N-]C(=O)c3cc(-c4ccc(Cl)cc4)nc4ccccc34)c(C)c2)[nH]o1 (3D coordinates assigned)
Cc1c/c(=N\S(=O)(=O)c2ccc([N-]C(=O)c3cc(-c4ccc(Cl)cc4)nc4ccccc34)c(C)c2)[nH]o1 (optimized conformer: 111.70565279866017 kcal/mol)

>  <smiles>  (19) 
Cc1cc(=NS(=O)(=O)c2ccc(NC(=O)c3cc(-c4ccc(Cl)cc4)nc4ccccc34)c(C)c2)[nH]o1

>  <score_type>  (19) 
oracle

>  <origin>  (19) 
adgpu

>  <m_score__min__energy>  (19) 
-12.49

>  <m_primary>  (19) 
energy

$$$$
19:0
     RDKit          3D

 43 45  0  0  0  0  0  0  0  0999 V2000
   -9.1650   20.5730  -32.0170 C   0  0  0  0  0  0  0  0  0  0  0  0
   -8.1090   19.8790  -32.6750 O   0  0  0  0  0  0  0  0  0  0  0  0
   -6.7670   20.2910  -32.6990 C   0  0  0  0  0  0  0  0  0  0  0  0
   -6.3570   21.4500  -32.0130 C   0  0  0  0  0  0  0  0  0  0  0  0
   -5.0290   21.8900  -32.0660 C   0  0  0  0  0  0  0  0  0  0  0  0
   -4.6020   23.1170  -31.3590 C   0  0  0  0  0  0  0  0  0  0  0  0
   -5.3180   24.2240  -31.3560 O   0  0  0  0  0  0  0  0  0  0  0  0
   -4.6670   25.1400  -30.6800 C   0  0  0  0  0  0  0  0  0  0  0  0
   -5.1300   26.4330  -30.4730 O   0  0  0  0  0  0  0  0  0  0  0  0
   -3.4840   24.6300  -30.2090 C   0  0  0  0  0  0  0  0  0  0  0  0
   -2.5520   25.2990  -29.4250 O   0  0  0  0  0  0  0  0  0  0  0  0
   -3.4240   23.3170  -30.6300 C   0  0  0  0  0  0  0  0  0  0  0  0
   -2.3810   22.3330  -30.2700 C   0  0  0  0  0  0  0  0  0  0  0  0
   -2.3330   21.7850  -28.9780 C   0  0  0  0  0  0  0  0  0  0  0  0
   -1.3560   20.8440  -28.6460 C   0  0  0  0  0  0  0  0  0  0  0  0
   -0.4090   20.4480  -29.5950 C   0  0  0  0  0  0  0  0  0  0  0  0
    0.5540   19.5080  -29.2450 O   0  0  0  0  0  0  0  0  0  0  0  0
   -0.4350   21.0000  -30.8880 C   0  0  0  0  0  0  0  0  0  0  0  0
    0.5290   20.6060  -31.8700 N   0  0  0  0  0  0  0  0  0  0  0  0
   -1.4200   21.9430  -31.2170 C   0  0  0  0  0  0  0  0  0  0  0  0
   -4.0850   21.1310  -32.7630 C   0  0  0  0  0  0  0  0  0  0  0  0
   -4.4650   19.9620  -33.4430 C   0  0  0  0  0  0  0  0  0  0  0  0
   -3.5380   19.1870  -34.1590 O   0  0  0  0  0  0  0  0  0  0  0  0
   -2.1910   18.9580  -33.7570 C   0  0  0  0  0  0  0  0  0  0  0  0
   -5.8050   19.5380  -33.4210 C   0  0  0  0  0  0  0  0  0  0  0  0
   -6.1080   18.3630  -34.1350 O   0  0  0  0  0  0  0  0  0  0  0  0
   -6.4570   17.0990  -33.5820 C   0  0  0  0  0  0  0  0  0  0  0  0
   -9.0365   20.4885  -30.9278 H   0  0  0  0  0  0  0  0  0  0  0  0
   -9.1437   21.6337  -32.3076 H   0  0  0  0  0  0  0  0  0  0  0  0
  -10.1302   20.1326  -32.3076 H   0  0  0  0  0  0  0  0  0  0  0  0
   -7.0923   22.0194  -31.4256 H   0  0  0  0  0  0  0  0  0  0  0  0
   -3.0691   22.0987  -28.2232 H   0  0  0  0  0  0  0  0  0  0  0  0
   -1.3315   20.4129  -27.6343 H   0  0  0  0  0  0  0  0  0  0  0  0
    0.5140   21.0210  -32.8290 H   0  0  0  0  0  0  0  0  0  0  0  0
    1.2650   19.8980  -31.6540 H   0  0  0  0  0  0  0  0  0  0  0  0
   -1.4399   22.3810  -32.2258 H   0  0  0  0  0  0  0  0  0  0  0  0
   -3.0331   21.4524  -32.7793 H   0  0  0  0  0  0  0  0  0  0  0  0
   -2.1328   18.9481  -32.6586 H   0  0  0  0  0  0  0  0  0  0  0  0
   -1.8505   17.9891  -34.1510 H   0  0  0  0  0  0  0  0  0  0  0  0
   -1.5494   19.7600  -34.1510 H   0  0  0  0  0  0  0  0  0  0  0  0
   -6.4397   17.1618  -32.4839 H   0  0  0  0  0  0  0  0  0  0  0  0
   -7.4663   16.8181  -33.9173 H   0  0  0  0  0  0  0  0  0  0  0  0
   -5.7348   16.3401  -33.9173 H   0  0  0  0  0  0  0  0  0  0  0  0
  1  2  1  0
  2  3  1  0
  3  4  2  0
  4  5  1  0
  5  6  1  0
  6  7  1  0
  7  8  1  0
  8  9  1  0
  8 10  2  0
 10 11  1  0
 10 12  1  0
 12 13  1  0
 13 14  2  0
 14 15  1  0
 15 16  2  0
 16 17  1  0
 16 18  1  0
 18 19  1  0
 18 20  2  0
  5 21  2  0
 21 22  1  0
 22 23  1  0
 23 24  1  0
 22 25  2  0
 25 26  1  0
 26 27  1  0
 25  3  1  0
 12  6  2  0
 20 13  1  0
  1 28  1  0
  1 29  1  0
  1 30  1  0
  4 31  1  0
 14 32  1  0
 15 33  1  0
 19 34  1  0
 19 35  1  0
 20 36  1  0
 21 37  1  0
 24 38  1  0
 24 39  1  0
 24 40  1  0
 27 41  1  0
 27 42  1  0
 27 43  1  0
M  CHG  3   9  -1  11  -1  17  -1
M  END
>  <UniqueID>  (20) 
20

>  <SMILES>  (20) 
COc1cc(-c2oc([O-])c([O-])c2-c2ccc([O-])c(N)c2)cc(OC)c1OC

>  <Energy>  (20) 
83.6984550590431

>  <Genealogy>  (20) 
COc1cc(-c2oc([O-])c([O-])c2-c2ccc([O-])c(N)c2)cc(OC)c1OC (protonated)
COc1cc(-c2oc([O-])c([O-])c2-c2ccc([O-])c(N)c2)cc(OC)c1OC (3D coordinates assigned)
COc1cc(-c2oc([O-])c([O-])c2-c2ccc([O-])c(N)c2)cc(OC)c1OC (optimized conformer: 83.6984550590431 kcal/mol)

>  <smiles>  (20) 
COc1cc(-c2oc(O)c(O)c2-c2ccc(O)c(N)c2)cc(OC)c1OC

>  <score_type>  (20) 
oracle

>  <origin>  (20) 
adgpu

>  <m_score__min__energy>  (20) 
-10.550000000000001

>  <m_primary>  (20) 
energy

$$$$
20:0
     RDKit          3D

 39 40  0  0  0  0  0  0  0  0999 V2000
    0.3600   26.0490  -23.4620 N   0  0  0  0  0  0  0  0  0  0  0  0
   -0.3590   26.8920  -24.3710 C   0  0  0  0  0  0  0  0  0  0  0  0
   -0.4900   28.1580  -24.1040 N   0  0  0  0  0  0  0  0  0  0  0  0
   -0.9490   26.3120  -25.6030 C   0  0  0  0  0  0  0  0  0  0  0  0
   -0.3530   26.5510  -26.8520 C   0  0  0  0  0  0  0  0  0  0  0  0
   -0.9160   26.0280  -28.0190 C   0  0  0  0  0  0  0  0  0  0  0  0
   -2.1010   25.2740  -27.9610 C   0  0  0  0  0  0  0  0  0  0  0  0
   -2.7340   24.7680  -29.1090 O   0  0  0  0  0  0  0  0  0  0  0  0
   -4.1080   24.3800  -29.1970 C   0  0  0  0  0  0  0  0  0  0  0  0
   -4.5930   24.4080  -30.6500 C   0  0  0  0  0  0  0  0  0  0  0  0
   -4.8470   23.0570  -31.1470 N   0  0  0  0  0  0  0  0  0  0  0  0
   -5.8740   22.7700  -32.1110 C   0  0  0  0  0  0  0  0  0  0  0  0
   -6.4730   23.7180  -32.6860 O   0  0  0  0  0  0  0  0  0  0  0  0
   -6.2350   21.3670  -32.4280 C   0  0  0  0  0  0  0  0  0  0  0  0
   -5.2370   20.4840  -32.8810 C   0  0  0  0  0  0  0  0  0  0  0  0
   -5.5420   19.1530  -33.1720 C   0  0  0  0  0  0  0  0  0  0  0  0
   -6.8460   18.6850  -33.0180 C   0  0  0  0  0  0  0  0  0  0  0  0
   -7.8490   19.5460  -32.5720 C   0  0  0  0  0  0  0  0  0  0  0  0
   -7.5580   20.8840  -32.2770 C   0  0  0  0  0  0  0  0  0  0  0  0
   -8.9940   21.9670  -31.6050 Br  0  0  0  0  0  0  0  0  0  0  0  0
   -2.6770   25.0090  -26.7150 C   0  0  0  0  0  0  0  0  0  0  0  0
   -2.1140   25.5260  -25.5460 C   0  0  0  0  0  0  0  0  0  0  0  0
    0.5550   25.0510  -23.6940 H   0  0  0  0  0  0  0  0  0  0  0  0
    0.7460   26.4330  -22.5700 H   0  0  0  0  0  0  0  0  0  0  0  0
   -1.0360   28.7970  -24.7230 H   0  0  0  0  0  0  0  0  0  0  0  0
   -0.0710   28.5670  -23.2390 H   0  0  0  0  0  0  0  0  0  0  0  0
    0.5645   27.1548  -26.9121 H   0  0  0  0  0  0  0  0  0  0  0  0
   -0.4290   26.2074  -28.9889 H   0  0  0  0  0  0  0  0  0  0  0  0
   -4.2203   23.3605  -28.7996 H   0  0  0  0  0  0  0  0  0  0  0  0
   -4.7113   25.0896  -28.6118 H   0  0  0  0  0  0  0  0  0  0  0  0
   -5.5232   24.9924  -30.7069 H   0  0  0  0  0  0  0  0  0  0  0  0
   -3.8092   24.8666  -31.2708 H   0  0  0  0  0  0  0  0  0  0  0  0
   -4.3140   22.2740  -30.7080 H   0  0  0  0  0  0  0  0  0  0  0  0
   -4.2061   20.8463  -33.0071 H   0  0  0  0  0  0  0  0  0  0  0  0
   -4.7522   18.4727  -33.5233 H   0  0  0  0  0  0  0  0  0  0  0  0
   -7.0843   17.6361  -33.2483 H   0  0  0  0  0  0  0  0  0  0  0  0
   -8.8761   19.1713  -32.4511 H   0  0  0  0  0  0  0  0  0  0  0  0
   -3.5824   24.3873  -26.6547 H   0  0  0  0  0  0  0  0  0  0  0  0
   -2.5849   25.3170  -24.5741 H   0  0  0  0  0  0  0  0  0  0  0  0
  1  2  1  0
  2  3  2  0
  2  4  1  0
  4  5  2  0
  5  6  1  0
  6  7  2  0
  7  8  1  0
  8  9  1  0
  9 10  1  0
 10 11  1  0
 11 12  1  0
 12 13  2  0
 12 14  1  0
 14 15  2  0
 15 16  1  0
 16 17  2  0
 17 18  1  0
 18 19  2  0
 19 20  1  0
  7 21  1  0
 21 22  2  0
 22  4  1  0
 19 14  1  0
  1 23  1  0
  1 24  1  0
  3 25  1  0
  3 26  1  0
  5 27  1  0
  6 28  1  0
  9 29  1  0
  9 30  1  0
 10 31  1  0
 10 32  1  0
 11 33  1  0
 15 34  1  0
 16 35  1  0
 17 36  1  0
 18 37  1  0
 21 38  1  0
 22 39  1  0
M  CHG  1   3   1
M  END
>  <UniqueID>  (21) 
21

>  <SMILES>  (21) 
NC(=[NH2+])c1ccc(OCCNC(=O)c2ccccc2Br)cc1

>  <Energy>  (21) 
41.618997587885296

>  <Genealogy>  (21) 
NC(=[NH2+])c1ccc(OCCNC(=O)c2ccccc2Br)cc1 (protonated)
NC(=[NH2+])c1ccc(OCCNC(=O)c2ccccc2Br)cc1 (3D coordinates assigned)
NC(=[NH2+])c1ccc(OCCNC(=O)c2ccccc2Br)cc1 (optimized conformer: 41.618997587885296 kcal/mol)

>  <smiles>  (21) 
N=C(N)c1ccc(OCCNC(=O)c2ccccc2Br)cc1

>  <score_type>  (21) 
oracle

>  <origin>  (21) 
adgpu

>  <m_score__min__energy>  (21) 
-9.6300000000000008

>  <m_primary>  (21) 
energy

$$$$
21:0
     RDKit          3D

 35 36  0  0  0  0  0  0  0  0999 V2000
   -1.1830   20.3930  -26.9840 C   0  0  0  0  0  0  0  0  0  0  0  0
   -0.6740   21.5030  -27.7160 O   0  0  0  0  0  0  0  0  0  0  0  0
   -1.4720   22.4240  -28.4130 C   0  0  0  0  0  0  0  0  0  0  0  0
   -2.1850   22.0770  -29.5750 C   0  0  0  0  0  0  0  0  0  0  0  0
   -2.9650   23.0330  -30.2330 C   0  0  0  0  0  0  0  0  0  0  0  0
   -3.0600   24.3380  -29.7370 C   0  0  0  0  0  0  0  0  0  0  0  0
   -3.8420   25.2960  -30.4670 N   0  0  0  0  0  0  0  0  0  0  0  0
   -5.2590   25.4860  -30.3850 C   0  0  0  0  0  0  0  0  0  0  0  0
   -5.7460   26.6200  -30.1290 O   0  0  0  0  0  0  0  0  0  0  0  0
   -6.1690   24.3200  -30.5970 C   0  0  0  0  0  0  0  0  0  0  0  0
   -5.7650   23.4540  -32.1540 S   0  0  0  0  0  0  0  0  0  0  0  0
   -7.1190   22.2830  -32.0400 C   0  0  0  0  0  0  0  0  0  0  0  0
   -8.3950   22.7160  -31.6650 C   0  0  0  0  0  0  0  0  0  0  0  0
   -9.4420   21.7950  -31.6150 C   0  0  0  0  0  0  0  0  0  0  0  0
   -9.2030   20.4550  -31.9250 C   0  0  0  0  0  0  0  0  0  0  0  0
   -7.9070   20.0510  -32.2750 C   0  0  0  0  0  0  0  0  0  0  0  0
   -7.6290   18.6250  -32.6260 C   0  0  0  0  0  0  0  0  0  0  0  0
   -6.9050   20.9720  -32.3300 N   0  0  0  0  0  0  0  0  0  0  0  0
   -2.3320   24.6900  -28.5870 C   0  0  0  0  0  0  0  0  0  0  0  0
   -1.5500   23.7350  -27.9300 C   0  0  0  0  0  0  0  0  0  0  0  0
   -1.0918   20.5918  -25.9060 H   0  0  0  0  0  0  0  0  0  0  0  0
   -2.2416   20.2392  -27.2402 H   0  0  0  0  0  0  0  0  0  0  0  0
   -0.6088   19.4904  -27.2402 H   0  0  0  0  0  0  0  0  0  0  0  0
   -2.1288   21.0508  -29.9671 H   0  0  0  0  0  0  0  0  0  0  0  0
   -3.5086   22.7568  -31.1485 H   0  0  0  0  0  0  0  0  0  0  0  0
   -6.0590   23.6195  -29.7561 H   0  0  0  0  0  0  0  0  0  0  0  0
   -7.2040   24.6877  -30.6572 H   0  0  0  0  0  0  0  0  0  0  0  0
   -8.5713   23.7719  -31.4121 H   0  0  0  0  0  0  0  0  0  0  0  0
  -10.4529   22.1239  -31.3321 H   0  0  0  0  0  0  0  0  0  0  0  0
  -10.0237   19.7232  -31.8949 H   0  0  0  0  0  0  0  0  0  0  0  0
   -7.5142   18.0361  -31.7040 H   0  0  0  0  0  0  0  0  0  0  0  0
   -8.4657   18.2228  -33.2162 H   0  0  0  0  0  0  0  0  0  0  0  0
   -6.7026   18.5666  -33.2162 H   0  0  0  0  0  0  0  0  0  0  0  0
   -2.3777   25.7197  -28.2029 H   0  0  0  0  0  0  0  0  0  0  0  0
   -0.9912   24.0168  -27.0254 H   0  0  0  0  0  0  0  0  0  0  0  0
  1  2  1  0
  2  3  1  0
  3  4  2  0
  4  5  1  0
  5  6  2  0
  6  7  1  0
  7  8  1  0
  8  9  2  0
  8 10  1  0
 10 11  1  0
 11 12  1  0
 12 13  2  0
 13 14  1  0
 14 15  2  0
 15 16  1  0
 16 17  1  0
 16 18  2  0
  6 19  1  0
 19 20  2  0
 20  3  1  0
 18 12  1  0
  1 21  1  0
  1 22  1  0
  1 23  1  0
  4 24  1  0
  5 25  1  0
 10 26  1  0
 10 27  1  0
 13 28  1  0
 14 29  1  0
 15 30  1  0
 17 31  1  0
 17 32  1  0
 17 33  1  0
 19 34  1  0
 20 35  1  0
M  CHG  1   7  -1
M  END
>  <UniqueID>  (22) 
22

>  <SMILES>  (22) 
COc1ccc([N-]C(=O)CSc2cccc(C)n2)cc1

>  <Energy>  (22) 
30.8268895252091

>  <Genealogy>  (22) 
COc1ccc([N-]C(=O)CSc2cccc(C)n2)cc1 (protonated)
COc1ccc([N-]C(=O)CSc2cccc(C)n2)cc1 (3D coordinates assigned)
COc1ccc([N-]C(=O)CSc2cccc(C)n2)cc1 (optimized conformer: 30.8268895252091 kcal/mol)

>  <smiles>  (22) 
COc1ccc(NC(=O)CSc2cccc(C)n2)cc1

>  <score_type>  (22) 
oracle

>  <origin>  (22) 
adgpu

>  <m_score__min__energy>  (22) 
-8.75

>  <m_primary>  (22) 
energy

$$$$
22:0
     RDKit          3D

 39 41  0  0  0  0  0  0  0  0999 V2000
   -5.2590   25.5450  -30.4980 C   0  0  0  0  0  0  0  0  0  0  0  0
   -3.8580   25.2870  -30.4630 O   0  0  0  0  0  0  0  0  0  0  0  0
   -3.2270   24.4180  -29.5580 C   0  0  0  0  0  0  0  0  0  0  0  0
   -2.4720   24.9070  -28.4700 C   0  0  0  0  0  0  0  0  0  0  0  0
   -1.8900   24.0240  -27.5570 C   0  0  0  0  0  0  0  0  0  0  0  0
   -2.0590   22.6480  -27.7080 C   0  0  0  0  0  0  0  0  0  0  0  0
   -2.7950   22.1470  -28.7830 C   0  0  0  0  0  0  0  0  0  0  0  0
   -3.3680   23.0190  -29.7270 C   0  0  0  0  0  0  0  0  0  0  0  0
   -4.1260   22.4430  -30.8640 C   0  0  0  0  0  0  0  0  0  0  0  0
   -5.4890   22.1330  -30.7550 C   0  0  0  0  0  0  0  0  0  0  0  0
   -6.1650   21.6090  -31.8730 C   0  0  0  0  0  0  0  0  0  0  0  0
   -7.5710   21.2620  -31.8220 N   0  0  0  0  0  0  0  0  0  0  0  0
   -8.5000   21.9870  -30.9450 C   0  0  0  0  0  0  0  0  0  0  0  0
   -8.1040   20.2100  -32.7030 C   0  0  0  0  0  0  0  0  0  0  0  0
   -7.2330   18.9960  -32.6380 C   0  0  0  0  0  0  0  0  0  0  0  0
   -7.1030   18.1360  -31.5520 C   0  0  0  0  0  0  0  0  0  0  0  0
   -6.1520   17.1300  -31.7580 C   0  0  0  0  0  0  0  0  0  0  0  0
   -5.5260   17.1980  -32.9970 C   0  0  0  0  0  0  0  0  0  0  0  0
   -6.1530   18.5150  -33.8350 S   0  0  0  0  0  0  0  0  0  0  0  0
   -5.4680   21.4340  -33.0310 N   0  0  0  0  0  0  0  0  0  0  0  0
   -4.1540   21.7540  -33.1300 C   0  0  0  0  0  0  0  0  0  0  0  0
   -3.4950   22.2570  -32.0550 N   0  0  0  0  0  0  0  0  0  0  0  0
   -5.6445   25.6160  -29.4702 H   0  0  0  0  0  0  0  0  0  0  0  0
   -5.4443   26.4924  -31.0254 H   0  0  0  0  0  0  0  0  0  0  0  0
   -5.7696   24.7258  -31.0254 H   0  0  0  0  0  0  0  0  0  0  0  0
   -2.3409   25.9914  -28.3401 H   0  0  0  0  0  0  0  0  0  0  0  0
   -1.2971   24.4151  -26.7171 H   0  0  0  0  0  0  0  0  0  0  0  0
   -1.6116   21.9564  -26.9789 H   0  0  0  0  0  0  0  0  0  0  0  0
   -2.9283   21.0607  -28.8932 H   0  0  0  0  0  0  0  0  0  0  0  0
   -6.0234   22.2972  -29.8077 H   0  0  0  0  0  0  0  0  0  0  0  0
   -8.2438   21.7870  -29.8941 H   0  0  0  0  0  0  0  0  0  0  0  0
   -8.4234   23.0665  -31.1421 H   0  0  0  0  0  0  0  0  0  0  0  0
   -9.5285   21.6504  -31.1421 H   0  0  0  0  0  0  0  0  0  0  0  0
   -9.1216   19.9456  -32.3797 H   0  0  0  0  0  0  0  0  0  0  0  0
   -8.1254   20.5831  -33.7376 H   0  0  0  0  0  0  0  0  0  0  0  0
   -7.6880   18.2365  -30.6259 H   0  0  0  0  0  0  0  0  0  0  0  0
   -5.9216   16.3578  -31.0093 H   0  0  0  0  0  0  0  0  0  0  0  0
   -4.7527   16.5085  -33.3665 H   0  0  0  0  0  0  0  0  0  0  0  0
   -3.6221   21.6060  -34.0814 H   0  0  0  0  0  0  0  0  0  0  0  0
  1  2  1  0
  2  3  1  0
  3  4  2  0
  4  5  1  0
  5  6  2  0
  6  7  1  0
  7  8  2  0
  8  9  1  0
  9 10  2  0
 10 11  1  0
 11 12  1  0
 12 13  1  0
 12 14  1  0
 14 15  1  0
 15 16  2  0
 16 17  1  0
 17 18  2  0
 18 19  1  0
 11 20  2  0
 20 21  1  0
 21 22  2  0
  8  3  1  0
 22  9  1  0
 19 15  1  0
  1 23  1  0
  1 24  1  0
  1 25  1  0
  4 26  1  0
  5 27  1  0
  6 28  1  0
  7 29  1  0
 10 30  1  0
 13 31  1  0
 13 32  1  0
 13 33  1  0
 14 34  1  0
 14 35  1  0
 16 36  1  0
 17 37  1  0
 18 38  1  0
 21 39  1  0
M  END
>  <UniqueID>  (23) 
23

>  <SMILES>  (23) 
COc1ccccc1-c1cc(N(C)Cc2cccs2)ncn1

>  <Energy>  (23) 
71.72680778141614

>  <Genealogy>  (23) 
COc1ccccc1-c1cc(N(C)Cc2cccs2)ncn1 (3D coordinates assigned)
COc1ccccc1-c1cc(N(C)Cc2cccs2)ncn1 (optimized conformer: 71.72680778141614 kcal/mol)

>  <smiles>  (23) 
COc1ccccc1-c1cc(N(C)Cc2cccs2)ncn1

>  <score_type>  (23) 
oracle

>  <origin>  (23) 
adgpu

>  <m_score__min__energy>  (23) 
-7.8300000000000001

>  <m_primary>  (23) 
energy

$$$$
23:0
     RDKit          3D

 35 36  0  0  0  0  0  0  0  0999 V2000
   -3.7070   18.5220  -25.8990 C   0  0  0  0  0  0  0  0  0  0  0  0
   -3.0640   19.0200  -27.0670 O   0  0  0  0  0  0  0  0  0  0  0  0
   -2.5220   20.3090  -27.1850 C   0  0  0  0  0  0  0  0  0  0  0  0
   -1.4740   20.6670  -26.3290 C   0  0  0  0  0  0  0  0  0  0  0  0
   -0.9060   21.9400  -26.3990 C   0  0  0  0  0  0  0  0  0  0  0  0
   -1.3770   22.8680  -27.3310 C   0  0  0  0  0  0  0  0  0  0  0  0
   -2.4190   22.5280  -28.2120 C   0  0  0  0  0  0  0  0  0  0  0  0
   -2.9110   23.5230  -29.1950 C   0  0  0  0  0  0  0  0  0  0  0  0
   -2.0930   24.3290  -29.7180 O   0  0  0  0  0  0  0  0  0  0  0  0
   -4.2970   23.5550  -29.5830 N   0  0  0  0  0  0  0  0  0  0  0  0
   -4.8910   24.6300  -30.3270 C   0  0  0  0  0  0  0  0  0  0  0  0
   -4.2280   25.6670  -30.6030 O   0  0  0  0  0  0  0  0  0  0  0  0
   -6.3040   24.5140  -30.8120 C   0  0  0  0  0  0  0  0  0  0  0  0
   -6.5830   23.1040  -31.2560 C   0  0  0  0  0  0  0  0  0  0  0  0
   -7.7620   22.4550  -30.8530 C   0  0  0  0  0  0  0  0  0  0  0  0
   -8.0390   21.1580  -31.2930 C   0  0  0  0  0  0  0  0  0  0  0  0
   -7.1450   20.5010  -32.1470 C   0  0  0  0  0  0  0  0  0  0  0  0
   -7.4950   18.8740  -32.7000 Cl  0  0  0  0  0  0  0  0  0  0  0  0
   -5.9750   21.1460  -32.5620 C   0  0  0  0  0  0  0  0  0  0  0  0
   -5.6960   22.4440  -32.1230 C   0  0  0  0  0  0  0  0  0  0  0  0
   -2.9950   21.2450  -28.1240 C   0  0  0  0  0  0  0  0  0  0  0  0
   -3.1998   18.9148  -25.0055 H   0  0  0  0  0  0  0  0  0  0  0  0
   -4.7590   18.8432  -25.8944 H   0  0  0  0  0  0  0  0  0  0  0  0
   -3.6591   17.4231  -25.8944 H   0  0  0  0  0  0  0  0  0  0  0  0
   -1.0953   19.9397  -25.5957 H   0  0  0  0  0  0  0  0  0  0  0  0
   -0.0857   22.2132  -25.7189 H   0  0  0  0  0  0  0  0  0  0  0  0
   -0.9296   23.8719  -27.3760 H   0  0  0  0  0  0  0  0  0  0  0  0
   -4.9010   22.7340  -29.3570 H   0  0  0  0  0  0  0  0  0  0  0  0
   -6.9919   24.7817  -29.9964 H   0  0  0  0  0  0  0  0  0  0  0  0
   -6.4501   25.1955  -31.6630 H   0  0  0  0  0  0  0  0  0  0  0  0
   -8.4705   22.9704  -30.1879 H   0  0  0  0  0  0  0  0  0  0  0  0
   -8.9604   20.6526  -30.9681 H   0  0  0  0  0  0  0  0  0  0  0  0
   -5.2733   20.6312  -33.2348 H   0  0  0  0  0  0  0  0  0  0  0  0
   -4.7786   22.9503  -32.4577 H   0  0  0  0  0  0  0  0  0  0  0  0
   -3.8223   20.9722  -28.7956 H   0  0  0  0  0  0  0  0  0  0  0  0
  1  2  1  0
  2  3  1  0
  3  4  2  0
  4  5  1  0
  5  6  2  0
  6  7  1  0
  7  8  1  0
  8  9  2  0
  8 10  1  0
 10 11  1  0
 11 12  2  0
 11 13  1  0
 13 14  1  0
 14 15  2  0
 15 16  1  0
 16 17  2  0
 17 18  1  0
 17 19  1  0
 19 20  2  0
  7 21  2  0
 21  3  1  0
 20 14  1  0
  1 22  1  0
  1 23  1  0
  1 24  1  0
  4 25  1  0
  5 26  1  0
  6 27  1  0
 10 28  1  0
 13 29  1  0
 13 30  1  0
 15 31  1  0
 16 32  1  0
 19 33  1  0
 20 34  1  0
 21 35  1  0
M  END
>  <UniqueID>  (24) 
24

>  <SMILES>  (24) 
COc1cccc(C(=O)NC(=O)Cc2ccc(Cl)cc2)c1

>  <Energy>  (24) 
35.29722844868254

>  <Genealogy>  (24) 
COc1cccc(C(=O)NC(=O)Cc2ccc(Cl)cc2)c1 (3D coordinates assigned)
COc1cccc(C(=O)NC(=O)Cc2ccc(Cl)cc2)c1 (optimized conformer: 35.29722844868254 kcal/mol)

>  <smiles>  (24) 
COc1cccc(C(=O)NC(=O)Cc2ccc(Cl)cc2)c1

>  <score_type>  (24) 
oracle

>  <origin>  (24) 
adgpu

>  <m_score__min__energy>  (24) 
-8.6600000000000001

>  <m_primary>  (24) 
energy

$$$$
24:0
     RDKit          3D

 38 40  0  0  0  0  0  0  0  0999 V2000
   -1.6160   25.4250  -29.3130 O   0  0  0  0  0  0  0  0  0  0  0  0
   -2.4740   24.5620  -29.6380 C   0  0  0  0  0  0  0  0  0  0  0  0
   -3.5760   24.9630  -30.4630 N   0  0  0  0  0  0  0  0  0  0  0  0
   -4.7390   24.1680  -30.7350 C   0  0  0  0  0  0  0  0  0  0  0  0
   -5.9610   24.5250  -30.1550 C   0  0  0  0  0  0  0  0  0  0  0  0
   -7.0930   23.7280  -30.3520 C   0  0  0  0  0  0  0  0  0  0  0  0
   -7.0170   22.5800  -31.1510 C   0  0  0  0  0  0  0  0  0  0  0  0
   -8.4210   21.5290  -31.2980 S   0  0  0  0  0  0  0  0  0  0  0  0
   -9.3570   21.8070  -30.1570 O   0  0  0  0  0  0  0  0  0  0  0  0
   -9.1490   21.7770  -32.5900 O   0  0  0  0  0  0  0  0  0  0  0  0
   -7.9150   19.8680  -31.2320 N   0  0  0  0  0  0  0  0  0  0  0  0
   -7.2420   19.2230  -32.1420 C   0  0  0  0  0  0  0  0  0  0  0  0
   -6.8420   19.8190  -33.3560 C   0  0  0  0  0  0  0  0  0  0  0  0
   -6.1040   19.0720  -34.2770 C   0  0  0  0  0  0  0  0  0  0  0  0
   -5.7760   17.7460  -33.9950 C   0  0  0  0  0  0  0  0  0  0  0  0
   -6.1950   17.1830  -32.7900 C   0  0  0  0  0  0  0  0  0  0  0  0
   -6.9080   17.9260  -31.9030 N   0  0  0  0  0  0  0  0  0  0  0  0
   -5.8080   22.2520  -31.7780 C   0  0  0  0  0  0  0  0  0  0  0  0
   -4.6750   23.0420  -31.5750 C   0  0  0  0  0  0  0  0  0  0  0  0
   -2.3700   23.1850  -29.0960 C   0  0  0  0  0  0  0  0  0  0  0  0
   -1.4880   22.2720  -29.7030 C   0  0  0  0  0  0  0  0  0  0  0  0
   -1.3570   20.9730  -29.2070 C   0  0  0  0  0  0  0  0  0  0  0  0
   -2.1100   20.5660  -28.1060 C   0  0  0  0  0  0  0  0  0  0  0  0
   -1.9810   19.3050  -27.6250 F   0  0  0  0  0  0  0  0  0  0  0  0
   -2.9960   21.4580  -27.4980 C   0  0  0  0  0  0  0  0  0  0  0  0
   -3.1340   22.7640  -27.9830 C   0  0  0  0  0  0  0  0  0  0  0  0
   -4.2200   23.8550  -27.1300 Cl  0  0  0  0  0  0  0  0  0  0  0  0
   -6.0316   25.4356  -29.5420 H   0  0  0  0  0  0  0  0  0  0  0  0
   -8.0465   24.0036  -29.8778 H   0  0  0  0  0  0  0  0  0  0  0  0
   -7.1089   20.8633  -33.5757 H   0  0  0  0  0  0  0  0  0  0  0  0
   -5.7817   19.5292  -35.2241 H   0  0  0  0  0  0  0  0  0  0  0  0
   -5.1938   17.1515  -34.7145 H   0  0  0  0  0  0  0  0  0  0  0  0
   -5.9482   16.1366  -32.5572 H   0  0  0  0  0  0  0  0  0  0  0  0
   -5.7512   21.3695  -32.4322 H   0  0  0  0  0  0  0  0  0  0  0  0
   -3.7294   22.7829  -32.0736 H   0  0  0  0  0  0  0  0  0  0  0  0
   -0.8963   22.5842  -30.5761 H   0  0  0  0  0  0  0  0  0  0  0  0
   -0.6591   20.2701  -29.6853 H   0  0  0  0  0  0  0  0  0  0  0  0
   -3.5899   21.1320  -26.6314 H   0  0  0  0  0  0  0  0  0  0  0  0
  1  2  2  0
  2  3  1  0
  3  4  1  0
  4  5  2  0
  5  6  1  0
  6  7  2  0
  7  8  1  0
  8  9  2  0
  8 10  2  0
  8 11  1  0
 11 12  2  3
 12 13  1  0
 13 14  2  0
 14 15  1  0
 15 16  2  0
 16 17  1  0
  7 18  1  0
 18 19  2  0
  2 20  1  0
 20 21  2  0
 21 22  1  0
 22 23  2  0
 23 24  1  0
 23 25  1  0
 25 26  2  0
 26 27  1  0
 19  4  1  0
 26 20  1  0
 17 12  1  0
  5 28  1  0
  6 29  1  0
 13 30  1  0
 14 31  1  0
 15 32  1  0
 16 33  1  0
 18 34  1  0
 19 35  1  0
 21 36  1  0
 22 37  1  0
 25 38  1  0
M  CHG  2   3  -1  17  -1
M  END
>  <UniqueID>  (25) 
25

>  <SMILES>  (25) 
O=C([N-]c1ccc(S(=O)(=O)N=c2cccc[n-]2)cc1)c1ccc(F)cc1Cl

>  <Energy>  (25) 
55.55526379916452

>  <Genealogy>  (25) 
O=C([N-]c1ccc(S(=O)(=O)N=c2cccc[n-]2)cc1)c1ccc(F)cc1Cl (protonated)
O=C([N-]c1ccc(S(=O)(=O)N=c2cccc[n-]2)cc1)c1ccc(F)cc1Cl (3D coordinates assigned)
O=C([N-]c1ccc(S(=O)(=O)N=c2cccc[n-]2)cc1)c1ccc(F)cc1Cl (optimized conformer: 55.55526379916452 kcal/mol)

>  <smiles>  (25) 
O=C(Nc1ccc(S(=O)(=O)N=c2cccc[nH]2)cc1)c1ccc(F)cc1Cl

>  <score_type>  (25) 
oracle

>  <origin>  (25) 
adgpu

>  <m_score__min__energy>  (25) 
-10.93

>  <m_primary>  (25) 
energy

$$$$
25:0
     RDKit          3D

 93 97  0  0  1  0  0  0  0  0999 V2000
   -7.6760   21.7610  -31.2660 C   0  0  0  0  0  0  0  0  0  0  0  0
   -6.9290   20.7680  -32.0660 C   0  0  0  0  0  0  0  0  0  0  0  0
   -7.5710   19.7230  -32.6980 C   0  0  0  0  0  0  0  0  0  0  0  0
   -6.8300   18.8030  -33.4470 C   0  0  0  0  0  0  0  0  0  0  0  0
   -5.4570   18.9090  -33.5740 C   0  0  0  0  0  0  0  0  0  0  0  0
   -4.7530   17.8900  -34.3850 C   0  0  0  0  0  0  0  0  0  0  0  0
   -5.4540   17.2640  -35.1900 O   0  0  0  0  0  0  0  0  0  0  0  0
   -3.3740   17.6420  -34.2580 N   0  0  0  0  0  0  0  0  0  0  0  0
   -2.6120   16.7020  -34.9770 C   0  0  0  0  0  0  0  0  0  0  0  0
   -1.2570   16.7390  -35.1680 C   0  0  0  0  0  0  0  0  0  0  0  0
   -0.5590   15.7690  -35.8980 C   0  0  0  0  0  0  0  0  0  0  0  0
    0.8930   15.8960  -36.0460 C   0  0  0  0  0  0  0  0  0  0  0  0
    1.3690   17.1890  -35.3710 C   0  0  0  0  0  0  0  0  0  0  0  0
    1.2980   16.0390  -37.3730 F   0  0  0  0  0  0  0  0  0  0  0  0
    1.6120   14.8960  -35.3920 F   0  0  0  0  0  0  0  0  0  0  0  0
   -1.2700   14.6930  -36.4730 C   0  0  0  0  0  0  0  0  0  0  0  0
   -0.5120   13.7250  -37.1760 N   0  0  0  0  0  0  0  0  0  0  0  0
   -0.4900   13.8600  -38.6450 C   0  0  0  0  0  0  0  0  0  0  0  0
    0.1780   12.6130  -36.6290 C   0  0  0  0  0  0  0  0  0  0  0  0
   -0.2730   12.0700  -35.3270 C   0  0  0  0  0  0  0  0  0  0  0  0
   -0.2150   13.0130  -34.2220 N   0  0  0  0  0  0  0  0  0  0  0  0
   -1.4180   12.8360  -33.3870 C   0  0  0  0  0  0  0  0  0  0  0  0
    0.8770   12.5750  -33.3370 C   0  0  0  0  0  0  0  0  0  0  0  0
   -2.6300   14.6500  -36.2860 C   0  0  0  0  0  0  0  0  0  0  0  0
   -3.4570   13.5720  -36.8660 C   0  0  0  0  0  0  0  0  0  0  0  0
   -3.6460   13.7020  -38.2270 F   0  0  0  0  0  0  0  0  0  0  0  0
   -4.6140   13.3370  -36.1810 F   0  0  0  0  0  0  0  0  0  0  0  0
   -2.7360   12.3530  -36.7610 F   0  0  0  0  0  0  0  0  0  0  0  0
   -3.2770   15.6300  -35.5580 C   0  0  0  0  0  0  0  0  0  0  0  0
   -4.8350   19.9380  -32.9500 C   0  0  0  0  0  0  0  0  0  0  0  0
   -5.5570   20.8630  -32.2010 C   0  0  0  0  0  0  0  0  0  0  0  0
   -4.9160   21.9490  -31.5410 N   0  0  0  0  0  0  0  0  0  0  0  0
   -3.8580   21.7040  -30.8460 C   0  0  0  0  0  0  0  0  0  0  0  0
   -3.3230   20.4800  -30.7060 N   0  0  0  0  0  0  0  0  0  0  0  0
   -2.2240   20.2360  -29.9820 C   0  0  0  0  0  0  0  0  0  0  0  0
   -1.6180   21.2860  -29.3550 N   0  0  0  0  0  0  0  0  0  0  0  0
   -2.1310   22.5330  -29.4730 C   0  0  0  0  0  0  0  0  0  0  0  0
   -1.5210   23.6000  -28.8390 C   0  0  0  0  0  0  0  0  0  0  0  0
   -2.0190   24.8970  -28.9380 C   0  0  0  0  0  0  0  0  0  0  0  0
   -1.4090   25.8760  -28.3210 N   0  0  0  0  0  0  0  0  0  0  0  0
   -0.2230   25.6110  -27.5420 C   0  0  0  0  0  0  0  0  0  0  0  0
   -0.6130   25.3160  -26.1350 C   0  0  0  0  0  0  0  0  0  0  0  0
    0.1340   24.2870  -25.4800 N   0  0  0  0  0  0  0  0  0  0  0  0
   -0.5520   23.9860  -24.2370 C   0  0  0  0  0  0  0  0  0  0  0  0
   -0.2020   22.5800  -23.8370 C   0  0  0  0  0  0  0  0  0  0  0  0
   -0.8580   21.6660  -24.6590 O   0  0  0  0  0  0  0  0  0  0  0  0
   -0.9190   22.1950  -25.9450 C   0  0  0  0  0  0  0  0  0  0  0  0
    0.2750   23.0830  -26.2270 C   0  0  0  0  0  0  0  0  0  0  0  0
   -3.1270   25.1070  -29.6760 N   0  0  0  0  0  0  0  0  0  0  0  0
   -3.7410   24.0690  -30.3060 C   0  0  0  0  0  0  0  0  0  0  0  0
   -3.2640   22.7790  -30.2210 C   0  0  0  0  0  0  0  0  0  0  0  0
   -7.5238   21.5587  -30.1955 H   0  0  0  0  0  0  0  0  0  0  0  0
   -7.3123   22.7716  -31.5035 H   0  0  0  0  0  0  0  0  0  0  0  0
   -8.7478   21.6918  -31.5035 H   0  0  0  0  0  0  0  0  0  0  0  0
   -8.6623   19.6137  -32.6131 H   0  0  0  0  0  0  0  0  0  0  0  0
   -7.3524   17.9744  -33.9475 H   0  0  0  0  0  0  0  0  0  0  0  0
   -2.8740   18.2390  -33.5350 H   0  0  0  0  0  0  0  0  0  0  0  0
   -0.6889   17.5711  -34.7266 H   0  0  0  0  0  0  0  0  0  0  0  0
    1.3251   17.0698  -34.2784 H   0  0  0  0  0  0  0  0  0  0  0  0
    2.4044   17.4018  -35.6754 H   0  0  0  0  0  0  0  0  0  0  0  0
    0.7187   18.0224  -35.6754 H   0  0  0  0  0  0  0  0  0  0  0  0
   -0.3184   14.9127  -38.9139 H   0  0  0  0  0  0  0  0  0  0  0  0
    0.3189   13.2395  -39.0582 H   0  0  0  0  0  0  0  0  0  0  0  0
   -1.4540   13.5284  -39.0582 H   0  0  0  0  0  0  0  0  0  0  0  0
    0.1095   11.7960  -37.3624 H   0  0  0  0  0  0  0  0  0  0  0  0
    1.1878   12.9981  -36.4240 H   0  0  0  0  0  0  0  0  0  0  0  0
   -1.3151   11.7358  -35.4377 H   0  0  0  0  0  0  0  0  0  0  0  0
    0.4193   11.2532  -35.0747 H   0  0  0  0  0  0  0  0  0  0  0  0
   -1.1362   12.8775  -32.3245 H   0  0  0  0  0  0  0  0  0  0  0  0
   -2.1382   13.6379  -33.6069 H   0  0  0  0  0  0  0  0  0  0  0  0
   -1.8767   11.8607  -33.6069 H   0  0  0  0  0  0  0  0  0  0  0  0
    0.5704   12.6980  -32.2878 H   0  0  0  0  0  0  0  0  0  0  0  0
    1.1039   11.5163  -33.5310 H   0  0  0  0  0  0  0  0  0  0  0  0
    1.7726   13.1835  -33.5310 H   0  0  0  0  0  0  0  0  0  0  0  0
   -4.3675   15.5580  -35.4330 H   0  0  0  0  0  0  0  0  0  0  0  0
   -3.7436   20.0442  -33.0364 H   0  0  0  0  0  0  0  0  0  0  0  0
   -1.8200   19.2166  -29.8947 H   0  0  0  0  0  0  0  0  0  0  0  0
   -0.7470   21.1130  -28.7780 H   0  0  0  0  0  0  0  0  0  0  0  0
   -0.6167   23.4192  -28.2394 H   0  0  0  0  0  0  0  0  0  0  0  0
    0.3085   24.7458  -27.9649 H   0  0  0  0  0  0  0  0  0  0  0  0
    0.4365   26.4911  -27.5644 H   0  0  0  0  0  0  0  0  0  0  0  0
   -0.4944   26.2411  -25.5518 H   0  0  0  0  0  0  0  0  0  0  0  0
   -1.6474   24.9453  -26.1854 H   0  0  0  0  0  0  0  0  0  0  0  0
   -0.2288   24.6875  -23.4538 H   0  0  0  0  0  0  0  0  0  0  0  0
   -1.6396   24.0842  -24.3694 H   0  0  0  0  0  0  0  0  0  0  0  0
    0.8847   22.4363  -23.9293 H   0  0  0  0  0  0  0  0  0  0  0  0
   -0.5168   22.4152  -22.7960 H   0  0  0  0  0  0  0  0  0  0  0  0
   -0.9328   21.3700  -26.6725 H   0  0  0  0  0  0  0  0  0  0  0  0
   -1.8329   22.8012  -26.0302 H   0  0  0  0  0  0  0  0  0  0  0  0
    1.1991   22.5672  -25.9271 H   0  0  0  0  0  0  0  0  0  0  0  0
    0.3267   23.3121  -27.3016 H   0  0  0  0  0  0  0  0  0  0  0  0
   -3.5320   26.0730  -29.7720 H   0  0  0  0  0  0  0  0  0  0  0  0
   -4.6451   24.2655  -30.9009 H   0  0  0  0  0  0  0  0  0  0  0  0
  1  2  1  0
  2  3  2  0
  3  4  1  0
  4  5  2  0
  5  6  1  0
  6  7  2  0
  6  8  1  0
  8  9  1  0
  9 10  2  0
 10 11  1  0
 11 12  1  0
 12 13  1  0
 12 14  1  0
 12 15  1  0
 11 16  2  0
 16 17  1  0
 17 18  1  0
 17 19  1  0
 19 20  1  0
 20 21  1  0
 21 22  1  0
 21 23  1  0
 16 24  1  0
 24 25  1  0
 25 26  1  0
 25 27  1  0
 25 28  1  0
 24 29  2  0
  5 30  1  0
 30 31  2  0
 31 32  1  0
 32 33  2  0
 33 34  1  0
 34 35  2  0
 35 36  1  0
 36 37  1  0
 37 38  2  0
 38 39  1  0
 39 40  2  0
 40 41  1  0
 41 42  1  0
 42 43  1  0
 43 44  1  0
 44 45  1  0
 45 46  1  0
 46 47  1  0
 47 48  1  0
 39 49  1  0
 49 50  1  0
 50 51  2  0
 31  2  1  0
 51 33  1  0
 29  9  1  0
 51 37  1  0
 48 43  1  0
  1 52  1  0
  1 53  1  0
  1 54  1  0
  3 55  1  0
  4 56  1  0
  8 57  1  0
 10 58  1  0
 13 59  1  0
 13 60  1  0
 13 61  1  0
 18 62  1  0
 18 63  1  0
 18 64  1  0
 19 65  1  0
 19 66  1  0
 20 67  1  0
 20 68  1  0
 22 69  1  0
 22 70  1  0
 22 71  1  0
 23 72  1  0
 23 73  1  0
 23 74  1  0
 29 75  1  0
 30 76  1  0
 35 77  1  0
 36 78  1  0
 38 79  1  0
 41 80  1  0
 41 81  1  0
 42 82  1  0
 42 83  1  0
 44 84  1  0
 44 85  1  0
 45 86  1  0
 45 87  1  0
 47 88  1  0
 47 89  1  0
 48 90  1  0
 48 91  1  0
 49 92  1  0
 50 93  1  0
M  END
>  <smiles>  (26) 
Cc1ccc(C(=O)Nc2cc(C(C)(F)F)c(N(C)CCN(C)C)c(C(F)(F)F)c2)cc1N=c1nc[nH]c2cc(=NCCN3CCOCC3)[nH]cc12

>  <score_type>  (26) 
oracle

>  <origin>  (26) 
adgpu

>  <m_score__min__energy>  (26) 
-8.7799999999999994

>  <m_primary>  (26) 
energy

$$$$
26:0
     RDKit          3D

 45 48  0  0  0  0  0  0  0  0999 V2000
   -2.1870   26.0410  -29.1060 H   0  0  0  0  0  0  0  0  0  0  0  0
   -2.3800   25.0440  -29.3540 N   0  0  0  0  0  0  0  0  0  0  0  0
   -3.4240   24.7080  -30.0410 C   0  0  0  0  0  0  0  0  0  0  0  0
   -4.3010   25.6590  -30.4600 N   0  0  0  0  0  0  0  0  0  0  0  0
   -5.4050   25.3420  -31.1880 C   0  0  0  0  0  0  0  0  0  0  0  0
   -6.0935   26.1352  -31.5148 H   0  0  0  0  0  0  0  0  0  0  0  0
   -5.6660   24.0130  -31.5210 C   0  0  0  0  0  0  0  0  0  0  0  0
   -6.5537   23.7568  -32.1179 H   0  0  0  0  0  0  0  0  0  0  0  0
   -4.7910   23.0050  -31.0910 C   0  0  0  0  0  0  0  0  0  0  0  0
   -5.0530   21.5940  -31.4490 C   0  0  0  0  0  0  0  0  0  0  0  0
   -4.2010   20.7190  -32.1240 C   0  0  0  0  0  0  0  0  0  0  0  0
   -2.7850   20.9230  -32.5010 C   0  0  0  0  0  0  0  0  0  0  0  0
   -1.8070   21.1630  -31.5220 C   0  0  0  0  0  0  0  0  0  0  0  0
   -2.0952   21.2065  -30.4613 H   0  0  0  0  0  0  0  0  0  0  0  0
   -0.4700   21.3470  -31.8860 C   0  0  0  0  0  0  0  0  0  0  0  0
    0.2858   21.5451  -31.1117 H   0  0  0  0  0  0  0  0  0  0  0  0
   -0.0860   21.2800  -33.2390 C   0  0  0  0  0  0  0  0  0  0  0  0
    1.2400   21.4600  -33.6540 O   0  0  0  0  0  0  0  0  0  0  0  0
    1.8770   20.6910  -34.6690 C   0  0  0  0  0  0  0  0  0  0  0  0
    2.5126   19.9236  -34.2031 H   0  0  0  0  0  0  0  0  0  0  0  0
    1.1136   20.2047  -35.2940 H   0  0  0  0  0  0  0  0  0  0  0  0
    2.4969   21.3506  -35.2940 H   0  0  0  0  0  0  0  0  0  0  0  0
   -1.0600   21.0230  -34.2110 C   0  0  0  0  0  0  0  0  0  0  0  0
   -0.7704   20.9654  -35.2706 H   0  0  0  0  0  0  0  0  0  0  0  0
   -2.3960   20.8390  -33.8480 C   0  0  0  0  0  0  0  0  0  0  0  0
   -3.1484   20.6269  -34.6219 H   0  0  0  0  0  0  0  0  0  0  0  0
   -4.9080   19.5430  -32.3050 C   0  0  0  0  0  0  0  0  0  0  0  0
   -4.5572   18.6313  -32.8107 H   0  0  0  0  0  0  0  0  0  0  0  0
   -6.1410   19.7460  -31.7230 C   0  0  0  0  0  0  0  0  0  0  0  0
   -7.4490   18.5300  -31.6250 S   0  0  0  0  0  0  0  0  0  0  0  0
   -6.4810   17.3060  -32.5050 C   0  0  0  0  0  0  0  0  0  0  0  0
   -6.4050   17.3450  -33.9030 C   0  0  0  0  0  0  0  0  0  0  0  0
   -6.9471   18.1222  -34.4616 H   0  0  0  0  0  0  0  0  0  0  0  0
   -5.6400   16.3960  -34.5890 C   0  0  0  0  0  0  0  0  0  0  0  0
   -5.5805   16.4280  -35.6869 H   0  0  0  0  0  0  0  0  0  0  0  0
   -4.9510   15.4070  -33.8810 C   0  0  0  0  0  0  0  0  0  0  0  0
   -4.3494   14.6619  -34.4222 H   0  0  0  0  0  0  0  0  0  0  0  0
   -5.0260   15.3640  -32.4840 C   0  0  0  0  0  0  0  0  0  0  0  0
   -4.1600   14.1260  -31.5940 Cl  0  0  0  0  0  0  0  0  0  0  0  0
   -5.7930   16.3130  -31.7970 C   0  0  0  0  0  0  0  0  0  0  0  0
   -5.8551   16.2783  -30.6993 H   0  0  0  0  0  0  0  0  0  0  0  0
   -6.2300   20.9830  -31.2050 N   0  0  0  0  0  0  0  0  0  0  0  0
   -7.0620   21.3920  -30.7250 H   0  0  0  0  0  0  0  0  0  0  0  0
   -3.6500   23.3630  -30.3560 C   0  0  0  0  0  0  0  0  0  0  0  0
   -2.9376   22.5911  -30.0295 H   0  0  0  0  0  0  0  0  0  0  0  0
  1  2  1  0
  2  3  2  0
  3  4  1  0
  4  5  1  0
  5  6  1  0
  5  7  2  0
  7  8  1  0
  7  9  1  0
  9 10  1  0
 10 11  2  0
 11 12  1  0
 12 13  2  0
 13 14  1  0
 13 15  1  0
 15 16  1  0
 15 17  2  0
 17 18  1  0
 18 19  1  0
 19 20  1  0
 19 21  1  0
 19 22  1  0
 17 23  1  0
 23 24  1  0
 23 25  2  0
 25 26  1  0
 11 27  1  0
 27 28  1  0
 27 29  2  0
 29 30  1  0
 30 31  1  0
 31 32  2  0
 32 33  1  0
 32 34  1  0
 34 35  1  0
 34 36  2  0
 36 37  1  0
 36 38  1  0
 38 39  1  0
 38 40  2  0
 40 41  1  0
 29 42  1  0
 42 43  1  0
  9 44  2  0
 44 45  1  0
 44  3  1  0
 42 10  1  0
 25 12  1  0
 40 31  1  0
M  CHG  1   4  -1
M  END
>  <UniqueID>  (27) 
26

>  <SMILES>  (27) 
[H]/N=c1/cc(-c2[nH]c(Sc3cccc(Cl)c3)cc2-c2ccc(OC)cc2)cc[n-]1

>  <Energy>  (27) 
78.30182833318989

>  <Genealogy>  (27) 
COc1ccc(-c2cc(Sc3cccc(Cl)c3)[nH]c2-c2cc[n-]c(=N)c2)cc1 (protonated)
[H]/N=c1/cc(-c2[nH]c(Sc3cccc(Cl)c3)cc2-c2ccc(OC)cc2)cc[n-]1 (cis-trans isomerization)
[H]/N=c1/cc(-c2[nH]c(Sc3cccc(Cl)c3)cc2-c2ccc(OC)cc2)cc[n-]1 (3D coordinates assigned)
[H]/N=c1/cc(-c2[nH]c(Sc3cccc(Cl)c3)cc2-c2ccc(OC)cc2)cc[n-]1 (optimized conformer: 78.30182833318989 kcal/mol)

>  <smiles>  (27) 
COc1ccc(-c2cc(Sc3cccc(Cl)c3)[nH]c2-c2cc[nH]c(=N)c2)cc1

>  <score_type>  (27) 
oracle

>  <origin>  (27) 
adgpu

>  <m_score__min__energy>  (27) 
-10.51

>  <m_primary>  (27) 
energy

$$$$
27:0
     RDKit          3D

 45 46  0  0  0  0  0  0  0  0999 V2000
    0.1470   19.7930  -28.1540 C   0  0  0  0  0  0  0  0  0  0  0  0
    0.2020   21.2110  -28.2820 O   0  0  0  0  0  0  0  0  0  0  0  0
   -0.8900   22.0130  -28.6340 C   0  0  0  0  0  0  0  0  0  0  0  0
   -2.1220   21.4700  -29.0330 C   0  0  0  0  0  0  0  0  0  0  0  0
   -3.1630   22.3070  -29.4260 C   0  0  0  0  0  0  0  0  0  0  0  0
   -3.0010   23.7040  -29.4180 C   0  0  0  0  0  0  0  0  0  0  0  0
   -4.0920   24.5760  -29.9100 C   0  0  0  0  0  0  0  0  0  0  0  0
   -3.8630   25.4000  -30.8360 O   0  0  0  0  0  0  0  0  0  0  0  0
   -5.5090   24.4170  -29.4160 C   0  0  0  0  0  0  0  0  0  0  0  0
   -6.5270   24.6010  -30.5540 C   0  0  0  0  0  0  0  0  0  0  0  0
   -6.7610   23.3170  -31.3190 C   0  0  0  0  0  0  0  0  0  0  0  0
   -8.0150   22.6850  -31.2830 C   0  0  0  0  0  0  0  0  0  0  0  0
   -8.2000   21.4470  -31.9020 C   0  0  0  0  0  0  0  0  0  0  0  0
   -7.1360   20.8330  -32.5850 C   0  0  0  0  0  0  0  0  0  0  0  0
   -7.2780   19.5380  -33.1890 N   0  0  0  0  0  0  0  0  0  0  0  0
   -6.7280   18.3280  -32.6460 C   0  0  0  0  0  0  0  0  0  0  0  0
   -6.8830   17.0450  -33.3960 C   0  0  0  0  0  0  0  0  0  0  0  0
   -6.1740   18.3210  -31.5120 O   0  0  0  0  0  0  0  0  0  0  0  0
   -5.8830   21.4640  -32.6120 C   0  0  0  0  0  0  0  0  0  0  0  0
   -5.6960   22.6970  -31.9900 C   0  0  0  0  0  0  0  0  0  0  0  0
   -1.7780   24.2600  -28.9820 C   0  0  0  0  0  0  0  0  0  0  0  0
   -1.6250   25.6590  -28.9740 O   0  0  0  0  0  0  0  0  0  0  0  0
   -0.8640   26.3810  -28.0120 C   0  0  0  0  0  0  0  0  0  0  0  0
   -0.7310   23.4000  -28.5930 C   0  0  0  0  0  0  0  0  0  0  0  0
    0.1365   19.5212  -27.0882 H   0  0  0  0  0  0  0  0  0  0  0  0
   -0.7664   19.4163  -28.6375 H   0  0  0  0  0  0  0  0  0  0  0  0
    1.0285   19.3467  -28.6375 H   0  0  0  0  0  0  0  0  0  0  0  0
   -2.2652   20.3794  -29.0351 H   0  0  0  0  0  0  0  0  0  0  0  0
   -4.1212   21.8715  -29.7458 H   0  0  0  0  0  0  0  0  0  0  0  0
   -5.6279   23.4100  -28.9895 H   0  0  0  0  0  0  0  0  0  0  0  0
   -5.6980   25.1893  -28.6558 H   0  0  0  0  0  0  0  0  0  0  0  0
   -7.4822   24.9377  -30.1248 H   0  0  0  0  0  0  0  0  0  0  0  0
   -6.1213   25.3450  -31.2554 H   0  0  0  0  0  0  0  0  0  0  0  0
   -8.8561   23.1681  -30.7642 H   0  0  0  0  0  0  0  0  0  0  0  0
   -9.1808   20.9511  -31.8550 H   0  0  0  0  0  0  0  0  0  0  0  0
   -7.9210   19.4550  -34.0030 H   0  0  0  0  0  0  0  0  0  0  0  0
   -6.9835   16.2134  -32.6831 H   0  0  0  0  0  0  0  0  0  0  0  0
   -7.7815   17.0963  -34.0285 H   0  0  0  0  0  0  0  0  0  0  0  0
   -5.9982   16.8808  -34.0285 H   0  0  0  0  0  0  0  0  0  0  0  0
   -5.0406   20.9810  -33.1288 H   0  0  0  0  0  0  0  0  0  0  0  0
   -4.7110   23.1854  -32.0252 H   0  0  0  0  0  0  0  0  0  0  0  0
   -1.1765   26.0845  -26.9998 H   0  0  0  0  0  0  0  0  0  0  0  0
    0.2045   26.1567  -28.1463 H   0  0  0  0  0  0  0  0  0  0  0  0
   -1.0319   27.4598  -28.1463 H   0  0  0  0  0  0  0  0  0  0  0  0
    0.2239   23.8270  -28.2526 H   0  0  0  0  0  0  0  0  0  0  0  0
  1  2  1  0
  2  3  1  0
  3  4  2  0
  4  5  1  0
  5  6  2  0
  6  7  1  0
  7  8  2  0
  7  9  1  0
  9 10  1  0
 10 11  1  0
 11 12  2  0
 12 13  1  0
 13 14  2  0
 14 15  1  0
 15 16  1  0
 16 17  1  0
 16 18  2  0
 14 19  1  0
 19 20  2  0
  6 21  1  0
 21 22  1  0
 22 23  1  0
 21 24  2  0
 24  3  1  0
 20 11  1  0
  1 25  1  0
  1 26  1  0
  1 27  1  0
  4 28  1  0
  5 29  1  0
  9 30  1  0
  9 31  1  0
 10 32  1  0
 10 33  1  0
 12 34  1  0
 13 35  1  0
 15 36  1  0
 17 37  1  0
 17 38  1  0
 17 39  1  0
 19 40  1  0
 20 41  1  0
 23 42  1  0
 23 43  1  0
 23 44  1  0
 24 45  1  0
M  END
>  <UniqueID>  (28) 
27

>  <SMILES>  (28) 
COc1ccc(C(=O)CCc2ccc(NC(C)=O)cc2)c(OC)c1

>  <Energy>  (28) 
43.876247239471176

>  <Genealogy>  (28) 
COc1ccc(C(=O)CCc2ccc(NC(C)=O)cc2)c(OC)c1 (3D coordinates assigned)
COc1ccc(C(=O)CCc2ccc(NC(C)=O)cc2)c(OC)c1 (optimized conformer: 43.876247239471176 kcal/mol)

>  <smiles>  (28) 
COc1ccc(C(=O)CCc2ccc(NC(C)=O)cc2)c(OC)c1

>  <score_type>  (28) 
oracle

>  <origin>  (28) 
adgpu

>  <m_score__min__energy>  (28) 
-9.1099999999999994

>  <m_primary>  (28) 
energy

$$$$
28:0
     RDKit          3D

 37 38  0  0  0  0  0  0  0  0999 V2000
   -2.2910   23.3600  -28.9230 C   0  0  0  0  0  0  0  0  0  0  0  0
   -2.5510   24.7770  -29.3280 C   0  0  0  0  0  0  0  0  0  0  0  0
   -1.7230   25.6680  -28.9950 O   0  0  0  0  0  0  0  0  0  0  0  0
   -3.6880   25.1460  -30.1300 N   0  0  0  0  0  0  0  0  0  0  0  0
   -4.8650   24.3540  -30.3610 C   0  0  0  0  0  0  0  0  0  0  0  0
   -5.5560   24.5010  -31.5720 C   0  0  0  0  0  0  0  0  0  0  0  0
   -6.7080   23.7460  -31.8270 C   0  0  0  0  0  0  0  0  0  0  0  0
   -7.1920   22.8500  -30.8630 C   0  0  0  0  0  0  0  0  0  0  0  0
   -8.6260   21.8800  -31.2000 S   0  0  0  0  0  0  0  0  0  0  0  0
   -9.3890   22.4600  -32.3550 O   0  0  0  0  0  0  0  0  0  0  0  0
   -9.5180   21.8950  -29.9930 O   0  0  0  0  0  0  0  0  0  0  0  0
   -8.2120   20.2360  -31.5680 N   0  0  0  0  0  0  0  0  0  0  0  0
   -7.0720   19.8340  -32.3380 C   0  0  0  0  0  0  0  0  0  0  0  0
   -7.1470   18.6520  -33.0960 C   0  0  0  0  0  0  0  0  0  0  0  0
   -6.0700   18.2530  -33.8920 C   0  0  0  0  0  0  0  0  0  0  0  0
   -4.8860   19.0040  -33.8980 C   0  0  0  0  0  0  0  0  0  0  0  0
   -4.7800   20.1700  -33.1180 C   0  0  0  0  0  0  0  0  0  0  0  0
   -3.4730   20.9170  -33.0460 C   0  0  0  0  0  0  0  0  0  0  0  0
   -2.5750   20.4180  -34.0850 N   0  0  0  0  0  0  0  0  0  0  0  0
   -5.8830   20.5900  -32.3480 C   0  0  0  0  0  0  0  0  0  0  0  0
   -6.5220   22.7250  -29.6370 C   0  0  0  0  0  0  0  0  0  0  0  0
   -5.3720   23.4810  -29.3820 C   0  0  0  0  0  0  0  0  0  0  0  0
   -2.2779   23.2889  -27.8254 H   0  0  0  0  0  0  0  0  0  0  0  0
   -3.0854   22.7127  -29.3230 H   0  0  0  0  0  0  0  0  0  0  0  0
   -1.3186   23.0369  -29.3230 H   0  0  0  0  0  0  0  0  0  0  0  0
   -5.1913   25.2136  -32.3265 H   0  0  0  0  0  0  0  0  0  0  0  0
   -7.2346   23.8563  -32.7864 H   0  0  0  0  0  0  0  0  0  0  0  0
   -8.0589   18.0378  -33.0622 H   0  0  0  0  0  0  0  0  0  0  0  0
   -6.1511   17.3494  -34.5141 H   0  0  0  0  0  0  0  0  0  0  0  0
   -4.0356   18.6798  -34.5158 H   0  0  0  0  0  0  0  0  0  0  0  0
   -3.6542   21.9908  -33.2013 H   0  0  0  0  0  0  0  0  0  0  0  0
   -3.0147   20.7644  -32.0577 H   0  0  0  0  0  0  0  0  0  0  0  0
   -2.2470   21.2370  -34.6520 H   0  0  0  0  0  0  0  0  0  0  0  0
   -1.7320   20.0120  -33.6170 H   0  0  0  0  0  0  0  0  0  0  0  0
   -5.8154   21.5121  -31.7521 H   0  0  0  0  0  0  0  0  0  0  0  0
   -6.9017   22.0304  -28.8733 H   0  0  0  0  0  0  0  0  0  0  0  0
   -4.8624   23.3919  -28.4112 H   0  0  0  0  0  0  0  0  0  0  0  0
  1  2  1  0
  2  3  2  0
  2  4  1  0
  4  5  1  0
  5  6  2  0
  6  7  1  0
  7  8  2  0
  8  9  1  0
  9 10  2  0
  9 11  2  0
  9 12  1  0
 12 13  1  0
 13 14  2  0
 14 15  1  0
 15 16  2  0
 16 17  1  0
 17 18  1  0
 18 19  1  0
 17 20  2  0
  8 21  1  0
 21 22  2  0
 22  5  1  0
 20 13  1  0
  1 23  1  0
  1 24  1  0
  1 25  1  0
  6 26  1  0
  7 27  1  0
 14 28  1  0
 15 29  1  0
 16 30  1  0
 18 31  1  0
 18 32  1  0
 19 33  1  0
 19 34  1  0
 20 35  1  0
 21 36  1  0
 22 37  1  0
M  CHG  2   4  -1  12  -1
M  END
>  <UniqueID>  (29) 
28

>  <SMILES>  (29) 
CC(=O)[N-]c1ccc(S(=O)(=O)[N-]c2cccc(CN)c2)cc1

>  <Energy>  (29) 
43.732589675131784

>  <Genealogy>  (29) 
CC(=O)[N-]c1ccc(S(=O)(=O)[N-]c2cccc(CN)c2)cc1 (protonated)
CC(=O)[N-]c1ccc(S(=O)(=O)[N-]c2cccc(CN)c2)cc1 (3D coordinates assigned)
CC(=O)[N-]c1ccc(S(=O)(=O)[N-]c2cccc(CN)c2)cc1 (optimized conformer: 43.732589675131784 kcal/mol)

>  <smiles>  (29) 
CC(=O)Nc1ccc(S(=O)(=O)Nc2cccc(CN)c2)cc1

>  <score_type>  (29) 
oracle

>  <origin>  (29) 
adgpu

>  <m_score__min__energy>  (29) 
-10.19

>  <m_primary>  (29) 
energy

$$$$
29:0
     RDKit          3D

 39 41  0  0  0  0  0  0  0  0999 V2000
   -8.9950   21.3190  -30.7120 O   0  0  0  0  0  0  0  0  0  0  0  0
   -8.3100   22.1520  -31.7560 S   0  0  0  0  0  0  0  0  0  0  0  0
   -9.3060   23.0980  -32.3670 O   0  0  0  0  0  0  0  0  0  0  0  0
   -7.6780   21.1150  -32.9990 N   0  0  0  0  0  0  0  0  0  0  0  0
   -7.2650   19.9020  -32.7900 C   0  0  0  0  0  0  0  0  0  0  0  0
   -6.8190   19.1580  -33.8380 N   0  0  0  0  0  0  0  0  0  0  0  0
   -6.4040   17.8770  -33.6620 C   0  0  0  0  0  0  0  0  0  0  0  0
   -6.4330   17.3030  -32.3910 C   0  0  0  0  0  0  0  0  0  0  0  0
   -6.8870   18.0770  -31.3250 C   0  0  0  0  0  0  0  0  0  0  0  0
   -7.2910   19.3560  -31.5420 N   0  0  0  0  0  0  0  0  0  0  0  0
   -6.9880   23.0400  -31.0030 C   0  0  0  0  0  0  0  0  0  0  0  0
   -6.6050   22.7260  -29.6950 C   0  0  0  0  0  0  0  0  0  0  0  0
   -5.4670   23.3110  -29.1350 C   0  0  0  0  0  0  0  0  0  0  0  0
   -4.6970   24.2190  -29.8820 C   0  0  0  0  0  0  0  0  0  0  0  0
   -3.4580   24.7430  -29.3730 N   0  0  0  0  0  0  0  0  0  0  0  0
   -2.5140   23.9400  -28.5930 C   0  0  0  0  0  0  0  0  0  0  0  0
   -1.8080   24.8010  -27.5720 C   0  0  0  0  0  0  0  0  0  0  0  0
   -1.7240   24.3830  -26.2320 C   0  0  0  0  0  0  0  0  0  0  0  0
   -1.0180   25.1460  -25.2970 C   0  0  0  0  0  0  0  0  0  0  0  0
   -0.3950   26.3320  -25.6880 C   0  0  0  0  0  0  0  0  0  0  0  0
   -0.4760   26.7600  -27.0150 C   0  0  0  0  0  0  0  0  0  0  0  0
   -1.1770   26.0000  -27.9580 C   0  0  0  0  0  0  0  0  0  0  0  0
   -1.2370   26.4380  -29.2780 O   0  0  0  0  0  0  0  0  0  0  0  0
   -5.1220   24.5800  -31.1700 C   0  0  0  0  0  0  0  0  0  0  0  0
   -6.2580   23.9880  -31.7310 C   0  0  0  0  0  0  0  0  0  0  0  0
   -6.0450   17.2921  -34.5216 H   0  0  0  0  0  0  0  0  0  0  0  0
   -6.1055   16.2647  -32.2341 H   0  0  0  0  0  0  0  0  0  0  0  0
   -6.9183   17.6536  -30.3102 H   0  0  0  0  0  0  0  0  0  0  0  0
   -7.2024   22.0154  -29.1049 H   0  0  0  0  0  0  0  0  0  0  0  0
   -5.1723   23.0601  -28.1053 H   0  0  0  0  0  0  0  0  0  0  0  0
   -3.1250   25.6680  -29.7280 H   0  0  0  0  0  0  0  0  0  0  0  0
   -3.0614   23.1387  -28.0750 H   0  0  0  0  0  0  0  0  0  0  0  0
   -1.7658   23.5078  -29.2737 H   0  0  0  0  0  0  0  0  0  0  0  0
   -2.2163   23.4509  -25.9178 H   0  0  0  0  0  0  0  0  0  0  0  0
   -0.9535   24.8109  -24.2513 H   0  0  0  0  0  0  0  0  0  0  0  0
    0.1603   26.9302  -24.9505 H   0  0  0  0  0  0  0  0  0  0  0  0
    0.0126   27.6972  -27.3198 H   0  0  0  0  0  0  0  0  0  0  0  0
   -4.5586   25.3325  -31.7412 H   0  0  0  0  0  0  0  0  0  0  0  0
   -6.5787   24.2673  -32.7455 H   0  0  0  0  0  0  0  0  0  0  0  0
  1  2  2  0
  2  3  2  0
  2  4  1  0
  4  5  2  3
  5  6  1  0
  6  7  2  0
  7  8  1  0
  8  9  2  0
  9 10  1  0
  2 11  1  0
 11 12  2  0
 12 13  1  0
 13 14  2  0
 14 15  1  0
 15 16  1  0
 16 17  1  0
 17 18  2  0
 18 19  1  0
 19 20  2  0
 20 21  1  0
 21 22  2  0
 22 23  1  0
 14 24  1  0
 24 25  2  0
 10  5  1  0
 25 11  1  0
 22 17  1  0
  7 26  1  0
  8 27  1  0
  9 28  1  0
 12 29  1  0
 13 30  1  0
 15 31  1  0
 16 32  1  0
 16 33  1  0
 18 34  1  0
 19 35  1  0
 20 36  1  0
 21 37  1  0
 24 38  1  0
 25 39  1  0
M  CHG  2  10  -1  23  -1
M  END
>  <UniqueID>  (30) 
29

>  <SMILES>  (30) 
O=S(=O)(N=c1nccc[n-]1)c1ccc(NCc2ccccc2[O-])cc1

>  <Energy>  (30) 
44.79473512456952

>  <Genealogy>  (30) 
O=S(=O)(N=c1nccc[n-]1)c1ccc(NCc2ccccc2[O-])cc1 (protonated)
O=S(=O)(N=c1nccc[n-]1)c1ccc(NCc2ccccc2[O-])cc1 (3D coordinates assigned)
O=S(=O)(N=c1nccc[n-]1)c1ccc(NCc2ccccc2[O-])cc1 (optimized conformer: 44.79473512456952 kcal/mol)

>  <smiles>  (30) 
O=S(=O)(N=c1nccc[nH]1)c1ccc(NCc2ccccc2O)cc1

>  <score_type>  (30) 
oracle

>  <origin>  (30) 
adgpu

>  <m_score__min__energy>  (30) 
-11.76

>  <m_primary>  (30) 
energy

$$$$
30:0
     RDKit          3D

 44 46  0  0  0  0  0  0  0  0999 V2000
   -7.4860   13.4880  -34.4620 C   0  0  0  0  0  0  0  0  0  0  0  0
   -6.5000   14.5940  -34.2220 C   0  0  0  0  0  0  0  0  0  0  0  0
   -5.1610   14.2940  -33.9300 C   0  0  0  0  0  0  0  0  0  0  0  0
   -4.2490   15.3220  -33.6690 C   0  0  0  0  0  0  0  0  0  0  0  0
   -4.6640   16.6660  -33.6850 C   0  0  0  0  0  0  0  0  0  0  0  0
   -3.6970   17.7580  -33.4070 C   0  0  0  0  0  0  0  0  0  0  0  0
   -2.3270   17.4790  -33.2530 C   0  0  0  0  0  0  0  0  0  0  0  0
   -1.4190   18.5070  -32.9840 C   0  0  0  0  0  0  0  0  0  0  0  0
   -1.8650   19.8290  -32.8680 C   0  0  0  0  0  0  0  0  0  0  0  0
   -0.7410   21.1310  -32.4880 S   0  0  0  0  0  0  0  0  0  0  0  0
   -0.4840   21.9230  -33.7390 O   0  0  0  0  0  0  0  0  0  0  0  0
    0.5630   20.5830  -31.9800 O   0  0  0  0  0  0  0  0  0  0  0  0
   -1.4360   22.1680  -31.2830 N   0  0  0  0  0  0  0  0  0  0  0  0
   -1.8300   21.6910  -29.9840 C   0  0  0  0  0  0  0  0  0  0  0  0
   -1.3440   20.4590  -29.5090 C   0  0  0  0  0  0  0  0  0  0  0  0
   -1.7090   19.9860  -28.2480 C   0  0  0  0  0  0  0  0  0  0  0  0
   -2.5590   20.7390  -27.4400 C   0  0  0  0  0  0  0  0  0  0  0  0
   -3.0470   21.9660  -27.8900 C   0  0  0  0  0  0  0  0  0  0  0  0
   -2.6940   22.4550  -29.1590 C   0  0  0  0  0  0  0  0  0  0  0  0
   -3.3730   23.9950  -29.7030 S   0  0  0  0  0  0  0  0  0  0  0  0
   -2.3050   25.2870  -29.2790 N   0  0  0  0  0  0  0  0  0  0  0  0
   -3.5510   23.9910  -31.1950 O   0  0  0  0  0  0  0  0  0  0  0  0
   -4.7120   24.2110  -29.0550 O   0  0  0  0  0  0  0  0  0  0  0  0
   -3.2250   20.1150  -33.0250 C   0  0  0  0  0  0  0  0  0  0  0  0
   -4.1360   19.0900  -33.2910 C   0  0  0  0  0  0  0  0  0  0  0  0
   -6.0120   16.9590  -33.9600 C   0  0  0  0  0  0  0  0  0  0  0  0
   -6.9230   15.9300  -34.2200 C   0  0  0  0  0  0  0  0  0  0  0  0
   -7.8372   13.0941  -33.4969 H   0  0  0  0  0  0  0  0  0  0  0  0
   -8.3421   13.8774  -35.0325 H   0  0  0  0  0  0  0  0  0  0  0  0
   -7.0013   12.6820  -35.0325 H   0  0  0  0  0  0  0  0  0  0  0  0
   -4.8270   13.2462  -33.9062 H   0  0  0  0  0  0  0  0  0  0  0  0
   -3.1992   15.0776  -33.4495 H   0  0  0  0  0  0  0  0  0  0  0  0
   -1.9673   16.4435  -33.3450 H   0  0  0  0  0  0  0  0  0  0  0  0
   -0.3502   18.2765  -32.8630 H   0  0  0  0  0  0  0  0  0  0  0  0
   -1.6540   23.1450  -31.5730 H   0  0  0  0  0  0  0  0  0  0  0  0
   -0.6685   19.8618  -30.1390 H   0  0  0  0  0  0  0  0  0  0  0  0
   -1.3257   19.0185  -27.8915 H   0  0  0  0  0  0  0  0  0  0  0  0
   -2.8455   20.3653  -26.4459 H   0  0  0  0  0  0  0  0  0  0  0  0
   -3.7146   22.5563  -27.2451 H   0  0  0  0  0  0  0  0  0  0  0  0
   -1.6270   25.3910  -30.0660 H   0  0  0  0  0  0  0  0  0  0  0  0
   -3.5792   21.1528  -32.9385 H   0  0  0  0  0  0  0  0  0  0  0  0
   -5.2038   19.3256  -33.4106 H   0  0  0  0  0  0  0  0  0  0  0  0
   -6.3522   18.0050  -33.9707 H   0  0  0  0  0  0  0  0  0  0  0  0
   -7.9768   16.1707  -34.4239 H   0  0  0  0  0  0  0  0  0  0  0  0
  1  2  1  0
  2  3  2  0
  3  4  1  0
  4  5  2  0
  5  6  1  0
  6  7  2  0
  7  8  1  0
  8  9  2  0
  9 10  1  0
 10 11  2  0
 10 12  2  0
 10 13  1  0
 13 14  1  0
 14 15  2  0
 15 16  1  0
 16 17  2  0
 17 18  1  0
 18 19  2  0
 19 20  1  0
 20 21  1  0
 20 22  2  0
 20 23  2  0
  9 24  1  0
 24 25  2  0
  5 26  1  0
 26 27  2  0
 27  2  1  0
 25  6  1  0
 19 14  1  0
  1 28  1  0
  1 29  1  0
  1 30  1  0
  3 31  1  0
  4 32  1  0
  7 33  1  0
  8 34  1  0
 13 35  1  0
 15 36  1  0
 16 37  1  0
 17 38  1  0
 18 39  1  0
 21 40  1  0
 24 41  1  0
 25 42  1  0
 26 43  1  0
 27 44  1  0
M  CHG  1  21  -1
M  END
>  <UniqueID>  (31) 
30

>  <SMILES>  (31) 
Cc1ccc(-c2ccc(S(=O)(=O)Nc3ccccc3S([NH-])(=O)=O)cc2)cc1

>  <Energy>  (31) 
55.29852504182193

>  <Genealogy>  (31) 
Cc1ccc(-c2ccc(S(=O)(=O)Nc3ccccc3S([NH-])(=O)=O)cc2)cc1 (protonated)
Cc1ccc(-c2ccc(S(=O)(=O)Nc3ccccc3S([NH-])(=O)=O)cc2)cc1 (3D coordinates assigned)
Cc1ccc(-c2ccc(S(=O)(=O)Nc3ccccc3S([NH-])(=O)=O)cc2)cc1 (optimized conformer: 55.29852504182193 kcal/mol)

>  <smiles>  (31) 
Cc1ccc(-c2ccc(S(=O)(=O)Nc3ccccc3S(N)(=O)=O)cc2)cc1

>  <score_type>  (31) 
oracle

>  <origin>  (31) 
adgpu

>  <m_score__min__energy>  (31) 
-12.779999999999999

>  <m_primary>  (31) 
energy

$$$$
31:0
     RDKit          3D

 47 49  0  0  0  0  0  0  0  0999 V2000
    3.3530   14.4900  -26.3430 C   0  0  0  0  0  0  0  0  0  0  0  0
    3.5840   15.8770  -26.5680 O   0  0  0  0  0  0  0  0  0  0  0  0
    2.6270   16.7640  -27.0820 C   0  0  0  0  0  0  0  0  0  0  0  0
    2.9550   18.0620  -27.5130 C   0  0  0  0  0  0  0  0  0  0  0  0
    1.9630   18.9150  -28.0080 C   0  0  0  0  0  0  0  0  0  0  0  0
    0.6290   18.4790  -28.0950 C   0  0  0  0  0  0  0  0  0  0  0  0
   -0.4150   19.3490  -28.5660 N   0  0  0  0  0  0  0  0  0  0  0  0
   -0.2920   20.1830  -29.7310 C   0  0  0  0  0  0  0  0  0  0  0  0
    0.5140   19.8600  -30.6460 O   0  0  0  0  0  0  0  0  0  0  0  0
   -1.1360   21.3920  -29.8940 C   0  0  0  0  0  0  0  0  0  0  0  0
   -2.2410   21.3700  -30.7650 C   0  0  0  0  0  0  0  0  0  0  0  0
   -3.0330   22.5100  -30.9330 C   0  0  0  0  0  0  0  0  0  0  0  0
   -2.7350   23.6920  -30.2480 C   0  0  0  0  0  0  0  0  0  0  0  0
   -3.5680   24.8390  -30.4640 N   0  0  0  0  0  0  0  0  0  0  0  0
   -5.2180   24.9910  -29.9540 S   0  0  0  0  0  0  0  0  0  0  0  0
   -5.2840   24.9410  -28.4520 O   0  0  0  0  0  0  0  0  0  0  0  0
   -5.7540   26.3180  -30.4120 O   0  0  0  0  0  0  0  0  0  0  0  0
   -6.1880   23.7100  -30.6760 C   0  0  0  0  0  0  0  0  0  0  0  0
   -6.0230   23.3540  -32.0220 C   0  0  0  0  0  0  0  0  0  0  0  0
   -6.7980   22.3330  -32.5790 C   0  0  0  0  0  0  0  0  0  0  0  0
   -7.7500   21.6600  -31.7970 C   0  0  0  0  0  0  0  0  0  0  0  0
   -8.5580   20.5480  -32.3990 C   0  0  0  0  0  0  0  0  0  0  0  0
   -7.9060   22.0120  -30.4470 C   0  0  0  0  0  0  0  0  0  0  0  0
   -7.1330   23.0360  -29.8920 C   0  0  0  0  0  0  0  0  0  0  0  0
   -1.6240   23.7230  -29.3870 C   0  0  0  0  0  0  0  0  0  0  0  0
   -0.8330   22.5830  -29.2120 C   0  0  0  0  0  0  0  0  0  0  0  0
    0.3040   17.1870  -27.6540 C   0  0  0  0  0  0  0  0  0  0  0  0
    1.2970   16.3360  -27.1600 C   0  0  0  0  0  0  0  0  0  0  0  0
    3.3204   14.2945  -25.2610 H   0  0  0  0  0  0  0  0  0  0  0  0
    2.3941   14.1996  -26.7971 H   0  0  0  0  0  0  0  0  0  0  0  0
    4.1660   13.9045  -26.7971 H   0  0  0  0  0  0  0  0  0  0  0  0
    3.9977   18.4084  -27.4605 H   0  0  0  0  0  0  0  0  0  0  0  0
    2.2280   19.9326  -28.3310 H   0  0  0  0  0  0  0  0  0  0  0  0
   -1.3350   19.3240  -28.0690 H   0  0  0  0  0  0  0  0  0  0  0  0
   -2.4833   20.4500  -31.3173 H   0  0  0  0  0  0  0  0  0  0  0  0
   -3.8989   22.4767  -31.6106 H   0  0  0  0  0  0  0  0  0  0  0  0
   -5.2815   23.8798  -32.6414 H   0  0  0  0  0  0  0  0  0  0  0  0
   -6.6614   22.0556  -33.6346 H   0  0  0  0  0  0  0  0  0  0  0  0
   -9.0000   19.9397  -31.5961 H   0  0  0  0  0  0  0  0  0  0  0  0
   -9.3597   20.9725  -33.0211 H   0  0  0  0  0  0  0  0  0  0  0  0
   -7.9066   19.9166  -33.0211 H   0  0  0  0  0  0  0  0  0  0  0  0
   -8.6395   21.4799  -29.8234 H   0  0  0  0  0  0  0  0  0  0  0  0
   -7.2673   23.3134  -28.8361 H   0  0  0  0  0  0  0  0  0  0  0  0
   -1.3755   24.6491  -28.8480 H   0  0  0  0  0  0  0  0  0  0  0  0
    0.0333   22.6188  -28.5351 H   0  0  0  0  0  0  0  0  0  0  0  0
   -0.7394   16.8415  -27.6973 H   0  0  0  0  0  0  0  0  0  0  0  0
    1.0306   15.3211  -26.8297 H   0  0  0  0  0  0  0  0  0  0  0  0
  1  2  1  0
  2  3  1  0
  3  4  2  0
  4  5  1  0
  5  6  2  0
  6  7  1  0
  7  8  1  0
  8  9  2  0
  8 10  1  0
 10 11  2  0
 11 12  1  0
 12 13  2  0
 13 14  1  0
 14 15  1  0
 15 16  2  0
 15 17  2  0
 15 18  1  0
 18 19  2  0
 19 20  1  0
 20 21  2  0
 21 22  1  0
 21 23  1  0
 23 24  2  0
 13 25  1  0
 25 26  2  0
  6 27  1  0
 27 28  2  0
 28  3  1  0
 26 10  1  0
 24 18  1  0
  1 29  1  0
  1 30  1  0
  1 31  1  0
  4 32  1  0
  5 33  1  0
  7 34  1  0
 11 35  1  0
 12 36  1  0
 19 37  1  0
 20 38  1  0
 22 39  1  0
 22 40  1  0
 22 41  1  0
 23 42  1  0
 24 43  1  0
 25 44  1  0
 26 45  1  0
 27 46  1  0
 28 47  1  0
M  CHG  1  14  -1
M  END
>  <UniqueID>  (32) 
31

>  <SMILES>  (32) 
COc1ccc(NC(=O)c2ccc([N-]S(=O)(=O)c3ccc(C)cc3)cc2)cc1

>  <Energy>  (32) 
57.01119082229078

>  <Genealogy>  (32) 
COc1ccc(NC(=O)c2ccc([N-]S(=O)(=O)c3ccc(C)cc3)cc2)cc1 (protonated)
COc1ccc(NC(=O)c2ccc([N-]S(=O)(=O)c3ccc(C)cc3)cc2)cc1 (3D coordinates assigned)
COc1ccc(NC(=O)c2ccc([N-]S(=O)(=O)c3ccc(C)cc3)cc2)cc1 (optimized conformer: 57.01119082229078 kcal/mol)

>  <smiles>  (32) 
COc1ccc(NC(=O)c2ccc(NS(=O)(=O)c3ccc(C)cc3)cc2)cc1

>  <score_type>  (32) 
oracle

>  <origin>  (32) 
adgpu

>  <m_score__min__energy>  (32) 
-9.8900000000000006

>  <m_primary>  (32) 
energy

$$$$
32:0
     RDKit          3D

 36 38  0  0  0  0  0  0  0  0999 V2000
   -0.8350   22.8062  -28.6008 H   0  0  0  0  0  0  0  0  0  0  0  0
   -1.7560   23.2140  -29.0430 C   0  0  0  0  0  0  0  0  0  0  0  0
   -2.6310   22.5280  -30.3060 S   0  0  0  0  0  0  0  0  0  0  0  0
   -3.7980   23.7460  -30.3070 C   0  0  0  0  0  0  0  0  0  0  0  0
   -4.8370   23.8300  -31.0870 N   0  0  0  0  0  0  0  0  0  0  0  0
   -5.2350   22.9170  -32.1260 C   0  0  0  0  0  0  0  0  0  0  0  0
   -4.4620   22.6620  -33.0900 O   0  0  0  0  0  0  0  0  0  0  0  0
   -6.5670   22.2710  -32.0640 C   0  0  0  0  0  0  0  0  0  0  0  0
   -6.7200   20.9080  -32.3850 C   0  0  0  0  0  0  0  0  0  0  0  0
   -5.8431   20.3159  -32.6857 H   0  0  0  0  0  0  0  0  0  0  0  0
   -7.9800   20.3020  -32.3240 C   0  0  0  0  0  0  0  0  0  0  0  0
   -8.0894   19.2369  -32.5761 H   0  0  0  0  0  0  0  0  0  0  0  0
   -9.0980   21.0460  -31.9440 C   0  0  0  0  0  0  0  0  0  0  0  0
  -10.0872   20.5672  -31.8972 H   0  0  0  0  0  0  0  0  0  0  0  0
   -8.9610   22.3990  -31.6230 C   0  0  0  0  0  0  0  0  0  0  0  0
   -9.8428   22.9845  -31.3235 H   0  0  0  0  0  0  0  0  0  0  0  0
   -7.7040   23.0100  -31.6820 C   0  0  0  0  0  0  0  0  0  0  0  0
   -7.6026   24.0755  -31.4282 H   0  0  0  0  0  0  0  0  0  0  0  0
   -3.5320   24.6730  -29.3620 N   0  0  0  0  0  0  0  0  0  0  0  0
   -4.1480   25.4970  -29.1850 H   0  0  0  0  0  0  0  0  0  0  0  0
   -2.4010   24.3920  -28.6520 C   0  0  0  0  0  0  0  0  0  0  0  0
   -1.9040   25.2680  -27.5610 C   0  0  0  0  0  0  0  0  0  0  0  0
   -2.4680   25.2030  -26.2760 C   0  0  0  0  0  0  0  0  0  0  0  0
   -3.2853   24.4952  -26.0733 H   0  0  0  0  0  0  0  0  0  0  0  0
   -1.9980   26.0310  -25.2540 C   0  0  0  0  0  0  0  0  0  0  0  0
   -2.4511   25.9683  -24.2536 H   0  0  0  0  0  0  0  0  0  0  0  0
   -0.9590   26.9390  -25.4850 C   0  0  0  0  0  0  0  0  0  0  0  0
   -0.5430   27.7360  -24.4060 O   0  0  0  0  0  0  0  0  0  0  0  0
    0.2330   27.2910  -23.2980 C   0  0  0  0  0  0  0  0  0  0  0  0
   -0.2672   27.5778  -22.3612 H   0  0  0  0  0  0  0  0  0  0  0  0
    0.3360   26.1966  -23.3384 H   0  0  0  0  0  0  0  0  0  0  0  0
    1.2296   27.7548  -23.3384 H   0  0  0  0  0  0  0  0  0  0  0  0
   -0.3860   27.0070  -26.7750 C   0  0  0  0  0  0  0  0  0  0  0  0
    0.6280   27.8590  -27.0600 F   0  0  0  0  0  0  0  0  0  0  0  0
   -0.8590   26.1780  -27.7970 C   0  0  0  0  0  0  0  0  0  0  0  0
   -0.4076   26.2388  -28.7983 H   0  0  0  0  0  0  0  0  0  0  0  0
  1  2  1  0
  2  3  1  0
  3  4  1  0
  4  5  2  0
  5  6  1  0
  6  7  2  0
  6  8  1  0
  8  9  2  0
  9 10  1  0
  9 11  1  0
 11 12  1  0
 11 13  2  0
 13 14  1  0
 13 15  1  0
 15 16  1  0
 15 17  2  0
 17 18  1  0
  4 19  1  0
 19 20  1  0
 19 21  1  0
 21 22  1  0
 22 23  2  0
 23 24  1  0
 23 25  1  0
 25 26  1  0
 25 27  2  0
 27 28  1  0
 28 29  1  0
 29 30  1  0
 29 31  1  0
 29 32  1  0
 27 33  1  0
 33 34  1  0
 33 35  2  0
 35 36  1  0
 21  2  2  0
 35 22  1  0
 17  8  1  0
M  END
>  <UniqueID>  (33) 
32

>  <SMILES>  (33) 
COc1ccc(-c2cs/c(=N\C(=O)c3ccccc3)[nH]2)cc1F

>  <Energy>  (33) 
77.55548626657871

>  <Genealogy>  (33) 
COc1ccc(-c2cs/c(=N\C(=O)c3ccccc3)[nH]2)cc1F (cis-trans isomerization)
COc1ccc(-c2cs/c(=N\C(=O)c3ccccc3)[nH]2)cc1F (3D coordinates assigned)
COc1ccc(-c2cs/c(=N\C(=O)c3ccccc3)[nH]2)cc1F (optimized conformer: 77.55548626657871 kcal/mol)

>  <smiles>  (33) 
COc1ccc(-c2csc(=NC(=O)c3ccccc3)[nH]2)cc1F

>  <score_type>  (33) 
oracle

>  <origin>  (33) 
adgpu

>  <m_score__min__energy>  (33) 
-7.8499999999999996

>  <m_primary>  (33) 
energy

$$$$
33:0
     RDKit          3D

 37 39  0  0  0  0  0  0  0  0999 V2000
   -3.8840   26.2640  -30.7620 H   0  0  0  0  0  0  0  0  0  0  0  0
   -3.9830   25.2400  -30.5820 N   0  0  0  0  0  0  0  0  0  0  0  0
   -3.1150   24.5870  -29.8770 C   0  0  0  0  0  0  0  0  0  0  0  0
   -2.0570   25.2490  -29.3340 N   0  0  0  0  0  0  0  0  0  0  0  0
   -1.1520   24.6200  -28.5380 C   0  0  0  0  0  0  0  0  0  0  0  0
   -0.0640   25.3100  -27.9910 O   0  0  0  0  0  0  0  0  0  0  0  0
   -0.1360   26.0800  -26.7910 C   0  0  0  0  0  0  0  0  0  0  0  0
    0.7542   25.8879  -26.1741 H   0  0  0  0  0  0  0  0  0  0  0  0
   -1.3880   25.6740  -26.0170 C   0  0  0  0  0  0  0  0  0  0  0  0
   -1.1886   25.7387  -24.9372 H   0  0  0  0  0  0  0  0  0  0  0  0
   -2.2157   26.3498  -26.2781 H   0  0  0  0  0  0  0  0  0  0  0  0
   -1.6616   24.6411  -26.2781 H   0  0  0  0  0  0  0  0  0  0  0  0
   -0.1710   27.5750  -27.1210 C   0  0  0  0  0  0  0  0  0  0  0  0
   -0.1846   28.1564  -26.1873 H   0  0  0  0  0  0  0  0  0  0  0  0
    0.7211   27.8423  -27.7064 H   0  0  0  0  0  0  0  0  0  0  0  0
   -1.0747   27.8002  -27.7064 H   0  0  0  0  0  0  0  0  0  0  0  0
   -1.3170   23.2630  -28.2620 C   0  0  0  0  0  0  0  0  0  0  0  0
   -0.6015   22.7384  -27.6117 H   0  0  0  0  0  0  0  0  0  0  0  0
   -2.3690   22.5940  -28.8030 N   0  0  0  0  0  0  0  0  0  0  0  0
   -3.2690   23.2080  -29.6200 C   0  0  0  0  0  0  0  0  0  0  0  0
   -4.3820   22.4050  -30.1650 C   0  0  0  0  0  0  0  0  0  0  0  0
   -4.2110   21.1660  -30.3210 O   0  0  0  0  0  0  0  0  0  0  0  0
   -5.6320   23.0180  -30.5320 N   0  0  0  0  0  0  0  0  0  0  0  0
   -5.7610   24.0400  -30.3610 H   0  0  0  0  0  0  0  0  0  0  0  0
   -6.7560   22.2990  -31.0660 C   0  0  0  0  0  0  0  0  0  0  0  0
   -7.9360   23.0130  -31.4010 C   0  0  0  0  0  0  0  0  0  0  0  0
   -7.9804   24.0984  -31.2283 H   0  0  0  0  0  0  0  0  0  0  0  0
   -9.0500   22.3520  -31.9510 C   0  0  0  0  0  0  0  0  0  0  0  0
   -9.9709   22.8992  -32.2011 H   0  0  0  0  0  0  0  0  0  0  0  0
   -8.9450   20.9820  -32.1670 C   0  0  0  0  0  0  0  0  0  0  0  0
   -9.8660   20.1550  -32.6890 N   0  0  0  0  0  0  0  0  0  0  0  0
   -9.3240   18.9390  -32.7260 N   0  0  0  0  0  0  0  0  0  0  0  0
   -8.0650   18.9940  -32.2310 C   0  0  0  0  0  0  0  0  0  0  0  0
   -7.3696   18.1469  -32.1363 H   0  0  0  0  0  0  0  0  0  0  0  0
   -7.8090   20.2930  -31.8680 C   0  0  0  0  0  0  0  0  0  0  0  0
   -6.6850   20.9070  -31.3240 C   0  0  0  0  0  0  0  0  0  0  0  0
   -5.7736   20.3325  -31.1020 H   0  0  0  0  0  0  0  0  0  0  0  0
  1  2  1  0
  2  3  2  0
  3  4  1  0
  4  5  1  0
  5  6  1  0
  6  7  1  0
  7  8  1  0
  7  9  1  0
  9 10  1  0
  9 11  1  0
  9 12  1  0
  7 13  1  0
 13 14  1  0
 13 15  1  0
 13 16  1  0
  5 17  2  0
 17 18  1  0
 17 19  1  0
 19 20  2  0
 20 21  1  0
 21 22  2  0
 21 23  1  0
 23 24  1  0
 23 25  1  0
 25 26  2  0
 26 27  1  0
 26 28  1  0
 28 29  1  0
 28 30  2  0
 30 31  1  0
 31 32  1  0
 32 33  2  0
 33 34  1  0
 33 35  1  0
 35 36  2  0
 36 37  1  0
 20  3  1  0
 36 25  1  0
 35 30  1  0
M  CHG  2   4  -1  31  -1
M  END
>  <UniqueID>  (34) 
33

>  <SMILES>  (34) 
[H]/N=c1\[n-]c(OC(C)C)cnc1C(=O)Nc1ccc2[n-]ncc2c1

>  <Energy>  (34) 
81.70326050921908

>  <Genealogy>  (34) 
CC(C)Oc1cnc(C(=O)Nc2ccc3[n-]ncc3c2)c(=N)[n-]1 (protonated)
[H]/N=c1\[n-]c(OC(C)C)cnc1C(=O)Nc1ccc2[n-]ncc2c1 (cis-trans isomerization)
[H]/N=c1\[n-]c(OC(C)C)cnc1C(=O)Nc1ccc2[n-]ncc2c1 (3D coordinates assigned)
[H]/N=c1\[n-]c(OC(C)C)cnc1C(=O)Nc1ccc2[n-]ncc2c1 (optimized conformer: 81.70326050921908 kcal/mol)

>  <smiles>  (34) 
CC(C)Oc1cnc(C(=O)Nc2ccc3[nH]ncc3c2)c(=N)[nH]1

>  <score_type>  (34) 
oracle

>  <origin>  (34) 
adgpu

>  <m_score__min__energy>  (34) 
-9.2799999999999994

>  <m_primary>  (34) 
energy

$$$$
34:0
     RDKit          3D

 26 27  0  0  0  0  0  0  0  0999 V2000
   -3.1410   21.6290  -30.6370 C   0  0  0  0  0  0  0  0  0  0  0  0
   -3.7550   22.5720  -31.6650 C   0  0  0  0  0  0  0  0  0  0  0  0
   -4.9310   23.3070  -31.0750 C   0  0  0  0  0  0  0  0  0  0  0  0
   -4.8140   24.6130  -30.5410 C   0  0  0  0  0  0  0  0  0  0  0  0
   -3.6010   25.2860  -30.4160 O   0  0  0  0  0  0  0  0  0  0  0  0
   -6.0390   25.1580  -30.1720 C   0  0  0  0  0  0  0  0  0  0  0  0
   -6.2320   26.2970  -29.6720 O   0  0  0  0  0  0  0  0  0  0  0  0
   -7.2090   24.0330  -30.5330 S   0  0  0  0  0  0  0  0  0  0  0  0
   -6.2160   22.8400  -31.1370 N   0  0  0  0  0  0  0  0  0  0  0  0
   -6.6780   21.5910  -31.6650 C   0  0  0  0  0  0  0  0  0  0  0  0
   -7.8460   20.9950  -31.1640 C   0  0  0  0  0  0  0  0  0  0  0  0
   -8.3000   19.7830  -31.6940 C   0  0  0  0  0  0  0  0  0  0  0  0
   -7.5970   19.1670  -32.7350 C   0  0  0  0  0  0  0  0  0  0  0  0
   -6.4440   19.7660  -33.2500 C   0  0  0  0  0  0  0  0  0  0  0  0
   -5.9890   20.9780  -32.7210 C   0  0  0  0  0  0  0  0  0  0  0  0
   -3.3750   21.9883  -29.6240 H   0  0  0  0  0  0  0  0  0  0  0  0
   -3.5551   20.6190  -30.7725 H   0  0  0  0  0  0  0  0  0  0  0  0
   -2.0498   21.5991  -30.7725 H   0  0  0  0  0  0  0  0  0  0  0  0
   -2.9964   23.3014  -31.9849 H   0  0  0  0  0  0  0  0  0  0  0  0
   -4.1017   21.9811  -32.5256 H   0  0  0  0  0  0  0  0  0  0  0  0
   -3.4810   26.0360  -29.7440 H   0  0  0  0  0  0  0  0  0  0  0  0
   -8.4058   21.4826  -30.3523 H   0  0  0  0  0  0  0  0  0  0  0  0
   -9.2102   19.3139  -31.2922 H   0  0  0  0  0  0  0  0  0  0  0  0
   -7.9517   18.2112  -33.1482 H   0  0  0  0  0  0  0  0  0  0  0  0
   -5.8942   19.2839  -34.0718 H   0  0  0  0  0  0  0  0  0  0  0  0
   -5.0870   21.4522  -33.1351 H   0  0  0  0  0  0  0  0  0  0  0  0
  1  2  1  0
  2  3  1  0
  3  4  2  0
  4  5  1  0
  4  6  1  0
  6  7  2  0
  6  8  1  0
  8  9  1  0
  9 10  1  0
 10 11  2  0
 11 12  1  0
 12 13  2  0
 13 14  1  0
 14 15  2  0
  9  3  1  0
 15 10  1  0
  1 16  1  0
  1 17  1  0
  1 18  1  0
  2 19  1  0
  2 20  1  0
  5 21  1  0
 11 22  1  0
 12 23  1  0
 13 24  1  0
 14 25  1  0
 15 26  1  0
M  END
>  <UniqueID>  (35) 
34

>  <SMILES>  (35) 
CCc1c(O)c(=O)sn1-c1ccccc1

>  <Energy>  (35) 
64.64182196502577

>  <Genealogy>  (35) 
CCc1c(O)c(=O)sn1-c1ccccc1 (3D coordinates assigned)
CCc1c(O)c(=O)sn1-c1ccccc1 (optimized conformer: 64.64182196502577 kcal/mol)

>  <smiles>  (35) 
CCc1c(O)c(=O)sn1-c1ccccc1

>  <score_type>  (35) 
oracle

>  <origin>  (35) 
adgpu

>  <m_score__min__energy>  (35) 
-7.71

>  <m_primary>  (35) 
energy

$$$$
35:0
     RDKit          3D

 33 35  0  0  0  0  0  0  0  0999 V2000
   -1.2220   26.0480  -30.0420 H   0  0  0  0  0  0  0  0  0  0  0  0
   -1.2290   26.0630  -28.9980 N   0  0  0  0  0  0  0  0  0  0  0  0
   -1.7610   24.5040  -28.4760 S   0  0  0  0  0  0  0  0  0  0  0  0
   -0.7010   23.4850  -28.7860 O   0  0  0  0  0  0  0  0  0  0  0  0
   -1.9910   24.5220  -26.9910 O   0  0  0  0  0  0  0  0  0  0  0  0
   -3.2560   24.0840  -29.3060 C   0  0  0  0  0  0  0  0  0  0  0  0
   -3.2160   23.3810  -30.5170 C   0  0  0  0  0  0  0  0  0  0  0  0
   -2.2483   23.0822  -30.9462 H   0  0  0  0  0  0  0  0  0  0  0  0
   -4.4040   23.0580  -31.1820 C   0  0  0  0  0  0  0  0  0  0  0  0
   -4.3681   22.4872  -32.1217 H   0  0  0  0  0  0  0  0  0  0  0  0
   -5.6430   23.4600  -30.6540 C   0  0  0  0  0  0  0  0  0  0  0  0
   -6.8790   23.1040  -31.2890 N   0  0  0  0  0  0  0  0  0  0  0  0
   -7.1480   21.9680  -31.8640 C   0  0  0  0  0  0  0  0  0  0  0  0
   -8.3220   21.6760  -32.3600 O   0  0  0  0  0  0  0  0  0  0  0  0
   -8.2860   20.4890  -32.8920 N   0  0  0  0  0  0  0  0  0  0  0  0
   -7.0210   20.0490  -32.7100 C   0  0  0  0  0  0  0  0  0  0  0  0
   -6.5350   18.7320  -33.1880 C   0  0  0  0  0  0  0  0  0  0  0  0
   -7.3320   17.5750  -33.0830 C   0  0  0  0  0  0  0  0  0  0  0  0
   -8.3355   17.6410  -32.6373 H   0  0  0  0  0  0  0  0  0  0  0  0
   -6.8550   16.3430  -33.5420 C   0  0  0  0  0  0  0  0  0  0  0  0
   -7.4833   15.4444  -33.4536 H   0  0  0  0  0  0  0  0  0  0  0  0
   -5.5840   16.2500  -34.1120 C   0  0  0  0  0  0  0  0  0  0  0  0
   -5.2122   15.2791  -34.4714 H   0  0  0  0  0  0  0  0  0  0  0  0
   -4.7840   17.3900  -34.2260 C   0  0  0  0  0  0  0  0  0  0  0  0
   -3.1880   17.2710  -34.9430 Cl  0  0  0  0  0  0  0  0  0  0  0  0
   -5.2570   18.6250  -33.7680 C   0  0  0  0  0  0  0  0  0  0  0  0
   -4.6244   19.5200  -33.8621 H   0  0  0  0  0  0  0  0  0  0  0  0
   -6.2690   20.9660  -32.0640 N   0  0  0  0  0  0  0  0  0  0  0  0
   -5.2520   20.9340  -31.8360 H   0  0  0  0  0  0  0  0  0  0  0  0
   -5.6790   24.1370  -29.4290 C   0  0  0  0  0  0  0  0  0  0  0  0
   -6.6466   24.4157  -28.9862 H   0  0  0  0  0  0  0  0  0  0  0  0
   -4.4910   24.4610  -28.7650 C   0  0  0  0  0  0  0  0  0  0  0  0
   -4.5274   25.0138  -27.8147 H   0  0  0  0  0  0  0  0  0  0  0  0
  1  2  1  0
  2  3  1  0
  3  4  2  0
  3  5  2  0
  3  6  1  0
  6  7  2  0
  7  8  1  0
  7  9  1  0
  9 10  1  0
  9 11  2  0
 11 12  1  0
 12 13  2  0
 13 14  1  0
 14 15  1  0
 15 16  2  0
 16 17  1  0
 17 18  2  0
 18 19  1  0
 18 20  1  0
 20 21  1  0
 20 22  2  0
 22 23  1  0
 22 24  1  0
 24 25  1  0
 24 26  2  0
 26 27  1  0
 16 28  1  0
 28 29  1  0
 11 30  1  0
 30 31  1  0
 30 32  2  0
 32 33  1  0
 32  6  1  0
 28 13  1  0
 26 17  1  0
M  CHG  1   2  -1
M  END
>  <UniqueID>  (36) 
35

>  <SMILES>  (36) 
[NH-]S(=O)(=O)c1ccc(/N=c2\[nH]c(-c3cccc(Cl)c3)no2)cc1

>  <Energy>  (36) 
79.53880490784636

>  <Genealogy>  (36) 
[NH-]S(=O)(=O)c1ccc(N=c2[nH]c(-c3cccc(Cl)c3)no2)cc1 (protonated)
[NH-]S(=O)(=O)c1ccc(/N=c2\[nH]c(-c3cccc(Cl)c3)no2)cc1 (cis-trans isomerization)
[NH-]S(=O)(=O)c1ccc(/N=c2\[nH]c(-c3cccc(Cl)c3)no2)cc1 (3D coordinates assigned)
[NH-]S(=O)(=O)c1ccc(/N=c2\[nH]c(-c3cccc(Cl)c3)no2)cc1 (optimized conformer: 79.53880490784636 kcal/mol)

>  <smiles>  (36) 
NS(=O)(=O)c1ccc(N=c2[nH]c(-c3cccc(Cl)c3)no2)cc1

>  <score_type>  (36) 
oracle

>  <origin>  (36) 
adgpu

>  <m_score__min__energy>  (36) 
-10.289999999999999

>  <m_primary>  (36) 
energy

$$$$
36:0
     RDKit          3D

 52 55  0  0  0  0  0  0  0  0999 V2000
   -6.2240   13.9870  -34.2210 C   0  0  0  0  0  0  0  0  0  0  0  0
   -5.8540   15.4390  -34.1450 C   0  0  0  0  0  0  0  0  0  0  0  0
   -6.8280   16.4010  -33.8410 C   0  0  0  0  0  0  0  0  0  0  0  0
   -6.4920   17.7570  -33.8120 C   0  0  0  0  0  0  0  0  0  0  0  0
   -5.1860   18.1620  -34.0910 C   0  0  0  0  0  0  0  0  0  0  0  0
   -4.1960   17.2080  -34.3890 C   0  0  0  0  0  0  0  0  0  0  0  0
   -2.8490   17.5900  -34.7040 N   0  0  0  0  0  0  0  0  0  0  0  0
   -1.8570   18.0480  -33.7760 C   0  0  0  0  0  0  0  0  0  0  0  0
   -0.9250   17.2630  -33.4580 O   0  0  0  0  0  0  0  0  0  0  0  0
   -1.9260   19.3880  -33.1470 C   0  0  0  0  0  0  0  0  0  0  0  0
   -0.7960   20.2250  -33.1380 C   0  0  0  0  0  0  0  0  0  0  0  0
   -0.8570   21.4880  -32.5390 C   0  0  0  0  0  0  0  0  0  0  0  0
   -2.0410   21.9250  -31.9400 C   0  0  0  0  0  0  0  0  0  0  0  0
   -3.1660   21.0960  -31.9270 C   0  0  0  0  0  0  0  0  0  0  0  0
   -4.6760   21.6340  -31.1310 S   0  0  0  0  0  0  0  0  0  0  0  0
   -3.7930   22.7400  -30.0360 C   0  0  0  0  0  0  0  0  0  0  0  0
   -3.2110   22.3900  -28.8240 C   0  0  0  0  0  0  0  0  0  0  0  0
   -2.5440   23.3990  -28.2070 N   0  0  0  0  0  0  0  0  0  0  0  0
   -2.6090   24.5460  -28.9210 C   0  0  0  0  0  0  0  0  0  0  0  0
   -2.0090   25.6500  -28.5890 N   0  0  0  0  0  0  0  0  0  0  0  0
   -1.2560   25.8870  -27.3880 C   0  0  0  0  0  0  0  0  0  0  0  0
   -1.9200   25.8070  -26.1600 C   0  0  0  0  0  0  0  0  0  0  0  0
   -1.2310   26.0210  -24.9640 C   0  0  0  0  0  0  0  0  0  0  0  0
    0.1470   26.2960  -24.9750 C   0  0  0  0  0  0  0  0  0  0  0  0
    0.8890   26.5270  -23.7090 C   0  0  0  0  0  0  0  0  0  0  0  0
    2.0920   25.8000  -23.4440 N   0  0  0  0  0  0  0  0  0  0  0  0
    0.4540   27.3840  -22.8320 N   0  0  0  0  0  0  0  0  0  0  0  0
    0.8190   26.3490  -26.2070 C   0  0  0  0  0  0  0  0  0  0  0  0
    0.1270   26.1380  -27.4040 C   0  0  0  0  0  0  0  0  0  0  0  0
   -3.4710   24.3600  -30.3530 S   0  0  0  0  0  0  0  0  0  0  0  0
   -3.1090   19.8310  -32.5300 C   0  0  0  0  0  0  0  0  0  0  0  0
   -4.5480   15.8510  -34.4430 C   0  0  0  0  0  0  0  0  0  0  0  0
   -6.3274   13.5812  -33.2038 H   0  0  0  0  0  0  0  0  0  0  0  0
   -7.1783   13.8794  -34.7575 H   0  0  0  0  0  0  0  0  0  0  0  0
   -5.4376   13.4358  -34.7575 H   0  0  0  0  0  0  0  0  0  0  0  0
   -7.8598   16.0871  -33.6247 H   0  0  0  0  0  0  0  0  0  0  0  0
   -7.2589   18.5071  -33.5686 H   0  0  0  0  0  0  0  0  0  0  0  0
   -4.9296   19.2316  -34.0778 H   0  0  0  0  0  0  0  0  0  0  0  0
    0.1405   19.8851  -33.6042 H   0  0  0  0  0  0  0  0  0  0  0  0
    0.0299   22.1387  -32.5397 H   0  0  0  0  0  0  0  0  0  0  0  0
   -2.0878   22.9223  -31.4783 H   0  0  0  0  0  0  0  0  0  0  0  0
   -3.2845   21.3781  -28.3989 H   0  0  0  0  0  0  0  0  0  0  0  0
   -2.9946   25.5734  -26.1357 H   0  0  0  0  0  0  0  0  0  0  0  0
   -1.7709   25.9739  -24.0068 H   0  0  0  0  0  0  0  0  0  0  0  0
    2.5090   25.1680  -24.1620 H   0  0  0  0  0  0  0  0  0  0  0  0
    2.6080   25.9330  -22.5470 H   0  0  0  0  0  0  0  0  0  0  0  0
   -0.4370   27.9070  -22.9710 H   0  0  0  0  0  0  0  0  0  0  0  0
    0.9750   27.5450  -21.9420 H   0  0  0  0  0  0  0  0  0  0  0  0
    1.8987   26.5582  -26.2308 H   0  0  0  0  0  0  0  0  0  0  0  0
    0.6672   26.1686  -28.3618 H   0  0  0  0  0  0  0  0  0  0  0  0
   -3.9962   19.1808  -32.5201 H   0  0  0  0  0  0  0  0  0  0  0  0
   -3.7914   15.1029  -34.7220 H   0  0  0  0  0  0  0  0  0  0  0  0
  1  2  1  0
  2  3  2  0
  3  4  1  0
  4  5  2  0
  5  6  1  0
  6  7  1  0
  7  8  1  0
  8  9  2  0
  8 10  1  0
 10 11  2  0
 11 12  1  0
 12 13  2  0
 13 14  1  0
 14 15  1  0
 15 16  1  0
 16 17  2  0
 17 18  1  0
 18 19  1  0
 19 20  2  3
 20 21  1  0
 21 22  2  0
 22 23  1  0
 23 24  2  0
 24 25  1  0
 25 26  1  0
 25 27  2  0
 24 28  1  0
 28 29  2  0
 19 30  1  0
 14 31  2  0
  6 32  2  0
 32  2  1  0
 31 10  1  0
 30 16  1  0
 29 21  1  0
  1 33  1  0
  1 34  1  0
  1 35  1  0
  3 36  1  0
  4 37  1  0
  5 38  1  0
 11 39  1  0
 12 40  1  0
 13 41  1  0
 17 42  1  0
 22 43  1  0
 23 44  1  0
 26 45  1  0
 26 46  1  0
 27 47  1  0
 27 48  1  0
 28 49  1  0
 29 50  1  0
 31 51  1  0
 32 52  1  0
M  CHG  3   7  -1  18  -1  27   1
M  END
>  <UniqueID>  (37) 
36

>  <SMILES>  (37) 
Cc1cccc([N-]C(=O)c2cccc(Sc3c[n-]c(=Nc4ccc(C(N)=[NH2+])cc4)s3)c2)c1

>  <Energy>  (37) 
96.51217997976462

>  <Genealogy>  (37) 
Cc1cccc([N-]C(=O)c2cccc(Sc3c[n-]c(=Nc4ccc(C(N)=[NH2+])cc4)s3)c2)c1 (protonated)
Cc1cccc([N-]C(=O)c2cccc(Sc3c[n-]c(=Nc4ccc(C(N)=[NH2+])cc4)s3)c2)c1 (3D coordinates assigned)
Cc1cccc([N-]C(=O)c2cccc(Sc3c[n-]c(=Nc4ccc(C(N)=[NH2+])cc4)s3)c2)c1 (optimized conformer: 96.51217997976462 kcal/mol)

>  <smiles>  (37) 
Cc1cccc(NC(=O)c2cccc(Sc3c[nH]c(=Nc4ccc(C(=N)N)cc4)s3)c2)c1

>  <score_type>  (37) 
oracle

>  <origin>  (37) 
adgpu

>  <m_score__min__energy>  (37) 
-11.1

>  <m_primary>  (37) 
energy

$$$$
37:0
     RDKit          3D

 39 41  0  0  0  0  0  0  0  0999 V2000
   -0.8980   25.6160  -28.3610 C   0  0  0  0  0  0  0  0  0  0  0  0
   -2.1940   24.8900  -28.5290 C   0  0  0  0  0  0  0  0  0  0  0  0
   -2.7380   24.1560  -27.4700 C   0  0  0  0  0  0  0  0  0  0  0  0
   -3.9410   23.4830  -27.6760 C   0  0  0  0  0  0  0  0  0  0  0  0
   -4.5530   23.5460  -28.8850 N   0  0  0  0  0  0  0  0  0  0  0  0
   -4.0120   24.2600  -29.9120 C   0  0  0  0  0  0  0  0  0  0  0  0
   -4.6020   24.3210  -31.0670 N   0  0  0  0  0  0  0  0  0  0  0  0
   -6.1020   23.5290  -31.4260 S   0  0  0  0  0  0  0  0  0  0  0  0
   -6.9690   23.5290  -30.1980 O   0  0  0  0  0  0  0  0  0  0  0  0
   -6.8140   24.2770  -32.5180 O   0  0  0  0  0  0  0  0  0  0  0  0
   -5.7930   21.8620  -31.9070 C   0  0  0  0  0  0  0  0  0  0  0  0
   -6.7180   21.1600  -32.6920 C   0  0  0  0  0  0  0  0  0  0  0  0
   -6.4490   19.8470  -33.0880 C   0  0  0  0  0  0  0  0  0  0  0  0
   -5.2600   19.2130  -32.6950 C   0  0  0  0  0  0  0  0  0  0  0  0
   -4.9960   17.8700  -33.1380 N   0  0  0  0  0  0  0  0  0  0  0  0
   -5.9550   16.8030  -33.0670 C   0  0  0  0  0  0  0  0  0  0  0  0
   -7.1820   17.0620  -32.9450 O   0  0  0  0  0  0  0  0  0  0  0  0
   -5.5280   15.3970  -33.1760 C   0  0  0  0  0  0  0  0  0  0  0  0
   -4.5320   14.7670  -32.4340 C   0  0  0  0  0  0  0  0  0  0  0  0
   -4.3780   13.4130  -32.7630 C   0  0  0  0  0  0  0  0  0  0  0  0
   -3.4130   12.5590  -32.1260 C   0  0  0  0  0  0  0  0  0  0  0  0
   -2.6370   11.8710  -31.6130 N   0  0  0  0  0  0  0  0  0  0  0  0
   -5.2430   12.9670  -33.7540 C   0  0  0  0  0  0  0  0  0  0  0  0
   -6.2060   14.2630  -34.2200 S   0  0  0  0  0  0  0  0  0  0  0  0
   -4.3250   19.9300  -31.9260 C   0  0  0  0  0  0  0  0  0  0  0  0
   -4.5940   21.2440  -31.5330 C   0  0  0  0  0  0  0  0  0  0  0  0
   -2.8400   24.9210  -29.7260 N   0  0  0  0  0  0  0  0  0  0  0  0
   -0.6818   25.7371  -27.2893 H   0  0  0  0  0  0  0  0  0  0  0  0
   -0.0903   25.0390  -28.8351 H   0  0  0  0  0  0  0  0  0  0  0  0
   -0.9682   26.6061  -28.8351 H   0  0  0  0  0  0  0  0  0  0  0  0
   -2.2279   24.1109  -26.4965 H   0  0  0  0  0  0  0  0  0  0  0  0
   -4.3936   22.9015  -26.8593 H   0  0  0  0  0  0  0  0  0  0  0  0
   -7.6577   21.6436  -32.9970 H   0  0  0  0  0  0  0  0  0  0  0  0
   -7.1750   19.3060  -33.7127 H   0  0  0  0  0  0  0  0  0  0  0  0
   -4.0920   17.6900  -33.6300 H   0  0  0  0  0  0  0  0  0  0  0  0
   -3.9289   15.2785  -31.6694 H   0  0  0  0  0  0  0  0  0  0  0  0
   -5.2895   11.9464  -34.1616 H   0  0  0  0  0  0  0  0  0  0  0  0
   -3.3777   19.4541  -31.6327 H   0  0  0  0  0  0  0  0  0  0  0  0
   -3.8600   21.7952  -30.9269 H   0  0  0  0  0  0  0  0  0  0  0  0
  1  2  1  0
  2  3  1  0
  3  4  2  0
  4  5  1  0
  5  6  1  0
  6  7  2  3
  7  8  1  0
  8  9  2  0
  8 10  2  0
  8 11  1  0
 11 12  2  0
 12 13  1  0
 13 14  2  0
 14 15  1  0
 15 16  1  0
 16 17  2  0
 16 18  1  0
 18 19  2  0
 19 20  1  0
 20 21  1  0
 21 22  3  0
 20 23  2  0
 23 24  1  0
 14 25  1  0
 25 26  2  0
  6 27  1  0
 27  2  2  0
 26 11  1  0
 24 18  1  0
  1 28  1  0
  1 29  1  0
  1 30  1  0
  3 31  1  0
  4 32  1  0
 12 33  1  0
 13 34  1  0
 15 35  1  0
 19 36  1  0
 23 37  1  0
 25 38  1  0
 26 39  1  0
M  CHG  1   5  -1
M  END
>  <UniqueID>  (38) 
37

>  <SMILES>  (38) 
Cc1cc[n-]c(=NS(=O)(=O)c2ccc(NC(=O)c3cc(C#N)cs3)cc2)n1

>  <Energy>  (38) 
72.5543152388884

>  <Genealogy>  (38) 
Cc1cc[n-]c(=NS(=O)(=O)c2ccc(NC(=O)c3cc(C#N)cs3)cc2)n1 (protonated)
Cc1cc[n-]c(=NS(=O)(=O)c2ccc(NC(=O)c3cc(C#N)cs3)cc2)n1 (3D coordinates assigned)
Cc1cc[n-]c(=NS(=O)(=O)c2ccc(NC(=O)c3cc(C#N)cs3)cc2)n1 (optimized conformer: 72.5543152388884 kcal/mol)

>  <smiles>  (38) 
Cc1cc[nH]c(=NS(=O)(=O)c2ccc(NC(=O)c3cc(C#N)cs3)cc2)n1

>  <score_type>  (38) 
oracle

>  <origin>  (38) 
adgpu

>  <m_score__min__energy>  (38) 
-9.4800000000000004

>  <m_primary>  (38) 
energy

$$$$
38:0
     RDKit          3D

 34 36  0  0  0  0  0  0  0  0999 V2000
   -1.4870   20.9975  -28.5551 H   0  0  0  0  0  0  0  0  0  0  0  0
   -1.9750   21.9080  -28.9330 C   0  0  0  0  0  0  0  0  0  0  0  0
   -3.2270   21.8380  -29.4620 N   0  0  0  0  0  0  0  0  0  0  0  0
   -3.8670   22.9420  -29.9390 C   0  0  0  0  0  0  0  0  0  0  0  0
   -5.1590   22.8480  -30.4880 C   0  0  0  0  0  0  0  0  0  0  0  0
   -5.7510   21.6840  -30.5170 N   0  0  0  0  0  0  0  0  0  0  0  0
   -7.0250   21.3640  -31.1030 C   0  0  0  0  0  0  0  0  0  0  0  0
   -8.2020   21.9110  -30.5620 C   0  0  0  0  0  0  0  0  0  0  0  0
   -8.1494   22.5288  -29.6534 H   0  0  0  0  0  0  0  0  0  0  0  0
   -9.4360   21.6760  -31.1690 C   0  0  0  0  0  0  0  0  0  0  0  0
  -10.3537   22.0939  -30.7294 H   0  0  0  0  0  0  0  0  0  0  0  0
   -9.5060   20.9120  -32.3320 C   0  0  0  0  0  0  0  0  0  0  0  0
  -10.4808   20.7203  -32.8042 H   0  0  0  0  0  0  0  0  0  0  0  0
   -8.3430   20.3890  -32.9000 C   0  0  0  0  0  0  0  0  0  0  0  0
   -8.4071   19.7927  -33.8221 H   0  0  0  0  0  0  0  0  0  0  0  0
   -7.0890   20.6180  -32.3030 C   0  0  0  0  0  0  0  0  0  0  0  0
   -5.8670   20.0460  -32.9210 C   0  0  0  0  0  0  0  0  0  0  0  0
   -5.9620   19.3510  -33.9700 O   0  0  0  0  0  0  0  0  0  0  0  0
   -4.5740   20.2760  -32.3400 N   0  0  0  0  0  0  0  0  0  0  0  0
   -4.4950   20.7500  -31.4130 H   0  0  0  0  0  0  0  0  0  0  0  0
   -3.3520   19.8150  -32.9870 C   0  0  0  0  0  0  0  0  0  0  0  0
   -2.6139   19.5365  -32.2204 H   0  0  0  0  0  0  0  0  0  0  0  0
   -3.5770   18.9399  -33.6144 H   0  0  0  0  0  0  0  0  0  0  0  0
   -2.9429   20.6206  -33.6144 H   0  0  0  0  0  0  0  0  0  0  0  0
   -5.7830   24.0270  -30.9470 C   0  0  0  0  0  0  0  0  0  0  0  0
   -6.8023   23.9864  -31.3586 H   0  0  0  0  0  0  0  0  0  0  0  0
   -5.1040   25.2470  -30.8780 C   0  0  0  0  0  0  0  0  0  0  0  0
   -5.5872   26.1638  -31.2468 H   0  0  0  0  0  0  0  0  0  0  0  0
   -3.8510   25.3060  -30.3580 N   0  0  0  0  0  0  0  0  0  0  0  0
   -3.2230   24.1970  -29.8900 C   0  0  0  0  0  0  0  0  0  0  0  0
   -1.9360   24.2850  -29.3510 C   0  0  0  0  0  0  0  0  0  0  0  0
   -1.4206   25.2558  -29.3069 H   0  0  0  0  0  0  0  0  0  0  0  0
   -1.3080   23.1350  -28.8690 C   0  0  0  0  0  0  0  0  0  0  0  0
   -0.2959   23.1939  -28.4421 H   0  0  0  0  0  0  0  0  0  0  0  0
  1  2  1  0
  2  3  2  0
  3  4  1  0
  4  5  1  0
  5  6  2  0
  6  7  1  0
  7  8  2  0
  8  9  1  0
  8 10  1  0
 10 11  1  0
 10 12  2  0
 12 13  1  0
 12 14  1  0
 14 15  1  0
 14 16  2  0
 16 17  1  0
 17 18  2  0
 17 19  1  0
 19 20  1  0
 19 21  1  0
 21 22  1  0
 21 23  1  0
 21 24  1  0
  5 25  1  0
 25 26  1  0
 25 27  2  0
 27 28  1  0
 27 29  1  0
 29 30  1  0
 30 31  1  0
 31 32  1  0
 31 33  2  0
 33 34  1  0
 33  2  1  0
 30  4  2  0
 16  7  1  0
M  CHG  1  29  -1
M  END
>  <UniqueID>  (39) 
38

>  <SMILES>  (39) 
CNC(=O)c1ccccc1/N=c1\cc[n-]c2cccnc12

>  <Energy>  (39) 
51.683056915489736

>  <Genealogy>  (39) 
CNC(=O)c1ccccc1N=c1cc[n-]c2cccnc12 (protonated)
CNC(=O)c1ccccc1/N=c1\cc[n-]c2cccnc12 (cis-trans isomerization)
CNC(=O)c1ccccc1/N=c1\cc[n-]c2cccnc12 (3D coordinates assigned)
CNC(=O)c1ccccc1/N=c1\cc[n-]c2cccnc12 (optimized conformer: 51.683056915489736 kcal/mol)

>  <smiles>  (39) 
CNC(=O)c1ccccc1N=c1cc[nH]c2cccnc12

>  <score_type>  (39) 
oracle

>  <origin>  (39) 
adgpu

>  <m_score__min__energy>  (39) 
-8.8100000000000005

>  <m_primary>  (39) 
energy

$$$$
39:0
     RDKit          3D

 35 36  0  0  0  0  0  0  0  0999 V2000
   -5.4170   18.4040  -33.6830 C   0  0  0  0  0  0  0  0  0  0  0  0
   -5.7180   19.8190  -33.8720 N   0  0  0  0  0  0  0  0  0  0  0  0
   -4.7390   20.7750  -32.8020 S   0  0  0  0  0  0  0  0  0  0  0  0
   -4.2080   19.8980  -31.7040 O   0  0  0  0  0  0  0  0  0  0  0  0
   -3.5710   21.3500  -33.5560 O   0  0  0  0  0  0  0  0  0  0  0  0
   -5.6980   22.0720  -32.0900 C   0  0  0  0  0  0  0  0  0  0  0  0
   -7.0940   22.0410  -32.1910 C   0  0  0  0  0  0  0  0  0  0  0  0
   -7.8610   23.0670  -31.6310 C   0  0  0  0  0  0  0  0  0  0  0  0
   -7.2380   24.1320  -30.9770 C   0  0  0  0  0  0  0  0  0  0  0  0
   -5.8380   24.1860  -30.8920 C   0  0  0  0  0  0  0  0  0  0  0  0
   -5.1670   25.3130  -30.1610 C   0  0  0  0  0  0  0  0  0  0  0  0
   -3.7390   25.2900  -30.4440 N   0  0  0  0  0  0  0  0  0  0  0  0
   -2.7650   24.8390  -29.4980 C   0  0  0  0  0  0  0  0  0  0  0  0
   -1.9830   25.6720  -28.9630 O   0  0  0  0  0  0  0  0  0  0  0  0
   -2.6750   23.4020  -29.1470 C   0  0  0  0  0  0  0  0  0  0  0  0
   -3.5190   22.8530  -28.1640 C   0  0  0  0  0  0  0  0  0  0  0  0
   -3.4340   21.4960  -27.8340 C   0  0  0  0  0  0  0  0  0  0  0  0
   -2.5070   20.6750  -28.4800 C   0  0  0  0  0  0  0  0  0  0  0  0
   -1.6630   21.2080  -29.4570 C   0  0  0  0  0  0  0  0  0  0  0  0
   -0.7630   20.4100  -30.0830 F   0  0  0  0  0  0  0  0  0  0  0  0
   -1.7450   22.5650  -29.7920 C   0  0  0  0  0  0  0  0  0  0  0  0
   -5.0720   23.1450  -31.4390 C   0  0  0  0  0  0  0  0  0  0  0  0
   -5.3693   18.1798  -32.6071 H   0  0  0  0  0  0  0  0  0  0  0  0
   -6.2059   17.7958  -34.1497 H   0  0  0  0  0  0  0  0  0  0  0  0
   -4.4489   18.1695  -34.1497 H   0  0  0  0  0  0  0  0  0  0  0  0
   -7.5883   21.2078  -32.7120 H   0  0  0  0  0  0  0  0  0  0  0  0
   -8.9580   23.0353  -31.7057 H   0  0  0  0  0  0  0  0  0  0  0  0
   -7.8461   24.9307  -30.5272 H   0  0  0  0  0  0  0  0  0  0  0  0
   -5.5919   26.2713  -30.4943 H   0  0  0  0  0  0  0  0  0  0  0  0
   -5.3293   25.1978  -29.0792 H   0  0  0  0  0  0  0  0  0  0  0  0
   -4.2506   23.4950  -27.6515 H   0  0  0  0  0  0  0  0  0  0  0  0
   -4.0982   21.0752  -27.0647 H   0  0  0  0  0  0  0  0  0  0  0  0
   -2.4416   19.6083  -28.2193 H   0  0  0  0  0  0  0  0  0  0  0  0
   -1.0791   22.9793  -30.5634 H   0  0  0  0  0  0  0  0  0  0  0  0
   -3.9754   23.1708  -31.3567 H   0  0  0  0  0  0  0  0  0  0  0  0
  1  2  1  0
  2  3  1  0
  3  4  2  0
  3  5  2  0
  3  6  1  0
  6  7  2  0
  7  8  1  0
  8  9  2  0
  9 10  1  0
 10 11  1  0
 11 12  1  0
 12 13  1  0
 13 14  2  0
 13 15  1  0
 15 16  2  0
 16 17  1  0
 17 18  2  0
 18 19  1  0
 19 20  1  0
 19 21  2  0
 10 22  2  0
 22  6  1  0
 21 15  1  0
  1 23  1  0
  1 24  1  0
  1 25  1  0
  7 26  1  0
  8 27  1  0
  9 28  1  0
 11 29  1  0
 11 30  1  0
 16 31  1  0
 17 32  1  0
 18 33  1  0
 21 34  1  0
 22 35  1  0
M  CHG  2   2  -1  12  -1
M  END
>  <UniqueID>  (40) 
39

>  <SMILES>  (40) 
C[N-]S(=O)(=O)c1cccc(C[N-]C(=O)c2cccc(F)c2)c1

>  <Energy>  (40) 
31.35584485792249

>  <Genealogy>  (40) 
C[N-]S(=O)(=O)c1cccc(C[N-]C(=O)c2cccc(F)c2)c1 (protonated)
C[N-]S(=O)(=O)c1cccc(C[N-]C(=O)c2cccc(F)c2)c1 (3D coordinates assigned)
C[N-]S(=O)(=O)c1cccc(C[N-]C(=O)c2cccc(F)c2)c1 (optimized conformer: 31.35584485792249 kcal/mol)

>  <smiles>  (40) 
CNS(=O)(=O)c1cccc(CNC(=O)c2cccc(F)c2)c1

>  <score_type>  (40) 
oracle

>  <origin>  (40) 
adgpu

>  <m_score__min__energy>  (40) 
-9.2400000000000002

>  <m_primary>  (40) 
energy

$$$$
40:0
     RDKit          3D

 32 33  0  0  0  0  0  0  0  0999 V2000
   -7.9070   19.3980  -32.7130 C   0  0  0  0  0  0  0  0  0  0  0  0
   -6.8230   19.9820  -33.4260 O   0  0  0  0  0  0  0  0  0  0  0  0
   -5.6640   19.2960  -33.8260 C   0  0  0  0  0  0  0  0  0  0  0  0
   -5.7270   18.1870  -34.6950 C   0  0  0  0  0  0  0  0  0  0  0  0
   -4.5670   17.4880  -35.0360 C   0  0  0  0  0  0  0  0  0  0  0  0
   -3.3340   17.8810  -34.5170 C   0  0  0  0  0  0  0  0  0  0  0  0
   -3.2540   18.9830  -33.6620 C   0  0  0  0  0  0  0  0  0  0  0  0
   -4.4080   19.7100  -33.3270 C   0  0  0  0  0  0  0  0  0  0  0  0
   -4.2850   20.8800  -32.4290 C   0  0  0  0  0  0  0  0  0  0  0  0
   -3.3580   20.9020  -31.5750 O   0  0  0  0  0  0  0  0  0  0  0  0
   -5.2060   21.9810  -32.5310 N   0  0  0  0  0  0  0  0  0  0  0  0
   -5.2620   23.0600  -31.5840 C   0  0  0  0  0  0  0  0  0  0  0  0
   -4.1210   23.4210  -30.8450 C   0  0  0  0  0  0  0  0  0  0  0  0
   -4.1720   24.4870  -29.9450 C   0  0  0  0  0  0  0  0  0  0  0  0
   -5.3540   25.2090  -29.7800 C   0  0  0  0  0  0  0  0  0  0  0  0
   -6.4890   24.8730  -30.5200 C   0  0  0  0  0  0  0  0  0  0  0  0
   -6.4530   23.7990  -31.4350 C   0  0  0  0  0  0  0  0  0  0  0  0
   -7.6080   23.4220  -32.2030 N   0  0  0  0  0  0  0  0  0  0  0  0
   -8.5120   22.6260  -31.7910 C   0  0  0  0  0  0  0  0  0  0  0  0
   -9.6550   21.6160  -31.2710 S   0  0  0  0  0  0  0  0  0  0  0  0
   -7.7288   19.4940  -31.6318 H   0  0  0  0  0  0  0  0  0  0  0  0
   -8.8411   19.9150  -32.9780 H   0  0  0  0  0  0  0  0  0  0  0  0
   -7.9891   18.3336  -32.9780 H   0  0  0  0  0  0  0  0  0  0  0  0
   -6.6965   17.8704  -35.1071 H   0  0  0  0  0  0  0  0  0  0  0  0
   -4.6262   16.6252  -35.7158 H   0  0  0  0  0  0  0  0  0  0  0  0
   -2.4236   17.3230  -34.7809 H   0  0  0  0  0  0  0  0  0  0  0  0
   -2.2801   19.2834  -33.2482 H   0  0  0  0  0  0  0  0  0  0  0  0
   -5.9310   21.9580  -33.2830 H   0  0  0  0  0  0  0  0  0  0  0  0
   -3.1837   22.8605  -30.9769 H   0  0  0  0  0  0  0  0  0  0  0  0
   -3.2778   24.7582  -29.3645 H   0  0  0  0  0  0  0  0  0  0  0  0
   -5.3918   26.0446  -29.0656 H   0  0  0  0  0  0  0  0  0  0  0  0
   -7.4171   25.4488  -30.3892 H   0  0  0  0  0  0  0  0  0  0  0  0
  1  2  1  0
  2  3  1  0
  3  4  2  0
  4  5  1  0
  5  6  2  0
  6  7  1  0
  7  8  2  0
  8  9  1  0
  9 10  2  0
  9 11  1  0
 11 12  1  0
 12 13  2  0
 13 14  1  0
 14 15  2  0
 15 16  1  0
 16 17  2  0
 17 18  1  0
 18 19  2  0
 19 20  2  0
  8  3  1  0
 17 12  1  0
  1 21  1  0
  1 22  1  0
  1 23  1  0
  4 24  1  0
  5 25  1  0
  6 26  1  0
  7 27  1  0
 11 28  1  0
 13 29  1  0
 14 30  1  0
 15 31  1  0
 16 32  1  0
M  END
>  <UniqueID>  (41) 
40

>  <SMILES>  (41) 
COc1ccccc1C(=O)Nc1ccccc1N=C=S

>  <Energy>  (41) 
42.13004911593698

>  <Genealogy>  (41) 
COc1ccccc1C(=O)Nc1ccccc1N=C=S (3D coordinates assigned)
COc1ccccc1C(=O)Nc1ccccc1N=C=S (optimized conformer: 42.13004911593698 kcal/mol)

>  <smiles>  (41) 
COc1ccccc1C(=O)Nc1ccccc1N=C=S

>  <score_type>  (41) 
oracle

>  <origin>  (41) 
adgpu

>  <m_score__min__energy>  (41) 
-7.3700000000000001

>  <m_primary>  (41) 
energy

$$$$
41:0
     RDKit          3D

 43 45  0  0  0  0  0  0  0  0999 V2000
    0.9240   23.5550  -26.9670 C   0  0  0  0  0  0  0  0  0  0  0  0
    0.5380   24.0920  -28.2280 O   0  0  0  0  0  0  0  0  0  0  0  0
   -0.5790   23.6800  -28.9700 C   0  0  0  0  0  0  0  0  0  0  0  0
   -0.6730   22.3650  -29.4660 C   0  0  0  0  0  0  0  0  0  0  0  0
   -1.7790   21.9530  -30.2060 C   0  0  0  0  0  0  0  0  0  0  0  0
   -2.8290   22.8470  -30.4780 C   0  0  0  0  0  0  0  0  0  0  0  0
   -3.9680   22.4780  -31.2370 C   0  0  0  0  0  0  0  0  0  0  0  0
   -4.0750   21.0990  -31.8520 C   0  0  0  0  0  0  0  0  0  0  0  0
   -4.9850   23.4360  -31.4340 C   0  0  0  0  0  0  0  0  0  0  0  0
   -6.1630   23.1280  -32.1900 N   0  0  0  0  0  0  0  0  0  0  0  0
   -7.5040   22.3420  -31.4300 S   0  0  0  0  0  0  0  0  0  0  0  0
   -8.7790   23.0600  -31.7800 O   0  0  0  0  0  0  0  0  0  0  0  0
   -7.3240   22.3740  -29.9380 O   0  0  0  0  0  0  0  0  0  0  0  0
   -7.5740   20.6650  -31.9630 C   0  0  0  0  0  0  0  0  0  0  0  0
   -6.7820   20.2250  -33.0340 C   0  0  0  0  0  0  0  0  0  0  0  0
   -6.7970   18.8780  -33.4120 C   0  0  0  0  0  0  0  0  0  0  0  0
   -7.5990   17.9650  -32.7190 C   0  0  0  0  0  0  0  0  0  0  0  0
   -7.6110   16.6590  -33.0840 F   0  0  0  0  0  0  0  0  0  0  0  0
   -8.3840   18.3980  -31.6470 C   0  0  0  0  0  0  0  0  0  0  0  0
   -8.3700   19.7450  -31.2660 C   0  0  0  0  0  0  0  0  0  0  0  0
   -4.8190   24.7230  -30.9000 C   0  0  0  0  0  0  0  0  0  0  0  0
   -5.7100   25.5980  -31.0610 O   0  0  0  0  0  0  0  0  0  0  0  0
   -3.7310   25.0310  -30.2090 O   0  0  0  0  0  0  0  0  0  0  0  0
   -2.7480   24.1670  -29.9770 C   0  0  0  0  0  0  0  0  0  0  0  0
   -1.6350   24.5910  -29.2310 C   0  0  0  0  0  0  0  0  0  0  0  0
   -1.6440   25.9260  -28.7830 O   0  0  0  0  0  0  0  0  0  0  0  0
   -1.1850   26.4020  -27.5230 C   0  0  0  0  0  0  0  0  0  0  0  0
    0.4873   24.1625  -26.1606 H   0  0  0  0  0  0  0  0  0  0  0  0
    0.5621   22.5196  -26.8831 H   0  0  0  0  0  0  0  0  0  0  0  0
    2.0207   23.5681  -26.8831 H   0  0  0  0  0  0  0  0  0  0  0  0
    0.1402   21.6518  -29.2658 H   0  0  0  0  0  0  0  0  0  0  0  0
   -1.8310   20.9200  -30.5804 H   0  0  0  0  0  0  0  0  0  0  0  0
   -4.1335   20.3449  -31.0533 H   0  0  0  0  0  0  0  0  0  0  0  0
   -4.9801   21.0445  -32.4748 H   0  0  0  0  0  0  0  0  0  0  0  0
   -3.1892   20.9055  -32.4748 H   0  0  0  0  0  0  0  0  0  0  0  0
   -6.3170   23.5920  -33.1140 H   0  0  0  0  0  0  0  0  0  0  0  0
   -6.1478   20.9406  -33.5778 H   0  0  0  0  0  0  0  0  0  0  0  0
   -6.1778   18.5367  -34.2546 H   0  0  0  0  0  0  0  0  0  0  0  0
   -9.0137   17.6795  -31.1019 H   0  0  0  0  0  0  0  0  0  0  0  0
   -8.9846   20.0822  -30.4183 H   0  0  0  0  0  0  0  0  0  0  0  0
   -1.7042   25.8636  -26.7164 H   0  0  0  0  0  0  0  0  0  0  0  0
   -0.1015   26.2317  -27.4393 H   0  0  0  0  0  0  0  0  0  0  0  0
   -1.3945   27.4786  -27.4393 H   0  0  0  0  0  0  0  0  0  0  0  0
  1  2  1  0
  2  3  1  0
  3  4  2  0
  4  5  1  0
  5  6  2  0
  6  7  1  0
  7  8  1  0
  7  9  2  0
  9 10  1  0
 10 11  1  0
 11 12  2  0
 11 13  2  0
 11 14  1  0
 14 15  2  0
 15 16  1  0
 16 17  2  0
 17 18  1  0
 17 19  1  0
 19 20  2  0
  9 21  1  0
 21 22  2  0
 21 23  1  0
 23 24  1  0
 24 25  2  0
 25 26  1  0
 26 27  1  0
 25  3  1  0
 24  6  1  0
 20 14  1  0
  1 28  1  0
  1 29  1  0
  1 30  1  0
  4 31  1  0
  5 32  1  0
  8 33  1  0
  8 34  1  0
  8 35  1  0
 10 36  1  0
 15 37  1  0
 16 38  1  0
 19 39  1  0
 20 40  1  0
 27 41  1  0
 27 42  1  0
 27 43  1  0
M  END
>  <UniqueID>  (42) 
41

>  <SMILES>  (42) 
COc1ccc2c(C)c(NS(=O)(=O)c3ccc(F)cc3)c(=O)oc2c1OC

>  <Energy>  (42) 
60.92606891678501

>  <Genealogy>  (42) 
COc1ccc2c(C)c(NS(=O)(=O)c3ccc(F)cc3)c(=O)oc2c1OC (3D coordinates assigned)
COc1ccc2c(C)c(NS(=O)(=O)c3ccc(F)cc3)c(=O)oc2c1OC (optimized conformer: 60.92606891678501 kcal/mol)

>  <smiles>  (42) 
COc1ccc2c(C)c(NS(=O)(=O)c3ccc(F)cc3)c(=O)oc2c1OC

>  <score_type>  (42) 
oracle

>  <origin>  (42) 
adgpu

>  <m_score__min__energy>  (42) 
-9.75

>  <m_primary>  (42) 
energy

$$$$
42:0
     RDKit          3D

 55 58  0  0  0  0  0  0  0  0999 V2000
   -4.3620   25.9330  -30.4780 O   0  0  0  0  0  0  0  0  0  0  0  0
   -4.0480   24.7670  -30.1120 C   0  0  0  0  0  0  0  0  0  0  0  0
   -3.2230   24.5650  -28.9580 N   0  0  0  0  0  0  0  0  0  0  0  0
   -3.7320   24.5490  -27.5910 C   0  0  0  0  0  0  0  0  0  0  0  0
   -2.5720   24.5140  -26.5830 C   0  0  0  0  0  0  0  0  0  0  0  0
   -1.6590   23.2720  -26.7560 C   0  0  0  0  0  0  0  0  0  0  0  0
   -1.6930   22.6240  -28.0940 N   0  0  0  0  0  0  0  0  0  0  0  0
   -0.3730   22.5610  -28.7360 C   0  0  0  0  0  0  0  0  0  0  0  0
   -0.4950   22.1540  -30.2090 C   0  0  0  0  0  0  0  0  0  0  0  0
   -1.5270   21.1290  -30.4840 N   0  0  0  0  0  0  0  0  0  0  0  0
   -1.6620   20.6190  -31.8490 C   0  0  0  0  0  0  0  0  0  0  0  0
   -2.6400   19.6470  -32.1800 C   0  0  0  0  0  0  0  0  0  0  0  0
   -2.7490   19.1460  -33.4800 C   0  0  0  0  0  0  0  0  0  0  0  0
   -1.8910   19.5940  -34.4820 C   0  0  0  0  0  0  0  0  0  0  0  0
   -0.9200   20.5510  -34.1870 C   0  0  0  0  0  0  0  0  0  0  0  0
    0.1630   21.1140  -35.4490 Cl  0  0  0  0  0  0  0  0  0  0  0  0
   -0.8040   21.0610  -32.8880 C   0  0  0  0  0  0  0  0  0  0  0  0
   -2.5440   20.7480  -29.4740 C   0  0  0  0  0  0  0  0  0  0  0  0
   -2.2690   21.2700  -28.0570 C   0  0  0  0  0  0  0  0  0  0  0  0
   -4.5230   23.6080  -30.8720 C   0  0  0  0  0  0  0  0  0  0  0  0
   -5.7090   22.9290  -30.6820 C   0  0  0  0  0  0  0  0  0  0  0  0
   -5.6740   21.9380  -31.6490 C   0  0  0  0  0  0  0  0  0  0  0  0
   -6.7130   20.9140  -31.9120 C   0  0  0  0  0  0  0  0  0  0  0  0
   -8.0790   21.1920  -31.7100 C   0  0  0  0  0  0  0  0  0  0  0  0
   -9.0450   20.2160  -31.9630 C   0  0  0  0  0  0  0  0  0  0  0  0
   -8.6650   18.9540  -32.4250 C   0  0  0  0  0  0  0  0  0  0  0  0
   -7.3140   18.6650  -32.6310 C   0  0  0  0  0  0  0  0  0  0  0  0
   -6.8380   17.0830  -33.2200 Cl  0  0  0  0  0  0  0  0  0  0  0  0
   -6.3410   19.6370  -32.3740 C   0  0  0  0  0  0  0  0  0  0  0  0
   -4.5290   22.0460  -32.3560 N   0  0  0  0  0  0  0  0  0  0  0  0
   -3.8670   23.0520  -31.8640 O   0  0  0  0  0  0  0  0  0  0  0  0
   -4.3338   25.4535  -27.4186 H   0  0  0  0  0  0  0  0  0  0  0  0
   -4.3497   23.6494  -27.4527 H   0  0  0  0  0  0  0  0  0  0  0  0
   -1.9622   25.4194  -26.7182 H   0  0  0  0  0  0  0  0  0  0  0  0
   -3.0114   24.4629  -25.5759 H   0  0  0  0  0  0  0  0  0  0  0  0
   -0.6230   23.5848  -26.5590 H   0  0  0  0  0  0  0  0  0  0  0  0
   -2.0417   22.5198  -26.0504 H   0  0  0  0  0  0  0  0  0  0  0  0
   -2.3160   23.2250  -28.6870 H   0  0  0  0  0  0  0  0  0  0  0  0
    0.1039   23.5504  -28.6749 H   0  0  0  0  0  0  0  0  0  0  0  0
    0.2339   21.8066  -28.2140 H   0  0  0  0  0  0  0  0  0  0  0  0
   -0.7405   23.0528  -30.7937 H   0  0  0  0  0  0  0  0  0  0  0  0
    0.4700   21.7061  -30.4886 H   0  0  0  0  0  0  0  0  0  0  0  0
   -3.3244   19.2812  -31.4004 H   0  0  0  0  0  0  0  0  0  0  0  0
   -3.5167   18.3936  -33.7135 H   0  0  0  0  0  0  0  0  0  0  0  0
   -1.9790   19.1942  -35.5030 H   0  0  0  0  0  0  0  0  0  0  0  0
   -0.0349   21.8167  -32.6700 H   0  0  0  0  0  0  0  0  0  0  0  0
   -3.5169   21.1431  -29.8017 H   0  0  0  0  0  0  0  0  0  0  0  0
   -2.5216   19.6501  -29.4100 H   0  0  0  0  0  0  0  0  0  0  0  0
   -3.2138   21.2967  -27.4942 H   0  0  0  0  0  0  0  0  0  0  0  0
   -1.5481   20.5967  -27.5702 H   0  0  0  0  0  0  0  0  0  0  0  0
   -6.4955   23.1276  -29.9390 H   0  0  0  0  0  0  0  0  0  0  0  0
   -8.3869   22.1849  -31.3504 H   0  0  0  0  0  0  0  0  0  0  0  0
  -10.1088   20.4419  -31.7979 H   0  0  0  0  0  0  0  0  0  0  0  0
   -9.4288   18.1884  -32.6264 H   0  0  0  0  0  0  0  0  0  0  0  0
   -5.2784   19.4020  -32.5339 H   0  0  0  0  0  0  0  0  0  0  0  0
  1  2  2  0
  2  3  1  0
  3  4  1  0
  4  5  1  0
  5  6  1  0
  6  7  1  0
  7  8  1  0
  8  9  1  0
  9 10  1  0
 10 11  1  0
 11 12  2  0
 12 13  1  0
 13 14  2  0
 14 15  1  0
 15 16  1  0
 15 17  2  0
 10 18  1  0
 18 19  1  0
  2 20  1  0
 20 21  2  0
 21 22  1  0
 22 23  1  0
 23 24  2  0
 24 25  1  0
 25 26  2  0
 26 27  1  0
 27 28  1  0
 27 29  2  0
 22 30  2  0
 30 31  1  0
 19  7  1  0
 31 20  1  0
 17 11  1  0
 29 23  1  0
  4 32  1  0
  4 33  1  0
  5 34  1  0
  5 35  1  0
  6 36  1  0
  6 37  1  0
  7 38  1  0
  8 39  1  0
  8 40  1  0
  9 41  1  0
  9 42  1  0
 12 43  1  0
 13 44  1  0
 14 45  1  0
 17 46  1  0
 18 47  1  0
 18 48  1  0
 19 49  1  0
 19 50  1  0
 21 51  1  0
 24 52  1  0
 25 53  1  0
 26 54  1  0
 29 55  1  0
M  CHG  2   3  -1   7   1
M  END
>  <UniqueID>  (43) 
42

>  <SMILES>  (43) 
O=C([N-]CCC[NH+]1CCN(c2cccc(Cl)c2)CC1)c1cc(-c2cccc(Cl)c2)no1

>  <Energy>  (43) 
99.12727149031579

>  <Genealogy>  (43) 
O=C([N-]CCC[NH+]1CCN(c2cccc(Cl)c2)CC1)c1cc(-c2cccc(Cl)c2)no1 (protonated)
O=C([N-]CCC[NH+]1CCN(c2cccc(Cl)c2)CC1)c1cc(-c2cccc(Cl)c2)no1 (3D coordinates assigned)
O=C([N-]CCC[NH+]1CCN(c2cccc(Cl)c2)CC1)c1cc(-c2cccc(Cl)c2)no1 (nonaromatic ring conformer: 99.12727149031579 kcal/mol)

>  <smiles>  (43) 
O=C(NCCCN1CCN(c2cccc(Cl)c2)CC1)c1cc(-c2cccc(Cl)c2)no1

>  <score_type>  (43) 
oracle

>  <origin>  (43) 
adgpu

>  <m_score__min__energy>  (43) 
-10.34

>  <m_primary>  (43) 
energy

$$$$
43:0
     RDKit          3D

 41 44  0  0  0  0  0  0  0  0999 V2000
   -0.4700   22.9700  -29.1370 C   0  0  0  0  0  0  0  0  0  0  0  0
   -1.9050   23.3530  -29.3480 C   0  0  0  0  0  0  0  0  0  0  0  0
   -2.6120   22.7040  -30.3140 N   0  0  0  0  0  0  0  0  0  0  0  0
   -3.9230   22.9720  -30.5430 C   0  0  0  0  0  0  0  0  0  0  0  0
   -4.6270   22.2880  -31.5380 C   0  0  0  0  0  0  0  0  0  0  0  0
   -5.9930   22.5600  -31.7520 C   0  0  0  0  0  0  0  0  0  0  0  0
   -6.7440   21.8800  -32.7740 N   0  0  0  0  0  0  0  0  0  0  0  0
   -6.6920   20.4630  -32.9940 C   0  0  0  0  0  0  0  0  0  0  0  0
   -5.6530   19.9310  -33.7700 C   0  0  0  0  0  0  0  0  0  0  0  0
   -5.5760   18.5550  -34.0030 C   0  0  0  0  0  0  0  0  0  0  0  0
   -6.5480   17.7010  -33.4730 C   0  0  0  0  0  0  0  0  0  0  0  0
   -6.4510   15.9730  -33.7670 Cl  0  0  0  0  0  0  0  0  0  0  0  0
   -7.6030   18.2240  -32.7220 C   0  0  0  0  0  0  0  0  0  0  0  0
   -7.6870   19.6010  -32.4850 C   0  0  0  0  0  0  0  0  0  0  0  0
   -9.0800   20.2210  -31.6060 Cl  0  0  0  0  0  0  0  0  0  0  0  0
   -6.6280   23.5420  -30.9730 C   0  0  0  0  0  0  0  0  0  0  0  0
   -5.9220   24.2270  -29.9770 C   0  0  0  0  0  0  0  0  0  0  0  0
   -4.5720   23.9420  -29.7590 C   0  0  0  0  0  0  0  0  0  0  0  0
   -3.8700   24.6020  -28.8030 N   0  0  0  0  0  0  0  0  0  0  0  0
   -2.5510   24.3520  -28.5800 C   0  0  0  0  0  0  0  0  0  0  0  0
   -1.8600   25.1230  -27.5250 C   0  0  0  0  0  0  0  0  0  0  0  0
   -0.8640   26.0610  -27.8490 C   0  0  0  0  0  0  0  0  0  0  0  0
   -0.2370   26.7990  -26.8420 C   0  0  0  0  0  0  0  0  0  0  0  0
   -0.6060   26.6160  -25.5060 C   0  0  0  0  0  0  0  0  0  0  0  0
   -1.6100   25.7020  -25.1780 C   0  0  0  0  0  0  0  0  0  0  0  0
   -2.2400   24.9620  -26.1830 C   0  0  0  0  0  0  0  0  0  0  0  0
   -0.2602   22.9140  -28.0586 H   0  0  0  0  0  0  0  0  0  0  0  0
   -0.2804   21.9898  -29.5988 H   0  0  0  0  0  0  0  0  0  0  0  0
    0.1828   23.7253  -29.5988 H   0  0  0  0  0  0  0  0  0  0  0  0
   -4.1138   21.5359  -32.1552 H   0  0  0  0  0  0  0  0  0  0  0  0
   -7.2690   22.4570  -33.4700 H   0  0  0  0  0  0  0  0  0  0  0  0
   -4.8931   20.6010  -34.1985 H   0  0  0  0  0  0  0  0  0  0  0  0
   -4.7509   18.1440  -34.6032 H   0  0  0  0  0  0  0  0  0  0  0  0
   -8.3716   17.5506  -32.3148 H   0  0  0  0  0  0  0  0  0  0  0  0
   -7.6889   23.7745  -31.1473 H   0  0  0  0  0  0  0  0  0  0  0  0
   -6.4296   24.9886  -29.3669 H   0  0  0  0  0  0  0  0  0  0  0  0
   -0.5772   26.2144  -28.8998 H   0  0  0  0  0  0  0  0  0  0  0  0
    0.5479   27.5249  -27.1006 H   0  0  0  0  0  0  0  0  0  0  0  0
   -0.1058   27.1917  -24.7133 H   0  0  0  0  0  0  0  0  0  0  0  0
   -1.9054   25.5642  -24.1274 H   0  0  0  0  0  0  0  0  0  0  0  0
   -3.0370   24.2505  -25.9212 H   0  0  0  0  0  0  0  0  0  0  0  0
  1  2  1  0
  2  3  2  0
  3  4  1  0
  4  5  2  0
  5  6  1  0
  6  7  1  0
  7  8  1  0
  8  9  2  0
  9 10  1  0
 10 11  2  0
 11 12  1  0
 11 13  1  0
 13 14  2  0
 14 15  1  0
  6 16  2  0
 16 17  1  0
 17 18  2  0
 18 19  1  0
 19 20  2  0
 20 21  1  0
 21 22  2  0
 22 23  1  0
 23 24  2  0
 24 25  1  0
 25 26  2  0
 20  2  1  0
 26 21  1  0
 18  4  1  0
 14  8  1  0
  1 27  1  0
  1 28  1  0
  1 29  1  0
  5 30  1  0
  7 31  1  0
  9 32  1  0
 10 33  1  0
 13 34  1  0
 16 35  1  0
 17 36  1  0
 22 37  1  0
 23 38  1  0
 24 39  1  0
 25 40  1  0
 26 41  1  0
M  END
>  <UniqueID>  (44) 
43

>  <SMILES>  (44) 
Cc1nc2cc(Nc3ccc(Cl)cc3Cl)ccc2nc1-c1ccccc1

>  <Energy>  (44) 
62.92036580029783

>  <Genealogy>  (44) 
Cc1nc2cc(Nc3ccc(Cl)cc3Cl)ccc2nc1-c1ccccc1 (3D coordinates assigned)
Cc1nc2cc(Nc3ccc(Cl)cc3Cl)ccc2nc1-c1ccccc1 (optimized conformer: 62.92036580029783 kcal/mol)

>  <smiles>  (44) 
Cc1nc2cc(Nc3ccc(Cl)cc3Cl)ccc2nc1-c1ccccc1

>  <score_type>  (44) 
oracle

>  <origin>  (44) 
adgpu

>  <m_score__min__energy>  (44) 
-9.4299999999999997

>  <m_primary>  (44) 
energy

$$$$
44:0
     RDKit          3D

 66 72  0  0  0  0  0  0  0  0999 V2000
   -2.0020   19.7840  -25.6580 C   0  0  0  0  0  0  0  0  0  0  0  0
   -1.3160   19.6210  -26.9540 N   0  0  0  0  0  0  0  0  0  0  0  0
   -2.2380   19.5210  -28.1060 C   0  0  0  0  0  0  0  0  0  0  0  0
   -2.5420   20.8880  -28.7460 C   0  0  0  0  0  0  0  0  0  0  0  0
   -1.2470   21.7440  -28.9560 C   0  0  1  0  0  0  0  0  0  0  0  0
   -0.4390   21.0490  -29.9440 C   0  0  0  0  0  0  0  0  0  0  0  0
    0.4830   20.0620  -29.6680 C   0  0  0  0  0  0  0  0  0  0  0  0
    1.1020   19.4560  -30.7790 C   0  0  0  0  0  0  0  0  0  0  0  0
    0.7620   19.8710  -32.0960 C   0  0  0  0  0  0  0  0  0  0  0  0
   -0.1540   20.9320  -32.3080 C   0  0  0  0  0  0  0  0  0  0  0  0
   -0.4520   21.3790  -33.5880 O   0  0  0  0  0  0  0  0  0  0  0  0
   -0.7300   21.5280  -31.1880 C   0  0  0  0  0  0  0  0  0  0  0  0
   -1.5430   22.6670  -31.0870 O   0  0  0  0  0  0  0  0  0  0  0  0
   -1.4360   23.0640  -29.7090 C   0  0  1  0  0  0  0  0  0  0  0  0
   -2.4300   23.9950  -29.0060 C   0  0  1  0  0  0  0  0  0  0  0  0
   -3.8240   23.5630  -29.1620 N   0  0  0  0  0  0  0  0  0  0  0  0
   -4.6250   24.0230  -30.2650 C   0  0  0  0  0  0  0  0  0  0  0  0
   -4.2600   25.0470  -30.9080 O   0  0  0  0  0  0  0  0  0  0  0  0
   -5.8560   23.3110  -30.6830 C   0  0  0  0  0  0  0  0  0  0  0  0
   -6.9550   24.0410  -31.1670 C   0  0  0  0  0  0  0  0  0  0  0  0
   -8.0880   23.3820  -31.6460 C   0  0  0  0  0  0  0  0  0  0  0  0
   -8.1320   21.9880  -31.6720 C   0  0  0  0  0  0  0  0  0  0  0  0
   -7.0300   21.2400  -31.2270 C   0  0  0  0  0  0  0  0  0  0  0  0
   -7.0200   19.8380  -31.2860 O   0  0  0  0  0  0  0  0  0  0  0  0
   -6.5440   19.0720  -32.3640 C   0  0  0  0  0  0  0  0  0  0  0  0
   -7.2280   17.8980  -32.7090 C   0  0  0  0  0  0  0  0  0  0  0  0
   -6.7770   17.1000  -33.7650 C   0  0  0  0  0  0  0  0  0  0  0  0
   -5.6340   17.4640  -34.4810 C   0  0  0  0  0  0  0  0  0  0  0  0
   -4.9340   18.6220  -34.1340 C   0  0  0  0  0  0  0  0  0  0  0  0
   -5.3790   19.4220  -33.0760 C   0  0  0  0  0  0  0  0  0  0  0  0
   -5.9180   21.9040  -30.6950 C   0  0  0  0  0  0  0  0  0  0  0  0
   -1.9860   24.1340  -27.4960 C   0  0  0  0  0  0  0  0  0  0  0  0
   -1.4410   22.8490  -26.7590 C   0  0  0  0  0  0  0  0  0  0  0  0
   -0.5070   21.9520  -27.6470 C   0  0  2  0  0  0  0  0  0  0  0  0
    0.6930   22.6610  -27.8740 O   0  0  0  0  0  0  0  0  0  0  0  0
   -0.1320   20.4960  -27.1640 C   0  0  2  0  0  0  0  0  0  0  0  0
    0.8380   19.7940  -28.2060 C   0  0  0  0  0  0  0  0  0  0  0  0
   -1.2862   19.6139  -24.8403 H   0  0  0  0  0  0  0  0  0  0  0  0
   -2.4080   20.8036  -25.5837 H   0  0  0  0  0  0  0  0  0  0  0  0
   -2.8233   19.0560  -25.5837 H   0  0  0  0  0  0  0  0  0  0  0  0
   -1.7814   18.8705  -28.8664 H   0  0  0  0  0  0  0  0  0  0  0  0
   -3.1885   19.1096  -27.7353 H   0  0  0  0  0  0  0  0  0  0  0  0
   -3.0201   20.7234  -29.7229 H   0  0  0  0  0  0  0  0  0  0  0  0
   -3.2050   21.4403  -28.0639 H   0  0  0  0  0  0  0  0  0  0  0  0
    1.8481   18.6620  -30.6278 H   0  0  0  0  0  0  0  0  0  0  0  0
    1.2149   19.3629  -32.9601 H   0  0  0  0  0  0  0  0  0  0  0  0
   -0.6123   23.7930  -29.6982 H   0  0  0  0  0  0  0  0  0  0  0  0
   -2.4054   24.9864  -29.4820 H   0  0  0  0  0  0  0  0  0  0  0  0
   -4.2830   23.0080  -28.4040 H   0  0  0  0  0  0  0  0  0  0  0  0
   -6.9219   25.1405  -31.1683 H   0  0  0  0  0  0  0  0  0  0  0  0
   -8.9498   23.9641  -32.0045 H   0  0  0  0  0  0  0  0  0  0  0  0
   -9.0314   21.4738  -32.0417 H   0  0  0  0  0  0  0  0  0  0  0  0
   -8.1253   17.6026  -32.1454 H   0  0  0  0  0  0  0  0  0  0  0  0
   -7.3234   16.1836  -34.0325 H   0  0  0  0  0  0  0  0  0  0  0  0
   -5.2857   16.8396  -35.3169 H   0  0  0  0  0  0  0  0  0  0  0  0
   -4.0307   18.9056  -34.6940 H   0  0  0  0  0  0  0  0  0  0  0  0
   -4.8181   20.3268  -32.7990 H   0  0  0  0  0  0  0  0  0  0  0  0
   -5.0828   21.3197  -30.2814 H   0  0  0  0  0  0  0  0  0  0  0  0
   -1.1914   24.8938  -27.4580 H   0  0  0  0  0  0  0  0  0  0  0  0
   -2.9138   24.3833  -26.9603 H   0  0  0  0  0  0  0  0  0  0  0  0
   -0.8717   23.1724  -25.8751 H   0  0  0  0  0  0  0  0  0  0  0  0
   -2.3164   22.2363  -26.4978 H   0  0  0  0  0  0  0  0  0  0  0  0
    0.7220   23.4150  -27.2280 H   0  0  0  0  0  0  0  0  0  0  0  0
    0.3679   20.6245  -26.1926 H   0  0  0  0  0  0  0  0  0  0  0  0
    1.8601   20.1587  -28.0263 H   0  0  0  0  0  0  0  0  0  0  0  0
    0.7400   18.7096  -28.0496 H   0  0  0  0  0  0  0  0  0  0  0  0
  1  2  1  0
  2  3  1  0
  3  4  1  0
  5  4  1  1
  5  6  1  0
  6  7  2  0
  7  8  1  0
  8  9  2  0
  9 10  1  0
 10 11  1  0
 10 12  2  0
 12 13  1  0
 13 14  1  0
 14 15  1  0
 15 16  1  0
 16 17  1  0
 17 18  2  0
 17 19  1  0
 19 20  2  0
 20 21  1  0
 21 22  2  0
 22 23  1  0
 23 24  1  0
 24 25  1  0
 25 26  2  0
 26 27  1  0
 27 28  2  0
 28 29  1  0
 29 30  2  0
 23 31  2  0
 15 32  1  0
 32 33  1  0
 33 34  1  0
 34 35  1  6
 34 36  1  0
 36 37  1  0
 36  2  1  0
 14  5  1  0
 31 19  1  0
 34  5  1  0
 12  6  1  0
 30 25  1  0
 37  7  1  0
  1 38  1  0
  1 39  1  0
  1 40  1  0
  3 41  1  0
  3 42  1  0
  4 43  1  0
  4 44  1  0
  8 45  1  0
  9 46  1  0
 14 47  1  6
 15 48  1  6
 16 49  1  0
 20 50  1  0
 21 51  1  0
 22 52  1  0
 26 53  1  0
 27 54  1  0
 28 55  1  0
 29 56  1  0
 30 57  1  0
 31 58  1  0
 32 59  1  0
 32 60  1  0
 33 61  1  0
 33 62  1  0
 35 63  1  0
 36 64  1  1
 37 65  1  0
 37 66  1  0
M  CHG  1  11  -1
M  END
>  <UniqueID>  (45) 
44

>  <SMILES>  (45) 
CN1CC[C@@]23c4c5ccc([O-])c4O[C@H]2C(NC(=O)c2cccc(Oc4ccccc4)c2)CCC3(O)C1C5

>  <Energy>  (45) 
157.90265464163863

>  <Genealogy>  (45) 
CN1CCC23c4c5ccc([O-])c4OC2C(NC(=O)c2cccc(Oc4ccccc4)c2)CCC3(O)C1C5 (protonated)
CN1CC[C@@]23c4c5ccc([O-])c4O[C@H]2C(NC(=O)c2cccc(Oc4ccccc4)c2)CCC3(O)C1C5 (chirality)
CN1CC[C@@]23c4c5ccc([O-])c4O[C@H]2C(NC(=O)c2cccc(Oc4ccccc4)c2)CCC3(O)C1C5 (3D coordinates assigned)
CN1CC[C@@]23c4c5ccc([O-])c4O[C@H]2C(NC(=O)c2cccc(Oc4ccccc4)c2)CCC3(O)C1C5 (nonaromatic ring conformer: 157.90265464163863 kcal/mol)

>  <smiles>  (45) 
CN1CCC23c4c5ccc(O)c4OC2C(NC(=O)c2cccc(Oc4ccccc4)c2)CCC3(O)C1C5

>  <score_type>  (45) 
oracle

>  <origin>  (45) 
adgpu

>  <m_score__min__energy>  (45) 
-10.35

>  <m_primary>  (45) 
energy

$$$$
45:0
     RDKit          3D

 40 42  0  0  0  0  0  0  0  0999 V2000
   -7.2510   18.1570  -33.1110 C   0  0  0  0  0  0  0  0  0  0  0  0
   -6.6810   19.4590  -32.6290 C   0  0  0  0  0  0  0  0  0  0  0  0
   -7.4070   20.2580  -31.7380 C   0  0  0  0  0  0  0  0  0  0  0  0
   -6.9100   21.5020  -31.3240 C   0  0  0  0  0  0  0  0  0  0  0  0
   -7.7010   22.3170  -30.3360 C   0  0  0  0  0  0  0  0  0  0  0  0
   -5.6590   21.9510  -31.8050 C   0  0  0  0  0  0  0  0  0  0  0  0
   -5.1490   23.2280  -31.3910 N   0  0  0  0  0  0  0  0  0  0  0  0
   -5.6320   24.3960  -31.7700 N   0  0  0  0  0  0  0  0  0  0  0  0
   -4.9010   25.3540  -31.2180 N   0  0  0  0  0  0  0  0  0  0  0  0
   -3.9320   24.8230  -30.4830 N   0  0  0  0  0  0  0  0  0  0  0  0
   -4.0940   23.4930  -30.6020 C   0  0  0  0  0  0  0  0  0  0  0  0
   -3.0250   22.2710  -29.8340 S   0  0  0  0  0  0  0  0  0  0  0  0
   -1.6600   23.4350  -29.5000 C   0  0  0  0  0  0  0  0  0  0  0  0
   -1.9070   24.1970  -28.2270 C   0  0  0  0  0  0  0  0  0  0  0  0
   -0.8480   24.8630  -27.5890 C   0  0  0  0  0  0  0  0  0  0  0  0
   -1.0690   25.5500  -26.3920 C   0  0  0  0  0  0  0  0  0  0  0  0
   -2.3440   25.5730  -25.8210 C   0  0  0  0  0  0  0  0  0  0  0  0
   -3.4030   24.9080  -26.4480 C   0  0  0  0  0  0  0  0  0  0  0  0
   -4.6390   24.9270  -25.8910 F   0  0  0  0  0  0  0  0  0  0  0  0
   -3.1870   24.2200  -27.6460 C   0  0  0  0  0  0  0  0  0  0  0  0
   -4.9130   21.1330  -32.6840 C   0  0  0  0  0  0  0  0  0  0  0  0
   -3.5590   21.5510  -33.1960 C   0  0  0  0  0  0  0  0  0  0  0  0
   -5.4480   19.9090  -33.1140 C   0  0  0  0  0  0  0  0  0  0  0  0
   -7.5238   17.5338  -32.2466 H   0  0  0  0  0  0  0  0  0  0  0  0
   -8.1462   18.3517  -33.7198 H   0  0  0  0  0  0  0  0  0  0  0  0
   -6.5007   17.6313  -33.7198 H   0  0  0  0  0  0  0  0  0  0  0  0
   -8.3777   19.9062  -31.3586 H   0  0  0  0  0  0  0  0  0  0  0  0
   -7.4196   22.0271  -29.3129 H   0  0  0  0  0  0  0  0  0  0  0  0
   -7.4862   23.3853  -30.4866 H   0  0  0  0  0  0  0  0  0  0  0  0
   -8.7752   22.1342  -30.4866 H   0  0  0  0  0  0  0  0  0  0  0  0
   -0.7201   22.8712  -29.4062 H   0  0  0  0  0  0  0  0  0  0  0  0
   -1.5957   24.1510  -30.3326 H   0  0  0  0  0  0  0  0  0  0  0  0
    0.1584   24.8440  -28.0326 H   0  0  0  0  0  0  0  0  0  0  0  0
   -0.2372   26.0738  -25.8983 H   0  0  0  0  0  0  0  0  0  0  0  0
   -2.5150   26.1139  -24.8786 H   0  0  0  0  0  0  0  0  0  0  0  0
   -4.0209   23.6953  -28.1352 H   0  0  0  0  0  0  0  0  0  0  0  0
   -2.8928   21.7567  -32.3452 H   0  0  0  0  0  0  0  0  0  0  0  0
   -3.1329   20.7426  -33.8083 H   0  0  0  0  0  0  0  0  0  0  0  0
   -3.6628   22.4589  -33.8083 H   0  0  0  0  0  0  0  0  0  0  0  0
   -4.8924   19.2970  -33.8398 H   0  0  0  0  0  0  0  0  0  0  0  0
  1  2  1  0
  2  3  2  0
  3  4  1  0
  4  5  1  0
  4  6  2  0
  6  7  1  0
  7  8  1  0
  8  9  2  0
  9 10  1  0
 10 11  2  0
 11 12  1  0
 12 13  1  0
 13 14  1  0
 14 15  2  0
 15 16  1  0
 16 17  2  0
 17 18  1  0
 18 19  1  0
 18 20  2  0
  6 21  1  0
 21 22  1  0
 21 23  2  0
 23  2  1  0
 11  7  1  0
 20 14  1  0
  1 24  1  0
  1 25  1  0
  1 26  1  0
  3 27  1  0
  5 28  1  0
  5 29  1  0
  5 30  1  0
 13 31  1  0
 13 32  1  0
 15 33  1  0
 16 34  1  0
 17 35  1  0
 20 36  1  0
 22 37  1  0
 22 38  1  0
 22 39  1  0
 23 40  1  0
M  END
>  <UniqueID>  (46) 
45

>  <SMILES>  (46) 
Cc1cc(C)c(-n2nnnc2SCc2cccc(F)c2)c(C)c1

>  <Energy>  (46) 
83.36706696801016

>  <Genealogy>  (46) 
Cc1cc(C)c(-n2nnnc2SCc2cccc(F)c2)c(C)c1 (3D coordinates assigned)
Cc1cc(C)c(-n2nnnc2SCc2cccc(F)c2)c(C)c1 (optimized conformer: 83.36706696801016 kcal/mol)

>  <smiles>  (46) 
Cc1cc(C)c(-n2nnnc2SCc2cccc(F)c2)c(C)c1

>  <score_type>  (46) 
oracle

>  <origin>  (46) 
adgpu

>  <m_score__min__energy>  (46) 
-9.2200000000000006

>  <m_primary>  (46) 
energy

$$$$
46:0
     RDKit          3D

 58 61  0  0  0  0  0  0  0  0999 V2000
   -4.1105   16.6279  -34.4817 H   0  0  0  0  0  0  0  0  0  0  0  0
   -4.9220   17.2210  -34.0350 C   0  0  0  0  0  0  0  0  0  0  0  0
   -4.7470   18.5820  -33.7650 C   0  0  0  0  0  0  0  0  0  0  0  0
   -3.4570   19.2610  -34.0920 C   0  0  0  0  0  0  0  0  0  0  0  0
   -2.9395   19.5334  -33.1603 H   0  0  0  0  0  0  0  0  0  0  0  0
   -2.8225   18.5800  -34.6782 H   0  0  0  0  0  0  0  0  0  0  0  0
   -3.6592   20.1696  -34.6782 H   0  0  0  0  0  0  0  0  0  0  0  0
   -5.7680   19.2920  -33.2160 N   0  0  0  0  0  0  0  0  0  0  0  0
   -6.9550   18.7030  -32.9050 C   0  0  0  0  0  0  0  0  0  0  0  0
   -7.9360   19.3890  -32.3950 N   0  0  0  0  0  0  0  0  0  0  0  0
   -7.9100   20.7730  -32.0060 C   0  0  0  0  0  0  0  0  0  0  0  0
   -9.0120   21.5780  -32.3160 C   0  0  0  0  0  0  0  0  0  0  0  0
   -9.8659   21.1496  -32.8614 H   0  0  0  0  0  0  0  0  0  0  0  0
   -9.0340   22.9220  -31.9370 C   0  0  0  0  0  0  0  0  0  0  0  0
   -9.8970   23.5516  -32.1994 H   0  0  0  0  0  0  0  0  0  0  0  0
   -7.9640   23.4690  -31.2260 C   0  0  0  0  0  0  0  0  0  0  0  0
   -7.9831   24.5313  -30.9412 H   0  0  0  0  0  0  0  0  0  0  0  0
   -6.8630   22.6710  -30.8720 C   0  0  0  0  0  0  0  0  0  0  0  0
   -5.7360   23.2460  -30.0950 C   0  0  0  0  0  0  0  0  0  0  0  0
   -5.0490   24.3790  -30.5650 C   0  0  0  0  0  0  0  0  0  0  0  0
   -5.3505   24.8442  -31.5151 H   0  0  0  0  0  0  0  0  0  0  0  0
   -3.9870   24.9190  -29.8360 C   0  0  0  0  0  0  0  0  0  0  0  0
   -3.4596   25.8058  -30.2173 H   0  0  0  0  0  0  0  0  0  0  0  0
   -3.5860   24.3400  -28.6200 C   0  0  0  0  0  0  0  0  0  0  0  0
   -2.4570   24.9160  -27.8440 C   0  0  0  0  0  0  0  0  0  0  0  0
   -2.4910   24.9350  -26.4390 C   0  0  0  0  0  0  0  0  0  0  0  0
   -3.3612   24.5208  -25.9087 H   0  0  0  0  0  0  0  0  0  0  0  0
   -1.4280   25.4760  -25.7100 C   0  0  0  0  0  0  0  0  0  0  0  0
   -1.4709   25.4893  -24.6109 H   0  0  0  0  0  0  0  0  0  0  0  0
   -0.3070   26.0020  -26.3690 C   0  0  0  0  0  0  0  0  0  0  0  0
    0.7690   26.5610  -25.5940 N   0  0  0  0  0  0  0  0  0  0  0  0
    1.7520   26.3620  -25.8850 H   0  0  0  0  0  0  0  0  0  0  0  0
    0.5770   27.2310  -24.3400 C   0  0  0  0  0  0  0  0  0  0  0  0
    1.0900   26.6260  -23.1500 N   0  0  0  0  0  0  0  0  0  0  0  0
    0.9890   27.0920  -22.2210 H   0  0  0  0  0  0  0  0  0  0  0  0
    1.5670   25.6990  -23.1990 H   0  0  0  0  0  0  0  0  0  0  0  0
    0.0010   28.4010  -24.2770 N   0  0  0  0  0  0  0  0  0  0  0  0
   -0.1050   28.8670  -23.3490 H   0  0  0  0  0  0  0  0  0  0  0  0
   -0.4410   29.1430  -25.4570 C   0  0  0  0  0  0  0  0  0  0  0  0
   -0.9801   30.0480  -25.1403 H   0  0  0  0  0  0  0  0  0  0  0  0
    0.4339   29.4292  -26.0591 H   0  0  0  0  0  0  0  0  0  0  0  0
   -1.1093   28.5099  -26.0591 H   0  0  0  0  0  0  0  0  0  0  0  0
   -0.2760   25.9950  -27.7750 C   0  0  0  0  0  0  0  0  0  0  0  0
    0.5902   26.4183  -28.3047 H   0  0  0  0  0  0  0  0  0  0  0  0
   -1.3380   25.4540  -28.5030 C   0  0  0  0  0  0  0  0  0  0  0  0
   -1.2984   25.4489  -29.6023 H   0  0  0  0  0  0  0  0  0  0  0  0
   -4.2740   23.2080  -28.1470 C   0  0  0  0  0  0  0  0  0  0  0  0
   -3.9738   22.7446  -27.1956 H   0  0  0  0  0  0  0  0  0  0  0  0
   -5.3360   22.6680  -28.8770 C   0  0  0  0  0  0  0  0  0  0  0  0
   -5.8644   21.7820  -28.4952 H   0  0  0  0  0  0  0  0  0  0  0  0
   -6.8490   21.3170  -31.2570 C   0  0  0  0  0  0  0  0  0  0  0  0
   -6.0010   20.6778  -30.9699 H   0  0  0  0  0  0  0  0  0  0  0  0
   -7.1380   17.3830  -33.1690 N   0  0  0  0  0  0  0  0  0  0  0  0
   -6.1500   16.6310  -33.7250 C   0  0  0  0  0  0  0  0  0  0  0  0
   -6.3820   15.1780  -33.9960 C   0  0  0  0  0  0  0  0  0  0  0  0
   -6.4685   14.6364  -33.0425 H   0  0  0  0  0  0  0  0  0  0  0  0
   -7.3110   15.0563  -34.5724 H   0  0  0  0  0  0  0  0  0  0  0  0
   -5.5371   14.7730  -34.5724 H   0  0  0  0  0  0  0  0  0  0  0  0
  1  2  1  0
  2  3  1  0
  3  4  1  0
  4  5  1  0
  4  6  1  0
  4  7  1  0
  3  8  2  0
  8  9  1  0
  9 10  2  3
 10 11  1  0
 11 12  2  0
 12 13  1  0
 12 14  1  0
 14 15  1  0
 14 16  2  0
 16 17  1  0
 16 18  1  0
 18 19  1  0
 19 20  2  0
 20 21  1  0
 20 22  1  0
 22 23  1  0
 22 24  2  0
 24 25  1  0
 25 26  2  0
 26 27  1  0
 26 28  1  0
 28 29  1  0
 28 30  2  0
 30 31  1  0
 31 32  1  0
 31 33  1  0
 33 34  1  0
 34 35  1  0
 34 36  1  0
 33 37  2  0
 37 38  1  0
 37 39  1  0
 39 40  1  0
 39 41  1  0
 39 42  1  0
 30 43  1  0
 43 44  1  0
 43 45  2  0
 45 46  1  0
 24 47  1  0
 47 48  1  0
 47 49  2  0
 49 50  1  0
 18 51  2  0
 51 52  1  0
  9 53  1  0
 53 54  1  0
 54 55  1  0
 55 56  1  0
 55 57  1  0
 55 58  1  0
 54  2  2  0
 51 11  1  0
 49 19  1  0
 45 25  1  0
M  CHG  2  37   1  53  -1
M  END
>  <UniqueID>  (47) 
46

>  <SMILES>  (47) 
C/[NH+]=C(/N)Nc1ccc(-c2ccc(-c3cccc(N=c4nc(C)cc(C)[n-]4)c3)cc2)cc1

>  <Energy>  (47) 
81.40445314989333

>  <Genealogy>  (47) 
C[NH+]=C(N)Nc1ccc(-c2ccc(-c3cccc(N=c4nc(C)cc(C)[n-]4)c3)cc2)cc1 (protonated)
C/[NH+]=C(/N)Nc1ccc(-c2ccc(-c3cccc(N=c4nc(C)cc(C)[n-]4)c3)cc2)cc1 (cis-trans isomerization)
C/[NH+]=C(/N)Nc1ccc(-c2ccc(-c3cccc(N=c4nc(C)cc(C)[n-]4)c3)cc2)cc1 (3D coordinates assigned)
C/[NH+]=C(/N)Nc1ccc(-c2ccc(-c3cccc(N=c4nc(C)cc(C)[n-]4)c3)cc2)cc1 (optimized conformer: 81.40445314989333 kcal/mol)

>  <smiles>  (47) 
CN=C(N)Nc1ccc(-c2ccc(-c3cccc(N=c4nc(C)cc(C)[nH]4)c3)cc2)cc1

>  <score_type>  (47) 
oracle

>  <origin>  (47) 
adgpu

>  <m_score__min__energy>  (47) 
-10.94

>  <m_primary>  (47) 
energy

$$$$
47:0
     RDKit          3D

 39 41  0  0  0  0  0  0  0  0999 V2000
    2.7200   24.8710  -27.4800 C   0  0  0  0  0  0  0  0  0  0  0  0
    1.3620   25.2880  -27.5760 O   0  0  0  0  0  0  0  0  0  0  0  0
    0.5880   25.7330  -26.4930 C   0  0  0  0  0  0  0  0  0  0  0  0
    1.1390   25.9290  -25.2110 C   0  0  0  0  0  0  0  0  0  0  0  0
    0.3400   26.3820  -24.1600 C   0  0  0  0  0  0  0  0  0  0  0  0
   -1.0120   26.6530  -24.3760 C   0  0  0  0  0  0  0  0  0  0  0  0
   -1.5710   26.4630  -25.6410 C   0  0  0  0  0  0  0  0  0  0  0  0
   -0.7800   25.9840  -26.7030 C   0  0  0  0  0  0  0  0  0  0  0  0
   -1.3220   25.8010  -28.0200 N   0  0  0  0  0  0  0  0  0  0  0  0
   -2.3180   24.8470  -28.4070 C   0  0  0  0  0  0  0  0  0  0  0  0
   -2.6150   23.8890  -27.6420 O   0  0  0  0  0  0  0  0  0  0  0  0
   -2.9020   24.9390  -29.7140 N   0  0  0  0  0  0  0  0  0  0  0  0
   -4.0310   24.1640  -30.1530 C   0  0  0  0  0  0  0  0  0  0  0  0
   -3.8140   22.9590  -30.8360 C   0  0  0  0  0  0  0  0  0  0  0  0
   -4.8930   22.1960  -31.2920 C   0  0  0  0  0  0  0  0  0  0  0  0
   -6.2110   22.6340  -31.0870 C   0  0  0  0  0  0  0  0  0  0  0  0
   -7.3540   21.8300  -31.5700 C   0  0  0  0  0  0  0  0  0  0  0  0
   -8.5320   22.3570  -31.9640 N   0  0  0  0  0  0  0  0  0  0  0  0
   -9.2570   21.3390  -32.3090 O   0  0  0  0  0  0  0  0  0  0  0  0
   -8.5720   20.2350  -32.1460 C   0  0  0  0  0  0  0  0  0  0  0  0
   -9.1020   18.8660  -32.4180 C   0  0  0  0  0  0  0  0  0  0  0  0
  -10.2320   18.9600  -33.2090 F   0  0  0  0  0  0  0  0  0  0  0  0
   -9.4290   18.2450  -31.2260 F   0  0  0  0  0  0  0  0  0  0  0  0
   -8.1480   18.1120  -33.0750 F   0  0  0  0  0  0  0  0  0  0  0  0
   -7.3370   20.4830  -31.6670 N   0  0  0  0  0  0  0  0  0  0  0  0
   -6.4290   23.8540  -30.4240 C   0  0  0  0  0  0  0  0  0  0  0  0
   -5.3490   24.6160  -29.9670 C   0  0  0  0  0  0  0  0  0  0  0  0
    3.0029   24.7841  -26.4205 H   0  0  0  0  0  0  0  0  0  0  0  0
    2.8395   23.8948  -27.9726 H   0  0  0  0  0  0  0  0  0  0  0  0
    3.3668   25.6119  -27.9726 H   0  0  0  0  0  0  0  0  0  0  0  0
    2.2056   25.7237  -25.0374 H   0  0  0  0  0  0  0  0  0  0  0  0
    0.7763   26.5256  -23.1605 H   0  0  0  0  0  0  0  0  0  0  0  0
   -1.6381   27.0169  -23.5480 H   0  0  0  0  0  0  0  0  0  0  0  0
   -2.6344   26.6885  -25.8090 H   0  0  0  0  0  0  0  0  0  0  0  0
   -2.4250   25.5550  -30.4100 H   0  0  0  0  0  0  0  0  0  0  0  0
   -2.7859   22.6109  -31.0146 H   0  0  0  0  0  0  0  0  0  0  0  0
   -4.7081   21.2461  -31.8149 H   0  0  0  0  0  0  0  0  0  0  0  0
   -7.4566   24.2121  -30.2634 H   0  0  0  0  0  0  0  0  0  0  0  0
   -5.5319   25.5744  -29.4591 H   0  0  0  0  0  0  0  0  0  0  0  0
  1  2  1  0
  2  3  1  0
  3  4  2  0
  4  5  1  0
  5  6  2  0
  6  7  1  0
  7  8  2  0
  8  9  1  0
  9 10  1  0
 10 11  2  0
 10 12  1  0
 12 13  1  0
 13 14  2  0
 14 15  1  0
 15 16  2  0
 16 17  1  0
 17 18  2  0
 18 19  1  0
 19 20  1  0
 20 21  1  0
 21 22  1  0
 21 23  1  0
 21 24  1  0
 20 25  2  0
 16 26  1  0
 26 27  2  0
  8  3  1  0
 27 13  1  0
 25 17  1  0
  1 28  1  0
  1 29  1  0
  1 30  1  0
  4 31  1  0
  5 32  1  0
  6 33  1  0
  7 34  1  0
 12 35  1  0
 14 36  1  0
 15 37  1  0
 26 38  1  0
 27 39  1  0
M  CHG  1   9  -1
M  END
>  <UniqueID>  (48) 
47

>  <SMILES>  (48) 
COc1ccccc1[N-]C(=O)Nc1ccc(-c2noc(C(F)(F)F)n2)cc1

>  <Energy>  (48) 
79.95316462755903

>  <Genealogy>  (48) 
COc1ccccc1[N-]C(=O)Nc1ccc(-c2noc(C(F)(F)F)n2)cc1 (protonated)
COc1ccccc1[N-]C(=O)Nc1ccc(-c2noc(C(F)(F)F)n2)cc1 (3D coordinates assigned)
COc1ccccc1[N-]C(=O)Nc1ccc(-c2noc(C(F)(F)F)n2)cc1 (optimized conformer: 79.95316462755903 kcal/mol)

>  <smiles>  (48) 
COc1ccccc1NC(=O)Nc1ccc(-c2noc(C(F)(F)F)n2)cc1

>  <score_type>  (48) 
oracle

>  <origin>  (48) 
adgpu

>  <m_score__min__energy>  (48) 
-9.0600000000000005

>  <m_primary>  (48) 
energy

$$$$
48:0
     RDKit          3D

 40 42  0  0  0  0  0  0  0  0999 V2000
   -2.5840   17.3830  -33.9540 C   0  0  0  0  0  0  0  0  0  0  0  0
   -3.3590   18.5840  -33.5870 N   0  0  2  0  0  0  0  0  0  0  0  0
   -4.6480   18.5800  -34.3210 C   0  0  0  0  0  0  0  0  0  0  0  0
   -5.8330   18.7140  -33.3900 C   0  0  0  0  0  0  0  0  0  0  0  0
   -6.1220   17.7070  -32.4530 C   0  0  0  0  0  0  0  0  0  0  0  0
   -7.2260   17.8300  -31.6050 C   0  0  0  0  0  0  0  0  0  0  0  0
   -8.0490   18.9570  -31.6830 C   0  0  0  0  0  0  0  0  0  0  0  0
   -9.1200   19.0720  -30.8600 F   0  0  0  0  0  0  0  0  0  0  0  0
   -7.7680   19.9630  -32.6130 C   0  0  0  0  0  0  0  0  0  0  0  0
   -8.5650   21.0580  -32.6920 F   0  0  0  0  0  0  0  0  0  0  0  0
   -6.6640   19.8440  -33.4630 C   0  0  0  0  0  0  0  0  0  0  0  0
   -2.5840   19.8150  -33.8830 C   0  0  0  0  0  0  0  0  0  0  0  0
   -2.8620   20.9050  -32.8870 C   0  0  0  0  0  0  0  0  0  0  0  0
   -1.9290   21.5470  -32.1070 C   0  0  0  0  0  0  0  0  0  0  0  0
   -2.5640   22.4530  -31.4060 O   0  0  0  0  0  0  0  0  0  0  0  0
   -3.8370   22.3860  -31.7360 C   0  0  0  0  0  0  0  0  0  0  0  0
   -4.8860   23.2550  -31.1610 C   0  0  0  0  0  0  0  0  0  0  0  0
   -6.2420   22.8910  -31.2720 C   0  0  0  0  0  0  0  0  0  0  0  0
   -7.2410   23.7060  -30.7320 C   0  0  0  0  0  0  0  0  0  0  0  0
   -6.9010   24.8900  -30.0770 C   0  0  0  0  0  0  0  0  0  0  0  0
   -5.5600   25.2640  -29.9590 C   0  0  0  0  0  0  0  0  0  0  0  0
   -4.5530   24.4530  -30.4960 C   0  0  0  0  0  0  0  0  0  0  0  0
   -3.2600   24.8440  -30.3660 F   0  0  0  0  0  0  0  0  0  0  0  0
   -4.0790   21.4330  -32.6640 N   0  0  0  0  0  0  0  0  0  0  0  0
   -2.2516   16.8679  -33.0407 H   0  0  0  0  0  0  0  0  0  0  0  0
   -3.2160   16.7060  -34.5474 H   0  0  0  0  0  0  0  0  0  0  0  0
   -1.7067   17.6799  -34.5474 H   0  0  0  0  0  0  0  0  0  0  0  0
   -3.5550   18.5350  -32.5580 H   0  0  0  0  0  0  0  0  0  0  0  0
   -4.6559   19.4221  -35.0287 H   0  0  0  0  0  0  0  0  0  0  0  0
   -4.7363   17.6172  -34.8456 H   0  0  0  0  0  0  0  0  0  0  0  0
   -5.4767   16.8186  -32.3869 H   0  0  0  0  0  0  0  0  0  0  0  0
   -7.4478   17.0381  -30.8745 H   0  0  0  0  0  0  0  0  0  0  0  0
   -6.4455   20.6385  -34.1917 H   0  0  0  0  0  0  0  0  0  0  0  0
   -1.5109   19.5746  -33.8568 H   0  0  0  0  0  0  0  0  0  0  0  0
   -2.8852   20.1767  -34.8772 H   0  0  0  0  0  0  0  0  0  0  0  0
   -0.8494   21.3383  -32.0773 H   0  0  0  0  0  0  0  0  0  0  0  0
   -6.5168   21.9588  -31.7873 H   0  0  0  0  0  0  0  0  0  0  0  0
   -8.2974   23.4133  -30.8237 H   0  0  0  0  0  0  0  0  0  0  0  0
   -7.6893   25.5295  -29.6532 H   0  0  0  0  0  0  0  0  0  0  0  0
   -5.2946   26.1983  -29.4427 H   0  0  0  0  0  0  0  0  0  0  0  0
  1  2  1  0
  2  3  1  0
  3  4  1  0
  4  5  2  0
  5  6  1  0
  6  7  2  0
  7  8  1  0
  7  9  1  0
  9 10  1  0
  9 11  2  0
  2 12  1  0
 12 13  1  0
 13 14  2  0
 14 15  1  0
 15 16  1  0
 16 17  1  0
 17 18  2  0
 18 19  1  0
 19 20  2  0
 20 21  1  0
 21 22  2  0
 22 23  1  0
 16 24  2  0
 11  4  1  0
 24 13  1  0
 22 17  1  0
  1 25  1  0
  1 26  1  0
  1 27  1  0
  2 28  1  1
  3 29  1  0
  3 30  1  0
  5 31  1  0
  6 32  1  0
 11 33  1  0
 12 34  1  0
 12 35  1  0
 14 36  1  0
 18 37  1  0
 19 38  1  0
 20 39  1  0
 21 40  1  0
M  CHG  1   2   1
M  END
>  <UniqueID>  (49) 
48

>  <SMILES>  (49) 
C[N@H+](Cc1ccc(F)c(F)c1)Cc1coc(-c2ccccc2F)n1

>  <Energy>  (49) 
74.25966082848889

>  <Genealogy>  (49) 
C[NH+](Cc1ccc(F)c(F)c1)Cc1coc(-c2ccccc2F)n1 (protonated)
C[N@H+](Cc1ccc(F)c(F)c1)Cc1coc(-c2ccccc2F)n1 (chirality)
C[N@H+](Cc1ccc(F)c(F)c1)Cc1coc(-c2ccccc2F)n1 (3D coordinates assigned)
C[N@H+](Cc1ccc(F)c(F)c1)Cc1coc(-c2ccccc2F)n1 (optimized conformer: 74.25966082848889 kcal/mol)

>  <smiles>  (49) 
CN(Cc1ccc(F)c(F)c1)Cc1coc(-c2ccccc2F)n1

>  <score_type>  (49) 
oracle

>  <origin>  (49) 
adgpu

>  <m_score__min__energy>  (49) 
-7.5700000000000003

>  <m_primary>  (49) 
energy

$$$$
49:0
     RDKit          3D

 42 44  0  0  0  0  0  0  0  0999 V2000
   -3.6770   24.9030  -26.7350 C   0  0  0  0  0  0  0  0  0  0  0  0
   -2.7960   23.9830  -27.5130 C   0  0  0  0  0  0  0  0  0  0  0  0
   -2.2110   22.8860  -26.9910 N   0  0  0  0  0  0  0  0  0  0  0  0
   -1.6320   22.2280  -27.9850 N   0  0  0  0  0  0  0  0  0  0  0  0
   -0.8660   21.0020  -27.7920 C   0  0  0  0  0  0  0  0  0  0  0  0
   -1.8270   22.8830  -29.1520 C   0  0  0  0  0  0  0  0  0  0  0  0
   -1.2710   22.4640  -30.4790 C   0  0  0  0  0  0  0  0  0  0  0  0
   -2.6020   23.9970  -28.8800 C   0  0  0  0  0  0  0  0  0  0  0  0
   -3.1920   24.9210  -29.7990 N   0  0  0  0  0  0  0  0  0  0  0  0
   -4.8650   24.8620  -30.2550 S   0  0  0  0  0  0  0  0  0  0  0  0
   -5.7160   24.9760  -29.0230 O   0  0  0  0  0  0  0  0  0  0  0  0
   -5.1840   26.0080  -31.1770 O   0  0  0  0  0  0  0  0  0  0  0  0
   -5.2110   23.3210  -31.0320 C   0  0  0  0  0  0  0  0  0  0  0  0
   -4.2550   22.6850  -31.8290 C   0  0  0  0  0  0  0  0  0  0  0  0
   -4.5300   21.4400  -32.4030 C   0  0  0  0  0  0  0  0  0  0  0  0
   -5.7750   20.8150  -32.1920 C   0  0  0  0  0  0  0  0  0  0  0  0
   -6.0700   19.4930  -32.8040 C   0  0  0  0  0  0  0  0  0  0  0  0
   -6.9630   18.5990  -32.1810 C   0  0  0  0  0  0  0  0  0  0  0  0
   -7.2330   17.3530  -32.7540 C   0  0  0  0  0  0  0  0  0  0  0  0
   -6.6190   16.9860  -33.9550 C   0  0  0  0  0  0  0  0  0  0  0  0
   -5.7340   17.8660  -34.5860 C   0  0  0  0  0  0  0  0  0  0  0  0
   -5.4610   19.1130  -34.0180 C   0  0  0  0  0  0  0  0  0  0  0  0
   -6.7340   21.4660  -31.3940 C   0  0  0  0  0  0  0  0  0  0  0  0
   -6.4520   22.7070  -30.8200 C   0  0  0  0  0  0  0  0  0  0  0  0
   -3.5195   24.7386  -25.6588 H   0  0  0  0  0  0  0  0  0  0  0  0
   -3.4317   25.9454  -26.9864 H   0  0  0  0  0  0  0  0  0  0  0  0
   -4.7290   24.7030  -26.9864 H   0  0  0  0  0  0  0  0  0  0  0  0
   -0.7461   20.8102  -26.7155 H   0  0  0  0  0  0  0  0  0  0  0  0
   -1.3988   20.1597  -28.2575 H   0  0  0  0  0  0  0  0  0  0  0  0
    0.1246   21.1115  -28.2575 H   0  0  0  0  0  0  0  0  0  0  0  0
   -0.4015   21.8088  -30.3219 H   0  0  0  0  0  0  0  0  0  0  0  0
   -2.0422   21.9206  -31.0446 H   0  0  0  0  0  0  0  0  0  0  0  0
   -0.9611   23.3551  -31.0446 H   0  0  0  0  0  0  0  0  0  0  0  0
   -3.2817   23.1662  -32.0055 H   0  0  0  0  0  0  0  0  0  0  0  0
   -3.7688   20.9449  -33.0238 H   0  0  0  0  0  0  0  0  0  0  0  0
   -7.4511   18.8835  -31.2372 H   0  0  0  0  0  0  0  0  0  0  0  0
   -7.9296   16.6603  -32.2592 H   0  0  0  0  0  0  0  0  0  0  0  0
   -6.8320   16.0046  -34.4039 H   0  0  0  0  0  0  0  0  0  0  0  0
   -5.2519   17.5759  -35.5312 H   0  0  0  0  0  0  0  0  0  0  0  0
   -4.7669   19.8025  -34.5207 H   0  0  0  0  0  0  0  0  0  0  0  0
   -7.7124   20.9939  -31.2213 H   0  0  0  0  0  0  0  0  0  0  0  0
   -7.2092   23.2058  -30.1973 H   0  0  0  0  0  0  0  0  0  0  0  0
  1  2  1  0
  2  3  2  0
  3  4  1  0
  4  5  1  0
  4  6  1  0
  6  7  1  0
  6  8  2  0
  8  9  1  0
  9 10  1  0
 10 11  2  0
 10 12  2  0
 10 13  1  0
 13 14  2  0
 14 15  1  0
 15 16  2  0
 16 17  1  0
 17 18  2  0
 18 19  1  0
 19 20  2  0
 20 21  1  0
 21 22  2  0
 16 23  1  0
 23 24  2  0
  8  2  1  0
 24 13  1  0
 22 17  1  0
  1 25  1  0
  1 26  1  0
  1 27  1  0
  5 28  1  0
  5 29  1  0
  5 30  1  0
  7 31  1  0
  7 32  1  0
  7 33  1  0
 14 34  1  0
 15 35  1  0
 18 36  1  0
 19 37  1  0
 20 38  1  0
 21 39  1  0
 22 40  1  0
 23 41  1  0
 24 42  1  0
M  CHG  1   9  -1
M  END
>  <UniqueID>  (50) 
49

>  <SMILES>  (50) 
Cc1nn(C)c(C)c1[N-]S(=O)(=O)c1ccc(-c2ccccc2)cc1

>  <Energy>  (50) 
84.74451980808163

>  <Genealogy>  (50) 
Cc1nn(C)c(C)c1[N-]S(=O)(=O)c1ccc(-c2ccccc2)cc1 (protonated)
Cc1nn(C)c(C)c1[N-]S(=O)(=O)c1ccc(-c2ccccc2)cc1 (3D coordinates assigned)
Cc1nn(C)c(C)c1[N-]S(=O)(=O)c1ccc(-c2ccccc2)cc1 (optimized conformer: 84.74451980808163 kcal/mol)

>  <smiles>  (50) 
Cc1nn(C)c(C)c1NS(=O)(=O)c1ccc(-c2ccccc2)cc1

>  <score_type>  (50) 
oracle

>  <origin>  (50) 
adgpu

>  <m_score__min__energy>  (50) 
-9.9399999999999995

>  <m_primary>  (50) 
energy

$$$$
