0:0
     RDKit          3D

 60 63  0  0  0  0  0  0  0  0999 V2000
   -1.1240   21.1310  -27.3280 C   0  0  0  0  0  0  0  0  0  0  0  0
   -1.7690   22.1960  -28.1740 C   0  0  0  0  0  0  0  0  0  0  0  0
   -2.9550   21.8600  -28.8450 C   0  0  0  0  0  0  0  0  0  0  0  0
   -3.6500   22.8080  -29.5880 C   0  0  0  0  0  0  0  0  0  0  0  0
   -3.1970   24.1290  -29.6500 C   0  0  0  0  0  0  0  0  0  0  0  0
   -3.8570   25.1120  -30.4590 N   0  0  0  0  0  0  0  0  0  0  0  0
   -5.1850   25.6150  -30.2720 C   0  0  0  0  0  0  0  0  0  0  0  0
   -5.4350   26.8340  -30.4690 O   0  0  0  0  0  0  0  0  0  0  0  0
   -6.2610   24.7160  -29.9820 N   0  0  0  0  0  0  0  0  0  0  0  0
   -6.5060   23.4800  -30.6660 C   0  0  0  0  0  0  0  0  0  0  0  0
   -5.6940   23.1320  -31.7510 C   0  0  0  0  0  0  0  0  0  0  0  0
   -5.9090   21.9370  -32.4440 C   0  0  0  0  0  0  0  0  0  0  0  0
   -6.9490   21.0730  -32.0640 C   0  0  0  0  0  0  0  0  0  0  0  0
   -7.1710   19.7910  -32.7850 C   0  0  0  0  0  0  0  0  0  0  0  0
   -8.3500   19.4070  -33.0200 O   0  0  0  0  0  0  0  0  0  0  0  0
   -6.0650   18.9810  -33.2250 N   0  0  0  0  0  0  0  0  0  0  0  0
   -5.0190   18.5920  -32.2720 C   0  0  0  0  0  0  0  0  0  0  0  0
   -3.7180   18.3320  -33.0290 C   0  0  0  0  0  0  0  0  0  0  0  0
   -3.9260   17.3820  -34.0580 O   0  0  0  0  0  0  0  0  0  0  0  0
   -4.8090   17.9120  -35.0340 C   0  0  0  0  0  0  0  0  0  0  0  0
   -6.1970   18.1750  -34.4410 C   0  0  0  0  0  0  0  0  0  0  0  0
   -7.7970   21.4490  -31.0100 C   0  0  0  0  0  0  0  0  0  0  0  0
   -7.5790   22.6440  -30.3170 C   0  0  0  0  0  0  0  0  0  0  0  0
   -2.0190   24.4860  -28.9840 C   0  0  0  0  0  0  0  0  0  0  0  0
   -1.5960   25.8080  -29.0550 O   0  0  0  0  0  0  0  0  0  0  0  0
   -1.2700   23.5270  -28.2600 C   0  0  0  0  0  0  0  0  0  0  0  0
    0.2620   24.0480  -27.4840 S   0  0  0  0  0  0  0  0  0  0  0  0
    1.2390   24.5490  -28.5100 O   0  0  0  0  0  0  0  0  0  0  0  0
    0.9000   22.8460  -26.8410 O   0  0  0  0  0  0  0  0  0  0  0  0
    0.0390   25.2730  -26.2420 N   0  0  0  0  0  0  0  0  0  0  0  0
   -1.3850   25.4360  -25.8870 C   0  0  0  0  0  0  0  0  0  0  0  0
   -1.6270   26.7910  -25.2070 C   0  0  0  0  0  0  0  0  0  0  0  0
   -1.2940   27.9090  -26.0220 O   0  0  0  0  0  0  0  0  0  0  0  0
   -0.3120   27.6200  -27.0110 C   0  0  0  0  0  0  0  0  0  0  0  0
    0.7020   26.5520  -26.5650 C   0  0  0  0  0  0  0  0  0  0  0  0
   -1.2688   21.3701  -26.2641 H   0  0  0  0  0  0  0  0  0  0  0  0
   -1.5842   20.1570  -27.5508 H   0  0  0  0  0  0  0  0  0  0  0  0
   -0.0477   21.0876  -27.5508 H   0  0  0  0  0  0  0  0  0  0  0  0
   -3.3405   20.8317  -28.7823 H   0  0  0  0  0  0  0  0  0  0  0  0
   -4.5617   22.5167  -30.1302 H   0  0  0  0  0  0  0  0  0  0  0  0
   -4.8801   23.8039  -32.0611 H   0  0  0  0  0  0  0  0  0  0  0  0
   -5.2600   21.6720  -33.2917 H   0  0  0  0  0  0  0  0  0  0  0  0
   -4.8651   19.4024  -31.5443 H   0  0  0  0  0  0  0  0  0  0  0  0
   -5.3253   17.6786  -31.7410 H   0  0  0  0  0  0  0  0  0  0  0  0
   -3.3622   19.2739  -33.4720 H   0  0  0  0  0  0  0  0  0  0  0  0
   -2.9693   17.9378  -32.3261 H   0  0  0  0  0  0  0  0  0  0  0  0
   -4.3966   18.8579  -35.4151 H   0  0  0  0  0  0  0  0  0  0  0  0
   -4.9109   17.1778  -35.8468 H   0  0  0  0  0  0  0  0  0  0  0  0
   -6.8123   18.7165  -35.1746 H   0  0  0  0  0  0  0  0  0  0  0  0
   -6.6775   17.2167  -34.1947 H   0  0  0  0  0  0  0  0  0  0  0  0
   -8.6385   20.7993  -30.7275 H   0  0  0  0  0  0  0  0  0  0  0  0
   -8.2512   22.9304  -29.4947 H   0  0  0  0  0  0  0  0  0  0  0  0
   -1.9934   25.3780  -26.8016 H   0  0  0  0  0  0  0  0  0  0  0  0
   -1.6672   24.6356  -25.1873 H   0  0  0  0  0  0  0  0  0  0  0  0
   -2.6921   26.8605  -24.9410 H   0  0  0  0  0  0  0  0  0  0  0  0
   -0.9701   26.8295  -24.3255 H   0  0  0  0  0  0  0  0  0  0  0  0
   -0.8230   27.2604  -27.9163 H   0  0  0  0  0  0  0  0  0  0  0  0
    0.2499   28.5477  -27.1944 H   0  0  0  0  0  0  0  0  0  0  0  0
    1.4242   26.3843  -27.3776 H   0  0  0  0  0  0  0  0  0  0  0  0
    1.2076   26.9156  -25.6582 H   0  0  0  0  0  0  0  0  0  0  0  0
  1  2  1  0
  2  3  2  0
  3  4  1  0
  4  5  2  0
  5  6  1  0
  6  7  1  0
  7  8  2  0
  7  9  1  0
  9 10  1  0
 10 11  2  0
 11 12  1  0
 12 13  2  0
 13 14  1  0
 14 15  2  0
 14 16  1  0
 16 17  1  0
 17 18  1  0
 18 19  1  0
 19 20  1  0
 20 21  1  0
 13 22  1  0
 22 23  2  0
  5 24  1  0
 24 25  1  0
 24 26  2  0
 26 27  1  0
 27 28  2  0
 27 29  2  0
 27 30  1  0
 30 31  1  0
 31 32  1  0
 32 33  1  0
 33 34  1  0
 34 35  1  0
 26  2  1  0
 35 30  1  0
 23 10  1  0
 21 16  1  0
  1 36  1  0
  1 37  1  0
  1 38  1  0
  3 39  1  0
  4 40  1  0
 11 41  1  0
 12 42  1  0
 17 43  1  0
 17 44  1  0
 18 45  1  0
 18 46  1  0
 20 47  1  0
 20 48  1  0
 21 49  1  0
 21 50  1  0
 22 51  1  0
 23 52  1  0
 31 53  1  0
 31 54  1  0
 32 55  1  0
 32 56  1  0
 34 57  1  0
 34 58  1  0
 35 59  1  0
 35 60  1  0
M  CHG  3   6  -1   9  -1  25  -1
M  END
>  <UniqueID>  (1) 
1

>  <SMILES>  (1) 
Cc1ccc([N-]C(=O)[N-]c2ccc(C(=O)N3CCOCC3)cc2)c([O-])c1S(=O)(=O)N1CCOCC1

>  <Energy>  (1) 
94.73833682589434

>  <Genealogy>  (1) 
Cc1ccc([N-]C(=O)[N-]c2ccc(C(=O)N3CCOCC3)cc2)c([O-])c1S(=O)(=O)N1CCOCC1 (protonated)
Cc1ccc([N-]C(=O)[N-]c2ccc(C(=O)N3CCOCC3)cc2)c([O-])c1S(=O)(=O)N1CCOCC1 (3D coordinates assigned)
Cc1ccc([N-]C(=O)[N-]c2ccc(C(=O)N3CCOCC3)cc2)c([O-])c1S(=O)(=O)N1CCOCC1 (nonaromatic ring conformer: 94.73833682589434 kcal/mol)

>  <smiles>  (1) 
Cc1ccc(NC(=O)Nc2ccc(C(=O)N3CCOCC3)cc2)c(O)c1S(=O)(=O)N1CCOCC1

>  <score_type>  (1) 
oracle

>  <origin>  (1) 
adgpu

>  <m_score__min__energy>  (1) 
-16.16

>  <m_primary>  (1) 
energy

$$$$
1:0
     RDKit          3D

 57 60  0  0  0  0  0  0  0  0999 V2000
   -5.5240   24.2880  -29.2960 O   0  0  0  0  0  0  0  0  0  0  0  0
   -4.2760   24.2490  -30.1270 S   0  0  0  0  0  0  0  0  0  0  0  0
   -3.9520   25.6630  -30.5210 O   0  0  0  0  0  0  0  0  0  0  0  0
   -4.4990   23.3260  -31.5820 N   0  0  0  0  0  0  0  0  0  0  0  0
   -5.0820   22.0210  -31.7190 C   0  0  0  0  0  0  0  0  0  0  0  0
   -6.4700   21.8100  -31.8060 C   0  0  0  0  0  0  0  0  0  0  0  0
   -6.9830   20.5170  -31.9340 C   0  0  0  0  0  0  0  0  0  0  0  0
   -6.1200   19.4160  -31.9810 C   0  0  0  0  0  0  0  0  0  0  0  0
   -6.7760   17.7880  -32.1390 S   0  0  0  0  0  0  0  0  0  0  0  0
   -6.4980   17.0030  -30.8850 O   0  0  0  0  0  0  0  0  0  0  0  0
   -8.2660   17.8850  -32.3200 O   0  0  0  0  0  0  0  0  0  0  0  0
   -6.0670   16.9870  -33.5210 N   0  0  0  0  0  0  0  0  0  0  0  0
   -5.7170   17.9790  -34.5560 C   0  0  0  0  0  0  0  0  0  0  0  0
   -4.6150   17.4360  -35.4830 C   0  0  0  0  0  0  0  0  0  0  0  0
   -3.4010   17.1250  -34.8130 O   0  0  0  0  0  0  0  0  0  0  0  0
   -3.5690   16.8180  -33.4340 C   0  0  0  0  0  0  0  0  0  0  0  0
   -4.9170   16.1460  -33.1170 C   0  0  0  0  0  0  0  0  0  0  0  0
   -4.7370   19.6220  -31.9220 C   0  0  0  0  0  0  0  0  0  0  0  0
   -4.2230   20.9170  -31.7970 C   0  0  0  0  0  0  0  0  0  0  0  0
   -2.9320   23.5810  -29.1940 C   0  0  0  0  0  0  0  0  0  0  0  0
   -2.9970   22.2590  -28.7250 C   0  0  0  0  0  0  0  0  0  0  0  0
   -1.9630   21.7250  -27.9430 C   0  0  0  0  0  0  0  0  0  0  0  0
   -2.0520   20.0560  -27.3650 S   0  0  0  0  0  0  0  0  0  0  0  0
   -3.4780   19.5890  -27.4410 O   0  0  0  0  0  0  0  0  0  0  0  0
   -1.6260   20.0160  -25.9240 O   0  0  0  0  0  0  0  0  0  0  0  0
   -1.0500   18.9610  -28.2880 N   0  0  0  0  0  0  0  0  0  0  0  0
    0.1390   18.5450  -27.5460 C   0  0  0  0  0  0  0  0  0  0  0  0
    1.1830   18.1650  -28.5850 C   0  0  0  0  0  0  0  0  0  0  0  0
    0.7230   18.8240  -29.8780 C   0  0  0  0  0  0  0  0  0  0  0  0
   -0.5490   19.5750  -29.5160 C   0  0  0  0  0  0  0  0  0  0  0  0
   -0.8490   22.5170  -27.6390 C   0  0  0  0  0  0  0  0  0  0  0  0
   -0.7700   23.8280  -28.1120 C   0  0  0  0  0  0  0  0  0  0  0  0
   -1.8030   24.3620  -28.8880 C   0  0  0  0  0  0  0  0  0  0  0  0
   -1.6920   25.6660  -29.3520 O   0  0  0  0  0  0  0  0  0  0  0  0
   -7.1562   22.6691  -31.7730 H   0  0  0  0  0  0  0  0  0  0  0  0
   -8.0703   20.3634  -31.9982 H   0  0  0  0  0  0  0  0  0  0  0  0
   -6.6115   18.2070  -35.1542 H   0  0  0  0  0  0  0  0  0  0  0  0
   -5.3452   18.8884  -34.0613 H   0  0  0  0  0  0  0  0  0  0  0  0
   -4.9884   16.5209  -35.9660 H   0  0  0  0  0  0  0  0  0  0  0  0
   -4.3856   18.2319  -36.2068 H   0  0  0  0  0  0  0  0  0  0  0  0
   -2.7601   16.1388  -33.1270 H   0  0  0  0  0  0  0  0  0  0  0  0
   -3.5437   17.7703  -32.8840 H   0  0  0  0  0  0  0  0  0  0  0  0
   -4.9713   15.1884  -33.6555 H   0  0  0  0  0  0  0  0  0  0  0  0
   -4.9730   15.9955  -32.0288 H   0  0  0  0  0  0  0  0  0  0  0  0
   -4.0520   18.7629  -31.9741 H   0  0  0  0  0  0  0  0  0  0  0  0
   -3.1343   21.0699  -31.7596 H   0  0  0  0  0  0  0  0  0  0  0  0
   -3.8685   21.6357  -28.9738 H   0  0  0  0  0  0  0  0  0  0  0  0
    0.5070   19.3729  -26.9221 H   0  0  0  0  0  0  0  0  0  0  0  0
   -0.0837   17.7005  -26.8773 H   0  0  0  0  0  0  0  0  0  0  0  0
    2.1736   18.5426  -28.2915 H   0  0  0  0  0  0  0  0  0  0  0  0
    1.2765   17.0742  -28.6919 H   0  0  0  0  0  0  0  0  0  0  0  0
    1.4892   19.5206  -30.2491 H   0  0  0  0  0  0  0  0  0  0  0  0
    0.5504   18.0860  -30.6753 H   0  0  0  0  0  0  0  0  0  0  0  0
   -0.3285   20.6394  -29.3476 H   0  0  0  0  0  0  0  0  0  0  0  0
   -1.2922   19.5175  -30.3249 H   0  0  0  0  0  0  0  0  0  0  0  0
   -0.0340   22.1050  -27.0258 H   0  0  0  0  0  0  0  0  0  0  0  0
    0.1095   24.4440  -27.8729 H   0  0  0  0  0  0  0  0  0  0  0  0
  1  2  2  0
  2  3  2  0
  2  4  1  0
  4  5  1  0
  5  6  2  0
  6  7  1  0
  7  8  2  0
  8  9  1  0
  9 10  2  0
  9 11  2  0
  9 12  1  0
 12 13  1  0
 13 14  1  0
 14 15  1  0
 15 16  1  0
 16 17  1  0
  8 18  1  0
 18 19  2  0
  2 20  1  0
 20 21  2  0
 21 22  1  0
 22 23  1  0
 23 24  2  0
 23 25  2  0
 23 26  1  0
 26 27  1  0
 27 28  1  0
 28 29  1  0
 29 30  1  0
 22 31  2  0
 31 32  1  0
 32 33  2  0
 33 34  1  0
 19  5  1  0
 33 20  1  0
 17 12  1  0
 30 26  1  0
  6 35  1  0
  7 36  1  0
 13 37  1  0
 13 38  1  0
 14 39  1  0
 14 40  1  0
 16 41  1  0
 16 42  1  0
 17 43  1  0
 17 44  1  0
 18 45  1  0
 19 46  1  0
 21 47  1  0
 27 48  1  0
 27 49  1  0
 28 50  1  0
 28 51  1  0
 29 52  1  0
 29 53  1  0
 30 54  1  0
 30 55  1  0
 31 56  1  0
 32 57  1  0
M  CHG  2   4  -1  34  -1
M  END
>  <UniqueID>  (2) 
2

>  <SMILES>  (2) 
O=S(=O)([N-]c1ccc(S(=O)(=O)N2CCOCC2)cc1)c1cc(S(=O)(=O)N2CCCC2)ccc1[O-]

>  <Energy>  (2) 
80.1248153413172

>  <Genealogy>  (2) 
O=S(=O)([N-]c1ccc(S(=O)(=O)N2CCOCC2)cc1)c1cc(S(=O)(=O)N2CCCC2)ccc1[O-] (protonated)
O=S(=O)([N-]c1ccc(S(=O)(=O)N2CCOCC2)cc1)c1cc(S(=O)(=O)N2CCCC2)ccc1[O-] (3D coordinates assigned)
O=S(=O)([N-]c1ccc(S(=O)(=O)N2CCOCC2)cc1)c1cc(S(=O)(=O)N2CCCC2)ccc1[O-] (nonaromatic ring conformer: 80.1248153413172 kcal/mol)

>  <smiles>  (2) 
O=S(=O)(Nc1ccc(S(=O)(=O)N2CCOCC2)cc1)c1cc(S(=O)(=O)N2CCCC2)ccc1O

>  <score_type>  (2) 
oracle

>  <origin>  (2) 
adgpu

>  <m_score__min__energy>  (2) 
-14.470000000000001

>  <m_primary>  (2) 
energy

$$$$
2:0
     RDKit          3D

 48 52  0  0  0  0  0  0  0  0999 V2000
   -8.6040   19.2720  -31.4560 O   0  0  0  0  0  0  0  0  0  0  0  0
   -7.5020   19.6810  -31.9130 C   0  0  0  0  0  0  0  0  0  0  0  0
   -6.7250   18.8270  -32.8430 C   0  0  0  0  0  0  0  0  0  0  0  0
   -7.2030   17.5590  -33.2200 C   0  0  0  0  0  0  0  0  0  0  0  0
   -6.4670   16.7580  -34.0950 C   0  0  0  0  0  0  0  0  0  0  0  0
   -5.2500   17.2110  -34.6040 C   0  0  0  0  0  0  0  0  0  0  0  0
   -4.7620   18.4680  -34.2380 C   0  0  0  0  0  0  0  0  0  0  0  0
   -5.4930   19.2870  -33.3570 C   0  0  0  0  0  0  0  0  0  0  0  0
   -4.9800   20.6210  -32.9670 C   0  0  0  0  0  0  0  0  0  0  0  0
   -3.8790   21.0310  -33.4270 O   0  0  0  0  0  0  0  0  0  0  0  0
   -5.7560   21.4730  -32.0360 C   0  0  0  0  0  0  0  0  0  0  0  0
   -5.2720   22.7370  -31.6510 C   0  0  0  0  0  0  0  0  0  0  0  0
   -5.9970   23.5330  -30.7550 C   0  0  0  0  0  0  0  0  0  0  0  0
   -5.3590   25.0810  -30.2040 S   0  0  0  0  0  0  0  0  0  0  0  0
   -4.4220   25.6700  -31.2210 O   0  0  0  0  0  0  0  0  0  0  0  0
   -6.5050   26.0280  -29.9930 O   0  0  0  0  0  0  0  0  0  0  0  0
   -4.5100   24.8570  -28.7070 N   0  0  0  0  0  0  0  0  0  0  0  0
   -3.4020   23.9510  -28.5660 C   0  0  0  0  0  0  0  0  0  0  0  0
   -3.5960   22.6320  -28.1180 C   0  0  0  0  0  0  0  0  0  0  0  0
   -2.5090   21.7630  -27.9470 C   0  0  0  0  0  0  0  0  0  0  0  0
   -1.2040   22.2190  -28.2180 C   0  0  0  0  0  0  0  0  0  0  0  0
   -1.0130   23.5180  -28.7060 C   0  0  0  0  0  0  0  0  0  0  0  0
   -2.0990   24.3810  -28.8750 C   0  0  0  0  0  0  0  0  0  0  0  0
   -1.8740   25.6720  -29.3400 O   0  0  0  0  0  0  0  0  0  0  0  0
   -0.0200   21.2890  -28.0870 C   0  0  0  0  0  0  0  0  0  0  0  0
   -0.2920   20.1620  -27.1850 N   0  0  0  0  0  0  0  0  0  0  0  0
   -1.5300   19.4740  -27.5720 C   0  0  0  0  0  0  0  0  0  0  0  0
   -2.7480   20.3870  -27.3840 C   0  0  0  0  0  0  0  0  0  0  0  0
   -7.2150   23.0730  -30.2480 C   0  0  0  0  0  0  0  0  0  0  0  0
   -7.7090   21.8240  -30.6280 C   0  0  0  0  0  0  0  0  0  0  0  0
   -6.9860   21.0120  -31.5190 C   0  0  0  0  0  0  0  0  0  0  0  0
   -8.1626   17.1963  -32.8230 H   0  0  0  0  0  0  0  0  0  0  0  0
   -6.8478   15.7672  -34.3837 H   0  0  0  0  0  0  0  0  0  0  0  0
   -4.6736   16.5778  -35.2945 H   0  0  0  0  0  0  0  0  0  0  0  0
   -3.8007   18.8197  -34.6408 H   0  0  0  0  0  0  0  0  0  0  0  0
   -4.3172   23.1027  -32.0567 H   0  0  0  0  0  0  0  0  0  0  0  0
   -4.9370   25.2860  -27.8550 H   0  0  0  0  0  0  0  0  0  0  0  0
   -4.6140   22.2775  -27.8989 H   0  0  0  0  0  0  0  0  0  0  0  0
    0.0009   23.8619  -28.9585 H   0  0  0  0  0  0  0  0  0  0  0  0
    0.2302   20.8929  -29.0822 H   0  0  0  0  0  0  0  0  0  0  0  0
    0.8148   21.8656  -27.6620 H   0  0  0  0  0  0  0  0  0  0  0  0
   -0.3940   20.5250  -26.2070 H   0  0  0  0  0  0  0  0  0  0  0  0
   -1.4618   19.1784  -28.6293 H   0  0  0  0  0  0  0  0  0  0  0  0
   -1.6537   18.5883  -26.9314 H   0  0  0  0  0  0  0  0  0  0  0  0
   -3.6117   19.9380  -27.8962 H   0  0  0  0  0  0  0  0  0  0  0  0
   -2.9360   20.4875  -26.3049 H   0  0  0  0  0  0  0  0  0  0  0  0
   -7.7871   23.6978  -29.5464 H   0  0  0  0  0  0  0  0  0  0  0  0
   -8.6712   21.4725  -30.2272 H   0  0  0  0  0  0  0  0  0  0  0  0
  1  2  2  0
  2  3  1  0
  3  4  2  0
  4  5  1  0
  5  6  2  0
  6  7  1  0
  7  8  2  0
  8  9  1  0
  9 10  2  0
  9 11  1  0
 11 12  2  0
 12 13  1  0
 13 14  1  0
 14 15  2  0
 14 16  2  0
 14 17  1  0
 17 18  1  0
 18 19  2  0
 19 20  1  0
 20 21  2  0
 21 22  1  0
 22 23  2  0
 23 24  1  0
 21 25  1  0
 25 26  1  0
 26 27  1  0
 27 28  1  0
 13 29  2  0
 29 30  1  0
 30 31  2  0
 31  2  1  0
  8  3  1  0
 31 11  1  0
 23 18  1  0
 28 20  1  0
  4 32  1  0
  5 33  1  0
  6 34  1  0
  7 35  1  0
 12 36  1  0
 17 37  1  0
 19 38  1  0
 22 39  1  0
 25 40  1  0
 25 41  1  0
 26 42  1  0
 27 43  1  0
 27 44  1  0
 28 45  1  0
 28 46  1  0
 29 47  1  0
 30 48  1  0
M  CHG  1  24  -1
M  END
>  <UniqueID>  (3) 
3

>  <SMILES>  (3) 
O=C1c2ccccc2C(=O)c2cc(S(=O)(=O)Nc3cc4c(cc3[O-])CNCC4)ccc21

>  <Energy>  (3) 
63.438498519927684

>  <Genealogy>  (3) 
O=C1c2ccccc2C(=O)c2cc(S(=O)(=O)Nc3cc4c(cc3[O-])CNCC4)ccc21 (protonated)
O=C1c2ccccc2C(=O)c2cc(S(=O)(=O)Nc3cc4c(cc3[O-])CNCC4)ccc21 (3D coordinates assigned)
O=C1c2ccccc2C(=O)c2cc(S(=O)(=O)Nc3cc4c(cc3[O-])CNCC4)ccc21 (nonaromatic ring conformer: 63.438498519927684 kcal/mol)

>  <smiles>  (3) 
O=C1c2ccccc2C(=O)c2cc(S(=O)(=O)Nc3cc4c(cc3O)CNCC4)ccc21

>  <score_type>  (3) 
oracle

>  <origin>  (3) 
adgpu

>  <m_score__min__energy>  (3) 
-15.58

>  <m_primary>  (3) 
energy

$$$$
3:0
     RDKit          3D

 55 57  0  0  0  0  0  0  0  0999 V2000
   -0.9110   19.0780  -27.5710 C   0  0  0  0  0  0  0  0  0  0  0  0
   -0.8050   19.8920  -28.7350 O   0  0  0  0  0  0  0  0  0  0  0  0
   -1.6720   20.9510  -29.0500 C   0  0  0  0  0  0  0  0  0  0  0  0
   -2.8210   21.2220  -28.2850 C   0  0  0  0  0  0  0  0  0  0  0  0
   -3.6650   22.2800  -28.6230 C   0  0  0  0  0  0  0  0  0  0  0  0
   -3.3900   23.0930  -29.7340 C   0  0  0  0  0  0  0  0  0  0  0  0
   -4.3010   24.2180  -30.0770 C   0  0  0  0  0  0  0  0  0  0  0  0
   -5.7840   24.1330  -29.8620 C   0  0  0  0  0  0  0  0  0  0  0  0
   -3.8280   25.2800  -30.5650 O   0  0  0  0  0  0  0  0  0  0  0  0
   -2.2430   22.8190  -30.5030 C   0  0  0  0  0  0  0  0  0  0  0  0
   -1.3790   21.7650  -30.1620 C   0  0  0  0  0  0  0  0  0  0  0  0
   -0.1460   21.5040  -30.9930 C   0  0  0  0  0  0  0  0  0  0  0  0
   -0.4940   20.8990  -32.2390 O   0  0  0  0  0  0  0  0  0  0  0  0
   -1.7800   20.4680  -32.6010 C   0  0  0  0  0  0  0  0  0  0  0  0
   -2.0880   19.1110  -32.4560 C   0  0  0  0  0  0  0  0  0  0  0  0
   -3.3470   18.6250  -32.8220 C   0  0  0  0  0  0  0  0  0  0  0  0
   -4.3170   19.4950  -33.3350 C   0  0  0  0  0  0  0  0  0  0  0  0
   -5.8950   18.8750  -33.8250 S   0  0  0  0  0  0  0  0  0  0  0  0
   -6.1090   19.1700  -35.2840 O   0  0  0  0  0  0  0  0  0  0  0  0
   -5.9230   17.3830  -33.6430 O   0  0  0  0  0  0  0  0  0  0  0  0
   -7.1850   19.5990  -32.8960 N   0  0  0  0  0  0  0  0  0  0  0  0
   -8.1320   18.5650  -32.4350 C   0  0  0  0  0  0  0  0  0  0  0  0
   -9.0340   19.0710  -31.2860 C   0  0  0  0  0  0  0  0  0  0  0  0
   -9.1040   20.5450  -31.2240 N   0  0  0  0  0  0  0  0  0  0  0  0
   -9.8760   21.1080  -32.3440 C   0  0  0  0  0  0  0  0  0  0  0  0
   -7.7650   21.1700  -31.0920 C   0  0  0  0  0  0  0  0  0  0  0  0
   -6.6420   20.3540  -31.7620 C   0  0  0  0  0  0  0  0  0  0  0  0
   -4.0210   20.8580  -33.4650 C   0  0  0  0  0  0  0  0  0  0  0  0
   -2.7630   21.3440  -33.1010 C   0  0  0  0  0  0  0  0  0  0  0  0
   -0.8288   19.7089  -26.6737 H   0  0  0  0  0  0  0  0  0  0  0  0
   -1.8836   18.5642  -27.5702 H   0  0  0  0  0  0  0  0  0  0  0  0
   -0.1024   18.3323  -27.5702 H   0  0  0  0  0  0  0  0  0  0  0  0
   -3.0560   20.5943  -27.4128 H   0  0  0  0  0  0  0  0  0  0  0  0
   -4.5572   22.4798  -28.0114 H   0  0  0  0  0  0  0  0  0  0  0  0
   -5.9980   24.1207  -28.7831 H   0  0  0  0  0  0  0  0  0  0  0  0
   -6.2718   25.0047  -30.3227 H   0  0  0  0  0  0  0  0  0  0  0  0
   -6.1691   23.2113  -30.3227 H   0  0  0  0  0  0  0  0  0  0  0  0
   -2.0201   23.4392  -31.3837 H   0  0  0  0  0  0  0  0  0  0  0  0
    0.3676   22.4574  -31.1858 H   0  0  0  0  0  0  0  0  0  0  0  0
    0.5138   20.8192  -30.4402 H   0  0  0  0  0  0  0  0  0  0  0  0
   -1.3335   18.4207  -32.0507 H   0  0  0  0  0  0  0  0  0  0  0  0
   -3.5763   17.5554  -32.7065 H   0  0  0  0  0  0  0  0  0  0  0  0
   -8.7692   18.2658  -33.2803 H   0  0  0  0  0  0  0  0  0  0  0  0
   -7.5460   17.7150  -32.0555 H   0  0  0  0  0  0  0  0  0  0  0  0
  -10.0498   18.6763  -31.4360 H   0  0  0  0  0  0  0  0  0  0  0  0
   -8.5966   18.7188  -30.3401 H   0  0  0  0  0  0  0  0  0  0  0  0
  -10.7057   21.7131  -31.9499 H   0  0  0  0  0  0  0  0  0  0  0  0
   -9.2203   21.7414  -32.9595 H   0  0  0  0  0  0  0  0  0  0  0  0
  -10.2788   20.2901  -32.9595 H   0  0  0  0  0  0  0  0  0  0  0  0
   -7.7975   22.1664  -31.5570 H   0  0  0  0  0  0  0  0  0  0  0  0
   -7.5339   21.2209  -30.0177 H   0  0  0  0  0  0  0  0  0  0  0  0
   -5.8580   21.0374  -32.1202 H   0  0  0  0  0  0  0  0  0  0  0  0
   -6.2162   19.6526  -31.0294 H   0  0  0  0  0  0  0  0  0  0  0  0
   -4.7827   21.5488  -33.8555 H   0  0  0  0  0  0  0  0  0  0  0  0
   -2.5390   22.4159  -33.2054 H   0  0  0  0  0  0  0  0  0  0  0  0
  1  2  1  0
  2  3  1  0
  3  4  2  0
  4  5  1  0
  5  6  2  0
  6  7  1  0
  7  8  1  0
  7  9  2  0
  6 10  1  0
 10 11  2  0
 11 12  1  0
 12 13  1  0
 13 14  1  0
 14 15  2  0
 15 16  1  0
 16 17  2  0
 17 18  1  0
 18 19  2  0
 18 20  2  0
 18 21  1  0
 21 22  1  0
 22 23  1  0
 23 24  1  0
 24 25  1  0
 24 26  1  0
 26 27  1  0
 17 28  1  0
 28 29  2  0
 11  3  1  0
 29 14  1  0
 27 21  1  0
  1 30  1  0
  1 31  1  0
  1 32  1  0
  4 33  1  0
  5 34  1  0
  8 35  1  0
  8 36  1  0
  8 37  1  0
 10 38  1  0
 12 39  1  0
 12 40  1  0
 15 41  1  0
 16 42  1  0
 22 43  1  0
 22 44  1  0
 23 45  1  0
 23 46  1  0
 25 47  1  0
 25 48  1  0
 25 49  1  0
 26 50  1  0
 26 51  1  0
 27 52  1  0
 27 53  1  0
 28 54  1  0
 29 55  1  0
M  END
>  <UniqueID>  (4) 
4

>  <SMILES>  (4) 
COc1ccc(C(C)=O)cc1COc1ccc(S(=O)(=O)N2CCN(C)CC2)cc1

>  <Energy>  (4) 
63.92296324334402

>  <Genealogy>  (4) 
COc1ccc(C(C)=O)cc1COc1ccc(S(=O)(=O)N2CCN(C)CC2)cc1 (3D coordinates assigned)
COc1ccc(C(C)=O)cc1COc1ccc(S(=O)(=O)N2CCN(C)CC2)cc1 (nonaromatic ring conformer: 63.92296324334402 kcal/mol)

>  <smiles>  (4) 
COc1ccc(C(C)=O)cc1COc1ccc(S(=O)(=O)N2CCN(C)CC2)cc1

>  <score_type>  (4) 
oracle

>  <origin>  (4) 
adgpu

>  <m_score__min__energy>  (4) 
-9.8100000000000005

>  <m_primary>  (4) 
energy

$$$$
4:0
     RDKit          3D

 60 63  0  0  0  0  0  0  0  0999 V2000
   -1.8160   21.4530  -26.7350 C   0  0  0  0  0  0  0  0  0  0  0  0
   -2.3070   22.4190  -27.7800 C   0  0  0  0  0  0  0  0  0  0  0  0
   -3.4410   22.0610  -28.5280 C   0  0  0  0  0  0  0  0  0  0  0  0
   -3.9630   22.9210  -29.4910 C   0  0  0  0  0  0  0  0  0  0  0  0
   -3.3800   24.1660  -29.7170 C   0  0  0  0  0  0  0  0  0  0  0  0
   -3.9590   25.0220  -30.7110 N   0  0  0  0  0  0  0  0  0  0  0  0
   -5.3570   25.3040  -30.8490 C   0  0  0  0  0  0  0  0  0  0  0  0
   -5.8900   26.2250  -30.1750 O   0  0  0  0  0  0  0  0  0  0  0  0
   -6.1680   24.5530  -31.7600 N   0  0  0  0  0  0  0  0  0  0  0  0
   -6.0640   23.1470  -32.0230 C   0  0  0  0  0  0  0  0  0  0  0  0
   -7.1950   22.3120  -32.0590 C   0  0  0  0  0  0  0  0  0  0  0  0
   -7.0540   20.9490  -32.3350 C   0  0  0  0  0  0  0  0  0  0  0  0
   -5.7920   20.4140  -32.5960 C   0  0  0  0  0  0  0  0  0  0  0  0
   -4.6610   21.2410  -32.6020 C   0  0  0  0  0  0  0  0  0  0  0  0
   -3.0620   20.5650  -32.9380 S   0  0  0  0  0  0  0  0  0  0  0  0
   -3.2270   19.2580  -33.6640 O   0  0  0  0  0  0  0  0  0  0  0  0
   -2.3140   21.5070  -33.8400 O   0  0  0  0  0  0  0  0  0  0  0  0
   -2.1200   20.2960  -31.4910 N   0  0  0  0  0  0  0  0  0  0  0  0
   -1.4120   21.5010  -31.0640 C   0  0  0  0  0  0  0  0  0  0  0  0
   -0.2160   21.0290  -30.2550 C   0  0  0  0  0  0  0  0  0  0  0  0
    0.0080   19.5830  -30.6730 C   0  0  0  0  0  0  0  0  0  0  0  0
   -1.0850   19.2830  -31.6870 C   0  0  0  0  0  0  0  0  0  0  0  0
   -4.8050   22.6080  -32.3150 C   0  0  0  0  0  0  0  0  0  0  0  0
   -2.2090   24.5220  -29.0210 C   0  0  0  0  0  0  0  0  0  0  0  0
   -1.5720   25.7240  -29.3140 O   0  0  0  0  0  0  0  0  0  0  0  0
   -1.6630   23.6580  -28.0470 C   0  0  0  0  0  0  0  0  0  0  0  0
   -0.1920   24.2010  -27.1990 S   0  0  0  0  0  0  0  0  0  0  0  0
    0.7120   24.8480  -28.2120 O   0  0  0  0  0  0  0  0  0  0  0  0
    0.5640   23.0650  -26.5700 O   0  0  0  0  0  0  0  0  0  0  0  0
   -0.6450   25.3760  -25.9820 N   0  0  0  0  0  0  0  0  0  0  0  0
   -0.0110   25.0970  -24.6750 C   0  0  0  0  0  0  0  0  0  0  0  0
    1.2350   25.9640  -24.4180 C   0  0  0  0  0  0  0  0  0  0  0  0
    1.8870   26.2560  -25.6320 O   0  0  0  0  0  0  0  0  0  0  0  0
    1.0950   27.1350  -26.4120 C   0  0  0  0  0  0  0  0  0  0  0  0
   -0.4060   26.7560  -26.4400 C   0  0  0  0  0  0  0  0  0  0  0  0
   -2.0226   21.8595  -25.7340 H   0  0  0  0  0  0  0  0  0  0  0  0
   -2.3340   20.4899  -26.8537 H   0  0  0  0  0  0  0  0  0  0  0  0
   -0.7327   21.3038  -26.8537 H   0  0  0  0  0  0  0  0  0  0  0  0
   -3.9231   21.0883  -28.3507 H   0  0  0  0  0  0  0  0  0  0  0  0
   -4.8419   22.6151  -30.0774 H   0  0  0  0  0  0  0  0  0  0  0  0
   -8.1935   22.7327  -31.8694 H   0  0  0  0  0  0  0  0  0  0  0  0
   -7.9397   20.2968  -32.3465 H   0  0  0  0  0  0  0  0  0  0  0  0
   -5.6846   19.3381  -32.7980 H   0  0  0  0  0  0  0  0  0  0  0  0
   -1.0765   22.0760  -31.9397 H   0  0  0  0  0  0  0  0  0  0  0  0
   -2.0634   22.1575  -30.4685 H   0  0  0  0  0  0  0  0  0  0  0  0
    0.6701   21.6384  -30.4864 H   0  0  0  0  0  0  0  0  0  0  0  0
   -0.3919   21.1199  -29.1730 H   0  0  0  0  0  0  0  0  0  0  0  0
    1.0011   19.4639  -31.1308 H   0  0  0  0  0  0  0  0  0  0  0  0
   -0.0313   18.8975  -29.8136 H   0  0  0  0  0  0  0  0  0  0  0  0
   -0.6826   19.3432  -32.7090 H   0  0  0  0  0  0  0  0  0  0  0  0
   -1.4887   18.2690  -31.5495 H   0  0  0  0  0  0  0  0  0  0  0  0
   -3.9203   23.2617  -32.3196 H   0  0  0  0  0  0  0  0  0  0  0  0
   -0.7452   25.2926  -23.8796 H   0  0  0  0  0  0  0  0  0  0  0  0
    0.3132   24.0459  -24.6823 H   0  0  0  0  0  0  0  0  0  0  0  0
    0.9296   26.9039  -23.9350 H   0  0  0  0  0  0  0  0  0  0  0  0
    1.9264   25.4116  -23.7647 H   0  0  0  0  0  0  0  0  0  0  0  0
    1.1900   28.1494  -25.9973 H   0  0  0  0  0  0  0  0  0  0  0  0
    1.4638   27.0700  -27.4463 H   0  0  0  0  0  0  0  0  0  0  0  0
   -0.9570   27.4463  -25.7844 H   0  0  0  0  0  0  0  0  0  0  0  0
   -0.7510   26.8283  -27.4820 H   0  0  0  0  0  0  0  0  0  0  0  0
  1  2  1  0
  2  3  2  0
  3  4  1  0
  4  5  2  0
  5  6  1  0
  6  7  1  0
  7  8  2  0
  7  9  1  0
  9 10  1  0
 10 11  2  0
 11 12  1  0
 12 13  2  0
 13 14  1  0
 14 15  1  0
 15 16  2  0
 15 17  2  0
 15 18  1  0
 18 19  1  0
 19 20  1  0
 20 21  1  0
 21 22  1  0
 14 23  2  0
  5 24  1  0
 24 25  1  0
 24 26  2  0
 26 27  1  0
 27 28  2  0
 27 29  2  0
 27 30  1  0
 30 31  1  0
 31 32  1  0
 32 33  1  0
 33 34  1  0
 34 35  1  0
 26  2  1  0
 35 30  1  0
 23 10  1  0
 22 18  1  0
  1 36  1  0
  1 37  1  0
  1 38  1  0
  3 39  1  0
  4 40  1  0
 11 41  1  0
 12 42  1  0
 13 43  1  0
 19 44  1  0
 19 45  1  0
 20 46  1  0
 20 47  1  0
 21 48  1  0
 21 49  1  0
 22 50  1  0
 22 51  1  0
 23 52  1  0
 31 53  1  0
 31 54  1  0
 32 55  1  0
 32 56  1  0
 34 57  1  0
 34 58  1  0
 35 59  1  0
 35 60  1  0
M  CHG  3   6  -1   9  -1  25  -1
M  END
>  <UniqueID>  (5) 
5

>  <SMILES>  (5) 
Cc1ccc([N-]C(=O)[N-]c2cccc(S(=O)(=O)N3CCCC3)c2)c([O-])c1S(=O)(=O)N1CCOCC1

>  <Energy>  (5) 
87.3844644806068

>  <Genealogy>  (5) 
Cc1ccc([N-]C(=O)[N-]c2cccc(S(=O)(=O)N3CCCC3)c2)c([O-])c1S(=O)(=O)N1CCOCC1 (protonated)
Cc1ccc([N-]C(=O)[N-]c2cccc(S(=O)(=O)N3CCCC3)c2)c([O-])c1S(=O)(=O)N1CCOCC1 (3D coordinates assigned)
Cc1ccc([N-]C(=O)[N-]c2cccc(S(=O)(=O)N3CCCC3)c2)c([O-])c1S(=O)(=O)N1CCOCC1 (nonaromatic ring conformer: 87.3844644806068 kcal/mol)

>  <smiles>  (5) 
Cc1ccc(NC(=O)Nc2cccc(S(=O)(=O)N3CCCC3)c2)c(O)c1S(=O)(=O)N1CCOCC1

>  <score_type>  (5) 
oracle

>  <origin>  (5) 
adgpu

>  <m_score__min__energy>  (5) 
-17.140000000000001

>  <m_primary>  (5) 
energy

$$$$
5:0
     RDKit          3D

 60 63  0  0  0  0  0  0  0  0999 V2000
   -2.7800   20.2400  -27.7890 C   0  0  0  0  0  0  0  0  0  0  0  0
   -2.8720   21.7330  -27.8770 C   0  0  0  0  0  0  0  0  0  0  0  0
   -2.0160   22.5400  -27.1140 C   0  0  0  0  0  0  0  0  0  0  0  0
   -2.1160   23.9350  -27.1720 C   0  0  0  0  0  0  0  0  0  0  0  0
   -1.2200   24.8000  -26.3360 C   0  0  0  0  0  0  0  0  0  0  0  0
   -3.0930   24.5240  -27.9870 C   0  0  0  0  0  0  0  0  0  0  0  0
   -3.9480   23.7260  -28.7550 C   0  0  0  0  0  0  0  0  0  0  0  0
   -5.1070   24.4800  -29.8390 S   0  0  0  0  0  0  0  0  0  0  0  0
   -4.3460   25.3450  -30.8010 O   0  0  0  0  0  0  0  0  0  0  0  0
   -6.0600   25.3500  -29.0690 O   0  0  0  0  0  0  0  0  0  0  0  0
   -6.0390   23.2600  -30.7350 C   0  0  0  0  0  0  0  0  0  0  0  0
   -7.4180   23.1520  -30.4810 C   0  0  0  0  0  0  0  0  0  0  0  0
   -8.2080   22.2450  -31.1950 C   0  0  0  0  0  0  0  0  0  0  0  0
   -7.6300   21.4330  -32.1720 C   0  0  0  0  0  0  0  0  0  0  0  0
   -6.2640   21.5250  -32.4380 C   0  0  0  0  0  0  0  0  0  0  0  0
   -5.4540   22.4210  -31.7210 C   0  0  0  0  0  0  0  0  0  0  0  0
   -4.0180   22.4690  -32.0490 C   0  0  0  0  0  0  0  0  0  0  0  0
   -3.2640   23.2460  -31.3930 O   0  0  0  0  0  0  0  0  0  0  0  0
   -3.5140   21.6510  -33.1210 N   0  0  0  0  0  0  0  0  0  0  0  0
   -3.0190   20.2970  -33.1070 C   0  0  0  0  0  0  0  0  0  0  0  0
   -3.6690   19.2420  -33.7770 C   0  0  0  0  0  0  0  0  0  0  0  0
   -3.1220   17.9510  -33.7760 C   0  0  0  0  0  0  0  0  0  0  0  0
   -3.9480   16.6340  -34.6140 S   0  0  0  0  0  0  0  0  0  0  0  0
   -3.0490   15.4280  -34.6490 O   0  0  0  0  0  0  0  0  0  0  0  0
   -4.2200   17.0460  -36.0370 O   0  0  0  0  0  0  0  0  0  0  0  0
   -5.4600   16.2080  -33.8340 N   0  0  0  0  0  0  0  0  0  0  0  0
   -6.5360   17.1380  -34.2030 C   0  0  0  0  0  0  0  0  0  0  0  0
   -6.8600   18.0140  -32.9950 C   0  0  0  0  0  0  0  0  0  0  0  0
   -5.8890   17.6000  -31.9130 C   0  0  0  0  0  0  0  0  0  0  0  0
   -5.3370   16.2660  -32.3750 C   0  0  0  0  0  0  0  0  0  0  0  0
   -1.9190   17.7080  -33.1020 C   0  0  0  0  0  0  0  0  0  0  0  0
   -1.2700   18.7370  -32.4340 C   0  0  0  0  0  0  0  0  0  0  0  0
   -1.8130   20.0300  -32.4270 C   0  0  0  0  0  0  0  0  0  0  0  0
   -1.1310   21.0330  -31.7350 O   0  0  0  0  0  0  0  0  0  0  0  0
   -3.8530   22.3310  -28.6770 C   0  0  0  0  0  0  0  0  0  0  0  0
   -2.7612   19.9355  -26.7322 H   0  0  0  0  0  0  0  0  0  0  0  0
   -3.6521   19.7890  -28.2851 H   0  0  0  0  0  0  0  0  0  0  0  0
   -1.8592   19.8995  -28.2851 H   0  0  0  0  0  0  0  0  0  0  0  0
   -1.2603   22.0734  -26.4650 H   0  0  0  0  0  0  0  0  0  0  0  0
   -1.4168   24.6100  -25.2706 H   0  0  0  0  0  0  0  0  0  0  0  0
   -0.1692   24.5660  -26.5622 H   0  0  0  0  0  0  0  0  0  0  0  0
   -1.4169   25.8583  -26.5622 H   0  0  0  0  0  0  0  0  0  0  0  0
   -3.1879   25.6193  -28.0228 H   0  0  0  0  0  0  0  0  0  0  0  0
   -7.8807   23.7881  -29.7120 H   0  0  0  0  0  0  0  0  0  0  0  0
   -9.2855   22.1716  -30.9863 H   0  0  0  0  0  0  0  0  0  0  0  0
   -8.2523   20.7199  -32.7326 H   0  0  0  0  0  0  0  0  0  0  0  0
   -5.8167   20.8898  -33.2167 H   0  0  0  0  0  0  0  0  0  0  0  0
   -4.6145   19.4328  -34.3059 H   0  0  0  0  0  0  0  0  0  0  0  0
   -6.2080   17.7700  -35.0415 H   0  0  0  0  0  0  0  0  0  0  0  0
   -7.4301   16.5750  -34.5089 H   0  0  0  0  0  0  0  0  0  0  0  0
   -6.7244   19.0766  -33.2451 H   0  0  0  0  0  0  0  0  0  0  0  0
   -7.9038   17.8876  -32.6719 H   0  0  0  0  0  0  0  0  0  0  0  0
   -5.0811   18.3399  -31.8140 H   0  0  0  0  0  0  0  0  0  0  0  0
   -6.3722   17.5296  -30.9273 H   0  0  0  0  0  0  0  0  0  0  0  0
   -4.2794   16.1788  -32.0854 H   0  0  0  0  0  0  0  0  0  0  0  0
   -5.8945   15.4393  -31.9105 H   0  0  0  0  0  0  0  0  0  0  0  0
   -1.4862   16.6967  -33.1019 H   0  0  0  0  0  0  0  0  0  0  0  0
   -0.3251   18.5374  -31.9075 H   0  0  0  0  0  0  0  0  0  0  0  0
   -1.5190   21.9630  -31.6010 H   0  0  0  0  0  0  0  0  0  0  0  0
   -4.5526   21.7020  -29.2471 H   0  0  0  0  0  0  0  0  0  0  0  0
  1  2  1  0
  2  3  2  0
  3  4  1  0
  4  5  1  0
  4  6  2  0
  6  7  1  0
  7  8  1  0
  8  9  2  0
  8 10  2  0
  8 11  1  0
 11 12  2  0
 12 13  1  0
 13 14  2  0
 14 15  1  0
 15 16  2  0
 16 17  1  0
 17 18  2  0
 17 19  1  0
 19 20  1  0
 20 21  2  0
 21 22  1  0
 22 23  1  0
 23 24  2  0
 23 25  2  0
 23 26  1  0
 26 27  1  0
 27 28  1  0
 28 29  1  0
 29 30  1  0
 22 31  2  0
 31 32  1  0
 32 33  2  0
 33 34  1  0
  7 35  2  0
 35  2  1  0
 16 11  1  0
 33 20  1  0
 30 26  1  0
  1 36  1  0
  1 37  1  0
  1 38  1  0
  3 39  1  0
  5 40  1  0
  5 41  1  0
  5 42  1  0
  6 43  1  0
 12 44  1  0
 13 45  1  0
 14 46  1  0
 15 47  1  0
 21 48  1  0
 27 49  1  0
 27 50  1  0
 28 51  1  0
 28 52  1  0
 29 53  1  0
 29 54  1  0
 30 55  1  0
 30 56  1  0
 31 57  1  0
 32 58  1  0
 34 59  1  0
 35 60  1  0
M  CHG  1  19  -1
M  END
>  <UniqueID>  (6) 
6

>  <SMILES>  (6) 
Cc1cc(C)cc(S(=O)(=O)c2ccccc2C(=O)[N-]c2cc(S(=O)(=O)N3CCCC3)ccc2O)c1

>  <Energy>  (6) 
70.42494130123775

>  <Genealogy>  (6) 
Cc1cc(C)cc(S(=O)(=O)c2ccccc2C(=O)[N-]c2cc(S(=O)(=O)N3CCCC3)ccc2O)c1 (protonated)
Cc1cc(C)cc(S(=O)(=O)c2ccccc2C(=O)[N-]c2cc(S(=O)(=O)N3CCCC3)ccc2O)c1 (3D coordinates assigned)
Cc1cc(C)cc(S(=O)(=O)c2ccccc2C(=O)[N-]c2cc(S(=O)(=O)N3CCCC3)ccc2O)c1 (nonaromatic ring conformer: 70.42494130123775 kcal/mol)

>  <smiles>  (6) 
Cc1cc(C)cc(S(=O)(=O)c2ccccc2C(=O)Nc2cc(S(=O)(=O)N3CCCC3)ccc2O)c1

>  <score_type>  (6) 
oracle

>  <origin>  (6) 
adgpu

>  <m_score__min__energy>  (6) 
-12.69

>  <m_primary>  (6) 
energy

$$$$
6:0
     RDKit          3D

 60 63  0  0  0  0  0  0  0  0999 V2000
   -3.9400   22.8820  -31.7200 O   0  0  0  0  0  0  0  0  0  0  0  0
   -4.5830   23.8230  -31.1770 C   0  0  0  0  0  0  0  0  0  0  0  0
   -6.0770   23.7650  -31.1050 C   0  0  0  0  0  0  0  0  0  0  0  0
   -6.5960   22.9870  -32.2260 N   0  0  0  0  0  0  0  0  0  0  0  0
   -7.3670   21.7930  -32.0660 C   0  0  0  0  0  0  0  0  0  0  0  0
   -7.4960   20.5740  -32.7210 C   0  0  0  0  0  0  0  0  0  0  0  0
   -6.8610   19.9580  -33.8470 N   0  0  0  0  0  0  0  0  0  0  0  0
   -5.5290   19.4210  -33.8030 C   0  0  0  0  0  0  0  0  0  0  0  0
   -5.2550   18.1140  -34.2390 C   0  0  0  0  0  0  0  0  0  0  0  0
   -3.9530   17.6130  -34.1880 C   0  0  0  0  0  0  0  0  0  0  0  0
   -2.9100   18.4150  -33.7170 C   0  0  0  0  0  0  0  0  0  0  0  0
   -3.1620   19.7270  -33.2840 C   0  0  0  0  0  0  0  0  0  0  0  0
   -2.0270   20.6160  -32.8390 C   0  0  0  0  0  0  0  0  0  0  0  0
   -0.8170   20.1260  -33.2970 F   0  0  0  0  0  0  0  0  0  0  0  0
   -2.0010   20.6630  -31.4570 F   0  0  0  0  0  0  0  0  0  0  0  0
   -2.1880   21.9000  -33.3310 F   0  0  0  0  0  0  0  0  0  0  0  0
   -4.4720   20.2310  -33.3590 C   0  0  0  0  0  0  0  0  0  0  0  0
   -8.4380   20.1790  -31.7860 C   0  0  0  0  0  0  0  0  0  0  0  0
   -9.1110   19.1340  -31.5820 O   0  0  0  0  0  0  0  0  0  0  0  0
   -8.3220   21.3960  -31.1500 C   0  0  0  0  0  0  0  0  0  0  0  0
   -8.8600   21.9270  -30.1430 O   0  0  0  0  0  0  0  0  0  0  0  0
   -3.8890   24.9450  -30.6240 N   0  0  0  0  0  0  0  0  0  0  0  0
   -3.2460   24.9130  -29.3150 C   0  0  0  0  0  0  0  0  0  0  0  0
   -2.6150   23.5650  -29.1110 C   0  0  0  0  0  0  0  0  0  0  0  0
   -3.3070   22.5540  -28.4240 C   0  0  0  0  0  0  0  0  0  0  0  0
   -2.6740   21.3450  -28.1220 C   0  0  0  0  0  0  0  0  0  0  0  0
   -1.3420   21.1320  -28.5030 C   0  0  0  0  0  0  0  0  0  0  0  0
   -0.5250   19.6250  -28.0830 S   0  0  0  0  0  0  0  0  0  0  0  0
    0.8170   19.9400  -27.4800 O   0  0  0  0  0  0  0  0  0  0  0  0
   -1.3390   18.8950  -27.0510 O   0  0  0  0  0  0  0  0  0  0  0  0
   -0.2990   18.5960  -29.4790 N   0  0  0  0  0  0  0  0  0  0  0  0
    0.5410   19.2600  -30.4860 C   0  0  0  0  0  0  0  0  0  0  0  0
    0.7600   18.3260  -31.6940 C   0  0  0  0  0  0  0  0  0  0  0  0
    0.1340   17.0690  -31.5110 O   0  0  0  0  0  0  0  0  0  0  0  0
    0.6170   16.4610  -30.3280 C   0  0  0  0  0  0  0  0  0  0  0  0
    0.3090   17.3160  -29.0810 C   0  0  0  0  0  0  0  0  0  0  0  0
   -0.6540   22.1330  -29.2020 C   0  0  0  0  0  0  0  0  0  0  0  0
   -1.2820   23.3470  -29.4940 C   0  0  0  0  0  0  0  0  0  0  0  0
   -6.3789   23.2900  -30.1599 H   0  0  0  0  0  0  0  0  0  0  0  0
   -6.4830   24.7862  -31.1527 H   0  0  0  0  0  0  0  0  0  0  0  0
   -6.4300   23.3300  -33.2000 H   0  0  0  0  0  0  0  0  0  0  0  0
   -7.3350   20.0390  -34.7750 H   0  0  0  0  0  0  0  0  0  0  0  0
   -6.0700   17.4825  -34.6223 H   0  0  0  0  0  0  0  0  0  0  0  0
   -3.7476   16.5844  -34.5194 H   0  0  0  0  0  0  0  0  0  0  0  0
   -1.8853   18.0162  -33.6852 H   0  0  0  0  0  0  0  0  0  0  0  0
   -4.6712   21.2725  -33.0663 H   0  0  0  0  0  0  0  0  0  0  0  0
   -2.4723   25.6934  -29.2653 H   0  0  0  0  0  0  0  0  0  0  0  0
   -3.9944   25.0949  -28.5296 H   0  0  0  0  0  0  0  0  0  0  0  0
   -4.3525   22.7146  -28.1221 H   0  0  0  0  0  0  0  0  0  0  0  0
   -3.2228   20.5582  -27.5837 H   0  0  0  0  0  0  0  0  0  0  0  0
    0.0440   20.1813  -30.8240 H   0  0  0  0  0  0  0  0  0  0  0  0
    1.5157   19.5030  -30.0378 H   0  0  0  0  0  0  0  0  0  0  0  0
    0.3426   18.8035  -32.5928 H   0  0  0  0  0  0  0  0  0  0  0  0
    1.8414   18.1555  -31.8009 H   0  0  0  0  0  0  0  0  0  0  0  0
    0.1396   15.4768  -30.2124 H   0  0  0  0  0  0  0  0  0  0  0  0
    1.7090   16.3613  -30.4146 H   0  0  0  0  0  0  0  0  0  0  0  0
   -0.3886   16.7696  -28.4292 H   0  0  0  0  0  0  0  0  0  0  0  0
    1.2473   17.5166  -28.5430 H   0  0  0  0  0  0  0  0  0  0  0  0
    0.3845   21.9626  -29.5221 H   0  0  0  0  0  0  0  0  0  0  0  0
   -0.7294   24.1352  -30.0263 H   0  0  0  0  0  0  0  0  0  0  0  0
  1  2  2  0
  2  3  1  0
  3  4  1  0
  4  5  1  0
  5  6  2  0
  6  7  1  0
  7  8  1  0
  8  9  2  0
  9 10  1  0
 10 11  2  0
 11 12  1  0
 12 13  1  0
 13 14  1  0
 13 15  1  0
 13 16  1  0
 12 17  2  0
  6 18  1  0
 18 19  2  0
 18 20  1  0
 20 21  2  0
  2 22  1  0
 22 23  1  0
 23 24  1  0
 24 25  2  0
 25 26  1  0
 26 27  2  0
 27 28  1  0
 28 29  2  0
 28 30  2  0
 28 31  1  0
 31 32  1  0
 32 33  1  0
 33 34  1  0
 34 35  1  0
 35 36  1  0
 27 37  1  0
 37 38  2  0
 20  5  1  0
 38 24  1  0
 17  8  1  0
 36 31  1  0
  3 39  1  0
  3 40  1  0
  4 41  1  0
  7 42  1  0
  9 43  1  0
 10 44  1  0
 11 45  1  0
 17 46  1  0
 23 47  1  0
 23 48  1  0
 25 49  1  0
 26 50  1  0
 32 51  1  0
 32 52  1  0
 33 53  1  0
 33 54  1  0
 35 55  1  0
 35 56  1  0
 36 57  1  0
 36 58  1  0
 37 59  1  0
 38 60  1  0
M  CHG  1  22  -1
M  END
>  <UniqueID>  (7) 
7

>  <SMILES>  (7) 
O=C(CNc1c(Nc2cccc(C(F)(F)F)c2)c(=O)c1=O)[N-]Cc1ccc(S(=O)(=O)N2CCOCC2)cc1

>  <Energy>  (7) 
58.96943268696516

>  <Genealogy>  (7) 
O=C(CNc1c(Nc2cccc(C(F)(F)F)c2)c(=O)c1=O)[N-]Cc1ccc(S(=O)(=O)N2CCOCC2)cc1 (protonated)
O=C(CNc1c(Nc2cccc(C(F)(F)F)c2)c(=O)c1=O)[N-]Cc1ccc(S(=O)(=O)N2CCOCC2)cc1 (3D coordinates assigned)
O=C(CNc1c(Nc2cccc(C(F)(F)F)c2)c(=O)c1=O)[N-]Cc1ccc(S(=O)(=O)N2CCOCC2)cc1 (nonaromatic ring conformer: 58.96943268696516 kcal/mol)

>  <smiles>  (7) 
O=C(CNc1c(Nc2cccc(C(F)(F)F)c2)c(=O)c1=O)NCc1ccc(S(=O)(=O)N2CCOCC2)cc1

>  <score_type>  (7) 
oracle

>  <origin>  (7) 
adgpu

>  <m_score__min__energy>  (7) 
-12.15

>  <m_primary>  (7) 
energy

$$$$
7:0
     RDKit          3D

 56 59  0  0  0  0  0  0  0  0999 V2000
   -1.5600   21.3290  -29.2120 O   0  0  0  0  0  0  0  0  0  0  0  0
   -2.0170   22.4910  -29.3880 C   0  0  0  0  0  0  0  0  0  0  0  0
   -2.7340   22.8140  -30.5940 N   0  0  0  0  0  0  0  0  0  0  0  0
   -3.0050   21.8730  -31.6460 C   0  0  0  0  0  0  0  0  0  0  0  0
   -2.0100   21.4960  -32.5660 C   0  0  0  0  0  0  0  0  0  0  0  0
   -2.2920   20.5520  -33.5580 C   0  0  0  0  0  0  0  0  0  0  0  0
   -3.5590   19.9690  -33.6340 C   0  0  0  0  0  0  0  0  0  0  0  0
   -4.5530   20.3250  -32.7130 C   0  0  0  0  0  0  0  0  0  0  0  0
   -6.1360   19.5560  -32.7840 S   0  0  0  0  0  0  0  0  0  0  0  0
   -6.2830   18.8190  -34.0880 O   0  0  0  0  0  0  0  0  0  0  0  0
   -6.2560   18.5660  -31.6590 O   0  0  0  0  0  0  0  0  0  0  0  0
   -7.3760   20.7730  -32.6240 N   0  0  0  0  0  0  0  0  0  0  0  0
   -8.7130   20.1820  -32.6870 C   0  0  0  0  0  0  0  0  0  0  0  0
   -9.6310   21.1040  -31.9000 C   0  0  0  0  0  0  0  0  0  0  0  0
   -8.7120   21.9200  -31.0040 C   0  0  0  0  0  0  0  0  0  0  0  0
   -7.3050   21.4360  -31.3230 C   0  0  0  0  0  0  0  0  0  0  0  0
   -4.2670   21.2650  -31.7130 C   0  0  0  0  0  0  0  0  0  0  0  0
   -1.8070   23.5090  -28.3380 C   0  0  0  0  0  0  0  0  0  0  0  0
   -1.1880   23.1320  -27.1330 C   0  0  0  0  0  0  0  0  0  0  0  0
   -0.9660   24.0730  -26.1180 C   0  0  0  0  0  0  0  0  0  0  0  0
   -0.1730   23.5890  -24.6170 S   0  0  0  0  0  0  0  0  0  0  0  0
   -0.8390   24.2820  -23.4610 O   0  0  0  0  0  0  0  0  0  0  0  0
   -0.3420   22.1070  -24.4250 O   0  0  0  0  0  0  0  0  0  0  0  0
    1.5330   23.9830  -24.6200 N   0  0  0  0  0  0  0  0  0  0  0  0
    2.0690   24.0180  -25.9850 C   0  0  0  0  0  0  0  0  0  0  0  0
    2.1230   25.4690  -26.4450 C   0  0  0  0  0  0  0  0  0  0  0  0
    1.9040   26.3060  -25.2010 C   0  0  0  0  0  0  0  0  0  0  0  0
    1.7690   25.3160  -24.0540 C   0  0  0  0  0  0  0  0  0  0  0  0
   -1.3740   25.3990  -26.3050 C   0  0  0  0  0  0  0  0  0  0  0  0
   -1.9740   25.7880  -27.5040 C   0  0  0  0  0  0  0  0  0  0  0  0
   -2.1810   24.8550  -28.5250 C   0  0  0  0  0  0  0  0  0  0  0  0
   -2.7290   25.2860  -29.7280 O   0  0  0  0  0  0  0  0  0  0  0  0
   -3.0380   23.8020  -30.7460 H   0  0  0  0  0  0  0  0  0  0  0  0
   -1.0077   21.9450  -32.5048 H   0  0  0  0  0  0  0  0  0  0  0  0
   -1.5134   20.2675  -34.2811 H   0  0  0  0  0  0  0  0  0  0  0  0
   -3.7768   19.2291  -34.4183 H   0  0  0  0  0  0  0  0  0  0  0  0
   -9.0490   20.1131  -33.7322 H   0  0  0  0  0  0  0  0  0  0  0  0
   -8.7179   19.1646  -32.2688 H   0  0  0  0  0  0  0  0  0  0  0  0
  -10.1898   21.7632  -32.5805 H   0  0  0  0  0  0  0  0  0  0  0  0
  -10.3755   20.5408  -31.3181 H   0  0  0  0  0  0  0  0  0  0  0  0
   -8.8100   22.9927  -31.2267 H   0  0  0  0  0  0  0  0  0  0  0  0
   -8.9579   21.7917  -29.9395 H   0  0  0  0  0  0  0  0  0  0  0  0
   -6.6117   22.2887  -31.3690 H   0  0  0  0  0  0  0  0  0  0  0  0
   -6.9366   20.7487  -30.5472 H   0  0  0  0  0  0  0  0  0  0  0  0
   -5.0389   21.5279  -30.9747 H   0  0  0  0  0  0  0  0  0  0  0  0
   -0.8748   22.0879  -26.9853 H   0  0  0  0  0  0  0  0  0  0  0  0
    3.0808   23.5867  -25.9977 H   0  0  0  0  0  0  0  0  0  0  0  0
    1.4255   23.4325  -26.6581 H   0  0  0  0  0  0  0  0  0  0  0  0
    3.1038   25.6934  -26.8897 H   0  0  0  0  0  0  0  0  0  0  0  0
    1.3632   25.6785  -27.2124 H   0  0  0  0  0  0  0  0  0  0  0  0
    2.7622   26.9731  -25.0322 H   0  0  0  0  0  0  0  0  0  0  0  0
    1.0119   26.9428  -25.2933 H   0  0  0  0  0  0  0  0  0  0  0  0
    2.6938   25.3086  -23.4585 H   0  0  0  0  0  0  0  0  0  0  0  0
    0.9313   25.6041  -23.4019 H   0  0  0  0  0  0  0  0  0  0  0  0
   -1.2212   26.1373  -25.5040 H   0  0  0  0  0  0  0  0  0  0  0  0
   -2.2854   26.8333  -27.6463 H   0  0  0  0  0  0  0  0  0  0  0  0
  1  2  2  0
  2  3  1  0
  3  4  1  0
  4  5  2  0
  5  6  1  0
  6  7  2  0
  7  8  1  0
  8  9  1  0
  9 10  2  0
  9 11  2  0
  9 12  1  0
 12 13  1  0
 13 14  1  0
 14 15  1  0
 15 16  1  0
  8 17  2  0
  2 18  1  0
 18 19  2  0
 19 20  1  0
 20 21  1  0
 21 22  2  0
 21 23  2  0
 21 24  1  0
 24 25  1  0
 25 26  1  0
 26 27  1  0
 27 28  1  0
 20 29  2  0
 29 30  1  0
 30 31  2  0
 31 32  1  0
 17  4  1  0
 31 18  1  0
 16 12  1  0
 28 24  1  0
  3 33  1  0
  5 34  1  0
  6 35  1  0
  7 36  1  0
 13 37  1  0
 13 38  1  0
 14 39  1  0
 14 40  1  0
 15 41  1  0
 15 42  1  0
 16 43  1  0
 16 44  1  0
 17 45  1  0
 19 46  1  0
 25 47  1  0
 25 48  1  0
 26 49  1  0
 26 50  1  0
 27 51  1  0
 27 52  1  0
 28 53  1  0
 28 54  1  0
 29 55  1  0
 30 56  1  0
M  CHG  1  32  -1
M  END
>  <UniqueID>  (8) 
8

>  <SMILES>  (8) 
O=C(Nc1cccc(S(=O)(=O)N2CCCC2)c1)c1cc(S(=O)(=O)N2CCCC2)ccc1[O-]

>  <Energy>  (8) 
67.17085297626383

>  <Genealogy>  (8) 
O=C(Nc1cccc(S(=O)(=O)N2CCCC2)c1)c1cc(S(=O)(=O)N2CCCC2)ccc1[O-] (protonated)
O=C(Nc1cccc(S(=O)(=O)N2CCCC2)c1)c1cc(S(=O)(=O)N2CCCC2)ccc1[O-] (3D coordinates assigned)
O=C(Nc1cccc(S(=O)(=O)N2CCCC2)c1)c1cc(S(=O)(=O)N2CCCC2)ccc1[O-] (nonaromatic ring conformer: 67.17085297626383 kcal/mol)

>  <smiles>  (8) 
O=C(Nc1cccc(S(=O)(=O)N2CCCC2)c1)c1cc(S(=O)(=O)N2CCCC2)ccc1O

>  <score_type>  (8) 
oracle

>  <origin>  (8) 
adgpu

>  <m_score__min__energy>  (8) 
-14.01

>  <m_primary>  (8) 
energy

$$$$
8:0
     RDKit          3D

 55 58  0  0  0  0  0  0  0  0999 V2000
   -4.5120   18.6320  -34.1870 C   0  0  0  0  0  0  0  0  0  0  0  0
   -5.0570   19.6840  -33.3050 N   0  0  0  0  0  0  0  0  0  0  0  0
   -4.3170   20.8190  -33.0680 C   0  0  0  0  0  0  0  0  0  0  0  0
   -3.1800   20.9760  -33.5960 O   0  0  0  0  0  0  0  0  0  0  0  0
   -4.8000   21.8260  -32.2380 C   0  0  0  0  0  0  0  0  0  0  0  0
   -6.0380   21.6980  -31.6200 C   0  0  0  0  0  0  0  0  0  0  0  0
   -6.5780   23.0360  -30.5330 S   0  0  0  0  0  0  0  0  0  0  0  0
   -5.6260   24.3440  -31.3870 C   0  0  0  0  0  0  0  0  0  0  0  0
   -4.9100   25.2220  -30.4110 C   0  0  0  0  0  0  0  0  0  0  0  0
   -5.5650   26.0490  -29.7220 O   0  0  0  0  0  0  0  0  0  0  0  0
   -3.4820   25.1550  -30.3120 N   0  0  0  0  0  0  0  0  0  0  0  0
   -2.7320   24.7480  -29.1590 C   0  0  0  0  0  0  0  0  0  0  0  0
   -1.4500   25.2790  -28.9690 C   0  0  0  0  0  0  0  0  0  0  0  0
   -0.6710   24.8810  -27.8790 C   0  0  0  0  0  0  0  0  0  0  0  0
   -1.1620   23.9330  -26.9710 C   0  0  0  0  0  0  0  0  0  0  0  0
   -0.1830   23.3980  -25.6060 S   0  0  0  0  0  0  0  0  0  0  0  0
   -0.8180   22.2000  -24.9550 O   0  0  0  0  0  0  0  0  0  0  0  0
    1.1770   23.0080  -26.1140 O   0  0  0  0  0  0  0  0  0  0  0  0
   -0.0350   24.6970  -24.4440 N   0  0  0  0  0  0  0  0  0  0  0  0
   -1.1920   25.6100  -24.5660 C   0  0  0  0  0  0  0  0  0  0  0  0
   -0.8540   26.9960  -23.9910 C   0  0  0  0  0  0  0  0  0  0  0  0
    0.2380   27.6430  -24.6340 O   0  0  0  0  0  0  0  0  0  0  0  0
    1.1200   26.7500  -25.3020 C   0  0  0  0  0  0  0  0  0  0  0  0
    1.2670   25.3960  -24.5850 C   0  0  0  0  0  0  0  0  0  0  0  0
   -2.4330   23.3800  -27.1700 C   0  0  0  0  0  0  0  0  0  0  0  0
   -3.2130   23.7790  -28.2590 C   0  0  0  0  0  0  0  0  0  0  0  0
   -6.8190   20.5540  -31.8680 C   0  0  0  0  0  0  0  0  0  0  0  0
   -8.0930   20.3960  -31.2840 C   0  0  0  0  0  0  0  0  0  0  0  0
   -8.8520   19.2550  -31.5320 C   0  0  0  0  0  0  0  0  0  0  0  0
   -8.3590   18.2560  -32.3650 C   0  0  0  0  0  0  0  0  0  0  0  0
   -7.1040   18.3890  -32.9570 C   0  0  0  0  0  0  0  0  0  0  0  0
   -6.3050   19.5370  -32.7250 C   0  0  0  0  0  0  0  0  0  0  0  0
   -4.0918   17.8210  -33.5741 H   0  0  0  0  0  0  0  0  0  0  0  0
   -5.3166   18.2326  -34.8219 H   0  0  0  0  0  0  0  0  0  0  0  0
   -3.7217   19.0589  -34.8219 H   0  0  0  0  0  0  0  0  0  0  0  0
   -4.1971   22.7305  -32.0697 H   0  0  0  0  0  0  0  0  0  0  0  0
   -4.8882   23.8729  -32.0530 H   0  0  0  0  0  0  0  0  0  0  0  0
   -6.3289   24.9654  -31.9613 H   0  0  0  0  0  0  0  0  0  0  0  0
   -1.0530   26.0152  -29.6834 H   0  0  0  0  0  0  0  0  0  0  0  0
    0.3301   25.3129  -27.7334 H   0  0  0  0  0  0  0  0  0  0  0  0
   -0.0680   24.2570  -23.4940 H   0  0  0  0  0  0  0  0  0  0  0  0
   -1.4587   25.7149  -25.6280 H   0  0  0  0  0  0  0  0  0  0  0  0
   -2.0361   25.1887  -24.0003 H   0  0  0  0  0  0  0  0  0  0  0  0
   -1.7423   27.6371  -24.0909 H   0  0  0  0  0  0  0  0  0  0  0  0
   -0.5570   26.8401  -22.9434 H   0  0  0  0  0  0  0  0  0  0  0  0
    0.7331   26.5690  -26.3157 H   0  0  0  0  0  0  0  0  0  0  0  0
    2.1136   27.2218  -25.3180 H   0  0  0  0  0  0  0  0  0  0  0  0
    1.9509   24.7592  -25.1654 H   0  0  0  0  0  0  0  0  0  0  0  0
    1.6611   25.5870  -23.5759 H   0  0  0  0  0  0  0  0  0  0  0  0
   -2.8193   22.6282  -26.4661 H   0  0  0  0  0  0  0  0  0  0  0  0
   -4.2070   23.3337  -28.4132 H   0  0  0  0  0  0  0  0  0  0  0  0
   -8.4913   21.1822  -30.6258 H   0  0  0  0  0  0  0  0  0  0  0  0
   -9.8432   19.1435  -31.0683 H   0  0  0  0  0  0  0  0  0  0  0  0
   -8.9624   17.3567  -32.5575 H   0  0  0  0  0  0  0  0  0  0  0  0
   -6.7278   17.5911  -33.6142 H   0  0  0  0  0  0  0  0  0  0  0  0
  1  2  1  0
  2  3  1  0
  3  4  2  0
  3  5  1  0
  5  6  2  0
  6  7  1  0
  7  8  1  0
  8  9  1  0
  9 10  2  0
  9 11  1  0
 11 12  1  0
 12 13  2  0
 13 14  1  0
 14 15  2  0
 15 16  1  0
 16 17  2  0
 16 18  2  0
 16 19  1  0
 19 20  1  0
 20 21  1  0
 21 22  1  0
 22 23  1  0
 23 24  1  0
 15 25  1  0
 25 26  2  0
  6 27  1  0
 27 28  2  0
 28 29  1  0
 29 30  2  0
 30 31  1  0
 31 32  2  0
 32  2  1  0
 26 12  1  0
 32 27  1  0
 24 19  1  0
  1 33  1  0
  1 34  1  0
  1 35  1  0
  5 36  1  0
  8 37  1  0
  8 38  1  0
 13 39  1  0
 14 40  1  0
 19 41  1  0
 20 42  1  0
 20 43  1  0
 21 44  1  0
 21 45  1  0
 23 46  1  0
 23 47  1  0
 24 48  1  0
 24 49  1  0
 25 50  1  0
 26 51  1  0
 28 52  1  0
 29 53  1  0
 30 54  1  0
 31 55  1  0
M  CHG  2  11  -1  19   1
M  END
>  <UniqueID>  (9) 
9

>  <SMILES>  (9) 
Cn1c(=O)cc(SCC(=O)[N-]c2ccc(S(=O)(=O)[NH+]3CCOCC3)cc2)c2ccccc21

>  <Energy>  (9) 
79.36231278596443

>  <Genealogy>  (9) 
Cn1c(=O)cc(SCC(=O)[N-]c2ccc(S(=O)(=O)[NH+]3CCOCC3)cc2)c2ccccc21 (protonated)
Cn1c(=O)cc(SCC(=O)[N-]c2ccc(S(=O)(=O)[NH+]3CCOCC3)cc2)c2ccccc21 (3D coordinates assigned)
Cn1c(=O)cc(SCC(=O)[N-]c2ccc(S(=O)(=O)[NH+]3CCOCC3)cc2)c2ccccc21 (nonaromatic ring conformer: 79.36231278596443 kcal/mol)

>  <smiles>  (9) 
Cn1c(=O)cc(SCC(=O)Nc2ccc(S(=O)(=O)N3CCOCC3)cc2)c2ccccc21

>  <score_type>  (9) 
oracle

>  <origin>  (9) 
adgpu

>  <m_score__min__energy>  (9) 
-13.140000000000001

>  <m_primary>  (9) 
energy

$$$$
9:0
     RDKit          3D

 55 58  0  0  0  0  0  0  0  0999 V2000
    0.2620   21.8710  -35.2510 C   0  0  0  0  0  0  0  0  0  0  0  0
   -0.7270   21.4680  -34.3100 O   0  0  0  0  0  0  0  0  0  0  0  0
   -1.1090   20.1360  -34.0750 C   0  0  0  0  0  0  0  0  0  0  0  0
   -0.5040   19.0590  -34.7520 C   0  0  0  0  0  0  0  0  0  0  0  0
   -0.8890   17.7450  -34.4790 C   0  0  0  0  0  0  0  0  0  0  0  0
   -1.8920   17.4810  -33.5370 C   0  0  0  0  0  0  0  0  0  0  0  0
   -2.2760   16.0580  -33.2030 C   0  0  0  0  0  0  0  0  0  0  0  0
   -3.1490   15.4690  -34.2350 N   0  0  0  0  0  0  0  0  0  0  0  0
   -4.5360   15.3240  -33.7660 C   0  0  0  0  0  0  0  0  0  0  0  0
   -5.1880   16.6750  -33.6300 C   0  0  0  0  0  0  0  0  0  0  0  0
   -5.2030   17.5690  -34.7140 C   0  0  0  0  0  0  0  0  0  0  0  0
   -5.7790   18.8350  -34.5740 C   0  0  0  0  0  0  0  0  0  0  0  0
   -6.3330   19.2220  -33.3500 C   0  0  0  0  0  0  0  0  0  0  0  0
   -6.3060   18.3440  -32.2630 C   0  0  0  0  0  0  0  0  0  0  0  0
   -5.7320   17.0760  -32.3980 C   0  0  0  0  0  0  0  0  0  0  0  0
   -2.5090   18.5480  -32.8720 C   0  0  0  0  0  0  0  0  0  0  0  0
   -2.1160   19.8730  -33.1250 C   0  0  0  0  0  0  0  0  0  0  0  0
   -2.7690   20.9780  -32.3880 C   0  0  0  0  0  0  0  0  0  0  0  0
   -3.8260   21.6770  -32.9930 C   0  0  0  0  0  0  0  0  0  0  0  0
   -4.4680   22.7150  -32.3140 C   0  0  0  0  0  0  0  0  0  0  0  0
   -4.0660   23.0670  -31.0220 C   0  0  0  0  0  0  0  0  0  0  0  0
   -4.8830   24.3690  -30.1620 S   0  0  0  0  0  0  0  0  0  0  0  0
   -6.3630   24.3430  -30.4280 O   0  0  0  0  0  0  0  0  0  0  0  0
   -4.3290   25.6780  -30.6460 O   0  0  0  0  0  0  0  0  0  0  0  0
   -4.6040   24.2440  -28.4530 N   0  0  0  0  0  0  0  0  0  0  0  0
   -3.5210   24.5380  -27.7900 C   0  0  0  0  0  0  0  0  0  0  0  0
   -3.5030   24.3820  -26.4410 N   0  0  0  0  0  0  0  0  0  0  0  0
   -1.9860   24.8590  -25.9650 S   0  0  0  0  0  0  0  0  0  0  0  0
   -1.3090   25.2730  -27.4270 C   0  0  0  0  0  0  0  0  0  0  0  0
   -2.3090   25.0320  -28.3580 C   0  0  0  0  0  0  0  0  0  0  0  0
   -2.0970   25.2620  -29.7110 O   0  0  0  0  0  0  0  0  0  0  0  0
   -3.0040   22.3830  -30.4160 C   0  0  0  0  0  0  0  0  0  0  0  0
   -2.3540   21.3410  -31.0890 C   0  0  0  0  0  0  0  0  0  0  0  0
   -0.9960   20.5510  -30.2940 Cl  0  0  0  0  0  0  0  0  0  0  0  0
    1.1517   22.2335  -34.7153 H   0  0  0  0  0  0  0  0  0  0  0  0
    0.5382   21.0137  -35.8825 H   0  0  0  0  0  0  0  0  0  0  0  0
   -0.1396   22.6772  -35.8825 H   0  0  0  0  0  0  0  0  0  0  0  0
    0.2774   19.2546  -35.5011 H   0  0  0  0  0  0  0  0  0  0  0  0
   -0.4018   16.9118  -35.0068 H   0  0  0  0  0  0  0  0  0  0  0  0
   -1.3614   15.4521  -33.1224 H   0  0  0  0  0  0  0  0  0  0  0  0
   -2.8294   16.0677  -32.2524 H   0  0  0  0  0  0  0  0  0  0  0  0
   -3.1220   16.0580  -35.1000 H   0  0  0  0  0  0  0  0  0  0  0  0
   -2.7720   14.5210  -34.4740 H   0  0  0  0  0  0  0  0  0  0  0  0
   -5.1021   14.7195  -34.4899 H   0  0  0  0  0  0  0  0  0  0  0  0
   -4.5307   14.8297  -32.7833 H   0  0  0  0  0  0  0  0  0  0  0  0
   -4.7600   17.2716  -35.6759 H   0  0  0  0  0  0  0  0  0  0  0  0
   -5.7964   19.5279  -35.4282 H   0  0  0  0  0  0  0  0  0  0  0  0
   -6.7898   20.2169  -33.2427 H   0  0  0  0  0  0  0  0  0  0  0  0
   -6.7373   18.6511  -31.2988 H   0  0  0  0  0  0  0  0  0  0  0  0
   -5.7063   16.3909  -31.5378 H   0  0  0  0  0  0  0  0  0  0  0  0
   -3.3091   18.3467  -32.1445 H   0  0  0  0  0  0  0  0  0  0  0  0
   -4.1505   21.4053  -34.0083 H   0  0  0  0  0  0  0  0  0  0  0  0
   -5.2934   23.2579  -32.7978 H   0  0  0  0  0  0  0  0  0  0  0  0
   -0.2939   25.6534  -27.6141 H   0  0  0  0  0  0  0  0  0  0  0  0
   -2.6784   22.6665  -29.4043 H   0  0  0  0  0  0  0  0  0  0  0  0
  1  2  1  0
  2  3  1  0
  3  4  2  0
  4  5  1  0
  5  6  2  0
  6  7  1  0
  7  8  1  0
  8  9  1  0
  9 10  1  0
 10 11  2  0
 11 12  1  0
 12 13  2  0
 13 14  1  0
 14 15  2  0
  6 16  1  0
 16 17  2  0
 17 18  1  0
 18 19  2  0
 19 20  1  0
 20 21  2  0
 21 22  1  0
 22 23  2  0
 22 24  2  0
 22 25  1  0
 25 26  2  3
 26 27  1  0
 27 28  1  0
 28 29  1  0
 29 30  2  0
 30 31  1  0
 21 32  1  0
 32 33  2  0
 33 34  1  0
 17  3  1  0
 33 18  1  0
 15 10  1  0
 30 26  1  0
  1 35  1  0
  1 36  1  0
  1 37  1  0
  4 38  1  0
  5 39  1  0
  7 40  1  0
  7 41  1  0
  8 42  1  0
  8 43  1  0
  9 44  1  0
  9 45  1  0
 11 46  1  0
 12 47  1  0
 13 48  1  0
 14 49  1  0
 15 50  1  0
 16 51  1  0
 19 52  1  0
 20 53  1  0
 29 54  1  0
 32 55  1  0
M  CHG  3   8   1  27  -1  31  -1
M  END
>  <UniqueID>  (10) 
10

>  <SMILES>  (10) 
COc1ccc(C[NH2+]Cc2ccccc2)cc1-c1ccc(S(=O)(=O)N=c2[n-]scc2[O-])cc1Cl

>  <Energy>  (10) 
103.92504530238216

>  <Genealogy>  (10) 
COc1ccc(C[NH2+]Cc2ccccc2)cc1-c1ccc(S(=O)(=O)N=c2[n-]scc2[O-])cc1Cl (protonated)
COc1ccc(C[NH2+]Cc2ccccc2)cc1-c1ccc(S(=O)(=O)N=c2[n-]scc2[O-])cc1Cl (3D coordinates assigned)
COc1ccc(C[NH2+]Cc2ccccc2)cc1-c1ccc(S(=O)(=O)N=c2[n-]scc2[O-])cc1Cl (optimized conformer: 103.92504530238216 kcal/mol)

>  <smiles>  (10) 
COc1ccc(CNCc2ccccc2)cc1-c1ccc(S(=O)(=O)N=c2[nH]scc2O)cc1Cl

>  <score_type>  (10) 
oracle

>  <origin>  (10) 
adgpu

>  <m_score__min__energy>  (10) 
-12.32

>  <m_primary>  (10) 
energy

$$$$
10:0
     RDKit          3D

 38 41  0  0  0  0  0  0  0  0999 V2000
    3.1430   25.9780  -24.6500 C   0  0  0  0  0  0  0  0  0  0  0  0
    3.5090   25.9160  -26.4300 S   0  0  0  0  0  0  0  0  0  0  0  0
    1.9320   25.1790  -26.8440 C   0  0  0  0  0  0  0  0  0  0  0  0
    1.1020   25.7940  -27.7240 N   0  0  0  0  0  0  0  0  0  0  0  0
   -0.0760   25.2580  -28.0410 N   0  0  0  0  0  0  0  0  0  0  0  0
   -0.4910   24.0800  -27.5010 C   0  0  0  0  0  0  0  0  0  0  0  0
    0.3680   23.4360  -26.5870 C   0  0  0  0  0  0  0  0  0  0  0  0
   -0.0040   22.2260  -26.0020 C   0  0  0  0  0  0  0  0  0  0  0  0
   -1.2360   21.6400  -26.3160 C   0  0  0  0  0  0  0  0  0  0  0  0
   -1.6060   20.4310  -25.7300 O   0  0  0  0  0  0  0  0  0  0  0  0
   -2.1010   22.2700  -27.2230 C   0  0  0  0  0  0  0  0  0  0  0  0
   -3.2950   21.6910  -27.5180 N   0  0  0  0  0  0  0  0  0  0  0  0
   -4.1740   22.2470  -28.3860 C   0  0  0  0  0  0  0  0  0  0  0  0
   -3.8730   23.4570  -29.0190 C   0  0  0  0  0  0  0  0  0  0  0  0
   -5.0190   24.1870  -30.1490 S   0  0  0  0  0  0  0  0  0  0  0  0
   -6.0510   24.9610  -29.3760 O   0  0  0  0  0  0  0  0  0  0  0  0
   -4.2900   25.1340  -31.0620 O   0  0  0  0  0  0  0  0  0  0  0  0
   -5.8250   22.9680  -31.1360 C   0  0  0  0  0  0  0  0  0  0  0  0
   -7.2250   22.8930  -31.1550 C   0  0  0  0  0  0  0  0  0  0  0  0
   -7.8670   21.9410  -31.9520 C   0  0  0  0  0  0  0  0  0  0  0  0
   -7.1140   21.0620  -32.7370 C   0  0  0  0  0  0  0  0  0  0  0  0
   -5.7190   21.1380  -32.7280 C   0  0  0  0  0  0  0  0  0  0  0  0
   -5.0730   22.0890  -31.9310 C   0  0  0  0  0  0  0  0  0  0  0  0
   -2.6530   24.0920  -28.7360 C   0  0  0  0  0  0  0  0  0  0  0  0
   -2.3610   25.3040  -29.3570 O   0  0  0  0  0  0  0  0  0  0  0  0
   -1.7410   23.5000  -27.8290 C   0  0  0  0  0  0  0  0  0  0  0  0
    1.5620   24.0020  -26.2810 N   0  0  0  0  0  0  0  0  0  0  0  0
    4.0702   25.8209  -24.0793 H   0  0  0  0  0  0  0  0  0  0  0  0
    2.7187   26.9608  -24.3969 H   0  0  0  0  0  0  0  0  0  0  0  0
    2.4187   25.1898  -24.3969 H   0  0  0  0  0  0  0  0  0  0  0  0
    0.6732   21.7301  -25.2911 H   0  0  0  0  0  0  0  0  0  0  0  0
   -2.4990   19.9950  -25.9310 H   0  0  0  0  0  0  0  0  0  0  0  0
   -5.1298   21.7438  -28.5940 H   0  0  0  0  0  0  0  0  0  0  0  0
   -7.8197   23.5853  -30.5410 H   0  0  0  0  0  0  0  0  0  0  0  0
   -8.9654   21.8831  -31.9618 H   0  0  0  0  0  0  0  0  0  0  0  0
   -7.6200   20.3109  -33.3614 H   0  0  0  0  0  0  0  0  0  0  0  0
   -5.1276   20.4488  -33.3487 H   0  0  0  0  0  0  0  0  0  0  0  0
   -3.9746   22.1480  -31.9273 H   0  0  0  0  0  0  0  0  0  0  0  0
  1  2  1  0
  2  3  1  0
  3  4  2  0
  4  5  1  0
  5  6  2  0
  6  7  1  0
  7  8  1  0
  8  9  2  0
  9 10  1  0
  9 11  1  0
 11 12  2  0
 12 13  1  0
 13 14  2  0
 14 15  1  0
 15 16  2  0
 15 17  2  0
 15 18  1  0
 18 19  2  0
 19 20  1  0
 20 21  2  0
 21 22  1  0
 22 23  2  0
 14 24  1  0
 24 25  1  0
 24 26  2  0
  7 27  2  0
 27  3  1  0
 26  6  1  0
 26 11  1  0
 23 18  1  0
  1 28  1  0
  1 29  1  0
  1 30  1  0
  8 31  1  0
 10 32  1  0
 13 33  1  0
 19 34  1  0
 20 35  1  0
 21 36  1  0
 22 37  1  0
 23 38  1  0
M  CHG  1  25  -1
M  END
>  <UniqueID>  (11) 
11

>  <SMILES>  (11) 
CSc1nnc2c(cc(O)c3ncc(S(=O)(=O)c4ccccc4)c([O-])c32)n1

>  <Energy>  (11) 
52.77611784119246

>  <Genealogy>  (11) 
CSc1nnc2c(cc(O)c3ncc(S(=O)(=O)c4ccccc4)c([O-])c32)n1 (protonated)
CSc1nnc2c(cc(O)c3ncc(S(=O)(=O)c4ccccc4)c([O-])c32)n1 (3D coordinates assigned)
CSc1nnc2c(cc(O)c3ncc(S(=O)(=O)c4ccccc4)c([O-])c32)n1 (optimized conformer: 52.77611784119246 kcal/mol)

>  <smiles>  (11) 
CSc1nnc2c(cc(O)c3ncc(S(=O)(=O)c4ccccc4)c(O)c32)n1

>  <score_type>  (11) 
oracle

>  <origin>  (11) 
adgpu

>  <m_score__min__energy>  (11) 
-11.720000000000001

>  <m_primary>  (11) 
energy

$$$$
11:0
     RDKit          3D

 58 61  0  0  0  0  0  0  0  0999 V2000
   -4.4500   25.6680  -30.8850 N   0  0  0  0  0  0  0  0  0  0  0  0
   -4.5140   24.6470  -29.8910 C   0  0  0  0  0  0  0  0  0  0  0  0
   -5.1550   24.8670  -28.8280 O   0  0  0  0  0  0  0  0  0  0  0  0
   -3.8970   23.2880  -30.1720 C   0  0  2  0  0  0  0  0  0  0  0  0
   -4.8920   22.2510  -30.7090 C   0  0  0  0  0  0  0  0  0  0  0  0
   -6.2240   22.6410  -30.9570 C   0  0  0  0  0  0  0  0  0  0  0  0
   -7.1480   21.7340  -31.4800 C   0  0  0  0  0  0  0  0  0  0  0  0
   -6.7630   20.4200  -31.7650 C   0  0  0  0  0  0  0  0  0  0  0  0
   -7.9390   19.2740  -32.4000 S   0  0  0  0  0  0  0  0  0  0  0  0
   -9.0480   20.0180  -33.0940 O   0  0  0  0  0  0  0  0  0  0  0  0
   -8.5300   18.4890  -31.2610 O   0  0  0  0  0  0  0  0  0  0  0  0
   -7.1420   18.1840  -33.5060 N   0  0  0  0  0  0  0  0  0  0  0  0
   -6.4310   17.1260  -32.7880 C   0  0  0  0  0  0  0  0  0  0  0  0
   -5.2900   16.6840  -33.6910 C   0  0  0  0  0  0  0  0  0  0  0  0
   -5.0850   17.8290  -34.6720 C   0  0  0  0  0  0  0  0  0  0  0  0
   -6.1220   18.8750  -34.2920 C   0  0  0  0  0  0  0  0  0  0  0  0
   -5.4480   20.0150  -31.5080 C   0  0  0  0  0  0  0  0  0  0  0  0
   -4.5210   20.9210  -30.9860 C   0  0  0  0  0  0  0  0  0  0  0  0
   -3.0500   22.7890  -29.0410 N   0  0  1  0  0  0  0  0  0  0  0  0
   -1.9780   21.8150  -29.3990 C   0  0  0  0  0  0  0  0  0  0  0  0
   -1.9140   20.6330  -28.4560 C   0  0  0  0  0  0  0  0  0  0  0  0
   -2.9820   20.3460  -27.5890 C   0  0  0  0  0  0  0  0  0  0  0  0
   -2.9110   19.2560  -26.7160 C   0  0  0  0  0  0  0  0  0  0  0  0
   -1.7790   18.4350  -26.7110 C   0  0  0  0  0  0  0  0  0  0  0  0
   -0.7220   18.6990  -27.5840 C   0  0  0  0  0  0  0  0  0  0  0  0
   -0.7880   19.7890  -28.4570 C   0  0  0  0  0  0  0  0  0  0  0  0
   -2.5190   23.9070  -28.2730 C   0  0  0  0  0  0  0  0  0  0  0  0
   -2.9160   24.1580  -26.9410 C   0  0  0  0  0  0  0  0  0  0  0  0
   -2.3380   25.2160  -26.2370 C   0  0  0  0  0  0  0  0  0  0  0  0
   -1.3730   26.0140  -26.8480 C   0  0  0  0  0  0  0  0  0  0  0  0
   -0.9930   25.7390  -28.1620 C   0  0  0  0  0  0  0  0  0  0  0  0
   -1.5630   24.7020  -28.8330 N   0  0  0  0  0  0  0  0  0  0  0  0
   -3.5320   26.0400  -31.2120 H   0  0  0  0  0  0  0  0  0  0  0  0
   -3.2020   23.4499  -31.0091 H   0  0  0  0  0  0  0  0  0  0  0  0
   -6.5389   23.6715  -30.7360 H   0  0  0  0  0  0  0  0  0  0  0  0
   -8.1832   22.0544  -31.6687 H   0  0  0  0  0  0  0  0  0  0  0  0
   -6.0355   17.5117  -31.8368 H   0  0  0  0  0  0  0  0  0  0  0  0
   -7.1005   16.2857  -32.5521 H   0  0  0  0  0  0  0  0  0  0  0  0
   -4.3768   16.5136  -33.1020 H   0  0  0  0  0  0  0  0  0  0  0  0
   -5.5183   15.7394  -34.2064 H   0  0  0  0  0  0  0  0  0  0  0  0
   -4.0695   18.2409  -34.5764 H   0  0  0  0  0  0  0  0  0  0  0  0
   -5.1984   17.4998  -35.7154 H   0  0  0  0  0  0  0  0  0  0  0  0
   -5.6561   19.6715  -33.6932 H   0  0  0  0  0  0  0  0  0  0  0  0
   -6.5594   19.3436  -35.1859 H   0  0  0  0  0  0  0  0  0  0  0  0
   -5.1430   18.9792  -31.7178 H   0  0  0  0  0  0  0  0  0  0  0  0
   -3.4901   20.5917  -30.7893 H   0  0  0  0  0  0  0  0  0  0  0  0
   -3.6970   22.2960  -28.3800 H   0  0  0  0  0  0  0  0  0  0  0  0
   -2.1687   21.4420  -30.4161 H   0  0  0  0  0  0  0  0  0  0  0  0
   -1.0161   22.3440  -29.3292 H   0  0  0  0  0  0  0  0  0  0  0  0
   -3.8791   20.9825  -27.5971 H   0  0  0  0  0  0  0  0  0  0  0  0
   -3.7464   19.0441  -26.0325 H   0  0  0  0  0  0  0  0  0  0  0  0
   -1.7214   17.5815  -26.0195 H   0  0  0  0  0  0  0  0  0  0  0  0
    0.1647   18.0480  -27.5850 H   0  0  0  0  0  0  0  0  0  0  0  0
    0.0444   19.9878  -29.1481 H   0  0  0  0  0  0  0  0  0  0  0  0
   -3.6760   23.5237  -26.4612 H   0  0  0  0  0  0  0  0  0  0  0  0
   -2.6443   25.4195  -25.2003 H   0  0  0  0  0  0  0  0  0  0  0  0
   -0.9159   26.8514  -26.3005 H   0  0  0  0  0  0  0  0  0  0  0  0
   -0.2320   26.3612  -28.6557 H   0  0  0  0  0  0  0  0  0  0  0  0
  1  2  1  0
  2  3  2  0
  2  4  1  0
  4  5  1  0
  5  6  2  0
  6  7  1  0
  7  8  2  0
  8  9  1  0
  9 10  2  0
  9 11  2  0
  9 12  1  0
 12 13  1  0
 13 14  1  0
 14 15  1  0
 15 16  1  0
  8 17  1  0
 17 18  2  0
  4 19  1  0
 19 20  1  0
 20 21  1  0
 21 22  2  0
 22 23  1  0
 23 24  2  0
 24 25  1  0
 25 26  2  0
 19 27  1  0
 27 28  2  0
 28 29  1  0
 29 30  2  0
 30 31  1  0
 31 32  2  0
 18  5  1  0
 26 21  1  0
 32 27  1  0
 16 12  1  0
  1 33  1  0
  4 34  1  6
  6 35  1  0
  7 36  1  0
 13 37  1  0
 13 38  1  0
 14 39  1  0
 14 40  1  0
 15 41  1  0
 15 42  1  0
 16 43  1  0
 16 44  1  0
 17 45  1  0
 18 46  1  0
 19 47  1  1
 20 48  1  0
 20 49  1  0
 22 50  1  0
 23 51  1  0
 24 52  1  0
 25 53  1  0
 26 54  1  0
 28 55  1  0
 29 56  1  0
 30 57  1  0
 31 58  1  0
M  CHG  2   1  -1  19   1
M  END
>  <UniqueID>  (12) 
12

>  <SMILES>  (12) 
[NH-]C(=O)[C@H](c1ccc(S(=O)(=O)N2CCCC2)cc1)[N@@H+](Cc1ccccc1)c1ccccn1

>  <Energy>  (12) 
76.52602603264587

>  <Genealogy>  (12) 
[NH-]C(=O)C(c1ccc(S(=O)(=O)N2CCCC2)cc1)[NH+](Cc1ccccc1)c1ccccn1 (protonated)
[NH-]C(=O)[C@H](c1ccc(S(=O)(=O)N2CCCC2)cc1)[N@@H+](Cc1ccccc1)c1ccccn1 (chirality)
[NH-]C(=O)[C@H](c1ccc(S(=O)(=O)N2CCCC2)cc1)[N@@H+](Cc1ccccc1)c1ccccn1 (3D coordinates assigned)
[NH-]C(=O)[C@H](c1ccc(S(=O)(=O)N2CCCC2)cc1)[N@@H+](Cc1ccccc1)c1ccccn1 (nonaromatic ring conformer: 76.52602603264587 kcal/mol)

>  <smiles>  (12) 
NC(=O)C(c1ccc(S(=O)(=O)N2CCCC2)cc1)N(Cc1ccccc1)c1ccccn1

>  <score_type>  (12) 
oracle

>  <origin>  (12) 
adgpu

>  <m_score__min__energy>  (12) 
-11.81

>  <m_primary>  (12) 
energy

$$$$
12:0
     RDKit          3D

 40 43  0  0  0  0  0  0  0  0999 V2000
   -3.9800   23.5080  -31.5810 O   0  0  0  0  0  0  0  0  0  0  0  0
   -4.5180   24.3730  -30.8400 C   0  0  0  0  0  0  0  0  0  0  0  0
   -3.6810   25.1260  -29.9520 N   0  0  0  0  0  0  0  0  0  0  0  0
   -2.8410   24.5860  -28.9210 C   0  0  0  0  0  0  0  0  0  0  0  0
   -3.1890   23.4070  -28.2380 C   0  0  0  0  0  0  0  0  0  0  0  0
   -2.3380   22.8810  -27.2620 C   0  0  0  0  0  0  0  0  0  0  0  0
   -1.1280   23.5180  -26.9710 C   0  0  0  0  0  0  0  0  0  0  0  0
   -0.7650   24.6750  -27.6640 C   0  0  0  0  0  0  0  0  0  0  0  0
   -1.6140   25.2060  -28.6410 C   0  0  0  0  0  0  0  0  0  0  0  0
   -1.2360   26.3540  -29.3280 O   0  0  0  0  0  0  0  0  0  0  0  0
   -5.9760   24.6220  -30.9330 C   0  0  0  0  0  0  0  0  0  0  0  0
   -6.5340   25.3910  -30.1070 O   0  0  0  0  0  0  0  0  0  0  0  0
   -6.7880   23.9740  -31.9210 N   0  0  0  0  0  0  0  0  0  0  0  0
   -6.9250   22.5580  -32.1070 C   0  0  0  0  0  0  0  0  0  0  0  0
   -5.8990   21.7960  -32.6890 C   0  0  0  0  0  0  0  0  0  0  0  0
   -6.0570   20.4140  -32.8920 C   0  0  0  0  0  0  0  0  0  0  0  0
   -7.2690   19.7920  -32.5240 C   0  0  0  0  0  0  0  0  0  0  0  0
   -8.3030   20.5660  -31.9680 C   0  0  0  0  0  0  0  0  0  0  0  0
   -8.1340   21.9380  -31.7680 C   0  0  0  0  0  0  0  0  0  0  0  0
   -9.1730   22.6840  -31.2220 O   0  0  0  0  0  0  0  0  0  0  0  0
   -7.4470   18.3350  -32.7340 C   0  0  0  0  0  0  0  0  0  0  0  0
   -8.5300   17.7790  -32.4040 O   0  0  0  0  0  0  0  0  0  0  0  0
   -6.3560   17.5320  -33.3310 C   0  0  0  0  0  0  0  0  0  0  0  0
   -6.5140   16.1480  -33.5360 C   0  0  0  0  0  0  0  0  0  0  0  0
   -5.4820   15.3940  -34.0990 C   0  0  0  0  0  0  0  0  0  0  0  0
   -4.2850   16.0090  -34.4660 C   0  0  0  0  0  0  0  0  0  0  0  0
   -4.1130   17.3810  -34.2690 C   0  0  0  0  0  0  0  0  0  0  0  0
   -5.1440   18.1530  -33.7020 C   0  0  0  0  0  0  0  0  0  0  0  0
   -4.9660   19.6100  -33.4910 C   0  0  0  0  0  0  0  0  0  0  0  0
   -3.8820   20.1650  -33.8220 O   0  0  0  0  0  0  0  0  0  0  0  0
   -4.1348   22.8967  -28.4728 H   0  0  0  0  0  0  0  0  0  0  0  0
   -2.6205   21.9650  -26.7224 H   0  0  0  0  0  0  0  0  0  0  0  0
   -0.4624   23.1083  -26.1969 H   0  0  0  0  0  0  0  0  0  0  0  0
    0.1915   25.1703  -27.4409 H   0  0  0  0  0  0  0  0  0  0  0  0
   -4.9611   22.2861  -32.9894 H   0  0  0  0  0  0  0  0  0  0  0  0
   -9.2529   20.0870  -31.6882 H   0  0  0  0  0  0  0  0  0  0  0  0
   -7.4564   15.6574  -33.2509 H   0  0  0  0  0  0  0  0  0  0  0  0
   -5.6134   14.3128  -34.2533 H   0  0  0  0  0  0  0  0  0  0  0  0
   -3.4752   15.4124  -34.9113 H   0  0  0  0  0  0  0  0  0  0  0  0
   -3.1665   17.8607  -34.5586 H   0  0  0  0  0  0  0  0  0  0  0  0
  1  2  2  0
  2  3  1  0
  3  4  1  0
  4  5  2  0
  5  6  1  0
  6  7  2  0
  7  8  1  0
  8  9  2  0
  9 10  1  0
  2 11  1  0
 11 12  2  0
 11 13  1  0
 13 14  1  0
 14 15  2  0
 15 16  1  0
 16 17  2  0
 17 18  1  0
 18 19  2  0
 19 20  1  0
 17 21  1  0
 21 22  2  0
 21 23  1  0
 23 24  2  0
 24 25  1  0
 25 26  2  0
 26 27  1  0
 27 28  2  0
 28 29  1  0
 29 30  2  0
  9  4  1  0
 19 14  1  0
 28 23  1  0
 29 16  1  0
  5 31  1  0
  6 32  1  0
  7 33  1  0
  8 34  1  0
 15 35  1  0
 18 36  1  0
 24 37  1  0
 25 38  1  0
 26 39  1  0
 27 40  1  0
M  CHG  4   3  -1  10  -1  13  -1  20  -1
M  END
>  <UniqueID>  (13) 
13

>  <SMILES>  (13) 
O=C([N-]c1ccccc1[O-])C(=O)[N-]c1cc2c(cc1[O-])C(=O)c1ccccc1C2=O

>  <Energy>  (13) 
62.64969959126363

>  <Genealogy>  (13) 
O=C([N-]c1ccccc1[O-])C(=O)[N-]c1cc2c(cc1[O-])C(=O)c1ccccc1C2=O (protonated)
O=C([N-]c1ccccc1[O-])C(=O)[N-]c1cc2c(cc1[O-])C(=O)c1ccccc1C2=O (3D coordinates assigned)
O=C([N-]c1ccccc1[O-])C(=O)[N-]c1cc2c(cc1[O-])C(=O)c1ccccc1C2=O (nonaromatic ring conformer: 62.64969959126363 kcal/mol)

>  <smiles>  (13) 
O=C(Nc1ccccc1O)C(=O)Nc1cc2c(cc1O)C(=O)c1ccccc1C2=O

>  <score_type>  (13) 
oracle

>  <origin>  (13) 
adgpu

>  <m_score__min__energy>  (13) 
-16.469999999999999

>  <m_primary>  (13) 
energy

$$$$
13:0
     RDKit          3D

 49 52  0  0  0  0  0  0  0  0999 V2000
   -8.1690   23.6660  -32.6960 O   0  0  0  0  0  0  0  0  0  0  0  0
   -7.3990   22.9440  -32.0070 C   0  0  0  0  0  0  0  0  0  0  0  0
   -6.1870   23.5520  -31.4110 C   0  0  0  0  0  0  0  0  0  0  0  0
   -6.1730   24.9070  -31.0440 C   0  0  0  0  0  0  0  0  0  0  0  0
   -5.0270   25.4740  -30.4830 C   0  0  0  0  0  0  0  0  0  0  0  0
   -3.8770   24.7010  -30.2950 C   0  0  0  0  0  0  0  0  0  0  0  0
   -2.7580   25.2890  -29.7150 O   0  0  0  0  0  0  0  0  0  0  0  0
   -3.8660   23.3490  -30.6860 C   0  0  0  0  0  0  0  0  0  0  0  0
   -2.4410   22.3290  -30.4600 S   0  0  0  0  0  0  0  0  0  0  0  0
   -2.3670   21.3530  -31.6010 O   0  0  0  0  0  0  0  0  0  0  0  0
   -1.1940   23.1710  -30.4790 O   0  0  0  0  0  0  0  0  0  0  0  0
   -2.5910   21.4640  -28.9450 N   0  0  0  0  0  0  0  0  0  0  0  0
   -1.3060   21.3300  -28.2360 C   0  0  0  0  0  0  0  0  0  0  0  0
   -0.7570   22.6770  -27.7420 C   0  0  0  0  0  0  0  0  0  0  0  0
   -1.8250   23.5530  -27.1430 C   0  0  0  0  0  0  0  0  0  0  0  0
   -1.4490   24.7040  -26.4330 C   0  0  0  0  0  0  0  0  0  0  0  0
   -2.4200   25.5690  -25.9240 C   0  0  0  0  0  0  0  0  0  0  0  0
   -3.7740   25.3000  -26.1280 C   0  0  0  0  0  0  0  0  0  0  0  0
   -4.1610   24.1630  -26.8410 C   0  0  0  0  0  0  0  0  0  0  0  0
   -3.1940   23.2920  -27.3690 C   0  0  0  0  0  0  0  0  0  0  0  0
   -3.6370   22.0360  -28.0800 C   0  0  0  0  0  0  0  0  0  0  0  0
   -5.0240   22.7840  -31.2410 C   0  0  0  0  0  0  0  0  0  0  0  0
   -7.7100   21.5490  -31.8300 N   0  0  0  0  0  0  0  0  0  0  0  0
   -6.6540   20.5330  -31.7460 C   0  0  0  0  0  0  0  0  0  0  0  0
   -7.0930   19.2770  -32.5030 C   0  0  0  0  0  0  0  0  0  0  0  0
   -8.3650   18.8410  -32.0580 O   0  0  0  0  0  0  0  0  0  0  0  0
   -9.3450   19.8100  -32.3840 C   0  0  0  0  0  0  0  0  0  0  0  0
   -9.0950   21.1160  -31.6220 C   0  0  0  0  0  0  0  0  0  0  0  0
   -7.0695   25.5252  -31.1992 H   0  0  0  0  0  0  0  0  0  0  0  0
   -5.0288   26.5336  -30.1876 H   0  0  0  0  0  0  0  0  0  0  0  0
   -1.4503   20.6695  -27.3683 H   0  0  0  0  0  0  0  0  0  0  0  0
   -0.5764   20.9150  -28.9470 H   0  0  0  0  0  0  0  0  0  0  0  0
    0.0110   22.4856  -26.9781 H   0  0  0  0  0  0  0  0  0  0  0  0
   -0.3410   23.2064  -28.6119 H   0  0  0  0  0  0  0  0  0  0  0  0
   -0.3830   24.9260  -26.2766 H   0  0  0  0  0  0  0  0  0  0  0  0
   -2.1169   26.4642  -25.3611 H   0  0  0  0  0  0  0  0  0  0  0  0
   -4.5368   25.9837  -25.7271 H   0  0  0  0  0  0  0  0  0  0  0  0
   -5.2296   23.9485  -26.9899 H   0  0  0  0  0  0  0  0  0  0  0  0
   -3.9163   21.2861  -27.3253 H   0  0  0  0  0  0  0  0  0  0  0  0
   -4.4860   22.3057  -28.7253 H   0  0  0  0  0  0  0  0  0  0  0  0
   -5.0208   21.7273  -31.5464 H   0  0  0  0  0  0  0  0  0  0  0  0
   -5.7298   20.9269  -32.1940 H   0  0  0  0  0  0  0  0  0  0  0  0
   -6.4714   20.2803  -30.6911 H   0  0  0  0  0  0  0  0  0  0  0  0
   -7.1451   19.5036  -33.5781 H   0  0  0  0  0  0  0  0  0  0  0  0
   -6.3606   18.4780  -32.3154 H   0  0  0  0  0  0  0  0  0  0  0  0
   -9.3080   20.0106  -33.4649 H   0  0  0  0  0  0  0  0  0  0  0  0
  -10.3337   19.4203  -32.1000 H   0  0  0  0  0  0  0  0  0  0  0  0
   -9.7808   21.8926  -31.9916 H   0  0  0  0  0  0  0  0  0  0  0  0
   -9.2692   20.9517  -30.5484 H   0  0  0  0  0  0  0  0  0  0  0  0
  1  2  2  0
  2  3  1  0
  3  4  2  0
  4  5  1  0
  5  6  2  0
  6  7  1  0
  6  8  1  0
  8  9  1  0
  9 10  2  0
  9 11  2  0
  9 12  1  0
 12 13  1  0
 13 14  1  0
 14 15  1  0
 15 16  2  0
 16 17  1  0
 17 18  2  0
 18 19  1  0
 19 20  2  0
 20 21  1  0
  8 22  2  0
  2 23  1  0
 23 24  1  0
 24 25  1  0
 25 26  1  0
 26 27  1  0
 27 28  1  0
 22  3  1  0
 28 23  1  0
 21 12  1  0
 20 15  1  0
  4 29  1  0
  5 30  1  0
 13 31  1  0
 13 32  1  0
 14 33  1  0
 14 34  1  0
 16 35  1  0
 17 36  1  0
 18 37  1  0
 19 38  1  0
 21 39  1  0
 21 40  1  0
 22 41  1  0
 24 42  1  0
 24 43  1  0
 25 44  1  0
 25 45  1  0
 27 46  1  0
 27 47  1  0
 28 48  1  0
 28 49  1  0
M  CHG  1   7  -1
M  END
>  <UniqueID>  (14) 
14

>  <SMILES>  (14) 
O=C(c1ccc([O-])c(S(=O)(=O)N2CCc3ccccc3C2)c1)N1CCOCC1

>  <Energy>  (14) 
64.30046710414436

>  <Genealogy>  (14) 
O=C(c1ccc([O-])c(S(=O)(=O)N2CCc3ccccc3C2)c1)N1CCOCC1 (protonated)
O=C(c1ccc([O-])c(S(=O)(=O)N2CCc3ccccc3C2)c1)N1CCOCC1 (3D coordinates assigned)
O=C(c1ccc([O-])c(S(=O)(=O)N2CCc3ccccc3C2)c1)N1CCOCC1 (nonaromatic ring conformer: 64.30046710414436 kcal/mol)

>  <smiles>  (14) 
O=C(c1ccc(O)c(S(=O)(=O)N2CCc3ccccc3C2)c1)N1CCOCC1

>  <score_type>  (14) 
oracle

>  <origin>  (14) 
adgpu

>  <m_score__min__energy>  (14) 
-12.869999999999999

>  <m_primary>  (14) 
energy

$$$$
14:0
     RDKit          3D

 46 49  0  0  0  0  0  0  0  0999 V2000
   -0.8370   20.5670  -33.9880 C   0  0  0  0  0  0  0  0  0  0  0  0
   -2.1560   19.8750  -33.9090 C   0  0  0  0  0  0  0  0  0  0  0  0
   -2.4420   18.7690  -34.5560 O   0  0  0  0  0  0  0  0  0  0  0  0
   -3.6530   18.3730  -34.2950 N   0  0  0  0  0  0  0  0  0  0  0  0
   -4.1940   19.2620  -33.4380 C   0  0  0  0  0  0  0  0  0  0  0  0
   -5.5890   19.1690  -32.9690 C   0  0  0  0  0  0  0  0  0  0  0  0
   -5.9660   18.2200  -32.0010 C   0  0  0  0  0  0  0  0  0  0  0  0
   -7.2910   18.1590  -31.5540 C   0  0  0  0  0  0  0  0  0  0  0  0
   -8.2470   19.0400  -32.0680 C   0  0  0  0  0  0  0  0  0  0  0  0
   -7.8770   19.9960  -33.0180 C   0  0  0  0  0  0  0  0  0  0  0  0
   -6.5510   20.0680  -33.4580 C   0  0  0  0  0  0  0  0  0  0  0  0
   -3.2550   20.2480  -33.1550 C   0  0  0  0  0  0  0  0  0  0  0  0
   -3.3260   21.3730  -32.1970 C   0  0  0  0  0  0  0  0  0  0  0  0
   -2.4690   22.2960  -32.2720 O   0  0  0  0  0  0  0  0  0  0  0  0
   -4.3350   21.4130  -31.1760 N   0  0  0  0  0  0  0  0  0  0  0  0
   -4.3090   22.3450  -30.0840 C   0  0  0  0  0  0  0  0  0  0  0  0
   -3.7080   21.9850  -28.8630 C   0  0  0  0  0  0  0  0  0  0  0  0
   -3.6870   22.8810  -27.7920 C   0  0  0  0  0  0  0  0  0  0  0  0
   -4.2520   24.1500  -27.9320 C   0  0  0  0  0  0  0  0  0  0  0  0
   -4.8570   24.5180  -29.1380 C   0  0  0  0  0  0  0  0  0  0  0  0
   -4.9130   23.6140  -30.2080 C   0  0  0  0  0  0  0  0  0  0  0  0
   -5.6740   24.1430  -31.7490 S   0  0  0  0  0  0  0  0  0  0  0  0
   -7.2170   23.2800  -31.4410 C   0  0  0  0  0  0  0  0  0  0  0  0
   -7.3390   22.4140  -30.3450 C   0  0  0  0  0  0  0  0  0  0  0  0
   -8.5340   21.7240  -30.1280 C   0  0  0  0  0  0  0  0  0  0  0  0
   -9.6060   21.8870  -31.0090 C   0  0  0  0  0  0  0  0  0  0  0  0
   -9.4820   22.7360  -32.1130 C   0  0  0  0  0  0  0  0  0  0  0  0
   -8.2900   23.4290  -32.3300 C   0  0  0  0  0  0  0  0  0  0  0  0
   -0.4641   20.7626  -32.9718 H   0  0  0  0  0  0  0  0  0  0  0  0
   -0.1198   19.9290  -34.5252 H   0  0  0  0  0  0  0  0  0  0  0  0
   -0.9543   21.5197  -34.5252 H   0  0  0  0  0  0  0  0  0  0  0  0
   -5.2174   17.5241  -31.5944 H   0  0  0  0  0  0  0  0  0  0  0  0
   -7.5808   17.4160  -30.7964 H   0  0  0  0  0  0  0  0  0  0  0  0
   -9.2904   18.9808  -31.7248 H   0  0  0  0  0  0  0  0  0  0  0  0
   -8.6284   20.6918  -33.4197 H   0  0  0  0  0  0  0  0  0  0  0  0
   -6.2598   20.8339  -34.1919 H   0  0  0  0  0  0  0  0  0  0  0  0
   -5.0900   20.6950  -31.1800 H   0  0  0  0  0  0  0  0  0  0  0  0
   -3.2515   20.9904  -28.7516 H   0  0  0  0  0  0  0  0  0  0  0  0
   -3.2252   22.5869  -26.8379 H   0  0  0  0  0  0  0  0  0  0  0  0
   -4.2213   24.8609  -27.0931 H   0  0  0  0  0  0  0  0  0  0  0  0
   -5.2914   25.5226  -29.2476 H   0  0  0  0  0  0  0  0  0  0  0  0
   -6.4929   22.2779  -29.6554 H   0  0  0  0  0  0  0  0  0  0  0  0
   -8.6311   21.0517  -29.2628 H   0  0  0  0  0  0  0  0  0  0  0  0
  -10.5482   21.3470  -30.8340 H   0  0  0  0  0  0  0  0  0  0  0  0
  -10.3238   22.8578  -32.8105 H   0  0  0  0  0  0  0  0  0  0  0  0
   -8.1926   24.0937  -33.2010 H   0  0  0  0  0  0  0  0  0  0  0  0
  1  2  1  0
  2  3  1  0
  3  4  1  0
  4  5  2  0
  5  6  1  0
  6  7  2  0
  7  8  1  0
  8  9  2  0
  9 10  1  0
 10 11  2  0
  5 12  1  0
 12 13  1  0
 13 14  2  0
 13 15  1  0
 15 16  1  0
 16 17  2  0
 17 18  1  0
 18 19  2  0
 19 20  1  0
 20 21  2  0
 21 22  1  0
 22 23  1  0
 23 24  2  0
 24 25  1  0
 25 26  2  0
 26 27  1  0
 27 28  2  0
 12  2  2  0
 21 16  1  0
 28 23  1  0
 11  6  1  0
  1 29  1  0
  1 30  1  0
  1 31  1  0
  7 32  1  0
  8 33  1  0
  9 34  1  0
 10 35  1  0
 11 36  1  0
 15 37  1  0
 17 38  1  0
 18 39  1  0
 19 40  1  0
 20 41  1  0
 24 42  1  0
 25 43  1  0
 26 44  1  0
 27 45  1  0
 28 46  1  0
M  END
>  <UniqueID>  (15) 
15

>  <SMILES>  (15) 
Cc1onc(-c2ccccc2)c1C(=O)Nc1ccccc1Sc1ccccc1

>  <Energy>  (15) 
85.64525456696646

>  <Genealogy>  (15) 
Cc1onc(-c2ccccc2)c1C(=O)Nc1ccccc1Sc1ccccc1 (3D coordinates assigned)
Cc1onc(-c2ccccc2)c1C(=O)Nc1ccccc1Sc1ccccc1 (optimized conformer: 85.64525456696646 kcal/mol)

>  <smiles>  (15) 
Cc1onc(-c2ccccc2)c1C(=O)Nc1ccccc1Sc1ccccc1

>  <score_type>  (15) 
oracle

>  <origin>  (15) 
adgpu

>  <m_score__min__energy>  (15) 
-9.8699999999999992

>  <m_primary>  (15) 
energy

$$$$
15:0
     RDKit          3D

 52 54  0  0  0  0  0  0  0  0999 V2000
   -6.4590   24.8650  -30.8300 C   0  0  0  0  0  0  0  0  0  0  0  0
   -6.8440   23.4620  -31.2150 C   0  0  0  0  0  0  0  0  0  0  0  0
   -8.1840   23.2090  -31.5570 C   0  0  0  0  0  0  0  0  0  0  0  0
   -8.6050   21.9220  -31.8880 C   0  0  0  0  0  0  0  0  0  0  0  0
   -7.6990   20.8590  -31.8710 C   0  0  0  0  0  0  0  0  0  0  0  0
   -8.2360   19.2240  -32.2750 S   0  0  0  0  0  0  0  0  0  0  0  0
   -8.5480   18.4830  -31.0040 O   0  0  0  0  0  0  0  0  0  0  0  0
   -9.4990   19.3100  -33.0850 O   0  0  0  0  0  0  0  0  0  0  0  0
   -7.0410   18.3220  -33.1770 N   0  0  0  0  0  0  0  0  0  0  0  0
   -6.2380   19.1850  -34.0400 C   0  0  0  0  0  0  0  0  0  0  0  0
   -4.9180   18.4620  -34.2590 C   0  0  0  0  0  0  0  0  0  0  0  0
   -4.8140   17.4620  -33.1150 C   0  0  0  0  0  0  0  0  0  0  0  0
   -6.0860   17.6460  -32.3020 C   0  0  0  0  0  0  0  0  0  0  0  0
   -6.3580   21.1020  -31.5560 C   0  0  0  0  0  0  0  0  0  0  0  0
   -5.9050   22.3980  -31.2560 C   0  0  0  0  0  0  0  0  0  0  0  0
   -4.1770   22.6100  -30.8850 S   0  0  0  0  0  0  0  0  0  0  0  0
   -3.8380   24.0580  -31.1020 O   0  0  0  0  0  0  0  0  0  0  0  0
   -3.3160   21.7780  -31.7940 O   0  0  0  0  0  0  0  0  0  0  0  0
   -3.8160   22.1810  -29.2240 N   0  0  2  0  0  0  0  0  0  0  0  0
   -4.3290   23.2180  -28.3140 C   0  0  0  0  0  0  0  0  0  0  0  0
   -2.3790   21.8840  -28.9950 C   0  0  0  0  0  0  0  0  0  0  0  0
   -2.1150   20.6180  -28.2050 C   0  0  0  0  0  0  0  0  0  0  0  0
   -0.8880   19.9430  -28.3250 C   0  0  0  0  0  0  0  0  0  0  0  0
   -0.6480   18.7760  -27.5930 C   0  0  0  0  0  0  0  0  0  0  0  0
   -1.6250   18.2820  -26.7240 C   0  0  0  0  0  0  0  0  0  0  0  0
   -2.8380   18.9580  -26.5790 C   0  0  0  0  0  0  0  0  0  0  0  0
   -3.0800   20.1260  -27.3080 C   0  0  0  0  0  0  0  0  0  0  0  0
   -6.4354   24.9510  -29.7336 H   0  0  0  0  0  0  0  0  0  0  0  0
   -5.4640   25.0971  -31.2375 H   0  0  0  0  0  0  0  0  0  0  0  0
   -7.1962   25.5724  -31.2375 H   0  0  0  0  0  0  0  0  0  0  0  0
   -8.9088   24.0364  -31.5635 H   0  0  0  0  0  0  0  0  0  0  0  0
   -9.6547   21.7428  -32.1636 H   0  0  0  0  0  0  0  0  0  0  0  0
   -6.7490   19.3440  -35.0010 H   0  0  0  0  0  0  0  0  0  0  0  0
   -6.0812   20.1729  -33.5823 H   0  0  0  0  0  0  0  0  0  0  0  0
   -4.9201   17.9407  -35.2276 H   0  0  0  0  0  0  0  0  0  0  0  0
   -4.0664   19.1580  -34.2745 H   0  0  0  0  0  0  0  0  0  0  0  0
   -4.7517   16.4355  -33.5054 H   0  0  0  0  0  0  0  0  0  0  0  0
   -3.9122   17.6275  -32.5073 H   0  0  0  0  0  0  0  0  0  0  0  0
   -6.4823   16.6687  -31.9894 H   0  0  0  0  0  0  0  0  0  0  0  0
   -5.8956   18.2325  -31.3911 H   0  0  0  0  0  0  0  0  0  0  0  0
   -5.6456   20.2640  -31.5429 H   0  0  0  0  0  0  0  0  0  0  0  0
   -4.3500   21.3080  -29.0090 H   0  0  0  0  0  0  0  0  0  0  0  0
   -4.1725   22.9016  -27.2722 H   0  0  0  0  0  0  0  0  0  0  0  0
   -3.7939   24.1619  -28.4949 H   0  0  0  0  0  0  0  0  0  0  0  0
   -5.4040   23.3654  -28.4949 H   0  0  0  0  0  0  0  0  0  0  0  0
   -1.8885   21.7857  -29.9747 H   0  0  0  0  0  0  0  0  0  0  0  0
   -1.9805   22.7151  -28.3946 H   0  0  0  0  0  0  0  0  0  0  0  0
   -0.1119   20.3351  -28.9988 H   0  0  0  0  0  0  0  0  0  0  0  0
    0.3101   18.2465  -27.7011 H   0  0  0  0  0  0  0  0  0  0  0  0
   -1.4381   17.3600  -26.1540 H   0  0  0  0  0  0  0  0  0  0  0  0
   -3.6038   18.5712  -25.8906 H   0  0  0  0  0  0  0  0  0  0  0  0
   -4.0310   20.6635  -27.1793 H   0  0  0  0  0  0  0  0  0  0  0  0
  1  2  1  0
  2  3  2  0
  3  4  1  0
  4  5  2  0
  5  6  1  0
  6  7  2  0
  6  8  2  0
  6  9  1  0
  9 10  1  0
 10 11  1  0
 11 12  1  0
 12 13  1  0
  5 14  1  0
 14 15  2  0
 15 16  1  0
 16 17  2  0
 16 18  2  0
 16 19  1  0
 19 20  1  0
 19 21  1  0
 21 22  1  0
 22 23  2  0
 23 24  1  0
 24 25  2  0
 25 26  1  0
 26 27  2  0
 15  2  1  0
 27 22  1  0
 13  9  1  0
  1 28  1  0
  1 29  1  0
  1 30  1  0
  3 31  1  0
  4 32  1  0
 10 33  1  0
 10 34  1  0
 11 35  1  0
 11 36  1  0
 12 37  1  0
 12 38  1  0
 13 39  1  0
 13 40  1  0
 14 41  1  0
 19 42  1  1
 20 43  1  0
 20 44  1  0
 20 45  1  0
 21 46  1  0
 21 47  1  0
 23 48  1  0
 24 49  1  0
 25 50  1  0
 26 51  1  0
 27 52  1  0
M  CHG  1  19   1
M  END
>  <UniqueID>  (16) 
16

>  <SMILES>  (16) 
Cc1ccc(S(=O)(=O)N2CCCC2)cc1S(=O)(=O)[N@H+](C)Cc1ccccc1

>  <Energy>  (16) 
56.89826606892963

>  <Genealogy>  (16) 
Cc1ccc(S(=O)(=O)N2CCCC2)cc1S(=O)(=O)[NH+](C)Cc1ccccc1 (protonated)
Cc1ccc(S(=O)(=O)N2CCCC2)cc1S(=O)(=O)[N@H+](C)Cc1ccccc1 (chirality)
Cc1ccc(S(=O)(=O)N2CCCC2)cc1S(=O)(=O)[N@H+](C)Cc1ccccc1 (3D coordinates assigned)
Cc1ccc(S(=O)(=O)N2CCCC2)cc1S(=O)(=O)[N@H+](C)Cc1ccccc1 (nonaromatic ring conformer: 56.89826606892963 kcal/mol)

>  <smiles>  (16) 
Cc1ccc(S(=O)(=O)N2CCCC2)cc1S(=O)(=O)N(C)Cc1ccccc1

>  <score_type>  (16) 
oracle

>  <origin>  (16) 
adgpu

>  <m_score__min__energy>  (16) 
-9.5999999999999996

>  <m_primary>  (16) 
energy

$$$$
16:0
     RDKit          3D

 54 57  0  0  0  0  0  0  0  0999 V2000
   -4.2570   17.4920  -34.9380 C   0  0  0  0  0  0  0  0  0  0  0  0
   -4.1710   17.7410  -33.4900 N   0  0  0  0  0  0  0  0  0  0  0  0
   -2.8270   18.1190  -33.0080 C   0  0  0  0  0  0  0  0  0  0  0  0
   -2.3790   19.5610  -33.3570 C   0  0  0  0  0  0  0  0  0  0  0  0
   -3.1020   20.7230  -32.6920 C   0  0  0  0  0  0  0  0  0  0  0  0
   -2.3250   21.6240  -31.9430 C   0  0  0  0  0  0  0  0  0  0  0  0
   -2.9110   22.7030  -31.2840 C   0  0  0  0  0  0  0  0  0  0  0  0
   -4.2910   22.9040  -31.3500 C   0  0  0  0  0  0  0  0  0  0  0  0
   -5.0220   24.2190  -30.4310 S   0  0  0  0  0  0  0  0  0  0  0  0
   -6.5190   24.2070  -30.5790 O   0  0  0  0  0  0  0  0  0  0  0  0
   -4.4880   25.5250  -30.9470 O   0  0  0  0  0  0  0  0  0  0  0  0
   -4.6170   24.0480  -28.7510 N   0  0  0  0  0  0  0  0  0  0  0  0
   -3.3300   23.5780  -28.3200 C   0  0  0  0  0  0  0  0  0  0  0  0
   -3.1830   22.2980  -27.7560 C   0  0  0  0  0  0  0  0  0  0  0  0
   -1.9120   21.8110  -27.4320 C   0  0  0  0  0  0  0  0  0  0  0  0
   -0.7840   22.6040  -27.6340 C   0  0  0  0  0  0  0  0  0  0  0  0
   -0.9230   23.9040  -28.1360 C   0  0  0  0  0  0  0  0  0  0  0  0
   -2.1890   24.3880  -28.4880 C   0  0  0  0  0  0  0  0  0  0  0  0
   -2.3050   25.6670  -29.0200 O   0  0  0  0  0  0  0  0  0  0  0  0
    0.5490   22.0300  -27.2570 C   0  0  0  0  0  0  0  0  0  0  0  0
    0.6660   20.5600  -27.7280 C   0  0  0  0  0  0  0  0  0  0  0  0
   -0.5880   19.7530  -27.6120 N   0  0  0  0  0  0  0  0  0  0  0  0
   -1.0370   19.2610  -28.9270 C   0  0  0  0  0  0  0  0  0  0  0  0
   -1.6990   20.4230  -26.8970 C   0  0  0  0  0  0  0  0  0  0  0  0
   -5.0820   22.0120  -32.0800 C   0  0  0  0  0  0  0  0  0  0  0  0
   -4.5070   20.9090  -32.7370 C   0  0  0  0  0  0  0  0  0  0  0  0
   -5.4030   19.9640  -33.4870 C   0  0  0  0  0  0  0  0  0  0  0  0
   -5.2960   18.5310  -32.9390 C   0  0  0  0  0  0  0  0  0  0  0  0
   -4.6115   16.4655  -35.1131 H   0  0  0  0  0  0  0  0  0  0  0  0
   -4.9608   18.2054  -35.3916 H   0  0  0  0  0  0  0  0  0  0  0  0
   -3.2629   17.6190  -35.3916 H   0  0  0  0  0  0  0  0  0  0  0  0
   -2.8174   18.0159  -31.9129 H   0  0  0  0  0  0  0  0  0  0  0  0
   -2.1208   17.4490  -33.5202 H   0  0  0  0  0  0  0  0  0  0  0  0
   -1.3150   19.6446  -33.0909 H   0  0  0  0  0  0  0  0  0  0  0  0
   -2.6189   19.6682  -34.4251 H   0  0  0  0  0  0  0  0  0  0  0  0
   -1.2372   21.4749  -31.8761 H   0  0  0  0  0  0  0  0  0  0  0  0
   -2.2833   23.3997  -30.7091 H   0  0  0  0  0  0  0  0  0  0  0  0
   -5.2630   24.4900  -28.0600 H   0  0  0  0  0  0  0  0  0  0  0  0
   -4.0714   21.6769  -27.5688 H   0  0  0  0  0  0  0  0  0  0  0  0
   -0.0371   24.5453  -28.2539 H   0  0  0  0  0  0  0  0  0  0  0  0
    1.3447   22.6247  -27.7294 H   0  0  0  0  0  0  0  0  0  0  0  0
    0.6491   22.0590  -26.1619 H   0  0  0  0  0  0  0  0  0  0  0  0
    0.9714   20.5644  -28.7847 H   0  0  0  0  0  0  0  0  0  0  0  0
    1.3992   20.0829  -27.0610 H   0  0  0  0  0  0  0  0  0  0  0  0
   -1.7723   18.4552  -28.7855 H   0  0  0  0  0  0  0  0  0  0  0  0
   -1.5003   20.0857  -29.4884 H   0  0  0  0  0  0  0  0  0  0  0  0
   -0.1734   18.8749  -29.4884 H   0  0  0  0  0  0  0  0  0  0  0  0
   -2.6207   19.8381  -27.0323 H   0  0  0  0  0  0  0  0  0  0  0  0
   -1.4439   20.4900  -25.8291 H   0  0  0  0  0  0  0  0  0  0  0  0
   -6.1682   22.1747  -32.1415 H   0  0  0  0  0  0  0  0  0  0  0  0
   -6.4439   20.3065  -33.3911 H   0  0  0  0  0  0  0  0  0  0  0  0
   -5.0893   19.9546  -34.5413 H   0  0  0  0  0  0  0  0  0  0  0  0
   -5.1715   18.5897  -31.8476 H   0  0  0  0  0  0  0  0  0  0  0  0
   -6.2178   18.0126  -33.2417 H   0  0  0  0  0  0  0  0  0  0  0  0
  1  2  1  0
  2  3  1  0
  3  4  1  0
  4  5  1  0
  5  6  2  0
  6  7  1  0
  7  8  2  0
  8  9  1  0
  9 10  2  0
  9 11  2  0
  9 12  1  0
 12 13  1  0
 13 14  2  0
 14 15  1  0
 15 16  2  0
 16 17  1  0
 17 18  2  0
 18 19  1  0
 16 20  1  0
 20 21  1  0
 21 22  1  0
 22 23  1  0
 22 24  1  0
  8 25  1  0
 25 26  2  0
 26 27  1  0
 27 28  1  0
 28  2  1  0
 26  5  1  0
 18 13  1  0
 24 15  1  0
  1 29  1  0
  1 30  1  0
  1 31  1  0
  3 32  1  0
  3 33  1  0
  4 34  1  0
  4 35  1  0
  6 36  1  0
  7 37  1  0
 12 38  1  0
 14 39  1  0
 17 40  1  0
 20 41  1  0
 20 42  1  0
 21 43  1  0
 21 44  1  0
 23 45  1  0
 23 46  1  0
 23 47  1  0
 24 48  1  0
 24 49  1  0
 25 50  1  0
 27 51  1  0
 27 52  1  0
 28 53  1  0
 28 54  1  0
M  CHG  1  19  -1
M  END
>  <UniqueID>  (17) 
17

>  <SMILES>  (17) 
CN1CCc2ccc(S(=O)(=O)Nc3cc4c(cc3[O-])CCN(C)C4)cc2CC1

>  <Energy>  (17) 
84.96142230162707

>  <Genealogy>  (17) 
CN1CCc2ccc(S(=O)(=O)Nc3cc4c(cc3[O-])CCN(C)C4)cc2CC1 (protonated)
CN1CCc2ccc(S(=O)(=O)Nc3cc4c(cc3[O-])CCN(C)C4)cc2CC1 (3D coordinates assigned)
CN1CCc2ccc(S(=O)(=O)Nc3cc4c(cc3[O-])CCN(C)C4)cc2CC1 (nonaromatic ring conformer: 84.96142230162707 kcal/mol)

>  <smiles>  (17) 
CN1CCc2ccc(S(=O)(=O)Nc3cc4c(cc3O)CCN(C)C4)cc2CC1

>  <score_type>  (17) 
oracle

>  <origin>  (17) 
adgpu

>  <m_score__min__energy>  (17) 
-11.800000000000001

>  <m_primary>  (17) 
energy

$$$$
17:0
     RDKit          3D

 56 59  0  0  0  0  0  0  0  0999 V2000
    2.3090   17.9150  -28.6780 C   0  0  0  0  0  0  0  0  0  0  0  0
    0.5510   17.7980  -28.4420 S   0  0  0  0  0  0  0  0  0  0  0  0
    0.2490   16.7360  -27.4220 O   0  0  0  0  0  0  0  0  0  0  0  0
   -0.1060   17.4210  -29.7410 O   0  0  0  0  0  0  0  0  0  0  0  0
   -0.0670   19.3480  -27.8830 C   0  0  0  0  0  0  0  0  0  0  0  0
   -1.2640   19.4040  -27.1570 C   0  0  0  0  0  0  0  0  0  0  0  0
   -1.7540   20.6310  -26.7030 C   0  0  0  0  0  0  0  0  0  0  0  0
   -1.0440   21.8160  -26.9570 C   0  0  0  0  0  0  0  0  0  0  0  0
   -1.6010   23.1420  -26.5180 C   0  0  0  0  0  0  0  0  0  0  0  0
   -1.8930   23.9910  -27.7160 C   0  0  0  0  0  0  0  0  0  0  0  0
   -2.9750   23.8370  -28.5020 N   0  0  0  0  0  0  0  0  0  0  0  0
   -2.7720   24.7490  -29.4820 C   0  0  0  0  0  0  0  0  0  0  0  0
   -3.5960   24.9580  -30.4660 N   0  0  0  0  0  0  0  0  0  0  0  0
   -4.7990   24.2180  -30.7340 C   0  0  0  0  0  0  0  0  0  0  0  0
   -4.7660   22.8210  -30.6440 C   0  0  0  0  0  0  0  0  0  0  0  0
   -5.9200   22.0680  -30.8780 C   0  0  0  0  0  0  0  0  0  0  0  0
   -7.1300   22.7070  -31.1850 C   0  0  0  0  0  0  0  0  0  0  0  0
   -8.5810   21.7550  -31.5110 S   0  0  0  0  0  0  0  0  0  0  0  0
   -9.0950   21.1770  -30.2210 O   0  0  0  0  0  0  0  0  0  0  0  0
   -9.6470   22.6550  -32.0740 O   0  0  0  0  0  0  0  0  0  0  0  0
   -8.2560   20.4570  -32.6350 N   0  0  0  0  0  0  0  0  0  0  0  0
   -8.6440   19.1390  -32.0740 C   0  0  0  0  0  0  0  0  0  0  0  0
   -7.4420   18.3190  -31.5800 C   0  0  0  0  0  0  0  0  0  0  0  0
   -6.4290   18.0760  -32.7130 C   0  0  0  0  0  0  0  0  0  0  0  0
   -6.4120   19.2120  -33.7510 C   0  0  0  0  0  0  0  0  0  0  0  0
   -6.8610   20.5350  -33.1230 C   0  0  0  0  0  0  0  0  0  0  0  0
   -7.1770   24.1060  -31.2330 C   0  0  0  0  0  0  0  0  0  0  0  0
   -6.0220   24.8600  -31.0040 C   0  0  0  0  0  0  0  0  0  0  0  0
   -1.6570   25.4300  -29.3380 O   0  0  0  0  0  0  0  0  0  0  0  0
   -1.0900   24.9680  -28.2540 C   0  0  0  0  0  0  0  0  0  0  0  0
    0.1290   25.4050  -27.7530 O   0  0  0  0  0  0  0  0  0  0  0  0
    0.1520   21.7580  -27.6890 C   0  0  0  0  0  0  0  0  0  0  0  0
    0.6420   20.5290  -28.1420 C   0  0  0  0  0  0  0  0  0  0  0  0
    2.8090   17.9483  -27.6988 H   0  0  0  0  0  0  0  0  0  0  0  0
    2.6626   17.0384  -29.2406 H   0  0  0  0  0  0  0  0  0  0  0  0
    2.5433   18.8307  -29.2406 H   0  0  0  0  0  0  0  0  0  0  0  0
   -1.8197   18.4789  -26.9438 H   0  0  0  0  0  0  0  0  0  0  0  0
   -2.7005   20.6693  -26.1439 H   0  0  0  0  0  0  0  0  0  0  0  0
   -2.5295   22.9785  -25.9512 H   0  0  0  0  0  0  0  0  0  0  0  0
   -0.8635   23.6530  -25.8817 H   0  0  0  0  0  0  0  0  0  0  0  0
   -3.8250   22.3125  -30.3873 H   0  0  0  0  0  0  0  0  0  0  0  0
   -5.8790   20.9702  -30.8212 H   0  0  0  0  0  0  0  0  0  0  0  0
   -9.3263   19.3056  -31.2274 H   0  0  0  0  0  0  0  0  0  0  0  0
   -9.1234   18.5661  -32.8814 H   0  0  0  0  0  0  0  0  0  0  0  0
   -6.9448   18.8665  -30.7657 H   0  0  0  0  0  0  0  0  0  0  0  0
   -7.8081   17.3441  -31.2258 H   0  0  0  0  0  0  0  0  0  0  0  0
   -5.4247   17.9865  -32.2734 H   0  0  0  0  0  0  0  0  0  0  0  0
   -6.7296   17.1552  -33.2344 H   0  0  0  0  0  0  0  0  0  0  0  0
   -5.3901   19.3275  -34.1414 H   0  0  0  0  0  0  0  0  0  0  0  0
   -7.1078   18.9553  -34.5634 H   0  0  0  0  0  0  0  0  0  0  0  0
   -6.1990   20.7722  -32.2771 H   0  0  0  0  0  0  0  0  0  0  0  0
   -6.8077   21.3186  -33.8931 H   0  0  0  0  0  0  0  0  0  0  0  0
   -8.1276   24.6143  -31.4520 H   0  0  0  0  0  0  0  0  0  0  0  0
   -6.0694   25.9585  -31.0350 H   0  0  0  0  0  0  0  0  0  0  0  0
    0.7061   22.6828  -27.9073 H   0  0  0  0  0  0  0  0  0  0  0  0
    1.5871   20.4890  -28.7035 H   0  0  0  0  0  0  0  0  0  0  0  0
  1  2  1  0
  2  3  2  0
  2  4  2  0
  2  5  1  0
  5  6  2  0
  6  7  1  0
  7  8  2  0
  8  9  1  0
  9 10  1  0
 10 11  1  0
 11 12  1  0
 12 13  2  3
 13 14  1  0
 14 15  2  0
 15 16  1  0
 16 17  2  0
 17 18  1  0
 18 19  2  0
 18 20  2  0
 18 21  1  0
 21 22  1  0
 22 23  1  0
 23 24  1  0
 24 25  1  0
 25 26  1  0
 17 27  1  0
 27 28  2  0
 12 29  1  0
 29 30  1  0
 30 31  1  0
  8 32  1  0
 32 33  2  0
 33  5  1  0
 30 10  2  0
 28 14  1  0
 26 21  1  0
  1 34  1  0
  1 35  1  0
  1 36  1  0
  6 37  1  0
  7 38  1  0
  9 39  1  0
  9 40  1  0
 15 41  1  0
 16 42  1  0
 22 43  1  0
 22 44  1  0
 23 45  1  0
 23 46  1  0
 24 47  1  0
 24 48  1  0
 25 49  1  0
 25 50  1  0
 26 51  1  0
 26 52  1  0
 27 53  1  0
 28 54  1  0
 32 55  1  0
 33 56  1  0
M  CHG  2  11  -1  31  -1
M  END
>  <UniqueID>  (18) 
18

>  <SMILES>  (18) 
CS(=O)(=O)c1ccc(Cc2[n-]c(=Nc3ccc(S(=O)(=O)N4CCCCC4)cc3)oc2[O-])cc1

>  <Energy>  (18) 
95.94117119401088

>  <Genealogy>  (18) 
CS(=O)(=O)c1ccc(Cc2[n-]c(=Nc3ccc(S(=O)(=O)N4CCCCC4)cc3)oc2[O-])cc1 (protonated)
CS(=O)(=O)c1ccc(Cc2[n-]c(=Nc3ccc(S(=O)(=O)N4CCCCC4)cc3)oc2[O-])cc1 (3D coordinates assigned)
CS(=O)(=O)c1ccc(Cc2[n-]c(=Nc3ccc(S(=O)(=O)N4CCCCC4)cc3)oc2[O-])cc1 (nonaromatic ring conformer: 95.94117119401088 kcal/mol)

>  <smiles>  (18) 
CS(=O)(=O)c1ccc(Cc2[nH]c(=Nc3ccc(S(=O)(=O)N4CCCCC4)cc3)oc2O)cc1

>  <score_type>  (18) 
oracle

>  <origin>  (18) 
adgpu

>  <m_score__min__energy>  (18) 
-14.77

>  <m_primary>  (18) 
energy

$$$$
18:0
     RDKit          3D

 60 63  0  0  0  0  0  0  0  0999 V2000
    0.4460   22.7060  -35.7170 C   0  0  0  0  0  0  0  0  0  0  0  0
    0.8930   21.4990  -35.3550 C   0  0  0  0  0  0  0  0  0  0  0  0
    0.0580   20.5930  -34.4990 C   0  0  0  0  0  0  0  0  0  0  0  0
   -0.2440   21.2530  -33.2330 N   0  0  0  0  0  0  0  0  0  0  0  0
   -1.4450   21.5560  -32.8400 C   0  0  0  0  0  0  0  0  0  0  0  0
   -1.6950   22.1670  -31.6700 N   0  0  0  0  0  0  0  0  0  0  0  0
   -3.0090   22.3190  -31.5980 N   0  0  0  0  0  0  0  0  0  0  0  0
   -3.7100   23.2540  -30.3090 S   0  0  0  0  0  0  0  0  0  0  0  0
   -4.8490   22.4750  -29.7130 O   0  0  0  0  0  0  0  0  0  0  0  0
   -4.2600   24.5420  -30.8480 O   0  0  0  0  0  0  0  0  0  0  0  0
   -2.5320   23.5310  -29.0310 C   0  0  0  0  0  0  0  0  0  0  0  0
   -1.1950   23.8160  -29.3450 C   0  0  0  0  0  0  0  0  0  0  0  0
   -0.2570   23.9930  -28.3250 C   0  0  0  0  0  0  0  0  0  0  0  0
   -0.6470   23.8960  -26.9840 C   0  0  0  0  0  0  0  0  0  0  0  0
    0.5290   24.1220  -25.6930 S   0  0  0  0  0  0  0  0  0  0  0  0
    1.9030   23.8990  -26.2590 O   0  0  0  0  0  0  0  0  0  0  0  0
    0.2810   23.1200  -24.5980 O   0  0  0  0  0  0  0  0  0  0  0  0
    0.4110   25.7410  -25.0490 N   0  0  0  0  0  0  0  0  0  0  0  0
   -0.1560   26.6520  -26.0590 C   0  0  0  0  0  0  0  0  0  0  0  0
   -0.5090   28.0150  -25.4280 C   0  0  0  0  0  0  0  0  0  0  0  0
    0.0530   28.1370  -24.1370 O   0  0  0  0  0  0  0  0  0  0  0  0
   -0.5190   27.1740  -23.2690 C   0  0  0  0  0  0  0  0  0  0  0  0
   -0.4290   25.7430  -23.8430 C   0  0  0  0  0  0  0  0  0  0  0  0
   -1.9910   23.6400  -26.6710 C   0  0  0  0  0  0  0  0  0  0  0  0
   -2.9260   23.4510  -27.6900 C   0  0  0  0  0  0  0  0  0  0  0  0
   -3.5360   21.8050  -32.7480 C   0  0  0  0  0  0  0  0  0  0  0  0
   -4.7920   21.7190  -33.0940 N   0  0  0  0  0  0  0  0  0  0  0  0
   -6.0330   22.0360  -32.3920 C   0  0  0  0  0  0  0  0  0  0  0  0
   -6.9160   20.8240  -32.2140 C   0  0  0  0  0  0  0  0  0  0  0  0
   -8.2840   21.0060  -31.9450 C   0  0  0  0  0  0  0  0  0  0  0  0
   -9.1320   19.9030  -31.8090 C   0  0  0  0  0  0  0  0  0  0  0  0
   -8.6290   18.6100  -31.9640 C   0  0  0  0  0  0  0  0  0  0  0  0
   -7.2800   18.4170  -32.2760 C   0  0  0  0  0  0  0  0  0  0  0  0
   -6.4270   19.5170  -32.4060 C   0  0  0  0  0  0  0  0  0  0  0  0
   -2.5680   21.3240  -33.5470 N   0  0  0  0  0  0  0  0  0  0  0  0
    1.0707   23.3582  -36.3450 H   0  0  0  0  0  0  0  0  0  0  0  0
   -0.5464   23.0468  -35.3868 H   0  0  0  0  0  0  0  0  0  0  0  0
    1.8865   21.1657  -35.6894 H   0  0  0  0  0  0  0  0  0  0  0  0
   -0.8808   20.3585  -35.0221 H   0  0  0  0  0  0  0  0  0  0  0  0
    0.6132   19.6640  -34.3022 H   0  0  0  0  0  0  0  0  0  0  0  0
   -0.8843   23.9003  -30.3968 H   0  0  0  0  0  0  0  0  0  0  0  0
    0.7918   24.2094  -28.5764 H   0  0  0  0  0  0  0  0  0  0  0  0
    0.5811   26.8055  -26.8610 H   0  0  0  0  0  0  0  0  0  0  0  0
   -1.0740   26.2022  -26.4650 H   0  0  0  0  0  0  0  0  0  0  0  0
   -0.1178   28.8196  -26.0680 H   0  0  0  0  0  0  0  0  0  0  0  0
   -1.6032   28.0881  -25.3419 H   0  0  0  0  0  0  0  0  0  0  0  0
    0.0137   27.2037  -22.3070 H   0  0  0  0  0  0  0  0  0  0  0  0
   -1.5837   27.4215  -23.1456 H   0  0  0  0  0  0  0  0  0  0  0  0
    0.0129   25.0746  -23.0894 H   0  0  0  0  0  0  0  0  0  0  0  0
   -1.4386   25.3926  -24.1036 H   0  0  0  0  0  0  0  0  0  0  0  0
   -2.3086   23.5881  -25.6191 H   0  0  0  0  0  0  0  0  0  0  0  0
   -3.9756   23.2386  -27.4386 H   0  0  0  0  0  0  0  0  0  0  0  0
   -5.7847   22.4416  -31.4001 H   0  0  0  0  0  0  0  0  0  0  0  0
   -6.5853   22.7687  -32.9987 H   0  0  0  0  0  0  0  0  0  0  0  0
   -8.6897   22.0231  -31.8409 H   0  0  0  0  0  0  0  0  0  0  0  0
  -10.1971   20.0541  -31.5795 H   0  0  0  0  0  0  0  0  0  0  0  0
   -9.2943   17.7428  -31.8406 H   0  0  0  0  0  0  0  0  0  0  0  0
   -6.8894   17.3987  -32.4193 H   0  0  0  0  0  0  0  0  0  0  0  0
   -5.3681   19.3610  -32.6596 H   0  0  0  0  0  0  0  0  0  0  0  0
   -2.6740   20.8790  -34.4850 H   0  0  0  0  0  0  0  0  0  0  0  0
  1  2  2  0
  2  3  1  0
  3  4  1  0
  4  5  2  3
  5  6  1  0
  6  7  1  0
  7  8  1  0
  8  9  2  0
  8 10  2  0
  8 11  1  0
 11 12  2  0
 12 13  1  0
 13 14  2  0
 14 15  1  0
 15 16  2  0
 15 17  2  0
 15 18  1  0
 18 19  1  0
 19 20  1  0
 20 21  1  0
 21 22  1  0
 22 23  1  0
 14 24  1  0
 24 25  2  0
  7 26  1  0
 26 27  2  3
 27 28  1  0
 28 29  1  0
 29 30  2  0
 30 31  1  0
 31 32  2  0
 32 33  1  0
 33 34  2  0
 26 35  1  0
 35  5  1  0
 25 11  1  0
 34 29  1  0
 23 18  1  0
  1 36  1  0
  1 37  1  0
  2 38  1  0
  3 39  1  0
  3 40  1  0
 12 41  1  0
 13 42  1  0
 19 43  1  0
 19 44  1  0
 20 45  1  0
 20 46  1  0
 22 47  1  0
 22 48  1  0
 23 49  1  0
 23 50  1  0
 24 51  1  0
 25 52  1  0
 28 53  1  0
 28 54  1  0
 30 55  1  0
 31 56  1  0
 32 57  1  0
 33 58  1  0
 34 59  1  0
 35 60  1  0
M  CHG  1   6  -1
M  END
>  <UniqueID>  (19) 
19

>  <SMILES>  (19) 
C=CCN=c1[n-]n(S(=O)(=O)c2ccc(S(=O)(=O)N3CCOCC3)cc2)c(=NCc2ccccc2)[nH]1

>  <Energy>  (19) 
115.26032002206044

>  <Genealogy>  (19) 
C=CCN=c1[n-]n(S(=O)(=O)c2ccc(S(=O)(=O)N3CCOCC3)cc2)c(=NCc2ccccc2)[nH]1 (protonated)
C=CCN=c1[n-]n(S(=O)(=O)c2ccc(S(=O)(=O)N3CCOCC3)cc2)c(=NCc2ccccc2)[nH]1 (3D coordinates assigned)
C=CCN=c1[n-]n(S(=O)(=O)c2ccc(S(=O)(=O)N3CCOCC3)cc2)c(=NCc2ccccc2)[nH]1 (nonaromatic ring conformer: 115.26032002206044 kcal/mol)

>  <smiles>  (19) 
C=CCN=c1[nH]c(=NCc2ccccc2)n(S(=O)(=O)c2ccc(S(=O)(=O)N3CCOCC3)cc2)[nH]1

>  <score_type>  (19) 
oracle

>  <origin>  (19) 
adgpu

>  <m_score__min__energy>  (19) 
-10.539999999999999

>  <m_primary>  (19) 
energy

$$$$
19:0
     RDKit          3D

 54 57  0  0  0  0  0  0  0  0999 V2000
   -6.4120   23.2120  -32.7340 O   0  0  0  0  0  0  0  0  0  0  0  0
   -6.5980   23.1190  -31.2440 S   0  0  0  0  0  0  0  0  0  0  0  0
   -7.5540   24.2050  -30.8370 O   0  0  0  0  0  0  0  0  0  0  0  0
   -5.0450   23.4080  -30.4610 C   0  0  0  0  0  0  0  0  0  0  0  0
   -4.2900   22.3400  -29.9650 C   0  0  0  0  0  0  0  0  0  0  0  0
   -3.0620   22.5780  -29.3460 C   0  0  0  0  0  0  0  0  0  0  0  0
   -2.5830   23.8970  -29.2360 C   0  0  0  0  0  0  0  0  0  0  0  0
   -1.3270   24.2010  -28.5840 N   0  0  0  0  0  0  0  0  0  0  0  0
   -0.1000   23.4450  -28.8900 C   0  0  0  0  0  0  0  0  0  0  0  0
    0.4160   22.7170  -27.6440 C   0  0  0  0  0  0  0  0  0  0  0  0
   -0.2820   21.3940  -27.4760 C   0  0  0  0  0  0  0  0  0  0  0  0
    0.1280   20.2770  -28.2160 C   0  0  0  0  0  0  0  0  0  0  0  0
   -0.5110   19.0510  -28.0210 C   0  0  0  0  0  0  0  0  0  0  0  0
   -1.5150   18.9420  -27.1110 N   0  0  0  0  0  0  0  0  0  0  0  0
   -1.9240   20.0060  -26.3700 C   0  0  0  0  0  0  0  0  0  0  0  0
   -1.3110   21.2510  -26.5340 C   0  0  0  0  0  0  0  0  0  0  0  0
   -1.2950   25.2170  -27.5590 C   0  0  0  0  0  0  0  0  0  0  0  0
   -2.0400   25.0520  -26.3780 C   0  0  0  0  0  0  0  0  0  0  0  0
   -2.0110   26.0320  -25.3810 C   0  0  0  0  0  0  0  0  0  0  0  0
   -1.2400   27.1840  -25.5520 C   0  0  0  0  0  0  0  0  0  0  0  0
   -0.4950   27.3580  -26.7220 C   0  0  0  0  0  0  0  0  0  0  0  0
   -0.5210   26.3810  -27.7230 C   0  0  0  0  0  0  0  0  0  0  0  0
   -3.3310   24.9140  -29.7520 N   0  0  0  0  0  0  0  0  0  0  0  0
   -4.5280   24.7030  -30.3600 C   0  0  0  0  0  0  0  0  0  0  0  0
   -7.2920   21.5620  -30.8490 N   0  0  0  0  0  0  0  0  0  0  0  0
   -8.7620   21.5860  -30.7240 C   0  0  0  0  0  0  0  0  0  0  0  0
   -9.4760   21.2620  -32.0440 C   0  0  0  0  0  0  0  0  0  0  0  0
   -8.9920   20.0560  -32.5910 O   0  0  0  0  0  0  0  0  0  0  0  0
   -7.6340   20.2190  -32.9380 C   0  0  0  0  0  0  0  0  0  0  0  0
   -6.7790   20.4590  -31.6870 C   0  0  0  0  0  0  0  0  0  0  0  0
   -4.6649   21.3105  -30.0630 H   0  0  0  0  0  0  0  0  0  0  0  0
   -2.4720   21.7399  -28.9465 H   0  0  0  0  0  0  0  0  0  0  0  0
   -0.3182   22.7059  -29.6750 H   0  0  0  0  0  0  0  0  0  0  0  0
    0.6723   24.1499  -29.2315 H   0  0  0  0  0  0  0  0  0  0  0  0
    1.4974   22.5445  -27.7480 H   0  0  0  0  0  0  0  0  0  0  0  0
    0.2131   23.3396  -26.7601 H   0  0  0  0  0  0  0  0  0  0  0  0
    0.9470   20.3653  -28.9450 H   0  0  0  0  0  0  0  0  0  0  0  0
   -0.2014   18.1716  -28.6048 H   0  0  0  0  0  0  0  0  0  0  0  0
   -2.7385   19.8867  -25.6404 H   0  0  0  0  0  0  0  0  0  0  0  0
   -1.6329   22.1116  -25.9293 H   0  0  0  0  0  0  0  0  0  0  0  0
   -2.6491   24.1469  -26.2376 H   0  0  0  0  0  0  0  0  0  0  0  0
   -2.5967   25.8954  -24.4600 H   0  0  0  0  0  0  0  0  0  0  0  0
   -1.2190   27.9538  -24.7666 H   0  0  0  0  0  0  0  0  0  0  0  0
    0.1129   28.2649  -26.8559 H   0  0  0  0  0  0  0  0  0  0  0  0
    0.0661   26.5232  -28.6423 H   0  0  0  0  0  0  0  0  0  0  0  0
   -5.0911   25.5527  -30.7734 H   0  0  0  0  0  0  0  0  0  0  0  0
   -9.0629   20.8437  -29.9701 H   0  0  0  0  0  0  0  0  0  0  0  0
   -9.0532   22.6055  -30.4312 H   0  0  0  0  0  0  0  0  0  0  0  0
  -10.5555   21.1653  -31.8560 H   0  0  0  0  0  0  0  0  0  0  0  0
   -9.2836   22.0760  -32.7585 H   0  0  0  0  0  0  0  0  0  0  0  0
   -7.2803   19.3109  -33.4482 H   0  0  0  0  0  0  0  0  0  0  0  0
   -7.5412   21.0910  -33.6021 H   0  0  0  0  0  0  0  0  0  0  0  0
   -6.7670   19.5373  -31.0868 H   0  0  0  0  0  0  0  0  0  0  0  0
   -5.7696   20.7387  -32.0230 H   0  0  0  0  0  0  0  0  0  0  0  0
  1  2  2  0
  2  3  2  0
  2  4  1  0
  4  5  2  0
  5  6  1  0
  6  7  2  0
  7  8  1  0
  8  9  1  0
  9 10  1  0
 10 11  1  0
 11 12  2  0
 12 13  1  0
 13 14  2  0
 14 15  1  0
 15 16  2  0
  8 17  1  0
 17 18  2  0
 18 19  1  0
 19 20  2  0
 20 21  1  0
 21 22  2  0
  7 23  1  0
 23 24  2  0
  2 25  1  0
 25 26  1  0
 26 27  1  0
 27 28  1  0
 28 29  1  0
 29 30  1  0
 24  4  1  0
 30 25  1  0
 16 11  1  0
 22 17  1  0
  5 31  1  0
  6 32  1  0
  9 33  1  0
  9 34  1  0
 10 35  1  0
 10 36  1  0
 12 37  1  0
 13 38  1  0
 15 39  1  0
 16 40  1  0
 18 41  1  0
 19 42  1  0
 20 43  1  0
 21 44  1  0
 22 45  1  0
 24 46  1  0
 26 47  1  0
 26 48  1  0
 27 49  1  0
 27 50  1  0
 29 51  1  0
 29 52  1  0
 30 53  1  0
 30 54  1  0
M  END
>  <UniqueID>  (20) 
20

>  <SMILES>  (20) 
O=S(=O)(c1ccc(N(CCc2ccncc2)c2ccccc2)nc1)N1CCOCC1

>  <Energy>  (20) 
69.26390583585305

>  <Genealogy>  (20) 
O=S(=O)(c1ccc(N(CCc2ccncc2)c2ccccc2)nc1)N1CCOCC1 (3D coordinates assigned)
O=S(=O)(c1ccc(N(CCc2ccncc2)c2ccccc2)nc1)N1CCOCC1 (nonaromatic ring conformer: 69.26390583585305 kcal/mol)

>  <smiles>  (20) 
O=S(=O)(c1ccc(N(CCc2ccncc2)c2ccccc2)nc1)N1CCOCC1

>  <score_type>  (20) 
oracle

>  <origin>  (20) 
adgpu

>  <m_score__min__energy>  (20) 
-9.5899999999999999

>  <m_primary>  (20) 
energy

$$$$
20:0
     RDKit          3D

 49 52  0  0  0  0  0  0  0  0999 V2000
   -6.8550   15.3960  -34.2610 C   0  0  0  0  0  0  0  0  0  0  0  0
   -6.6280   16.7560  -33.6710 C   0  0  0  0  0  0  0  0  0  0  0  0
   -7.1630   17.0760  -32.4160 C   0  0  0  0  0  0  0  0  0  0  0  0
   -6.9840   18.3530  -31.8760 C   0  0  0  0  0  0  0  0  0  0  0  0
   -6.2760   19.3360  -32.5890 C   0  0  0  0  0  0  0  0  0  0  0  0
   -6.0840   20.6930  -32.0160 C   0  0  0  0  0  0  0  0  0  0  0  0
   -7.1600   21.3790  -31.4260 C   0  0  0  0  0  0  0  0  0  0  0  0
   -6.9770   22.6530  -30.8800 C   0  0  0  0  0  0  0  0  0  0  0  0
   -5.7140   23.2580  -30.9120 C   0  0  0  0  0  0  0  0  0  0  0  0
   -5.4500   24.8300  -30.1630 S   0  0  0  0  0  0  0  0  0  0  0  0
   -4.6230   25.6740  -31.0910 O   0  0  0  0  0  0  0  0  0  0  0  0
   -6.7570   25.5250  -29.9020 O   0  0  0  0  0  0  0  0  0  0  0  0
   -4.6050   24.6250  -28.6610 N   0  0  0  0  0  0  0  0  0  0  0  0
   -3.4590   23.7650  -28.5170 C   0  0  0  0  0  0  0  0  0  0  0  0
   -3.5940   22.4510  -28.0340 C   0  0  0  0  0  0  0  0  0  0  0  0
   -2.4830   21.6050  -27.9340 C   0  0  0  0  0  0  0  0  0  0  0  0
   -1.2120   22.0710  -28.3290 C   0  0  0  0  0  0  0  0  0  0  0  0
   -1.0690   23.3950  -28.7680 C   0  0  0  0  0  0  0  0  0  0  0  0
   -2.1810   24.2350  -28.8680 C   0  0  0  0  0  0  0  0  0  0  0  0
   -2.0090   25.5350  -29.3290 O   0  0  0  0  0  0  0  0  0  0  0  0
    0.0100   21.1950  -28.1880 C   0  0  0  0  0  0  0  0  0  0  0  0
   -0.3300   19.7650  -28.1500 N   0  0  0  0  0  0  0  0  0  0  0  0
   -1.3510   19.5020  -27.1280 C   0  0  0  0  0  0  0  0  0  0  0  0
   -2.6800   20.1770  -27.4940 C   0  0  0  0  0  0  0  0  0  0  0  0
   -4.6400   22.5840  -31.5060 C   0  0  0  0  0  0  0  0  0  0  0  0
   -4.8220   21.3130  -32.0540 C   0  0  0  0  0  0  0  0  0  0  0  0
   -5.7560   19.0160  -33.8570 C   0  0  0  0  0  0  0  0  0  0  0  0
   -5.9380   17.7390  -34.3960 C   0  0  0  0  0  0  0  0  0  0  0  0
   -6.9777   14.6611  -33.4518 H   0  0  0  0  0  0  0  0  0  0  0  0
   -7.7628   15.4126  -34.8820 H   0  0  0  0  0  0  0  0  0  0  0  0
   -5.9910   15.1168  -34.8820 H   0  0  0  0  0  0  0  0  0  0  0  0
   -7.7270   16.3181  -31.8525 H   0  0  0  0  0  0  0  0  0  0  0  0
   -7.4003   18.5903  -30.8858 H   0  0  0  0  0  0  0  0  0  0  0  0
   -8.1542   20.9094  -31.3937 H   0  0  0  0  0  0  0  0  0  0  0  0
   -7.8271   23.1817  -30.4241 H   0  0  0  0  0  0  0  0  0  0  0  0
   -4.8620   25.2750  -27.8840 H   0  0  0  0  0  0  0  0  0  0  0  0
   -4.5854   22.0832  -27.7309 H   0  0  0  0  0  0  0  0  0  0  0  0
   -0.0724   23.7757  -29.0361 H   0  0  0  0  0  0  0  0  0  0  0  0
    0.6767   21.3775  -29.0437 H   0  0  0  0  0  0  0  0  0  0  0  0
    0.4990   21.4501  -27.2362 H   0  0  0  0  0  0  0  0  0  0  0  0
   -0.7010   19.4790  -29.0870 H   0  0  0  0  0  0  0  0  0  0  0  0
   -1.5087   18.4163  -27.0477 H   0  0  0  0  0  0  0  0  0  0  0  0
   -1.0015   19.9118  -26.1689 H   0  0  0  0  0  0  0  0  0  0  0  0
   -3.1508   19.6142  -28.3135 H   0  0  0  0  0  0  0  0  0  0  0  0
   -3.3180   20.1815  -26.5980 H   0  0  0  0  0  0  0  0  0  0  0  0
   -3.6481   23.0583  -31.5410 H   0  0  0  0  0  0  0  0  0  0  0  0
   -3.9719   20.7924  -32.5191 H   0  0  0  0  0  0  0  0  0  0  0  0
   -5.2025   19.7760  -34.4280 H   0  0  0  0  0  0  0  0  0  0  0  0
   -5.5382   17.5038  -35.3934 H   0  0  0  0  0  0  0  0  0  0  0  0
  1  2  1  0
  2  3  2  0
  3  4  1  0
  4  5  2  0
  5  6  1  0
  6  7  2  0
  7  8  1  0
  8  9  2  0
  9 10  1  0
 10 11  2  0
 10 12  2  0
 10 13  1  0
 13 14  1  0
 14 15  2  0
 15 16  1  0
 16 17  2  0
 17 18  1  0
 18 19  2  0
 19 20  1  0
 17 21  1  0
 21 22  1  0
 22 23  1  0
 23 24  1  0
  9 25  1  0
 25 26  2  0
  5 27  1  0
 27 28  2  0
 28  2  1  0
 26  6  1  0
 19 14  1  0
 24 16  1  0
  1 29  1  0
  1 30  1  0
  1 31  1  0
  3 32  1  0
  4 33  1  0
  7 34  1  0
  8 35  1  0
 13 36  1  0
 15 37  1  0
 18 38  1  0
 21 39  1  0
 21 40  1  0
 22 41  1  0
 23 42  1  0
 23 43  1  0
 24 44  1  0
 24 45  1  0
 25 46  1  0
 26 47  1  0
 27 48  1  0
 28 49  1  0
M  CHG  1  20  -1
M  END
>  <UniqueID>  (21) 
21

>  <SMILES>  (21) 
Cc1ccc(-c2ccc(S(=O)(=O)Nc3cc4c(cc3[O-])CNCC4)cc2)cc1

>  <Energy>  (21) 
62.04869231797298

>  <Genealogy>  (21) 
Cc1ccc(-c2ccc(S(=O)(=O)Nc3cc4c(cc3[O-])CNCC4)cc2)cc1 (protonated)
Cc1ccc(-c2ccc(S(=O)(=O)Nc3cc4c(cc3[O-])CNCC4)cc2)cc1 (3D coordinates assigned)
Cc1ccc(-c2ccc(S(=O)(=O)Nc3cc4c(cc3[O-])CNCC4)cc2)cc1 (nonaromatic ring conformer: 62.04869231797298 kcal/mol)

>  <smiles>  (21) 
Cc1ccc(-c2ccc(S(=O)(=O)Nc3cc4c(cc3O)CNCC4)cc2)cc1

>  <score_type>  (21) 
oracle

>  <origin>  (21) 
adgpu

>  <m_score__min__energy>  (21) 
-14.279999999999999

>  <m_primary>  (21) 
energy

$$$$
21:0
     RDKit          3D

 56 58  0  0  0  0  0  0  0  0999 V2000
   -8.7420   19.1040  -31.3600 C   0  0  0  0  0  0  0  0  0  0  0  0
   -8.5730   20.5930  -31.4250 C   0  0  0  0  0  0  0  0  0  0  0  0
   -9.5110   21.3730  -32.1160 C   0  0  0  0  0  0  0  0  0  0  0  0
   -9.3440   22.7560  -32.2060 C   0  0  0  0  0  0  0  0  0  0  0  0
   -8.2420   23.3690  -31.6070 C   0  0  0  0  0  0  0  0  0  0  0  0
   -7.3010   22.6070  -30.9040 C   0  0  0  0  0  0  0  0  0  0  0  0
   -6.1860   23.2770  -30.3010 N   0  0  0  0  0  0  0  0  0  0  0  0
   -4.5960   23.4210  -30.9830 S   0  0  0  0  0  0  0  0  0  0  0  0
   -4.1560   24.8500  -30.8430 O   0  0  0  0  0  0  0  0  0  0  0  0
   -4.6090   23.1000  -32.4500 O   0  0  0  0  0  0  0  0  0  0  0  0
   -3.4610   22.3840  -30.0990 C   0  0  0  0  0  0  0  0  0  0  0  0
   -2.6090   21.4450  -30.6640 C   0  0  0  0  0  0  0  0  0  0  0  0
   -2.4830   21.1160  -32.0940 C   0  0  0  0  0  0  0  0  0  0  0  0
   -1.5010   21.5750  -32.7400 O   0  0  0  0  0  0  0  0  0  0  0  0
   -3.4600   20.2940  -32.7570 N   0  0  0  0  0  0  0  0  0  0  0  0
   -4.8510   20.2780  -32.2770 C   0  0  0  0  0  0  0  0  0  0  0  0
   -5.8120   19.7460  -33.3490 C   0  0  0  0  0  0  0  0  0  0  0  0
   -5.3630   18.3840  -33.9370 C   0  0  0  0  0  0  0  0  0  0  0  0
   -5.9690   17.2140  -33.1530 C   0  0  0  0  0  0  0  0  0  0  0  0
   -3.8220   18.2350  -34.0320 C   0  0  0  0  0  0  0  0  0  0  0  0
   -3.1030   19.5830  -33.9920 C   0  0  0  0  0  0  0  0  0  0  0  0
   -1.9190   20.8450  -29.6240 C   0  0  0  0  0  0  0  0  0  0  0  0
   -0.8620   19.7870  -29.7630 C   0  0  0  0  0  0  0  0  0  0  0  0
   -2.2840   21.4070  -28.4500 N   0  0  0  0  0  0  0  0  0  0  0  0
   -1.7790   21.0420  -27.1230 C   0  0  0  0  0  0  0  0  0  0  0  0
   -3.2530   22.3150  -28.7220 C   0  0  0  0  0  0  0  0  0  0  0  0
   -3.9300   23.1490  -27.6730 C   0  0  0  0  0  0  0  0  0  0  0  0
   -7.4560   21.2120  -30.8400 C   0  0  0  0  0  0  0  0  0  0  0  0
   -8.7782   18.7847  -30.3080 H   0  0  0  0  0  0  0  0  0  0  0  0
   -9.6783   18.8190  -31.8622 H   0  0  0  0  0  0  0  0  0  0  0  0
   -7.8934   18.6164  -31.8622 H   0  0  0  0  0  0  0  0  0  0  0  0
  -10.3811   20.8938  -32.5886 H   0  0  0  0  0  0  0  0  0  0  0  0
  -10.0820   23.3639  -32.7499 H   0  0  0  0  0  0  0  0  0  0  0  0
   -8.1121   24.4583  -31.6879 H   0  0  0  0  0  0  0  0  0  0  0  0
   -4.9147   19.6327  -31.3884 H   0  0  0  0  0  0  0  0  0  0  0  0
   -5.1433   21.3103  -32.0343 H   0  0  0  0  0  0  0  0  0  0  0  0
   -6.8078   19.6228  -32.8981 H   0  0  0  0  0  0  0  0  0  0  0  0
   -5.8239   20.4743  -34.1733 H   0  0  0  0  0  0  0  0  0  0  0  0
   -5.7464   18.3597  -34.9677 H   0  0  0  0  0  0  0  0  0  0  0  0
   -5.8700   17.4051  -32.0743 H   0  0  0  0  0  0  0  0  0  0  0  0
   -7.0334   17.1118  -33.4111 H   0  0  0  0  0  0  0  0  0  0  0  0
   -5.4384   16.2857  -33.4111 H   0  0  0  0  0  0  0  0  0  0  0  0
   -3.4734   17.6234  -33.1867 H   0  0  0  0  0  0  0  0  0  0  0  0
   -3.5898   17.7594  -34.9963 H   0  0  0  0  0  0  0  0  0  0  0  0
   -2.0156   19.4191  -34.0191 H   0  0  0  0  0  0  0  0  0  0  0  0
   -3.4058   20.1851  -34.8614 H   0  0  0  0  0  0  0  0  0  0  0  0
   -0.5361   19.4608  -28.7643 H   0  0  0  0  0  0  0  0  0  0  0  0
   -1.2733   18.9279  -30.3133 H   0  0  0  0  0  0  0  0  0  0  0  0
   -0.0025   20.1975  -30.3133 H   0  0  0  0  0  0  0  0  0  0  0  0
   -2.4135   21.5006  -26.3503 H   0  0  0  0  0  0  0  0  0  0  0  0
   -1.7984   19.9478  -27.0115 H   0  0  0  0  0  0  0  0  0  0  0  0
   -0.7462   21.4037  -27.0115 H   0  0  0  0  0  0  0  0  0  0  0  0
   -3.6387   22.7901  -26.6748 H   0  0  0  0  0  0  0  0  0  0  0  0
   -3.6263   24.2000  -27.7878 H   0  0  0  0  0  0  0  0  0  0  0  0
   -5.0210   23.0679  -27.7878 H   0  0  0  0  0  0  0  0  0  0  0  0
   -6.6978   20.6008  -30.3286 H   0  0  0  0  0  0  0  0  0  0  0  0
  1  2  1  0
  2  3  2  0
  3  4  1  0
  4  5  2  0
  5  6  1  0
  6  7  1  0
  7  8  1  0
  8  9  2  0
  8 10  2  0
  8 11  1  0
 11 12  1  0
 12 13  1  0
 13 14  2  0
 13 15  1  0
 15 16  1  0
 16 17  1  0
 17 18  1  0
 18 19  1  0
 18 20  1  0
 20 21  1  0
 12 22  2  0
 22 23  1  0
 22 24  1  0
 24 25  1  0
 24 26  1  0
 26 27  1  0
  6 28  2  0
 28  2  1  0
 26 11  2  0
 21 15  1  0
  1 29  1  0
  1 30  1  0
  1 31  1  0
  3 32  1  0
  4 33  1  0
  5 34  1  0
 16 35  1  0
 16 36  1  0
 17 37  1  0
 17 38  1  0
 18 39  1  0
 19 40  1  0
 19 41  1  0
 19 42  1  0
 20 43  1  0
 20 44  1  0
 21 45  1  0
 21 46  1  0
 23 47  1  0
 23 48  1  0
 23 49  1  0
 25 50  1  0
 25 51  1  0
 25 52  1  0
 27 53  1  0
 27 54  1  0
 27 55  1  0
 28 56  1  0
M  CHG  1   7  -1
M  END
>  <UniqueID>  (22) 
22

>  <SMILES>  (22) 
Cc1cccc([N-]S(=O)(=O)c2c(C(=O)N3CCC(C)CC3)c(C)n(C)c2C)c1

>  <Energy>  (22) 
92.06959004047201

>  <Genealogy>  (22) 
Cc1cccc([N-]S(=O)(=O)c2c(C(=O)N3CCC(C)CC3)c(C)n(C)c2C)c1 (protonated)
Cc1cccc([N-]S(=O)(=O)c2c(C(=O)N3CCC(C)CC3)c(C)n(C)c2C)c1 (3D coordinates assigned)
Cc1cccc([N-]S(=O)(=O)c2c(C(=O)N3CCC(C)CC3)c(C)n(C)c2C)c1 (nonaromatic ring conformer: 92.06959004047201 kcal/mol)

>  <smiles>  (22) 
Cc1cccc(NS(=O)(=O)c2c(C(=O)N3CCC(C)CC3)c(C)n(C)c2C)c1

>  <score_type>  (22) 
oracle

>  <origin>  (22) 
adgpu

>  <m_score__min__energy>  (22) 
-10.51

>  <m_primary>  (22) 
energy

$$$$
22:0
     RDKit          3D

 47 50  0  0  0  0  0  0  0  0999 V2000
    0.0970   19.9260  -28.2930 C   0  0  0  0  0  0  0  0  0  0  0  0
   -0.4600   20.4520  -27.0340 N   0  0  0  0  0  0  0  0  0  0  0  0
   -1.8850   20.1120  -26.8580 C   0  0  0  0  0  0  0  0  0  0  0  0
   -2.7840   20.7670  -27.9150 C   0  0  0  0  0  0  0  0  0  0  0  0
   -2.3950   22.1930  -28.2060 C   0  0  0  0  0  0  0  0  0  0  0  0
   -3.2210   22.9660  -29.0330 C   0  0  0  0  0  0  0  0  0  0  0  0
   -2.8210   24.2430  -29.4520 C   0  0  0  0  0  0  0  0  0  0  0  0
   -3.5660   24.9610  -30.4420 N   0  0  0  0  0  0  0  0  0  0  0  0
   -5.2990   25.0780  -30.4160 S   0  0  0  0  0  0  0  0  0  0  0  0
   -5.7800   25.1460  -28.9920 O   0  0  0  0  0  0  0  0  0  0  0  0
   -5.7220   26.3260  -31.1410 O   0  0  0  0  0  0  0  0  0  0  0  0
   -5.9860   23.6810  -31.2450 C   0  0  0  0  0  0  0  0  0  0  0  0
   -7.3510   23.3850  -31.1400 C   0  0  0  0  0  0  0  0  0  0  0  0
   -7.8460   22.1720  -31.6230 C   0  0  0  0  0  0  0  0  0  0  0  0
   -6.9850   21.2440  -32.2250 C   0  0  0  0  0  0  0  0  0  0  0  0
   -5.6240   21.5710  -32.4010 C   0  0  0  0  0  0  0  0  0  0  0  0
   -5.1300   22.7780  -31.8860 C   0  0  0  0  0  0  0  0  0  0  0  0
   -4.6720   20.5820  -33.0280 C   0  0  0  0  0  0  0  0  0  0  0  0
   -5.3870   19.5980  -33.8500 N   0  0  0  0  0  0  0  0  0  0  0  0
   -6.4280   18.9370  -33.0600 C   0  0  0  0  0  0  0  0  0  0  0  0
   -7.5400   19.9370  -32.7360 C   0  0  0  0  0  0  0  0  0  0  0  0
   -1.6330   24.7890  -28.9550 C   0  0  0  0  0  0  0  0  0  0  0  0
   -1.2420   26.0710  -29.3240 O   0  0  0  0  0  0  0  0  0  0  0  0
   -0.8130   24.0340  -28.1110 C   0  0  0  0  0  0  0  0  0  0  0  0
   -1.1610   22.7180  -27.7740 C   0  0  0  0  0  0  0  0  0  0  0  0
   -0.2400   21.9060  -26.8950 C   0  0  0  0  0  0  0  0  0  0  0  0
    0.8797   19.1869  -28.0671 H   0  0  0  0  0  0  0  0  0  0  0  0
   -0.7031   19.4463  -28.8758 H   0  0  0  0  0  0  0  0  0  0  0  0
    0.5302   20.7523  -28.8758 H   0  0  0  0  0  0  0  0  0  0  0  0
   -1.9976   19.0200  -26.9278 H   0  0  0  0  0  0  0  0  0  0  0  0
   -2.1983   20.4907  -25.8739 H   0  0  0  0  0  0  0  0  0  0  0  0
   -2.7132   20.1858  -28.8463 H   0  0  0  0  0  0  0  0  0  0  0  0
   -3.8101   20.7767  -27.5187 H   0  0  0  0  0  0  0  0  0  0  0  0
   -4.1935   22.5668  -29.3569 H   0  0  0  0  0  0  0  0  0  0  0  0
   -8.0352   24.1104  -30.6756 H   0  0  0  0  0  0  0  0  0  0  0  0
   -8.9180   21.9433  -31.5305 H   0  0  0  0  0  0  0  0  0  0  0  0
   -4.0610   23.0171  -31.9866 H   0  0  0  0  0  0  0  0  0  0  0  0
   -3.9569   21.1263  -33.6623 H   0  0  0  0  0  0  0  0  0  0  0  0
   -4.1493   20.0458  -32.2222 H   0  0  0  0  0  0  0  0  0  0  0  0
   -4.6990   18.8760  -34.1600 H   0  0  0  0  0  0  0  0  0  0  0  0
   -6.8465   18.0979  -33.6351 H   0  0  0  0  0  0  0  0  0  0  0  0
   -5.9915   18.5603  -32.1232 H   0  0  0  0  0  0  0  0  0  0  0  0
   -8.1228   20.1299  -33.6488 H   0  0  0  0  0  0  0  0  0  0  0  0
   -8.1728   19.5022  -31.9483 H   0  0  0  0  0  0  0  0  0  0  0  0
    0.1110   24.4751  -27.7088 H   0  0  0  0  0  0  0  0  0  0  0  0
    0.8006   22.1330  -27.1700 H   0  0  0  0  0  0  0  0  0  0  0  0
   -0.4511   22.1771  -25.8500 H   0  0  0  0  0  0  0  0  0  0  0  0
  1  2  1  0
  2  3  1  0
  3  4  1  0
  4  5  1  0
  5  6  2  0
  6  7  1  0
  7  8  1  0
  8  9  1  0
  9 10  2  0
  9 11  2  0
  9 12  1  0
 12 13  2  0
 13 14  1  0
 14 15  2  0
 15 16  1  0
 16 17  2  0
 16 18  1  0
 18 19  1  0
 19 20  1  0
 20 21  1  0
  7 22  2  0
 22 23  1  0
 22 24  1  0
 24 25  2  0
 25 26  1  0
 26  2  1  0
 25  5  1  0
 17 12  1  0
 21 15  1  0
  1 27  1  0
  1 28  1  0
  1 29  1  0
  3 30  1  0
  3 31  1  0
  4 32  1  0
  4 33  1  0
  6 34  1  0
 13 35  1  0
 14 36  1  0
 17 37  1  0
 18 38  1  0
 18 39  1  0
 19 40  1  0
 20 41  1  0
 20 42  1  0
 21 43  1  0
 21 44  1  0
 24 45  1  0
 26 46  1  0
 26 47  1  0
M  CHG  2   8  -1  23  -1
M  END
>  <UniqueID>  (23) 
23

>  <SMILES>  (23) 
CN1CCc2cc([N-]S(=O)(=O)c3ccc4c(c3)CNCC4)c([O-])cc2C1

>  <Energy>  (23) 
59.7369994501819

>  <Genealogy>  (23) 
CN1CCc2cc([N-]S(=O)(=O)c3ccc4c(c3)CNCC4)c([O-])cc2C1 (protonated)
CN1CCc2cc([N-]S(=O)(=O)c3ccc4c(c3)CNCC4)c([O-])cc2C1 (3D coordinates assigned)
CN1CCc2cc([N-]S(=O)(=O)c3ccc4c(c3)CNCC4)c([O-])cc2C1 (nonaromatic ring conformer: 59.7369994501819 kcal/mol)

>  <smiles>  (23) 
CN1CCc2cc(NS(=O)(=O)c3ccc4c(c3)CNCC4)c(O)cc2C1

>  <score_type>  (23) 
oracle

>  <origin>  (23) 
adgpu

>  <m_score__min__energy>  (23) 
-14.59

>  <m_primary>  (23) 
energy

$$$$
23:0
     RDKit          3D

 57 60  0  0  0  0  0  0  0  0999 V2000
   -1.7880   25.3410  -28.4700 O   0  0  0  0  0  0  0  0  0  0  0  0
   -2.1950   24.5760  -29.3850 C   0  0  0  0  0  0  0  0  0  0  0  0
   -3.3710   24.9630  -30.1100 N   0  0  0  0  0  0  0  0  0  0  0  0
   -4.5480   24.2090  -30.4350 C   0  0  0  0  0  0  0  0  0  0  0  0
   -5.7040   24.4430  -29.6800 C   0  0  0  0  0  0  0  0  0  0  0  0
   -6.9000   23.7900  -29.9860 C   0  0  0  0  0  0  0  0  0  0  0  0
   -6.9530   22.8700  -31.0400 C   0  0  0  0  0  0  0  0  0  0  0  0
   -8.4750   22.0560  -31.4340 S   0  0  0  0  0  0  0  0  0  0  0  0
   -9.2660   22.9290  -32.3690 O   0  0  0  0  0  0  0  0  0  0  0  0
   -9.2720   21.8920  -30.1690 O   0  0  0  0  0  0  0  0  0  0  0  0
   -8.2600   20.4930  -32.1900 N   0  0  0  0  0  0  0  0  0  0  0  0
   -7.1240   19.7570  -31.6380 C   0  0  0  0  0  0  0  0  0  0  0  0
   -7.4240   18.2770  -31.8310 C   0  0  0  0  0  0  0  0  0  0  0  0
   -8.9080   18.2010  -32.1570 C   0  0  0  0  0  0  0  0  0  0  0  0
   -9.4190   19.6230  -32.0090 C   0  0  0  0  0  0  0  0  0  0  0  0
   -5.8030   22.6440  -31.8110 C   0  0  0  0  0  0  0  0  0  0  0  0
   -4.6120   23.3230  -31.5260 C   0  0  0  0  0  0  0  0  0  0  0  0
   -1.5210   23.2700  -29.5700 C   0  0  0  0  0  0  0  0  0  0  0  0
   -1.6870   22.5700  -30.7800 C   0  0  0  0  0  0  0  0  0  0  0  0
   -1.1610   21.2790  -30.9380 C   0  0  0  0  0  0  0  0  0  0  0  0
   -1.3210   20.4280  -32.4780 S   0  0  0  0  0  0  0  0  0  0  0  0
   -1.2790   21.4260  -33.6010 O   0  0  0  0  0  0  0  0  0  0  0  0
   -0.1610   19.4850  -32.6500 O   0  0  0  0  0  0  0  0  0  0  0  0
   -2.8120   19.5150  -32.5570 N   0  0  0  0  0  0  0  0  0  0  0  0
   -3.8260   20.2570  -33.3290 C   0  0  0  0  0  0  0  0  0  0  0  0
   -4.9200   19.3090  -33.8490 C   0  0  0  0  0  0  0  0  0  0  0  0
   -4.4430   18.2640  -34.6890 O   0  0  0  0  0  0  0  0  0  0  0  0
   -3.0660   17.9730  -34.5120 C   0  0  0  0  0  0  0  0  0  0  0  0
   -2.5940   18.1400  -33.0570 C   0  0  0  0  0  0  0  0  0  0  0  0
   -0.5000   20.6670  -29.8670 C   0  0  0  0  0  0  0  0  0  0  0  0
   -0.3080   21.3590  -28.6720 C   0  0  0  0  0  0  0  0  0  0  0  0
   -0.7920   22.6620  -28.5190 C   0  0  0  0  0  0  0  0  0  0  0  0
   -0.5130   23.3260  -27.3220 O   0  0  0  0  0  0  0  0  0  0  0  0
   -5.6696   25.1487  -28.8369 H   0  0  0  0  0  0  0  0  0  0  0  0
   -7.8046   23.9995  -29.3962 H   0  0  0  0  0  0  0  0  0  0  0  0
   -6.2012   20.0291  -32.1712 H   0  0  0  0  0  0  0  0  0  0  0  0
   -6.9785   19.9951  -30.5740 H   0  0  0  0  0  0  0  0  0  0  0  0
   -6.8271   17.8689  -32.6600 H   0  0  0  0  0  0  0  0  0  0  0  0
   -7.1729   17.6900  -30.9352 H   0  0  0  0  0  0  0  0  0  0  0  0
   -9.0595   17.8413  -33.1854 H   0  0  0  0  0  0  0  0  0  0  0  0
   -9.4398   17.5011  -31.4957 H   0  0  0  0  0  0  0  0  0  0  0  0
  -10.1795   19.8366  -32.7745 H   0  0  0  0  0  0  0  0  0  0  0  0
   -9.8888   19.7801  -31.0269 H   0  0  0  0  0  0  0  0  0  0  0  0
   -5.8371   21.9282  -32.6455 H   0  0  0  0  0  0  0  0  0  0  0  0
   -3.7247   23.1634  -32.1563 H   0  0  0  0  0  0  0  0  0  0  0  0
   -2.2347   23.0400  -31.6101 H   0  0  0  0  0  0  0  0  0  0  0  0
   -4.2863   21.0178  -32.6815 H   0  0  0  0  0  0  0  0  0  0  0  0
   -3.3341   20.7329  -34.1901 H   0  0  0  0  0  0  0  0  0  0  0  0
   -5.4197   18.8522  -32.9820 H   0  0  0  0  0  0  0  0  0  0  0  0
   -5.5983   19.9198  -34.4629 H   0  0  0  0  0  0  0  0  0  0  0  0
   -2.8859   16.9327  -34.8209 H   0  0  0  0  0  0  0  0  0  0  0  0
   -2.4988   18.6896  -35.1242 H   0  0  0  0  0  0  0  0  0  0  0  0
   -3.1521   17.4380  -32.4200 H   0  0  0  0  0  0  0  0  0  0  0  0
   -1.5138   17.9346  -33.0250 H   0  0  0  0  0  0  0  0  0  0  0  0
   -0.1305   19.6359  -29.9684 H   0  0  0  0  0  0  0  0  0  0  0  0
    0.2289   20.8758  -27.8423 H   0  0  0  0  0  0  0  0  0  0  0  0
   -0.8460   24.2580  -27.1170 H   0  0  0  0  0  0  0  0  0  0  0  0
  1  2  2  0
  2  3  1  0
  3  4  1  0
  4  5  2  0
  5  6  1  0
  6  7  2  0
  7  8  1  0
  8  9  2  0
  8 10  2  0
  8 11  1  0
 11 12  1  0
 12 13  1  0
 13 14  1  0
 14 15  1  0
  7 16  1  0
 16 17  2  0
  2 18  1  0
 18 19  2  0
 19 20  1  0
 20 21  1  0
 21 22  2  0
 21 23  2  0
 21 24  1  0
 24 25  1  0
 25 26  1  0
 26 27  1  0
 27 28  1  0
 28 29  1  0
 20 30  2  0
 30 31  1  0
 31 32  2  0
 32 33  1  0
 17  4  1  0
 32 18  1  0
 15 11  1  0
 29 24  1  0
  5 34  1  0
  6 35  1  0
 12 36  1  0
 12 37  1  0
 13 38  1  0
 13 39  1  0
 14 40  1  0
 14 41  1  0
 15 42  1  0
 15 43  1  0
 16 44  1  0
 17 45  1  0
 19 46  1  0
 25 47  1  0
 25 48  1  0
 26 49  1  0
 26 50  1  0
 28 51  1  0
 28 52  1  0
 29 53  1  0
 29 54  1  0
 30 55  1  0
 31 56  1  0
 33 57  1  0
M  CHG  1   3  -1
M  END
>  <UniqueID>  (24) 
24

>  <SMILES>  (24) 
O=C([N-]c1ccc(S(=O)(=O)N2CCCC2)cc1)c1cc(S(=O)(=O)N2CCOCC2)ccc1O

>  <Energy>  (24) 
79.79230119480223

>  <Genealogy>  (24) 
O=C([N-]c1ccc(S(=O)(=O)N2CCCC2)cc1)c1cc(S(=O)(=O)N2CCOCC2)ccc1O (protonated)
O=C([N-]c1ccc(S(=O)(=O)N2CCCC2)cc1)c1cc(S(=O)(=O)N2CCOCC2)ccc1O (3D coordinates assigned)
O=C([N-]c1ccc(S(=O)(=O)N2CCCC2)cc1)c1cc(S(=O)(=O)N2CCOCC2)ccc1O (nonaromatic ring conformer: 79.79230119480223 kcal/mol)

>  <smiles>  (24) 
O=C(Nc1ccc(S(=O)(=O)N2CCCC2)cc1)c1cc(S(=O)(=O)N2CCOCC2)ccc1O

>  <score_type>  (24) 
oracle

>  <origin>  (24) 
adgpu

>  <m_score__min__energy>  (24) 
-11.18

>  <m_primary>  (24) 
energy

$$$$
24:0
     RDKit          3D

 73 78  0  0  0  0  0  0  0  0999 V2000
   -0.1070   21.0540  -35.3120 C   0  0  0  0  0  0  0  0  0  0  0  0
   -0.3840   19.9010  -34.5220 O   0  0  0  0  0  0  0  0  0  0  0  0
   -0.6020   19.9210  -33.1370 C   0  0  0  0  0  0  0  0  0  0  0  0
    0.4100   19.5800  -32.2140 C   0  0  0  0  0  0  0  0  0  0  0  0
    0.1590   19.6250  -30.8440 C   0  0  0  0  0  0  0  0  0  0  0  0
   -1.0970   20.0130  -30.3750 C   0  0  0  0  0  0  0  0  0  0  0  0
   -2.1080   20.3530  -31.2780 C   0  0  0  0  0  0  0  0  0  0  0  0
   -1.8700   20.3010  -32.6650 C   0  0  0  0  0  0  0  0  0  0  0  0
   -2.8640   20.6180  -33.6030 O   0  0  0  0  0  0  0  0  0  0  0  0
   -3.8660   21.6130  -33.4100 C   0  0  0  0  0  0  0  0  0  0  0  0
   -5.1240   20.9700  -32.8980 C   0  0  0  0  0  0  0  0  0  0  0  0
   -5.5140   19.7820  -33.4590 N   0  0  0  0  0  0  0  0  0  0  0  0
   -6.6300   19.1880  -32.9810 C   0  0  0  0  0  0  0  0  0  0  0  0
   -7.3490   19.6920  -31.9600 C   0  0  0  0  0  0  0  0  0  0  0  0
   -8.3160   18.8150  -31.6310 N   0  0  0  0  0  0  0  0  0  0  0  0
   -8.1600   17.7860  -32.4670 N   0  0  0  0  0  0  0  0  0  0  0  0
   -7.1440   17.9980  -33.3050 N   0  0  0  0  0  0  0  0  0  0  0  0
   -6.6000   17.0100  -34.2300 C   0  0  0  0  0  0  0  0  0  0  0  0
   -5.1100   16.8960  -34.0360 C   0  0  0  0  0  0  0  0  0  0  0  0
   -4.5830   16.1710  -32.9510 C   0  0  0  0  0  0  0  0  0  0  0  0
   -3.1970   16.0240  -32.8080 C   0  0  0  0  0  0  0  0  0  0  0  0
   -2.3310   16.5890  -33.7480 C   0  0  0  0  0  0  0  0  0  0  0  0
   -2.8490   17.2980  -34.8370 C   0  0  0  0  0  0  0  0  0  0  0  0
   -4.2320   17.4500  -34.9830 C   0  0  0  0  0  0  0  0  0  0  0  0
   -6.9770   20.8850  -31.3650 C   0  0  0  0  0  0  0  0  0  0  0  0
   -7.6330   21.3480  -30.3880 O   0  0  0  0  0  0  0  0  0  0  0  0
   -5.8610   21.5280  -31.8550 N   0  0  0  0  0  0  0  0  0  0  0  0
   -5.4340   22.7520  -31.2340 C   0  0  0  0  0  0  0  0  0  0  0  0
   -6.1820   23.9290  -31.3990 C   0  0  0  0  0  0  0  0  0  0  0  0
   -5.7340   25.1300  -30.8400 C   0  0  0  0  0  0  0  0  0  0  0  0
   -4.5420   25.1570  -30.1080 C   0  0  0  0  0  0  0  0  0  0  0  0
   -3.8010   23.9790  -29.9210 C   0  0  0  0  0  0  0  0  0  0  0  0
   -2.2800   24.0240  -29.0320 S   0  0  0  0  0  0  0  0  0  0  0  0
   -1.6120   25.3540  -29.2550 O   0  0  0  0  0  0  0  0  0  0  0  0
   -1.3810   22.9410  -29.5650 O   0  0  0  0  0  0  0  0  0  0  0  0
   -2.5910   23.7630  -27.3270 N   0  0  0  0  0  0  0  0  0  0  0  0
   -3.3850   24.8770  -26.7320 C   0  0  0  0  0  0  0  0  0  0  0  0
   -2.6560   25.6410  -25.6120 C   0  0  0  0  0  0  0  0  0  0  0  0
   -1.2210   25.9480  -26.0270 C   0  0  0  0  0  0  0  0  0  0  0  0
   -0.4370   24.6680  -26.3660 C   0  0  0  0  0  0  0  0  0  0  0  0
   -1.3420   23.4410  -26.5970 C   0  0  0  0  0  0  0  0  0  0  0  0
   -4.2530   22.7770  -30.4830 C   0  0  0  0  0  0  0  0  0  0  0  0
    0.0986   21.9098  -34.6522 H   0  0  0  0  0  0  0  0  0  0  0  0
    0.7704   20.8614  -35.9468 H   0  0  0  0  0  0  0  0  0  0  0  0
   -0.9762   21.2810  -35.9468 H   0  0  0  0  0  0  0  0  0  0  0  0
    1.4027   19.2769  -32.5783 H   0  0  0  0  0  0  0  0  0  0  0  0
    0.9519   19.3543  -30.1312 H   0  0  0  0  0  0  0  0  0  0  0  0
   -1.2914   20.0512  -29.2930 H   0  0  0  0  0  0  0  0  0  0  0  0
   -3.0948   20.6628  -30.9034 H   0  0  0  0  0  0  0  0  0  0  0  0
   -3.5100   22.3539  -32.6790 H   0  0  0  0  0  0  0  0  0  0  0  0
   -4.0747   22.1114  -34.3681 H   0  0  0  0  0  0  0  0  0  0  0  0
   -7.0690   16.0335  -34.0389 H   0  0  0  0  0  0  0  0  0  0  0  0
   -6.8089   17.3254  -35.2629 H   0  0  0  0  0  0  0  0  0  0  0  0
   -5.2614   15.7183  -32.2129 H   0  0  0  0  0  0  0  0  0  0  0  0
   -2.7897   15.4627  -31.9541 H   0  0  0  0  0  0  0  0  0  0  0  0
   -1.2430   16.4763  -33.6317 H   0  0  0  0  0  0  0  0  0  0  0  0
   -2.1673   17.7370  -35.5803 H   0  0  0  0  0  0  0  0  0  0  0  0
   -4.6340   18.0057  -35.8430 H   0  0  0  0  0  0  0  0  0  0  0  0
   -7.1224   23.9062  -31.9692 H   0  0  0  0  0  0  0  0  0  0  0  0
   -6.3180   26.0522  -30.9756 H   0  0  0  0  0  0  0  0  0  0  0  0
   -4.1842   26.1040  -29.6776 H   0  0  0  0  0  0  0  0  0  0  0  0
   -3.1810   22.8990  -27.2890 H   0  0  0  0  0  0  0  0  0  0  0  0
   -3.6325   25.5903  -27.5320 H   0  0  0  0  0  0  0  0  0  0  0  0
   -4.2771   24.4223  -26.2766 H   0  0  0  0  0  0  0  0  0  0  0  0
   -3.1855   26.5842  -25.4122 H   0  0  0  0  0  0  0  0  0  0  0  0
   -2.6405   25.0179  -24.7057 H   0  0  0  0  0  0  0  0  0  0  0  0
   -1.2384   26.5998  -26.9129 H   0  0  0  0  0  0  0  0  0  0  0  0
   -0.7193   26.4421  -25.1819 H   0  0  0  0  0  0  0  0  0  0  0  0
    0.1469   24.8482  -27.2807 H   0  0  0  0  0  0  0  0  0  0  0  0
    0.2050   24.4410  -25.5021 H   0  0  0  0  0  0  0  0  0  0  0  0
   -0.7792   22.6967  -27.1794 H   0  0  0  0  0  0  0  0  0  0  0  0
   -1.6324   23.0593  -25.6071 H   0  0  0  0  0  0  0  0  0  0  0  0
   -3.6782   21.8511  -30.3335 H   0  0  0  0  0  0  0  0  0  0  0  0
  1  2  1  0
  2  3  1  0
  3  4  2  0
  4  5  1  0
  5  6  2  0
  6  7  1  0
  7  8  2  0
  8  9  1  0
  9 10  1  0
 10 11  1  0
 11 12  2  0
 12 13  1  0
 13 14  2  0
 14 15  1  0
 15 16  2  0
 16 17  1  0
 17 18  1  0
 18 19  1  0
 19 20  2  0
 20 21  1  0
 21 22  2  0
 22 23  1  0
 23 24  2  0
 14 25  1  0
 25 26  2  0
 25 27  1  0
 27 28  1  0
 28 29  2  0
 29 30  1  0
 30 31  2  0
 31 32  1  0
 32 33  1  0
 33 34  2  0
 33 35  2  0
 33 36  1  0
 36 37  1  0
 37 38  1  0
 38 39  1  0
 39 40  1  0
 40 41  1  0
 32 42  2  0
  8  3  1  0
 27 11  1  0
 42 28  1  0
 17 13  1  0
 24 19  1  0
 41 36  1  0
  1 43  1  0
  1 44  1  0
  1 45  1  0
  4 46  1  0
  5 47  1  0
  6 48  1  0
  7 49  1  0
 10 50  1  0
 10 51  1  0
 18 52  1  0
 18 53  1  0
 20 54  1  0
 21 55  1  0
 22 56  1  0
 23 57  1  0
 24 58  1  0
 29 59  1  0
 30 60  1  0
 31 61  1  0
 36 62  1  0
 37 63  1  0
 37 64  1  0
 38 65  1  0
 38 66  1  0
 39 67  1  0
 39 68  1  0
 40 69  1  0
 40 70  1  0
 41 71  1  0
 41 72  1  0
 42 73  1  0
M  CHG  1  36   1
M  END
>  <UniqueID>  (25) 
25

>  <SMILES>  (25) 
COc1ccccc1OCc1nc2c(nnn2Cc2ccccc2)c(=O)n1-c1cccc(S(=O)(=O)[NH+]2CCCCC2)c1

>  <Energy>  (25) 
139.45439090468588

>  <Genealogy>  (25) 
COc1ccccc1OCc1nc2c(nnn2Cc2ccccc2)c(=O)n1-c1cccc(S(=O)(=O)[NH+]2CCCCC2)c1 (protonated)
COc1ccccc1OCc1nc2c(nnn2Cc2ccccc2)c(=O)n1-c1cccc(S(=O)(=O)[NH+]2CCCCC2)c1 (3D coordinates assigned)
COc1ccccc1OCc1nc2c(nnn2Cc2ccccc2)c(=O)n1-c1cccc(S(=O)(=O)[NH+]2CCCCC2)c1 (nonaromatic ring conformer: 139.45439090468588 kcal/mol)

>  <smiles>  (25) 
COc1ccccc1OCc1nc2c(nnn2Cc2ccccc2)c(=O)n1-c1cccc(S(=O)(=O)N2CCCCC2)c1

>  <score_type>  (25) 
oracle

>  <origin>  (25) 
adgpu

>  <m_score__min__energy>  (25) 
-11.199999999999999

>  <m_primary>  (25) 
energy

$$$$
25:0
     RDKit          3D

 46 48  0  0  0  0  0  0  0  0999 V2000
   -7.5220   19.4040  -32.7490 C   0  0  0  0  0  0  0  0  0  0  0  0
   -6.5760   20.5500  -32.5910 C   0  0  0  0  0  0  0  0  0  0  0  0
   -5.2810   20.4770  -33.1230 C   0  0  0  0  0  0  0  0  0  0  0  0
   -4.4010   21.5570  -32.9560 C   0  0  0  0  0  0  0  0  0  0  0  0
   -2.9950   21.4800  -33.4860 C   0  0  0  0  0  0  0  0  0  0  0  0
   -2.0610   20.9730  -32.4160 C   0  0  0  0  0  0  0  0  0  0  0  0
   -2.5870   20.4530  -31.2230 C   0  0  0  0  0  0  0  0  0  0  0  0
   -1.7370   20.0270  -30.2000 C   0  0  0  0  0  0  0  0  0  0  0  0
   -0.3460   20.1310  -30.3450 C   0  0  0  0  0  0  0  0  0  0  0  0
    0.5600   19.6950  -29.2680 C   0  0  0  0  0  0  0  0  0  0  0  0
    1.7170   19.2980  -29.5680 O   0  0  0  0  0  0  0  0  0  0  0  0
    0.1840   19.7350  -27.8850 N   0  0  0  0  0  0  0  0  0  0  0  0
   -1.0330   20.3390  -27.3380 C   0  0  0  0  0  0  0  0  0  0  0  0
   -0.8160   21.8080  -26.9550 C   0  0  0  0  0  0  0  0  0  0  0  0
   -1.5820   22.7390  -27.8590 C   0  0  0  0  0  0  0  0  0  0  0  0
   -2.8010   22.3360  -28.4280 C   0  0  0  0  0  0  0  0  0  0  0  0
   -3.4950   23.1920  -29.2880 C   0  0  0  0  0  0  0  0  0  0  0  0
   -2.9750   24.4540  -29.5930 C   0  0  0  0  0  0  0  0  0  0  0  0
   -3.6700   25.2990  -30.4490 O   0  0  0  0  0  0  0  0  0  0  0  0
   -1.7570   24.8610  -29.0360 C   0  0  0  0  0  0  0  0  0  0  0  0
   -1.2340   26.1120  -29.3380 O   0  0  0  0  0  0  0  0  0  0  0  0
   -1.0600   24.0060  -28.1740 C   0  0  0  0  0  0  0  0  0  0  0  0
    0.1840   20.6300  -31.5440 C   0  0  0  0  0  0  0  0  0  0  0  0
   -0.6630   21.0610  -32.5700 C   0  0  0  0  0  0  0  0  0  0  0  0
   -0.1080   21.5760  -33.7370 O   0  0  0  0  0  0  0  0  0  0  0  0
   -4.8330   22.6860  -32.2430 C   0  0  0  0  0  0  0  0  0  0  0  0
   -6.1290   22.7190  -31.7250 C   0  0  0  0  0  0  0  0  0  0  0  0
   -6.9640   21.6610  -31.9070 N   0  0  0  0  0  0  0  0  0  0  0  0
   -7.8239   19.0383  -31.7565 H   0  0  0  0  0  0  0  0  0  0  0  0
   -8.4119   19.7369  -33.3034 H   0  0  0  0  0  0  0  0  0  0  0  0
   -7.0266   18.5933  -33.3034 H   0  0  0  0  0  0  0  0  0  0  0  0
   -4.9567   19.5783  -33.6681 H   0  0  0  0  0  0  0  0  0  0  0  0
   -2.9681   20.7947  -34.3460 H   0  0  0  0  0  0  0  0  0  0  0  0
   -2.6732   22.4852  -33.7959 H   0  0  0  0  0  0  0  0  0  0  0  0
   -3.6769   20.3805  -31.0929 H   0  0  0  0  0  0  0  0  0  0  0  0
   -2.1608   19.6077  -29.2756 H   0  0  0  0  0  0  0  0  0  0  0  0
   -1.8299   20.2820  -28.0941 H   0  0  0  0  0  0  0  0  0  0  0  0
   -1.3110   19.7857  -26.4289 H   0  0  0  0  0  0  0  0  0  0  0  0
   -1.1531   21.9598  -25.9190 H   0  0  0  0  0  0  0  0  0  0  0  0
    0.2555   22.0345  -27.0583 H   0  0  0  0  0  0  0  0  0  0  0  0
   -3.2116   21.3422  -28.1959 H   0  0  0  0  0  0  0  0  0  0  0  0
   -4.4522   22.8724  -29.7258 H   0  0  0  0  0  0  0  0  0  0  0  0
   -0.1007   24.3265  -27.7416 H   0  0  0  0  0  0  0  0  0  0  0  0
    1.2745   20.6827  -31.6783 H   0  0  0  0  0  0  0  0  0  0  0  0
   -4.1550   23.5392  -32.0933 H   0  0  0  0  0  0  0  0  0  0  0  0
   -6.4755   23.6024  -31.1686 H   0  0  0  0  0  0  0  0  0  0  0  0
  1  2  1  0
  2  3  2  0
  3  4  1  0
  4  5  1  0
  5  6  1  0
  6  7  2  0
  7  8  1  0
  8  9  2  0
  9 10  1  0
 10 11  2  0
 10 12  1  0
 12 13  1  0
 13 14  1  0
 14 15  1  0
 15 16  2  0
 16 17  1  0
 17 18  2  0
 18 19  1  0
 18 20  1  0
 20 21  1  0
 20 22  2  0
  9 23  1  0
 23 24  2  0
 24 25  1  0
  4 26  2  0
 26 27  1  0
 27 28  2  0
 28  2  1  0
 24  6  1  0
 22 15  1  0
  1 29  1  0
  1 30  1  0
  1 31  1  0
  3 32  1  0
  5 33  1  0
  5 34  1  0
  7 35  1  0
  8 36  1  0
 13 37  1  0
 13 38  1  0
 14 39  1  0
 14 40  1  0
 16 41  1  0
 17 42  1  0
 22 43  1  0
 23 44  1  0
 26 45  1  0
 27 46  1  0
M  CHG  4  12  -1  19  -1  21  -1  25  -1
M  END
>  <UniqueID>  (26) 
26

>  <SMILES>  (26) 
Cc1cc(Cc2ccc(C(=O)[N-]CCc3ccc([O-])c([O-])c3)cc2[O-])ccn1

>  <Energy>  (26) 
48.48393487031566

>  <Genealogy>  (26) 
Cc1cc(Cc2ccc(C(=O)[N-]CCc3ccc([O-])c([O-])c3)cc2[O-])ccn1 (protonated)
Cc1cc(Cc2ccc(C(=O)[N-]CCc3ccc([O-])c([O-])c3)cc2[O-])ccn1 (3D coordinates assigned)
Cc1cc(Cc2ccc(C(=O)[N-]CCc3ccc([O-])c([O-])c3)cc2[O-])ccn1 (optimized conformer: 48.48393487031566 kcal/mol)

>  <smiles>  (26) 
Cc1cc(Cc2ccc(C(=O)NCCc3ccc(O)c(O)c3)cc2O)ccn1

>  <score_type>  (26) 
oracle

>  <origin>  (26) 
adgpu

>  <m_score__min__energy>  (26) 
-14.710000000000001

>  <m_primary>  (26) 
energy

$$$$
26:0
     RDKit          3D

 82 87  0  0  0  0  0  0  0  0999 V2000
    3.0750   14.9080  -29.2290 C   0  0  0  0  0  0  0  0  0  0  0  0
    2.3960   16.1970  -29.4420 N   0  0  0  0  0  0  0  0  0  0  0  0
    3.0130   17.2520  -28.6070 C   0  0  0  0  0  0  0  0  0  0  0  0
    2.1090   18.4940  -28.4240 C   0  0  0  0  0  0  0  0  0  0  0  0
    1.0140   18.5380  -29.4040 N   0  0  0  0  0  0  0  0  0  0  0  0
    0.4660   19.8150  -29.7900 C   0  0  0  0  0  0  0  0  0  0  0  0
    0.6380   20.8240  -29.0510 O   0  0  0  0  0  0  0  0  0  0  0  0
   -0.2960   19.9750  -31.0440 C   0  0  0  0  0  0  0  0  0  0  0  0
   -1.5830   20.5280  -31.0040 C   0  0  0  0  0  0  0  0  0  0  0  0
   -2.3410   20.6730  -32.1770 C   0  0  0  0  0  0  0  0  0  0  0  0
   -3.6980   21.2580  -32.0830 C   0  0  0  0  0  0  0  0  0  0  0  0
   -3.8480   22.5170  -31.4820 C   0  0  0  0  0  0  0  0  0  0  0  0
   -5.1150   23.0950  -31.3360 C   0  0  0  0  0  0  0  0  0  0  0  0
   -5.2710   24.6840  -30.5940 S   0  0  0  0  0  0  0  0  0  0  0  0
   -6.1890   24.5870  -29.4090 O   0  0  0  0  0  0  0  0  0  0  0  0
   -5.8630   25.6670  -31.5640 O   0  0  0  0  0  0  0  0  0  0  0  0
   -3.7080   25.2020  -30.0500 N   0  0  0  0  0  0  0  0  0  0  0  0
   -2.8420   24.4660  -29.1740 C   0  0  0  0  0  0  0  0  0  0  0  0
   -3.1910   23.1950  -28.6900 C   0  0  0  0  0  0  0  0  0  0  0  0
   -2.3000   22.4650  -27.8870 C   0  0  0  0  0  0  0  0  0  0  0  0
   -1.0340   23.0050  -27.5860 C   0  0  0  0  0  0  0  0  0  0  0  0
   -0.6970   24.2830  -28.0530 C   0  0  0  0  0  0  0  0  0  0  0  0
   -1.5870   25.0000  -28.8570 C   0  0  0  0  0  0  0  0  0  0  0  0
   -1.2200   26.2530  -29.3360 O   0  0  0  0  0  0  0  0  0  0  0  0
   -0.0710   22.2530  -26.7000 C   0  0  0  0  0  0  0  0  0  0  0  0
   -0.3260   20.8040  -26.7060 N   0  0  0  0  0  0  0  0  0  0  0  0
   -1.7300   20.5250  -26.3790 C   0  0  0  0  0  0  0  0  0  0  0  0
   -2.6650   21.0610  -27.4690 C   0  0  0  0  0  0  0  0  0  0  0  0
   -6.2410   22.4210  -31.8160 C   0  0  0  0  0  0  0  0  0  0  0  0
   -6.1030   21.1720  -32.4270 C   0  0  0  0  0  0  0  0  0  0  0  0
   -4.8390   20.5810  -32.5740 C   0  0  0  0  0  0  0  0  0  0  0  0
   -4.7290   19.3150  -33.2520 N   0  0  0  0  0  0  0  0  0  0  0  0
   -5.2930   19.1460  -34.5980 C   0  0  0  0  0  0  0  0  0  0  0  0
   -5.7420   17.6970  -34.8170 C   0  0  0  0  0  0  0  0  0  0  0  0
   -6.2960   17.1660  -33.5580 N   0  0  0  0  0  0  0  0  0  0  0  0
   -6.9870   15.8900  -33.7940 C   0  0  0  0  0  0  0  0  0  0  0  0
   -5.2460   17.0020  -32.5260 C   0  0  0  0  0  0  0  0  0  0  0  0
   -4.2040   18.1400  -32.5480 C   0  0  0  0  0  0  0  0  0  0  0  0
   -1.7970   20.2490  -33.4110 C   0  0  0  0  0  0  0  0  0  0  0  0
   -2.5270   20.3040  -34.5990 O   0  0  0  0  0  0  0  0  0  0  0  0
   -0.4940   19.7430  -33.4540 C   0  0  0  0  0  0  0  0  0  0  0  0
    0.2580   19.6080  -32.2840 C   0  0  0  0  0  0  0  0  0  0  0  0
    1.5570   19.1200  -32.3650 O   0  0  0  0  0  0  0  0  0  0  0  0
    0.2490   17.3150  -29.7000 C   0  0  0  0  0  0  0  0  0  0  0  0
    0.9580   16.0740  -29.1600 C   0  0  0  0  0  0  0  0  0  0  0  0
    3.1742   14.7197  -28.1498 H   0  0  0  0  0  0  0  0  0  0  0  0
    2.4844   14.1020  -29.6890 H   0  0  0  0  0  0  0  0  0  0  0  0
    4.0737   14.9392  -29.6890 H   0  0  0  0  0  0  0  0  0  0  0  0
    3.2308   16.8294  -27.6150 H   0  0  0  0  0  0  0  0  0  0  0  0
    3.9245   17.5857  -29.1245 H   0  0  0  0  0  0  0  0  0  0  0  0
    1.6774   18.4711  -27.4125 H   0  0  0  0  0  0  0  0  0  0  0  0
    2.7317   19.3880  -28.5757 H   0  0  0  0  0  0  0  0  0  0  0  0
   -2.0048   20.8526  -30.0414 H   0  0  0  0  0  0  0  0  0  0  0  0
   -2.9597   23.0563  -31.1213 H   0  0  0  0  0  0  0  0  0  0  0  0
   -4.1723   22.7668  -28.9424 H   0  0  0  0  0  0  0  0  0  0  0  0
    0.2743   24.7243  -27.7848 H   0  0  0  0  0  0  0  0  0  0  0  0
    0.9537   22.4338  -27.0568 H   0  0  0  0  0  0  0  0  0  0  0  0
   -0.2062   22.6154  -25.6702 H   0  0  0  0  0  0  0  0  0  0  0  0
   -0.1110   20.4220  -27.6600 H   0  0  0  0  0  0  0  0  0  0  0  0
   -1.8690   19.4376  -26.2886 H   0  0  0  0  0  0  0  0  0  0  0  0
   -1.9749   21.0250  -25.4303 H   0  0  0  0  0  0  0  0  0  0  0  0
   -2.6019   20.4013  -28.3470 H   0  0  0  0  0  0  0  0  0  0  0  0
   -3.6860   21.0828  -27.0603 H   0  0  0  0  0  0  0  0  0  0  0  0
   -7.2378   22.8745  -31.7127 H   0  0  0  0  0  0  0  0  0  0  0  0
   -6.9955   20.6461  -32.7970 H   0  0  0  0  0  0  0  0  0  0  0  0
   -6.1591   19.8142  -34.7135 H   0  0  0  0  0  0  0  0  0  0  0  0
   -4.5197   19.3935  -35.3401 H   0  0  0  0  0  0  0  0  0  0  0  0
   -6.5132   17.6652  -35.6007 H   0  0  0  0  0  0  0  0  0  0  0  0
   -4.8818   17.0865  -35.1290 H   0  0  0  0  0  0  0  0  0  0  0  0
   -7.2386   15.4254  -32.8292 H   0  0  0  0  0  0  0  0  0  0  0  0
   -7.9095   16.0726  -34.3647 H   0  0  0  0  0  0  0  0  0  0  0  0
   -6.3299   15.2173  -34.3647 H   0  0  0  0  0  0  0  0  0  0  0  0
   -5.7256   16.9836  -31.5363 H   0  0  0  0  0  0  0  0  0  0  0  0
   -4.7153   16.0624  -32.7394 H   0  0  0  0  0  0  0  0  0  0  0  0
   -3.9551   18.4208  -31.5140 H   0  0  0  0  0  0  0  0  0  0  0  0
   -3.3064   17.7853  -33.0757 H   0  0  0  0  0  0  0  0  0  0  0  0
   -2.9350   21.1600  -34.9510 H   0  0  0  0  0  0  0  0  0  0  0  0
   -0.0564   19.4481  -34.4192 H   0  0  0  0  0  0  0  0  0  0  0  0
   -0.7444   17.3918  -29.2338 H   0  0  0  0  0  0  0  0  0  0  0  0
    0.1592   17.2167  -30.7919 H   0  0  0  0  0  0  0  0  0  0  0  0
    0.7981   15.9985  -28.0743 H   0  0  0  0  0  0  0  0  0  0  0  0
    0.5557   15.1709  -29.6423 H   0  0  0  0  0  0  0  0  0  0  0  0
  1  2  1  0
  2  3  1  0
  3  4  1  0
  4  5  1  0
  5  6  1  0
  6  7  2  0
  6  8  1  0
  8  9  2  0
  9 10  1  0
 10 11  1  0
 11 12  2  0
 12 13  1  0
 13 14  1  0
 14 15  2  0
 14 16  2  0
 14 17  1  0
 17 18  1  0
 18 19  2  0
 19 20  1  0
 20 21  2  0
 21 22  1  0
 22 23  2  0
 23 24  1  0
 21 25  1  0
 25 26  1  0
 26 27  1  0
 27 28  1  0
 13 29  2  0
 29 30  1  0
 30 31  2  0
 31 32  1  0
 32 33  1  0
 33 34  1  0
 34 35  1  0
 35 36  1  0
 35 37  1  0
 37 38  1  0
 10 39  2  0
 39 40  1  0
 39 41  1  0
 41 42  2  0
 42 43  1  0
  5 44  1  0
 44 45  1  0
 45  2  1  0
 42  8  1  0
 31 11  1  0
 38 32  1  0
 23 18  1  0
 28 20  1  0
  1 46  1  0
  1 47  1  0
  1 48  1  0
  3 49  1  0
  3 50  1  0
  4 51  1  0
  4 52  1  0
  9 53  1  0
 12 54  1  0
 19 55  1  0
 22 56  1  0
 25 57  1  0
 25 58  1  0
 26 59  1  0
 27 60  1  0
 27 61  1  0
 28 62  1  0
 28 63  1  0
 29 64  1  0
 30 65  1  0
 33 66  1  0
 33 67  1  0
 34 68  1  0
 34 69  1  0
 36 70  1  0
 36 71  1  0
 36 72  1  0
 37 73  1  0
 37 74  1  0
 38 75  1  0
 38 76  1  0
 40 77  1  0
 41 78  1  0
 44 79  1  0
 44 80  1  0
 45 81  1  0
 45 82  1  0
M  CHG  3  17  -1  24  -1  43  -1
M  END
>  <UniqueID>  (27) 
27

>  <SMILES>  (27) 
CN1CCN(C(=O)c2cc(-c3cc(S(=O)(=O)[N-]c4cc5c(cc4[O-])CNCC5)ccc3N3CCN(C)CC3)c(O)cc2[O-])CC1

>  <Energy>  (27) 
124.6081377396327

>  <Genealogy>  (27) 
CN1CCN(C(=O)c2cc(-c3cc(S(=O)(=O)[N-]c4cc5c(cc4[O-])CNCC5)ccc3N3CCN(C)CC3)c(O)cc2[O-])CC1 (protonated)
CN1CCN(C(=O)c2cc(-c3cc(S(=O)(=O)[N-]c4cc5c(cc4[O-])CNCC5)ccc3N3CCN(C)CC3)c(O)cc2[O-])CC1 (3D coordinates assigned)
CN1CCN(C(=O)c2cc(-c3cc(S(=O)(=O)[N-]c4cc5c(cc4[O-])CNCC5)ccc3N3CCN(C)CC3)c(O)cc2[O-])CC1 (nonaromatic ring conformer: 124.6081377396327 kcal/mol)

>  <smiles>  (27) 
CN1CCN(C(=O)c2cc(-c3cc(S(=O)(=O)Nc4cc5c(cc4O)CNCC5)ccc3N3CCN(C)CC3)c(O)cc2O)CC1

>  <score_type>  (27) 
oracle

>  <origin>  (27) 
adgpu

>  <m_score__min__energy>  (27) 
-14.85

>  <m_primary>  (27) 
energy

$$$$
27:0
     RDKit          3D

 54 57  0  0  0  0  0  0  0  0999 V2000
   -1.2160   26.4480  -28.8970 N   0  0  0  0  0  0  0  0  0  0  0  0
   -0.8110   25.1000  -28.6760 C   0  0  0  0  0  0  0  0  0  0  0  0
    0.2920   24.8620  -28.1170 O   0  0  0  0  0  0  0  0  0  0  0  0
   -1.6700   23.9880  -29.0980 C   0  0  0  0  0  0  0  0  0  0  0  0
   -1.3120   22.6550  -29.1450 C   0  0  0  0  0  0  0  0  0  0  0  0
   -2.4270   21.9820  -29.5970 C   0  0  0  0  0  0  0  0  0  0  0  0
   -3.4010   22.9500  -29.7990 C   0  0  0  0  0  0  0  0  0  0  0  0
   -4.7850   22.7380  -30.2830 C   0  0  0  0  0  0  0  0  0  0  0  0
   -5.8460   22.7100  -29.3610 C   0  0  0  0  0  0  0  0  0  0  0  0
   -7.1580   22.5070  -29.7950 C   0  0  0  0  0  0  0  0  0  0  0  0
   -7.4330   22.3340  -31.1560 C   0  0  0  0  0  0  0  0  0  0  0  0
   -9.0900   22.0910  -31.6960 S   0  0  0  0  0  0  0  0  0  0  0  0
   -9.5200   23.2880  -32.4960 O   0  0  0  0  0  0  0  0  0  0  0  0
  -10.0150   21.9340  -30.5200 O   0  0  0  0  0  0  0  0  0  0  0  0
   -9.1920   20.6710  -32.6900 N   0  0  0  0  0  0  0  0  0  0  0  0
   -8.1860   19.6440  -32.7360 C   0  0  0  0  0  0  0  0  0  0  0  0
   -7.0860   19.8040  -33.5930 C   0  0  0  0  0  0  0  0  0  0  0  0
   -6.0940   18.8240  -33.6680 C   0  0  0  0  0  0  0  0  0  0  0  0
   -6.1880   17.6550  -32.8990 C   0  0  0  0  0  0  0  0  0  0  0  0
   -5.1180   16.5900  -32.9930 C   0  0  0  0  0  0  0  0  0  0  0  0
   -5.1910   15.7820  -34.2300 N   0  0  0  0  0  0  0  0  0  0  0  0
   -6.2280   14.7310  -34.2570 C   0  0  0  0  0  0  0  0  0  0  0  0
   -5.7120   13.3420  -33.8110 C   0  0  0  0  0  0  0  0  0  0  0  0
   -4.2630   13.1550  -33.9850 N   0  0  0  0  0  0  0  0  0  0  0  0
   -3.7490   13.9270  -35.1160 C   0  0  0  0  0  0  0  0  0  0  0  0
   -3.8950   15.4320  -34.8510 C   0  0  0  0  0  0  0  0  0  0  0  0
   -7.2710   17.5040  -32.0190 C   0  0  0  0  0  0  0  0  0  0  0  0
   -8.2670   18.4840  -31.9440 C   0  0  0  0  0  0  0  0  0  0  0  0
   -6.3810   22.3570  -32.0810 C   0  0  0  0  0  0  0  0  0  0  0  0
   -5.0670   22.5580  -31.6500 C   0  0  0  0  0  0  0  0  0  0  0  0
   -2.9140   24.1330  -29.4930 O   0  0  0  0  0  0  0  0  0  0  0  0
   -2.1620   26.7790  -28.6030 H   0  0  0  0  0  0  0  0  0  0  0  0
   -0.3379   22.2199  -28.8770 H   0  0  0  0  0  0  0  0  0  0  0  0
   -2.5248   20.8991  -29.7635 H   0  0  0  0  0  0  0  0  0  0  0  0
   -5.6412   22.8491  -28.2892 H   0  0  0  0  0  0  0  0  0  0  0  0
   -7.9790   22.4830  -29.0633 H   0  0  0  0  0  0  0  0  0  0  0  0
  -10.0350   20.5850  -33.3020 H   0  0  0  0  0  0  0  0  0  0  0  0
   -7.0045   20.7100  -34.2115 H   0  0  0  0  0  0  0  0  0  0  0  0
   -5.2320   18.9701  -34.3356 H   0  0  0  0  0  0  0  0  0  0  0  0
   -4.1346   17.0815  -32.9566 H   0  0  0  0  0  0  0  0  0  0  0  0
   -5.2743   15.9016  -32.1494 H   0  0  0  0  0  0  0  0  0  0  0  0
   -7.0452   15.0310  -33.5846 H   0  0  0  0  0  0  0  0  0  0  0  0
   -6.5610   14.6322  -35.3007 H   0  0  0  0  0  0  0  0  0  0  0  0
   -5.9518   13.2102  -32.7456 H   0  0  0  0  0  0  0  0  0  0  0  0
   -6.2071   12.5986  -34.4531 H   0  0  0  0  0  0  0  0  0  0  0  0
   -3.7660   13.4560  -33.1140 H   0  0  0  0  0  0  0  0  0  0  0  0
   -2.6858   13.6872  -35.2645 H   0  0  0  0  0  0  0  0  0  0  0  0
   -4.3260   13.6668  -36.0157 H   0  0  0  0  0  0  0  0  0  0  0  0
   -3.0854   15.7504  -34.1778 H   0  0  0  0  0  0  0  0  0  0  0  0
   -3.8440   15.9456  -35.8224 H   0  0  0  0  0  0  0  0  0  0  0  0
   -7.3373   16.6086  -31.3835 H   0  0  0  0  0  0  0  0  0  0  0  0
   -9.1187   18.3466  -31.2615 H   0  0  0  0  0  0  0  0  0  0  0  0
   -6.5904   22.2162  -33.1517 H   0  0  0  0  0  0  0  0  0  0  0  0
   -4.2478   22.5756  -32.3839 H   0  0  0  0  0  0  0  0  0  0  0  0
  1  2  1  0
  2  3  2  0
  2  4  1  0
  4  5  2  0
  5  6  1  0
  6  7  2  0
  7  8  1  0
  8  9  2  0
  9 10  1  0
 10 11  2  0
 11 12  1  0
 12 13  2  0
 12 14  2  0
 12 15  1  0
 15 16  1  0
 16 17  2  0
 17 18  1  0
 18 19  2  0
 19 20  1  0
 20 21  1  0
 21 22  1  0
 22 23  1  0
 23 24  1  0
 24 25  1  0
 25 26  1  0
 19 27  1  0
 27 28  2  0
 11 29  1  0
 29 30  2  0
  7 31  1  0
 31  4  1  0
 30  8  1  0
 28 16  1  0
 26 21  1  0
  1 32  1  0
  5 33  1  0
  6 34  1  0
  9 35  1  0
 10 36  1  0
 15 37  1  0
 17 38  1  0
 18 39  1  0
 20 40  1  0
 20 41  1  0
 22 42  1  0
 22 43  1  0
 23 44  1  0
 23 45  1  0
 24 46  1  0
 25 47  1  0
 25 48  1  0
 26 49  1  0
 26 50  1  0
 27 51  1  0
 28 52  1  0
 29 53  1  0
 30 54  1  0
M  CHG  1   1  -1
M  END
>  <UniqueID>  (28) 
28

>  <SMILES>  (28) 
[NH-]C(=O)c1ccc(-c2ccc(S(=O)(=O)Nc3ccc(CN4CCNCC4)cc3)cc2)o1

>  <Energy>  (28) 
99.33056989645566

>  <Genealogy>  (28) 
[NH-]C(=O)c1ccc(-c2ccc(S(=O)(=O)Nc3ccc(CN4CCNCC4)cc3)cc2)o1 (protonated)
[NH-]C(=O)c1ccc(-c2ccc(S(=O)(=O)Nc3ccc(CN4CCNCC4)cc3)cc2)o1 (3D coordinates assigned)
[NH-]C(=O)c1ccc(-c2ccc(S(=O)(=O)Nc3ccc(CN4CCNCC4)cc3)cc2)o1 (nonaromatic ring conformer: 99.33056989645566 kcal/mol)

>  <smiles>  (28) 
NC(=O)c1ccc(-c2ccc(S(=O)(=O)Nc3ccc(CN4CCNCC4)cc3)cc2)o1

>  <score_type>  (28) 
oracle

>  <origin>  (28) 
adgpu

>  <m_score__min__energy>  (28) 
-11.199999999999999

>  <m_primary>  (28) 
energy

$$$$
28:0
     RDKit          3D

 35 37  0  0  0  0  0  0  0  0999 V2000
   -9.0410   21.9340  -30.0970 O   0  0  0  0  0  0  0  0  0  0  0  0
   -8.3440   21.8800  -31.1490 C   0  0  0  0  0  0  0  0  0  0  0  0
   -7.9600   23.1620  -31.8470 C   0  0  0  0  0  0  0  0  0  0  0  0
   -6.6660   23.7290  -31.3220 C   0  0  0  0  0  0  0  0  0  0  0  0
   -6.6590   24.9360  -30.6090 C   0  0  0  0  0  0  0  0  0  0  0  0
   -5.4640   25.4420  -30.0970 C   0  0  0  0  0  0  0  0  0  0  0  0
   -4.2630   24.7480  -30.2800 C   0  0  0  0  0  0  0  0  0  0  0  0
   -3.0950   25.2890  -29.7540 O   0  0  0  0  0  0  0  0  0  0  0  0
   -4.2510   23.5240  -30.9850 C   0  0  0  0  0  0  0  0  0  0  0  0
   -3.0000   22.7510  -31.1950 C   0  0  0  0  0  0  0  0  0  0  0  0
   -2.0980   22.7240  -30.3160 O   0  0  0  0  0  0  0  0  0  0  0  0
   -2.8030   22.0400  -32.3740 O   0  0  0  0  0  0  0  0  0  0  0  0
   -5.4640   23.0240  -31.4960 C   0  0  0  0  0  0  0  0  0  0  0  0
   -7.9630   20.5520  -31.6980 C   0  0  0  0  0  0  0  0  0  0  0  0
   -8.7210   19.4000  -31.4130 C   0  0  0  0  0  0  0  0  0  0  0  0
   -8.3510   18.1560  -31.9330 C   0  0  0  0  0  0  0  0  0  0  0  0
   -7.2170   18.0380  -32.7450 C   0  0  0  0  0  0  0  0  0  0  0  0
   -6.8390   16.7920  -33.2710 C   0  0  0  0  0  0  0  0  0  0  0  0
   -5.7030   16.6870  -34.0800 C   0  0  0  0  0  0  0  0  0  0  0  0
   -5.3330   15.4520  -34.6000 O   0  0  0  0  0  0  0  0  0  0  0  0
   -4.9380   17.8210  -34.3670 C   0  0  0  0  0  0  0  0  0  0  0  0
   -5.3040   19.0670  -33.8490 C   0  0  0  0  0  0  0  0  0  0  0  0
   -6.4420   19.1850  -33.0350 C   0  0  0  0  0  0  0  0  0  0  0  0
   -6.8180   20.4300  -32.5100 C   0  0  0  0  0  0  0  0  0  0  0  0
   -7.8481   22.9603  -32.9225 H   0  0  0  0  0  0  0  0  0  0  0  0
   -8.7536   23.9002  -31.6593 H   0  0  0  0  0  0  0  0  0  0  0  0
   -7.5988   25.4859  -30.4527 H   0  0  0  0  0  0  0  0  0  0  0  0
   -5.4660   26.3937  -29.5453 H   0  0  0  0  0  0  0  0  0  0  0  0
   -5.4702   22.0675  -32.0392 H   0  0  0  0  0  0  0  0  0  0  0  0
   -9.6133   19.4796  -30.7747 H   0  0  0  0  0  0  0  0  0  0  0  0
   -8.9542   17.2654  -31.7028 H   0  0  0  0  0  0  0  0  0  0  0  0
   -7.4375   15.8969  -33.0463 H   0  0  0  0  0  0  0  0  0  0  0  0
   -4.0447   17.7328  -35.0028 H   0  0  0  0  0  0  0  0  0  0  0  0
   -4.6993   19.9565  -34.0796 H   0  0  0  0  0  0  0  0  0  0  0  0
   -6.2126   21.3206  -32.7345 H   0  0  0  0  0  0  0  0  0  0  0  0
  1  2  2  0
  2  3  1  0
  3  4  1  0
  4  5  2  0
  5  6  1  0
  6  7  2  0
  7  8  1  0
  7  9  1  0
  9 10  1  0
 10 11  2  0
 10 12  1  0
  9 13  2  0
  2 14  1  0
 14 15  2  0
 15 16  1  0
 16 17  2  0
 17 18  1  0
 18 19  2  0
 19 20  1  0
 19 21  1  0
 21 22  2  0
 22 23  1  0
 23 24  2  0
 13  4  1  0
 24 14  1  0
 23 17  1  0
  3 25  1  0
  3 26  1  0
  5 27  1  0
  6 28  1  0
 13 29  1  0
 15 30  1  0
 16 31  1  0
 18 32  1  0
 21 33  1  0
 22 34  1  0
 24 35  1  0
M  CHG  3   8  -1  12  -1  20  -1
M  END
>  <UniqueID>  (29) 
29

>  <SMILES>  (29) 
O=C(Cc1ccc([O-])c(C(=O)[O-])c1)c1ccc2cc([O-])ccc2c1

>  <Energy>  (29) 
45.45378777810824

>  <Genealogy>  (29) 
O=C(Cc1ccc([O-])c(C(=O)[O-])c1)c1ccc2cc([O-])ccc2c1 (protonated)
O=C(Cc1ccc([O-])c(C(=O)[O-])c1)c1ccc2cc([O-])ccc2c1 (3D coordinates assigned)
O=C(Cc1ccc([O-])c(C(=O)[O-])c1)c1ccc2cc([O-])ccc2c1 (optimized conformer: 45.45378777810824 kcal/mol)

>  <smiles>  (29) 
O=C(Cc1ccc(O)c(C(=O)O)c1)c1ccc2cc(O)ccc2c1

>  <score_type>  (29) 
oracle

>  <origin>  (29) 
adgpu

>  <m_score__min__energy>  (29) 
-12.6

>  <m_primary>  (29) 
energy

$$$$
29:0
     RDKit          3D

 52 56  0  0  0  0  0  0  0  0999 V2000
   -3.0270   19.2560  -33.7750 C   0  0  0  0  0  0  0  0  0  0  0  0
   -4.2940   18.8190  -34.2540 O   0  0  0  0  0  0  0  0  0  0  0  0
   -5.4890   19.0910  -33.5830 C   0  0  0  0  0  0  0  0  0  0  0  0
   -6.3980   18.0520  -33.3490 C   0  0  0  0  0  0  0  0  0  0  0  0
   -7.5960   18.3210  -32.6840 C   0  0  0  0  0  0  0  0  0  0  0  0
   -7.8740   19.6220  -32.2580 C   0  0  0  0  0  0  0  0  0  0  0  0
   -9.0350   19.9070  -31.6150 N   0  0  0  0  0  0  0  0  0  0  0  0
   -9.3110   21.1740  -31.2090 C   0  0  0  0  0  0  0  0  0  0  0  0
   -8.4230   22.1760  -31.4410 N   0  0  0  0  0  0  0  0  0  0  0  0
   -7.2380   21.9480  -32.0710 C   0  0  0  0  0  0  0  0  0  0  0  0
   -6.3150   23.1110  -32.3290 C   0  0  0  0  0  0  0  0  0  0  0  0
   -5.6990   23.5570  -31.0790 N   0  0  0  0  0  0  0  0  0  0  0  0
   -4.5020   22.9750  -30.5250 C   0  0  0  0  0  0  0  0  0  0  0  0
   -4.3890   21.5850  -30.3830 C   0  0  0  0  0  0  0  0  0  0  0  0
   -3.2470   21.0190  -29.8270 C   0  0  0  0  0  0  0  0  0  0  0  0
   -2.1890   21.8230  -29.3790 C   0  0  0  0  0  0  0  0  0  0  0  0
   -0.9580   21.1370  -28.8320 C   0  0  0  0  0  0  0  0  0  0  0  0
   -0.9100   19.6270  -29.0400 C   0  0  0  0  0  0  0  0  0  0  0  0
   -1.2070   20.1840  -27.6650 C   0  0  0  0  0  0  0  0  0  0  0  0
   -2.3260   23.2360  -29.4160 C   0  0  0  0  0  0  0  0  0  0  0  0
   -1.1180   24.3270  -28.6840 S   0  0  0  0  0  0  0  0  0  0  0  0
   -1.2440   25.6840  -29.3140 O   0  0  0  0  0  0  0  0  0  0  0  0
    0.2770   23.8150  -28.9050 O   0  0  0  0  0  0  0  0  0  0  0  0
   -1.4050   24.4760  -26.9150 C   0  0  0  0  0  0  0  0  0  0  0  0
   -2.8210   24.8300  -26.4840 C   0  0  0  0  0  0  0  0  0  0  0  0
   -1.7320   25.8910  -26.4650 C   0  0  0  0  0  0  0  0  0  0  0  0
   -3.4470   23.8000  -30.0660 C   0  0  0  0  0  0  0  0  0  0  0  0
   -3.4770   25.1800  -30.2810 O   0  0  0  0  0  0  0  0  0  0  0  0
   -6.9380   20.6440  -32.5070 C   0  0  0  0  0  0  0  0  0  0  0  0
   -5.7790   20.3530  -33.1590 N   0  0  0  0  0  0  0  0  0  0  0  0
   -3.0306   19.2548  -32.6750 H   0  0  0  0  0  0  0  0  0  0  0  0
   -2.2428   18.5764  -34.1399 H   0  0  0  0  0  0  0  0  0  0  0  0
   -2.8285   20.2745  -34.1399 H   0  0  0  0  0  0  0  0  0  0  0  0
   -6.1698   17.0304  -33.6869 H   0  0  0  0  0  0  0  0  0  0  0  0
   -8.3175   17.5122  -32.4964 H   0  0  0  0  0  0  0  0  0  0  0  0
  -10.2569   21.3894  -30.6905 H   0  0  0  0  0  0  0  0  0  0  0  0
   -5.5273   22.8004  -33.0312 H   0  0  0  0  0  0  0  0  0  0  0  0
   -6.8960   23.9408  -32.7578 H   0  0  0  0  0  0  0  0  0  0  0  0
   -6.2240   24.2720  -30.5280 H   0  0  0  0  0  0  0  0  0  0  0  0
   -5.2122   20.9353  -30.7148 H   0  0  0  0  0  0  0  0  0  0  0  0
   -3.1725   19.9252  -29.7373 H   0  0  0  0  0  0  0  0  0  0  0  0
   -0.2737   21.9765  -29.0244 H   0  0  0  0  0  0  0  0  0  0  0  0
   -1.7044   19.1262  -29.6128 H   0  0  0  0  0  0  0  0  0  0  0  0
   -0.1698   18.9234  -29.4487 H   0  0  0  0  0  0  0  0  0  0  0  0
   -2.2170   20.0882  -27.2398 H   0  0  0  0  0  0  0  0  0  0  0  0
   -0.7719   20.0526  -26.6633 H   0  0  0  0  0  0  0  0  0  0  0  0
   -0.6904   23.6929  -26.6218 H   0  0  0  0  0  0  0  0  0  0  0  0
   -3.6267   24.8819  -27.2311 H   0  0  0  0  0  0  0  0  0  0  0  0
   -3.5320   24.4315  -25.7453 H   0  0  0  0  0  0  0  0  0  0  0  0
   -1.7502   26.7108  -27.1982 H   0  0  0  0  0  0  0  0  0  0  0  0
   -1.3292   26.5782  -25.7064 H   0  0  0  0  0  0  0  0  0  0  0  0
   -2.7980   25.6730  -30.8460 H   0  0  0  0  0  0  0  0  0  0  0  0
  1  2  1  0
  2  3  1  0
  3  4  2  0
  4  5  1  0
  5  6  2  0
  6  7  1  0
  7  8  2  0
  8  9  1  0
  9 10  2  0
 10 11  1  0
 11 12  1  0
 12 13  1  0
 13 14  2  0
 14 15  1  0
 15 16  2  0
 16 17  1  0
 17 18  1  0
 18 19  1  0
 16 20  1  0
 20 21  1  0
 21 22  2  0
 21 23  2  0
 21 24  1  0
 24 25  1  0
 25 26  1  0
 20 27  2  0
 27 28  1  0
 10 29  1  0
 29 30  2  0
 30  3  1  0
 29  6  1  0
 27 13  1  0
 19 17  1  0
 26 24  1  0
  1 31  1  0
  1 32  1  0
  1 33  1  0
  4 34  1  0
  5 35  1  0
  8 36  1  0
 11 37  1  0
 11 38  1  0
 12 39  1  0
 14 40  1  0
 15 41  1  0
 17 42  1  0
 18 43  1  0
 18 44  1  0
 19 45  1  0
 19 46  1  0
 24 47  1  0
 25 48  1  0
 25 49  1  0
 26 50  1  0
 26 51  1  0
 28 52  1  0
M  END
>  <UniqueID>  (30) 
30

>  <SMILES>  (30) 
COc1ccc2ncnc(CNc3ccc(C4CC4)c(S(=O)(=O)C4CC4)c3O)c2n1

>  <Energy>  (30) 
592.8819342190602

>  <Genealogy>  (30) 
COc1ccc2ncnc(CNc3ccc(C4CC4)c(S(=O)(=O)C4CC4)c3O)c2n1 (3D coordinates assigned)
COc1ccc2ncnc(CNc3ccc(C4CC4)c(S(=O)(=O)C4CC4)c3O)c2n1 (nonaromatic ring conformer: 592.8819342190602 kcal/mol)

>  <smiles>  (30) 
COc1ccc2ncnc(CNc3ccc(C4CC4)c(S(=O)(=O)C4CC4)c3O)c2n1

>  <score_type>  (30) 
oracle

>  <origin>  (30) 
adgpu

>  <m_score__min__energy>  (30) 
-10.68

>  <m_primary>  (30) 
energy

$$$$
30:0
     RDKit          3D

 66 69  0  0  0  0  0  0  0  0999 V2000
   -5.6340   24.8000  -29.9610 C   0  0  0  0  0  0  0  0  0  0  0  0
   -6.0460   23.5750  -30.7250 C   0  0  0  0  0  0  0  0  0  0  0  0
   -5.1320   22.9280  -31.5580 C   0  0  0  0  0  0  0  0  0  0  0  0
   -5.4880   21.7630  -32.2580 C   0  0  0  0  0  0  0  0  0  0  0  0
   -4.4310   21.1150  -33.1140 C   0  0  0  0  0  0  0  0  0  0  0  0
   -6.8100   21.2450  -32.1400 C   0  0  0  0  0  0  0  0  0  0  0  0
   -7.3600   19.8420  -33.1100 S   0  0  0  0  0  0  0  0  0  0  0  0
   -8.8500   19.6540  -33.0790 O   0  0  0  0  0  0  0  0  0  0  0  0
   -6.9400   20.0540  -34.5370 O   0  0  0  0  0  0  0  0  0  0  0  0
   -6.6490   18.3820  -32.4990 N   0  0  0  0  0  0  0  0  0  0  0  0
   -6.6750   17.9600  -31.2210 C   0  0  0  0  0  0  0  0  0  0  0  0
   -6.0680   16.7660  -31.0580 N   0  0  0  0  0  0  0  0  0  0  0  0
   -5.6390   16.4380  -32.2930 C   0  0  0  0  0  0  0  0  0  0  0  0
   -4.8010   14.9310  -32.6400 S   0  0  0  0  0  0  0  0  0  0  0  0
   -5.6460   14.0290  -33.4930 O   0  0  0  0  0  0  0  0  0  0  0  0
   -4.5320   14.2270  -31.3380 O   0  0  0  0  0  0  0  0  0  0  0  0
   -3.2870   15.2820  -33.4690 C   0  0  0  0  0  0  0  0  0  0  0  0
   -3.1450   14.9610  -34.8250 C   0  0  0  0  0  0  0  0  0  0  0  0
   -1.9560   15.2550  -35.4960 C   0  0  0  0  0  0  0  0  0  0  0  0
   -0.9030   15.8730  -34.8170 C   0  0  0  0  0  0  0  0  0  0  0  0
   -1.0310   16.1920  -33.4600 C   0  0  0  0  0  0  0  0  0  0  0  0
    0.2890   16.9980  -32.6130 S   0  0  0  0  0  0  0  0  0  0  0  0
    0.4980   16.3540  -31.2700 O   0  0  0  0  0  0  0  0  0  0  0  0
    1.5500   16.8410  -33.4180 O   0  0  0  0  0  0  0  0  0  0  0  0
   -0.0730   18.6980  -32.4150 N   0  0  0  0  0  0  0  0  0  0  0  0
   -1.5210   18.9600  -32.6450 C   0  0  0  0  0  0  0  0  0  0  0  0
   -1.8110   19.5190  -34.0460 C   0  0  0  0  0  0  0  0  0  0  0  0
   -1.0600   20.8420  -34.2790 C   0  0  0  0  0  0  0  0  0  0  0  0
    0.2750   20.9100  -33.5190 C   0  0  0  0  0  0  0  0  0  0  0  0
    0.8360   19.5060  -33.2670 C   0  0  0  0  0  0  0  0  0  0  0  0
   -2.2270   15.8990  -32.7880 C   0  0  0  0  0  0  0  0  0  0  0  0
   -5.9750   17.4400  -33.1860 C   0  0  0  0  0  0  0  0  0  0  0  0
   -5.7480   17.4480  -34.6700 C   0  0  0  0  0  0  0  0  0  0  0  0
   -7.7060   21.8630  -31.2220 C   0  0  0  0  0  0  0  0  0  0  0  0
   -9.0970   21.3400  -30.9650 C   0  0  0  0  0  0  0  0  0  0  0  0
   -7.3160   23.0270  -30.5420 C   0  0  0  0  0  0  0  0  0  0  0  0
   -5.7016   24.5990  -28.8816 H   0  0  0  0  0  0  0  0  0  0  0  0
   -4.5980   25.0630  -30.2208 H   0  0  0  0  0  0  0  0  0  0  0  0
   -6.3005   25.6356  -30.2208 H   0  0  0  0  0  0  0  0  0  0  0  0
   -4.1167   23.3367  -31.6682 H   0  0  0  0  0  0  0  0  0  0  0  0
   -3.6714   20.6493  -32.4689 H   0  0  0  0  0  0  0  0  0  0  0  0
   -4.8944   20.3456  -33.7490 H   0  0  0  0  0  0  0  0  0  0  0  0
   -3.9555   21.8770  -33.7490 H   0  0  0  0  0  0  0  0  0  0  0  0
   -7.1397   18.5260  -30.4002 H   0  0  0  0  0  0  0  0  0  0  0  0
   -3.9726   14.4758  -35.3631 H   0  0  0  0  0  0  0  0  0  0  0  0
   -1.8484   14.9996  -36.5605 H   0  0  0  0  0  0  0  0  0  0  0  0
    0.0295   16.1096  -35.3503 H   0  0  0  0  0  0  0  0  0  0  0  0
    0.1370   18.9270  -31.4140 H   0  0  0  0  0  0  0  0  0  0  0  0
   -2.0725   18.0162  -32.5224 H   0  0  0  0  0  0  0  0  0  0  0  0
   -1.8400   19.7177  -31.9142 H   0  0  0  0  0  0  0  0  0  0  0  0
   -1.4891   18.7852  -34.7997 H   0  0  0  0  0  0  0  0  0  0  0  0
   -2.8910   19.7099  -34.1302 H   0  0  0  0  0  0  0  0  0  0  0  0
   -0.8577   20.9467  -35.3552 H   0  0  0  0  0  0  0  0  0  0  0  0
   -1.6974   21.6558  -33.9031 H   0  0  0  0  0  0  0  0  0  0  0  0
    0.9991   21.4851  -34.1147 H   0  0  0  0  0  0  0  0  0  0  0  0
    0.1011   21.3972  -32.5483 H   0  0  0  0  0  0  0  0  0  0  0  0
    0.9675   18.9957  -34.2326 H   0  0  0  0  0  0  0  0  0  0  0  0
    1.7974   19.6091  -32.7425 H   0  0  0  0  0  0  0  0  0  0  0  0
   -2.3341   16.1539  -31.7233 H   0  0  0  0  0  0  0  0  0  0  0  0
   -4.6680   17.4861  -34.8755 H   0  0  0  0  0  0  0  0  0  0  0  0
   -6.1732   16.5343  -35.1109 H   0  0  0  0  0  0  0  0  0  0  0  0
   -6.2364   18.3295  -35.1109 H   0  0  0  0  0  0  0  0  0  0  0  0
   -9.2698   21.2750  -29.8806 H   0  0  0  0  0  0  0  0  0  0  0  0
   -9.8340   22.0224  -31.4135 H   0  0  0  0  0  0  0  0  0  0  0  0
   -9.2018   20.3411  -31.4135 H   0  0  0  0  0  0  0  0  0  0  0  0
   -8.0224   23.5148  -29.8542 H   0  0  0  0  0  0  0  0  0  0  0  0
  1  2  1  0
  2  3  2  0
  3  4  1  0
  4  5  1  0
  4  6  2  0
  6  7  1  0
  7  8  2  0
  7  9  2  0
  7 10  1  0
 10 11  1  0
 11 12  2  0
 12 13  1  0
 13 14  1  0
 14 15  2  0
 14 16  2  0
 14 17  1  0
 17 18  2  0
 18 19  1  0
 19 20  2  0
 20 21  1  0
 21 22  1  0
 22 23  2  0
 22 24  2  0
 22 25  1  0
 25 26  1  0
 26 27  1  0
 27 28  1  0
 28 29  1  0
 29 30  1  0
 21 31  2  0
 13 32  2  0
 32 33  1  0
  6 34  1  0
 34 35  1  0
 34 36  2  0
 36  2  1  0
 32 10  1  0
 31 17  1  0
 30 25  1  0
  1 37  1  0
  1 38  1  0
  1 39  1  0
  3 40  1  0
  5 41  1  0
  5 42  1  0
  5 43  1  0
 11 44  1  0
 18 45  1  0
 19 46  1  0
 20 47  1  0
 25 48  1  0
 26 49  1  0
 26 50  1  0
 27 51  1  0
 27 52  1  0
 28 53  1  0
 28 54  1  0
 29 55  1  0
 29 56  1  0
 30 57  1  0
 30 58  1  0
 31 59  1  0
 33 60  1  0
 33 61  1  0
 33 62  1  0
 35 63  1  0
 35 64  1  0
 35 65  1  0
 36 66  1  0
M  CHG  1  25   1
M  END
>  <UniqueID>  (31) 
31

>  <SMILES>  (31) 
Cc1cc(C)c(S(=O)(=O)n2cnc(S(=O)(=O)c3cccc(S(=O)(=O)[NH+]4CCCCC4)c3)c2C)c(C)c1

>  <Energy>  (31) 
110.6425334846729

>  <Genealogy>  (31) 
Cc1cc(C)c(S(=O)(=O)n2cnc(S(=O)(=O)c3cccc(S(=O)(=O)[NH+]4CCCCC4)c3)c2C)c(C)c1 (protonated)
Cc1cc(C)c(S(=O)(=O)n2cnc(S(=O)(=O)c3cccc(S(=O)(=O)[NH+]4CCCCC4)c3)c2C)c(C)c1 (3D coordinates assigned)
Cc1cc(C)c(S(=O)(=O)n2cnc(S(=O)(=O)c3cccc(S(=O)(=O)[NH+]4CCCCC4)c3)c2C)c(C)c1 (nonaromatic ring conformer: 110.6425334846729 kcal/mol)

>  <smiles>  (31) 
Cc1cc(C)c(S(=O)(=O)n2cnc(S(=O)(=O)c3cccc(S(=O)(=O)N4CCCCC4)c3)c2C)c(C)c1

>  <score_type>  (31) 
oracle

>  <origin>  (31) 
adgpu

>  <m_score__min__energy>  (31) 
-10.76

>  <m_primary>  (31) 
energy

$$$$
31:0
     RDKit          3D

 58 62  0  0  0  0  0  0  0  0999 V2000
    0.1490   19.1610  -30.0550 C   0  0  0  0  0  0  0  0  0  0  0  0
   -0.7500   20.3640  -29.9550 C   0  0  0  0  0  0  0  0  0  0  0  0
   -1.7020   20.4170  -28.9250 C   0  0  0  0  0  0  0  0  0  0  0  0
   -2.5260   21.5350  -28.7770 C   0  0  0  0  0  0  0  0  0  0  0  0
   -2.4050   22.6230  -29.6490 C   0  0  0  0  0  0  0  0  0  0  0  0
   -3.4430   24.0360  -29.4560 S   0  0  0  0  0  0  0  0  0  0  0  0
   -4.3030   23.8560  -28.2370 O   0  0  0  0  0  0  0  0  0  0  0  0
   -2.5920   25.2590  -29.2590 O   0  0  0  0  0  0  0  0  0  0  0  0
   -4.4690   24.2200  -30.8540 N   0  0  0  0  0  0  0  0  0  0  0  0
   -5.8360   24.6150  -30.4850 C   0  0  0  0  0  0  0  0  0  0  0  0
   -6.8050   23.8380  -31.3780 C   0  0  0  0  0  0  0  0  0  0  0  0
   -5.9290   23.0080  -32.2910 C   0  0  0  0  0  0  0  0  0  0  0  0
   -4.5930   22.9550  -31.5800 C   0  0  0  0  0  0  0  0  0  0  0  0
   -1.4640   22.5750  -30.6850 C   0  0  0  0  0  0  0  0  0  0  0  0
   -0.6640   21.4400  -30.8710 C   0  0  0  0  0  0  0  0  0  0  0  0
    0.2490   21.4270  -31.9750 N   0  0  0  0  0  0  0  0  0  0  0  0
   -0.1390   21.1870  -33.3340 C   0  0  0  0  0  0  0  0  0  0  0  0
    0.3820   21.8660  -34.2640 O   0  0  0  0  0  0  0  0  0  0  0  0
   -1.1200   20.1250  -33.6520 C   0  0  0  0  0  0  0  0  0  0  0  0
   -0.6960   18.9150  -34.2740 C   0  0  0  0  0  0  0  0  0  0  0  0
   -1.6220   17.9010  -34.5840 C   0  0  0  0  0  0  0  0  0  0  0  0
   -2.9560   18.1210  -34.2600 C   0  0  0  0  0  0  0  0  0  0  0  0
   -4.0000   17.2980  -34.4570 N   0  0  0  0  0  0  0  0  0  0  0  0
   -5.0270   18.0230  -33.9430 C   0  0  0  0  0  0  0  0  0  0  0  0
   -6.4420   17.5410  -33.9310 C   0  0  0  0  0  0  0  0  0  0  0  0
   -7.2950   18.4510  -33.0920 C   0  0  0  0  0  0  0  0  0  0  0  0
   -7.3230   19.8330  -33.3490 C   0  0  0  0  0  0  0  0  0  0  0  0
   -8.1050   20.6790  -32.5570 C   0  0  0  0  0  0  0  0  0  0  0  0
   -8.8550   20.1550  -31.5010 C   0  0  0  0  0  0  0  0  0  0  0  0
   -8.8190   18.7850  -31.2290 C   0  0  0  0  0  0  0  0  0  0  0  0
   -8.0380   17.9350  -32.0180 C   0  0  0  0  0  0  0  0  0  0  0  0
   -4.6590   19.2040  -33.4720 O   0  0  0  0  0  0  0  0  0  0  0  0
   -3.3700   19.2720  -33.6630 C   0  0  0  0  0  0  0  0  0  0  0  0
   -2.4920   20.3030  -33.3430 C   0  0  0  0  0  0  0  0  0  0  0  0
    0.4093   18.8127  -29.0446 H   0  0  0  0  0  0  0  0  0  0  0  0
   -0.3721   18.3579  -30.5968 H   0  0  0  0  0  0  0  0  0  0  0  0
    1.0668   19.4332  -30.5968 H   0  0  0  0  0  0  0  0  0  0  0  0
   -1.7999   19.5711  -28.2286 H   0  0  0  0  0  0  0  0  0  0  0  0
   -3.2740   21.5605  -27.9709 H   0  0  0  0  0  0  0  0  0  0  0  0
   -6.0235   24.3715  -29.4288 H   0  0  0  0  0  0  0  0  0  0  0  0
   -5.9727   25.6980  -30.6211 H   0  0  0  0  0  0  0  0  0  0  0  0
   -7.4524   23.1887  -30.7704 H   0  0  0  0  0  0  0  0  0  0  0  0
   -7.4680   24.5086  -31.9443 H   0  0  0  0  0  0  0  0  0  0  0  0
   -6.3442   21.9971  -32.4164 H   0  0  0  0  0  0  0  0  0  0  0  0
   -5.8509   23.4354  -33.3016 H   0  0  0  0  0  0  0  0  0  0  0  0
   -4.5672   22.1081  -30.8785 H   0  0  0  0  0  0  0  0  0  0  0  0
   -3.7648   22.8167  -32.2906 H   0  0  0  0  0  0  0  0  0  0  0  0
   -1.3519   23.4368  -31.3593 H   0  0  0  0  0  0  0  0  0  0  0  0
    0.3677   18.7716  -34.5148 H   0  0  0  0  0  0  0  0  0  0  0  0
   -1.3009   16.9660  -35.0664 H   0  0  0  0  0  0  0  0  0  0  0  0
   -6.8295   17.5271  -34.9604 H   0  0  0  0  0  0  0  0  0  0  0  0
   -6.4717   16.5277  -33.5040 H   0  0  0  0  0  0  0  0  0  0  0  0
   -6.7282   20.2496  -34.1752 H   0  0  0  0  0  0  0  0  0  0  0  0
   -8.1299   21.7588  -32.7655 H   0  0  0  0  0  0  0  0  0  0  0  0
   -9.4744   20.8217  -30.8831 H   0  0  0  0  0  0  0  0  0  0  0  0
   -9.4055   18.3749  -30.3936 H   0  0  0  0  0  0  0  0  0  0  0  0
   -8.0055   16.8580  -31.7966 H   0  0  0  0  0  0  0  0  0  0  0  0
   -2.8511   21.2266  -32.8655 H   0  0  0  0  0  0  0  0  0  0  0  0
  1  2  1  0
  2  3  2  0
  3  4  1  0
  4  5  2  0
  5  6  1  0
  6  7  2  0
  6  8  2  0
  6  9  1  0
  9 10  1  0
 10 11  1  0
 11 12  1  0
 12 13  1  0
  5 14  1  0
 14 15  2  0
 15 16  1  0
 16 17  1  0
 17 18  2  0
 17 19  1  0
 19 20  2  0
 20 21  1  0
 21 22  2  0
 22 23  1  0
 23 24  2  0
 24 25  1  0
 25 26  1  0
 26 27  2  0
 27 28  1  0
 28 29  2  0
 29 30  1  0
 30 31  2  0
 24 32  1  0
 32 33  1  0
 33 34  2  0
 15  2  1  0
 34 19  1  0
 13  9  1  0
 33 22  1  0
 31 26  1  0
  1 35  1  0
  1 36  1  0
  1 37  1  0
  3 38  1  0
  4 39  1  0
 10 40  1  0
 10 41  1  0
 11 42  1  0
 11 43  1  0
 12 44  1  0
 12 45  1  0
 13 46  1  0
 13 47  1  0
 14 48  1  0
 20 49  1  0
 21 50  1  0
 25 51  1  0
 25 52  1  0
 27 53  1  0
 28 54  1  0
 29 55  1  0
 30 56  1  0
 31 57  1  0
 34 58  1  0
M  CHG  1  16  -1
M  END
>  <UniqueID>  (32) 
32

>  <SMILES>  (32) 
Cc1ccc(S(=O)(=O)N2CCCC2)cc1[N-]C(=O)c1ccc2nc(Cc3ccccc3)oc2c1

>  <Energy>  (32) 
107.00720771954217

>  <Genealogy>  (32) 
Cc1ccc(S(=O)(=O)N2CCCC2)cc1[N-]C(=O)c1ccc2nc(Cc3ccccc3)oc2c1 (protonated)
Cc1ccc(S(=O)(=O)N2CCCC2)cc1[N-]C(=O)c1ccc2nc(Cc3ccccc3)oc2c1 (3D coordinates assigned)
Cc1ccc(S(=O)(=O)N2CCCC2)cc1[N-]C(=O)c1ccc2nc(Cc3ccccc3)oc2c1 (nonaromatic ring conformer: 107.00720771954217 kcal/mol)

>  <smiles>  (32) 
Cc1ccc(S(=O)(=O)N2CCCC2)cc1NC(=O)c1ccc2nc(Cc3ccccc3)oc2c1

>  <score_type>  (32) 
oracle

>  <origin>  (32) 
adgpu

>  <m_score__min__energy>  (32) 
-11.68

>  <m_primary>  (32) 
energy

$$$$
32:0
     RDKit          3D

 67 71  0  0  0  0  0  0  0  0999 V2000
   -5.2830   15.0900  -33.2150 C   0  0  0  0  0  0  0  0  0  0  0  0
   -4.0540   15.6100  -33.8810 N   0  0  2  0  0  0  0  0  0  0  0  0
   -4.4220   16.8330  -34.6730 C   0  0  0  0  0  0  0  0  0  0  0  0
   -5.2220   17.8900  -33.9230 C   0  0  0  0  0  0  0  0  0  0  0  0
   -5.8080   18.9590  -34.6250 C   0  0  0  0  0  0  0  0  0  0  0  0
   -6.5150   19.9530  -33.9440 C   0  0  0  0  0  0  0  0  0  0  0  0
   -6.6210   19.9080  -32.5460 C   0  0  0  0  0  0  0  0  0  0  0  0
   -7.5410   21.1530  -31.7090 S   0  0  0  0  0  0  0  0  0  0  0  0
   -8.1740   20.5620  -30.4780 O   0  0  0  0  0  0  0  0  0  0  0  0
   -8.6250   21.6980  -32.5990 O   0  0  0  0  0  0  0  0  0  0  0  0
   -6.4510   22.4670  -31.2780 C   0  0  0  0  0  0  0  0  0  0  0  0
   -5.0660   22.2630  -31.2400 C   0  0  0  0  0  0  0  0  0  0  0  0
   -4.2060   23.3320  -30.9580 C   0  0  0  0  0  0  0  0  0  0  0  0
   -4.7270   24.6090  -30.7250 C   0  0  0  0  0  0  0  0  0  0  0  0
   -3.8730   25.6740  -30.4610 O   0  0  0  0  0  0  0  0  0  0  0  0
   -6.1110   24.8150  -30.7590 C   0  0  0  0  0  0  0  0  0  0  0  0
   -6.9710   23.7480  -31.0370 C   0  0  0  0  0  0  0  0  0  0  0  0
   -6.0070   18.8680  -31.8360 C   0  0  0  0  0  0  0  0  0  0  0  0
   -5.3020   17.8710  -32.5200 C   0  0  0  0  0  0  0  0  0  0  0  0
   -3.4800   14.5040  -34.7310 C   0  0  0  0  0  0  0  0  0  0  0  0
   -1.9490   14.3590  -34.6420 C   0  0  0  0  0  0  0  0  0  0  0  0
   -1.3000   15.7320  -34.5810 C   0  0  0  0  0  0  0  0  0  0  0  0
   -1.6770   16.5290  -33.2660 C   0  0  0  0  0  0  0  0  0  0  0  0
   -0.5890   16.3070  -32.1840 C   0  0  0  0  0  0  0  0  0  0  0  0
   -0.3280   15.0300  -31.6240 C   0  0  0  0  0  0  0  0  0  0  0  0
    0.6290   14.8690  -30.6160 C   0  0  0  0  0  0  0  0  0  0  0  0
    1.3200   15.9740  -30.1140 C   0  0  0  0  0  0  0  0  0  0  0  0
    1.0150   17.2500  -30.5820 C   0  0  0  0  0  0  0  0  0  0  0  0
    0.0550   17.4190  -31.5810 C   0  0  0  0  0  0  0  0  0  0  0  0
   -1.7080   18.0630  -33.4870 C   0  0  0  0  0  0  0  0  0  0  0  0
   -2.4680   18.8920  -32.6210 C   0  0  0  0  0  0  0  0  0  0  0  0
   -2.5030   20.2760  -32.7930 C   0  0  0  0  0  0  0  0  0  0  0  0
   -1.7510   20.8760  -33.8010 C   0  0  0  0  0  0  0  0  0  0  0  0
   -0.9310   20.0960  -34.6150 C   0  0  0  0  0  0  0  0  0  0  0  0
   -0.8830   18.7100  -34.4450 C   0  0  0  0  0  0  0  0  0  0  0  0
   -3.0990   15.9900  -32.7880 C   0  0  0  0  0  0  0  0  0  0  0  0
   -5.1586   15.1426  -32.1233 H   0  0  0  0  0  0  0  0  0  0  0  0
   -6.1484   15.6991  -33.5152 H   0  0  0  0  0  0  0  0  0  0  0  0
   -5.4484   14.0448  -33.5152 H   0  0  0  0  0  0  0  0  0  0  0  0
   -3.4906   17.3007  -35.0247 H   0  0  0  0  0  0  0  0  0  0  0  0
   -5.0774   16.4797  -35.4827 H   0  0  0  0  0  0  0  0  0  0  0  0
   -5.7087   19.0127  -35.7192 H   0  0  0  0  0  0  0  0  0  0  0  0
   -6.9892   20.7720  -34.5048 H   0  0  0  0  0  0  0  0  0  0  0  0
   -4.6529   21.2617  -31.4319 H   0  0  0  0  0  0  0  0  0  0  0  0
   -3.1191   23.1670  -30.9197 H   0  0  0  0  0  0  0  0  0  0  0  0
   -6.5224   25.8169  -30.5669 H   0  0  0  0  0  0  0  0  0  0  0  0
   -8.0581   23.9132  -31.0669 H   0  0  0  0  0  0  0  0  0  0  0  0
   -6.0791   18.8349  -30.7389 H   0  0  0  0  0  0  0  0  0  0  0  0
   -4.8071   17.0670  -31.9555 H   0  0  0  0  0  0  0  0  0  0  0  0
   -3.9342   13.5544  -34.4118 H   0  0  0  0  0  0  0  0  0  0  0  0
   -3.7097   14.7609  -35.7756 H   0  0  0  0  0  0  0  0  0  0  0  0
   -1.6887   13.7924  -33.7358 H   0  0  0  0  0  0  0  0  0  0  0  0
   -1.5842   13.8262  -35.5325 H   0  0  0  0  0  0  0  0  0  0  0  0
   -0.2077   15.6066  -34.6154 H   0  0  0  0  0  0  0  0  0  0  0  0
   -1.6704   16.3126  -35.4387 H   0  0  0  0  0  0  0  0  0  0  0  0
   -0.8857   14.1542  -31.9873 H   0  0  0  0  0  0  0  0  0  0  0  0
    0.8384   13.8658  -30.2164 H   0  0  0  0  0  0  0  0  0  0  0  0
    2.1017   15.8372  -29.3523 H   0  0  0  0  0  0  0  0  0  0  0  0
    1.5317   18.1262  -30.1634 H   0  0  0  0  0  0  0  0  0  0  0  0
   -0.2082   18.4358  -31.9080 H   0  0  0  0  0  0  0  0  0  0  0  0
   -3.0395   18.4351  -31.7997 H   0  0  0  0  0  0  0  0  0  0  0  0
   -3.1260   20.8954  -32.1310 H   0  0  0  0  0  0  0  0  0  0  0  0
   -1.8043   21.9640  -33.9543 H   0  0  0  0  0  0  0  0  0  0  0  0
   -0.3192   20.5737  -35.3944 H   0  0  0  0  0  0  0  0  0  0  0  0
   -0.1965   18.1115  -35.0619 H   0  0  0  0  0  0  0  0  0  0  0  0
   -2.9302   15.1007  -32.1629 H   0  0  0  0  0  0  0  0  0  0  0  0
   -3.5725   16.8278  -32.2552 H   0  0  0  0  0  0  0  0  0  0  0  0
  2  1  1  1
  2  3  1  0
  3  4  1  0
  4  5  2  0
  5  6  1  0
  6  7  2  0
  7  8  1  0
  8  9  2  0
  8 10  2  0
  8 11  1  0
 11 12  2  0
 12 13  1  0
 13 14  2  0
 14 15  1  0
 14 16  1  0
 16 17  2  0
  7 18  1  0
 18 19  2  0
  2 20  1  0
 20 21  1  0
 21 22  1  0
 22 23  1  0
 23 24  1  0
 24 25  2  0
 25 26  1  0
 26 27  2  0
 27 28  1  0
 28 29  2  0
 23 30  1  0
 30 31  2  0
 31 32  1  0
 32 33  2  0
 33 34  1  0
 34 35  2  0
 23 36  1  0
 36  2  1  0
 19  4  1  0
 29 24  1  0
 35 30  1  0
 17 11  1  0
  1 37  1  0
  1 38  1  0
  1 39  1  0
  3 40  1  0
  3 41  1  0
  5 42  1  0
  6 43  1  0
 12 44  1  0
 13 45  1  0
 16 46  1  0
 17 47  1  0
 18 48  1  0
 19 49  1  0
 20 50  1  0
 20 51  1  0
 21 52  1  0
 21 53  1  0
 22 54  1  0
 22 55  1  0
 25 56  1  0
 26 57  1  0
 27 58  1  0
 28 59  1  0
 29 60  1  0
 31 61  1  0
 32 62  1  0
 33 63  1  0
 34 64  1  0
 35 65  1  0
 36 66  1  0
 36 67  1  0
M  CHG  2   2   1  15  -1
M  END
>  <UniqueID>  (33) 
33

>  <SMILES>  (33) 
C[N@+]1(Cc2ccc(S(=O)(=O)c3ccc([O-])cc3)cc2)CCCC(c2ccccc2)(c2ccccc2)C1

>  <Energy>  (33) 
115.14819862189478

>  <Genealogy>  (33) 
C[N+]1(Cc2ccc(S(=O)(=O)c3ccc([O-])cc3)cc2)CCCC(c2ccccc2)(c2ccccc2)C1 (protonated)
C[N@+]1(Cc2ccc(S(=O)(=O)c3ccc([O-])cc3)cc2)CCCC(c2ccccc2)(c2ccccc2)C1 (chirality)
C[N@+]1(Cc2ccc(S(=O)(=O)c3ccc([O-])cc3)cc2)CCCC(c2ccccc2)(c2ccccc2)C1 (3D coordinates assigned)
C[N@+]1(Cc2ccc(S(=O)(=O)c3ccc([O-])cc3)cc2)CCCC(c2ccccc2)(c2ccccc2)C1 (nonaromatic ring conformer: 115.14819862189478 kcal/mol)

>  <smiles>  (33) 
C[N+]1(Cc2ccc(S(=O)(=O)c3ccc(O)cc3)cc2)CCCC(c2ccccc2)(c2ccccc2)C1

>  <score_type>  (33) 
oracle

>  <origin>  (33) 
adgpu

>  <m_score__min__energy>  (33) 
-11.66

>  <m_primary>  (33) 
energy

$$$$
33:0
     RDKit          3D

 42 44  0  0  0  0  0  0  0  0999 V2000
   -6.8260   20.3690  -33.0600 C   0  0  0  0  0  0  0  0  0  0  0  0
   -5.7130   21.1450  -32.6300 O   0  0  0  0  0  0  0  0  0  0  0  0
   -5.8150   22.3460  -31.9090 C   0  0  0  0  0  0  0  0  0  0  0  0
   -7.0530   22.8960  -31.5340 C   0  0  0  0  0  0  0  0  0  0  0  0
   -7.1010   24.0940  -30.8160 C   0  0  0  0  0  0  0  0  0  0  0  0
   -5.9180   24.7440  -30.4540 C   0  0  0  0  0  0  0  0  0  0  0  0
   -4.6760   24.2130  -30.8220 C   0  0  0  0  0  0  0  0  0  0  0  0
   -3.4860   24.9100  -30.4220 N   0  0  0  0  0  0  0  0  0  0  0  0
   -2.4660   24.5080  -29.0760 S   0  0  0  0  0  0  0  0  0  0  0  0
   -3.2570   24.5040  -27.7960 O   0  0  0  0  0  0  0  0  0  0  0  0
   -1.3920   25.5530  -28.9580 O   0  0  0  0  0  0  0  0  0  0  0  0
   -1.7120   22.9400  -29.3590 C   0  0  0  0  0  0  0  0  0  0  0  0
   -1.2420   22.6160  -30.6370 C   0  0  0  0  0  0  0  0  0  0  0  0
   -0.6480   21.3740  -30.8730 C   0  0  0  0  0  0  0  0  0  0  0  0
   -0.5450   20.4420  -29.8390 C   0  0  0  0  0  0  0  0  0  0  0  0
   -1.0850   20.7200  -28.5700 C   0  0  0  0  0  0  0  0  0  0  0  0
   -1.6220   21.9980  -28.3250 C   0  0  0  0  0  0  0  0  0  0  0  0
   -1.0650   19.6830  -27.5570 N   0  0  0  0  0  0  0  0  0  0  0  0
   -1.8820   19.7800  -26.3720 C   0  0  0  0  0  0  0  0  0  0  0  0
   -3.1180   18.9490  -26.2240 C   0  0  0  0  0  0  0  0  0  0  0  0
   -1.6040   20.6300  -25.4800 O   0  0  0  0  0  0  0  0  0  0  0  0
   -0.5220   18.3520  -27.8910 C   0  0  0  0  0  0  0  0  0  0  0  0
    0.5630   18.4410  -28.9660 C   0  0  0  0  0  0  0  0  0  0  0  0
    0.1080   19.2280  -30.0600 O   0  0  0  0  0  0  0  0  0  0  0  0
   -4.6330   23.0100  -31.5530 C   0  0  0  0  0  0  0  0  0  0  0  0
   -7.3697   19.9899  -32.1821 H   0  0  0  0  0  0  0  0  0  0  0  0
   -7.4979   20.9954  -33.6651 H   0  0  0  0  0  0  0  0  0  0  0  0
   -6.4705   19.5219  -33.6651 H   0  0  0  0  0  0  0  0  0  0  0  0
   -7.9866   22.3820  -31.8064 H   0  0  0  0  0  0  0  0  0  0  0  0
   -8.0726   24.5265  -30.5350 H   0  0  0  0  0  0  0  0  0  0  0  0
   -5.9630   25.6789  -29.8762 H   0  0  0  0  0  0  0  0  0  0  0  0
   -1.3407   23.3415  -31.4579 H   0  0  0  0  0  0  0  0  0  0  0  0
   -0.2614   21.1304  -31.8736 H   0  0  0  0  0  0  0  0  0  0  0  0
   -1.9732   22.2590  -27.3158 H   0  0  0  0  0  0  0  0  0  0  0  0
   -3.3357   18.8026  -25.1557 H   0  0  0  0  0  0  0  0  0  0  0  0
   -3.9645   19.4622  -26.7037 H   0  0  0  0  0  0  0  0  0  0  0  0
   -2.9622   17.9715  -26.7037 H   0  0  0  0  0  0  0  0  0  0  0  0
   -0.0900   17.9046  -26.9837 H   0  0  0  0  0  0  0  0  0  0  0  0
   -1.3433   17.7328  -28.2810 H   0  0  0  0  0  0  0  0  0  0  0  0
    1.4636   18.9033  -28.5357 H   0  0  0  0  0  0  0  0  0  0  0  0
    0.7958   17.4278  -29.3254 H   0  0  0  0  0  0  0  0  0  0  0  0
   -3.6613   22.5869  -31.8478 H   0  0  0  0  0  0  0  0  0  0  0  0
  1  2  1  0
  2  3  1  0
  3  4  2  0
  4  5  1  0
  5  6  2  0
  6  7  1  0
  7  8  1  0
  8  9  1  0
  9 10  2  0
  9 11  2  0
  9 12  1  0
 12 13  2  0
 13 14  1  0
 14 15  2  0
 15 16  1  0
 16 17  2  0
 16 18  1  0
 18 19  1  0
 19 20  1  0
 19 21  2  0
 18 22  1  0
 22 23  1  0
 23 24  1  0
  7 25  2  0
 25  3  1  0
 17 12  1  0
 24 15  1  0
  1 26  1  0
  1 27  1  0
  1 28  1  0
  4 29  1  0
  5 30  1  0
  6 31  1  0
 13 32  1  0
 14 33  1  0
 17 34  1  0
 20 35  1  0
 20 36  1  0
 20 37  1  0
 22 38  1  0
 22 39  1  0
 23 40  1  0
 23 41  1  0
 25 42  1  0
M  CHG  1   8  -1
M  END
>  <UniqueID>  (34) 
34

>  <SMILES>  (34) 
COc1cccc([N-]S(=O)(=O)c2ccc3c(c2)N(C(C)=O)CCO3)c1

>  <Energy>  (34) 
53.26197130284073

>  <Genealogy>  (34) 
COc1cccc([N-]S(=O)(=O)c2ccc3c(c2)N(C(C)=O)CCO3)c1 (protonated)
COc1cccc([N-]S(=O)(=O)c2ccc3c(c2)N(C(C)=O)CCO3)c1 (3D coordinates assigned)
COc1cccc([N-]S(=O)(=O)c2ccc3c(c2)N(C(C)=O)CCO3)c1 (nonaromatic ring conformer: 53.26197130284073 kcal/mol)

>  <smiles>  (34) 
COc1cccc(NS(=O)(=O)c2ccc3c(c2)N(C(C)=O)CCO3)c1

>  <score_type>  (34) 
oracle

>  <origin>  (34) 
adgpu

>  <m_score__min__energy>  (34) 
-9.5899999999999999

>  <m_primary>  (34) 
energy

$$$$
34:0
     RDKit          3D

 60 62  0  0  0  0  0  0  0  0999 V2000
   -6.6540   16.1590  -33.8150 C   0  0  0  0  0  0  0  0  0  0  0  0
   -5.1770   16.3320  -33.4110 C   0  0  0  0  0  0  0  0  0  0  0  0
   -4.5680   14.9820  -32.9830 C   0  0  0  0  0  0  0  0  0  0  0  0
   -4.3920   16.8680  -34.6170 C   0  0  0  0  0  0  0  0  0  0  0  0
   -5.0500   17.2990  -32.3590 O   0  0  0  0  0  0  0  0  0  0  0  0
   -6.0920   17.8350  -31.5860 C   0  0  0  0  0  0  0  0  0  0  0  0
   -6.2700   17.4500  -30.3990 O   0  0  0  0  0  0  0  0  0  0  0  0
   -6.9630   18.8330  -32.1560 N   0  0  0  0  0  0  0  0  0  0  0  0
   -7.9120   19.5860  -31.3250 C   0  0  0  0  0  0  0  0  0  0  0  0
   -7.4530   21.0460  -31.2290 C   0  0  0  0  0  0  0  0  0  0  0  0
   -7.2510   21.6460  -32.6380 C   0  0  0  0  0  0  0  0  0  0  0  0
   -6.8430   23.1400  -32.5990 C   0  0  0  0  0  0  0  0  0  0  0  0
   -5.9510   23.4780  -31.4630 N   0  0  0  0  0  0  0  0  0  0  0  0
   -6.4090   24.2670  -30.4410 C   0  0  0  0  0  0  0  0  0  0  0  0
   -7.5810   24.7330  -30.4550 O   0  0  0  0  0  0  0  0  0  0  0  0
   -5.5830   24.5720  -29.3690 C   0  0  0  0  0  0  0  0  0  0  0  0
   -4.2830   24.0870  -29.3440 C   0  0  0  0  0  0  0  0  0  0  0  0
   -3.4940   24.4520  -28.2460 O   0  0  0  0  0  0  0  0  0  0  0  0
   -3.8230   23.2980  -30.3750 N   0  0  0  0  0  0  0  0  0  0  0  0
   -2.4590   22.7250  -30.3780 C   0  0  0  0  0  0  0  0  0  0  0  0
   -2.1800   21.9790  -29.0860 C   0  0  0  0  0  0  0  0  0  0  0  0
   -2.9170   20.8150  -28.8010 C   0  0  0  0  0  0  0  0  0  0  0  0
   -2.6920   20.0970  -27.6240 C   0  0  0  0  0  0  0  0  0  0  0  0
   -1.7240   20.5270  -26.7160 C   0  0  0  0  0  0  0  0  0  0  0  0
   -0.9810   21.6770  -26.9820 C   0  0  0  0  0  0  0  0  0  0  0  0
   -1.1970   22.4090  -28.1580 C   0  0  0  0  0  0  0  0  0  0  0  0
   -0.3960   23.5890  -28.3810 C   0  0  0  0  0  0  0  0  0  0  0  0
    0.2440   24.5370  -28.5590 N   0  0  0  0  0  0  0  0  0  0  0  0
   -4.6520   23.0250  -31.4400 C   0  0  0  0  0  0  0  0  0  0  0  0
   -4.2120   22.3490  -32.4140 O   0  0  0  0  0  0  0  0  0  0  0  0
   -6.2710   20.7810  -33.4630 C   0  0  0  0  0  0  0  0  0  0  0  0
   -6.7540   19.3290  -33.5210 C   0  0  0  0  0  0  0  0  0  0  0  0
   -7.2755   16.0862  -32.9103 H   0  0  0  0  0  0  0  0  0  0  0  0
   -6.9749   17.0257  -34.4115 H   0  0  0  0  0  0  0  0  0  0  0  0
   -6.7659   15.2416  -34.4115 H   0  0  0  0  0  0  0  0  0  0  0  0
   -4.5416   14.9234  -31.8849 H   0  0  0  0  0  0  0  0  0  0  0  0
   -5.1826   14.1604  -33.3794 H   0  0  0  0  0  0  0  0  0  0  0  0
   -3.5453   14.8990  -33.3794 H   0  0  0  0  0  0  0  0  0  0  0  0
   -3.5319   17.4553  -34.2630 H   0  0  0  0  0  0  0  0  0  0  0  0
   -4.0344   16.0246  -35.2260 H   0  0  0  0  0  0  0  0  0  0  0  0
   -5.0473   17.5081  -35.2260 H   0  0  0  0  0  0  0  0  0  0  0  0
   -8.9125   19.5444  -31.7802 H   0  0  0  0  0  0  0  0  0  0  0  0
   -7.9512   19.1448  -30.3181 H   0  0  0  0  0  0  0  0  0  0  0  0
   -8.2156   21.6302  -30.6932 H   0  0  0  0  0  0  0  0  0  0  0  0
   -6.4962   21.0821  -30.6876 H   0  0  0  0  0  0  0  0  0  0  0  0
   -8.2242   21.6253  -33.1504 H   0  0  0  0  0  0  0  0  0  0  0  0
   -6.3213   23.3835  -33.5363 H   0  0  0  0  0  0  0  0  0  0  0  0
   -7.7657   23.7252  -32.4724 H   0  0  0  0  0  0  0  0  0  0  0  0
   -5.9566   25.1951  -28.5430 H   0  0  0  0  0  0  0  0  0  0  0  0
   -3.6640   25.2400  -27.6400 H   0  0  0  0  0  0  0  0  0  0  0  0
   -2.3634   22.0281  -31.2237 H   0  0  0  0  0  0  0  0  0  0  0  0
   -1.7337   23.5467  -30.4721 H   0  0  0  0  0  0  0  0  0  0  0  0
   -3.6793   20.4662  -29.5132 H   0  0  0  0  0  0  0  0  0  0  0  0
   -3.2791   19.1910  -27.4128 H   0  0  0  0  0  0  0  0  0  0  0  0
   -1.5468   19.9593  -25.7906 H   0  0  0  0  0  0  0  0  0  0  0  0
   -0.2191   22.0125  -26.2630 H   0  0  0  0  0  0  0  0  0  0  0  0
   -6.2069   21.1821  -34.4853 H   0  0  0  0  0  0  0  0  0  0  0  0
   -5.2821   20.8076  -32.9820 H   0  0  0  0  0  0  0  0  0  0  0  0
   -7.7004   19.2785  -34.0793 H   0  0  0  0  0  0  0  0  0  0  0  0
   -5.9990   18.7093  -34.0269 H   0  0  0  0  0  0  0  0  0  0  0  0
  1  2  1  0
  2  3  1  0
  2  4  1  0
  2  5  1  0
  5  6  1  0
  6  7  2  0
  6  8  1  0
  8  9  1  0
  9 10  1  0
 10 11  1  0
 11 12  1  0
 12 13  1  0
 13 14  1  0
 14 15  2  0
 14 16  1  0
 16 17  2  0
 17 18  1  0
 17 19  1  0
 19 20  1  0
 20 21  1  0
 21 22  2  0
 22 23  1  0
 23 24  2  0
 24 25  1  0
 25 26  2  0
 26 27  1  0
 27 28  3  0
 19 29  1  0
 29 30  2  0
 11 31  1  0
 31 32  1  0
 32  8  1  0
 29 13  1  0
 26 21  1  0
  1 33  1  0
  1 34  1  0
  1 35  1  0
  3 36  1  0
  3 37  1  0
  3 38  1  0
  4 39  1  0
  4 40  1  0
  4 41  1  0
  9 42  1  0
  9 43  1  0
 10 44  1  0
 10 45  1  0
 11 46  1  0
 12 47  1  0
 12 48  1  0
 16 49  1  0
 18 50  1  0
 20 51  1  0
 20 52  1  0
 22 53  1  0
 23 54  1  0
 24 55  1  0
 25 56  1  0
 31 57  1  0
 31 58  1  0
 32 59  1  0
 32 60  1  0
M  END
>  <UniqueID>  (35) 
35

>  <SMILES>  (35) 
CC(C)(C)OC(=O)N1CCC(Cn2c(=O)cc(O)n(Cc3ccccc3C#N)c2=O)CC1

>  <Energy>  (35) 
64.80624353314266

>  <Genealogy>  (35) 
CC(C)(C)OC(=O)N1CCC(Cn2c(=O)cc(O)n(Cc3ccccc3C#N)c2=O)CC1 (3D coordinates assigned)
CC(C)(C)OC(=O)N1CCC(Cn2c(=O)cc(O)n(Cc3ccccc3C#N)c2=O)CC1 (nonaromatic ring conformer: 64.80624353314266 kcal/mol)

>  <smiles>  (35) 
CC(C)(C)OC(=O)N1CCC(Cn2c(=O)cc(O)n(Cc3ccccc3C#N)c2=O)CC1

>  <score_type>  (35) 
oracle

>  <origin>  (35) 
adgpu

>  <m_score__min__energy>  (35) 
-9.2799999999999994

>  <m_primary>  (35) 
energy

$$$$
35:0
     RDKit          3D

 52 55  0  0  0  0  0  0  0  0999 V2000
   -1.2880   18.6870  -33.4070 C   0  0  0  0  0  0  0  0  0  0  0  0
   -0.8100   19.1340  -32.0520 C   0  0  0  0  0  0  0  0  0  0  0  0
   -0.2880   18.1860  -31.1580 C   0  0  0  0  0  0  0  0  0  0  0  0
    0.2100   18.5790  -29.9160 C   0  0  0  0  0  0  0  0  0  0  0  0
    0.1940   19.9300  -29.5380 C   0  0  0  0  0  0  0  0  0  0  0  0
    0.8550   20.3610  -28.2450 C   0  0  0  0  0  0  0  0  0  0  0  0
   -0.1040   20.6130  -27.1400 N   0  0  0  0  0  0  0  0  0  0  0  0
   -1.4180   19.9300  -27.2850 C   0  0  0  0  0  0  0  0  0  0  0  0
   -2.6340   20.8700  -27.4840 C   0  0  0  0  0  0  0  0  0  0  0  0
   -2.2540   22.2260  -28.0090 C   0  0  0  0  0  0  0  0  0  0  0  0
   -3.0840   22.9160  -28.9040 C   0  0  0  0  0  0  0  0  0  0  0  0
   -2.7420   24.2090  -29.3440 C   0  0  0  0  0  0  0  0  0  0  0  0
   -3.5560   24.9170  -30.2990 N   0  0  0  0  0  0  0  0  0  0  0  0
   -5.2520   24.6260  -30.5280 S   0  0  0  0  0  0  0  0  0  0  0  0
   -5.8690   25.8000  -31.2330 O   0  0  0  0  0  0  0  0  0  0  0  0
   -5.9120   24.4550  -29.1890 O   0  0  0  0  0  0  0  0  0  0  0  0
   -5.4860   23.1590  -31.4630 C   0  0  0  0  0  0  0  0  0  0  0  0
   -4.4840   22.3700  -32.0020 C   0  0  0  0  0  0  0  0  0  0  0  0
   -4.9800   21.2530  -32.6860 C   0  0  0  0  0  0  0  0  0  0  0  0
   -6.3670   21.1680  -32.6820 C   0  0  0  0  0  0  0  0  0  0  0  0
   -6.9790   22.4810  -31.8250 S   0  0  0  0  0  0  0  0  0  0  0  0
   -1.5690   24.8100  -28.8470 C   0  0  0  0  0  0  0  0  0  0  0  0
   -1.2040   26.0890  -29.2530 O   0  0  0  0  0  0  0  0  0  0  0  0
   -0.7540   24.1260  -27.9400 C   0  0  0  0  0  0  0  0  0  0  0  0
   -1.0830   22.8250  -27.5410 C   0  0  0  0  0  0  0  0  0  0  0  0
   -0.1660   22.0140  -26.6710 C   0  0  0  0  0  0  0  0  0  0  0  0
   -0.3820   20.8740  -30.4010 C   0  0  0  0  0  0  0  0  0  0  0  0
   -0.8800   20.4920  -31.6580 C   0  0  0  0  0  0  0  0  0  0  0  0
   -1.4240   21.5460  -32.5850 C   0  0  0  0  0  0  0  0  0  0  0  0
   -2.0866   17.9402  -33.2861 H   0  0  0  0  0  0  0  0  0  0  0  0
   -1.6769   19.5530  -33.9627 H   0  0  0  0  0  0  0  0  0  0  0  0
   -0.4500   18.2410  -33.9627 H   0  0  0  0  0  0  0  0  0  0  0  0
   -0.2716   17.1228  -31.4398 H   0  0  0  0  0  0  0  0  0  0  0  0
    0.6183   17.8243  -29.2278 H   0  0  0  0  0  0  0  0  0  0  0  0
    1.5490   19.5683  -27.9286 H   0  0  0  0  0  0  0  0  0  0  0  0
    1.3690   21.3121  -28.4480 H   0  0  0  0  0  0  0  0  0  0  0  0
   -1.3592   19.2612  -28.1563 H   0  0  0  0  0  0  0  0  0  0  0  0
   -1.5932   19.4024  -26.3358 H   0  0  0  0  0  0  0  0  0  0  0  0
   -3.3262   20.3999  -28.1981 H   0  0  0  0  0  0  0  0  0  0  0  0
   -3.0969   21.0192  -26.4974 H   0  0  0  0  0  0  0  0  0  0  0  0
   -4.0094   22.4435  -29.2651 H   0  0  0  0  0  0  0  0  0  0  0  0
   -3.1400   25.6990  -30.8500 H   0  0  0  0  0  0  0  0  0  0  0  0
   -3.4121   22.5964  -31.9035 H   0  0  0  0  0  0  0  0  0  0  0  0
   -4.3329   20.5130  -33.1797 H   0  0  0  0  0  0  0  0  0  0  0  0
   -6.9640   20.3764  -33.1584 H   0  0  0  0  0  0  0  0  0  0  0  0
    0.1480   24.6113  -27.5389 H   0  0  0  0  0  0  0  0  0  0  0  0
    0.8430   22.4508  -26.7040 H   0  0  0  0  0  0  0  0  0  0  0  0
   -0.5534   22.0255  -25.6415 H   0  0  0  0  0  0  0  0  0  0  0  0
   -0.4446   21.9271  -30.0895 H   0  0  0  0  0  0  0  0  0  0  0  0
   -1.8494   22.3702  -31.9937 H   0  0  0  0  0  0  0  0  0  0  0  0
   -0.6119   21.9309  -33.2194 H   0  0  0  0  0  0  0  0  0  0  0  0
   -2.2082   21.1070  -33.2194 H   0  0  0  0  0  0  0  0  0  0  0  0
  1  2  1  0
  2  3  2  0
  3  4  1  0
  4  5  2  0
  5  6  1  0
  6  7  1  0
  7  8  1  0
  8  9  1  0
  9 10  1  0
 10 11  2  0
 11 12  1  0
 12 13  1  0
 13 14  1  0
 14 15  2  0
 14 16  2  0
 14 17  1  0
 17 18  2  0
 18 19  1  0
 19 20  2  0
 20 21  1  0
 12 22  2  0
 22 23  1  0
 22 24  1  0
 24 25  2  0
 25 26  1  0
  5 27  1  0
 27 28  2  0
 28 29  1  0
 28  2  1  0
 26  7  1  0
 25 10  1  0
 21 17  1  0
  1 30  1  0
  1 31  1  0
  1 32  1  0
  3 33  1  0
  4 34  1  0
  6 35  1  0
  6 36  1  0
  8 37  1  0
  8 38  1  0
  9 39  1  0
  9 40  1  0
 11 41  1  0
 13 42  1  0
 18 43  1  0
 19 44  1  0
 20 45  1  0
 24 46  1  0
 26 47  1  0
 26 48  1  0
 27 49  1  0
 29 50  1  0
 29 51  1  0
 29 52  1  0
M  CHG  1  23  -1
M  END
>  <UniqueID>  (36) 
36

>  <SMILES>  (36) 
Cc1ccc(CN2CCc3cc(NS(=O)(=O)c4cccs4)c([O-])cc3C2)cc1C

>  <Energy>  (36) 
94.21498424276253

>  <Genealogy>  (36) 
Cc1ccc(CN2CCc3cc(NS(=O)(=O)c4cccs4)c([O-])cc3C2)cc1C (protonated)
Cc1ccc(CN2CCc3cc(NS(=O)(=O)c4cccs4)c([O-])cc3C2)cc1C (3D coordinates assigned)
Cc1ccc(CN2CCc3cc(NS(=O)(=O)c4cccs4)c([O-])cc3C2)cc1C (nonaromatic ring conformer: 94.21498424276253 kcal/mol)

>  <smiles>  (36) 
Cc1ccc(CN2CCc3cc(NS(=O)(=O)c4cccs4)c(O)cc3C2)cc1C

>  <score_type>  (36) 
oracle

>  <origin>  (36) 
adgpu

>  <m_score__min__energy>  (36) 
-12.57

>  <m_primary>  (36) 
energy

$$$$
36:0
     RDKit          3D

 45 47  0  0  0  0  0  0  0  0999 V2000
   -1.3850   18.5260  -27.0730 C   0  0  0  0  0  0  0  0  0  0  0  0
   -1.7420   19.9730  -27.0740 C   0  0  0  0  0  0  0  0  0  0  0  0
   -0.9550   20.9340  -26.5410 N   0  0  0  0  0  0  0  0  0  0  0  0
   -1.4720   22.1760  -26.7310 C   0  0  0  0  0  0  0  0  0  0  0  0
   -2.6800   22.2080  -27.4240 C   0  0  0  0  0  0  0  0  0  0  0  0
   -3.4470   23.4420  -27.8200 C   0  0  0  0  0  0  0  0  0  0  0  0
   -3.2520   23.8430  -29.2290 N   0  0  0  0  0  0  0  0  0  0  0  0
   -2.0920   23.2110  -29.9030 C   0  0  0  0  0  0  0  0  0  0  0  0
   -2.4230   22.5170  -31.2390 C   0  0  0  0  0  0  0  0  0  0  0  0
   -3.6290   21.5780  -31.1030 C   0  0  0  0  0  0  0  0  0  0  0  0
   -4.9270   22.2890  -30.9580 N   0  0  2  0  0  0  0  0  0  0  0  0
   -5.6370   22.4180  -32.2550 C   0  0  0  0  0  0  0  0  0  0  0  0
   -6.9790   21.7050  -32.2420 C   0  0  0  0  0  0  0  0  0  0  0  0
   -8.0910   22.3550  -31.6730 C   0  0  0  0  0  0  0  0  0  0  0  0
   -9.3310   21.7210  -31.6060 C   0  0  0  0  0  0  0  0  0  0  0  0
   -9.4870   20.4340  -32.1150 C   0  0  0  0  0  0  0  0  0  0  0  0
   -8.4040   19.7780  -32.7030 C   0  0  0  0  0  0  0  0  0  0  0  0
   -7.1440   20.3970  -32.7740 C   0  0  0  0  0  0  0  0  0  0  0  0
   -6.0240   19.6770  -33.4840 C   0  0  0  0  0  0  0  0  0  0  0  0
   -4.7190   23.8470  -30.1770 S   0  0  0  0  0  0  0  0  0  0  0  0
   -4.5910   24.9400  -31.2020 O   0  0  0  0  0  0  0  0  0  0  0  0
   -5.9100   24.1470  -29.3090 O   0  0  0  0  0  0  0  0  0  0  0  0
   -3.0880   20.6270  -27.8400 S   0  0  0  0  0  0  0  0  0  0  0  0
   -1.2973   18.1707  -26.0357 H   0  0  0  0  0  0  0  0  0  0  0  0
   -2.1691   17.9545  -27.5913 H   0  0  0  0  0  0  0  0  0  0  0  0
   -0.4251   18.3848  -27.5913 H   0  0  0  0  0  0  0  0  0  0  0  0
   -0.9747   23.0866  -26.3656 H   0  0  0  0  0  0  0  0  0  0  0  0
   -4.5182   23.2500  -27.6598 H   0  0  0  0  0  0  0  0  0  0  0  0
   -3.0676   24.2664  -27.1984 H   0  0  0  0  0  0  0  0  0  0  0  0
   -1.3424   23.9918  -30.0990 H   0  0  0  0  0  0  0  0  0  0  0  0
   -1.7299   22.4238  -29.2253 H   0  0  0  0  0  0  0  0  0  0  0  0
   -2.6512   23.2845  -31.9932 H   0  0  0  0  0  0  0  0  0  0  0  0
   -1.5517   21.9172  -31.5408 H   0  0  0  0  0  0  0  0  0  0  0  0
   -3.6786   20.9442  -32.0007 H   0  0  0  0  0  0  0  0  0  0  0  0
   -3.4786   20.9928  -30.1838 H   0  0  0  0  0  0  0  0  0  0  0  0
   -5.5180   21.7150  -30.3160 H   0  0  0  0  0  0  0  0  0  0  0  0
   -5.8036   23.4850  -32.4642 H   0  0  0  0  0  0  0  0  0  0  0  0
   -5.0125   21.9533  -33.0322 H   0  0  0  0  0  0  0  0  0  0  0  0
   -7.9801   23.3751  -31.2766 H   0  0  0  0  0  0  0  0  0  0  0  0
  -10.1880   22.2384  -31.1501 H   0  0  0  0  0  0  0  0  0  0  0  0
  -10.4648   19.9338  -32.0536 H   0  0  0  0  0  0  0  0  0  0  0  0
   -8.5380   18.7668  -33.1148 H   0  0  0  0  0  0  0  0  0  0  0  0
   -5.3414   19.2382  -32.7414 H   0  0  0  0  0  0  0  0  0  0  0  0
   -6.4428   18.8785  -34.1141 H   0  0  0  0  0  0  0  0  0  0  0  0
   -5.4714   20.3895  -34.1141 H   0  0  0  0  0  0  0  0  0  0  0  0
  1  2  1  0
  2  3  2  0
  3  4  1  0
  4  5  2  0
  5  6  1  0
  6  7  1  0
  7  8  1  0
  8  9  1  0
  9 10  1  0
 10 11  1  0
 11 12  1  0
 12 13  1  0
 13 14  2  0
 14 15  1  0
 15 16  2  0
 16 17  1  0
 17 18  2  0
 18 19  1  0
 11 20  1  0
 20 21  2  0
 20 22  2  0
  5 23  1  0
 23  2  1  0
 20  7  1  0
 18 13  1  0
  1 24  1  0
  1 25  1  0
  1 26  1  0
  4 27  1  0
  6 28  1  0
  6 29  1  0
  8 30  1  0
  8 31  1  0
  9 32  1  0
  9 33  1  0
 10 34  1  0
 10 35  1  0
 11 36  1  1
 12 37  1  0
 12 38  1  0
 14 39  1  0
 15 40  1  0
 16 41  1  0
 17 42  1  0
 19 43  1  0
 19 44  1  0
 19 45  1  0
M  CHG  1  11   1
M  END
>  <UniqueID>  (37) 
37

>  <SMILES>  (37) 
Cc1ncc(CN2CCC[N@H+](Cc3ccccc3C)S2(=O)=O)s1

>  <Energy>  (37) 
87.02507601906085

>  <Genealogy>  (37) 
Cc1ncc(CN2CCC[NH+](Cc3ccccc3C)S2(=O)=O)s1 (protonated)
Cc1ncc(CN2CCC[N@H+](Cc3ccccc3C)S2(=O)=O)s1 (chirality)
Cc1ncc(CN2CCC[N@H+](Cc3ccccc3C)S2(=O)=O)s1 (3D coordinates assigned)
Cc1ncc(CN2CCC[N@H+](Cc3ccccc3C)S2(=O)=O)s1 (nonaromatic ring conformer: 87.02507601906085 kcal/mol)

>  <smiles>  (37) 
Cc1ncc(CN2CCCN(Cc3ccccc3C)S2(=O)=O)s1

>  <score_type>  (37) 
oracle

>  <origin>  (37) 
adgpu

>  <m_score__min__energy>  (37) 
-8.2400000000000002

>  <m_primary>  (37) 
energy

$$$$
37:0
     RDKit          3D

 47 50  0  0  0  0  0  0  0  0999 V2000
   -0.4600   21.6640  -26.1140 O   0  0  0  0  0  0  0  0  0  0  0  0
   -1.2620   21.7220  -27.0820 C   0  0  0  0  0  0  0  0  0  0  0  0
   -1.8400   20.5540  -27.5860 C   0  0  0  0  0  0  0  0  0  0  0  0
   -2.7290   20.6340  -28.6610 C   0  0  0  0  0  0  0  0  0  0  0  0
   -3.0310   21.8820  -29.2230 C   0  0  0  0  0  0  0  0  0  0  0  0
   -3.9170   21.9990  -30.3030 C   0  0  0  0  0  0  0  0  0  0  0  0
   -4.1950   23.2590  -30.8660 C   0  0  0  0  0  0  0  0  0  0  0  0
   -5.0790   23.3920  -31.9960 N   0  0  0  0  0  0  0  0  0  0  0  0
   -6.8080   23.2960  -31.8740 S   0  0  0  0  0  0  0  0  0  0  0  0
   -7.4280   24.1250  -32.9630 O   0  0  0  0  0  0  0  0  0  0  0  0
   -7.2350   23.8380  -30.5380 O   0  0  0  0  0  0  0  0  0  0  0  0
   -7.3400   21.6270  -32.0620 C   0  0  0  0  0  0  0  0  0  0  0  0
   -8.5110   21.1820  -31.4330 C   0  0  0  0  0  0  0  0  0  0  0  0
   -8.9150   19.8500  -31.5660 C   0  0  0  0  0  0  0  0  0  0  0  0
   -8.1510   18.9570  -32.3230 C   0  0  0  0  0  0  0  0  0  0  0  0
   -6.9770   19.3940  -32.9510 C   0  0  0  0  0  0  0  0  0  0  0  0
   -6.0130   18.2730  -33.9090 S   0  0  0  0  0  0  0  0  0  0  0  0
   -6.0650   18.6840  -35.3540 O   0  0  0  0  0  0  0  0  0  0  0  0
   -6.5830   16.8860  -33.7850 O   0  0  0  0  0  0  0  0  0  0  0  0
   -4.3590   18.3110  -33.3540 N   0  0  0  0  0  0  0  0  0  0  0  0
   -3.5030   17.4530  -34.1730 C   0  0  0  0  0  0  0  0  0  0  0  0
   -2.1000   18.0300  -34.0810 C   0  0  0  0  0  0  0  0  0  0  0  0
   -2.2890   19.4750  -33.6470 C   0  0  0  0  0  0  0  0  0  0  0  0
   -3.7890   19.6530  -33.4700 C   0  0  0  0  0  0  0  0  0  0  0  0
   -6.5830   20.7330  -32.8320 C   0  0  0  0  0  0  0  0  0  0  0  0
   -3.5900   24.4050  -30.3120 C   0  0  0  0  0  0  0  0  0  0  0  0
   -3.8480   25.6640  -30.8420 O   0  0  0  0  0  0  0  0  0  0  0  0
   -2.7130   24.2900  -29.2290 C   0  0  0  0  0  0  0  0  0  0  0  0
   -2.4250   23.0370  -28.6850 C   0  0  0  0  0  0  0  0  0  0  0  0
   -1.5640   22.9280  -27.6370 N   0  0  0  0  0  0  0  0  0  0  0  0
   -1.5969   19.5785  -27.1397 H   0  0  0  0  0  0  0  0  0  0  0  0
   -3.1903   19.7207  -29.0648 H   0  0  0  0  0  0  0  0  0  0  0  0
   -4.3987   21.0994  -30.7137 H   0  0  0  0  0  0  0  0  0  0  0  0
   -4.6790   23.4300  -32.9590 H   0  0  0  0  0  0  0  0  0  0  0  0
   -9.1128   21.8814  -30.8341 H   0  0  0  0  0  0  0  0  0  0  0  0
   -9.8360   19.5041  -31.0739 H   0  0  0  0  0  0  0  0  0  0  0  0
   -8.4718   17.9099  -32.4258 H   0  0  0  0  0  0  0  0  0  0  0  0
   -3.5165   16.4231  -33.7869 H   0  0  0  0  0  0  0  0  0  0  0  0
   -3.8525   17.4209  -35.2155 H   0  0  0  0  0  0  0  0  0  0  0  0
   -1.5046   17.4791  -33.3380 H   0  0  0  0  0  0  0  0  0  0  0  0
   -1.5621   17.9558  -35.0377 H   0  0  0  0  0  0  0  0  0  0  0  0
   -1.7649   19.6632  -32.6984 H   0  0  0  0  0  0  0  0  0  0  0  0
   -1.8786   20.1799  -34.3851 H   0  0  0  0  0  0  0  0  0  0  0  0
   -3.9973   20.2337  -32.5593 H   0  0  0  0  0  0  0  0  0  0  0  0
   -4.2266   20.1974  -34.3198 H   0  0  0  0  0  0  0  0  0  0  0  0
   -5.6756   21.0845  -33.3450 H   0  0  0  0  0  0  0  0  0  0  0  0
   -2.2477   25.1914  -28.8035 H   0  0  0  0  0  0  0  0  0  0  0  0
  1  2  2  0
  2  3  1  0
  3  4  2  0
  4  5  1  0
  5  6  2  0
  6  7  1  0
  7  8  1  0
  8  9  1  0
  9 10  2  0
  9 11  2  0
  9 12  1  0
 12 13  2  0
 13 14  1  0
 14 15  2  0
 15 16  1  0
 16 17  1  0
 17 18  2  0
 17 19  2  0
 17 20  1  0
 20 21  1  0
 21 22  1  0
 22 23  1  0
 23 24  1  0
 16 25  2  0
  7 26  2  0
 26 27  1  0
 26 28  1  0
 28 29  2  0
 29 30  1  0
 30  2  1  0
 29  5  1  0
 25 12  1  0
 24 20  1  0
  3 31  1  0
  4 32  1  0
  6 33  1  0
  8 34  1  0
 13 35  1  0
 14 36  1  0
 15 37  1  0
 21 38  1  0
 21 39  1  0
 22 40  1  0
 22 41  1  0
 23 42  1  0
 23 43  1  0
 24 44  1  0
 24 45  1  0
 25 46  1  0
 28 47  1  0
M  CHG  2  27  -1  30  -1
M  END
>  <UniqueID>  (38) 
38

>  <SMILES>  (38) 
O=c1ccc2cc(NS(=O)(=O)c3cccc(S(=O)(=O)N4CCCC4)c3)c([O-])cc2[n-]1

>  <Energy>  (38) 
56.85244912497371

>  <Genealogy>  (38) 
O=c1ccc2cc(NS(=O)(=O)c3cccc(S(=O)(=O)N4CCCC4)c3)c([O-])cc2[n-]1 (protonated)
O=c1ccc2cc(NS(=O)(=O)c3cccc(S(=O)(=O)N4CCCC4)c3)c([O-])cc2[n-]1 (3D coordinates assigned)
O=c1ccc2cc(NS(=O)(=O)c3cccc(S(=O)(=O)N4CCCC4)c3)c([O-])cc2[n-]1 (nonaromatic ring conformer: 56.85244912497371 kcal/mol)

>  <smiles>  (38) 
O=c1ccc2cc(NS(=O)(=O)c3cccc(S(=O)(=O)N4CCCC4)c3)c(O)cc2[nH]1

>  <score_type>  (38) 
oracle

>  <origin>  (38) 
adgpu

>  <m_score__min__energy>  (38) 
-14.25

>  <m_primary>  (38) 
energy

$$$$
38:0
     RDKit          3D

 46 48  0  0  0  0  0  0  0  0999 V2000
    0.7330   25.2150  -27.3510 C   0  0  0  0  0  0  0  0  0  0  0  0
   -0.2000   24.3680  -28.0870 N   0  0  0  0  0  0  0  0  0  0  0  0
   -0.1040   23.0300  -28.2400 C   0  0  0  0  0  0  0  0  0  0  0  0
   -1.1040   22.5800  -29.0930 C   0  0  0  0  0  0  0  0  0  0  0  0
   -1.3570   21.1860  -29.5020 C   0  0  0  0  0  0  0  0  0  0  0  0
   -2.3510   20.5810  -29.0220 O   0  0  0  0  0  0  0  0  0  0  0  0
   -0.5140   20.4940  -30.4350 N   0  0  0  0  0  0  0  0  0  0  0  0
   -0.6280   20.5440  -31.8910 C   0  0  0  0  0  0  0  0  0  0  0  0
   -2.0730   20.4810  -32.3100 C   0  0  0  0  0  0  0  0  0  0  0  0
   -2.5160   19.4520  -33.1560 C   0  0  0  0  0  0  0  0  0  0  0  0
   -3.8600   19.3790  -33.5330 C   0  0  0  0  0  0  0  0  0  0  0  0
   -4.7750   20.3240  -33.0550 C   0  0  0  0  0  0  0  0  0  0  0  0
   -4.3490   21.3420  -32.1910 C   0  0  0  0  0  0  0  0  0  0  0  0
   -5.5040   22.5210  -31.5690 S   0  0  0  0  0  0  0  0  0  0  0  0
   -5.6360   22.3330  -30.0820 O   0  0  0  0  0  0  0  0  0  0  0  0
   -4.9940   23.9130  -31.8280 O   0  0  0  0  0  0  0  0  0  0  0  0
   -7.0620   22.3010  -32.3300 N   0  0  0  0  0  0  0  0  0  0  0  0
   -7.9710   23.4020  -31.9520 C   0  0  0  0  0  0  0  0  0  0  0  0
   -9.4410   22.9860  -32.1360 C   0  0  0  0  0  0  0  0  0  0  0  0
   -9.8290   21.8600  -31.3520 O   0  0  0  0  0  0  0  0  0  0  0  0
   -8.7420   21.0290  -30.9660 C   0  0  0  0  0  0  0  0  0  0  0  0
   -7.6210   20.9640  -32.0230 C   0  0  0  0  0  0  0  0  0  0  0  0
   -2.9980   21.4230  -31.8300 C   0  0  0  0  0  0  0  0  0  0  0  0
   -1.8310   23.7010  -29.4600 C   0  0  0  0  0  0  0  0  0  0  0  0
   -2.9290   23.7560  -30.3160 O   0  0  0  0  0  0  0  0  0  0  0  0
   -1.2420   24.7770  -28.8390 C   0  0  0  0  0  0  0  0  0  0  0  0
   -1.6430   26.1030  -28.9690 O   0  0  0  0  0  0  0  0  0  0  0  0
    0.5802   25.0762  -26.2705 H   0  0  0  0  0  0  0  0  0  0  0  0
    1.7648   24.9386  -27.6138 H   0  0  0  0  0  0  0  0  0  0  0  0
    0.5574   26.2686  -27.6138 H   0  0  0  0  0  0  0  0  0  0  0  0
    0.6529   22.3916  -27.7609 H   0  0  0  0  0  0  0  0  0  0  0  0
   -0.1858   21.4825  -32.2566 H   0  0  0  0  0  0  0  0  0  0  0  0
   -0.0958   19.6817  -32.3190 H   0  0  0  0  0  0  0  0  0  0  0  0
   -1.8024   18.7000  -33.5238 H   0  0  0  0  0  0  0  0  0  0  0  0
   -4.1989   18.5778  -34.2062 H   0  0  0  0  0  0  0  0  0  0  0  0
   -5.8309   20.2676  -33.3581 H   0  0  0  0  0  0  0  0  0  0  0  0
   -7.8000   23.6647  -30.8976 H   0  0  0  0  0  0  0  0  0  0  0  0
   -7.7658   24.2664  -32.6006 H   0  0  0  0  0  0  0  0  0  0  0  0
  -10.0787   23.8377  -31.8569 H   0  0  0  0  0  0  0  0  0  0  0  0
   -9.5591   22.6949  -33.1902 H   0  0  0  0  0  0  0  0  0  0  0  0
   -8.3175   21.4211  -30.0300 H   0  0  0  0  0  0  0  0  0  0  0  0
   -9.1370   20.0094  -30.8457 H   0  0  0  0  0  0  0  0  0  0  0  0
   -6.8132   20.3211  -31.6433 H   0  0  0  0  0  0  0  0  0  0  0  0
   -8.0540   20.5586  -32.9494 H   0  0  0  0  0  0  0  0  0  0  0  0
   -2.6586   22.2309  -31.1651 H   0  0  0  0  0  0  0  0  0  0  0  0
   -3.8740   23.6780  -29.9670 H   0  0  0  0  0  0  0  0  0  0  0  0
  1  2  1  0
  2  3  1  0
  3  4  2  0
  4  5  1  0
  5  6  2  0
  5  7  1  0
  7  8  1  0
  8  9  1  0
  9 10  2  0
 10 11  1  0
 11 12  2  0
 12 13  1  0
 13 14  1  0
 14 15  2  0
 14 16  2  0
 14 17  1  0
 17 18  1  0
 18 19  1  0
 19 20  1  0
 20 21  1  0
 21 22  1  0
 13 23  2  0
  4 24  1  0
 24 25  1  0
 24 26  2  0
 26 27  1  0
 26  2  1  0
 23  9  1  0
 22 17  1  0
  1 28  1  0
  1 29  1  0
  1 30  1  0
  3 31  1  0
  8 32  1  0
  8 33  1  0
 10 34  1  0
 11 35  1  0
 12 36  1  0
 18 37  1  0
 18 38  1  0
 19 39  1  0
 19 40  1  0
 21 41  1  0
 21 42  1  0
 22 43  1  0
 22 44  1  0
 23 45  1  0
 25 46  1  0
M  CHG  2   7  -1  27  -1
M  END
>  <UniqueID>  (39) 
39

>  <SMILES>  (39) 
Cn1cc(C(=O)[N-]Cc2cccc(S(=O)(=O)N3CCOCC3)c2)c(O)c1[O-]

>  <Energy>  (39) 
87.0496910462116

>  <Genealogy>  (39) 
Cn1cc(C(=O)[N-]Cc2cccc(S(=O)(=O)N3CCOCC3)c2)c(O)c1[O-] (protonated)
Cn1cc(C(=O)[N-]Cc2cccc(S(=O)(=O)N3CCOCC3)c2)c(O)c1[O-] (3D coordinates assigned)
Cn1cc(C(=O)[N-]Cc2cccc(S(=O)(=O)N3CCOCC3)c2)c(O)c1[O-] (nonaromatic ring conformer: 87.0496910462116 kcal/mol)

>  <smiles>  (39) 
Cn1cc(C(=O)NCc2cccc(S(=O)(=O)N3CCOCC3)c2)c(O)c1O

>  <score_type>  (39) 
oracle

>  <origin>  (39) 
adgpu

>  <m_score__min__energy>  (39) 
-12.27

>  <m_primary>  (39) 
energy

$$$$
39:0
     RDKit          3D

 67 71  0  0  0  0  0  0  0  0999 V2000
    0.3380   27.1680  -23.0820 C   0  0  0  0  0  0  0  0  0  0  0  0
   -0.3130   27.4920  -24.3600 N   0  0  0  0  0  0  0  0  0  0  0  0
    0.6310   27.2940  -25.4900 C   0  0  0  0  0  0  0  0  0  0  0  0
   -0.0880   27.0350  -26.8180 C   0  0  0  0  0  0  0  0  0  0  0  0
   -0.9760   25.8730  -26.6960 N   0  0  0  0  0  0  0  0  0  0  0  0
   -1.4860   25.2420  -27.8880 C   0  0  0  0  0  0  0  0  0  0  0  0
   -1.5980   25.9230  -28.9430 O   0  0  0  0  0  0  0  0  0  0  0  0
   -1.8880   23.8160  -27.9070 C   0  0  0  0  0  0  0  0  0  0  0  0
   -3.1870   23.4280  -27.5330 C   0  0  0  0  0  0  0  0  0  0  0  0
   -3.5530   22.0790  -27.5500 C   0  0  0  0  0  0  0  0  0  0  0  0
   -2.6260   21.1030  -27.9190 C   0  0  0  0  0  0  0  0  0  0  0  0
   -1.3190   21.4740  -28.2680 C   0  0  0  0  0  0  0  0  0  0  0  0
   -0.1140   20.2570  -28.6760 S   0  0  0  0  0  0  0  0  0  0  0  0
   -0.6190   18.8780  -28.3510 O   0  0  0  0  0  0  0  0  0  0  0  0
    1.1220   20.5390  -27.8670 O   0  0  0  0  0  0  0  0  0  0  0  0
    0.2340   20.3510  -30.3750 N   0  0  0  0  0  0  0  0  0  0  0  0
   -0.7310   20.7770  -31.3510 C   0  0  0  0  0  0  0  0  0  0  0  0
   -1.8370   21.5610  -30.9800 C   0  0  0  0  0  0  0  0  0  0  0  0
   -2.8020   21.9330  -31.9300 C   0  0  0  0  0  0  0  0  0  0  0  0
   -4.0000   22.6970  -31.5210 C   0  0  0  0  0  0  0  0  0  0  0  0
   -3.8720   23.9110  -31.2010 O   0  0  0  0  0  0  0  0  0  0  0  0
   -5.3090   22.0970  -31.5190 N   0  0  0  0  0  0  0  0  0  0  0  0
   -6.4690   22.8660  -31.0530 C   0  0  0  0  0  0  0  0  0  0  0  0
   -7.6630   22.6070  -31.9660 C   0  0  0  0  0  0  0  0  0  0  0  0
   -7.9350   21.1330  -32.0500 C   0  0  0  0  0  0  0  0  0  0  0  0
   -9.2440   20.6660  -32.2450 C   0  0  0  0  0  0  0  0  0  0  0  0
   -9.4960   19.2960  -32.3500 C   0  0  0  0  0  0  0  0  0  0  0  0
   -8.4420   18.3820  -32.2790 C   0  0  0  0  0  0  0  0  0  0  0  0
   -7.1320   18.8370  -32.1060 C   0  0  0  0  0  0  0  0  0  0  0  0
   -6.8660   20.2120  -31.9940 C   0  0  0  0  0  0  0  0  0  0  0  0
   -5.4320   20.6780  -31.8810 C   0  0  0  0  0  0  0  0  0  0  0  0
   -2.6450   21.5290  -33.2630 C   0  0  0  0  0  0  0  0  0  0  0  0
   -1.5260   20.7870  -33.6480 C   0  0  0  0  0  0  0  0  0  0  0  0
   -0.5710   20.4100  -32.6990 C   0  0  0  0  0  0  0  0  0  0  0  0
    0.5260   19.6550  -33.1000 O   0  0  0  0  0  0  0  0  0  0  0  0
   -0.9550   22.8280  -28.2610 C   0  0  0  0  0  0  0  0  0  0  0  0
   -1.5090   25.5230  -25.3710 C   0  0  0  0  0  0  0  0  0  0  0  0
   -1.6090   26.7820  -24.5000 C   0  0  0  0  0  0  0  0  0  0  0  0
   -0.3066   27.4888  -22.2504 H   0  0  0  0  0  0  0  0  0  0  0  0
    0.5036   26.0823  -23.0198 H   0  0  0  0  0  0  0  0  0  0  0  0
    1.3040   27.6905  -23.0198 H   0  0  0  0  0  0  0  0  0  0  0  0
    1.2501   28.1972  -25.5946 H   0  0  0  0  0  0  0  0  0  0  0  0
    1.2422   26.4081  -25.2630 H   0  0  0  0  0  0  0  0  0  0  0  0
   -0.6829   27.9201  -27.0876 H   0  0  0  0  0  0  0  0  0  0  0  0
    0.6610   26.8337  -27.5981 H   0  0  0  0  0  0  0  0  0  0  0  0
   -3.9186   24.1898  -27.2256 H   0  0  0  0  0  0  0  0  0  0  0  0
   -4.5758   21.7854  -27.2714 H   0  0  0  0  0  0  0  0  0  0  0  0
   -2.9202   20.0432  -27.9361 H   0  0  0  0  0  0  0  0  0  0  0  0
    1.1320   19.9250  -30.6950 H   0  0  0  0  0  0  0  0  0  0  0  0
   -1.9478   21.8864  -29.9351 H   0  0  0  0  0  0  0  0  0  0  0  0
   -6.7212   22.5603  -30.0269 H   0  0  0  0  0  0  0  0  0  0  0  0
   -6.2243   23.9383  -31.0715 H   0  0  0  0  0  0  0  0  0  0  0  0
   -8.5488   23.1184  -31.5612 H   0  0  0  0  0  0  0  0  0  0  0  0
   -7.4381   22.9905  -32.9721 H   0  0  0  0  0  0  0  0  0  0  0  0
  -10.0758   21.3824  -32.3155 H   0  0  0  0  0  0  0  0  0  0  0  0
  -10.5262   18.9363  -32.4888 H   0  0  0  0  0  0  0  0  0  0  0  0
   -8.6432   17.3036  -32.3593 H   0  0  0  0  0  0  0  0  0  0  0  0
   -6.3042   18.1143  -32.0572 H   0  0  0  0  0  0  0  0  0  0  0  0
   -4.9289   20.0760  -31.1099 H   0  0  0  0  0  0  0  0  0  0  0  0
   -4.9697   20.5530  -32.8713 H   0  0  0  0  0  0  0  0  0  0  0  0
   -3.4068   21.7976  -34.0096 H   0  0  0  0  0  0  0  0  0  0  0  0
   -1.3957   20.4983  -34.7014 H   0  0  0  0  0  0  0  0  0  0  0  0
    0.0699   23.1187  -28.5351 H   0  0  0  0  0  0  0  0  0  0  0  0
   -2.5085   25.0783  -25.4856 H   0  0  0  0  0  0  0  0  0  0  0  0
   -0.8343   24.8008  -24.8881 H   0  0  0  0  0  0  0  0  0  0  0  0
   -2.3374   27.4680  -24.9570 H   0  0  0  0  0  0  0  0  0  0  0  0
   -1.9213   26.4637  -23.4944 H   0  0  0  0  0  0  0  0  0  0  0  0
  1  2  1  0
  2  3  1  0
  3  4  1  0
  4  5  1  0
  5  6  1  0
  6  7  2  0
  6  8  1  0
  8  9  2  0
  9 10  1  0
 10 11  2  0
 11 12  1  0
 12 13  1  0
 13 14  2  0
 13 15  2  0
 13 16  1  0
 16 17  1  0
 17 18  2  0
 18 19  1  0
 19 20  1  0
 20 21  2  0
 20 22  1  0
 22 23  1  0
 23 24  1  0
 24 25  1  0
 25 26  2  0
 26 27  1  0
 27 28  2  0
 28 29  1  0
 29 30  2  0
 30 31  1  0
 19 32  2  0
 32 33  1  0
 33 34  2  0
 34 35  1  0
 12 36  2  0
  5 37  1  0
 37 38  1  0
 38  2  1  0
 36  8  1  0
 34 17  1  0
 31 22  1  0
 30 25  1  0
  1 39  1  0
  1 40  1  0
  1 41  1  0
  3 42  1  0
  3 43  1  0
  4 44  1  0
  4 45  1  0
  9 46  1  0
 10 47  1  0
 11 48  1  0
 16 49  1  0
 18 50  1  0
 23 51  1  0
 23 52  1  0
 24 53  1  0
 24 54  1  0
 26 55  1  0
 27 56  1  0
 28 57  1  0
 29 58  1  0
 31 59  1  0
 31 60  1  0
 32 61  1  0
 33 62  1  0
 36 63  1  0
 37 64  1  0
 37 65  1  0
 38 66  1  0
 38 67  1  0
M  CHG  1  35  -1
M  END
>  <UniqueID>  (40) 
40

>  <SMILES>  (40) 
CN1CCN(C(=O)c2cccc(S(=O)(=O)Nc3cc(C(=O)N4CCc5ccccc5C4)ccc3[O-])c2)CC1

>  <Energy>  (40) 
94.9617674112695

>  <Genealogy>  (40) 
CN1CCN(C(=O)c2cccc(S(=O)(=O)Nc3cc(C(=O)N4CCc5ccccc5C4)ccc3[O-])c2)CC1 (protonated)
CN1CCN(C(=O)c2cccc(S(=O)(=O)Nc3cc(C(=O)N4CCc5ccccc5C4)ccc3[O-])c2)CC1 (3D coordinates assigned)
CN1CCN(C(=O)c2cccc(S(=O)(=O)Nc3cc(C(=O)N4CCc5ccccc5C4)ccc3[O-])c2)CC1 (nonaromatic ring conformer: 94.9617674112695 kcal/mol)

>  <smiles>  (40) 
CN1CCN(C(=O)c2cccc(S(=O)(=O)Nc3cc(C(=O)N4CCc5ccccc5C4)ccc3O)c2)CC1

>  <score_type>  (40) 
oracle

>  <origin>  (40) 
adgpu

>  <m_score__min__energy>  (40) 
-15.140000000000001

>  <m_primary>  (40) 
energy

$$$$
40:0
     RDKit          3D

 50 53  0  0  0  0  0  0  0  0999 V2000
   -4.2990   25.5960  -30.8610 O   0  0  0  0  0  0  0  0  0  0  0  0
   -5.4220   24.9790  -30.0770 S   0  0  0  0  0  0  0  0  0  0  0  0
   -6.4530   26.0330  -29.7870 O   0  0  0  0  0  0  0  0  0  0  0  0
   -4.7990   24.3570  -28.5830 N   0  0  0  0  0  0  0  0  0  0  0  0
   -3.6880   23.4550  -28.4760 C   0  0  0  0  0  0  0  0  0  0  0  0
   -3.8360   22.1550  -27.9580 C   0  0  0  0  0  0  0  0  0  0  0  0
   -2.7350   21.2990  -27.8740 C   0  0  0  0  0  0  0  0  0  0  0  0
   -1.4720   21.7270  -28.3290 C   0  0  0  0  0  0  0  0  0  0  0  0
   -1.3180   23.0280  -28.8150 C   0  0  0  0  0  0  0  0  0  0  0  0
   -2.4190   23.8940  -28.8870 C   0  0  0  0  0  0  0  0  0  0  0  0
   -2.2570   25.1950  -29.3670 O   0  0  0  0  0  0  0  0  0  0  0  0
   -0.2800   20.8090  -28.2300 C   0  0  0  0  0  0  0  0  0  0  0  0
   -0.7100   19.3390  -28.1680 C   0  0  0  0  0  0  0  0  0  0  0  0
   -1.7920   19.1500  -27.1000 C   0  0  0  0  0  0  0  0  0  0  0  0
   -2.9010   20.0110  -27.3560 O   0  0  0  0  0  0  0  0  0  0  0  0
   -6.0980   23.6470  -31.0070 C   0  0  0  0  0  0  0  0  0  0  0  0
   -7.4840   23.4680  -31.1140 C   0  0  0  0  0  0  0  0  0  0  0  0
   -7.9950   22.3460  -31.7760 C   0  0  0  0  0  0  0  0  0  0  0  0
   -7.1270   21.4020  -32.3310 C   0  0  0  0  0  0  0  0  0  0  0  0
   -5.7390   21.5840  -32.2480 C   0  0  0  0  0  0  0  0  0  0  0  0
   -4.6350   20.3760  -32.9120 S   0  0  0  0  0  0  0  0  0  0  0  0
   -3.6090   21.0670  -33.7690 O   0  0  0  0  0  0  0  0  0  0  0  0
   -3.9150   19.7010  -31.7770 O   0  0  0  0  0  0  0  0  0  0  0  0
   -5.4500   19.1680  -33.8800 N   0  0  0  0  0  0  0  0  0  0  0  0
   -4.5180   18.1640  -34.3890 C   0  0  0  0  0  0  0  0  0  0  0  0
   -5.3260   16.9020  -34.6110 C   0  0  0  0  0  0  0  0  0  0  0  0
   -6.4650   16.9960  -33.6140 C   0  0  0  0  0  0  0  0  0  0  0  0
   -6.4750   18.4420  -33.1270 C   0  0  0  0  0  0  0  0  0  0  0  0
   -5.2300   22.7090  -31.5800 C   0  0  0  0  0  0  0  0  0  0  0  0
   -4.8237   21.8109  -27.6174 H   0  0  0  0  0  0  0  0  0  0  0  0
   -0.3272   23.3752  -29.1432 H   0  0  0  0  0  0  0  0  0  0  0  0
   -3.0020   25.6740  -29.8560 H   0  0  0  0  0  0  0  0  0  0  0  0
    0.3605   20.9577  -29.1119 H   0  0  0  0  0  0  0  0  0  0  0  0
    0.2663   21.0492  -27.3059 H   0  0  0  0  0  0  0  0  0  0  0  0
   -1.1087   19.0352  -29.1472 H   0  0  0  0  0  0  0  0  0  0  0  0
    0.1619   18.7201  -27.9097 H   0  0  0  0  0  0  0  0  0  0  0  0
   -2.1345   18.1048  -27.1123 H   0  0  0  0  0  0  0  0  0  0  0  0
   -1.3682   19.3979  -26.1156 H   0  0  0  0  0  0  0  0  0  0  0  0
   -8.1698   24.2092  -30.6778 H   0  0  0  0  0  0  0  0  0  0  0  0
   -9.0829   22.2068  -31.8597 H   0  0  0  0  0  0  0  0  0  0  0  0
   -7.5339   20.5129  -32.8348 H   0  0  0  0  0  0  0  0  0  0  0  0
   -4.0742   18.5030  -35.3367 H   0  0  0  0  0  0  0  0  0  0  0  0
   -3.6943   17.9901  -33.6810 H   0  0  0  0  0  0  0  0  0  0  0  0
   -5.7129   16.8647  -35.6400 H   0  0  0  0  0  0  0  0  0  0  0  0
   -4.7242   15.9918  -34.4719 H   0  0  0  0  0  0  0  0  0  0  0  0
   -7.4205   16.7492  -34.1000 H   0  0  0  0  0  0  0  0  0  0  0  0
   -6.3324   16.2898  -32.7811 H   0  0  0  0  0  0  0  0  0  0  0  0
   -7.4625   18.8920  -33.3071 H   0  0  0  0  0  0  0  0  0  0  0  0
   -6.2680   18.4884  -32.0476 H   0  0  0  0  0  0  0  0  0  0  0  0
   -4.1422   22.8547  -31.5061 H   0  0  0  0  0  0  0  0  0  0  0  0
  1  2  2  0
  2  3  2  0
  2  4  1  0
  4  5  1  0
  5  6  2  0
  6  7  1  0
  7  8  2  0
  8  9  1  0
  9 10  2  0
 10 11  1  0
  8 12  1  0
 12 13  1  0
 13 14  1  0
 14 15  1  0
  2 16  1  0
 16 17  2  0
 17 18  1  0
 18 19  2  0
 19 20  1  0
 20 21  1  0
 21 22  2  0
 21 23  2  0
 21 24  1  0
 24 25  1  0
 25 26  1  0
 26 27  1  0
 27 28  1  0
 20 29  2  0
 10  5  1  0
 29 16  1  0
 15  7  1  0
 28 24  1  0
  6 30  1  0
  9 31  1  0
 11 32  1  0
 12 33  1  0
 12 34  1  0
 13 35  1  0
 13 36  1  0
 14 37  1  0
 14 38  1  0
 17 39  1  0
 18 40  1  0
 19 41  1  0
 25 42  1  0
 25 43  1  0
 26 44  1  0
 26 45  1  0
 27 46  1  0
 27 47  1  0
 28 48  1  0
 28 49  1  0
 29 50  1  0
M  CHG  1   4  -1
M  END
>  <UniqueID>  (41) 
41

>  <SMILES>  (41) 
O=S(=O)([N-]c1cc2c(cc1O)CCCO2)c1cccc(S(=O)(=O)N2CCCC2)c1

>  <Energy>  (41) 
56.19638831836565

>  <Genealogy>  (41) 
O=S(=O)([N-]c1cc2c(cc1O)CCCO2)c1cccc(S(=O)(=O)N2CCCC2)c1 (protonated)
O=S(=O)([N-]c1cc2c(cc1O)CCCO2)c1cccc(S(=O)(=O)N2CCCC2)c1 (3D coordinates assigned)
O=S(=O)([N-]c1cc2c(cc1O)CCCO2)c1cccc(S(=O)(=O)N2CCCC2)c1 (nonaromatic ring conformer: 56.19638831836565 kcal/mol)

>  <smiles>  (41) 
O=S(=O)(Nc1cc2c(cc1O)CCCO2)c1cccc(S(=O)(=O)N2CCCC2)c1

>  <score_type>  (41) 
oracle

>  <origin>  (41) 
adgpu

>  <m_score__min__energy>  (41) 
-12.52

>  <m_primary>  (41) 
energy

$$$$
41:0
     RDKit          3D

 55 58  0  0  0  0  0  0  0  0999 V2000
   -2.1170   19.0150  -27.0210 C   0  0  0  0  0  0  0  0  0  0  0  0
   -1.2530   19.7800  -27.9190 N   0  0  0  0  0  0  0  0  0  0  0  0
    0.1850   19.5320  -27.9390 C   0  0  0  0  0  0  0  0  0  0  0  0
   -1.7960   20.8680  -28.6840 C   0  0  0  0  0  0  0  0  0  0  0  0
   -2.3580   21.9590  -28.0120 C   0  0  0  0  0  0  0  0  0  0  0  0
   -2.9460   23.0040  -28.7230 C   0  0  0  0  0  0  0  0  0  0  0  0
   -2.9800   22.9840  -30.1210 C   0  0  0  0  0  0  0  0  0  0  0  0
   -3.5790   24.0800  -30.8160 N   0  0  0  0  0  0  0  0  0  0  0  0
   -5.2330   24.5130  -30.5410 S   0  0  0  0  0  0  0  0  0  0  0  0
   -5.4800   24.6730  -29.0670 O   0  0  0  0  0  0  0  0  0  0  0  0
   -5.5150   25.8220  -31.2240 O   0  0  0  0  0  0  0  0  0  0  0  0
   -6.2920   23.2650  -31.1890 C   0  0  0  0  0  0  0  0  0  0  0  0
   -7.6560   23.5120  -31.3780 C   0  0  0  0  0  0  0  0  0  0  0  0
   -8.4770   22.5290  -31.9350 C   0  0  0  0  0  0  0  0  0  0  0  0
   -7.9380   21.2950  -32.3230 C   0  0  0  0  0  0  0  0  0  0  0  0
   -8.7640   20.3100  -32.8660 O   0  0  0  0  0  0  0  0  0  0  0  0
   -6.5650   21.0460  -32.1510 C   0  0  0  0  0  0  0  0  0  0  0  0
   -5.9860   19.8040  -32.5820 N   0  0  0  0  0  0  0  0  0  0  0  0
   -6.1060   18.6150  -31.7290 C   0  0  0  0  0  0  0  0  0  0  0  0
   -6.1160   17.3130  -32.5620 C   0  0  0  0  0  0  0  0  0  0  0  0
   -5.5570   17.4730  -33.9180 N   0  0  0  0  0  0  0  0  0  0  0  0
   -4.4490   18.4300  -33.9370 C   0  0  0  0  0  0  0  0  0  0  0  0
   -5.0030   19.8300  -33.6710 C   0  0  0  0  0  0  0  0  0  0  0  0
   -5.7510   22.0300  -31.5690 C   0  0  0  0  0  0  0  0  0  0  0  0
   -2.4120   21.9000  -30.8220 C   0  0  0  0  0  0  0  0  0  0  0  0
   -2.4310   21.8550  -32.2290 C   0  0  0  0  0  0  0  0  0  0  0  0
   -1.8480   20.7870  -32.9110 C   0  0  0  0  0  0  0  0  0  0  0  0
   -1.2380   19.7530  -32.2020 C   0  0  0  0  0  0  0  0  0  0  0  0
   -1.2150   19.7730  -30.8070 C   0  0  0  0  0  0  0  0  0  0  0  0
   -1.8060   20.8360  -30.0980 C   0  0  0  0  0  0  0  0  0  0  0  0
   -1.8568   19.2454  -25.9773 H   0  0  0  0  0  0  0  0  0  0  0  0
   -3.1675   19.2845  -27.2051 H   0  0  0  0  0  0  0  0  0  0  0  0
   -1.9767   17.9396  -27.2051 H   0  0  0  0  0  0  0  0  0  0  0  0
    0.5603   19.4673  -26.9070 H   0  0  0  0  0  0  0  0  0  0  0  0
    0.3867   18.5858  -28.4625 H   0  0  0  0  0  0  0  0  0  0  0  0
    0.6919   20.3560  -28.4625 H   0  0  0  0  0  0  0  0  0  0  0  0
   -2.3356   21.9924  -26.9127 H   0  0  0  0  0  0  0  0  0  0  0  0
   -3.3874   23.8523  -28.1794 H   0  0  0  0  0  0  0  0  0  0  0  0
   -8.0830   24.4831  -31.0871 H   0  0  0  0  0  0  0  0  0  0  0  0
   -9.5511   22.7242  -32.0697 H   0  0  0  0  0  0  0  0  0  0  0  0
   -8.7030   20.0460  -33.8420 H   0  0  0  0  0  0  0  0  0  0  0  0
   -5.2537   18.5872  -31.0341 H   0  0  0  0  0  0  0  0  0  0  0  0
   -7.0582   18.6798  -31.1821 H   0  0  0  0  0  0  0  0  0  0  0  0
   -5.5232   16.5550  -32.0290 H   0  0  0  0  0  0  0  0  0  0  0  0
   -7.1682   17.0151  -32.6808 H   0  0  0  0  0  0  0  0  0  0  0  0
   -5.1920   16.5430  -34.2330 H   0  0  0  0  0  0  0  0  0  0  0  0
   -3.7195   18.1666  -33.1569 H   0  0  0  0  0  0  0  0  0  0  0  0
   -3.9503   18.4052  -34.9172 H   0  0  0  0  0  0  0  0  0  0  0  0
   -4.1749   20.4986  -33.3932 H   0  0  0  0  0  0  0  0  0  0  0  0
   -5.4983   20.1921  -34.5840 H   0  0  0  0  0  0  0  0  0  0  0  0
   -4.6810   21.8301  -31.4102 H   0  0  0  0  0  0  0  0  0  0  0  0
   -2.9092   22.6682  -32.7948 H   0  0  0  0  0  0  0  0  0  0  0  0
   -1.8695   20.7605  -34.0105 H   0  0  0  0  0  0  0  0  0  0  0  0
   -0.7725   18.9173  -32.7451 H   0  0  0  0  0  0  0  0  0  0  0  0
   -0.7315   18.9521  -30.2572 H   0  0  0  0  0  0  0  0  0  0  0  0
  1  2  1  0
  2  3  1  0
  2  4  1  0
  4  5  2  0
  5  6  1  0
  6  7  2  0
  7  8  1  0
  8  9  1  0
  9 10  2  0
  9 11  2  0
  9 12  1  0
 12 13  2  0
 13 14  1  0
 14 15  2  0
 15 16  1  0
 15 17  1  0
 17 18  1  0
 18 19  1  0
 19 20  1  0
 20 21  1  0
 21 22  1  0
 22 23  1  0
 17 24  2  0
  7 25  1  0
 25 26  2  0
 26 27  1  0
 27 28  2  0
 28 29  1  0
 29 30  2  0
 30  4  1  0
 24 12  1  0
 30 25  1  0
 23 18  1  0
  1 31  1  0
  1 32  1  0
  1 33  1  0
  3 34  1  0
  3 35  1  0
  3 36  1  0
  5 37  1  0
  6 38  1  0
 13 39  1  0
 14 40  1  0
 16 41  1  0
 19 42  1  0
 19 43  1  0
 20 44  1  0
 20 45  1  0
 21 46  1  0
 22 47  1  0
 22 48  1  0
 23 49  1  0
 23 50  1  0
 24 51  1  0
 26 52  1  0
 27 53  1  0
 28 54  1  0
 29 55  1  0
M  CHG  1   8  -1
M  END
>  <UniqueID>  (42) 
42

>  <SMILES>  (42) 
CN(C)c1ccc([N-]S(=O)(=O)c2ccc(O)c(N3CCNCC3)c2)c2ccccc12

>  <Energy>  (42) 
81.27134491573425

>  <Genealogy>  (42) 
CN(C)c1ccc([N-]S(=O)(=O)c2ccc(O)c(N3CCNCC3)c2)c2ccccc12 (protonated)
CN(C)c1ccc([N-]S(=O)(=O)c2ccc(O)c(N3CCNCC3)c2)c2ccccc12 (3D coordinates assigned)
CN(C)c1ccc([N-]S(=O)(=O)c2ccc(O)c(N3CCNCC3)c2)c2ccccc12 (nonaromatic ring conformer: 81.27134491573425 kcal/mol)

>  <smiles>  (42) 
CN(C)c1ccc(NS(=O)(=O)c2ccc(O)c(N3CCNCC3)c2)c2ccccc12

>  <score_type>  (42) 
oracle

>  <origin>  (42) 
adgpu

>  <m_score__min__energy>  (42) 
-10.27

>  <m_primary>  (42) 
energy

$$$$
42:0
     RDKit          3D

 48 51  0  0  0  0  0  0  0  0999 V2000
   -6.0490   25.4350  -29.7600 O   0  0  0  0  0  0  0  0  0  0  0  0
   -5.1740   24.8210  -30.4270 C   0  0  0  0  0  0  0  0  0  0  0  0
   -3.8130   25.2650  -30.3610 N   0  0  0  0  0  0  0  0  0  0  0  0
   -2.8470   24.7970  -29.3710 C   0  0  0  0  0  0  0  0  0  0  0  0
   -3.3940   23.6930  -28.4860 C   0  0  0  0  0  0  0  0  0  0  0  0
   -2.3950   23.3630  -29.5850 C   0  0  0  0  0  0  0  0  0  0  0  0
   -5.5640   23.6330  -31.2080 C   0  0  0  0  0  0  0  0  0  0  0  0
   -6.8380   23.0680  -31.0360 C   0  0  0  0  0  0  0  0  0  0  0  0
   -7.1850   21.8960  -31.7130 C   0  0  0  0  0  0  0  0  0  0  0  0
   -6.2650   21.2830  -32.5670 C   0  0  0  0  0  0  0  0  0  0  0  0
   -5.0000   21.8550  -32.7640 C   0  0  0  0  0  0  0  0  0  0  0  0
   -4.0660   21.2450  -33.6070 O   0  0  0  0  0  0  0  0  0  0  0  0
   -3.5400   19.9640  -33.3820 C   0  0  0  0  0  0  0  0  0  0  0  0
   -4.3640   18.8230  -33.3950 C   0  0  0  0  0  0  0  0  0  0  0  0
   -3.8350   17.5590  -33.1150 C   0  0  0  0  0  0  0  0  0  0  0  0
   -4.9030   16.1610  -33.0800 S   0  0  0  0  0  0  0  0  0  0  0  0
   -5.0440   15.6190  -34.4750 O   0  0  0  0  0  0  0  0  0  0  0  0
   -4.3230   15.0930  -32.1910 O   0  0  0  0  0  0  0  0  0  0  0  0
   -6.4680   16.6510  -32.4800 N   0  0  0  0  0  0  0  0  0  0  0  0
   -7.1880   17.4730  -33.4570 C   0  0  0  0  0  0  0  0  0  0  0  0
   -8.0400   18.4630  -32.6710 C   0  0  0  0  0  0  0  0  0  0  0  0
   -7.5970   18.3270  -31.2240 C   0  0  0  0  0  0  0  0  0  0  0  0
   -6.3440   17.4750  -31.2810 C   0  0  0  0  0  0  0  0  0  0  0  0
   -2.4660   17.4240  -32.8470 C   0  0  0  0  0  0  0  0  0  0  0  0
   -1.6410   18.5510  -32.8390 C   0  0  0  0  0  0  0  0  0  0  0  0
   -2.1740   19.8200  -33.0960 C   0  0  0  0  0  0  0  0  0  0  0  0
   -1.1180   21.2230  -33.0600 Cl  0  0  0  0  0  0  0  0  0  0  0  0
   -4.6630   23.0410  -32.1080 C   0  0  0  0  0  0  0  0  0  0  0  0
   -2.3333   25.7552  -29.2040 H   0  0  0  0  0  0  0  0  0  0  0  0
   -3.0904   23.6329  -27.4304 H   0  0  0  0  0  0  0  0  0  0  0  0
   -4.3998   23.3382  -28.2168 H   0  0  0  0  0  0  0  0  0  0  0  0
   -1.3688   23.0647  -29.3245 H   0  0  0  0  0  0  0  0  0  0  0  0
   -2.3784   22.6712  -30.4401 H   0  0  0  0  0  0  0  0  0  0  0  0
   -7.5653   23.5497  -30.3660 H   0  0  0  0  0  0  0  0  0  0  0  0
   -8.1833   21.4557  -31.5734 H   0  0  0  0  0  0  0  0  0  0  0  0
   -6.5332   20.3506  -33.0855 H   0  0  0  0  0  0  0  0  0  0  0  0
   -5.4341   18.9264  -33.6276 H   0  0  0  0  0  0  0  0  0  0  0  0
   -6.4731   18.0138  -34.0945 H   0  0  0  0  0  0  0  0  0  0  0  0
   -7.8163   16.8467  -34.1073 H   0  0  0  0  0  0  0  0  0  0  0  0
   -7.8670   19.4881  -33.0305 H   0  0  0  0  0  0  0  0  0  0  0  0
   -9.1142   18.2573  -32.7882 H   0  0  0  0  0  0  0  0  0  0  0  0
   -7.3751   19.3141  -30.7923 H   0  0  0  0  0  0  0  0  0  0  0  0
   -8.3766   17.8772  -30.5916 H   0  0  0  0  0  0  0  0  0  0  0  0
   -5.4509   18.1137  -31.3476 H   0  0  0  0  0  0  0  0  0  0  0  0
   -6.2377   16.8563  -30.3777 H   0  0  0  0  0  0  0  0  0  0  0  0
   -2.0411   16.4301  -32.6429 H   0  0  0  0  0  0  0  0  0  0  0  0
   -0.5667   18.4410  -32.6297 H   0  0  0  0  0  0  0  0  0  0  0  0
   -3.6878   23.5134  -32.2971 H   0  0  0  0  0  0  0  0  0  0  0  0
  1  2  2  0
  2  3  1  0
  3  4  1  0
  4  5  1  0
  5  6  1  0
  2  7  1  0
  7  8  2  0
  8  9  1  0
  9 10  2  0
 10 11  1  0
 11 12  1  0
 12 13  1  0
 13 14  2  0
 14 15  1  0
 15 16  1  0
 16 17  2  0
 16 18  2  0
 16 19  1  0
 19 20  1  0
 20 21  1  0
 21 22  1  0
 22 23  1  0
 15 24  2  0
 24 25  1  0
 25 26  2  0
 26 27  1  0
 11 28  2  0
  6  4  1  0
 28  7  1  0
 26 13  1  0
 23 19  1  0
  4 29  1  0
  5 30  1  0
  5 31  1  0
  6 32  1  0
  6 33  1  0
  8 34  1  0
  9 35  1  0
 10 36  1  0
 14 37  1  0
 20 38  1  0
 20 39  1  0
 21 40  1  0
 21 41  1  0
 22 42  1  0
 22 43  1  0
 23 44  1  0
 23 45  1  0
 24 46  1  0
 25 47  1  0
 28 48  1  0
M  CHG  1   3  -1
M  END
>  <UniqueID>  (43) 
43

>  <SMILES>  (43) 
O=C([N-]C1CC1)c1cccc(Oc2cc(S(=O)(=O)N3CCCC3)ccc2Cl)c1

>  <Energy>  (43) 
324.2865973316762

>  <Genealogy>  (43) 
O=C([N-]C1CC1)c1cccc(Oc2cc(S(=O)(=O)N3CCCC3)ccc2Cl)c1 (protonated)
O=C([N-]C1CC1)c1cccc(Oc2cc(S(=O)(=O)N3CCCC3)ccc2Cl)c1 (3D coordinates assigned)
O=C([N-]C1CC1)c1cccc(Oc2cc(S(=O)(=O)N3CCCC3)ccc2Cl)c1 (nonaromatic ring conformer: 324.2865973316762 kcal/mol)

>  <smiles>  (43) 
O=C(NC1CC1)c1cccc(Oc2cc(S(=O)(=O)N3CCCC3)ccc2Cl)c1

>  <score_type>  (43) 
oracle

>  <origin>  (43) 
adgpu

>  <m_score__min__energy>  (43) 
-11.16

>  <m_primary>  (43) 
energy

$$$$
43:0
     RDKit          3D

 62 66  0  0  0  0  0  0  0  0999 V2000
   -7.6100   15.6570  -33.4060 H   0  0  0  0  0  0  0  0  0  0  0  0
   -6.7540   16.2510  -33.4860 N   0  0  0  0  0  0  0  0  0  0  0  0
   -6.8020   17.5270  -33.2750 C   0  0  0  0  0  0  0  0  0  0  0  0
   -7.9240   18.1910  -32.9450 N   0  0  0  0  0  0  0  0  0  0  0  0
   -7.5870   19.4450  -32.8290 O   0  0  0  0  0  0  0  0  0  0  0  0
   -6.3070   19.6160  -33.0710 C   0  0  0  0  0  0  0  0  0  0  0  0
   -5.6460   20.8860  -33.0640 N   0  0  0  0  0  0  0  0  0  0  0  0
   -4.9260   21.0690  -33.7990 H   0  0  0  0  0  0  0  0  0  0  0  0
   -6.1330   22.0050  -32.3070 C   0  0  0  0  0  0  0  0  0  0  0  0
   -7.4960   22.0680  -31.9830 C   0  0  0  0  0  0  0  0  0  0  0  0
   -8.1735   21.2665  -32.3124 H   0  0  0  0  0  0  0  0  0  0  0  0
   -7.9980   23.1400  -31.2460 C   0  0  0  0  0  0  0  0  0  0  0  0
   -9.0682   23.1780  -30.9945 H   0  0  0  0  0  0  0  0  0  0  0  0
   -7.1490   24.1650  -30.8260 C   0  0  0  0  0  0  0  0  0  0  0  0
   -7.5537   25.0012  -30.2369 H   0  0  0  0  0  0  0  0  0  0  0  0
   -5.7780   24.1380  -31.1500 C   0  0  0  0  0  0  0  0  0  0  0  0
   -4.8940   25.2340  -30.6770 C   0  0  0  0  0  0  0  0  0  0  0  0
   -5.3650   26.3840  -30.4630 O   0  0  0  0  0  0  0  0  0  0  0  0
   -3.5030   24.9770  -30.4320 N   0  0  0  0  0  0  0  0  0  0  0  0
   -2.9690   24.2220  -29.3350 C   0  0  0  0  0  0  0  0  0  0  0  0
   -3.6960   23.1840  -28.7230 C   0  0  0  0  0  0  0  0  0  0  0  0
   -4.6957   22.9194  -29.0981 H   0  0  0  0  0  0  0  0  0  0  0  0
   -3.1520   22.4890  -27.6410 C   0  0  0  0  0  0  0  0  0  0  0  0
   -3.7188   21.6697  -27.1746 H   0  0  0  0  0  0  0  0  0  0  0  0
   -1.8900   22.8310  -27.1490 C   0  0  0  0  0  0  0  0  0  0  0  0
   -1.4643   22.2779  -26.2988 H   0  0  0  0  0  0  0  0  0  0  0  0
   -1.1650   23.8770  -27.7360 C   0  0  0  0  0  0  0  0  0  0  0  0
    0.4330   24.3110  -27.1330 S   0  0  0  0  0  0  0  0  0  0  0  0
    1.3830   24.4880  -28.2850 O   0  0  0  0  0  0  0  0  0  0  0  0
    0.9380   23.1940  -26.2640 O   0  0  0  0  0  0  0  0  0  0  0  0
    0.3380   25.7860  -26.1970 N   0  0  0  0  0  0  0  0  0  0  0  0
    0.4170   25.5030  -24.7520 C   0  0  0  0  0  0  0  0  0  0  0  0
    0.5261   24.4202  -24.5917 H   0  0  0  0  0  0  0  0  0  0  0  0
    1.2860   26.0169  -24.3151 H   0  0  0  0  0  0  0  0  0  0  0  0
   -0.8640   25.9930  -24.0910 C   0  0  0  0  0  0  0  0  0  0  0  0
   -1.2422   25.2467  -23.3769 H   0  0  0  0  0  0  0  0  0  0  0  0
   -0.7097   26.9202  -23.5196 H   0  0  0  0  0  0  0  0  0  0  0  0
   -1.8350   26.1790  -25.2310 C   0  0  0  0  0  0  0  0  0  0  0  0
   -2.4295   25.2674  -25.3908 H   0  0  0  0  0  0  0  0  0  0  0  0
   -2.5591   26.9854  -25.0428 H   0  0  0  0  0  0  0  0  0  0  0  0
   -0.9470   26.4600  -26.4280 C   0  0  0  0  0  0  0  0  0  0  0  0
   -1.4162   26.0691  -27.3429 H   0  0  0  0  0  0  0  0  0  0  0  0
   -0.7980   27.5428  -26.5523 H   0  0  0  0  0  0  0  0  0  0  0  0
   -1.7130   24.5720  -28.8240 C   0  0  0  0  0  0  0  0  0  0  0  0
   -1.1508   25.4000  -29.2804 H   0  0  0  0  0  0  0  0  0  0  0  0
   -5.2790   23.0610  -31.9190 C   0  0  0  0  0  0  0  0  0  0  0  0
   -3.9510   23.0520  -32.3370 O   0  0  0  0  0  0  0  0  0  0  0  0
   -5.7370   18.3940  -33.3640 C   0  0  0  0  0  0  0  0  0  0  0  0
   -4.0710   18.0130  -33.7820 S   0  0  0  0  0  0  0  0  0  0  0  0
   -3.9840   17.8200  -35.2690 O   0  0  0  0  0  0  0  0  0  0  0  0
   -3.6350   16.7400  -33.1120 O   0  0  0  0  0  0  0  0  0  0  0  0
   -3.0310   19.3390  -33.2750 C   0  0  0  0  0  0  0  0  0  0  0  0
   -3.0370   19.7860  -31.9440 C   0  0  0  0  0  0  0  0  0  0  0  0
   -3.7066   19.3145  -31.2096 H   0  0  0  0  0  0  0  0  0  0  0  0
   -2.1930   20.8300  -31.5500 C   0  0  0  0  0  0  0  0  0  0  0  0
   -2.1987   21.1753  -30.5056 H   0  0  0  0  0  0  0  0  0  0  0  0
   -1.3420   21.4360  -32.4800 C   0  0  0  0  0  0  0  0  0  0  0  0
   -0.6812   22.2580  -32.1676 H   0  0  0  0  0  0  0  0  0  0  0  0
   -1.3320   20.9960  -33.8070 C   0  0  0  0  0  0  0  0  0  0  0  0
   -0.6618   21.4708  -34.5387 H   0  0  0  0  0  0  0  0  0  0  0  0
   -2.1750   19.9510  -34.2050 C   0  0  0  0  0  0  0  0  0  0  0  0
   -2.1667   19.6082  -35.2502 H   0  0  0  0  0  0  0  0  0  0  0  0
  1  2  1  0
  2  3  2  0
  3  4  1  0
  4  5  1  0
  5  6  1  0
  6  7  1  0
  7  8  1  0
  7  9  1  0
  9 10  2  0
 10 11  1  0
 10 12  1  0
 12 13  1  0
 12 14  2  0
 14 15  1  0
 14 16  1  0
 16 17  1  0
 17 18  2  0
 17 19  1  0
 19 20  1  0
 20 21  2  0
 21 22  1  0
 21 23  1  0
 23 24  1  0
 23 25  2  0
 25 26  1  0
 25 27  1  0
 27 28  1  0
 28 29  2  0
 28 30  2  0
 28 31  1  0
 31 32  1  0
 32 33  1  0
 32 34  1  0
 32 35  1  0
 35 36  1  0
 35 37  1  0
 35 38  1  0
 38 39  1  0
 38 40  1  0
 38 41  1  0
 41 42  1  0
 41 43  1  0
 27 44  2  0
 44 45  1  0
 16 46  2  0
 46 47  1  0
  6 48  2  0
 48 49  1  0
 49 50  2  0
 49 51  2  0
 49 52  1  0
 52 53  2  0
 53 54  1  0
 53 55  1  0
 55 56  1  0
 55 57  2  0
 57 58  1  0
 57 59  1  0
 59 60  1  0
 59 61  2  0
 61 62  1  0
 48  3  1  0
 61 52  1  0
 46  9  1  0
 44 20  1  0
 41 31  1  0
M  CHG  3   4  -1  19  -1  47  -1
M  END
>  <UniqueID>  (44) 
44

>  <SMILES>  (44) 
[H]/N=c1\[n-]oc(Nc2cccc(C(=O)[N-]c3cccc(S(=O)(=O)N4CCCC4)c3)c2[O-])c1S(=O)(=O)c1ccccc1

>  <Energy>  (44) 
115.4872917617766

>  <Genealogy>  (44) 
N=c1[n-]oc(Nc2cccc(C(=O)[N-]c3cccc(S(=O)(=O)N4CCCC4)c3)c2[O-])c1S(=O)(=O)c1ccccc1 (protonated)
[H]/N=c1\[n-]oc(Nc2cccc(C(=O)[N-]c3cccc(S(=O)(=O)N4CCCC4)c3)c2[O-])c1S(=O)(=O)c1ccccc1 (cis-trans isomerization)
[H]/N=c1\[n-]oc(Nc2cccc(C(=O)[N-]c3cccc(S(=O)(=O)N4CCCC4)c3)c2[O-])c1S(=O)(=O)c1ccccc1 (3D coordinates assigned)
[H]/N=c1\[n-]oc(Nc2cccc(C(=O)[N-]c3cccc(S(=O)(=O)N4CCCC4)c3)c2[O-])c1S(=O)(=O)c1ccccc1 (nonaromatic ring conformer: 115.4872917617766 kcal/mol)

>  <smiles>  (44) 
N=c1[nH]oc(Nc2cccc(C(=O)Nc3cccc(S(=O)(=O)N4CCCC4)c3)c2O)c1S(=O)(=O)c1ccccc1

>  <score_type>  (44) 
oracle

>  <origin>  (44) 
adgpu

>  <m_score__min__energy>  (44) 
-15.26

>  <m_primary>  (44) 
energy

$$$$
44:0
     RDKit          3D

 63 66  0  0  0  0  0  0  0  0999 V2000
   -5.2530   19.3930  -33.7480 C   0  0  0  0  0  0  0  0  0  0  0  0
   -5.6020   20.6410  -33.1600 O   0  0  0  0  0  0  0  0  0  0  0  0
   -6.8610   20.9430  -32.6100 C   0  0  0  0  0  0  0  0  0  0  0  0
   -7.9220   20.0130  -32.6360 C   0  0  0  0  0  0  0  0  0  0  0  0
   -9.1630   20.3360  -32.0830 C   0  0  0  0  0  0  0  0  0  0  0  0
   -9.3630   21.5820  -31.4920 C   0  0  0  0  0  0  0  0  0  0  0  0
   -8.3220   22.5130  -31.4540 C   0  0  0  0  0  0  0  0  0  0  0  0
   -7.0680   22.2060  -32.0100 C   0  0  0  0  0  0  0  0  0  0  0  0
   -5.9550   23.2270  -31.9220 C   0  0  0  0  0  0  0  0  0  0  0  0
   -5.9670   23.9900  -30.5870 C   0  0  0  0  0  0  0  0  0  0  0  0
   -4.9190   25.0730  -30.5470 C   0  0  0  0  0  0  0  0  0  0  0  0
   -5.2760   26.2800  -30.5160 O   0  0  0  0  0  0  0  0  0  0  0  0
   -3.5220   24.7670  -30.4500 N   0  0  0  0  0  0  0  0  0  0  0  0
   -2.9420   23.4570  -30.3570 C   0  0  0  0  0  0  0  0  0  0  0  0
   -2.7370   22.6710  -31.5050 C   0  0  0  0  0  0  0  0  0  0  0  0
   -2.1520   21.4020  -31.4040 C   0  0  0  0  0  0  0  0  0  0  0  0
   -1.9010   20.4250  -32.8510 S   0  0  0  0  0  0  0  0  0  0  0  0
   -2.4560   19.0480  -32.6180 O   0  0  0  0  0  0  0  0  0  0  0  0
   -2.6550   21.0400  -33.9970 O   0  0  0  0  0  0  0  0  0  0  0  0
   -0.2070   20.2990  -33.2740 N   0  0  0  0  0  0  0  0  0  0  0  0
    0.2810   21.5430  -33.8810 C   0  0  0  0  0  0  0  0  0  0  0  0
    0.2560   21.3770  -35.3920 C   0  0  0  0  0  0  0  0  0  0  0  0
    0.1520   19.8860  -35.6400 C   0  0  0  0  0  0  0  0  0  0  0  0
    0.0170   19.2410  -34.2650 C   0  0  0  0  0  0  0  0  0  0  0  0
   -1.7600   20.9180  -30.1490 C   0  0  0  0  0  0  0  0  0  0  0  0
   -1.9400   21.7000  -29.0070 C   0  0  0  0  0  0  0  0  0  0  0  0
   -2.5190   22.9750  -29.1040 C   0  0  0  0  0  0  0  0  0  0  0  0
   -2.7040   23.7710  -27.9230 N   0  0  0  0  0  0  0  0  0  0  0  0
   -3.9380   23.6450  -27.1470 C   0  0  0  0  0  0  0  0  0  0  0  0
   -4.2040   24.9550  -26.3940 C   0  0  0  0  0  0  0  0  0  0  0  0
   -3.0690   25.3390  -25.6400 O   0  0  0  0  0  0  0  0  0  0  0  0
   -1.9920   25.6450  -26.5080 C   0  0  0  0  0  0  0  0  0  0  0  0
   -1.5430   24.4020  -27.2850 C   0  0  0  0  0  0  0  0  0  0  0  0
   -5.0477   18.6587  -32.9551 H   0  0  0  0  0  0  0  0  0  0  0  0
   -6.0857   19.0359  -34.3717 H   0  0  0  0  0  0  0  0  0  0  0  0
   -4.3558   19.5197  -34.3717 H   0  0  0  0  0  0  0  0  0  0  0  0
   -7.7703   19.0253  -33.0957 H   0  0  0  0  0  0  0  0  0  0  0  0
   -9.9845   19.6052  -32.1140 H   0  0  0  0  0  0  0  0  0  0  0  0
  -10.3409   21.8327  -31.0552 H   0  0  0  0  0  0  0  0  0  0  0  0
   -8.4851   23.4946  -30.9850 H   0  0  0  0  0  0  0  0  0  0  0  0
   -4.9903   22.7084  -32.0243 H   0  0  0  0  0  0  0  0  0  0  0  0
   -6.1053   23.9590  -32.7292 H   0  0  0  0  0  0  0  0  0  0  0  0
   -6.9573   24.4486  -30.4487 H   0  0  0  0  0  0  0  0  0  0  0  0
   -5.7455   23.2725  -29.7832 H   0  0  0  0  0  0  0  0  0  0  0  0
   -3.0385   23.0558  -32.4904 H   0  0  0  0  0  0  0  0  0  0  0  0
   -0.3693   22.3803  -33.5877 H   0  0  0  0  0  0  0  0  0  0  0  0
    1.3047   21.7560  -33.5394 H   0  0  0  0  0  0  0  0  0  0  0  0
   -0.6126   21.8984  -35.8206 H   0  0  0  0  0  0  0  0  0  0  0  0
    1.1539   21.8047  -35.8619 H   0  0  0  0  0  0  0  0  0  0  0  0
   -0.7312   19.6615  -36.2561 H   0  0  0  0  0  0  0  0  0  0  0  0
    1.0311   19.5045  -36.1800 H   0  0  0  0  0  0  0  0  0  0  0  0
   -0.8349   18.5451  -34.2637 H   0  0  0  0  0  0  0  0  0  0  0  0
    0.9323   18.6825  -34.0194 H   0  0  0  0  0  0  0  0  0  0  0  0
   -1.3089   19.9184  -30.0634 H   0  0  0  0  0  0  0  0  0  0  0  0
   -1.6264   21.3150  -28.0255 H   0  0  0  0  0  0  0  0  0  0  0  0
   -4.7780   23.4348  -27.8254 H   0  0  0  0  0  0  0  0  0  0  0  0
   -3.8350   22.8213  -26.4252 H   0  0  0  0  0  0  0  0  0  0  0  0
   -4.4399   25.7471  -27.1199 H   0  0  0  0  0  0  0  0  0  0  0  0
   -5.0494   24.8022  -25.7070 H   0  0  0  0  0  0  0  0  0  0  0  0
   -2.3132   26.4185  -27.2211 H   0  0  0  0  0  0  0  0  0  0  0  0
   -1.1463   26.0054  -25.9039 H   0  0  0  0  0  0  0  0  0  0  0  0
   -0.8166   24.6960  -28.0569 H   0  0  0  0  0  0  0  0  0  0  0  0
   -1.0760   23.6877  -26.5909 H   0  0  0  0  0  0  0  0  0  0  0  0
  1  2  1  0
  2  3  1  0
  3  4  2  0
  4  5  1  0
  5  6  2  0
  6  7  1  0
  7  8  2  0
  8  9  1  0
  9 10  1  0
 10 11  1  0
 11 12  2  0
 11 13  1  0
 13 14  1  0
 14 15  2  0
 15 16  1  0
 16 17  1  0
 17 18  2  0
 17 19  2  0
 17 20  1  0
 20 21  1  0
 21 22  1  0
 22 23  1  0
 23 24  1  0
 16 25  2  0
 25 26  1  0
 26 27  2  0
 27 28  1  0
 28 29  1  0
 29 30  1  0
 30 31  1  0
 31 32  1  0
 32 33  1  0
  8  3  1  0
 27 14  1  0
 33 28  1  0
 24 20  1  0
  1 34  1  0
  1 35  1  0
  1 36  1  0
  4 37  1  0
  5 38  1  0
  6 39  1  0
  7 40  1  0
  9 41  1  0
  9 42  1  0
 10 43  1  0
 10 44  1  0
 15 45  1  0
 21 46  1  0
 21 47  1  0
 22 48  1  0
 22 49  1  0
 23 50  1  0
 23 51  1  0
 24 52  1  0
 24 53  1  0
 25 54  1  0
 26 55  1  0
 29 56  1  0
 29 57  1  0
 30 58  1  0
 30 59  1  0
 32 60  1  0
 32 61  1  0
 33 62  1  0
 33 63  1  0
M  CHG  1  13  -1
M  END
>  <UniqueID>  (45) 
45

>  <SMILES>  (45) 
COc1ccccc1CCC(=O)[N-]c1cc(S(=O)(=O)N2CCCC2)ccc1N1CCOCC1

>  <Energy>  (45) 
72.91252988316631

>  <Genealogy>  (45) 
COc1ccccc1CCC(=O)[N-]c1cc(S(=O)(=O)N2CCCC2)ccc1N1CCOCC1 (protonated)
COc1ccccc1CCC(=O)[N-]c1cc(S(=O)(=O)N2CCCC2)ccc1N1CCOCC1 (3D coordinates assigned)
COc1ccccc1CCC(=O)[N-]c1cc(S(=O)(=O)N2CCCC2)ccc1N1CCOCC1 (nonaromatic ring conformer: 72.91252988316631 kcal/mol)

>  <smiles>  (45) 
COc1ccccc1CCC(=O)Nc1cc(S(=O)(=O)N2CCCC2)ccc1N1CCOCC1

>  <score_type>  (45) 
oracle

>  <origin>  (45) 
adgpu

>  <m_score__min__energy>  (45) 
-10.710000000000001

>  <m_primary>  (45) 
energy

$$$$
45:0
     RDKit          3D

 54 57  0  0  0  0  0  0  0  0999 V2000
   -0.4820   19.3240  -29.0340 C   0  0  0  0  0  0  0  0  0  0  0  0
   -0.2520   19.9610  -27.7260 N   0  0  0  0  0  0  0  0  0  0  0  0
   -1.3590   19.7310  -26.7800 C   0  0  0  0  0  0  0  0  0  0  0  0
   -2.6680   20.3930  -27.2350 C   0  0  0  0  0  0  0  0  0  0  0  0
   -2.4540   21.7900  -27.7570 C   0  0  0  0  0  0  0  0  0  0  0  0
   -3.5670   22.6160  -27.9660 C   0  0  0  0  0  0  0  0  0  0  0  0
   -3.4140   23.9170  -28.4810 C   0  0  0  0  0  0  0  0  0  0  0  0
   -4.5480   24.7860  -28.6680 N   0  0  0  0  0  0  0  0  0  0  0  0
   -5.3540   24.9990  -30.1900 S   0  0  0  0  0  0  0  0  0  0  0  0
   -4.3610   25.4810  -31.2080 O   0  0  0  0  0  0  0  0  0  0  0  0
   -6.4400   26.0260  -30.0380 O   0  0  0  0  0  0  0  0  0  0  0  0
   -6.0840   23.4790  -30.7010 C   0  0  0  0  0  0  0  0  0  0  0  0
   -7.4740   23.3010  -30.6450 C   0  0  0  0  0  0  0  0  0  0  0  0
   -8.0470   22.1060  -31.0870 C   0  0  0  0  0  0  0  0  0  0  0  0
   -7.2370   21.0790  -31.5900 C   0  0  0  0  0  0  0  0  0  0  0  0
   -7.9550   19.5650  -32.1320 S   0  0  0  0  0  0  0  0  0  0  0  0
   -8.9610   19.8530  -33.2120 O   0  0  0  0  0  0  0  0  0  0  0  0
   -8.6650   18.9010  -30.9840 O   0  0  0  0  0  0  0  0  0  0  0  0
   -6.7030   18.5280  -32.7640 N   0  0  0  0  0  0  0  0  0  0  0  0
   -7.2190   17.1950  -33.0730 C   0  0  0  0  0  0  0  0  0  0  0  0
   -6.3530   16.6400  -34.1950 C   0  0  0  0  0  0  0  0  0  0  0  0
   -5.6340   17.8440  -34.7850 C   0  0  0  0  0  0  0  0  0  0  0  0
   -6.1750   19.0430  -34.0250 C   0  0  0  0  0  0  0  0  0  0  0  0
   -5.8470   21.2510  -31.6330 C   0  0  0  0  0  0  0  0  0  0  0  0
   -5.2740   22.4460  -31.1900 C   0  0  0  0  0  0  0  0  0  0  0  0
   -2.1260   24.3660  -28.8210 C   0  0  0  0  0  0  0  0  0  0  0  0
   -1.9360   25.6430  -29.3390 O   0  0  0  0  0  0  0  0  0  0  0  0
   -1.0170   23.5370  -28.6360 C   0  0  0  0  0  0  0  0  0  0  0  0
   -1.1710   22.2450  -28.1170 C   0  0  0  0  0  0  0  0  0  0  0  0
    0.0560   21.3990  -27.8580 C   0  0  0  0  0  0  0  0  0  0  0  0
   -0.8520   18.2992  -28.8828 H   0  0  0  0  0  0  0  0  0  0  0  0
   -1.2276   19.9036  -29.5980 H   0  0  0  0  0  0  0  0  0  0  0  0
    0.4619   19.2935  -29.5980 H   0  0  0  0  0  0  0  0  0  0  0  0
   -1.5250   18.6475  -26.6878 H   0  0  0  0  0  0  0  0  0  0  0  0
   -1.0745   20.1797  -25.8168 H   0  0  0  0  0  0  0  0  0  0  0  0
   -3.1139   19.7819  -28.0336 H   0  0  0  0  0  0  0  0  0  0  0  0
   -3.3317   20.4598  -26.3603 H   0  0  0  0  0  0  0  0  0  0  0  0
   -4.5731   22.2426  -27.7244 H   0  0  0  0  0  0  0  0  0  0  0  0
   -4.9870   25.2450  -27.8390 H   0  0  0  0  0  0  0  0  0  0  0  0
   -8.1146   24.1043  -30.2521 H   0  0  0  0  0  0  0  0  0  0  0  0
   -9.1376   21.9708  -31.0400 H   0  0  0  0  0  0  0  0  0  0  0  0
   -7.1516   16.5475  -32.1864 H   0  0  0  0  0  0  0  0  0  0  0  0
   -8.2760   17.2399  -33.3743 H   0  0  0  0  0  0  0  0  0  0  0  0
   -5.6272   15.9150  -33.7981 H   0  0  0  0  0  0  0  0  0  0  0  0
   -6.9525   16.1113  -34.9507 H   0  0  0  0  0  0  0  0  0  0  0  0
   -4.5474   17.7536  -34.6399 H   0  0  0  0  0  0  0  0  0  0  0  0
   -5.8030   17.9335  -35.8682 H   0  0  0  0  0  0  0  0  0  0  0  0
   -5.3692   19.7668  -33.8328 H   0  0  0  0  0  0  0  0  0  0  0  0
   -6.9549   19.5619  -34.6016 H   0  0  0  0  0  0  0  0  0  0  0  0
   -5.2056   20.4437  -32.0163 H   0  0  0  0  0  0  0  0  0  0  0  0
   -4.1823   22.5761  -31.2254 H   0  0  0  0  0  0  0  0  0  0  0  0
   -0.0136   23.9021  -28.9003 H   0  0  0  0  0  0  0  0  0  0  0  0
    0.7566   21.5320  -28.6955 H   0  0  0  0  0  0  0  0  0  0  0  0
    0.4894   21.7316  -26.9033 H   0  0  0  0  0  0  0  0  0  0  0  0
  1  2  1  0
  2  3  1  0
  3  4  1  0
  4  5  1  0
  5  6  2  0
  6  7  1  0
  7  8  1  0
  8  9  1  0
  9 10  2  0
  9 11  2  0
  9 12  1  0
 12 13  2  0
 13 14  1  0
 14 15  2  0
 15 16  1  0
 16 17  2  0
 16 18  2  0
 16 19  1  0
 19 20  1  0
 20 21  1  0
 21 22  1  0
 22 23  1  0
 15 24  1  0
 24 25  2  0
  7 26  2  0
 26 27  1  0
 26 28  1  0
 28 29  2  0
 29 30  1  0
 30  2  1  0
 29  5  1  0
 25 12  1  0
 23 19  1  0
  1 31  1  0
  1 32  1  0
  1 33  1  0
  3 34  1  0
  3 35  1  0
  4 36  1  0
  4 37  1  0
  6 38  1  0
  8 39  1  0
 13 40  1  0
 14 41  1  0
 20 42  1  0
 20 43  1  0
 21 44  1  0
 21 45  1  0
 22 46  1  0
 22 47  1  0
 23 48  1  0
 23 49  1  0
 24 50  1  0
 25 51  1  0
 28 52  1  0
 30 53  1  0
 30 54  1  0
M  CHG  1  27  -1
M  END
>  <UniqueID>  (46) 
46

>  <SMILES>  (46) 
CN1CCc2cc(NS(=O)(=O)c3ccc(S(=O)(=O)N4CCCC4)cc3)c([O-])cc2C1

>  <Energy>  (46) 
64.749475264177

>  <Genealogy>  (46) 
CN1CCc2cc(NS(=O)(=O)c3ccc(S(=O)(=O)N4CCCC4)cc3)c([O-])cc2C1 (protonated)
CN1CCc2cc(NS(=O)(=O)c3ccc(S(=O)(=O)N4CCCC4)cc3)c([O-])cc2C1 (3D coordinates assigned)
CN1CCc2cc(NS(=O)(=O)c3ccc(S(=O)(=O)N4CCCC4)cc3)c([O-])cc2C1 (nonaromatic ring conformer: 64.749475264177 kcal/mol)

>  <smiles>  (46) 
CN1CCc2cc(NS(=O)(=O)c3ccc(S(=O)(=O)N4CCCC4)cc3)c(O)cc2C1

>  <score_type>  (46) 
oracle

>  <origin>  (46) 
adgpu

>  <m_score__min__energy>  (46) 
-15.01

>  <m_primary>  (46) 
energy

$$$$
46:0
     RDKit          3D

 48 50  0  0  0  0  0  0  0  0999 V2000
   -6.8700   16.2280  -33.8610 C   0  0  0  0  0  0  0  0  0  0  0  0
   -5.6940   17.1570  -33.7980 C   0  0  0  0  0  0  0  0  0  0  0  0
   -4.4760   16.7950  -34.3930 C   0  0  0  0  0  0  0  0  0  0  0  0
   -3.3760   17.6650  -34.3450 C   0  0  0  0  0  0  0  0  0  0  0  0
   -2.0810   17.2810  -34.9960 C   0  0  0  0  0  0  0  0  0  0  0  0
   -3.5140   18.9200  -33.7370 C   0  0  0  0  0  0  0  0  0  0  0  0
   -4.7290   19.2930  -33.1490 C   0  0  0  0  0  0  0  0  0  0  0  0
   -4.8570   20.8440  -32.3190 S   0  0  0  0  0  0  0  0  0  0  0  0
   -4.1640   21.9230  -33.1040 O   0  0  0  0  0  0  0  0  0  0  0  0
   -4.1850   20.7110  -30.9820 O   0  0  0  0  0  0  0  0  0  0  0  0
   -6.5590   21.2960  -32.1120 C   0  0  0  0  0  0  0  0  0  0  0  0
   -7.5510   20.3850  -32.5120 C   0  0  0  0  0  0  0  0  0  0  0  0
   -8.9030   20.7240  -32.4310 C   0  0  0  0  0  0  0  0  0  0  0  0
   -9.2830   21.9770  -31.9540 C   0  0  0  0  0  0  0  0  0  0  0  0
   -8.3130   22.8930  -31.5450 C   0  0  0  0  0  0  0  0  0  0  0  0
   -6.9480   22.5640  -31.6050 C   0  0  0  0  0  0  0  0  0  0  0  0
   -5.9640   23.5600  -31.1390 C   0  0  0  0  0  0  0  0  0  0  0  0
   -5.9520   24.7120  -31.6500 O   0  0  0  0  0  0  0  0  0  0  0  0
   -5.0290   23.2190  -30.1050 N   0  0  0  0  0  0  0  0  0  0  0  0
   -4.1540   24.2090  -29.4830 C   0  0  0  0  0  0  0  0  0  0  0  0
   -2.8510   23.5760  -29.0660 C   0  0  0  0  0  0  0  0  0  0  0  0
   -2.8290   22.2120  -28.7300 C   0  0  0  0  0  0  0  0  0  0  0  0
   -1.6320   21.5950  -28.3520 C   0  0  0  0  0  0  0  0  0  0  0  0
   -0.4490   22.3350  -28.3080 C   0  0  0  0  0  0  0  0  0  0  0  0
   -0.4580   23.6910  -28.6400 C   0  0  0  0  0  0  0  0  0  0  0  0
   -1.6520   24.3160  -29.0190 C   0  0  0  0  0  0  0  0  0  0  0  0
   -1.6330   25.6680  -29.3480 O   0  0  0  0  0  0  0  0  0  0  0  0
   -5.8200   18.4140  -33.1900 C   0  0  0  0  0  0  0  0  0  0  0  0
   -7.1916   15.9739  -32.8402 H   0  0  0  0  0  0  0  0  0  0  0  0
   -7.6971   16.7192  -34.3945 H   0  0  0  0  0  0  0  0  0  0  0  0
   -6.5836   15.3096  -34.3945 H   0  0  0  0  0  0  0  0  0  0  0  0
   -4.3828   15.8234  -34.9002 H   0  0  0  0  0  0  0  0  0  0  0  0
   -1.3326   17.0591  -34.2209 H   0  0  0  0  0  0  0  0  0  0  0  0
   -2.2355   16.3900  -35.6223 H   0  0  0  0  0  0  0  0  0  0  0  0
   -1.7248   18.1122  -35.6223 H   0  0  0  0  0  0  0  0  0  0  0  0
   -2.6627   19.6164  -33.7215 H   0  0  0  0  0  0  0  0  0  0  0  0
   -7.2596   19.3950  -32.8927 H   0  0  0  0  0  0  0  0  0  0  0  0
   -9.6699   20.0004  -32.7444 H   0  0  0  0  0  0  0  0  0  0  0  0
  -10.3487   22.2443  -31.8998 H   0  0  0  0  0  0  0  0  0  0  0  0
   -8.6195   23.8815  -31.1723 H   0  0  0  0  0  0  0  0  0  0  0  0
   -5.0400   22.2530  -29.7070 H   0  0  0  0  0  0  0  0  0  0  0  0
   -3.9504   25.0152  -30.2032 H   0  0  0  0  0  0  0  0  0  0  0  0
   -4.6537   24.6140  -28.5907 H   0  0  0  0  0  0  0  0  0  0  0  0
   -3.7590   21.6256  -28.7644 H   0  0  0  0  0  0  0  0  0  0  0  0
   -1.6227   20.5268  -28.0894 H   0  0  0  0  0  0  0  0  0  0  0  0
    0.4920   21.8487  -28.0112 H   0  0  0  0  0  0  0  0  0  0  0  0
    0.4764   24.2704  -28.6037 H   0  0  0  0  0  0  0  0  0  0  0  0
   -6.7799   18.7119  -32.7429 H   0  0  0  0  0  0  0  0  0  0  0  0
  1  2  1  0
  2  3  2  0
  3  4  1  0
  4  5  1  0
  4  6  2  0
  6  7  1  0
  7  8  1  0
  8  9  2  0
  8 10  2  0
  8 11  1  0
 11 12  2  0
 12 13  1  0
 13 14  2  0
 14 15  1  0
 15 16  2  0
 16 17  1  0
 17 18  2  0
 17 19  1  0
 19 20  1  0
 20 21  1  0
 21 22  2  0
 22 23  1  0
 23 24  2  0
 24 25  1  0
 25 26  2  0
 26 27  1  0
  7 28  2  0
 28  2  1  0
 16 11  1  0
 26 21  1  0
  1 29  1  0
  1 30  1  0
  1 31  1  0
  3 32  1  0
  5 33  1  0
  5 34  1  0
  5 35  1  0
  6 36  1  0
 12 37  1  0
 13 38  1  0
 14 39  1  0
 15 40  1  0
 19 41  1  0
 20 42  1  0
 20 43  1  0
 22 44  1  0
 23 45  1  0
 24 46  1  0
 25 47  1  0
 28 48  1  0
M  CHG  1  27  -1
M  END
>  <UniqueID>  (47) 
47

>  <SMILES>  (47) 
Cc1cc(C)cc(S(=O)(=O)c2ccccc2C(=O)NCc2ccccc2[O-])c1

>  <Energy>  (47) 
52.87311277108037

>  <Genealogy>  (47) 
Cc1cc(C)cc(S(=O)(=O)c2ccccc2C(=O)NCc2ccccc2[O-])c1 (protonated)
Cc1cc(C)cc(S(=O)(=O)c2ccccc2C(=O)NCc2ccccc2[O-])c1 (3D coordinates assigned)
Cc1cc(C)cc(S(=O)(=O)c2ccccc2C(=O)NCc2ccccc2[O-])c1 (optimized conformer: 52.87311277108037 kcal/mol)

>  <smiles>  (47) 
Cc1cc(C)cc(S(=O)(=O)c2ccccc2C(=O)NCc2ccccc2O)c1

>  <score_type>  (47) 
oracle

>  <origin>  (47) 
adgpu

>  <m_score__min__energy>  (47) 
-12.34

>  <m_primary>  (47) 
energy

$$$$
47:0
     RDKit          3D

 54 56  0  0  0  0  0  0  0  0999 V2000
   -2.0020   18.8150  -33.7960 C   0  0  0  0  0  0  0  0  0  0  0  0
   -2.2450   20.3220  -33.8670 C   0  0  0  0  0  0  0  0  0  0  0  0
   -0.9440   21.1430  -33.8620 C   0  0  0  0  0  0  0  0  0  0  0  0
    0.1130   20.6190  -32.8670 C   0  0  0  0  0  0  0  0  0  0  0  0
   -0.1660   21.0760  -31.4280 C   0  0  0  0  0  0  0  0  0  0  0  0
   -1.0060   20.0800  -30.6160 C   0  0  0  0  0  0  0  0  0  0  0  0
   -1.8860   20.7680  -29.6590 N   0  0  0  0  0  0  0  0  0  0  0  0
   -1.9980   20.5990  -28.3190 C   0  0  0  0  0  0  0  0  0  0  0  0
   -1.1720   19.7650  -27.4870 N   0  0  0  0  0  0  0  0  0  0  0  0
    0.0710   19.8650  -27.5560 O   0  0  0  0  0  0  0  0  0  0  0  0
   -1.7090   18.7730  -26.7030 O   0  0  0  0  0  0  0  0  0  0  0  0
   -3.0250   21.3890  -27.8530 C   0  0  0  0  0  0  0  0  0  0  0  0
   -3.5490   22.0830  -28.8780 N   0  0  0  0  0  0  0  0  0  0  0  0
   -2.8470   21.6790  -29.9580 C   0  0  0  0  0  0  0  0  0  0  0  0
   -3.0650   22.4700  -31.5610 S   0  0  0  0  0  0  0  0  0  0  0  0
   -4.6300   23.2630  -31.1620 C   0  0  0  0  0  0  0  0  0  0  0  0
   -5.8240   22.5820  -31.4330 C   0  0  0  0  0  0  0  0  0  0  0  0
   -7.0630   23.1870  -31.1870 C   0  0  0  0  0  0  0  0  0  0  0  0
   -8.5620   22.3370  -31.5700 S   0  0  0  0  0  0  0  0  0  0  0  0
   -9.5920   23.3050  -32.0800 O   0  0  0  0  0  0  0  0  0  0  0  0
   -9.1090   21.7070  -30.3200 O   0  0  0  0  0  0  0  0  0  0  0  0
   -8.2760   21.0660  -32.7190 N   0  0  0  0  0  0  0  0  0  0  0  0
   -7.4040   19.9330  -32.5760 C   0  0  0  0  0  0  0  0  0  0  0  0
   -7.6550   18.8870  -31.6670 C   0  0  0  0  0  0  0  0  0  0  0  0
   -6.7900   17.7900  -31.6010 C   0  0  0  0  0  0  0  0  0  0  0  0
   -5.6680   17.7290  -32.4330 C   0  0  0  0  0  0  0  0  0  0  0  0
   -5.4010   18.7730  -33.3210 C   0  0  0  0  0  0  0  0  0  0  0  0
   -6.2620   19.8700  -33.3890 C   0  0  0  0  0  0  0  0  0  0  0  0
   -7.0990   24.4870  -30.6590 C   0  0  0  0  0  0  0  0  0  0  0  0
   -5.9110   25.1780  -30.4070 C   0  0  0  0  0  0  0  0  0  0  0  0
   -4.6760   24.5780  -30.6750 C   0  0  0  0  0  0  0  0  0  0  0  0
   -3.5060   25.2970  -30.4570 O   0  0  0  0  0  0  0  0  0  0  0  0
   -1.9514   18.5010  -32.7430 H   0  0  0  0  0  0  0  0  0  0  0  0
   -2.8265   18.2866  -34.2970 H   0  0  0  0  0  0  0  0  0  0  0  0
   -1.0532   18.5726  -34.2970 H   0  0  0  0  0  0  0  0  0  0  0  0
   -2.7961   20.5447  -34.7926 H   0  0  0  0  0  0  0  0  0  0  0  0
   -2.8155   20.6053  -32.9702 H   0  0  0  0  0  0  0  0  0  0  0  0
   -0.5125   21.1171  -34.8735 H   0  0  0  0  0  0  0  0  0  0  0  0
   -1.2073   22.1631  -33.5456 H   0  0  0  0  0  0  0  0  0  0  0  0
    0.1117   19.5194  -32.8957 H   0  0  0  0  0  0  0  0  0  0  0  0
    1.0896   21.0269  -33.1668 H   0  0  0  0  0  0  0  0  0  0  0  0
    0.7971   21.2169  -30.9155 H   0  0  0  0  0  0  0  0  0  0  0  0
   -0.7468   22.0078  -31.4936 H   0  0  0  0  0  0  0  0  0  0  0  0
   -1.6238   19.4875  -31.3069 H   0  0  0  0  0  0  0  0  0  0  0  0
   -0.3201   19.4332  -30.0492 H   0  0  0  0  0  0  0  0  0  0  0  0
   -3.3630   21.4435  -26.8077 H   0  0  0  0  0  0  0  0  0  0  0  0
   -5.7880   21.5619  -31.8431 H   0  0  0  0  0  0  0  0  0  0  0  0
   -8.5339   18.9329  -31.0071 H   0  0  0  0  0  0  0  0  0  0  0  0
   -6.9929   16.9732  -30.8928 H   0  0  0  0  0  0  0  0  0  0  0  0
   -4.9961   16.8592  -32.3881 H   0  0  0  0  0  0  0  0  0  0  0  0
   -4.5119   18.7311  -33.9673 H   0  0  0  0  0  0  0  0  0  0  0  0
   -6.0432   20.6923  -34.0861 H   0  0  0  0  0  0  0  0  0  0  0  0
   -8.0664   24.9638  -30.4427 H   0  0  0  0  0  0  0  0  0  0  0  0
   -5.9470   26.1978  -29.9963 H   0  0  0  0  0  0  0  0  0  0  0  0
  1  2  1  0
  2  3  1  0
  3  4  1  0
  4  5  1  0
  5  6  1  0
  6  7  1  0
  7  8  1  0
  8  9  1  0
  9 10  2  0
  9 11  1  0
  8 12  2  0
 12 13  1  0
 13 14  2  0
 14 15  1  0
 15 16  1  0
 16 17  2  0
 17 18  1  0
 18 19  1  0
 19 20  2  0
 19 21  2  0
 19 22  1  0
 22 23  1  0
 23 24  2  0
 24 25  1  0
 25 26  2  0
 26 27  1  0
 27 28  2  0
 18 29  2  0
 29 30  1  0
 30 31  2  0
 31 32  1  0
 14  7  1  0
 31 16  1  0
 28 23  1  0
  1 33  1  0
  1 34  1  0
  1 35  1  0
  2 36  1  0
  2 37  1  0
  3 38  1  0
  3 39  1  0
  4 40  1  0
  4 41  1  0
  5 42  1  0
  5 43  1  0
  6 44  1  0
  6 45  1  0
 12 46  1  0
 17 47  1  0
 24 48  1  0
 25 49  1  0
 26 50  1  0
 27 51  1  0
 28 52  1  0
 29 53  1  0
 30 54  1  0
M  CHG  4   9   1  11  -1  22  -1  32  -1
M  END
>  <UniqueID>  (48) 
48

>  <SMILES>  (48) 
CCCCCCn1c([N+](=O)[O-])cnc1Sc1cc(S(=O)(=O)[N-]c2ccccc2)ccc1[O-]

>  <Energy>  (48) 
79.35425462591603

>  <Genealogy>  (48) 
CCCCCCn1c([N+](=O)[O-])cnc1Sc1cc(S(=O)(=O)[N-]c2ccccc2)ccc1[O-] (protonated)
CCCCCCn1c([N+](=O)[O-])cnc1Sc1cc(S(=O)(=O)[N-]c2ccccc2)ccc1[O-] (3D coordinates assigned)
CCCCCCn1c([N+](=O)[O-])cnc1Sc1cc(S(=O)(=O)[N-]c2ccccc2)ccc1[O-] (optimized conformer: 79.35425462591603 kcal/mol)

>  <smiles>  (48) 
CCCCCCn1c([N+](=O)[O-])cnc1Sc1cc(S(=O)(=O)Nc2ccccc2)ccc1O

>  <score_type>  (48) 
oracle

>  <origin>  (48) 
adgpu

>  <m_score__min__energy>  (48) 
-11.619999999999999

>  <m_primary>  (48) 
energy

$$$$
48:0
     RDKit          3D

 52 56  0  0  0  0  0  0  0  0999 V2000
   -2.0830   22.4052  -26.8167 H   0  0  0  0  0  0  0  0  0  0  0  0
   -2.1350   23.0680  -27.6930 C   0  0  0  0  0  0  0  0  0  0  0  0
   -1.1020   23.5910  -28.3200 O   0  0  0  0  0  0  0  0  0  0  0  0
   -1.4940   24.3290  -29.3150 N   0  0  0  0  0  0  0  0  0  0  0  0
   -0.8620   24.8500  -29.9640 H   0  0  0  0  0  0  0  0  0  0  0  0
   -2.8350   24.2910  -29.3440 C   0  0  0  0  0  0  0  0  0  0  0  0
   -3.5480   24.9250  -30.2250 N   0  0  0  0  0  0  0  0  0  0  0  0
   -5.2810   24.8890  -30.2860 S   0  0  0  0  0  0  0  0  0  0  0  0
   -5.8490   25.1080  -28.9120 O   0  0  0  0  0  0  0  0  0  0  0  0
   -5.7810   25.9680  -31.2060 O   0  0  0  0  0  0  0  0  0  0  0  0
   -5.7950   23.3140  -30.8820 C   0  0  0  0  0  0  0  0  0  0  0  0
   -4.8480   22.3560  -31.2570 C   0  0  0  0  0  0  0  0  0  0  0  0
   -3.7757   22.5913  -31.1878 H   0  0  0  0  0  0  0  0  0  0  0  0
   -5.2550   21.1020  -31.7190 C   0  0  0  0  0  0  0  0  0  0  0  0
   -4.4989   20.3606  -32.0169 H   0  0  0  0  0  0  0  0  0  0  0  0
   -6.6270   20.7750  -31.8080 C   0  0  0  0  0  0  0  0  0  0  0  0
   -7.5790   21.7540  -31.4230 C   0  0  0  0  0  0  0  0  0  0  0  0
   -7.1570   23.0090  -30.9600 C   0  0  0  0  0  0  0  0  0  0  0  0
   -7.9029   23.7583  -30.6562 H   0  0  0  0  0  0  0  0  0  0  0  0
   -8.9400   21.4580  -31.5110 C   0  0  0  0  0  0  0  0  0  0  0  0
   -9.6872   22.2085  -31.2134 H   0  0  0  0  0  0  0  0  0  0  0  0
   -9.3500   20.2140  -31.9750 C   0  0  0  0  0  0  0  0  0  0  0  0
  -10.4222   19.9797  -32.0491 H   0  0  0  0  0  0  0  0  0  0  0  0
   -8.3990   19.2620  -32.3470 C   0  0  0  0  0  0  0  0  0  0  0  0
   -8.7930   18.1360  -32.7610 O   0  0  0  0  0  0  0  0  0  0  0  0
   -7.0580   19.5440  -32.2600 N   0  0  0  0  0  0  0  0  0  0  0  0
   -6.1160   18.5230  -32.6430 C   0  0  0  0  0  0  0  0  0  0  0  0
   -6.1430   17.2700  -32.0190 C   0  0  0  0  0  0  0  0  0  0  0  0
   -6.8874   17.0633  -31.2360 H   0  0  0  0  0  0  0  0  0  0  0  0
   -5.2270   16.2810  -32.3880 C   0  0  0  0  0  0  0  0  0  0  0  0
   -5.2530   15.2999  -31.8913 H   0  0  0  0  0  0  0  0  0  0  0  0
   -4.2730   16.5310  -33.3890 C   0  0  0  0  0  0  0  0  0  0  0  0
   -3.3130   15.4730  -33.7790 C   0  0  0  0  0  0  0  0  0  0  0  0
   -2.5530   14.8140  -32.7980 C   0  0  0  0  0  0  0  0  0  0  0  0
   -2.6796   15.0813  -31.7385 H   0  0  0  0  0  0  0  0  0  0  0  0
   -1.6380   13.8220  -33.1580 C   0  0  0  0  0  0  0  0  0  0  0  0
   -1.0596   13.3049  -32.3782 H   0  0  0  0  0  0  0  0  0  0  0  0
   -1.4500   13.4790  -34.5070 C   0  0  0  0  0  0  0  0  0  0  0  0
   -0.5000   12.3720  -34.8890 C   0  0  0  0  0  0  0  0  0  0  0  0
   -0.3700   11.4610  -33.8550 F   0  0  0  0  0  0  0  0  0  0  0  0
   -0.9620   11.6960  -36.0060 F   0  0  0  0  0  0  0  0  0  0  0  0
    0.7400   12.9130  -35.1710 F   0  0  0  0  0  0  0  0  0  0  0  0
   -2.2310   14.1180  -35.4850 C   0  0  0  0  0  0  0  0  0  0  0  0
   -2.1207   13.8326  -36.5416 H   0  0  0  0  0  0  0  0  0  0  0  0
   -3.1470   15.1130  -35.1290 C   0  0  0  0  0  0  0  0  0  0  0  0
   -3.8950   15.6980  -36.0990 F   0  0  0  0  0  0  0  0  0  0  0  0
   -4.2520   17.7930  -34.0180 C   0  0  0  0  0  0  0  0  0  0  0  0
   -3.3270   18.0780  -34.9680 F   0  0  0  0  0  0  0  0  0  0  0  0
   -5.1700   18.7790  -33.6440 C   0  0  0  0  0  0  0  0  0  0  0  0
   -5.1493   19.7613  -34.1386 H   0  0  0  0  0  0  0  0  0  0  0  0
   -3.2960   23.4880  -28.3160 C   0  0  0  0  0  0  0  0  0  0  0  0
   -4.3364   23.2425  -28.0565 H   0  0  0  0  0  0  0  0  0  0  0  0
  1  2  1  0
  2  3  1  0
  3  4  1  0
  4  5  1  0
  4  6  1  0
  6  7  2  0
  7  8  1  0
  8  9  2  0
  8 10  2  0
  8 11  1  0
 11 12  2  0
 12 13  1  0
 12 14  1  0
 14 15  1  0
 14 16  2  0
 16 17  1  0
 17 18  2  0
 18 19  1  0
 17 20  1  0
 20 21  1  0
 20 22  2  0
 22 23  1  0
 22 24  1  0
 24 25  2  0
 24 26  1  0
 26 27  1  0
 27 28  2  0
 28 29  1  0
 28 30  1  0
 30 31  1  0
 30 32  2  0
 32 33  1  0
 33 34  2  0
 34 35  1  0
 34 36  1  0
 36 37  1  0
 36 38  2  0
 38 39  1  0
 39 40  1  0
 39 41  1  0
 39 42  1  0
 38 43  1  0
 43 44  1  0
 43 45  2  0
 45 46  1  0
 32 47  1  0
 47 48  1  0
 47 49  2  0
 49 50  1  0
  6 51  1  0
 51 52  1  0
 51  2  2  0
 18 11  1  0
 49 27  1  0
 26 16  1  0
 45 33  1  0
M  END
>  <UniqueID>  (49) 
49

>  <SMILES>  (49) 
O=c1ccc2cc(S(=O)(=O)/N=c3\cco[nH]3)ccc2n1-c1ccc(-c2ccc(C(F)(F)F)cc2F)c(F)c1

>  <Energy>  (49) 
117.85484317286218

>  <Genealogy>  (49) 
O=c1ccc2cc(S(=O)(=O)/N=c3\cco[nH]3)ccc2n1-c1ccc(-c2ccc(C(F)(F)F)cc2F)c(F)c1 (cis-trans isomerization)
O=c1ccc2cc(S(=O)(=O)/N=c3\cco[nH]3)ccc2n1-c1ccc(-c2ccc(C(F)(F)F)cc2F)c(F)c1 (3D coordinates assigned)
O=c1ccc2cc(S(=O)(=O)/N=c3\cco[nH]3)ccc2n1-c1ccc(-c2ccc(C(F)(F)F)cc2F)c(F)c1 (optimized conformer: 117.85484317286218 kcal/mol)

>  <smiles>  (49) 
O=c1ccc2cc(S(=O)(=O)N=c3cco[nH]3)ccc2n1-c1ccc(-c2ccc(C(F)(F)F)cc2F)c(F)c1

>  <score_type>  (49) 
oracle

>  <origin>  (49) 
adgpu

>  <m_score__min__energy>  (49) 
-10.449999999999999

>  <m_primary>  (49) 
energy

$$$$
49:0
     RDKit          3D

 45 47  0  0  0  0  0  0  0  0999 V2000
   -3.3690   11.5110  -32.8710 C   0  0  0  0  0  0  0  0  0  0  0  0
   -3.9570   12.6860  -31.6730 S   0  0  0  0  0  0  0  0  0  0  0  0
   -2.8260   13.0970  -30.7720 O   0  0  0  0  0  0  0  0  0  0  0  0
   -5.0340   12.0520  -30.8370 O   0  0  0  0  0  0  0  0  0  0  0  0
   -4.5960   14.0990  -32.5070 C   0  0  0  0  0  0  0  0  0  0  0  0
   -4.9970   15.2230  -31.7740 C   0  0  0  0  0  0  0  0  0  0  0  0
   -5.4920   16.3530  -32.4310 C   0  0  0  0  0  0  0  0  0  0  0  0
   -5.5820   16.3740  -33.8320 C   0  0  0  0  0  0  0  0  0  0  0  0
   -6.1540   17.5710  -34.5400 C   0  0  0  0  0  0  0  0  0  0  0  0
   -5.6910   18.8310  -33.8760 C   0  0  0  0  0  0  0  0  0  0  0  0
   -4.4570   19.0150  -33.6970 O   0  0  0  0  0  0  0  0  0  0  0  0
   -6.6400   19.8540  -33.5350 N   0  0  0  0  0  0  0  0  0  0  0  0
   -6.3190   21.0360  -32.7830 C   0  0  0  0  0  0  0  0  0  0  0  0
   -4.9900   21.4850  -32.7440 C   0  0  0  0  0  0  0  0  0  0  0  0
   -4.6530   22.6430  -32.0380 C   0  0  0  0  0  0  0  0  0  0  0  0
   -5.6430   23.3780  -31.3740 C   0  0  0  0  0  0  0  0  0  0  0  0
   -5.2040   24.8260  -30.4740 S   0  0  0  0  0  0  0  0  0  0  0  0
   -5.7460   26.0310  -31.1900 O   0  0  0  0  0  0  0  0  0  0  0  0
   -5.7890   24.7660  -29.0910 O   0  0  0  0  0  0  0  0  0  0  0  0
   -3.4750   24.9190  -30.3750 N   0  0  0  0  0  0  0  0  0  0  0  0
   -2.7860   24.6060  -29.3220 C   0  0  0  0  0  0  0  0  0  0  0  0
   -1.4410   24.6960  -29.2890 N   0  0  0  0  0  0  0  0  0  0  0  0
   -0.9410   24.3140  -28.0830 C   0  0  0  0  0  0  0  0  0  0  0  0
   -1.8920   23.9150  -27.1490 C   0  0  0  0  0  0  0  0  0  0  0  0
   -3.4120   24.0480  -27.8580 S   0  0  0  0  0  0  0  0  0  0  0  0
   -6.9760   22.9440  -31.4230 C   0  0  0  0  0  0  0  0  0  0  0  0
   -7.3130   21.7860  -32.1300 C   0  0  0  0  0  0  0  0  0  0  0  0
   -5.1840   15.2440  -34.5650 C   0  0  0  0  0  0  0  0  0  0  0  0
   -4.6860   14.1150  -33.9050 C   0  0  0  0  0  0  0  0  0  0  0  0
   -2.9350   10.6438  -32.3517 H   0  0  0  0  0  0  0  0  0  0  0  0
   -4.2073   11.1792  -33.5012 H   0  0  0  0  0  0  0  0  0  0  0  0
   -2.6009   11.9831  -33.5012 H   0  0  0  0  0  0  0  0  0  0  0  0
   -4.9221   15.2165  -30.6766 H   0  0  0  0  0  0  0  0  0  0  0  0
   -5.8123   17.2292  -31.8482 H   0  0  0  0  0  0  0  0  0  0  0  0
   -5.8198   17.5680  -35.5880 H   0  0  0  0  0  0  0  0  0  0  0  0
   -7.2522   17.5239  -34.4974 H   0  0  0  0  0  0  0  0  0  0  0  0
   -7.6040   19.7750  -33.9330 H   0  0  0  0  0  0  0  0  0  0  0  0
   -4.2076   20.9212  -33.2731 H   0  0  0  0  0  0  0  0  0  0  0  0
   -3.6060   22.9785  -32.0037 H   0  0  0  0  0  0  0  0  0  0  0  0
    0.1366   24.3201  -27.8623 H   0  0  0  0  0  0  0  0  0  0  0  0
   -1.6858   23.5720  -26.1244 H   0  0  0  0  0  0  0  0  0  0  0  0
   -7.7585   23.5166  -30.9036 H   0  0  0  0  0  0  0  0  0  0  0  0
   -8.3624   21.4595  -32.1757 H   0  0  0  0  0  0  0  0  0  0  0  0
   -5.2641   15.2465  -35.6621 H   0  0  0  0  0  0  0  0  0  0  0  0
   -4.3643   13.2377  -34.4854 H   0  0  0  0  0  0  0  0  0  0  0  0
  1  2  1  0
  2  3  2  0
  2  4  2  0
  2  5  1  0
  5  6  2  0
  6  7  1  0
  7  8  2  0
  8  9  1  0
  9 10  1  0
 10 11  2  0
 10 12  1  0
 12 13  1  0
 13 14  2  0
 14 15  1  0
 15 16  2  0
 16 17  1  0
 17 18  2  0
 17 19  2  0
 17 20  1  0
 20 21  2  3
 21 22  1  0
 22 23  1  0
 23 24  2  0
 24 25  1  0
 16 26  1  0
 26 27  2  0
  8 28  1  0
 28 29  2  0
 29  5  1  0
 27 13  1  0
 25 21  1  0
  1 30  1  0
  1 31  1  0
  1 32  1  0
  6 33  1  0
  7 34  1  0
  9 35  1  0
  9 36  1  0
 12 37  1  0
 14 38  1  0
 15 39  1  0
 23 40  1  0
 24 41  1  0
 26 42  1  0
 27 43  1  0
 28 44  1  0
 29 45  1  0
M  CHG  1  22  -1
M  END
>  <UniqueID>  (50) 
50

>  <SMILES>  (50) 
CS(=O)(=O)c1ccc(CC(=O)Nc2ccc(S(=O)(=O)N=c3[n-]ccs3)cc2)cc1

>  <Energy>  (50) 
80.2120722215605

>  <Genealogy>  (50) 
CS(=O)(=O)c1ccc(CC(=O)Nc2ccc(S(=O)(=O)N=c3[n-]ccs3)cc2)cc1 (protonated)
CS(=O)(=O)c1ccc(CC(=O)Nc2ccc(S(=O)(=O)N=c3[n-]ccs3)cc2)cc1 (3D coordinates assigned)
CS(=O)(=O)c1ccc(CC(=O)Nc2ccc(S(=O)(=O)N=c3[n-]ccs3)cc2)cc1 (optimized conformer: 80.2120722215605 kcal/mol)

>  <smiles>  (50) 
CS(=O)(=O)c1ccc(CC(=O)Nc2ccc(S(=O)(=O)N=c3[nH]ccs3)cc2)cc1

>  <score_type>  (50) 
oracle

>  <origin>  (50) 
adgpu

>  <m_score__min__energy>  (50) 
-10.81

>  <m_primary>  (50) 
energy

$$$$
