0:0
     RDKit          3D

 51 54  0  0  0  0  0  0  0  0999 V2000
   -9.1090   19.7690  -32.0670 C   0  0  0  0  0  0  0  0  0  0  0  0
   -8.1330   20.9090  -32.0350 C   0  0  0  0  0  0  0  0  0  0  0  0
   -8.5590   22.1800  -31.6170 C   0  0  0  0  0  0  0  0  0  0  0  0
   -7.6680   23.2570  -31.5930 C   0  0  0  0  0  0  0  0  0  0  0  0
   -6.3360   23.0810  -32.0060 C   0  0  0  0  0  0  0  0  0  0  0  0
   -5.3900   24.1630  -31.9740 N   0  0  0  0  0  0  0  0  0  0  0  0
   -4.9290   24.8470  -30.8010 C   0  0  0  0  0  0  0  0  0  0  0  0
   -3.9000   25.5780  -30.8410 O   0  0  0  0  0  0  0  0  0  0  0  0
   -5.6880   24.6960  -29.5220 C   0  0  0  0  0  0  0  0  0  0  0  0
   -4.6040   24.1770  -28.1420 S   0  0  0  0  0  0  0  0  0  0  0  0
   -3.6900   22.9260  -29.0530 C   0  0  0  0  0  0  0  0  0  0  0  0
   -4.2820   21.9700  -29.7950 N   0  0  0  0  0  0  0  0  0  0  0  0
   -3.3140   21.2060  -30.2840 N   0  0  0  0  0  0  0  0  0  0  0  0
   -2.1460   21.7040  -29.8250 C   0  0  0  0  0  0  0  0  0  0  0  0
   -0.8070   21.1100  -30.1460 C   0  0  0  0  0  0  0  0  0  0  0  0
   -0.5080   19.9420  -29.2440 C   0  0  0  0  0  0  0  0  0  0  0  0
    0.5800   19.0930  -29.5180 C   0  0  0  0  0  0  0  0  0  0  0  0
    0.8780   18.0280  -28.6580 C   0  0  0  0  0  0  0  0  0  0  0  0
    0.0960   17.8030  -27.5200 C   0  0  0  0  0  0  0  0  0  0  0  0
   -0.9950   18.6390  -27.2470 C   0  0  0  0  0  0  0  0  0  0  0  0
   -1.2930   19.7040  -28.1010 C   0  0  0  0  0  0  0  0  0  0  0  0
   -2.3520   22.7800  -29.0410 N   0  0  0  0  0  0  0  0  0  0  0  0
   -1.3780   23.6020  -28.3890 C   0  0  0  0  0  0  0  0  0  0  0  0
   -0.4200   23.0170  -27.5480 C   0  0  0  0  0  0  0  0  0  0  0  0
    0.4950   23.8200  -26.8620 C   0  0  0  0  0  0  0  0  0  0  0  0
    0.4570   25.2110  -27.0170 C   0  0  0  0  0  0  0  0  0  0  0  0
   -0.4970   25.7990  -27.8570 C   0  0  0  0  0  0  0  0  0  0  0  0
   -0.5360   27.1480  -28.0050 F   0  0  0  0  0  0  0  0  0  0  0  0
   -1.4180   24.9940  -28.5400 C   0  0  0  0  0  0  0  0  0  0  0  0
   -5.9010   21.8100  -32.4000 C   0  0  0  0  0  0  0  0  0  0  0  0
   -6.7900   20.7270  -32.4320 C   0  0  0  0  0  0  0  0  0  0  0  0
   -6.1980   19.1630  -32.9960 Cl  0  0  0  0  0  0  0  0  0  0  0  0
   -9.3618   19.4737  -31.0380 H   0  0  0  0  0  0  0  0  0  0  0  0
  -10.0225   20.0830  -32.5932 H   0  0  0  0  0  0  0  0  0  0  0  0
   -8.6580   18.9148  -32.5932 H   0  0  0  0  0  0  0  0  0  0  0  0
   -9.6033   22.3296  -31.3056 H   0  0  0  0  0  0  0  0  0  0  0  0
   -8.0102   24.2446  -31.2501 H   0  0  0  0  0  0  0  0  0  0  0  0
   -6.1508   25.6608  -29.2671 H   0  0  0  0  0  0  0  0  0  0  0  0
   -6.4504   23.9166  -29.6681 H   0  0  0  0  0  0  0  0  0  0  0  0
   -0.8060   20.7675  -31.1913 H   0  0  0  0  0  0  0  0  0  0  0  0
   -0.0353   21.8789  -29.9934 H   0  0  0  0  0  0  0  0  0  0  0  0
    1.1989   19.2661  -30.4108 H   0  0  0  0  0  0  0  0  0  0  0  0
    1.7292   17.3669  -28.8781 H   0  0  0  0  0  0  0  0  0  0  0  0
    0.3370   16.9718  -26.8411 H   0  0  0  0  0  0  0  0  0  0  0  0
   -1.6179   18.4565  -26.3589 H   0  0  0  0  0  0  0  0  0  0  0  0
   -2.1469   20.3606  -27.8782 H   0  0  0  0  0  0  0  0  0  0  0  0
   -0.3889   21.9240  -27.4282 H   0  0  0  0  0  0  0  0  0  0  0  0
    1.2442   23.3598  -26.2010 H   0  0  0  0  0  0  0  0  0  0  0  0
    1.1779   25.8433  -26.4779 H   0  0  0  0  0  0  0  0  0  0  0  0
   -2.1723   25.4549  -29.1946 H   0  0  0  0  0  0  0  0  0  0  0  0
   -4.8500   21.6597  -32.6876 H   0  0  0  0  0  0  0  0  0  0  0  0
  1  2  1  0
  2  3  2  0
  3  4  1  0
  4  5  2  0
  5  6  1  0
  6  7  1  0
  7  8  2  0
  7  9  1  0
  9 10  1  0
 10 11  1  0
 11 12  2  0
 12 13  1  0
 13 14  2  0
 14 15  1  0
 15 16  1  0
 16 17  2  0
 17 18  1  0
 18 19  2  0
 19 20  1  0
 20 21  2  0
 14 22  1  0
 22 23  1  0
 23 24  2  0
 24 25  1  0
 25 26  2  0
 26 27  1  0
 27 28  1  0
 27 29  2  0
  5 30  1  0
 30 31  2  0
 31 32  1  0
 31  2  1  0
 22 11  1  0
 29 23  1  0
 21 16  1  0
  1 33  1  0
  1 34  1  0
  1 35  1  0
  3 36  1  0
  4 37  1  0
  9 38  1  0
  9 39  1  0
 15 40  1  0
 15 41  1  0
 17 42  1  0
 18 43  1  0
 19 44  1  0
 20 45  1  0
 21 46  1  0
 24 47  1  0
 25 48  1  0
 26 49  1  0
 29 50  1  0
 30 51  1  0
M  CHG  1   6  -1
M  END
>  <UniqueID>  (1) 
1

>  <SMILES>  (1) 
Cc1ccc([N-]C(=O)CSc2nnc(Cc3ccccc3)n2-c2cccc(F)c2)cc1Cl

>  <Energy>  (1) 
90.41011242656975

>  <Genealogy>  (1) 
Cc1ccc([N-]C(=O)CSc2nnc(Cc3ccccc3)n2-c2cccc(F)c2)cc1Cl (protonated)
Cc1ccc([N-]C(=O)CSc2nnc(Cc3ccccc3)n2-c2cccc(F)c2)cc1Cl (3D coordinates assigned)
Cc1ccc([N-]C(=O)CSc2nnc(Cc3ccccc3)n2-c2cccc(F)c2)cc1Cl (optimized conformer: 90.41011242656975 kcal/mol)

>  <smiles>  (1) 
Cc1ccc(NC(=O)CSc2nnc(Cc3ccccc3)n2-c2cccc(F)c2)cc1Cl

>  <score_type>  (1) 
oracle

>  <origin>  (1) 
adgpu

>  <m_score__min__energy>  (1) 
-11.66

>  <m_primary>  (1) 
energy

$$$$
1:0
     RDKit          3D

 32 33  0  0  0  0  0  0  0  0999 V2000
   -3.5400   23.3550  -31.0460 O   0  0  0  0  0  0  0  0  0  0  0  0
   -3.4620   24.4470  -30.4220 C   0  0  0  0  0  0  0  0  0  0  0  0
   -4.2970   25.5330  -30.8470 N   0  0  0  0  0  0  0  0  0  0  0  0
   -5.7210   25.6990  -30.5700 C   0  0  0  0  0  0  0  0  0  0  0  0
   -6.3900   24.3350  -30.3650 C   0  0  0  0  0  0  0  0  0  0  0  0
   -6.7260   23.6600  -31.6990 C   0  0  0  0  0  0  0  0  0  0  0  0
   -7.8360   22.7700  -31.5690 O   0  0  0  0  0  0  0  0  0  0  0  0
   -7.8560   21.4240  -31.9680 C   0  0  0  0  0  0  0  0  0  0  0  0
   -6.7920   20.8180  -32.6670 C   0  0  0  0  0  0  0  0  0  0  0  0
   -6.8630   19.4660  -33.0230 C   0  0  0  0  0  0  0  0  0  0  0  0
   -7.9860   18.7090  -32.6800 C   0  0  0  0  0  0  0  0  0  0  0  0
   -9.0430   19.3030  -31.9870 C   0  0  0  0  0  0  0  0  0  0  0  0
   -8.9790   20.6550  -31.6370 C   0  0  0  0  0  0  0  0  0  0  0  0
   -2.5330   24.5490  -29.2800 C   0  0  0  0  0  0  0  0  0  0  0  0
   -2.2850   23.5460  -28.3610 C   0  0  0  0  0  0  0  0  0  0  0  0
   -1.3890   24.0740  -27.4570 C   0  0  0  0  0  0  0  0  0  0  0  0
   -1.1520   25.3650  -27.8780 C   0  0  0  0  0  0  0  0  0  0  0  0
   -0.0140   26.6190  -27.0060 Br  0  0  0  0  0  0  0  0  0  0  0  0
   -1.8410   25.6200  -28.9640 O   0  0  0  0  0  0  0  0  0  0  0  0
   -5.8447   26.3035  -29.6594 H   0  0  0  0  0  0  0  0  0  0  0  0
   -6.1939   26.2024  -31.4261 H   0  0  0  0  0  0  0  0  0  0  0  0
   -5.7068   23.6847  -29.7990 H   0  0  0  0  0  0  0  0  0  0  0  0
   -7.3298   24.4941  -29.8159 H   0  0  0  0  0  0  0  0  0  0  0  0
   -6.9736   24.4348  -32.4396 H   0  0  0  0  0  0  0  0  0  0  0  0
   -5.8510   23.0766  -32.0213 H   0  0  0  0  0  0  0  0  0  0  0  0
   -5.9035   21.4093  -32.9334 H   0  0  0  0  0  0  0  0  0  0  0  0
   -6.0332   18.9989  -33.5737 H   0  0  0  0  0  0  0  0  0  0  0  0
   -8.0376   17.6454  -32.9557 H   0  0  0  0  0  0  0  0  0  0  0  0
   -9.9267   18.7065  -31.7163 H   0  0  0  0  0  0  0  0  0  0  0  0
   -9.8177   21.1188  -31.0971 H   0  0  0  0  0  0  0  0  0  0  0  0
   -2.7151   22.5336  -28.3532 H   0  0  0  0  0  0  0  0  0  0  0  0
   -0.9535   23.5701  -26.5815 H   0  0  0  0  0  0  0  0  0  0  0  0
  1  2  2  0
  2  3  1  0
  3  4  1  0
  4  5  1  0
  5  6  1  0
  6  7  1  0
  7  8  1  0
  8  9  2  0
  9 10  1  0
 10 11  2  0
 11 12  1  0
 12 13  2  0
  2 14  1  0
 14 15  2  0
 15 16  1  0
 16 17  2  0
 17 18  1  0
 17 19  1  0
 13  8  1  0
 19 14  1  0
  4 20  1  0
  4 21  1  0
  5 22  1  0
  5 23  1  0
  6 24  1  0
  6 25  1  0
  9 26  1  0
 10 27  1  0
 11 28  1  0
 12 29  1  0
 13 30  1  0
 15 31  1  0
 16 32  1  0
M  CHG  1   3  -1
M  END
>  <UniqueID>  (2) 
2

>  <SMILES>  (2) 
O=C([N-]CCCOc1ccccc1)c1ccc(Br)o1

>  <Energy>  (2) 
52.489061603799634

>  <Genealogy>  (2) 
O=C([N-]CCCOc1ccccc1)c1ccc(Br)o1 (protonated)
O=C([N-]CCCOc1ccccc1)c1ccc(Br)o1 (3D coordinates assigned)
O=C([N-]CCCOc1ccccc1)c1ccc(Br)o1 (optimized conformer: 52.489061603799634 kcal/mol)

>  <smiles>  (2) 
O=C(NCCCOc1ccccc1)c1ccc(Br)o1

>  <score_type>  (2) 
oracle

>  <origin>  (2) 
adgpu

>  <m_score__min__energy>  (2) 
-8.8599999999999994

>  <m_primary>  (2) 
energy

$$$$
2:0
     RDKit          3D

 36 38  0  0  0  0  0  0  0  0999 V2000
   -5.4180   26.4370  -30.0980 O   0  0  0  0  0  0  0  0  0  0  0  0
   -4.9770   25.3270  -30.4950 C   0  0  0  0  0  0  0  0  0  0  0  0
   -3.5620   25.0970  -30.4720 N   0  0  0  0  0  0  0  0  0  0  0  0
   -2.8500   24.2790  -29.5320 C   0  0  0  0  0  0  0  0  0  0  0  0
   -2.1110   24.9150  -28.5260 C   0  0  0  0  0  0  0  0  0  0  0  0
   -1.3900   24.1660  -27.5940 C   0  0  0  0  0  0  0  0  0  0  0  0
   -1.4180   22.7720  -27.6460 C   0  0  0  0  0  0  0  0  0  0  0  0
   -2.1760   22.1220  -28.6220 C   0  0  0  0  0  0  0  0  0  0  0  0
   -2.9020   22.8630  -29.5720 C   0  0  0  0  0  0  0  0  0  0  0  0
   -3.7520   22.1840  -30.5110 N   0  0  0  0  0  0  0  0  0  0  0  0
   -3.4700   20.8630  -31.0040 C   0  0  0  0  0  0  0  0  0  0  0  0
   -2.4030   20.2800  -30.6690 O   0  0  0  0  0  0  0  0  0  0  0  0
   -4.3780   20.2080  -31.9700 C   0  0  0  0  0  0  0  0  0  0  0  0
   -5.7200   19.9800  -31.6150 C   0  0  0  0  0  0  0  0  0  0  0  0
   -6.5910   19.3470  -32.5070 C   0  0  0  0  0  0  0  0  0  0  0  0
   -6.1340   18.9440  -33.7630 C   0  0  0  0  0  0  0  0  0  0  0  0
   -4.8080   19.1780  -34.1330 C   0  0  0  0  0  0  0  0  0  0  0  0
   -3.9290   19.8090  -33.2460 C   0  0  0  0  0  0  0  0  0  0  0  0
   -2.6600   20.0670  -33.6530 F   0  0  0  0  0  0  0  0  0  0  0  0
   -5.9200   24.3170  -31.0080 C   0  0  0  0  0  0  0  0  0  0  0  0
   -6.9580   23.7470  -30.2960 C   0  0  0  0  0  0  0  0  0  0  0  0
   -7.5610   22.8620  -31.1630 C   0  0  0  0  0  0  0  0  0  0  0  0
   -6.8610   22.9500  -32.3500 C   0  0  0  0  0  0  0  0  0  0  0  0
   -5.8910   23.8260  -32.2260 O   0  0  0  0  0  0  0  0  0  0  0  0
   -2.0987   26.0135  -28.4699 H   0  0  0  0  0  0  0  0  0  0  0  0
   -0.7995   24.6753  -26.8182 H   0  0  0  0  0  0  0  0  0  0  0  0
   -0.8417   22.1839  -26.9166 H   0  0  0  0  0  0  0  0  0  0  0  0
   -2.2056   21.0227  -28.6482 H   0  0  0  0  0  0  0  0  0  0  0  0
   -4.5080   22.7360  -30.9740 H   0  0  0  0  0  0  0  0  0  0  0  0
   -6.0866   20.3019  -30.6291 H   0  0  0  0  0  0  0  0  0  0  0  0
   -7.6371   19.1664  -32.2188 H   0  0  0  0  0  0  0  0  0  0  0  0
   -6.8190   18.4417  -34.4618 H   0  0  0  0  0  0  0  0  0  0  0  0
   -4.4530   18.8649  -35.1260 H   0  0  0  0  0  0  0  0  0  0  0  0
   -7.2434   23.9561  -29.2544 H   0  0  0  0  0  0  0  0  0  0  0  0
   -8.4257   22.2157  -30.9521 H   0  0  0  0  0  0  0  0  0  0  0  0
   -7.0823   22.3740  -33.2606 H   0  0  0  0  0  0  0  0  0  0  0  0
  1  2  2  0
  2  3  1  0
  3  4  1  0
  4  5  2  0
  5  6  1  0
  6  7  2  0
  7  8  1  0
  8  9  2  0
  9 10  1  0
 10 11  1  0
 11 12  2  0
 11 13  1  0
 13 14  2  0
 14 15  1  0
 15 16  2  0
 16 17  1  0
 17 18  2  0
 18 19  1  0
  2 20  1  0
 20 21  2  0
 21 22  1  0
 22 23  2  0
 23 24  1  0
  9  4  1  0
 18 13  1  0
 24 20  1  0
  5 25  1  0
  6 26  1  0
  7 27  1  0
  8 28  1  0
 10 29  1  0
 14 30  1  0
 15 31  1  0
 16 32  1  0
 17 33  1  0
 21 34  1  0
 22 35  1  0
 23 36  1  0
M  CHG  1   3  -1
M  END
>  <UniqueID>  (3) 
3

>  <SMILES>  (3) 
O=C([N-]c1ccccc1NC(=O)c1ccccc1F)c1ccco1

>  <Energy>  (3) 
76.09760635588441

>  <Genealogy>  (3) 
O=C([N-]c1ccccc1NC(=O)c1ccccc1F)c1ccco1 (protonated)
O=C([N-]c1ccccc1NC(=O)c1ccccc1F)c1ccco1 (3D coordinates assigned)
O=C([N-]c1ccccc1NC(=O)c1ccccc1F)c1ccco1 (optimized conformer: 76.09760635588441 kcal/mol)

>  <smiles>  (3) 
O=C(Nc1ccccc1NC(=O)c1ccccc1F)c1ccco1

>  <score_type>  (3) 
oracle

>  <origin>  (3) 
adgpu

>  <m_score__min__energy>  (3) 
-8.7899999999999991

>  <m_primary>  (3) 
energy

$$$$
3:0
     RDKit          3D

 29 29  0  0  0  0  0  0  0  0999 V2000
    0.5165   23.6849  -27.5441 H   0  0  0  0  0  0  0  0  0  0  0  0
   -0.5350   23.7890  -27.8500 C   0  0  0  0  0  0  0  0  0  0  0  0
   -1.5110   22.9370  -27.3210 C   0  0  0  0  0  0  0  0  0  0  0  0
   -1.1300   21.8580  -26.3520 C   0  0  0  0  0  0  0  0  0  0  0  0
   -1.2600   22.2261  -25.3236 H   0  0  0  0  0  0  0  0  0  0  0  0
   -1.7722   20.9791  -26.5108 H   0  0  0  0  0  0  0  0  0  0  0  0
   -0.0784   21.5772  -26.5108 H   0  0  0  0  0  0  0  0  0  0  0  0
   -2.8360   23.0620  -27.7570 C   0  0  0  0  0  0  0  0  0  0  0  0
   -3.6114   22.3905  -27.3596 H   0  0  0  0  0  0  0  0  0  0  0  0
   -3.1740   24.0420  -28.6990 C   0  0  0  0  0  0  0  0  0  0  0  0
   -4.4210   24.1370  -29.0700 N   0  0  0  0  0  0  0  0  0  0  0  0
   -4.9810   24.9860  -30.0840 C   0  0  0  0  0  0  0  0  0  0  0  0
   -4.2400   25.6650  -30.8450 O   0  0  0  0  0  0  0  0  0  0  0  0
   -6.4720   25.0010  -30.2940 C   0  0  0  0  0  0  0  0  0  0  0  0
   -6.9626   25.0356  -29.3101 H   0  0  0  0  0  0  0  0  0  0  0  0
   -6.7055   25.8850  -30.9056 H   0  0  0  0  0  0  0  0  0  0  0  0
   -6.9730   23.8170  -31.0270 N   0  0  0  0  0  0  0  0  0  0  0  0
   -7.2590   22.6850  -30.1300 C   0  0  0  0  0  0  0  0  0  0  0  0
   -7.1755   23.0157  -29.0842 H   0  0  0  0  0  0  0  0  0  0  0  0
   -8.2784   22.3168  -30.3178 H   0  0  0  0  0  0  0  0  0  0  0  0
   -6.5368   21.8768  -30.3178 H   0  0  0  0  0  0  0  0  0  0  0  0
   -6.0710   23.4080  -32.1150 C   0  0  0  0  0  0  0  0  0  0  0  0
   -5.1477   22.9894  -31.6880 H   0  0  0  0  0  0  0  0  0  0  0  0
   -6.5663   22.6464  -32.7352 H   0  0  0  0  0  0  0  0  0  0  0  0
   -5.8245   24.2824  -32.7352 H   0  0  0  0  0  0  0  0  0  0  0  0
   -2.2030   24.8890  -29.1670 N   0  0  0  0  0  0  0  0  0  0  0  0
   -2.4250   25.6750  -29.8150 H   0  0  0  0  0  0  0  0  0  0  0  0
   -0.9060   24.7710  -28.7680 C   0  0  0  0  0  0  0  0  0  0  0  0
   -0.1458   25.4552  -29.1728 H   0  0  0  0  0  0  0  0  0  0  0  0
  1  2  1  0
  2  3  1  0
  3  4  1  0
  4  5  1  0
  4  6  1  0
  4  7  1  0
  3  8  2  0
  8  9  1  0
  8 10  1  0
 10 11  2  0
 11 12  1  0
 12 13  2  0
 12 14  1  0
 14 15  1  0
 14 16  1  0
 14 17  1  0
 17 18  1  0
 18 19  1  0
 18 20  1  0
 18 21  1  0
 17 22  1  0
 22 23  1  0
 22 24  1  0
 22 25  1  0
 10 26  1  0
 26 27  1  0
 26 28  1  0
 28 29  1  0
 28  2  2  0
M  END
>  <UniqueID>  (4) 
4

>  <SMILES>  (4) 
Cc1cc[nH]/c(=N\C(=O)CN(C)C)c1

>  <Energy>  (4) 
34.112897398585034

>  <Genealogy>  (4) 
Cc1cc[nH]/c(=N\C(=O)CN(C)C)c1 (cis-trans isomerization)
Cc1cc[nH]/c(=N\C(=O)CN(C)C)c1 (3D coordinates assigned)
Cc1cc[nH]/c(=N\C(=O)CN(C)C)c1 (optimized conformer: 34.112897398585034 kcal/mol)

>  <smiles>  (4) 
Cc1cc[nH]c(=NC(=O)CN(C)C)c1

>  <score_type>  (4) 
oracle

>  <origin>  (4) 
adgpu

>  <m_score__min__energy>  (4) 
-5.8799999999999999

>  <m_primary>  (4) 
energy

$$$$
4:0
     RDKit          3D

 30 31  0  0  0  0  0  0  0  0999 V2000
   -5.7380   16.7280  -31.5820 C   0  0  0  0  0  0  0  0  0  0  0  0
   -5.6770   17.5030  -32.8590 C   0  0  0  0  0  0  0  0  0  0  0  0
   -4.7460   17.3180  -33.7690 O   0  0  0  0  0  0  0  0  0  0  0  0
   -4.9610   18.1400  -34.7700 C   0  0  0  0  0  0  0  0  0  0  0  0
   -6.0820   18.9040  -34.5170 C   0  0  0  0  0  0  0  0  0  0  0  0
   -6.5480   18.4970  -33.2820 C   0  0  0  0  0  0  0  0  0  0  0  0
   -7.7370   19.0340  -32.5920 C   0  0  0  0  0  0  0  0  0  0  0  0
   -8.4730   18.2540  -31.9320 O   0  0  0  0  0  0  0  0  0  0  0  0
   -8.0800   20.4200  -32.7190 N   0  0  0  0  0  0  0  0  0  0  0  0
   -7.4160   21.5290  -32.0930 C   0  0  0  0  0  0  0  0  0  0  0  0
   -8.0720   22.3740  -31.1800 C   0  0  0  0  0  0  0  0  0  0  0  0
   -7.3810   23.4280  -30.5750 C   0  0  0  0  0  0  0  0  0  0  0  0
   -6.0280   23.6440  -30.8670 C   0  0  0  0  0  0  0  0  0  0  0  0
   -5.1540   24.9610  -30.0890 S   0  0  0  0  0  0  0  0  0  0  0  0
   -4.8050   24.5380  -28.4500 N   0  0  0  0  0  0  0  0  0  0  0  0
   -3.8690   25.2230  -30.8240 O   0  0  0  0  0  0  0  0  0  0  0  0
   -5.9880   26.2120  -30.1170 O   0  0  0  0  0  0  0  0  0  0  0  0
   -5.3650   22.7830  -31.7500 C   0  0  0  0  0  0  0  0  0  0  0  0
   -6.0560   21.7290  -32.3550 C   0  0  0  0  0  0  0  0  0  0  0  0
   -5.6835   17.4210  -30.7295 H   0  0  0  0  0  0  0  0  0  0  0  0
   -6.6831   16.1668  -31.5384 H   0  0  0  0  0  0  0  0  0  0  0  0
   -4.8923   16.0259  -31.5384 H   0  0  0  0  0  0  0  0  0  0  0  0
   -4.3401   18.2093  -35.6754 H   0  0  0  0  0  0  0  0  0  0  0  0
   -6.5158   19.6788  -35.1662 H   0  0  0  0  0  0  0  0  0  0  0  0
   -9.1324   22.2050  -30.9411 H   0  0  0  0  0  0  0  0  0  0  0  0
   -7.9015   24.0900  -29.8673 H   0  0  0  0  0  0  0  0  0  0  0  0
   -4.6050   25.4270  -27.9410 H   0  0  0  0  0  0  0  0  0  0  0  0
   -5.6840   24.1480  -28.0430 H   0  0  0  0  0  0  0  0  0  0  0  0
   -4.2978   22.9363  -31.9682 H   0  0  0  0  0  0  0  0  0  0  0  0
   -5.5269   21.0521  -33.0419 H   0  0  0  0  0  0  0  0  0  0  0  0
  1  2  1  0
  2  3  1  0
  3  4  1  0
  4  5  2  0
  5  6  1  0
  6  7  1  0
  7  8  2  0
  7  9  1  0
  9 10  1  0
 10 11  2  0
 11 12  1  0
 12 13  2  0
 13 14  1  0
 14 15  1  0
 14 16  2  0
 14 17  2  0
 13 18  1  0
 18 19  2  0
  6  2  2  0
 19 10  1  0
  1 20  1  0
  1 21  1  0
  1 22  1  0
  4 23  1  0
  5 24  1  0
 11 25  1  0
 12 26  1  0
 15 27  1  0
 15 28  1  0
 18 29  1  0
 19 30  1  0
M  CHG  1   9  -1
M  END
>  <UniqueID>  (5) 
5

>  <SMILES>  (5) 
Cc1occc1C(=O)[N-]c1ccc(S(N)(=O)=O)cc1

>  <Energy>  (5) 
57.56933209765844

>  <Genealogy>  (5) 
Cc1occc1C(=O)[N-]c1ccc(S(N)(=O)=O)cc1 (protonated)
Cc1occc1C(=O)[N-]c1ccc(S(N)(=O)=O)cc1 (3D coordinates assigned)
Cc1occc1C(=O)[N-]c1ccc(S(N)(=O)=O)cc1 (optimized conformer: 57.56933209765844 kcal/mol)

>  <smiles>  (5) 
Cc1occc1C(=O)Nc1ccc(S(N)(=O)=O)cc1

>  <score_type>  (5) 
oracle

>  <origin>  (5) 
adgpu

>  <m_score__min__energy>  (5) 
-8.2899999999999991

>  <m_primary>  (5) 
energy

$$$$
5:0
     RDKit          3D

 39 40  0  0  0  0  0  0  0  0999 V2000
   -4.2480   24.1760  -27.8430 C   0  0  0  0  0  0  0  0  0  0  0  0
   -5.1270   24.1350  -29.0040 N   0  0  0  0  0  0  0  0  0  0  0  0
   -4.6790   24.5250  -30.3050 C   0  0  0  0  0  0  0  0  0  0  0  0
   -3.4970   24.9320  -30.4720 O   0  0  0  0  0  0  0  0  0  0  0  0
   -5.5670   24.4560  -31.3830 O   0  0  0  0  0  0  0  0  0  0  0  0
   -6.9490   24.1340  -31.2390 C   0  0  0  0  0  0  0  0  0  0  0  0
   -7.1830   22.6760  -31.5600 C   0  0  0  0  0  0  0  0  0  0  0  0
   -8.4000   22.0960  -31.1620 C   0  0  0  0  0  0  0  0  0  0  0  0
   -8.6500   20.7400  -31.3860 C   0  0  0  0  0  0  0  0  0  0  0  0
   -7.6880   19.9460  -32.0090 C   0  0  0  0  0  0  0  0  0  0  0  0
   -8.0060   18.2440  -32.2940 Cl  0  0  0  0  0  0  0  0  0  0  0  0
   -6.4730   20.5060  -32.4120 C   0  0  0  0  0  0  0  0  0  0  0  0
   -6.2030   21.8660  -32.1850 C   0  0  0  0  0  0  0  0  0  0  0  0
   -4.9600   22.4240  -32.6420 N   0  0  0  0  0  0  0  0  0  0  0  0
   -3.6810   21.7960  -32.4370 C   0  0  0  0  0  0  0  0  0  0  0  0
   -2.9650   21.9630  -31.2380 C   0  0  0  0  0  0  0  0  0  0  0  0
   -1.7120   21.3620  -31.0740 C   0  0  0  0  0  0  0  0  0  0  0  0
   -1.1570   20.6020  -32.1080 C   0  0  0  0  0  0  0  0  0  0  0  0
    0.4490   19.8330  -31.8960 S   0  0  0  0  0  0  0  0  0  0  0  0
    0.0960   19.2840  -30.1970 C   0  0  0  0  0  0  0  0  0  0  0  0
   -1.8590   20.4390  -33.3070 C   0  0  0  0  0  0  0  0  0  0  0  0
   -3.1110   21.0390  -33.4730 C   0  0  0  0  0  0  0  0  0  0  0  0
   -4.8524   24.1478  -26.9243 H   0  0  0  0  0  0  0  0  0  0  0  0
   -3.5721   23.3084  -27.8640 H   0  0  0  0  0  0  0  0  0  0  0  0
   -3.6558   25.1027  -27.8640 H   0  0  0  0  0  0  0  0  0  0  0  0
   -6.1110   23.8040  -28.8860 H   0  0  0  0  0  0  0  0  0  0  0  0
   -7.2620   24.3325  -30.2033 H   0  0  0  0  0  0  0  0  0  0  0  0
   -7.5353   24.7525  -31.9345 H   0  0  0  0  0  0  0  0  0  0  0  0
   -9.1632   22.7162  -30.6692 H   0  0  0  0  0  0  0  0  0  0  0  0
   -9.6067   20.2982  -31.0706 H   0  0  0  0  0  0  0  0  0  0  0  0
   -5.7215   19.8768  -32.9112 H   0  0  0  0  0  0  0  0  0  0  0  0
   -4.9980   23.3010  -33.2090 H   0  0  0  0  0  0  0  0  0  0  0  0
   -3.3920   22.5689  -30.4253 H   0  0  0  0  0  0  0  0  0  0  0  0
   -1.1624   21.4878  -30.1295 H   0  0  0  0  0  0  0  0  0  0  0  0
    0.5485   19.9877  -29.4828 H   0  0  0  0  0  0  0  0  0  0  0  0
   -0.9924   19.2520  -30.0407 H   0  0  0  0  0  0  0  0  0  0  0  0
    0.5185   18.2805  -30.0407 H   0  0  0  0  0  0  0  0  0  0  0  0
   -1.4256   19.8381  -34.1201 H   0  0  0  0  0  0  0  0  0  0  0  0
   -3.6533   20.9170  -34.4222 H   0  0  0  0  0  0  0  0  0  0  0  0
  1  2  1  0
  2  3  1  0
  3  4  2  0
  3  5  1  0
  5  6  1  0
  6  7  1  0
  7  8  2  0
  8  9  1  0
  9 10  2  0
 10 11  1  0
 10 12  1  0
 12 13  2  0
 13 14  1  0
 14 15  1  0
 15 16  2  0
 16 17  1  0
 17 18  2  0
 18 19  1  0
 19 20  1  0
 18 21  1  0
 21 22  2  0
 13  7  1  0
 22 15  1  0
  1 23  1  0
  1 24  1  0
  1 25  1  0
  2 26  1  0
  6 27  1  0
  6 28  1  0
  8 29  1  0
  9 30  1  0
 12 31  1  0
 14 32  1  0
 16 33  1  0
 17 34  1  0
 20 35  1  0
 20 36  1  0
 20 37  1  0
 21 38  1  0
 22 39  1  0
M  END
>  <UniqueID>  (6) 
6

>  <SMILES>  (6) 
CNC(=O)OCc1ccc(Cl)cc1Nc1ccc(SC)cc1

>  <Energy>  (6) 
36.313121231379654

>  <Genealogy>  (6) 
CNC(=O)OCc1ccc(Cl)cc1Nc1ccc(SC)cc1 (3D coordinates assigned)
CNC(=O)OCc1ccc(Cl)cc1Nc1ccc(SC)cc1 (optimized conformer: 36.313121231379654 kcal/mol)

>  <smiles>  (6) 
CNC(=O)OCc1ccc(Cl)cc1Nc1ccc(SC)cc1

>  <score_type>  (6) 
oracle

>  <origin>  (6) 
adgpu

>  <m_score__min__energy>  (6) 
-8.2100000000000009

>  <m_primary>  (6) 
energy

$$$$
6:0
     RDKit          3D

 34 36  0  0  1  0  0  0  0  0999 V2000
   -9.1170   20.1410  -31.9640 C   0  0  0  0  0  0  0  0  0  0  0  0
   -8.1580   19.0300  -31.5780 C   0  0  0  0  0  0  0  0  0  0  0  0
   -7.2010   18.7160  -32.6690 C   0  0  0  0  0  0  0  0  0  0  0  0
   -7.2330   17.4210  -33.1630 C   0  0  0  0  0  0  0  0  0  0  0  0
   -6.3900   17.0170  -34.1970 C   0  0  0  0  0  0  0  0  0  0  0  0
   -5.5230   17.9470  -34.7150 C   0  0  0  0  0  0  0  0  0  0  0  0
   -5.5020   19.2280  -34.2150 C   0  0  0  0  0  0  0  0  0  0  0  0
   -6.3310   19.6520  -33.1880 C   0  0  0  0  0  0  0  0  0  0  0  0
   -6.2790   20.9800  -32.6810 N   0  0  0  0  0  0  0  0  0  0  0  0
   -5.2430   21.5470  -32.1780 C   0  0  0  0  0  0  0  0  0  0  0  0
   -4.0530   20.8600  -32.0960 C   0  0  0  0  0  0  0  0  0  0  0  0
   -2.9790   21.5110  -31.5590 C   0  0  0  0  0  0  0  0  0  0  0  0
   -1.6930   20.7760  -31.4770 C   0  0  0  0  0  0  0  0  0  0  0  0
   -3.0950   22.7870  -31.1270 N   0  0  0  0  0  0  0  0  0  0  0  0
   -4.2760   23.4450  -31.2150 C   0  0  0  0  0  0  0  0  0  0  0  0
   -4.6070   24.7120  -30.8440 N   0  0  0  0  0  0  0  0  0  0  0  0
   -5.9170   24.8510  -31.1570 C   0  0  0  0  0  0  0  0  0  0  0  0
   -6.3550   23.6990  -31.7000 N   0  0  0  0  0  0  0  0  0  0  0  0
   -5.3540   22.8310  -31.7400 N   0  0  0  0  0  0  0  0  0  0  0  0
   -9.5211   20.6091  -31.0543 H   0  0  0  0  0  0  0  0  0  0  0  0
   -8.5826   20.8965  -32.5588 H   0  0  0  0  0  0  0  0  0  0  0  0
   -9.9424   19.7227  -32.5588 H   0  0  0  0  0  0  0  0  0  0  0  0
   -7.5918   19.3430  -30.6883 H   0  0  0  0  0  0  0  0  0  0  0  0
   -8.7504   18.1255  -31.3754 H   0  0  0  0  0  0  0  0  0  0  0  0
   -7.9387   16.6969  -32.7297 H   0  0  0  0  0  0  0  0  0  0  0  0
   -6.4184   15.9880  -34.5848 H   0  0  0  0  0  0  0  0  0  0  0  0
   -4.8428   17.6666  -35.5327 H   0  0  0  0  0  0  0  0  0  0  0  0
   -4.7947   19.9495  -34.6501 H   0  0  0  0  0  0  0  0  0  0  0  0
   -3.9698   19.8221  -32.4508 H   0  0  0  0  0  0  0  0  0  0  0  0
   -1.4249   20.6228  -30.4212 H   0  0  0  0  0  0  0  0  0  0  0  0
   -1.7959   19.8003  -31.9745 H   0  0  0  0  0  0  0  0  0  0  0  0
   -0.9046   21.3599  -31.9745 H   0  0  0  0  0  0  0  0  0  0  0  0
   -6.5228   25.7547  -30.9947 H   0  0  0  0  0  0  0  0  0  0  0  0
   -7.3410   23.5410  -32.0330 H   0  0  0  0  0  0  0  0  0  0  0  0
  1  2  1  0
  2  3  1  0
  3  4  2  0
  4  5  1  0
  5  6  2  0
  6  7  1  0
  7  8  2  0
  8  9  1  0
  9 10  2  0
 10 11  1  0
 11 12  2  0
 12 13  1  0
 12 14  1  0
 14 15  2  0
 15 16  1  0
 16 17  2  0
 17 18  1  0
 18 19  1  0
  8  3  1  0
 19 10  1  0
 19 15  1  0
  1 20  1  0
  1 21  1  0
  1 22  1  0
  2 23  1  0
  2 24  1  0
  4 25  1  0
  5 26  1  0
  6 27  1  0
  7 28  1  0
 11 29  1  0
 13 30  1  0
 13 31  1  0
 13 32  1  0
 17 33  1  0
 18 34  1  0
M  END
>  <smiles>  (7) 
CCc1ccccc1N=c1cc(C)nc2nc[nH]n12

>  <score_type>  (7) 
oracle

>  <origin>  (7) 
adgpu

>  <m_score__min__energy>  (7) 
-7.3499999999999996

>  <m_primary>  (7) 
energy

$$$$
7:0
     RDKit          3D

 29 30  0  0  0  0  0  0  0  0999 V2000
   -7.3400   19.8480  -33.0340 C   0  0  0  0  0  0  0  0  0  0  0  0
   -6.8130   21.0870  -32.3730 C   0  0  0  0  0  0  0  0  0  0  0  0
   -7.6920   21.9800  -31.7410 C   0  0  0  0  0  0  0  0  0  0  0  0
   -7.2040   23.1520  -31.1560 C   0  0  0  0  0  0  0  0  0  0  0  0
   -5.8360   23.4480  -31.2030 C   0  0  0  0  0  0  0  0  0  0  0  0
   -5.2270   24.9180  -30.4490 S   0  0  0  0  0  0  0  0  0  0  0  0
   -5.7260   24.9810  -29.0340 O   0  0  0  0  0  0  0  0  0  0  0  0
   -5.7060   26.1330  -31.1920 O   0  0  0  0  0  0  0  0  0  0  0  0
   -3.4930   24.9080  -30.4400 N   0  0  0  0  0  0  0  0  0  0  0  0
   -2.6740   24.2390  -29.4720 C   0  0  0  0  0  0  0  0  0  0  0  0
   -1.5770   24.9230  -28.9330 C   0  0  0  0  0  0  0  0  0  0  0  0
   -0.7580   24.3100  -27.9800 C   0  0  0  0  0  0  0  0  0  0  0  0
   -1.0310   23.0060  -27.5580 C   0  0  0  0  0  0  0  0  0  0  0  0
   -2.1220   22.3110  -28.0920 C   0  0  0  0  0  0  0  0  0  0  0  0
   -2.4630   20.6750  -27.5610 Cl  0  0  0  0  0  0  0  0  0  0  0  0
   -2.9410   22.9230  -29.0480 C   0  0  0  0  0  0  0  0  0  0  0  0
   -4.9600   22.5690  -31.8540 C   0  0  0  0  0  0  0  0  0  0  0  0
   -5.4460   21.3970  -32.4400 C   0  0  0  0  0  0  0  0  0  0  0  0
   -7.6477   19.1245  -32.2646 H   0  0  0  0  0  0  0  0  0  0  0  0
   -8.2059   20.1069  -33.6611 H   0  0  0  0  0  0  0  0  0  0  0  0
   -6.5529   19.4039  -33.6611 H   0  0  0  0  0  0  0  0  0  0  0  0
   -8.7686   21.7569  -31.7059 H   0  0  0  0  0  0  0  0  0  0  0  0
   -7.8974   23.8447  -30.6566 H   0  0  0  0  0  0  0  0  0  0  0  0
   -1.3583   25.9497  -29.2618 H   0  0  0  0  0  0  0  0  0  0  0  0
    0.1017   24.8544  -27.5622 H   0  0  0  0  0  0  0  0  0  0  0  0
   -0.3880   22.5257  -26.8058 H   0  0  0  0  0  0  0  0  0  0  0  0
   -3.7960   22.3741  -29.4695 H   0  0  0  0  0  0  0  0  0  0  0  0
   -3.8862   22.8023  -31.9039 H   0  0  0  0  0  0  0  0  0  0  0  0
   -4.7542   20.7148  -32.9558 H   0  0  0  0  0  0  0  0  0  0  0  0
  1  2  1  0
  2  3  2  0
  3  4  1  0
  4  5  2  0
  5  6  1  0
  6  7  2  0
  6  8  2  0
  6  9  1  0
  9 10  1  0
 10 11  2  0
 11 12  1  0
 12 13  2  0
 13 14  1  0
 14 15  1  0
 14 16  2  0
  5 17  1  0
 17 18  2  0
 18  2  1  0
 16 10  1  0
  1 19  1  0
  1 20  1  0
  1 21  1  0
  3 22  1  0
  4 23  1  0
 11 24  1  0
 12 25  1  0
 13 26  1  0
 16 27  1  0
 17 28  1  0
 18 29  1  0
M  CHG  1   9  -1
M  END
>  <UniqueID>  (8) 
7

>  <SMILES>  (8) 
Cc1ccc(S(=O)(=O)[N-]c2cccc(Cl)c2)cc1

>  <Energy>  (8) 
31.48243731912402

>  <Genealogy>  (8) 
Cc1ccc(S(=O)(=O)[N-]c2cccc(Cl)c2)cc1 (protonated)
Cc1ccc(S(=O)(=O)[N-]c2cccc(Cl)c2)cc1 (3D coordinates assigned)
Cc1ccc(S(=O)(=O)[N-]c2cccc(Cl)c2)cc1 (optimized conformer: 31.48243731912402 kcal/mol)

>  <smiles>  (8) 
Cc1ccc(S(=O)(=O)Nc2cccc(Cl)c2)cc1

>  <score_type>  (8) 
oracle

>  <origin>  (8) 
adgpu

>  <m_score__min__energy>  (8) 
-8.6199999999999992

>  <m_primary>  (8) 
energy

$$$$
8:0
     RDKit          3D

 32 33  0  0  0  0  0  0  0  0999 V2000
   -9.4830   19.8390  -32.5440 C   0  0  0  0  0  0  0  0  0  0  0  0
   -8.2550   20.4810  -31.9840 C   0  0  0  0  0  0  0  0  0  0  0  0
   -7.3170   19.7520  -31.5610 O   0  0  0  0  0  0  0  0  0  0  0  0
   -8.1960   21.9090  -31.8440 N   0  0  0  0  0  0  0  0  0  0  0  0
   -7.0050   22.6360  -31.4940 C   0  0  0  0  0  0  0  0  0  0  0  0
   -7.1140   23.7910  -30.7070 C   0  0  0  0  0  0  0  0  0  0  0  0
   -5.9740   24.5280  -30.3690 C   0  0  0  0  0  0  0  0  0  0  0  0
   -4.7150   24.1430  -30.8390 C   0  0  0  0  0  0  0  0  0  0  0  0
   -3.5690   24.9170  -30.4510 N   0  0  0  0  0  0  0  0  0  0  0  0
   -2.5770   24.5520  -29.4810 C   0  0  0  0  0  0  0  0  0  0  0  0
   -1.8450   25.4380  -28.9620 O   0  0  0  0  0  0  0  0  0  0  0  0
   -2.4480   23.1410  -29.0480 C   0  0  0  0  0  0  0  0  0  0  0  0
   -3.2220   22.6450  -27.9810 C   0  0  0  0  0  0  0  0  0  0  0  0
   -3.0990   21.3130  -27.5760 C   0  0  0  0  0  0  0  0  0  0  0  0
   -2.2030   20.4610  -28.2270 C   0  0  0  0  0  0  0  0  0  0  0  0
   -1.4310   20.9410  -29.2870 C   0  0  0  0  0  0  0  0  0  0  0  0
   -1.5490   22.2720  -29.6970 C   0  0  0  0  0  0  0  0  0  0  0  0
   -4.6010   22.9850  -31.6290 C   0  0  0  0  0  0  0  0  0  0  0  0
   -5.7390   22.2470  -31.9650 C   0  0  0  0  0  0  0  0  0  0  0  0
  -10.1286   19.5015  -31.7198 H   0  0  0  0  0  0  0  0  0  0  0  0
  -10.0282   20.5674  -33.1622 H   0  0  0  0  0  0  0  0  0  0  0  0
   -9.1960   18.9756  -33.1622 H   0  0  0  0  0  0  0  0  0  0  0  0
   -9.0920   22.4410  -31.9230 H   0  0  0  0  0  0  0  0  0  0  0  0
   -8.1022   24.1199  -30.3530 H   0  0  0  0  0  0  0  0  0  0  0  0
   -6.0690   25.4172  -29.7285 H   0  0  0  0  0  0  0  0  0  0  0  0
   -3.9281   23.3105  -27.4629 H   0  0  0  0  0  0  0  0  0  0  0  0
   -3.7091   20.9344  -26.7427 H   0  0  0  0  0  0  0  0  0  0  0  0
   -2.1059   19.4137  -27.9049 H   0  0  0  0  0  0  0  0  0  0  0  0
   -0.7277   20.2694  -29.8010 H   0  0  0  0  0  0  0  0  0  0  0  0
   -0.9361   22.6432  -30.5316 H   0  0  0  0  0  0  0  0  0  0  0  0
   -3.6121   22.6590  -31.9838 H   0  0  0  0  0  0  0  0  0  0  0  0
   -5.6435   21.3556  -32.6024 H   0  0  0  0  0  0  0  0  0  0  0  0
  1  2  1  0
  2  3  2  0
  2  4  1  0
  4  5  1  0
  5  6  2  0
  6  7  1  0
  7  8  2  0
  8  9  1  0
  9 10  1  0
 10 11  2  0
 10 12  1  0
 12 13  2  0
 13 14  1  0
 14 15  2  0
 15 16  1  0
 16 17  2  0
  8 18  1  0
 18 19  2  0
 19  5  1  0
 17 12  1  0
  1 20  1  0
  1 21  1  0
  1 22  1  0
  4 23  1  0
  6 24  1  0
  7 25  1  0
 13 26  1  0
 14 27  1  0
 15 28  1  0
 16 29  1  0
 17 30  1  0
 18 31  1  0
 19 32  1  0
M  CHG  1   9  -1
M  END
>  <UniqueID>  (9) 
8

>  <SMILES>  (9) 
CC(=O)Nc1ccc([N-]C(=O)c2ccccc2)cc1

>  <Energy>  (9) 
38.545985888767255

>  <Genealogy>  (9) 
CC(=O)Nc1ccc([N-]C(=O)c2ccccc2)cc1 (protonated)
CC(=O)Nc1ccc([N-]C(=O)c2ccccc2)cc1 (3D coordinates assigned)
CC(=O)Nc1ccc([N-]C(=O)c2ccccc2)cc1 (optimized conformer: 38.545985888767255 kcal/mol)

>  <smiles>  (9) 
CC(=O)Nc1ccc(NC(=O)c2ccccc2)cc1

>  <score_type>  (9) 
oracle

>  <origin>  (9) 
adgpu

>  <m_score__min__energy>  (9) 
-8.4800000000000004

>  <m_primary>  (9) 
energy

$$$$
9:0
     RDKit          3D

 47 49  0  0  0  0  0  0  0  0999 V2000
   -1.9590   20.1120  -26.7020 C   0  0  0  0  0  0  0  0  0  0  0  0
   -1.8390   21.5130  -26.9290 O   0  0  0  0  0  0  0  0  0  0  0  0
   -2.7350   22.2710  -27.6980 C   0  0  0  0  0  0  0  0  0  0  0  0
   -3.3230   23.3990  -27.1150 C   0  0  0  0  0  0  0  0  0  0  0  0
   -4.2220   24.1860  -27.8400 C   0  0  0  0  0  0  0  0  0  0  0  0
   -4.5440   23.8520  -29.1620 C   0  0  0  0  0  0  0  0  0  0  0  0
   -5.6890   24.8230  -30.0850 S   0  0  0  0  0  0  0  0  0  0  0  0
   -4.9200   25.6880  -31.0460 O   0  0  0  0  0  0  0  0  0  0  0  0
   -6.4740   25.7130  -29.1600 O   0  0  0  0  0  0  0  0  0  0  0  0
   -6.7800   23.7760  -30.9640 N   0  0  0  0  0  0  0  0  0  0  0  0
   -7.1530   22.6240  -30.1100 C   0  0  0  0  0  0  0  0  0  0  0  0
   -7.7170   21.4620  -30.9330 C   0  0  0  0  0  0  0  0  0  0  0  0
   -6.7380   21.0300  -31.9380 N   0  0  0  0  0  0  0  0  0  0  0  0
   -6.7810   19.6890  -32.4730 C   0  0  0  0  0  0  0  0  0  0  0  0
   -7.6370   18.7210  -31.9140 C   0  0  0  0  0  0  0  0  0  0  0  0
   -7.6730   17.4240  -32.4300 C   0  0  0  0  0  0  0  0  0  0  0  0
   -6.8610   17.0740  -33.5100 C   0  0  0  0  0  0  0  0  0  0  0  0
   -6.0160   18.0280  -34.0940 C   0  0  0  0  0  0  0  0  0  0  0  0
   -5.1130   17.6430  -35.2290 C   0  0  0  0  0  0  0  0  0  0  0  0
   -5.9680   19.3270  -33.5640 C   0  0  0  0  0  0  0  0  0  0  0  0
   -5.6800   21.9660  -32.3420 C   0  0  0  0  0  0  0  0  0  0  0  0
   -6.2060   23.4070  -32.2880 C   0  0  0  0  0  0  0  0  0  0  0  0
   -3.9620   22.7220  -29.7500 C   0  0  0  0  0  0  0  0  0  0  0  0
   -3.0620   21.9340  -29.0260 C   0  0  0  0  0  0  0  0  0  0  0  0
   -1.9758   19.9160  -25.6197 H   0  0  0  0  0  0  0  0  0  0  0  0
   -2.8918   19.7456  -27.1555 H   0  0  0  0  0  0  0  0  0  0  0  0
   -1.1021   19.5923  -27.1555 H   0  0  0  0  0  0  0  0  0  0  0  0
   -3.0756   23.6685  -26.0776 H   0  0  0  0  0  0  0  0  0  0  0  0
   -4.6782   25.0704  -27.3712 H   0  0  0  0  0  0  0  0  0  0  0  0
   -7.6490   24.3360  -31.1370 H   0  0  0  0  0  0  0  0  0  0  0  0
   -6.2593   22.2770  -29.5707 H   0  0  0  0  0  0  0  0  0  0  0  0
   -7.9339   22.9569  -29.4105 H   0  0  0  0  0  0  0  0  0  0  0  0
   -7.9458   20.6199  -30.2633 H   0  0  0  0  0  0  0  0  0  0  0  0
   -8.6324   21.7952  -31.4439 H   0  0  0  0  0  0  0  0  0  0  0  0
   -8.2823   18.9885  -31.0643 H   0  0  0  0  0  0  0  0  0  0  0  0
   -8.3439   16.6752  -31.9836 H   0  0  0  0  0  0  0  0  0  0  0  0
   -6.8842   16.0472  -33.9038 H   0  0  0  0  0  0  0  0  0  0  0  0
   -4.1708   17.2413  -34.8279 H   0  0  0  0  0  0  0  0  0  0  0  0
   -5.6054   16.8766  -35.8455 H   0  0  0  0  0  0  0  0  0  0  0  0
   -4.9009   18.5289  -35.8455 H   0  0  0  0  0  0  0  0  0  0  0  0
   -5.2879   20.0701  -34.0058 H   0  0  0  0  0  0  0  0  0  0  0  0
   -4.8237   21.8648  -31.6590 H   0  0  0  0  0  0  0  0  0  0  0  0
   -5.3659   21.7343  -33.3704 H   0  0  0  0  0  0  0  0  0  0  0  0
   -5.3737   24.0909  -32.5104 H   0  0  0  0  0  0  0  0  0  0  0  0
   -7.0165   23.4857  -33.0276 H   0  0  0  0  0  0  0  0  0  0  0  0
   -4.2141   22.4531  -30.7864 H   0  0  0  0  0  0  0  0  0  0  0  0
   -2.6081   21.0485  -29.4948 H   0  0  0  0  0  0  0  0  0  0  0  0
  1  2  1  0
  2  3  1  0
  3  4  2  0
  4  5  1  0
  5  6  2  0
  6  7  1  0
  7  8  2  0
  7  9  2  0
  7 10  1  0
 10 11  1  0
 11 12  1  0
 12 13  1  0
 13 14  1  0
 14 15  2  0
 15 16  1  0
 16 17  2  0
 17 18  1  0
 18 19  1  0
 18 20  2  0
 13 21  1  0
 21 22  1  0
  6 23  1  0
 23 24  2  0
 24  3  1  0
 22 10  1  0
 20 14  1  0
  1 25  1  0
  1 26  1  0
  1 27  1  0
  4 28  1  0
  5 29  1  0
 10 30  1  0
 11 31  1  0
 11 32  1  0
 12 33  1  0
 12 34  1  0
 15 35  1  0
 16 36  1  0
 17 37  1  0
 19 38  1  0
 19 39  1  0
 19 40  1  0
 20 41  1  0
 21 42  1  0
 21 43  1  0
 22 44  1  0
 22 45  1  0
 23 46  1  0
 24 47  1  0
M  CHG  1  10   1
M  END
>  <UniqueID>  (10) 
9

>  <SMILES>  (10) 
COc1ccc(S(=O)(=O)[NH+]2CCN(c3cccc(C)c3)CC2)cc1

>  <Energy>  (10) 
55.04816721119286

>  <Genealogy>  (10) 
COc1ccc(S(=O)(=O)[NH+]2CCN(c3cccc(C)c3)CC2)cc1 (protonated)
COc1ccc(S(=O)(=O)[NH+]2CCN(c3cccc(C)c3)CC2)cc1 (3D coordinates assigned)
COc1ccc(S(=O)(=O)[NH+]2CCN(c3cccc(C)c3)CC2)cc1 (nonaromatic ring conformer: 55.04816721119286 kcal/mol)

>  <smiles>  (10) 
COc1ccc(S(=O)(=O)N2CCN(c3cccc(C)c3)CC2)cc1

>  <score_type>  (10) 
oracle

>  <origin>  (10) 
adgpu

>  <m_score__min__energy>  (10) 
-8.0999999999999996

>  <m_primary>  (10) 
energy

$$$$
10:0
     RDKit          3D

 33 34  0  0  0  0  0  0  0  0999 V2000
   -3.5620   24.9510  -26.5960 C   0  0  0  0  0  0  0  0  0  0  0  0
   -4.1530   23.8840  -27.3310 O   0  0  0  0  0  0  0  0  0  0  0  0
   -3.4380   22.8540  -27.9660 C   0  0  0  0  0  0  0  0  0  0  0  0
   -3.4870   21.5300  -27.4890 C   0  0  0  0  0  0  0  0  0  0  0  0
   -2.7470   20.5270  -28.1080 C   0  0  0  0  0  0  0  0  0  0  0  0
   -1.9520   20.8200  -29.2110 C   0  0  0  0  0  0  0  0  0  0  0  0
   -1.8910   22.1310  -29.7200 C   0  0  0  0  0  0  0  0  0  0  0  0
   -1.1140   22.4390  -30.8510 O   0  0  0  0  0  0  0  0  0  0  0  0
   -0.8710   21.5490  -31.9360 C   0  0  0  0  0  0  0  0  0  0  0  0
   -2.6370   23.1580  -29.0940 C   0  0  0  0  0  0  0  0  0  0  0  0
   -2.5780   24.5450  -29.6220 C   0  0  0  0  0  0  0  0  0  0  0  0
   -1.6250   25.3020  -29.2940 O   0  0  0  0  0  0  0  0  0  0  0  0
   -3.6270   25.0390  -30.4680 N   0  0  0  0  0  0  0  0  0  0  0  0
   -4.8560   24.3730  -30.7890 C   0  0  0  0  0  0  0  0  0  0  0  0
   -6.0470   24.8560  -30.2290 C   0  0  0  0  0  0  0  0  0  0  0  0
   -7.2640   24.2230  -30.4990 C   0  0  0  0  0  0  0  0  0  0  0  0
   -7.2970   23.0920  -31.3190 C   0  0  0  0  0  0  0  0  0  0  0  0
   -6.1130   22.5880  -31.8620 C   0  0  0  0  0  0  0  0  0  0  0  0
   -6.1440   21.4780  -32.6400 F   0  0  0  0  0  0  0  0  0  0  0  0
   -4.8940   23.2190  -31.5940 C   0  0  0  0  0  0  0  0  0  0  0  0
   -3.6692   24.7575  -25.5185 H   0  0  0  0  0  0  0  0  0  0  0  0
   -2.4945   25.0247  -26.8509 H   0  0  0  0  0  0  0  0  0  0  0  0
   -4.0658   25.8950  -26.8509 H   0  0  0  0  0  0  0  0  0  0  0  0
   -4.1155   21.2865  -26.6197 H   0  0  0  0  0  0  0  0  0  0  0  0
   -2.7911   19.4975  -27.7231 H   0  0  0  0  0  0  0  0  0  0  0  0
   -1.3664   20.0211  -29.6893 H   0  0  0  0  0  0  0  0  0  0  0  0
   -0.6003   20.5577  -31.5435 H   0  0  0  0  0  0  0  0  0  0  0  0
   -1.7789   21.4644  -32.5512 H   0  0  0  0  0  0  0  0  0  0  0  0
   -0.0461   21.9375  -32.5512 H   0  0  0  0  0  0  0  0  0  0  0  0
   -6.0238   25.7387  -29.5730 H   0  0  0  0  0  0  0  0  0  0  0  0
   -8.1958   24.6154  -30.0658 H   0  0  0  0  0  0  0  0  0  0  0  0
   -8.2557   22.5985  -31.5369 H   0  0  0  0  0  0  0  0  0  0  0  0
   -3.9621   22.8122  -32.0136 H   0  0  0  0  0  0  0  0  0  0  0  0
  1  2  1  0
  2  3  1  0
  3  4  2  0
  4  5  1  0
  5  6  2  0
  6  7  1  0
  7  8  1  0
  8  9  1  0
  7 10  2  0
 10 11  1  0
 11 12  2  0
 11 13  1  0
 13 14  1  0
 14 15  2  0
 15 16  1  0
 16 17  2  0
 17 18  1  0
 18 19  1  0
 18 20  2  0
 10  3  1  0
 20 14  1  0
  1 21  1  0
  1 22  1  0
  1 23  1  0
  4 24  1  0
  5 25  1  0
  6 26  1  0
  9 27  1  0
  9 28  1  0
  9 29  1  0
 15 30  1  0
 16 31  1  0
 17 32  1  0
 20 33  1  0
M  CHG  1  13  -1
M  END
>  <UniqueID>  (11) 
10

>  <SMILES>  (11) 
COc1cccc(OC)c1C(=O)[N-]c1cccc(F)c1

>  <Energy>  (11) 
40.9212521466403

>  <Genealogy>  (11) 
COc1cccc(OC)c1C(=O)[N-]c1cccc(F)c1 (protonated)
COc1cccc(OC)c1C(=O)[N-]c1cccc(F)c1 (3D coordinates assigned)
COc1cccc(OC)c1C(=O)[N-]c1cccc(F)c1 (optimized conformer: 40.9212521466403 kcal/mol)

>  <smiles>  (11) 
COc1cccc(OC)c1C(=O)Nc1cccc(F)c1

>  <score_type>  (11) 
oracle

>  <origin>  (11) 
adgpu

>  <m_score__min__energy>  (11) 
-7.1500000000000004

>  <m_primary>  (11) 
energy

$$$$
11:0
     RDKit          3D

 43 46  0  0  1  0  0  0  0  0999 V2000
    0.4330   26.5870  -23.3720 C   0  0  0  0  0  0  0  0  0  0  0  0
   -0.7380   27.1990  -23.7660 C   0  0  0  0  0  0  0  0  0  0  0  0
   -1.1170   27.1480  -25.0840 C   0  0  0  0  0  0  0  0  0  0  0  0
   -0.2810   26.4650  -25.9770 C   0  0  0  0  0  0  0  0  0  0  0  0
   -0.6740   26.4090  -27.3650 N   0  0  0  0  0  0  0  0  0  0  0  0
   -1.6270   25.5880  -27.7120 C   0  0  0  0  0  0  0  0  0  0  0  0
   -2.1840   24.8380  -26.7210 N   0  0  0  0  0  0  0  0  0  0  0  0
   -3.1710   23.9620  -26.9780 C   0  0  0  0  0  0  0  0  0  0  0  0
   -3.6110   23.8430  -28.3020 C   0  0  0  0  0  0  0  0  0  0  0  0
   -3.0480   24.6010  -29.3090 C   0  0  0  0  0  0  0  0  0  0  0  0
   -3.4770   24.4600  -30.5120 N   0  0  0  0  0  0  0  0  0  0  0  0
   -4.5150   23.5450  -30.8360 C   0  0  0  0  0  0  0  0  0  0  0  0
   -5.8510   23.8800  -30.8600 C   0  0  0  0  0  0  0  0  0  0  0  0
   -6.7920   22.9130  -31.1880 C   0  0  0  0  0  0  0  0  0  0  0  0
   -6.3690   21.6330  -31.4860 C   0  0  0  0  0  0  0  0  0  0  0  0
   -7.3030   20.5580  -31.8460 C   0  0  0  0  0  0  0  0  0  0  0  0
   -6.8910   19.2580  -31.9790 C   0  0  0  0  0  0  0  0  0  0  0  0
   -7.7730   18.2470  -32.3230 C   0  0  0  0  0  0  0  0  0  0  0  0
   -9.0550   18.6210  -32.5160 N   0  0  0  0  0  0  0  0  0  0  0  0
   -9.4850   19.8850  -32.3930 C   0  0  0  0  0  0  0  0  0  0  0  0
   -8.6290   20.9340  -32.0480 C   0  0  0  0  0  0  0  0  0  0  0  0
   -5.0230   21.2710  -31.4680 C   0  0  0  0  0  0  0  0  0  0  0  0
   -4.1200   22.2440  -31.1410 C   0  0  0  0  0  0  0  0  0  0  0  0
   -2.0520   25.4710  -28.9810 N   0  0  0  0  0  0  0  0  0  0  0  0
    0.8860   25.8610  -25.5590 C   0  0  0  0  0  0  0  0  0  0  0  0
    1.2660   25.9120  -24.2380 C   0  0  0  0  0  0  0  0  0  0  0  0
    0.7173   26.6403  -22.3107 H   0  0  0  0  0  0  0  0  0  0  0  0
   -1.3638   27.7242  -23.0294 H   0  0  0  0  0  0  0  0  0  0  0  0
   -2.0456   27.6271  -25.4276 H   0  0  0  0  0  0  0  0  0  0  0  0
   -1.8660   24.9200  -25.7370 H   0  0  0  0  0  0  0  0  0  0  0  0
   -3.6183   23.3585  -26.1744 H   0  0  0  0  0  0  0  0  0  0  0  0
   -4.4174   23.1348  -28.5433 H   0  0  0  0  0  0  0  0  0  0  0  0
   -6.1698   24.9053  -30.6212 H   0  0  0  0  0  0  0  0  0  0  0  0
   -7.8627   23.1640  -31.2102 H   0  0  0  0  0  0  0  0  0  0  0  0
   -5.8328   19.0110  -31.8082 H   0  0  0  0  0  0  0  0  0  0  0  0
   -7.4479   17.2019  -32.4323 H   0  0  0  0  0  0  0  0  0  0  0  0
  -10.5484   20.1037  -32.5698 H   0  0  0  0  0  0  0  0  0  0  0  0
   -8.9744   21.9732  -31.9442 H   0  0  0  0  0  0  0  0  0  0  0  0
   -4.7012   20.2465  -31.7066 H   0  0  0  0  0  0  0  0  0  0  0  0
   -3.0494   21.9923  -31.1180 H   0  0  0  0  0  0  0  0  0  0  0  0
   -1.6100   26.0580  -29.7370 H   0  0  0  0  0  0  0  0  0  0  0  0
    1.5186   25.3338  -26.2883 H   0  0  0  0  0  0  0  0  0  0  0  0
    2.1936   25.4352  -23.8883 H   0  0  0  0  0  0  0  0  0  0  0  0
  1  2  2  0
  2  3  1  0
  3  4  2  0
  4  5  1  0
  5  6  2  0
  6  7  1  0
  7  8  1  0
  8  9  2  0
  9 10  1  0
 10 11  2  0
 11 12  1  0
 12 13  2  0
 13 14  1  0
 14 15  2  0
 15 16  1  0
 16 17  2  0
 17 18  1  0
 18 19  2  0
 19 20  1  0
 20 21  2  0
 15 22  1  0
 22 23  2  0
 10 24  1  0
  4 25  1  0
 25 26  2  0
 26  1  1  0
 24  6  1  0
 23 12  1  0
 21 16  1  0
  1 27  1  0
  2 28  1  0
  3 29  1  0
  7 30  1  0
  8 31  1  0
  9 32  1  0
 13 33  1  0
 14 34  1  0
 17 35  1  0
 18 36  1  0
 20 37  1  0
 21 38  1  0
 22 39  1  0
 23 40  1  0
 24 41  1  0
 25 42  1  0
 26 43  1  0
M  END
>  <smiles>  (12) 
c1ccc(N=c2[nH]ccc(=Nc3ccc(-c4ccncc4)cc3)[nH]2)cc1

>  <score_type>  (12) 
oracle

>  <origin>  (12) 
adgpu

>  <m_score__min__energy>  (12) 
-9.5800000000000001

>  <m_primary>  (12) 
energy

$$$$
12:0
     RDKit          3D

 35 37  0  0  0  0  0  0  0  0999 V2000
   -5.6040   17.9930  -34.2220 C   0  0  0  0  0  0  0  0  0  0  0  0
   -4.7220   19.2140  -33.9640 C   0  0  0  0  0  0  0  0  0  0  0  0
   -4.6590   19.5840  -32.4760 C   0  0  0  0  0  0  0  0  0  0  0  0
   -5.5920   20.6670  -32.1600 N   0  0  0  0  0  0  0  0  0  0  0  0
   -5.2600   21.9640  -31.9530 C   0  0  0  0  0  0  0  0  0  0  0  0
   -6.4060   22.7260  -31.7770 C   0  0  0  0  0  0  0  0  0  0  0  0
   -6.4770   24.5020  -31.5660 S   0  0  0  0  0  0  0  0  0  0  0  0
   -5.0610   24.4900  -30.4710 C   0  0  0  0  0  0  0  0  0  0  0  0
   -5.0320   23.8360  -29.2940 N   0  0  0  0  0  0  0  0  0  0  0  0
   -3.7710   24.0880  -28.8760 C   0  0  0  0  0  0  0  0  0  0  0  0
   -3.2310   23.6200  -27.5690 C   0  0  0  0  0  0  0  0  0  0  0  0
   -3.0780   24.8620  -29.7350 N   0  0  0  0  0  0  0  0  0  0  0  0
   -3.8990   25.1020  -30.7390 N   0  0  0  0  0  0  0  0  0  0  0  0
   -7.4690   21.8540  -31.8810 C   0  0  0  0  0  0  0  0  0  0  0  0
   -8.8440   22.0770  -31.8190 C   0  0  0  0  0  0  0  0  0  0  0  0
   -9.6940   20.9710  -31.9980 C   0  0  0  0  0  0  0  0  0  0  0  0
   -9.1580   19.6870  -32.2380 C   0  0  0  0  0  0  0  0  0  0  0  0
   -7.7660   19.4950  -32.3020 C   0  0  0  0  0  0  0  0  0  0  0  0
   -6.9420   20.6090  -32.1160 C   0  0  0  0  0  0  0  0  0  0  0  0
   -5.9181   17.5581  -33.2617 H   0  0  0  0  0  0  0  0  0  0  0  0
   -6.4924   18.2969  -34.7950 H   0  0  0  0  0  0  0  0  0  0  0  0
   -5.0363   17.2451  -34.7950 H   0  0  0  0  0  0  0  0  0  0  0  0
   -3.7035   18.9955  -34.3175 H   0  0  0  0  0  0  0  0  0  0  0  0
   -5.1610   20.0659  -34.5039 H   0  0  0  0  0  0  0  0  0  0  0  0
   -4.9186   18.7000  -31.8751 H   0  0  0  0  0  0  0  0  0  0  0  0
   -3.6389   19.9243  -32.2445 H   0  0  0  0  0  0  0  0  0  0  0  0
   -4.2324   22.3556  -31.9281 H   0  0  0  0  0  0  0  0  0  0  0  0
   -3.7857   24.1008  -26.7498 H   0  0  0  0  0  0  0  0  0  0  0  0
   -3.3425   22.5281  -27.4960 H   0  0  0  0  0  0  0  0  0  0  0  0
   -2.1660   23.8855  -27.4960 H   0  0  0  0  0  0  0  0  0  0  0  0
   -3.6620   25.6690  -31.5840 H   0  0  0  0  0  0  0  0  0  0  0  0
   -9.2498   23.0830  -31.6364 H   0  0  0  0  0  0  0  0  0  0  0  0
  -10.7845   21.1073  -31.9507 H   0  0  0  0  0  0  0  0  0  0  0  0
   -9.8341   18.8303  -32.3760 H   0  0  0  0  0  0  0  0  0  0  0  0
   -7.3390   18.4993  -32.4925 H   0  0  0  0  0  0  0  0  0  0  0  0
  1  2  1  0
  2  3  1  0
  3  4  1  0
  4  5  1  0
  5  6  2  0
  6  7  1  0
  7  8  1  0
  8  9  2  0
  9 10  1  0
 10 11  1  0
 10 12  2  0
 12 13  1  0
  6 14  1  0
 14 15  2  0
 15 16  1  0
 16 17  2  0
 17 18  1  0
 18 19  2  0
 19  4  1  0
 13  8  1  0
 19 14  1  0
  1 20  1  0
  1 21  1  0
  1 22  1  0
  2 23  1  0
  2 24  1  0
  3 25  1  0
  3 26  1  0
  5 27  1  0
 11 28  1  0
 11 29  1  0
 11 30  1  0
 13 31  1  0
 15 32  1  0
 16 33  1  0
 17 34  1  0
 18 35  1  0
M  END
>  <UniqueID>  (13) 
11

>  <SMILES>  (13) 
CCCn1cc(Sc2nc(C)n[nH]2)c2ccccc21

>  <Energy>  (13) 
91.4728620830108

>  <Genealogy>  (13) 
CCCn1cc(Sc2nc(C)n[nH]2)c2ccccc21 (3D coordinates assigned)
CCCn1cc(Sc2nc(C)n[nH]2)c2ccccc21 (optimized conformer: 91.4728620830108 kcal/mol)

>  <smiles>  (13) 
CCCn1cc(Sc2nc(C)n[nH]2)c2ccccc21

>  <score_type>  (13) 
oracle

>  <origin>  (13) 
adgpu

>  <m_score__min__energy>  (13) 
-8.0600000000000005

>  <m_primary>  (13) 
energy

$$$$
13:0
     RDKit          3D

 23 24  0  0  0  0  0  0  0  0999 V2000
   -7.4300   18.0560  -32.7820 O   0  0  0  0  0  0  0  0  0  0  0  0
   -7.7880   19.3420  -32.3980 C   0  0  0  0  0  0  0  0  0  0  0  0
   -9.1340   19.7200  -32.3930 C   0  0  0  0  0  0  0  0  0  0  0  0
   -9.4940   21.0140  -32.0110 C   0  0  0  0  0  0  0  0  0  0  0  0
   -8.5110   21.9340  -31.6330 C   0  0  0  0  0  0  0  0  0  0  0  0
   -7.1520   21.5660  -31.6320 C   0  0  0  0  0  0  0  0  0  0  0  0
   -6.1070   22.5420  -31.2300 C   0  0  0  0  0  0  0  0  0  0  0  0
   -6.4600   23.8400  -30.8200 C   0  0  0  0  0  0  0  0  0  0  0  0
   -5.4770   24.7620  -30.4410 C   0  0  0  0  0  0  0  0  0  0  0  0
   -5.8640   26.0420  -30.0450 O   0  0  0  0  0  0  0  0  0  0  0  0
   -4.1240   24.3880  -30.4670 C   0  0  0  0  0  0  0  0  0  0  0  0
   -3.1360   25.2920  -30.0920 O   0  0  0  0  0  0  0  0  0  0  0  0
   -3.7630   23.0990  -30.8740 C   0  0  0  0  0  0  0  0  0  0  0  0
   -2.4580   22.7330  -30.8960 F   0  0  0  0  0  0  0  0  0  0  0  0
   -4.7470   22.1820  -31.2530 C   0  0  0  0  0  0  0  0  0  0  0  0
   -6.8010   20.2590  -32.0190 C   0  0  0  0  0  0  0  0  0  0  0  0
   -9.9092   18.9983  -32.6899 H   0  0  0  0  0  0  0  0  0  0  0  0
  -10.5533   21.3104  -32.0074 H   0  0  0  0  0  0  0  0  0  0  0  0
   -8.8015   22.9521  -31.3344 H   0  0  0  0  0  0  0  0  0  0  0  0
   -7.5197   24.1340  -30.7968 H   0  0  0  0  0  0  0  0  0  0  0  0
   -5.3780   26.5490  -29.3140 H   0  0  0  0  0  0  0  0  0  0  0  0
   -4.4559   21.1703  -31.5720 H   0  0  0  0  0  0  0  0  0  0  0  0
   -5.7435   19.9562  -32.0236 H   0  0  0  0  0  0  0  0  0  0  0  0
  1  2  1  0
  2  3  2  0
  3  4  1  0
  4  5  2  0
  5  6  1  0
  6  7  1  0
  7  8  2  0
  8  9  1  0
  9 10  1  0
  9 11  2  0
 11 12  1  0
 11 13  1  0
 13 14  1  0
 13 15  2  0
  6 16  2  0
 16  2  1  0
 15  7  1  0
  3 17  1  0
  4 18  1  0
  5 19  1  0
  8 20  1  0
 10 21  1  0
 15 22  1  0
 16 23  1  0
M  CHG  2   1  -1  12  -1
M  END
>  <UniqueID>  (14) 
12

>  <SMILES>  (14) 
[O-]c1cccc(-c2cc(O)c([O-])c(F)c2)c1

>  <Energy>  (14) 
29.73565396127627

>  <Genealogy>  (14) 
[O-]c1cccc(-c2cc(O)c([O-])c(F)c2)c1 (protonated)
[O-]c1cccc(-c2cc(O)c([O-])c(F)c2)c1 (3D coordinates assigned)
[O-]c1cccc(-c2cc(O)c([O-])c(F)c2)c1 (optimized conformer: 29.73565396127627 kcal/mol)

>  <smiles>  (14) 
Oc1cccc(-c2cc(O)c(O)c(F)c2)c1

>  <score_type>  (14) 
oracle

>  <origin>  (14) 
adgpu

>  <m_score__min__energy>  (14) 
-9.4900000000000002

>  <m_primary>  (14) 
energy

$$$$
14:0
     RDKit          3D

 44 46  0  0  1  0  0  0  0  0999 V2000
   -5.1080   15.8970  -33.2840 C   0  0  0  0  0  0  0  0  0  0  0  0
   -5.7110   17.2210  -32.9750 C   0  0  0  0  0  0  0  0  0  0  0  0
   -4.9850   18.3450  -33.3160 C   0  0  0  0  0  0  0  0  0  0  0  0
   -5.4340   19.6310  -33.0830 C   0  0  0  0  0  0  0  0  0  0  0  0
   -4.6190   20.8270  -33.4660 C   0  0  0  0  0  0  0  0  0  0  0  0
   -6.6780   19.7790  -32.4760 C   0  0  0  0  0  0  0  0  0  0  0  0
   -7.1780   21.0880  -32.2180 N   0  0  0  0  0  0  0  0  0  0  0  0
   -6.6200   21.9620  -31.4760 C   0  0  0  0  0  0  0  0  0  0  0  0
   -5.4710   21.6560  -30.8770 N   0  0  0  0  0  0  0  0  0  0  0  0
   -4.8920   22.5860  -30.0960 C   0  0  0  0  0  0  0  0  0  0  0  0
   -3.7760   22.2700  -29.5220 N   0  0  0  0  0  0  0  0  0  0  0  0
   -3.1990   23.2890  -28.7040 C   0  0  0  0  0  0  0  0  0  0  0  0
   -2.0690   23.9880  -29.0550 C   0  0  0  0  0  0  0  0  0  0  0  0
   -1.4990   24.9690  -28.2850 C   0  0  0  0  0  0  0  0  0  0  0  0
   -2.1090   25.2630  -27.0820 C   0  0  0  0  0  0  0  0  0  0  0  0
   -1.6200   26.2200  -26.2480 F   0  0  0  0  0  0  0  0  0  0  0  0
   -3.2410   24.5700  -26.7200 C   0  0  0  0  0  0  0  0  0  0  0  0
   -3.8160   23.5860  -27.4890 C   0  0  0  0  0  0  0  0  0  0  0  0
   -5.4760   23.7980  -29.9350 N   0  0  0  0  0  0  0  0  0  0  0  0
   -6.6360   24.1280  -30.5310 C   0  0  0  0  0  0  0  0  0  0  0  0
   -7.2500   23.1940  -31.3360 C   0  0  0  0  0  0  0  0  0  0  0  0
   -8.4880   23.4350  -32.0220 C   0  0  0  0  0  0  0  0  0  0  0  0
   -9.4910   23.6280  -32.5650 N   0  0  0  0  0  0  0  0  0  0  0  0
   -7.4090   18.6540  -32.1320 C   0  0  0  0  0  0  0  0  0  0  0  0
   -8.7380   18.7940  -31.4840 C   0  0  0  0  0  0  0  0  0  0  0  0
   -6.9440   17.3670  -32.3740 C   0  0  0  0  0  0  0  0  0  0  0  0
   -4.8700   15.3745  -32.3457 H   0  0  0  0  0  0  0  0  0  0  0  0
   -5.8214   15.2964  -33.8674 H   0  0  0  0  0  0  0  0  0  0  0  0
   -4.1866   16.0409  -33.8674 H   0  0  0  0  0  0  0  0  0  0  0  0
   -4.0040   18.2105  -33.7952 H   0  0  0  0  0  0  0  0  0  0  0  0
   -4.2700   21.3392  -32.5572 H   0  0  0  0  0  0  0  0  0  0  0  0
   -3.7519   20.5045  -34.0611 H   0  0  0  0  0  0  0  0  0  0  0  0
   -5.2363   21.5161  -34.0611 H   0  0  0  0  0  0  0  0  0  0  0  0
   -5.0410   20.7060  -31.0210 H   0  0  0  0  0  0  0  0  0  0  0  0
   -1.5911   23.7449  -30.0154 H   0  0  0  0  0  0  0  0  0  0  0  0
   -0.5929   25.4999  -28.6124 H   0  0  0  0  0  0  0  0  0  0  0  0
   -3.7141   24.8179  -25.7583 H   0  0  0  0  0  0  0  0  0  0  0  0
   -4.7225   23.0565  -27.1605 H   0  0  0  0  0  0  0  0  0  0  0  0
   -4.9970   24.4860  -29.3260 H   0  0  0  0  0  0  0  0  0  0  0  0
   -7.0840   25.1211  -30.3790 H   0  0  0  0  0  0  0  0  0  0  0  0
   -8.6161   18.7812  -30.3908 H   0  0  0  0  0  0  0  0  0  0  0  0
   -9.1970   19.7455  -31.7906 H   0  0  0  0  0  0  0  0  0  0  0  0
   -9.3852   17.9591  -31.7906 H   0  0  0  0  0  0  0  0  0  0  0  0
   -7.5432   16.4881  -32.0938 H   0  0  0  0  0  0  0  0  0  0  0  0
  1  2  1  0
  2  3  2  0
  3  4  1  0
  4  5  1  0
  4  6  2  0
  6  7  1  0
  7  8  2  0
  8  9  1  0
  9 10  1  0
 10 11  2  0
 11 12  1  0
 12 13  2  0
 13 14  1  0
 14 15  2  0
 15 16  1  0
 15 17  1  0
 17 18  2  0
 10 19  1  0
 19 20  1  0
 20 21  2  0
 21 22  1  0
 22 23  3  0
  6 24  1  0
 24 25  1  0
 24 26  2  0
 26  2  1  0
 21  8  1  0
 18 12  1  0
  1 27  1  0
  1 28  1  0
  1 29  1  0
  3 30  1  0
  5 31  1  0
  5 32  1  0
  5 33  1  0
  9 34  1  0
 13 35  1  0
 14 36  1  0
 17 37  1  0
 18 38  1  0
 19 39  1  0
 20 40  1  0
 25 41  1  0
 25 42  1  0
 25 43  1  0
 26 44  1  0
M  END
>  <smiles>  (15) 
Cc1cc(C)c(N=c2[nH]c(=Nc3ccc(F)cc3)[nH]cc2C#N)c(C)c1

>  <score_type>  (15) 
oracle

>  <origin>  (15) 
adgpu

>  <m_score__min__energy>  (15) 
-8.1600000000000001

>  <m_primary>  (15) 
energy

$$$$
15:0
     RDKit          3D

 64 68  0  0  1  0  0  0  0  0999 V2000
    0.7650   16.9130  -27.9920 C   0  0  0  0  0  0  0  0  0  0  0  0
    0.0810   18.1800  -27.6730 C   0  0  0  0  0  0  0  0  0  0  0  0
    0.7200   19.3940  -27.8610 C   0  0  0  0  0  0  0  0  0  0  0  0
    0.0700   20.5730  -27.5590 C   0  0  0  0  0  0  0  0  0  0  0  0
    0.7860   21.8430  -27.7750 C   0  0  0  0  0  0  0  0  0  0  0  0
   -1.2410   20.5820  -27.0610 C   0  0  0  0  0  0  0  0  0  0  0  0
   -1.8890   21.7310  -26.7630 O   0  0  0  0  0  0  0  0  0  0  0  0
   -2.0680   22.8730  -27.4690 C   0  0  0  0  0  0  0  0  0  0  0  0
   -3.0860   22.8780  -28.4320 C   0  0  0  0  0  0  0  0  0  0  0  0
   -3.3520   23.9860  -29.2060 C   0  0  0  0  0  0  0  0  0  0  0  0
   -4.2970   23.9510  -30.0820 N   0  0  0  0  0  0  0  0  0  0  0  0
   -5.1240   22.7720  -30.3090 C   0  0  0  0  0  0  0  0  0  0  0  0
   -4.3640   21.6980  -31.0450 C   0  0  0  0  0  0  0  0  0  0  0  0
   -4.9870   21.4040  -32.4180 C   0  0  0  0  0  0  0  0  0  0  0  0
   -6.3720   21.0000  -32.2000 N   0  0  0  0  0  0  0  0  0  0  0  0
   -6.8380   20.4250  -33.4230 C   0  0  0  0  0  0  0  0  0  0  0  0
   -6.5080   18.9960  -33.6090 C   0  0  0  0  0  0  0  0  0  0  0  0
   -7.1790   17.9570  -33.0150 C   0  0  0  0  0  0  0  0  0  0  0  0
   -6.8170   16.6410  -33.2280 C   0  0  0  0  0  0  0  0  0  0  0  0
   -5.7480   16.3410  -34.0660 C   0  0  0  0  0  0  0  0  0  0  0  0
   -5.0480   17.3810  -34.6850 C   0  0  0  0  0  0  0  0  0  0  0  0
   -5.4500   18.6750  -34.4370 C   0  0  0  0  0  0  0  0  0  0  0  0
   -7.1080   22.1350  -31.7480 C   0  0  0  0  0  0  0  0  0  0  0  0
   -6.2460   23.2520  -31.2040 C   0  0  0  0  0  0  0  0  0  0  0  0
   -2.6000   25.0970  -29.0190 N   0  0  0  0  0  0  0  0  0  0  0  0
   -1.6160   25.1140  -28.0990 C   0  0  0  0  0  0  0  0  0  0  0  0
   -0.7450   26.1280  -27.7540 C   0  0  0  0  0  0  0  0  0  0  0  0
    0.0470   25.5900  -26.7540 C   0  0  0  0  0  0  0  0  0  0  0  0
   -0.3790   24.3210  -26.5570 N   0  0  0  0  0  0  0  0  0  0  0  0
   -1.3650   24.0110  -27.3420 N   0  0  0  0  0  0  0  0  0  0  0  0
   -1.8710   19.3500  -26.8790 C   0  0  0  0  0  0  0  0  0  0  0  0
   -3.2480   19.2780  -26.3580 C   0  0  0  0  0  0  0  0  0  0  0  0
   -1.2000   18.1830  -27.1870 C   0  0  0  0  0  0  0  0  0  0  0  0
    1.0416   16.4006  -27.0588 H   0  0  0  0  0  0  0  0  0  0  0  0
    0.0914   16.2700  -28.5776 H   0  0  0  0  0  0  0  0  0  0  0  0
    1.6721   17.1234  -28.5776 H   0  0  0  0  0  0  0  0  0  0  0  0
    1.7479   19.4185  -28.2519 H   0  0  0  0  0  0  0  0  0  0  0  0
    1.0388   22.2914  -26.8028 H   0  0  0  0  0  0  0  0  0  0  0  0
    1.7092   21.6517  -28.3417 H   0  0  0  0  0  0  0  0  0  0  0  0
    0.1444   22.5338  -28.3417 H   0  0  0  0  0  0  0  0  0  0  0  0
   -3.6907   21.9701  -28.5741 H   0  0  0  0  0  0  0  0  0  0  0  0
   -5.4650   22.3448  -29.3544 H   0  0  0  0  0  0  0  0  0  0  0  0
   -3.3252   22.0302  -31.1882 H   0  0  0  0  0  0  0  0  0  0  0  0
   -4.4028   20.7767  -30.4453 H   0  0  0  0  0  0  0  0  0  0  0  0
   -4.9546   22.3071  -33.0451 H   0  0  0  0  0  0  0  0  0  0  0  0
   -4.4295   20.6065  -32.9310 H   0  0  0  0  0  0  0  0  0  0  0  0
   -7.9327   20.5288  -33.4532 H   0  0  0  0  0  0  0  0  0  0  0  0
   -6.3246   20.9661  -34.2315 H   0  0  0  0  0  0  0  0  0  0  0  0
   -8.0280   18.1779  -32.3514 H   0  0  0  0  0  0  0  0  0  0  0  0
   -7.3739   15.8305  -32.7351 H   0  0  0  0  0  0  0  0  0  0  0  0
   -5.4560   15.2949  -34.2401 H   0  0  0  0  0  0  0  0  0  0  0  0
   -4.1989   17.1715  -35.3522 H   0  0  0  0  0  0  0  0  0  0  0  0
   -4.9004   19.4945  -34.9232 H   0  0  0  0  0  0  0  0  0  0  0  0
   -7.6904   22.5286  -32.5941 H   0  0  0  0  0  0  0  0  0  0  0  0
   -7.7437   21.7916  -30.9185 H   0  0  0  0  0  0  0  0  0  0  0  0
   -5.8052   23.7957  -32.0526 H   0  0  0  0  0  0  0  0  0  0  0  0
   -6.8971   23.8912  -30.5896 H   0  0  0  0  0  0  0  0  0  0  0  0
   -0.6919   27.1408  -28.1800 H   0  0  0  0  0  0  0  0  0  0  0  0
    0.8654   26.0969  -26.2218 H   0  0  0  0  0  0  0  0  0  0  0  0
    0.0680   23.7070  -25.8470 H   0  0  0  0  0  0  0  0  0  0  0  0
   -3.2245   19.2792  -25.2583 H   0  0  0  0  0  0  0  0  0  0  0  0
   -3.8205   20.1474  -26.7135 H   0  0  0  0  0  0  0  0  0  0  0  0
   -3.7267   18.3536  -26.7135 H   0  0  0  0  0  0  0  0  0  0  0  0
   -1.7124   17.2213  -27.0368 H   0  0  0  0  0  0  0  0  0  0  0  0
  1  2  1  0
  2  3  2  0
  3  4  1  0
  4  5  1  0
  4  6  2  0
  6  7  1  0
  7  8  1  0
  8  9  2  0
  9 10  1  0
 10 11  2  0
 11 12  1  0
 12 13  1  0
 13 14  1  0
 14 15  1  0
 15 16  1  0
 16 17  1  0
 17 18  2  0
 18 19  1  0
 19 20  2  0
 20 21  1  0
 21 22  2  0
 15 23  1  0
 23 24  1  0
 10 25  1  0
 25 26  2  0
 26 27  1  0
 27 28  2  0
 28 29  1  0
 29 30  1  0
  6 31  1  0
 31 32  1  0
 31 33  2  0
 33  2  1  0
 30  8  1  0
 24 12  1  0
 30 26  1  0
 22 17  1  0
  1 34  1  0
  1 35  1  0
  1 36  1  0
  3 37  1  0
  5 38  1  0
  5 39  1  0
  5 40  1  0
  9 41  1  0
 12 42  1  0
 13 43  1  0
 13 44  1  0
 14 45  1  0
 14 46  1  0
 16 47  1  0
 16 48  1  0
 18 49  1  0
 19 50  1  0
 20 51  1  0
 21 52  1  0
 22 53  1  0
 23 54  1  0
 23 55  1  0
 24 56  1  0
 24 57  1  0
 27 58  1  0
 28 59  1  0
 29 60  1  0
 32 61  1  0
 32 62  1  0
 32 63  1  0
 33 64  1  0
M  END
>  <smiles>  (16) 
Cc1cc(C)c(Oc2cc(=NC3CCN(Cc4ccccc4)CC3)nc3cc[nH]n23)c(C)c1

>  <score_type>  (16) 
oracle

>  <origin>  (16) 
adgpu

>  <m_score__min__energy>  (16) 
-9.8800000000000008

>  <m_primary>  (16) 
energy

$$$$
16:0
     RDKit          3D

 60 63  0  0  1  0  0  0  0  0999 V2000
   -5.8310   25.4050  -30.1530 C   0  0  0  0  0  0  0  0  0  0  0  0
   -5.0600   24.8220  -31.1850 O   0  0  0  0  0  0  0  0  0  0  0  0
   -4.9050   23.4640  -31.2590 C   0  0  0  0  0  0  0  0  0  0  0  0
   -5.9260   22.6030  -31.6750 C   0  0  0  0  0  0  0  0  0  0  0  0
   -5.7370   21.2340  -31.7390 C   0  0  0  0  0  0  0  0  0  0  0  0
   -6.7750   20.3720  -32.1600 N   0  0  0  0  0  0  0  0  0  0  0  0
   -6.4140   19.0610  -32.6410 C   0  0  0  0  0  0  0  0  0  0  0  0
   -7.5760   18.2340  -33.0830 C   0  0  0  0  0  0  0  0  0  0  0  0
   -8.8540   18.6570  -32.5890 N   0  0  0  0  0  0  0  0  0  0  0  0
   -9.0890   18.3850  -31.2040 C   0  0  0  0  0  0  0  0  0  0  0  0
   -9.0600   20.0380  -32.9330 C   0  0  0  0  0  0  0  0  0  0  0  0
   -8.1400   20.8550  -32.0830 C   0  0  0  0  0  0  0  0  0  0  0  0
   -4.5230   20.7780  -31.3830 N   0  0  0  0  0  0  0  0  0  0  0  0
   -3.5090   21.5640  -30.9770 C   0  0  0  0  0  0  0  0  0  0  0  0
   -3.6620   22.9450  -30.8990 C   0  0  0  0  0  0  0  0  0  0  0  0
   -2.5900   23.7770  -30.4710 N   0  0  0  0  0  0  0  0  0  0  0  0
   -2.5030   24.2510  -29.2940 C   0  0  0  0  0  0  0  0  0  0  0  0
   -3.4710   23.9600  -28.3910 N   0  0  0  0  0  0  0  0  0  0  0  0
   -3.3260   24.4870  -27.1710 C   0  0  0  0  0  0  0  0  0  0  0  0
   -2.2660   25.2850  -26.8150 C   0  0  0  0  0  0  0  0  0  0  0  0
   -2.1160   25.9470  -25.2090 Cl  0  0  0  0  0  0  0  0  0  0  0  0
   -1.2950   25.5710  -27.7380 C   0  0  0  0  0  0  0  0  0  0  0  0
   -0.2680   26.2890  -27.5580 N   0  0  0  0  0  0  0  0  0  0  0  0
   -0.0030   26.9040  -26.3160 C   0  0  0  0  0  0  0  0  0  0  0  0
   -0.4700   28.2020  -26.0730 C   0  0  0  0  0  0  0  0  0  0  0  0
   -0.1930   28.8470  -24.8690 C   0  0  0  0  0  0  0  0  0  0  0  0
    0.5590   28.1860  -23.8950 C   0  0  0  0  0  0  0  0  0  0  0  0
    1.0340   26.8900  -24.1200 C   0  0  0  0  0  0  0  0  0  0  0  0
    0.7510   26.2500  -25.3330 C   0  0  0  0  0  0  0  0  0  0  0  0
    1.3600   24.6310  -25.5870 S   0  0  0  0  0  0  0  0  0  0  0  0
    0.2850   23.4380  -24.8170 C   0  0  0  0  0  0  0  0  0  0  0  0
    2.7150   24.5280  -24.9160 O   0  0  0  0  0  0  0  0  0  0  0  0
    1.4610   24.2610  -27.0270 O   0  0  0  0  0  0  0  0  0  0  0  0
   -1.4580   25.0270  -28.9770 N   0  0  0  0  0  0  0  0  0  0  0  0
   -5.4272   25.0996  -29.1764 H   0  0  0  0  0  0  0  0  0  0  0  0
   -5.7911   26.5008  -30.2399 H   0  0  0  0  0  0  0  0  0  0  0  0
   -6.8745   25.0681  -30.2399 H   0  0  0  0  0  0  0  0  0  0  0  0
   -6.9020   23.0243  -31.9578 H   0  0  0  0  0  0  0  0  0  0  0  0
   -5.7311   19.1820  -33.4948 H   0  0  0  0  0  0  0  0  0  0  0  0
   -5.9485   18.5300  -31.7975 H   0  0  0  0  0  0  0  0  0  0  0  0
   -7.6117   18.2585  -34.1821 H   0  0  0  0  0  0  0  0  0  0  0  0
   -7.4081   17.2288  -32.6691 H   0  0  0  0  0  0  0  0  0  0  0  0
   -8.4929   19.0749  -30.5886 H   0  0  0  0  0  0  0  0  0  0  0  0
  -10.1570   18.5227  -30.9794 H   0  0  0  0  0  0  0  0  0  0  0  0
   -8.7977   17.3483  -30.9794 H   0  0  0  0  0  0  0  0  0  0  0  0
   -8.8302   20.1984  -33.9967 H   0  0  0  0  0  0  0  0  0  0  0  0
  -10.1069   20.3282  -32.7605 H   0  0  0  0  0  0  0  0  0  0  0  0
   -8.1693   21.8995  -32.4266 H   0  0  0  0  0  0  0  0  0  0  0  0
   -8.4751   20.7765  -31.0382 H   0  0  0  0  0  0  0  0  0  0  0  0
   -2.5459   21.1086  -30.7030 H   0  0  0  0  0  0  0  0  0  0  0  0
   -4.2680   23.3530  -28.6770 H   0  0  0  0  0  0  0  0  0  0  0  0
   -4.0942   24.2707  -26.4140 H   0  0  0  0  0  0  0  0  0  0  0  0
   -1.0628   28.7188  -26.8421 H   0  0  0  0  0  0  0  0  0  0  0  0
   -0.5630   29.8669  -24.6875 H   0  0  0  0  0  0  0  0  0  0  0  0
    0.7796   28.6895  -22.9422 H   0  0  0  0  0  0  0  0  0  0  0  0
    1.6265   26.3763  -23.3486 H   0  0  0  0  0  0  0  0  0  0  0  0
    0.3638   23.5255  -23.7233 H   0  0  0  0  0  0  0  0  0  0  0  0
   -0.7536   23.6271  -25.1260 H   0  0  0  0  0  0  0  0  0  0  0  0
    0.5808   22.4246  -25.1260 H   0  0  0  0  0  0  0  0  0  0  0  0
   -0.7380   25.2170  -29.7240 H   0  0  0  0  0  0  0  0  0  0  0  0
  1  2  1  0
  2  3  1  0
  3  4  2  0
  4  5  1  0
  5  6  1  0
  6  7  1  0
  7  8  1  0
  8  9  1  0
  9 10  1  0
  9 11  1  0
 11 12  1  0
  5 13  2  0
 13 14  1  0
 14 15  2  0
 15 16  1  0
 16 17  2  0
 17 18  1  0
 18 19  1  0
 19 20  2  0
 20 21  1  0
 20 22  1  0
 22 23  2  0
 23 24  1  0
 24 25  2  0
 25 26  1  0
 26 27  2  0
 27 28  1  0
 28 29  2  0
 29 30  1  0
 30 31  1  0
 30 32  2  0
 30 33  2  0
 22 34  1  0
 15  3  1  0
 34 17  1  0
 12  6  1  0
 29 24  1  0
  1 35  1  0
  1 36  1  0
  1 37  1  0
  4 38  1  0
  7 39  1  0
  7 40  1  0
  8 41  1  0
  8 42  1  0
 10 43  1  0
 10 44  1  0
 10 45  1  0
 11 46  1  0
 11 47  1  0
 12 48  1  0
 12 49  1  0
 14 50  1  0
 18 51  1  0
 19 52  1  0
 25 53  1  0
 26 54  1  0
 27 55  1  0
 28 56  1  0
 31 57  1  0
 31 58  1  0
 31 59  1  0
 34 60  1  0
M  END
>  <smiles>  (17) 
COc1cc(N2CCN(C)CC2)ncc1N=c1[nH]cc(Cl)c(=Nc2ccccc2S(C)(=O)=O)[nH]1

>  <score_type>  (17) 
oracle

>  <origin>  (17) 
adgpu

>  <m_score__min__energy>  (17) 
-10.34

>  <m_primary>  (17) 
energy

$$$$
17:0
     RDKit          3D

 52 55  0  0  0  0  0  0  0  0999 V2000
   -7.1430   17.4870  -33.0120 C   0  0  0  0  0  0  0  0  0  0  0  0
   -6.2440   17.8740  -34.0470 O   0  0  0  0  0  0  0  0  0  0  0  0
   -5.1520   18.7410  -33.8830 C   0  0  0  0  0  0  0  0  0  0  0  0
   -5.3460   20.0780  -33.4860 C   0  0  0  0  0  0  0  0  0  0  0  0
   -4.2650   20.9500  -33.3330 C   0  0  0  0  0  0  0  0  0  0  0  0
   -4.5080   22.3180  -32.9620 N   0  0  0  0  0  0  0  0  0  0  0  0
   -4.7080   22.7650  -31.6130 C   0  0  0  0  0  0  0  0  0  0  0  0
   -3.7590   23.2860  -30.8790 O   0  0  0  0  0  0  0  0  0  0  0  0
   -4.3060   23.6150  -29.7280 C   0  0  0  0  0  0  0  0  0  0  0  0
   -3.5610   24.2490  -28.6210 C   0  0  0  0  0  0  0  0  0  0  0  0
   -4.1640   24.4320  -27.3640 C   0  0  0  0  0  0  0  0  0  0  0  0
   -3.4540   25.0340  -26.3210 C   0  0  0  0  0  0  0  0  0  0  0  0
   -2.1360   25.4570  -26.5230 C   0  0  0  0  0  0  0  0  0  0  0  0
   -1.2460   26.2120  -25.2130 Cl  0  0  0  0  0  0  0  0  0  0  0  0
   -1.5300   25.2790  -27.7700 C   0  0  0  0  0  0  0  0  0  0  0  0
   -2.2370   24.6780  -28.8150 C   0  0  0  0  0  0  0  0  0  0  0  0
   -5.6230   23.3090  -29.6690 N   0  0  0  0  0  0  0  0  0  0  0  0
   -5.8770   22.7510  -30.8690 C   0  0  0  0  0  0  0  0  0  0  0  0
   -7.1910   22.1900  -31.2380 C   0  0  0  0  0  0  0  0  0  0  0  0
   -8.2380   23.0510  -31.6050 C   0  0  0  0  0  0  0  0  0  0  0  0
   -9.4790   22.5300  -31.9840 C   0  0  0  0  0  0  0  0  0  0  0  0
   -9.6880   21.1480  -31.9850 C   0  0  0  0  0  0  0  0  0  0  0  0
   -8.6600   20.2860  -31.5970 C   0  0  0  0  0  0  0  0  0  0  0  0
   -7.4180   20.8030  -31.2150 C   0  0  0  0  0  0  0  0  0  0  0  0
   -2.9640   20.4700  -33.5330 C   0  0  0  0  0  0  0  0  0  0  0  0
   -2.7450   19.1450  -33.9430 C   0  0  0  0  0  0  0  0  0  0  0  0
   -1.4530   18.6520  -34.1920 O   0  0  0  0  0  0  0  0  0  0  0  0
   -0.7350   17.7860  -33.3180 C   0  0  0  0  0  0  0  0  0  0  0  0
   -3.8320   18.2740  -34.1200 C   0  0  0  0  0  0  0  0  0  0  0  0
   -3.5300   16.9620  -34.5320 O   0  0  0  0  0  0  0  0  0  0  0  0
   -3.9570   15.7570  -33.9090 C   0  0  0  0  0  0  0  0  0  0  0  0
   -6.6823   17.6853  -32.0330 H   0  0  0  0  0  0  0  0  0  0  0  0
   -8.0756   18.0634  -33.1019 H   0  0  0  0  0  0  0  0  0  0  0  0
   -7.3653   16.4135  -33.1019 H   0  0  0  0  0  0  0  0  0  0  0  0
   -6.3659   20.4421  -33.2930 H   0  0  0  0  0  0  0  0  0  0  0  0
   -4.6070   23.0270  -33.7220 H   0  0  0  0  0  0  0  0  0  0  0  0
   -5.1998   24.0997  -27.2005 H   0  0  0  0  0  0  0  0  0  0  0  0
   -3.9322   25.1752  -25.3405 H   0  0  0  0  0  0  0  0  0  0  0  0
   -0.4940   25.6128  -27.9292 H   0  0  0  0  0  0  0  0  0  0  0  0
   -1.7548   24.5401  -29.7940 H   0  0  0  0  0  0  0  0  0  0  0  0
   -8.0812   24.1397  -31.5943 H   0  0  0  0  0  0  0  0  0  0  0  0
  -10.2919   23.2087  -32.2818 H   0  0  0  0  0  0  0  0  0  0  0  0
  -10.6622   20.7393  -32.2914 H   0  0  0  0  0  0  0  0  0  0  0  0
   -8.8274   19.1988  -31.5919 H   0  0  0  0  0  0  0  0  0  0  0  0
   -6.6157   20.1217  -30.8953 H   0  0  0  0  0  0  0  0  0  0  0  0
   -2.1057   21.1377  -33.3672 H   0  0  0  0  0  0  0  0  0  0  0  0
   -0.9563   18.0529  -32.2741 H   0  0  0  0  0  0  0  0  0  0  0  0
   -1.0385   16.7449  -33.5025 H   0  0  0  0  0  0  0  0  0  0  0  0
    0.3443   17.8914  -33.5025 H   0  0  0  0  0  0  0  0  0  0  0  0
   -3.9153   15.8746  -32.8161 H   0  0  0  0  0  0  0  0  0  0  0  0
   -4.9895   15.5322  -34.2145 H   0  0  0  0  0  0  0  0  0  0  0  0
   -3.2964   14.9322  -34.2145 H   0  0  0  0  0  0  0  0  0  0  0  0
  1  2  1  0
  2  3  1  0
  3  4  2  0
  4  5  1  0
  5  6  1  0
  6  7  1  0
  7  8  1  0
  8  9  1  0
  9 10  1  0
 10 11  2  0
 11 12  1  0
 12 13  2  0
 13 14  1  0
 13 15  1  0
 15 16  2  0
  9 17  2  0
 17 18  1  0
 18 19  1  0
 19 20  2  0
 20 21  1  0
 21 22  2  0
 22 23  1  0
 23 24  2  0
  5 25  2  0
 25 26  1  0
 26 27  1  0
 27 28  1  0
 26 29  2  0
 29 30  1  0
 30 31  1  0
 29  3  1  0
 18  7  2  0
 24 19  1  0
 16 10  1  0
  1 32  1  0
  1 33  1  0
  1 34  1  0
  4 35  1  0
  6 36  1  0
 11 37  1  0
 12 38  1  0
 15 39  1  0
 16 40  1  0
 20 41  1  0
 21 42  1  0
 22 43  1  0
 23 44  1  0
 24 45  1  0
 25 46  1  0
 28 47  1  0
 28 48  1  0
 28 49  1  0
 31 50  1  0
 31 51  1  0
 31 52  1  0
M  END
>  <UniqueID>  (18) 
13

>  <SMILES>  (18) 
COc1cc(Nc2oc(-c3ccc(Cl)cc3)nc2-c2ccccc2)cc(OC)c1OC

>  <Energy>  (18) 
95.40029348690814

>  <Genealogy>  (18) 
COc1cc(Nc2oc(-c3ccc(Cl)cc3)nc2-c2ccccc2)cc(OC)c1OC (3D coordinates assigned)
COc1cc(Nc2oc(-c3ccc(Cl)cc3)nc2-c2ccccc2)cc(OC)c1OC (optimized conformer: 95.40029348690814 kcal/mol)

>  <smiles>  (18) 
COc1cc(Nc2oc(-c3ccc(Cl)cc3)nc2-c2ccccc2)cc(OC)c1OC

>  <score_type>  (18) 
oracle

>  <origin>  (18) 
adgpu

>  <m_score__min__energy>  (18) 
-8.7899999999999991

>  <m_primary>  (18) 
energy

$$$$
18:0
     RDKit          3D

 38 40  0  0  0  0  0  0  0  0999 V2000
   -4.6140   13.8540  -31.3700 C   0  0  0  0  0  0  0  0  0  0  0  0
   -4.7330   13.8170  -33.1470 S   0  0  0  0  0  0  0  0  0  0  0  0
   -3.6970   12.8700  -33.6850 O   0  0  0  0  0  0  0  0  0  0  0  0
   -6.1040   13.3400  -33.5330 O   0  0  0  0  0  0  0  0  0  0  0  0
   -4.4670   15.4010  -33.7990 N   0  0  0  0  0  0  0  0  0  0  0  0
   -3.3440   15.7770  -34.6530 C   0  0  0  0  0  0  0  0  0  0  0  0
   -3.5450   17.2790  -34.9750 C   0  0  0  0  0  0  0  0  0  0  0  0
   -4.7990   17.6240  -34.2480 C   0  0  0  0  0  0  0  0  0  0  0  0
   -5.4500   18.8580  -34.1940 C   0  0  0  0  0  0  0  0  0  0  0  0
   -6.6370   18.9670  -33.4330 C   0  0  0  0  0  0  0  0  0  0  0  0
   -7.3580   20.2090  -33.3460 N   0  0  0  0  0  0  0  0  0  0  0  0
   -6.8800   21.3620  -32.6370 C   0  0  0  0  0  0  0  0  0  0  0  0
   -5.5190   21.6830  -32.7020 C   0  0  0  0  0  0  0  0  0  0  0  0
   -5.0210   22.7990  -32.0240 C   0  0  0  0  0  0  0  0  0  0  0  0
   -5.8820   23.6230  -31.2800 C   0  0  0  0  0  0  0  0  0  0  0  0
   -5.3730   24.7720  -30.5770 N   0  0  0  0  0  0  0  0  0  0  0  0
   -4.2410   25.2300  -30.8400 O   0  0  0  0  0  0  0  0  0  0  0  0
   -6.1250   25.3850  -29.6020 O   0  0  0  0  0  0  0  0  0  0  0  0
   -7.2530   23.3150  -31.2380 C   0  0  0  0  0  0  0  0  0  0  0  0
   -7.7560   22.1980  -31.9170 C   0  0  0  0  0  0  0  0  0  0  0  0
   -9.4920   21.9130  -31.8990 Cl  0  0  0  0  0  0  0  0  0  0  0  0
   -7.1440   17.8250  -32.7730 C   0  0  0  0  0  0  0  0  0  0  0  0
   -6.4690   16.5970  -32.8460 C   0  0  0  0  0  0  0  0  0  0  0  0
   -5.2920   16.5310  -33.5950 C   0  0  0  0  0  0  0  0  0  0  0  0
   -5.5774   13.5545  -30.9317 H   0  0  0  0  0  0  0  0  0  0  0  0
   -3.8289   13.1576  -31.0405 H   0  0  0  0  0  0  0  0  0  0  0  0
   -4.3622   14.8728  -31.0405 H   0  0  0  0  0  0  0  0  0  0  0  0
   -2.3918   15.6224  -34.1243 H   0  0  0  0  0  0  0  0  0  0  0  0
   -3.3085   15.1674  -35.5679 H   0  0  0  0  0  0  0  0  0  0  0  0
   -2.6989   17.8772  -34.6059 H   0  0  0  0  0  0  0  0  0  0  0  0
   -3.6050   17.4822  -36.0544 H   0  0  0  0  0  0  0  0  0  0  0  0
   -5.0475   19.7284  -34.7329 H   0  0  0  0  0  0  0  0  0  0  0  0
   -8.2220   20.3220  -33.9240 H   0  0  0  0  0  0  0  0  0  0  0  0
   -4.8367   21.0524  -33.2909 H   0  0  0  0  0  0  0  0  0  0  0  0
   -3.9475   23.0339  -32.0732 H   0  0  0  0  0  0  0  0  0  0  0  0
   -7.9379   23.9580  -30.6658 H   0  0  0  0  0  0  0  0  0  0  0  0
   -8.0775   17.8995  -32.1960 H   0  0  0  0  0  0  0  0  0  0  0  0
   -6.8571   15.7086  -32.3263 H   0  0  0  0  0  0  0  0  0  0  0  0
  1  2  1  0
  2  3  2  0
  2  4  2  0
  2  5  1  0
  5  6  1  0
  6  7  1  0
  7  8  1  0
  8  9  2  0
  9 10  1  0
 10 11  1  0
 11 12  1  0
 12 13  2  0
 13 14  1  0
 14 15  2  0
 15 16  1  0
 16 17  2  0
 16 18  1  0
 15 19  1  0
 19 20  2  0
 20 21  1  0
 10 22  2  0
 22 23  1  0
 23 24  2  0
 24  5  1  0
 24  8  1  0
 20 12  1  0
  1 25  1  0
  1 26  1  0
  1 27  1  0
  6 28  1  0
  6 29  1  0
  7 30  1  0
  7 31  1  0
  9 32  1  0
 11 33  1  0
 13 34  1  0
 14 35  1  0
 19 36  1  0
 22 37  1  0
 23 38  1  0
M  CHG  2  16   1  18  -1
M  END
>  <UniqueID>  (19) 
14

>  <SMILES>  (19) 
CS(=O)(=O)N1CCc2cc(Nc3ccc([N+](=O)[O-])cc3Cl)ccc21

>  <Energy>  (19) 
59.68275031726477

>  <Genealogy>  (19) 
CS(=O)(=O)N1CCc2cc(Nc3ccc([N+](=O)[O-])cc3Cl)ccc21 (3D coordinates assigned)
CS(=O)(=O)N1CCc2cc(Nc3ccc([N+](=O)[O-])cc3Cl)ccc21 (nonaromatic ring conformer: 59.68275031726477 kcal/mol)

>  <smiles>  (19) 
CS(=O)(=O)N1CCc2cc(Nc3ccc([N+](=O)[O-])cc3Cl)ccc21

>  <score_type>  (19) 
oracle

>  <origin>  (19) 
adgpu

>  <m_score__min__energy>  (19) 
-9.4000000000000004

>  <m_primary>  (19) 
energy

$$$$
19:0
     RDKit          3D

 33 35  0  0  0  0  0  0  0  0999 V2000
   -1.2180   28.0465  -23.9005 H   0  0  0  0  0  0  0  0  0  0  0  0
   -1.1480   27.4720  -24.8360 C   0  0  0  0  0  0  0  0  0  0  0  0
   -0.5980   28.0390  -25.9420 N   0  0  0  0  0  0  0  0  0  0  0  0
   -0.5050   27.3680  -27.1200 C   0  0  0  0  0  0  0  0  0  0  0  0
   -0.0412   27.8530  -27.9916 H   0  0  0  0  0  0  0  0  0  0  0  0
   -0.9990   26.0570  -27.2290 C   0  0  0  0  0  0  0  0  0  0  0  0
   -0.8600   25.2650  -28.5060 C   0  0  0  0  0  0  0  0  0  0  0  0
   -0.6317   24.2193  -28.2522 H   0  0  0  0  0  0  0  0  0  0  0  0
   -0.0511   25.7164  -29.0992 H   0  0  0  0  0  0  0  0  0  0  0  0
   -2.0840   25.3000  -29.3100 N   0  0  0  0  0  0  0  0  0  0  0  0
   -2.9200   24.3820  -29.7230 C   0  0  0  0  0  0  0  0  0  0  0  0
   -4.0090   24.8350  -30.4030 N   0  0  0  0  0  0  0  0  0  0  0  0
   -4.9860   24.0250  -30.8800 C   0  0  0  0  0  0  0  0  0  0  0  0
   -6.0790   24.5680  -31.5650 C   0  0  0  0  0  0  0  0  0  0  0  0
   -6.1461   25.6550  -31.7196 H   0  0  0  0  0  0  0  0  0  0  0  0
   -7.0860   23.7290  -32.0530 C   0  0  0  0  0  0  0  0  0  0  0  0
   -7.9438   24.1569  -32.5926 H   0  0  0  0  0  0  0  0  0  0  0  0
   -7.0040   22.3470  -31.8560 C   0  0  0  0  0  0  0  0  0  0  0  0
   -7.7983   21.6896  -32.2393 H   0  0  0  0  0  0  0  0  0  0  0  0
   -5.9130   21.7990  -31.1720 C   0  0  0  0  0  0  0  0  0  0  0  0
   -5.8488   20.7115  -31.0194 H   0  0  0  0  0  0  0  0  0  0  0  0
   -4.9010   22.6380  -30.6810 C   0  0  0  0  0  0  0  0  0  0  0  0
   -3.7960   22.1220  -30.0020 C   0  0  0  0  0  0  0  0  0  0  0  0
   -3.7161   21.0363  -29.8445 H   0  0  0  0  0  0  0  0  0  0  0  0
   -2.7810   22.9700  -29.5150 C   0  0  0  0  0  0  0  0  0  0  0  0
   -1.5940   22.3060  -28.8660 C   0  0  0  0  0  0  0  0  0  0  0  0
   -1.6950   22.3625  -27.7721 H   0  0  0  0  0  0  0  0  0  0  0  0
   -1.5488   21.2516  -29.1761 H   0  0  0  0  0  0  0  0  0  0  0  0
   -0.6718   22.8193  -29.1761 H   0  0  0  0  0  0  0  0  0  0  0  0
   -1.5370   25.4490  -26.0850 C   0  0  0  0  0  0  0  0  0  0  0  0
   -1.8912   24.4087  -26.1318 H   0  0  0  0  0  0  0  0  0  0  0  0
   -1.6240   26.1610  -24.8870 C   0  0  0  0  0  0  0  0  0  0  0  0
   -2.0629   25.6937  -23.9931 H   0  0  0  0  0  0  0  0  0  0  0  0
  1  2  1  0
  2  3  2  0
  3  4  1  0
  4  5  1  0
  4  6  2  0
  6  7  1  0
  7  8  1  0
  7  9  1  0
  7 10  1  0
 10 11  2  0
 11 12  1  0
 12 13  1  0
 13 14  2  0
 14 15  1  0
 14 16  1  0
 16 17  1  0
 16 18  2  0
 18 19  1  0
 18 20  1  0
 20 21  1  0
 20 22  2  0
 22 23  1  0
 23 24  1  0
 23 25  2  0
 25 26  1  0
 26 27  1  0
 26 28  1  0
 26 29  1  0
  6 30  1  0
 30 31  1  0
 30 32  2  0
 32 33  1  0
 32  2  1  0
 25 11  1  0
 22 13  1  0
M  CHG  1  12  -1
M  END
>  <UniqueID>  (20) 
15

>  <SMILES>  (20) 
Cc1cc2ccccc2[n-]/c1=N/Cc1cccnc1

>  <Energy>  (20) 
52.1749548302938

>  <Genealogy>  (20) 
Cc1cc2ccccc2[n-]c1=NCc1cccnc1 (protonated)
Cc1cc2ccccc2[n-]/c1=N/Cc1cccnc1 (cis-trans isomerization)
Cc1cc2ccccc2[n-]/c1=N/Cc1cccnc1 (3D coordinates assigned)
Cc1cc2ccccc2[n-]/c1=N/Cc1cccnc1 (optimized conformer: 52.1749548302938 kcal/mol)

>  <smiles>  (20) 
Cc1cc2ccccc2[nH]c1=NCc1cccnc1

>  <score_type>  (20) 
oracle

>  <origin>  (20) 
adgpu

>  <m_score__min__energy>  (20) 
-8.5500000000000007

>  <m_primary>  (20) 
energy

$$$$
20:0
     RDKit          3D

 43 45  0  0  0  0  0  0  0  0999 V2000
   -9.4060   21.0360  -31.9270 C   0  0  0  0  0  0  0  0  0  0  0  0
   -8.3690   22.0120  -31.4550 C   0  0  0  0  0  0  0  0  0  0  0  0
   -7.8140   22.9380  -32.3520 C   0  0  0  0  0  0  0  0  0  0  0  0
   -6.8650   23.8650  -31.9100 C   0  0  0  0  0  0  0  0  0  0  0  0
   -6.4600   23.8750  -30.5700 C   0  0  0  0  0  0  0  0  0  0  0  0
   -5.2450   25.0250  -30.0220 S   0  0  0  0  0  0  0  0  0  0  0  0
   -5.0830   24.9240  -28.5300 O   0  0  0  0  0  0  0  0  0  0  0  0
   -5.6880   26.4180  -30.3660 O   0  0  0  0  0  0  0  0  0  0  0  0
   -3.7140   24.7130  -30.7780 N   0  0  0  0  0  0  0  0  0  0  0  0
   -2.9330   23.5460  -30.5000 C   0  0  0  0  0  0  0  0  0  0  0  0
   -3.0670   22.4330  -31.3390 C   0  0  0  0  0  0  0  0  0  0  0  0
   -2.2750   21.3000  -31.1430 C   0  0  0  0  0  0  0  0  0  0  0  0
   -1.3490   21.2660  -30.0980 C   0  0  0  0  0  0  0  0  0  0  0  0
   -1.2270   22.3580  -29.2360 C   0  0  0  0  0  0  0  0  0  0  0  0
   -2.0200   23.5030  -29.4230 C   0  0  0  0  0  0  0  0  0  0  0  0
   -1.9900   24.5600  -28.4530 N   0  0  0  0  0  0  0  0  0  0  0  0
   -0.7790   25.0230  -27.8330 C   0  0  0  0  0  0  0  0  0  0  0  0
    0.3370   24.6110  -28.2560 O   0  0  0  0  0  0  0  0  0  0  0  0
   -0.8200   26.0240  -26.7410 C   0  0  0  0  0  0  0  0  0  0  0  0
   -1.1570   25.6270  -25.4340 C   0  0  0  0  0  0  0  0  0  0  0  0
   -1.1730   26.5590  -24.3930 C   0  0  0  0  0  0  0  0  0  0  0  0
   -0.8640   27.8970  -24.6460 C   0  0  0  0  0  0  0  0  0  0  0  0
   -0.5430   28.3070  -25.9420 C   0  0  0  0  0  0  0  0  0  0  0  0
   -0.5210   27.3770  -26.9860 C   0  0  0  0  0  0  0  0  0  0  0  0
   -7.0340   22.9690  -29.6660 C   0  0  0  0  0  0  0  0  0  0  0  0
   -7.9870   22.0460  -30.1060 C   0  0  0  0  0  0  0  0  0  0  0  0
   -9.8970   20.5738  -31.0579 H   0  0  0  0  0  0  0  0  0  0  0  0
  -10.1562   21.5633  -32.5346 H   0  0  0  0  0  0  0  0  0  0  0  0
   -8.9251   20.2552  -32.5346 H   0  0  0  0  0  0  0  0  0  0  0  0
   -8.1268   22.9345  -33.4066 H   0  0  0  0  0  0  0  0  0  0  0  0
   -6.4351   24.5890  -32.6178 H   0  0  0  0  0  0  0  0  0  0  0  0
   -3.8011   22.4514  -32.1580 H   0  0  0  0  0  0  0  0  0  0  0  0
   -2.3804   20.4334  -31.8122 H   0  0  0  0  0  0  0  0  0  0  0  0
   -0.7153   20.3785  -29.9538 H   0  0  0  0  0  0  0  0  0  0  0  0
   -0.5061   22.3216  -28.4060 H   0  0  0  0  0  0  0  0  0  0  0  0
   -2.8790   25.0740  -28.2760 H   0  0  0  0  0  0  0  0  0  0  0  0
   -1.4096   24.5760  -25.2303 H   0  0  0  0  0  0  0  0  0  0  0  0
   -1.4294   26.2381  -23.3726 H   0  0  0  0  0  0  0  0  0  0  0  0
   -0.8734   28.6283  -23.8244 H   0  0  0  0  0  0  0  0  0  0  0  0
   -0.3072   29.3627  -26.1417 H   0  0  0  0  0  0  0  0  0  0  0  0
   -0.2684   27.7051  -28.0051 H   0  0  0  0  0  0  0  0  0  0  0  0
   -6.7334   22.9849  -28.6080 H   0  0  0  0  0  0  0  0  0  0  0  0
   -8.4394   21.3431  -29.3910 H   0  0  0  0  0  0  0  0  0  0  0  0
  1  2  1  0
  2  3  2  0
  3  4  1  0
  4  5  2  0
  5  6  1  0
  6  7  2  0
  6  8  2  0
  6  9  1  0
  9 10  1  0
 10 11  2  0
 11 12  1  0
 12 13  2  0
 13 14  1  0
 14 15  2  0
 15 16  1  0
 16 17  1  0
 17 18  2  0
 17 19  1  0
 19 20  2  0
 20 21  1  0
 21 22  2  0
 22 23  1  0
 23 24  2  0
  5 25  1  0
 25 26  2  0
 26  2  1  0
 15 10  1  0
 24 19  1  0
  1 27  1  0
  1 28  1  0
  1 29  1  0
  3 30  1  0
  4 31  1  0
 11 32  1  0
 12 33  1  0
 13 34  1  0
 14 35  1  0
 16 36  1  0
 20 37  1  0
 21 38  1  0
 22 39  1  0
 23 40  1  0
 24 41  1  0
 25 42  1  0
 26 43  1  0
M  CHG  1   9  -1
M  END
>  <UniqueID>  (21) 
16

>  <SMILES>  (21) 
Cc1ccc(S(=O)(=O)[N-]c2ccccc2NC(=O)c2ccccc2)cc1

>  <Energy>  (21) 
54.280003492510545

>  <Genealogy>  (21) 
Cc1ccc(S(=O)(=O)[N-]c2ccccc2NC(=O)c2ccccc2)cc1 (protonated)
Cc1ccc(S(=O)(=O)[N-]c2ccccc2NC(=O)c2ccccc2)cc1 (3D coordinates assigned)
Cc1ccc(S(=O)(=O)[N-]c2ccccc2NC(=O)c2ccccc2)cc1 (optimized conformer: 54.280003492510545 kcal/mol)

>  <smiles>  (21) 
Cc1ccc(S(=O)(=O)Nc2ccccc2NC(=O)c2ccccc2)cc1

>  <score_type>  (21) 
oracle

>  <origin>  (21) 
adgpu

>  <m_score__min__energy>  (21) 
-10.449999999999999

>  <m_primary>  (21) 
energy

$$$$
21:0
     RDKit          3D

 44 46  0  0  0  0  0  0  0  0999 V2000
   -4.3320   24.5420  -29.2850 C   0  0  0  0  0  0  0  0  0  0  0  0
   -3.0480   25.0170  -29.6780 O   0  0  0  0  0  0  0  0  0  0  0  0
   -1.8510   24.7490  -28.9950 C   0  0  0  0  0  0  0  0  0  0  0  0
   -1.2480   25.7140  -28.1620 C   0  0  0  0  0  0  0  0  0  0  0  0
   -0.0830   25.4120  -27.4560 C   0  0  0  0  0  0  0  0  0  0  0  0
    0.4950   24.1490  -27.5650 C   0  0  0  0  0  0  0  0  0  0  0  0
   -0.0850   23.1850  -28.3920 C   0  0  0  0  0  0  0  0  0  0  0  0
   -1.2480   23.4760  -29.1260 C   0  0  0  0  0  0  0  0  0  0  0  0
   -1.8300   22.4330  -30.0020 C   0  0  0  0  0  0  0  0  0  0  0  0
   -1.4030   21.2480  -29.9240 O   0  0  0  0  0  0  0  0  0  0  0  0
   -2.8290   22.7660  -30.9770 N   0  0  0  0  0  0  0  0  0  0  0  0
   -3.6340   21.7770  -31.6320 C   0  0  0  0  0  0  0  0  0  0  0  0
   -3.2680   20.8780  -32.6270 C   0  0  0  0  0  0  0  0  0  0  0  0
   -1.9030   20.7050  -33.2270 C   0  0  0  0  0  0  0  0  0  0  0  0
   -4.3570   20.1270  -32.9410 N   0  0  0  0  0  0  0  0  0  0  0  0
   -4.4160   19.0780  -33.9630 C   0  0  0  0  0  0  0  0  0  0  0  0
   -5.3810   20.5160  -32.1820 N   0  0  0  0  0  0  0  0  0  0  0  0
   -6.7210   19.9960  -32.2390 C   0  0  0  0  0  0  0  0  0  0  0  0
   -6.9510   18.6190  -32.0830 C   0  0  0  0  0  0  0  0  0  0  0  0
   -8.2540   18.1120  -32.1240 C   0  0  0  0  0  0  0  0  0  0  0  0
   -9.3350   18.9770  -32.3160 C   0  0  0  0  0  0  0  0  0  0  0  0
   -9.1160   20.3490  -32.4600 C   0  0  0  0  0  0  0  0  0  0  0  0
   -7.8130   20.8590  -32.4190 C   0  0  0  0  0  0  0  0  0  0  0  0
   -4.9550   21.5010  -31.3670 C   0  0  0  0  0  0  0  0  0  0  0  0
   -5.6770   22.0970  -30.5230 O   0  0  0  0  0  0  0  0  0  0  0  0
   -4.3942   24.5190  -28.1870 H   0  0  0  0  0  0  0  0  0  0  0  0
   -5.1083   25.2124  -29.6822 H   0  0  0  0  0  0  0  0  0  0  0  0
   -4.4851   23.5277  -29.6822 H   0  0  0  0  0  0  0  0  0  0  0  0
   -1.6996   26.7126  -28.0681 H   0  0  0  0  0  0  0  0  0  0  0  0
    0.3805   26.1734  -26.8114 H   0  0  0  0  0  0  0  0  0  0  0  0
    1.4082   23.9113  -26.9996 H   0  0  0  0  0  0  0  0  0  0  0  0
    0.3728   22.1878  -28.4699 H   0  0  0  0  0  0  0  0  0  0  0  0
   -2.8390   23.7370  -31.3620 H   0  0  0  0  0  0  0  0  0  0  0  0
   -1.1583   20.6106  -32.4229 H   0  0  0  0  0  0  0  0  0  0  0  0
   -1.8881   19.7978  -33.8489 H   0  0  0  0  0  0  0  0  0  0  0  0
   -1.6623   21.5798  -33.8489 H   0  0  0  0  0  0  0  0  0  0  0  0
   -4.4714   18.0936  -33.4753 H   0  0  0  0  0  0  0  0  0  0  0  0
   -5.3072   19.2270  -34.5904 H   0  0  0  0  0  0  0  0  0  0  0  0
   -3.5137   19.1261  -34.5904 H   0  0  0  0  0  0  0  0  0  0  0  0
   -6.1025   17.9363  -31.9279 H   0  0  0  0  0  0  0  0  0  0  0  0
   -8.4280   17.0324  -32.0051 H   0  0  0  0  0  0  0  0  0  0  0  0
  -10.3590   18.5770  -32.3537 H   0  0  0  0  0  0  0  0  0  0  0  0
   -9.9681   21.0292  -32.6057 H   0  0  0  0  0  0  0  0  0  0  0  0
   -7.6443   21.9405  -32.5283 H   0  0  0  0  0  0  0  0  0  0  0  0
  1  2  1  0
  2  3  1  0
  3  4  2  0
  4  5  1  0
  5  6  2  0
  6  7  1  0
  7  8  2  0
  8  9  1  0
  9 10  2  0
  9 11  1  0
 11 12  1  0
 12 13  2  0
 13 14  1  0
 13 15  1  0
 15 16  1  0
 15 17  1  0
 17 18  1  0
 18 19  2  0
 19 20  1  0
 20 21  2  0
 21 22  1  0
 22 23  2  0
 17 24  1  0
 24 25  2  0
  8  3  1  0
 24 12  1  0
 23 18  1  0
  1 26  1  0
  1 27  1  0
  1 28  1  0
  4 29  1  0
  5 30  1  0
  6 31  1  0
  7 32  1  0
 11 33  1  0
 14 34  1  0
 14 35  1  0
 14 36  1  0
 16 37  1  0
 16 38  1  0
 16 39  1  0
 19 40  1  0
 20 41  1  0
 21 42  1  0
 22 43  1  0
 23 44  1  0
M  END
>  <UniqueID>  (22) 
17

>  <SMILES>  (22) 
COc1ccccc1C(=O)Nc1c(C)n(C)n(-c2ccccc2)c1=O

>  <Energy>  (22) 
94.88752280035256

>  <Genealogy>  (22) 
COc1ccccc1C(=O)Nc1c(C)n(C)n(-c2ccccc2)c1=O (3D coordinates assigned)
COc1ccccc1C(=O)Nc1c(C)n(C)n(-c2ccccc2)c1=O (optimized conformer: 94.88752280035256 kcal/mol)

>  <smiles>  (22) 
COc1ccccc1C(=O)Nc1c(C)n(C)n(-c2ccccc2)c1=O

>  <score_type>  (22) 
oracle

>  <origin>  (22) 
adgpu

>  <m_score__min__energy>  (22) 
-7.7300000000000004

>  <m_primary>  (22) 
energy

$$$$
22:0
     RDKit          3D

 35 37  0  0  0  0  0  0  0  0999 V2000
   -9.4570   19.0000  -32.4590 C   0  0  0  0  0  0  0  0  0  0  0  0
   -8.7580   20.0570  -33.1090 O   0  0  0  0  0  0  0  0  0  0  0  0
   -7.7960   20.8710  -32.4900 C   0  0  0  0  0  0  0  0  0  0  0  0
   -8.1440   21.8460  -31.5370 C   0  0  0  0  0  0  0  0  0  0  0  0
   -7.1600   22.6380  -30.9430 C   0  0  0  0  0  0  0  0  0  0  0  0
   -5.8100   22.4730  -31.2880 C   0  0  0  0  0  0  0  0  0  0  0  0
   -4.7700   23.3140  -30.6570 C   0  0  0  0  0  0  0  0  0  0  0  0
   -4.6130   24.6280  -30.9040 N   0  0  0  0  0  0  0  0  0  0  0  0
   -3.5950   25.0350  -30.1680 N   0  0  0  0  0  0  0  0  0  0  0  0
   -3.1530   23.9610  -29.4850 C   0  0  0  0  0  0  0  0  0  0  0  0
   -2.0130   23.9830  -28.5330 C   0  0  0  0  0  0  0  0  0  0  0  0
   -1.8300   22.9040  -27.6480 C   0  0  0  0  0  0  0  0  0  0  0  0
   -0.7650   22.8990  -26.7430 C   0  0  0  0  0  0  0  0  0  0  0  0
    0.1290   23.9690  -26.7060 C   0  0  0  0  0  0  0  0  0  0  0  0
   -0.0390   25.0470  -27.5770 C   0  0  0  0  0  0  0  0  0  0  0  0
   -1.1010   25.0630  -28.4890 C   0  0  0  0  0  0  0  0  0  0  0  0
   -1.2340   26.1550  -29.3380 O   0  0  0  0  0  0  0  0  0  0  0  0
   -3.8690   22.8530  -29.7650 N   0  0  0  0  0  0  0  0  0  0  0  0
   -5.4610   21.5010  -32.2400 C   0  0  0  0  0  0  0  0  0  0  0  0
   -6.4500   20.6980  -32.8430 C   0  0  0  0  0  0  0  0  0  0  0  0
   -6.1330   19.7180  -33.7990 O   0  0  0  0  0  0  0  0  0  0  0  0
   -6.1760   18.3140  -33.5610 C   0  0  0  0  0  0  0  0  0  0  0  0
   -9.3759   19.1227  -31.3689 H   0  0  0  0  0  0  0  0  0  0  0  0
  -10.5167   19.0259  -32.7530 H   0  0  0  0  0  0  0  0  0  0  0  0
   -9.0184   18.0350  -32.7530 H   0  0  0  0  0  0  0  0  0  0  0  0
   -9.1989   21.9850  -31.2581 H   0  0  0  0  0  0  0  0  0  0  0  0
   -7.4449   23.3968  -30.1993 H   0  0  0  0  0  0  0  0  0  0  0  0
   -2.5315   22.0570  -27.6688 H   0  0  0  0  0  0  0  0  0  0  0  0
   -0.6314   22.0488  -26.0579 H   0  0  0  0  0  0  0  0  0  0  0  0
    0.9653   23.9634  -25.9915 H   0  0  0  0  0  0  0  0  0  0  0  0
    0.6677   25.8894  -27.5465 H   0  0  0  0  0  0  0  0  0  0  0  0
   -4.4053   21.3651  -32.5177 H   0  0  0  0  0  0  0  0  0  0  0  0
   -6.1818   18.1258  -32.4772 H   0  0  0  0  0  0  0  0  0  0  0  0
   -7.0874   17.8936  -34.0110 H   0  0  0  0  0  0  0  0  0  0  0  0
   -5.2920   17.8386  -34.0110 H   0  0  0  0  0  0  0  0  0  0  0  0
  1  2  1  0
  2  3  1  0
  3  4  2  0
  4  5  1  0
  5  6  2  0
  6  7  1  0
  7  8  2  0
  8  9  1  0
  9 10  1  0
 10 11  1  0
 11 12  2  0
 12 13  1  0
 13 14  2  0
 14 15  1  0
 15 16  2  0
 16 17  1  0
 10 18  2  0
  6 19  1  0
 19 20  2  0
 20 21  1  0
 21 22  1  0
 20  3  1  0
 18  7  1  0
 16 11  1  0
  1 23  1  0
  1 24  1  0
  1 25  1  0
  4 26  1  0
  5 27  1  0
 12 28  1  0
 13 29  1  0
 14 30  1  0
 15 31  1  0
 19 32  1  0
 22 33  1  0
 22 34  1  0
 22 35  1  0
M  CHG  2   9  -1  17  -1
M  END
>  <UniqueID>  (23) 
18

>  <SMILES>  (23) 
COc1ccc(-c2n[n-]c(-c3ccccc3[O-])n2)cc1OC

>  <Energy>  (23) 
71.21363436463926

>  <Genealogy>  (23) 
COc1ccc(-c2n[n-]c(-c3ccccc3[O-])n2)cc1OC (protonated)
COc1ccc(-c2n[n-]c(-c3ccccc3[O-])n2)cc1OC (3D coordinates assigned)
COc1ccc(-c2n[n-]c(-c3ccccc3[O-])n2)cc1OC (optimized conformer: 71.21363436463926 kcal/mol)

>  <smiles>  (23) 
COc1ccc(-c2n[nH]c(-c3ccccc3O)n2)cc1OC

>  <score_type>  (23) 
oracle

>  <origin>  (23) 
adgpu

>  <m_score__min__energy>  (23) 
-11.9

>  <m_primary>  (23) 
energy

$$$$
23:0
     RDKit          3D

 39 41  0  0  0  0  0  0  0  0999 V2000
   -0.8080   24.4600  -25.1560 C   0  0  0  0  0  0  0  0  0  0  0  0
   -0.4960   22.7810  -25.7840 S   0  0  0  0  0  0  0  0  0  0  0  0
   -1.4330   23.0420  -27.2970 C   0  0  0  0  0  0  0  0  0  0  0  0
   -1.4430   24.3150  -27.8790 C   0  0  0  0  0  0  0  0  0  0  0  0
   -2.1620   24.5480  -29.0530 C   0  0  0  0  0  0  0  0  0  0  0  0
   -2.8870   23.5160  -29.6560 C   0  0  0  0  0  0  0  0  0  0  0  0
   -3.5910   23.7890  -30.8390 O   0  0  0  0  0  0  0  0  0  0  0  0
   -4.8830   23.3270  -31.1320 C   0  0  0  0  0  0  0  0  0  0  0  0
   -5.9710   24.1830  -30.9530 C   0  0  0  0  0  0  0  0  0  0  0  0
   -5.7380   25.8300  -30.3860 Cl  0  0  0  0  0  0  0  0  0  0  0  0
   -7.2500   23.7320  -31.2560 C   0  0  0  0  0  0  0  0  0  0  0  0
   -7.4250   22.4600  -31.6960 N   0  0  0  0  0  0  0  0  0  0  0  0
   -6.4060   21.6080  -31.8410 N   0  0  0  0  0  0  0  0  0  0  0  0
   -6.6980   20.2760  -32.3020 C   0  0  0  0  0  0  0  0  0  0  0  0
   -7.6620   19.5010  -31.6390 C   0  0  0  0  0  0  0  0  0  0  0  0
   -7.9330   18.1970  -32.0590 C   0  0  0  0  0  0  0  0  0  0  0  0
   -7.2390   17.6510  -33.1430 C   0  0  0  0  0  0  0  0  0  0  0  0
   -6.2720   18.4110  -33.8170 C   0  0  0  0  0  0  0  0  0  0  0  0
   -5.4910   17.8070  -34.9460 C   0  0  0  0  0  0  0  0  0  0  0  0
   -5.9900   19.7150  -33.3810 C   0  0  0  0  0  0  0  0  0  0  0  0
   -5.1220   22.0110  -31.5680 C   0  0  0  0  0  0  0  0  0  0  0  0
   -4.1560   21.2110  -31.7050 O   0  0  0  0  0  0  0  0  0  0  0  0
   -2.8600   22.2300  -29.0860 C   0  0  0  0  0  0  0  0  0  0  0  0
   -2.1410   21.9910  -27.9080 C   0  0  0  0  0  0  0  0  0  0  0  0
   -2.1410   20.3680  -27.2320 Cl  0  0  0  0  0  0  0  0  0  0  0  0
   -0.8055   24.4464  -24.0561 H   0  0  0  0  0  0  0  0  0  0  0  0
   -0.0205   25.1384  -25.5161 H   0  0  0  0  0  0  0  0  0  0  0  0
   -1.7866   24.8102  -25.5161 H   0  0  0  0  0  0  0  0  0  0  0  0
   -0.8816   25.1360  -27.4091 H   0  0  0  0  0  0  0  0  0  0  0  0
   -2.1579   25.5502  -29.5064 H   0  0  0  0  0  0  0  0  0  0  0  0
   -8.1150   24.4016  -31.1400 H   0  0  0  0  0  0  0  0  0  0  0  0
   -8.2079   19.9236  -30.7826 H   0  0  0  0  0  0  0  0  0  0  0  0
   -8.6936   17.5985  -31.5362 H   0  0  0  0  0  0  0  0  0  0  0  0
   -7.4521   16.6220  -33.4683 H   0  0  0  0  0  0  0  0  0  0  0  0
   -4.6825   17.1817  -34.5393 H   0  0  0  0  0  0  0  0  0  0  0  0
   -6.1583   17.1877  -35.5634 H   0  0  0  0  0  0  0  0  0  0  0  0
   -5.0594   18.6086  -35.5634 H   0  0  0  0  0  0  0  0  0  0  0  0
   -5.2097   20.3028  -33.8865 H   0  0  0  0  0  0  0  0  0  0  0  0
   -3.4072   21.4068  -29.5687 H   0  0  0  0  0  0  0  0  0  0  0  0
  1  2  1  0
  2  3  1  0
  3  4  2  0
  4  5  1  0
  5  6  2  0
  6  7  1  0
  7  8  1  0
  8  9  2  0
  9 10  1  0
  9 11  1  0
 11 12  2  0
 12 13  1  0
 13 14  1  0
 14 15  2  0
 15 16  1  0
 16 17  2  0
 17 18  1  0
 18 19  1  0
 18 20  2  0
 13 21  1  0
 21 22  2  0
  6 23  1  0
 23 24  2  0
 24 25  1  0
 24  3  1  0
 21  8  1  0
 20 14  1  0
  1 26  1  0
  1 27  1  0
  1 28  1  0
  4 29  1  0
  5 30  1  0
 11 31  1  0
 15 32  1  0
 16 33  1  0
 17 34  1  0
 19 35  1  0
 19 36  1  0
 19 37  1  0
 20 38  1  0
 23 39  1  0
M  END
>  <UniqueID>  (24) 
19

>  <SMILES>  (24) 
CSc1ccc(Oc2c(Cl)cnn(-c3cccc(C)c3)c2=O)cc1Cl

>  <Energy>  (24) 
53.591554049675594

>  <Genealogy>  (24) 
CSc1ccc(Oc2c(Cl)cnn(-c3cccc(C)c3)c2=O)cc1Cl (3D coordinates assigned)
CSc1ccc(Oc2c(Cl)cnn(-c3cccc(C)c3)c2=O)cc1Cl (optimized conformer: 53.591554049675594 kcal/mol)

>  <smiles>  (24) 
CSc1ccc(Oc2c(Cl)cnn(-c3cccc(C)c3)c2=O)cc1Cl

>  <score_type>  (24) 
oracle

>  <origin>  (24) 
adgpu

>  <m_score__min__energy>  (24) 
-8.8200000000000003

>  <m_primary>  (24) 
energy

$$$$
24:0
     RDKit          3D

 48 50  0  0  0  0  0  0  0  0999 V2000
   -9.7800   21.5450  -30.3070 C   0  0  0  0  0  0  0  0  0  0  0  0
   -9.5160   21.8050  -31.7500 C   0  0  0  0  0  0  0  0  0  0  0  0
  -10.0860   21.0980  -32.6250 O   0  0  0  0  0  0  0  0  0  0  0  0
   -8.5640   22.7650  -32.1120 O   0  0  0  0  0  0  0  0  0  0  0  0
   -7.2380   22.7780  -31.6590 C   0  0  0  0  0  0  0  0  0  0  0  0
   -6.8560   23.7780  -30.7580 C   0  0  0  0  0  0  0  0  0  0  0  0
   -5.5500   23.8300  -30.2650 C   0  0  0  0  0  0  0  0  0  0  0  0
   -4.6030   22.8820  -30.6740 C   0  0  0  0  0  0  0  0  0  0  0  0
   -3.2620   22.9170  -30.1570 N   0  0  0  0  0  0  0  0  0  0  0  0
   -2.5820   24.0050  -29.7260 C   0  0  0  0  0  0  0  0  0  0  0  0
   -3.0870   25.3000  -29.7380 O   0  0  0  0  0  0  0  0  0  0  0  0
   -1.3430   23.6390  -29.2390 C   0  0  0  0  0  0  0  0  0  0  0  0
   -0.3750   24.5150  -28.6530 N   0  0  0  0  0  0  0  0  0  0  0  0
    0.9340   24.1710  -28.5930 O   0  0  0  0  0  0  0  0  0  0  0  0
   -1.2680   22.2640  -29.3520 C   0  0  0  0  0  0  0  0  0  0  0  0
   -0.1800   21.4380  -28.9130 N   0  0  0  0  0  0  0  0  0  0  0  0
    0.4550   20.6070  -29.6500 N   0  0  0  0  0  0  0  0  0  0  0  0
    0.1050   20.2440  -30.9970 C   0  0  0  0  0  0  0  0  0  0  0  0
   -0.2420   18.9170  -31.2780 C   0  0  0  0  0  0  0  0  0  0  0  0
   -0.5780   18.5340  -32.5800 C   0  0  0  0  0  0  0  0  0  0  0  0
   -0.5930   19.4830  -33.6070 C   0  0  0  0  0  0  0  0  0  0  0  0
   -0.9140   19.1100  -34.8700 F   0  0  0  0  0  0  0  0  0  0  0  0
   -0.2890   20.8190  -33.3280 C   0  0  0  0  0  0  0  0  0  0  0  0
    0.0450   21.2040  -32.0250 C   0  0  0  0  0  0  0  0  0  0  0  0
   -2.4500   21.8560  -29.9530 C   0  0  0  0  0  0  0  0  0  0  0  0
   -2.7620   20.5570  -30.3510 O   0  0  0  0  0  0  0  0  0  0  0  0
   -4.9760   21.8900  -31.5940 C   0  0  0  0  0  0  0  0  0  0  0  0
   -6.2810   21.8460  -32.1160 C   0  0  0  0  0  0  0  0  0  0  0  0
   -6.6570   20.8890  -33.0720 O   0  0  0  0  0  0  0  0  0  0  0  0
   -6.6540   19.5020  -32.8780 C   0  0  0  0  0  0  0  0  0  0  0  0
   -7.6510   18.8950  -31.9510 C   0  0  0  0  0  0  0  0  0  0  0  0
   -5.8900   18.7520  -33.5440 O   0  0  0  0  0  0  0  0  0  0  0  0
   -9.1293   22.1859  -29.6939 H   0  0  0  0  0  0  0  0  0  0  0  0
  -10.8330   21.7685  -30.0808 H   0  0  0  0  0  0  0  0  0  0  0  0
   -9.5726   20.4887  -30.0808 H   0  0  0  0  0  0  0  0  0  0  0  0
   -7.5908   24.5301  -30.4349 H   0  0  0  0  0  0  0  0  0  0  0  0
   -5.2641   24.6182  -29.5530 H   0  0  0  0  0  0  0  0  0  0  0  0
   -0.6750   25.4440  -28.2810 H   0  0  0  0  0  0  0  0  0  0  0  0
    0.9370   23.1810  -28.6430 H   0  0  0  0  0  0  0  0  0  0  0  0
   -0.2503   18.1712  -30.4695 H   0  0  0  0  0  0  0  0  0  0  0  0
   -0.8307   17.4856  -32.7966 H   0  0  0  0  0  0  0  0  0  0  0  0
   -0.3125   21.5678  -34.1334 H   0  0  0  0  0  0  0  0  0  0  0  0
    0.2613   22.2595  -31.8032 H   0  0  0  0  0  0  0  0  0  0  0  0
   -2.1530   19.7770  -30.1390 H   0  0  0  0  0  0  0  0  0  0  0  0
   -4.2385   21.1377  -31.9106 H   0  0  0  0  0  0  0  0  0  0  0  0
   -7.3453   19.0811  -30.9108 H   0  0  0  0  0  0  0  0  0  0  0  0
   -8.6388   19.3451  -32.1290 H   0  0  0  0  0  0  0  0  0  0  0  0
   -7.7046   17.8108  -32.1290 H   0  0  0  0  0  0  0  0  0  0  0  0
  1  2  1  0
  2  3  2  0
  2  4  1  0
  4  5  1  0
  5  6  2  0
  6  7  1  0
  7  8  2  0
  8  9  1  0
  9 10  1  0
 10 11  1  0
 10 12  2  0
 12 13  1  0
 13 14  1  0
 12 15  1  0
 15 16  1  0
 16 17  2  3
 17 18  1  0
 18 19  2  0
 19 20  1  0
 20 21  2  0
 21 22  1  0
 21 23  1  0
 23 24  2  0
 15 25  2  0
 25 26  1  0
  8 27  1  0
 27 28  2  0
 28 29  1  0
 29 30  1  0
 30 31  1  0
 30 32  2  0
 28  5  1  0
 25  9  1  0
 24 18  1  0
  1 33  1  0
  1 34  1  0
  1 35  1  0
  6 36  1  0
  7 37  1  0
 13 38  1  0
 14 39  1  0
 19 40  1  0
 20 41  1  0
 23 42  1  0
 24 43  1  0
 26 44  1  0
 27 45  1  0
 31 46  1  0
 31 47  1  0
 31 48  1  0
M  CHG  1  11  -1
M  END
>  <UniqueID>  (25) 
20

>  <SMILES>  (25) 
CC(=O)Oc1ccc(-n2c([O-])c(NO)c(N=Nc3ccc(F)cc3)c2O)cc1OC(C)=O

>  <Energy>  (25) 
103.9964239818671

>  <Genealogy>  (25) 
CC(=O)Oc1ccc(-n2c([O-])c(NO)c(N=Nc3ccc(F)cc3)c2O)cc1OC(C)=O (protonated)
CC(=O)Oc1ccc(-n2c([O-])c(NO)c(N=Nc3ccc(F)cc3)c2O)cc1OC(C)=O (3D coordinates assigned)
CC(=O)Oc1ccc(-n2c([O-])c(NO)c(N=Nc3ccc(F)cc3)c2O)cc1OC(C)=O (optimized conformer: 103.9964239818671 kcal/mol)

>  <smiles>  (25) 
CC(=O)Oc1ccc(-n2c(O)c(N=Nc3ccc(F)cc3)c(NO)c2O)cc1OC(C)=O

>  <score_type>  (25) 
oracle

>  <origin>  (25) 
adgpu

>  <m_score__min__energy>  (25) 
-10.81

>  <m_primary>  (25) 
energy

$$$$
25:0
     RDKit          3D

 40 42  0  0  0  0  0  0  0  0999 V2000
   -4.1668   17.6589  -33.5029 H   0  0  0  0  0  0  0  0  0  0  0  0
   -4.0690   18.7530  -33.4440 C   0  0  0  0  0  0  0  0  0  0  0  0
   -2.8700   19.3410  -33.6850 N   0  0  0  0  0  0  0  0  0  0  0  0
   -2.7210   20.6920  -33.6170 C   0  0  0  0  0  0  0  0  0  0  0  0
   -1.5760   21.2530  -33.8810 N   0  0  0  0  0  0  0  0  0  0  0  0
   -0.3490   20.5660  -34.1700 C   0  0  0  0  0  0  0  0  0  0  0  0
    0.2280   19.7660  -33.1730 C   0  0  0  0  0  0  0  0  0  0  0  0
   -0.2521   19.6911  -32.1861 H   0  0  0  0  0  0  0  0  0  0  0  0
    1.4100   19.0630  -33.4260 C   0  0  0  0  0  0  0  0  0  0  0  0
    1.8661   18.4518  -32.6333 H   0  0  0  0  0  0  0  0  0  0  0  0
    2.0120   19.1360  -34.6840 C   0  0  0  0  0  0  0  0  0  0  0  0
    3.1550   18.4490  -34.9290 F   0  0  0  0  0  0  0  0  0  0  0  0
    1.4260   19.9020  -35.6960 C   0  0  0  0  0  0  0  0  0  0  0  0
    1.8952   19.9491  -36.6898 H   0  0  0  0  0  0  0  0  0  0  0  0
    0.2440   20.6090  -35.4480 C   0  0  0  0  0  0  0  0  0  0  0  0
   -0.3430   21.2880  -36.4640 F   0  0  0  0  0  0  0  0  0  0  0  0
   -3.7960   21.4740  -33.3140 N   0  0  0  0  0  0  0  0  0  0  0  0
   -3.6830   22.5130  -33.3130 H   0  0  0  0  0  0  0  0  0  0  0  0
   -5.0150   20.9220  -33.0450 C   0  0  0  0  0  0  0  0  0  0  0  0
   -6.1220   21.7240  -32.7320 O   0  0  0  0  0  0  0  0  0  0  0  0
   -6.1110   22.8000  -31.8340 C   0  0  0  0  0  0  0  0  0  0  0  0
   -7.2890   23.2780  -31.2320 C   0  0  0  0  0  0  0  0  0  0  0  0
   -8.2526   22.7955  -31.4524 H   0  0  0  0  0  0  0  0  0  0  0  0
   -7.2380   24.3640  -30.3550 C   0  0  0  0  0  0  0  0  0  0  0  0
   -8.1599   24.7286  -29.8784 H   0  0  0  0  0  0  0  0  0  0  0  0
   -6.0180   24.9880  -30.0820 C   0  0  0  0  0  0  0  0  0  0  0  0
   -5.9836   25.8396  -29.3867 H   0  0  0  0  0  0  0  0  0  0  0  0
   -4.8400   24.5370  -30.6870 C   0  0  0  0  0  0  0  0  0  0  0  0
   -3.6110   25.2130  -30.3850 N   0  0  0  0  0  0  0  0  0  0  0  0
   -2.4130   24.6520  -29.2660 S   0  0  0  0  0  0  0  0  0  0  0  0
   -1.6920   23.4660  -29.8400 O   0  0  0  0  0  0  0  0  0  0  0  0
   -1.4340   25.7540  -28.9700 O   0  0  0  0  0  0  0  0  0  0  0  0
   -3.2170   24.1680  -27.7550 C   0  0  0  0  0  0  0  0  0  0  0  0
   -2.6279   24.5226  -26.8964 H   0  0  0  0  0  0  0  0  0  0  0  0
   -4.2234   24.6105  -27.7171 H   0  0  0  0  0  0  0  0  0  0  0  0
   -3.2969   23.0716  -27.7171 H   0  0  0  0  0  0  0  0  0  0  0  0
   -4.8940   23.4430  -31.5710 C   0  0  0  0  0  0  0  0  0  0  0  0
   -3.9737   23.0900  -32.0592 H   0  0  0  0  0  0  0  0  0  0  0  0
   -5.1760   19.5350  -33.1220 C   0  0  0  0  0  0  0  0  0  0  0  0
   -6.8670   18.7100  -32.7800 Br  0  0  0  0  0  0  0  0  0  0  0  0
  1  2  1  0
  2  3  2  0
  3  4  1  0
  4  5  2  0
  5  6  1  0
  6  7  2  0
  7  8  1  0
  7  9  1  0
  9 10  1  0
  9 11  2  0
 11 12  1  0
 11 13  1  0
 13 14  1  0
 13 15  2  0
 15 16  1  0
  4 17  1  0
 17 18  1  0
 17 19  1  0
 19 20  1  0
 20 21  1  0
 21 22  2  0
 22 23  1  0
 22 24  1  0
 24 25  1  0
 24 26  2  0
 26 27  1  0
 26 28  1  0
 28 29  1  0
 29 30  1  0
 30 31  2  0
 30 32  2  0
 30 33  1  0
 33 34  1  0
 33 35  1  0
 33 36  1  0
 28 37  2  0
 37 38  1  0
 19 39  2  0
 39 40  1  0
 39  2  1  0
 15  6  1  0
 37 21  1  0
M  CHG  1  29  -1
M  END
>  <UniqueID>  (26) 
21

>  <SMILES>  (26) 
CS(=O)(=O)[N-]c1cccc(Oc2[nH]/c(=N/c3ccc(F)cc3F)ncc2Br)c1

>  <Energy>  (26) 
55.848010339135215

>  <Genealogy>  (26) 
CS(=O)(=O)[N-]c1cccc(Oc2[nH]c(=Nc3ccc(F)cc3F)ncc2Br)c1 (protonated)
CS(=O)(=O)[N-]c1cccc(Oc2[nH]/c(=N/c3ccc(F)cc3F)ncc2Br)c1 (cis-trans isomerization)
CS(=O)(=O)[N-]c1cccc(Oc2[nH]/c(=N/c3ccc(F)cc3F)ncc2Br)c1 (3D coordinates assigned)
CS(=O)(=O)[N-]c1cccc(Oc2[nH]/c(=N/c3ccc(F)cc3F)ncc2Br)c1 (optimized conformer: 55.848010339135215 kcal/mol)

>  <smiles>  (26) 
CS(=O)(=O)Nc1cccc(Oc2[nH]c(=Nc3ccc(F)cc3F)ncc2Br)c1

>  <score_type>  (26) 
oracle

>  <origin>  (26) 
adgpu

>  <m_score__min__energy>  (26) 
-10.59

>  <m_primary>  (26) 
energy

$$$$
26:0
     RDKit          3D

 45 46  0  0  0  0  0  0  0  0999 V2000
   -6.7800   15.3660  -34.2110 C   0  0  0  0  0  0  0  0  0  0  0  0
   -6.1970   16.2450  -33.2550 O   0  0  0  0  0  0  0  0  0  0  0  0
   -6.6470   17.5490  -32.9940 C   0  0  0  0  0  0  0  0  0  0  0  0
   -7.4350   17.8560  -31.8690 C   0  0  0  0  0  0  0  0  0  0  0  0
   -7.8620   19.1640  -31.6410 C   0  0  0  0  0  0  0  0  0  0  0  0
   -7.5210   20.1860  -32.5360 C   0  0  0  0  0  0  0  0  0  0  0  0
   -7.9450   21.6050  -32.2650 C   0  0  0  0  0  0  0  0  0  0  0  0
   -6.7600   22.4240  -31.8260 C   0  0  0  0  0  0  0  0  0  0  0  0
   -6.9470   23.7060  -31.3010 C   0  0  0  0  0  0  0  0  0  0  0  0
   -5.8510   24.4600  -30.8490 C   0  0  0  0  0  0  0  0  0  0  0  0
   -6.0090   25.7540  -30.3240 O   0  0  0  0  0  0  0  0  0  0  0  0
   -6.4710   26.0420  -29.0080 C   0  0  0  0  0  0  0  0  0  0  0  0
   -4.5540   23.9240  -30.9120 C   0  0  0  0  0  0  0  0  0  0  0  0
   -3.5090   24.7440  -30.4430 O   0  0  0  0  0  0  0  0  0  0  0  0
   -2.6970   24.5120  -29.2970 C   0  0  0  0  0  0  0  0  0  0  0  0
   -4.3570   22.6170  -31.4280 C   0  0  0  0  0  0  0  0  0  0  0  0
   -3.0660   22.0680  -31.4810 O   0  0  0  0  0  0  0  0  0  0  0  0
   -2.6040   21.1580  -32.4740 C   0  0  0  0  0  0  0  0  0  0  0  0
   -5.4710   21.8810  -31.8770 C   0  0  0  0  0  0  0  0  0  0  0  0
   -6.7270   19.8870  -33.6530 C   0  0  0  0  0  0  0  0  0  0  0  0
   -6.2870   18.5700  -33.8880 C   0  0  0  0  0  0  0  0  0  0  0  0
   -5.4930   18.2380  -34.9970 O   0  0  0  0  0  0  0  0  0  0  0  0
   -4.1820   17.6890  -34.9140 C   0  0  0  0  0  0  0  0  0  0  0  0
   -7.3151   14.5592  -33.6888 H   0  0  0  0  0  0  0  0  0  0  0  0
   -7.4862   15.9262  -34.8415 H   0  0  0  0  0  0  0  0  0  0  0  0
   -5.9892   14.9334  -34.8415 H   0  0  0  0  0  0  0  0  0  0  0  0
   -7.7160   17.0590  -31.1648 H   0  0  0  0  0  0  0  0  0  0  0  0
   -8.4698   19.3942  -30.7536 H   0  0  0  0  0  0  0  0  0  0  0  0
   -8.3681   22.0399  -33.1825 H   0  0  0  0  0  0  0  0  0  0  0  0
   -8.7011   21.6086  -31.4661 H   0  0  0  0  0  0  0  0  0  0  0  0
   -7.9610   24.1281  -31.2412 H   0  0  0  0  0  0  0  0  0  0  0  0
   -5.7767   25.6092  -28.2727 H   0  0  0  0  0  0  0  0  0  0  0  0
   -6.5214   27.1318  -28.8674 H   0  0  0  0  0  0  0  0  0  0  0  0
   -7.4717   25.6074  -28.8674 H   0  0  0  0  0  0  0  0  0  0  0  0
   -3.2906   24.6816  -28.3866 H   0  0  0  0  0  0  0  0  0  0  0  0
   -2.3332   23.4740  -29.3094 H   0  0  0  0  0  0  0  0  0  0  0  0
   -1.8397   25.2011  -29.3094 H   0  0  0  0  0  0  0  0  0  0  0  0
   -2.1576   20.2788  -31.9864 H   0  0  0  0  0  0  0  0  0  0  0  0
   -3.4496   20.8395  -33.1014 H   0  0  0  0  0  0  0  0  0  0  0  0
   -1.8479   21.6527  -33.1014 H   0  0  0  0  0  0  0  0  0  0  0  0
   -5.3258   20.8652  -32.2733 H   0  0  0  0  0  0  0  0  0  0  0  0
   -6.4454   20.6885  -34.3518 H   0  0  0  0  0  0  0  0  0  0  0  0
   -3.9001   17.5710  -33.8573 H   0  0  0  0  0  0  0  0  0  0  0  0
   -4.1634   16.7075  -35.4103 H   0  0  0  0  0  0  0  0  0  0  0  0
   -3.4696   18.3644  -35.4103 H   0  0  0  0  0  0  0  0  0  0  0  0
  1  2  1  0
  2  3  1  0
  3  4  2  0
  4  5  1  0
  5  6  2  0
  6  7  1  0
  7  8  1  0
  8  9  2  0
  9 10  1  0
 10 11  1  0
 11 12  1  0
 10 13  2  0
 13 14  1  0
 14 15  1  0
 13 16  1  0
 16 17  1  0
 17 18  1  0
 16 19  2  0
  6 20  1  0
 20 21  2  0
 21 22  1  0
 22 23  1  0
 21  3  1  0
 19  8  1  0
  1 24  1  0
  1 25  1  0
  1 26  1  0
  4 27  1  0
  5 28  1  0
  7 29  1  0
  7 30  1  0
  9 31  1  0
 12 32  1  0
 12 33  1  0
 12 34  1  0
 15 35  1  0
 15 36  1  0
 15 37  1  0
 18 38  1  0
 18 39  1  0
 18 40  1  0
 19 41  1  0
 20 42  1  0
 23 43  1  0
 23 44  1  0
 23 45  1  0
M  END
>  <UniqueID>  (27) 
22

>  <SMILES>  (27) 
COc1ccc(Cc2cc(OC)c(OC)c(OC)c2)cc1OC

>  <Energy>  (27) 
43.35536183441763

>  <Genealogy>  (27) 
COc1ccc(Cc2cc(OC)c(OC)c(OC)c2)cc1OC (3D coordinates assigned)
COc1ccc(Cc2cc(OC)c(OC)c(OC)c2)cc1OC (optimized conformer: 43.35536183441763 kcal/mol)

>  <smiles>  (27) 
COc1ccc(Cc2cc(OC)c(OC)c(OC)c2)cc1OC

>  <score_type>  (27) 
oracle

>  <origin>  (27) 
adgpu

>  <m_score__min__energy>  (27) 
-6.6299999999999999

>  <m_primary>  (27) 
energy

$$$$
27:0
     RDKit          3D

 44 47  0  0  0  0  0  0  0  0999 V2000
   -0.1408   24.9923  -29.7961 H   0  0  0  0  0  0  0  0  0  0  0  0
   -0.8480   24.8370  -28.9680 C   0  0  0  0  0  0  0  0  0  0  0  0
   -2.1820   24.7500  -29.2210 N   0  0  0  0  0  0  0  0  0  0  0  0
   -3.0960   24.5690  -28.2260 C   0  0  0  0  0  0  0  0  0  0  0  0
   -4.3640   24.4950  -28.4920 N   0  0  0  0  0  0  0  0  0  0  0  0
   -5.0220   24.6130  -30.0940 S   0  0  0  0  0  0  0  0  0  0  0  0
   -4.2900   25.6830  -30.8520 O   0  0  0  0  0  0  0  0  0  0  0  0
   -6.4760   24.9840  -30.0000 O   0  0  0  0  0  0  0  0  0  0  0  0
   -4.8280   23.0790  -30.9370 C   0  0  0  0  0  0  0  0  0  0  0  0
   -5.5580   22.8080  -32.1020 C   0  0  0  0  0  0  0  0  0  0  0  0
   -6.2522   23.5619  -32.5016 H   0  0  0  0  0  0  0  0  0  0  0  0
   -5.4070   21.5830  -32.7580 C   0  0  0  0  0  0  0  0  0  0  0  0
   -5.9994   21.3673  -33.6594 H   0  0  0  0  0  0  0  0  0  0  0  0
   -4.5010   20.6260  -32.2700 C   0  0  0  0  0  0  0  0  0  0  0  0
   -4.3730   19.3380  -32.8910 N   0  0  0  0  0  0  0  0  0  0  0  0
   -5.2830   18.4060  -33.0010 C   0  0  0  0  0  0  0  0  0  0  0  0
   -6.6230   18.6220  -32.6140 C   0  0  0  0  0  0  0  0  0  0  0  0
   -6.9252   19.5947  -32.1986 H   0  0  0  0  0  0  0  0  0  0  0  0
   -7.5640   17.6030  -32.7580 C   0  0  0  0  0  0  0  0  0  0  0  0
   -8.6049   17.7716  -32.4449 H   0  0  0  0  0  0  0  0  0  0  0  0
   -7.2030   16.4050  -33.2820 N   0  0  0  0  0  0  0  0  0  0  0  0
   -5.9310   16.1550  -33.6860 C   0  0  0  0  0  0  0  0  0  0  0  0
   -5.6110   14.9050  -34.2270 C   0  0  0  0  0  0  0  0  0  0  0  0
   -6.3885   14.1325  -34.3205 H   0  0  0  0  0  0  0  0  0  0  0  0
   -4.3060   14.6350  -34.6490 C   0  0  0  0  0  0  0  0  0  0  0  0
   -3.9120   13.0650  -35.3290 Cl  0  0  0  0  0  0  0  0  0  0  0  0
   -3.3160   15.6140  -34.5320 C   0  0  0  0  0  0  0  0  0  0  0  0
   -2.2905   15.3986  -34.8666 H   0  0  0  0  0  0  0  0  0  0  0  0
   -3.6230   16.8650  -33.9920 C   0  0  0  0  0  0  0  0  0  0  0  0
   -2.8369   17.6292  -33.9021 H   0  0  0  0  0  0  0  0  0  0  0  0
   -4.9350   17.1550  -33.5610 C   0  0  0  0  0  0  0  0  0  0  0  0
   -3.7960   20.8870  -31.0890 C   0  0  0  0  0  0  0  0  0  0  0  0
   -3.1199   20.1243  -30.6753 H   0  0  0  0  0  0  0  0  0  0  0  0
   -3.9470   22.1120  -30.4330 C   0  0  0  0  0  0  0  0  0  0  0  0
   -3.3724   22.3180  -29.5179 H   0  0  0  0  0  0  0  0  0  0  0  0
   -2.6620   24.4730  -26.9000 C   0  0  0  0  0  0  0  0  0  0  0  0
   -3.3901   24.3299  -26.0880 H   0  0  0  0  0  0  0  0  0  0  0  0
   -1.2990   24.5600  -26.6140 C   0  0  0  0  0  0  0  0  0  0  0  0
   -0.9503   24.4960  -25.5727 H   0  0  0  0  0  0  0  0  0  0  0  0
   -0.3740   24.7290  -27.6540 C   0  0  0  0  0  0  0  0  0  0  0  0
    1.0900   24.8660  -27.3580 C   0  0  0  0  0  0  0  0  0  0  0  0
    1.2441   24.8804  -26.2689 H   0  0  0  0  0  0  0  0  0  0  0  0
    1.6335   24.0148  -27.7940 H   0  0  0  0  0  0  0  0  0  0  0  0
    1.4661   25.8033  -27.7940 H   0  0  0  0  0  0  0  0  0  0  0  0
  1  2  1  0
  2  3  1  0
  3  4  1  0
  4  5  2  0
  5  6  1  0
  6  7  2  0
  6  8  2  0
  6  9  1  0
  9 10  2  0
 10 11  1  0
 10 12  1  0
 12 13  1  0
 12 14  2  0
 14 15  1  0
 15 16  2  3
 16 17  1  0
 17 18  1  0
 17 19  2  0
 19 20  1  0
 19 21  1  0
 21 22  1  0
 22 23  2  0
 23 24  1  0
 23 25  1  0
 25 26  1  0
 25 27  2  0
 27 28  1  0
 27 29  1  0
 29 30  1  0
 29 31  2  0
 14 32  1  0
 32 33  1  0
 32 34  2  0
 34 35  1  0
  4 36  1  0
 36 37  1  0
 36 38  2  0
 38 39  1  0
 38 40  1  0
 40 41  1  0
 41 42  1  0
 41 43  1  0
 41 44  1  0
 40  2  2  0
 34  9  1  0
 31 16  1  0
 31 22  1  0
M  CHG  2   3  -1  21  -1
M  END
>  <UniqueID>  (28) 
23

>  <SMILES>  (28) 
Cc1cc/c(=N/S(=O)(=O)c2ccc(N=c3cc[n-]c4cc(Cl)ccc34)cc2)[n-]c1

>  <Energy>  (28) 
66.21025336615399

>  <Genealogy>  (28) 
Cc1ccc(=NS(=O)(=O)c2ccc(N=c3cc[n-]c4cc(Cl)ccc34)cc2)[n-]c1 (protonated)
Cc1cc/c(=N/S(=O)(=O)c2ccc(N=c3cc[n-]c4cc(Cl)ccc34)cc2)[n-]c1 (cis-trans isomerization)
Cc1cc/c(=N/S(=O)(=O)c2ccc(N=c3cc[n-]c4cc(Cl)ccc34)cc2)[n-]c1 (3D coordinates assigned)
Cc1cc/c(=N/S(=O)(=O)c2ccc(N=c3cc[n-]c4cc(Cl)ccc34)cc2)[n-]c1 (optimized conformer: 66.21025336615399 kcal/mol)

>  <smiles>  (28) 
Cc1ccc(=NS(=O)(=O)c2ccc(N=c3cc[nH]c4cc(Cl)ccc34)cc2)[nH]c1

>  <score_type>  (28) 
oracle

>  <origin>  (28) 
adgpu

>  <m_score__min__energy>  (28) 
-10.16

>  <m_primary>  (28) 
energy

$$$$
28:0
     RDKit          3D

 36 37  0  0  0  0  0  0  0  0999 V2000
   -7.1250   17.2730  -33.4570 C   0  0  0  0  0  0  0  0  0  0  0  0
   -6.7640   18.4570  -32.6200 C   0  0  0  0  0  0  0  0  0  0  0  0
   -6.3170   18.2750  -31.4550 O   0  0  0  0  0  0  0  0  0  0  0  0
   -7.0180   19.7820  -33.1100 N   0  0  0  0  0  0  0  0  0  0  0  0
   -6.5670   20.9870  -32.4650 C   0  0  0  0  0  0  0  0  0  0  0  0
   -7.5130   21.8790  -31.9360 C   0  0  0  0  0  0  0  0  0  0  0  0
   -7.1040   23.0660  -31.3220 C   0  0  0  0  0  0  0  0  0  0  0  0
   -5.7430   23.3820  -31.2370 C   0  0  0  0  0  0  0  0  0  0  0  0
   -5.2190   24.8650  -30.4450 S   0  0  0  0  0  0  0  0  0  0  0  0
   -5.7410   24.9270  -29.0370 O   0  0  0  0  0  0  0  0  0  0  0  0
   -5.7500   26.0410  -31.2150 O   0  0  0  0  0  0  0  0  0  0  0  0
   -3.4870   24.9410  -30.4110 N   0  0  0  0  0  0  0  0  0  0  0  0
   -2.6500   24.3020  -29.4370 C   0  0  0  0  0  0  0  0  0  0  0  0
   -1.5100   24.9290  -28.9050 C   0  0  0  0  0  0  0  0  0  0  0  0
   -0.7300   24.2720  -27.9480 C   0  0  0  0  0  0  0  0  0  0  0  0
   -1.0720   22.9870  -27.5240 C   0  0  0  0  0  0  0  0  0  0  0  0
   -2.1940   22.3420  -28.0640 C   0  0  0  0  0  0  0  0  0  0  0  0
   -2.5880   20.9720  -27.5940 C   0  0  0  0  0  0  0  0  0  0  0  0
   -2.9860   23.0110  -29.0100 C   0  0  0  0  0  0  0  0  0  0  0  0
   -4.7940   22.5100  -31.7870 C   0  0  0  0  0  0  0  0  0  0  0  0
   -5.2020   21.3230  -32.4030 C   0  0  0  0  0  0  0  0  0  0  0  0
   -7.3830   16.4268  -32.8033 H   0  0  0  0  0  0  0  0  0  0  0  0
   -7.9880   17.5222  -34.0919 H   0  0  0  0  0  0  0  0  0  0  0  0
   -6.2698   16.9984  -34.0919 H   0  0  0  0  0  0  0  0  0  0  0  0
   -7.6360   19.8780  -33.9480 H   0  0  0  0  0  0  0  0  0  0  0  0
   -8.5849   21.6418  -32.0053 H   0  0  0  0  0  0  0  0  0  0  0  0
   -7.8538   23.7540  -30.9043 H   0  0  0  0  0  0  0  0  0  0  0  0
   -1.2309   25.9382  -29.2420 H   0  0  0  0  0  0  0  0  0  0  0  0
    0.1564   24.7699  -27.5279 H   0  0  0  0  0  0  0  0  0  0  0  0
   -0.4599   22.4789  -26.7643 H   0  0  0  0  0  0  0  0  0  0  0  0
   -2.5945   20.9494  -26.4943 H   0  0  0  0  0  0  0  0  0  0  0  0
   -3.5923   20.7295  -27.9717 H   0  0  0  0  0  0  0  0  0  0  0  0
   -1.8660   20.2331  -27.9717 H   0  0  0  0  0  0  0  0  0  0  0  0
   -3.8791   22.5168  -29.4200 H   0  0  0  0  0  0  0  0  0  0  0  0
   -3.7242   22.7602  -31.7339 H   0  0  0  0  0  0  0  0  0  0  0  0
   -4.4520   20.6483  -32.8415 H   0  0  0  0  0  0  0  0  0  0  0  0
  1  2  1  0
  2  3  2  0
  2  4  1  0
  4  5  1  0
  5  6  2  0
  6  7  1  0
  7  8  2  0
  8  9  1  0
  9 10  2  0
  9 11  2  0
  9 12  1  0
 12 13  1  0
 13 14  2  0
 14 15  1  0
 15 16  2  0
 16 17  1  0
 17 18  1  0
 17 19  2  0
  8 20  1  0
 20 21  2  0
 21  5  1  0
 19 13  1  0
  1 22  1  0
  1 23  1  0
  1 24  1  0
  4 25  1  0
  6 26  1  0
  7 27  1  0
 14 28  1  0
 15 29  1  0
 16 30  1  0
 18 31  1  0
 18 32  1  0
 18 33  1  0
 19 34  1  0
 20 35  1  0
 21 36  1  0
M  CHG  1  12  -1
M  END
>  <UniqueID>  (29) 
24

>  <SMILES>  (29) 
CC(=O)Nc1ccc(S(=O)(=O)[N-]c2cccc(C)c2)cc1

>  <Energy>  (29) 
39.991388970631384

>  <Genealogy>  (29) 
CC(=O)Nc1ccc(S(=O)(=O)[N-]c2cccc(C)c2)cc1 (protonated)
CC(=O)Nc1ccc(S(=O)(=O)[N-]c2cccc(C)c2)cc1 (3D coordinates assigned)
CC(=O)Nc1ccc(S(=O)(=O)[N-]c2cccc(C)c2)cc1 (optimized conformer: 39.991388970631384 kcal/mol)

>  <smiles>  (29) 
CC(=O)Nc1ccc(S(=O)(=O)Nc2cccc(C)c2)cc1

>  <score_type>  (29) 
oracle

>  <origin>  (29) 
adgpu

>  <m_score__min__energy>  (29) 
-9.3200000000000003

>  <m_primary>  (29) 
energy

$$$$
29:0
     RDKit          3D

 29 30  0  0  0  0  0  0  0  0999 V2000
   -3.5160   23.5810  -29.2770 O   0  0  0  0  0  0  0  0  0  0  0  0
   -3.1280   24.6830  -29.7470 C   0  0  0  0  0  0  0  0  0  0  0  0
   -3.8830   25.2970  -30.7950 N   0  0  0  0  0  0  0  0  0  0  0  0
   -5.3410   25.3630  -30.8050 C   0  0  0  0  0  0  0  0  0  0  0  0
   -5.9230   24.0560  -31.2740 C   0  0  0  0  0  0  0  0  0  0  0  0
   -5.1090   23.0930  -31.8950 C   0  0  0  0  0  0  0  0  0  0  0  0
   -5.6620   21.8920  -32.3500 C   0  0  0  0  0  0  0  0  0  0  0  0
   -7.0300   21.6460  -32.1920 C   0  0  0  0  0  0  0  0  0  0  0  0
   -7.5640   20.4820  -32.6360 F   0  0  0  0  0  0  0  0  0  0  0  0
   -7.8450   22.6000  -31.5760 C   0  0  0  0  0  0  0  0  0  0  0  0
   -7.2950   23.8020  -31.1200 C   0  0  0  0  0  0  0  0  0  0  0  0
   -1.9180   25.2920  -29.2780 N   0  0  0  0  0  0  0  0  0  0  0  0
   -1.5860   25.6060  -27.9180 C   0  0  0  0  0  0  0  0  0  0  0  0
   -2.3150   25.0870  -26.8310 C   0  0  0  0  0  0  0  0  0  0  0  0
   -1.9740   25.4420  -25.5220 C   0  0  0  0  0  0  0  0  0  0  0  0
   -0.9170   26.3260  -25.2870 C   0  0  0  0  0  0  0  0  0  0  0  0
   -0.4550   26.8120  -23.4990 Br  0  0  0  0  0  0  0  0  0  0  0  0
   -0.2050   26.8630  -26.3640 C   0  0  0  0  0  0  0  0  0  0  0  0
   -0.5440   26.5100  -27.6740 C   0  0  0  0  0  0  0  0  0  0  0  0
   -5.7011   25.5756  -29.7876 H   0  0  0  0  0  0  0  0  0  0  0  0
   -5.6571   26.1612  -31.4927 H   0  0  0  0  0  0  0  0  0  0  0  0
   -4.0335   23.2848  -32.0235 H   0  0  0  0  0  0  0  0  0  0  0  0
   -5.0207   21.1399  -32.8327 H   0  0  0  0  0  0  0  0  0  0  0  0
   -8.9202   22.4050  -31.4498 H   0  0  0  0  0  0  0  0  0  0  0  0
   -7.9401   24.5517  -30.6386 H   0  0  0  0  0  0  0  0  0  0  0  0
   -3.1551   24.4004  -27.0119 H   0  0  0  0  0  0  0  0  0  0  0  0
   -2.5389   25.0246  -24.6754 H   0  0  0  0  0  0  0  0  0  0  0  0
    0.6227   27.5639  -26.1806 H   0  0  0  0  0  0  0  0  0  0  0  0
    0.0111   26.9449  -28.5182 H   0  0  0  0  0  0  0  0  0  0  0  0
  1  2  2  0
  2  3  1  0
  3  4  1  0
  4  5  1  0
  5  6  2  0
  6  7  1  0
  7  8  2  0
  8  9  1  0
  8 10  1  0
 10 11  2  0
  2 12  1  0
 12 13  1  0
 13 14  2  0
 14 15  1  0
 15 16  2  0
 16 17  1  0
 16 18  1  0
 18 19  2  0
 11  5  1  0
 19 13  1  0
  4 20  1  0
  4 21  1  0
  6 22  1  0
  7 23  1  0
 10 24  1  0
 11 25  1  0
 14 26  1  0
 15 27  1  0
 18 28  1  0
 19 29  1  0
M  CHG  2   3  -1  12  -1
M  END
>  <UniqueID>  (30) 
25

>  <SMILES>  (30) 
O=C([N-]Cc1ccc(F)cc1)[N-]c1ccc(Br)cc1

>  <Energy>  (30) 
29.693850654609157

>  <Genealogy>  (30) 
O=C([N-]Cc1ccc(F)cc1)[N-]c1ccc(Br)cc1 (protonated)
O=C([N-]Cc1ccc(F)cc1)[N-]c1ccc(Br)cc1 (3D coordinates assigned)
O=C([N-]Cc1ccc(F)cc1)[N-]c1ccc(Br)cc1 (optimized conformer: 29.693850654609157 kcal/mol)

>  <smiles>  (30) 
O=C(NCc1ccc(F)cc1)Nc1ccc(Br)cc1

>  <score_type>  (30) 
oracle

>  <origin>  (30) 
adgpu

>  <m_score__min__energy>  (30) 
-10.52

>  <m_primary>  (30) 
energy

$$$$
30:0
     RDKit          3D

 47 51  0  0  0  0  0  0  0  0999 V2000
   -1.6090   26.0100  -29.5670 H   0  0  0  0  0  0  0  0  0  0  0  0
   -1.8700   25.0250  -29.3420 N   0  0  0  0  0  0  0  0  0  0  0  0
   -2.9960   24.5160  -29.7280 C   0  0  0  0  0  0  0  0  0  0  0  0
   -3.8720   25.2790  -30.4370 N   0  0  0  0  0  0  0  0  0  0  0  0
   -5.0750   24.8040  -30.8520 C   0  0  0  0  0  0  0  0  0  0  0  0
   -5.7560   25.4577  -31.4167 H   0  0  0  0  0  0  0  0  0  0  0  0
   -5.4540   23.4830  -30.5640 C   0  0  0  0  0  0  0  0  0  0  0  0
   -6.7680   22.9520  -31.0100 C   0  0  0  0  0  0  0  0  0  0  0  0
   -7.1000   21.5990  -30.8070 C   0  0  0  0  0  0  0  0  0  0  0  0
   -6.3792   20.9264  -30.3191 H   0  0  0  0  0  0  0  0  0  0  0  0
   -8.3410   21.1050  -31.2220 C   0  0  0  0  0  0  0  0  0  0  0  0
   -8.5930   20.0467  -31.0590 H   0  0  0  0  0  0  0  0  0  0  0  0
   -9.2610   21.9530  -31.8430 C   0  0  0  0  0  0  0  0  0  0  0  0
  -10.2359   21.5621  -32.1697 H   0  0  0  0  0  0  0  0  0  0  0  0
   -8.9430   23.2970  -32.0490 C   0  0  0  0  0  0  0  0  0  0  0  0
   -9.6690   23.9644  -32.5365 H   0  0  0  0  0  0  0  0  0  0  0  0
   -7.7040   23.7960  -31.6370 C   0  0  0  0  0  0  0  0  0  0  0  0
   -7.4588   24.8553  -31.8038 H   0  0  0  0  0  0  0  0  0  0  0  0
   -4.5600   22.6780  -29.8420 C   0  0  0  0  0  0  0  0  0  0  0  0
   -4.8266   21.6345  -29.6181 H   0  0  0  0  0  0  0  0  0  0  0  0
   -3.3310   23.1890  -29.4030 C   0  0  0  0  0  0  0  0  0  0  0  0
   -2.4240   22.3590  -28.6530 N   0  0  0  0  0  0  0  0  0  0  0  0
   -2.1790   22.5270  -27.3620 N   0  0  0  0  0  0  0  0  0  0  0  0
   -1.2450   21.6820  -26.9500 N   0  0  0  0  0  0  0  0  0  0  0  0
   -0.8770   20.9430  -28.0160 C   0  0  0  0  0  0  0  0  0  0  0  0
    0.1180   19.8510  -27.9450 C   0  0  0  0  0  0  0  0  0  0  0  0
   -0.3120   18.5320  -27.7230 C   0  0  0  0  0  0  0  0  0  0  0  0
   -1.3840   18.3205  -27.5964 H   0  0  0  0  0  0  0  0  0  0  0  0
    0.6140   17.4870  -27.6620 C   0  0  0  0  0  0  0  0  0  0  0  0
    0.2702   16.4589  -27.4752 H   0  0  0  0  0  0  0  0  0  0  0  0
    1.9760   17.7460  -27.8380 C   0  0  0  0  0  0  0  0  0  0  0  0
    2.8720   16.7310  -27.7810 F   0  0  0  0  0  0  0  0  0  0  0  0
    2.4120   19.0510  -28.0810 C   0  0  0  0  0  0  0  0  0  0  0  0
    3.4835   19.2541  -28.2246 H   0  0  0  0  0  0  0  0  0  0  0  0
    1.4890   20.0990  -28.1420 C   0  0  0  0  0  0  0  0  0  0  0  0
    1.8362   21.1228  -28.3450 H   0  0  0  0  0  0  0  0  0  0  0  0
   -1.6210   21.3710  -29.1060 C   0  0  0  0  0  0  0  0  0  0  0  0
   -1.5450   20.8940  -30.5030 C   0  0  0  0  0  0  0  0  0  0  0  0
   -2.7000   20.4550  -31.1670 C   0  0  0  0  0  0  0  0  0  0  0  0
   -3.6698   20.4501  -30.6479 H   0  0  0  0  0  0  0  0  0  0  0  0
   -2.6090   20.0240  -32.4930 C   0  0  0  0  0  0  0  0  0  0  0  0
   -3.5103   19.6790  -33.0208 H   0  0  0  0  0  0  0  0  0  0  0  0
   -1.4100   20.0300  -33.1320 N   0  0  0  0  0  0  0  0  0  0  0  0
   -0.2760   20.4490  -32.5120 C   0  0  0  0  0  0  0  0  0  0  0  0
    0.6808   20.4410  -33.0546 H   0  0  0  0  0  0  0  0  0  0  0  0
   -0.3220   20.8900  -31.1870 C   0  0  0  0  0  0  0  0  0  0  0  0
    0.5950   21.2315  -30.6845 H   0  0  0  0  0  0  0  0  0  0  0  0
  1  2  1  0
  2  3  2  0
  3  4  1  0
  4  5  1  0
  5  6  1  0
  5  7  2  0
  7  8  1  0
  8  9  2  0
  9 10  1  0
  9 11  1  0
 11 12  1  0
 11 13  2  0
 13 14  1  0
 13 15  1  0
 15 16  1  0
 15 17  2  0
 17 18  1  0
  7 19  1  0
 19 20  1  0
 19 21  2  0
 21 22  1  0
 22 23  1  0
 23 24  2  0
 24 25  1  0
 25 26  1  0
 26 27  2  0
 27 28  1  0
 27 29  1  0
 29 30  1  0
 29 31  2  0
 31 32  1  0
 31 33  1  0
 33 34  1  0
 33 35  2  0
 35 36  1  0
 25 37  2  0
 37 38  1  0
 38 39  2  0
 39 40  1  0
 39 41  1  0
 41 42  1  0
 41 43  2  0
 43 44  1  0
 44 45  1  0
 44 46  2  0
 46 47  1  0
 21  3  1  0
 37 22  1  0
 46 38  1  0
 17  8  1  0
 35 26  1  0
M  CHG  1   4  -1
M  END
>  <UniqueID>  (31) 
26

>  <SMILES>  (31) 
[H]/N=c1\[n-]cc(-c2ccccc2)cc1-n1nnc(-c2ccc(F)cc2)c1-c1ccncc1

>  <Energy>  (31) 
109.85847187627515

>  <Genealogy>  (31) 
N=c1[n-]cc(-c2ccccc2)cc1-n1nnc(-c2ccc(F)cc2)c1-c1ccncc1 (protonated)
[H]/N=c1\[n-]cc(-c2ccccc2)cc1-n1nnc(-c2ccc(F)cc2)c1-c1ccncc1 (cis-trans isomerization)
[H]/N=c1\[n-]cc(-c2ccccc2)cc1-n1nnc(-c2ccc(F)cc2)c1-c1ccncc1 (3D coordinates assigned)
[H]/N=c1\[n-]cc(-c2ccccc2)cc1-n1nnc(-c2ccc(F)cc2)c1-c1ccncc1 (optimized conformer: 109.85847187627515 kcal/mol)

>  <smiles>  (31) 
N=c1[nH]cc(-c2ccccc2)cc1-n1nnc(-c2ccc(F)cc2)c1-c1ccncc1

>  <score_type>  (31) 
oracle

>  <origin>  (31) 
adgpu

>  <m_score__min__energy>  (31) 
-11.34

>  <m_primary>  (31) 
energy

$$$$
31:0
     RDKit          3D

 38 40  0  0  0  0  0  0  0  0999 V2000
   -1.2520   25.2080  -28.7950 C   0  0  0  0  0  0  0  0  0  0  0  0
   -2.4690   24.5350  -29.3420 C   0  0  0  0  0  0  0  0  0  0  0  0
   -2.5720   23.1410  -29.3280 C   0  0  0  0  0  0  0  0  0  0  0  0
   -3.7190   22.5300  -29.8410 C   0  0  0  0  0  0  0  0  0  0  0  0
   -3.8000   21.2720  -29.8410 O   0  0  0  0  0  0  0  0  0  0  0  0
   -4.7640   23.3180  -30.3620 C   0  0  0  0  0  0  0  0  0  0  0  0
   -5.9760   22.6680  -30.9140 C   0  0  0  0  0  0  0  0  0  0  0  0
   -7.2380   22.9320  -30.3590 C   0  0  0  0  0  0  0  0  0  0  0  0
   -8.3790   22.3260  -30.8900 C   0  0  0  0  0  0  0  0  0  0  0  0
   -8.2700   21.4500  -31.9730 C   0  0  0  0  0  0  0  0  0  0  0  0
   -7.0090   21.1670  -32.5300 C   0  0  0  0  0  0  0  0  0  0  0  0
   -6.8610   20.3090  -33.6290 O   0  0  0  0  0  0  0  0  0  0  0  0
   -6.3780   18.9920  -33.5730 C   0  0  0  0  0  0  0  0  0  0  0  0
   -5.7360   18.3870  -34.6700 C   0  0  0  0  0  0  0  0  0  0  0  0
   -5.2850   17.0660  -34.5790 C   0  0  0  0  0  0  0  0  0  0  0  0
   -5.4790   16.3390  -33.4020 C   0  0  0  0  0  0  0  0  0  0  0  0
   -6.1340   16.9280  -32.3160 C   0  0  0  0  0  0  0  0  0  0  0  0
   -6.5870   18.2490  -32.4050 C   0  0  0  0  0  0  0  0  0  0  0  0
   -5.8710   21.7940  -32.0080 C   0  0  0  0  0  0  0  0  0  0  0  0
   -4.6290   24.7250  -30.3360 C   0  0  0  0  0  0  0  0  0  0  0  0
   -5.7060   25.6380  -30.8470 C   0  0  0  0  0  0  0  0  0  0  0  0
   -3.4910   25.2820  -29.8360 N   0  0  0  0  0  0  0  0  0  0  0  0
   -1.2856   25.1894  -27.6957 H   0  0  0  0  0  0  0  0  0  0  0  0
   -0.3527   24.6790  -29.1433 H   0  0  0  0  0  0  0  0  0  0  0  0
   -1.2219   26.2510  -29.1433 H   0  0  0  0  0  0  0  0  0  0  0  0
   -1.7558   22.5294  -28.9160 H   0  0  0  0  0  0  0  0  0  0  0  0
   -7.3286   23.6178  -29.5038 H   0  0  0  0  0  0  0  0  0  0  0  0
   -9.3663   22.5391  -30.4542 H   0  0  0  0  0  0  0  0  0  0  0  0
   -9.1724   20.9802  -32.3914 H   0  0  0  0  0  0  0  0  0  0  0  0
   -5.5887   18.9543  -35.6008 H   0  0  0  0  0  0  0  0  0  0  0  0
   -4.7768   16.5990  -35.4355 H   0  0  0  0  0  0  0  0  0  0  0  0
   -5.1164   15.3030  -33.3295 H   0  0  0  0  0  0  0  0  0  0  0  0
   -6.2931   16.3530  -31.3919 H   0  0  0  0  0  0  0  0  0  0  0  0
   -7.1103   18.7063  -31.5523 H   0  0  0  0  0  0  0  0  0  0  0  0
   -4.8865   21.6003  -32.4587 H   0  0  0  0  0  0  0  0  0  0  0  0
   -6.2382   26.0892  -29.9966 H   0  0  0  0  0  0  0  0  0  0  0  0
   -5.2536   26.4319  -31.4594 H   0  0  0  0  0  0  0  0  0  0  0  0
   -6.4152   25.0617  -31.4594 H   0  0  0  0  0  0  0  0  0  0  0  0
  1  2  1  0
  2  3  2  0
  3  4  1  0
  4  5  2  0
  4  6  1  0
  6  7  1  0
  7  8  2  0
  8  9  1  0
  9 10  2  0
 10 11  1  0
 11 12  1  0
 12 13  1  0
 13 14  2  0
 14 15  1  0
 15 16  2  0
 16 17  1  0
 17 18  2  0
 11 19  2  0
  6 20  2  0
 20 21  1  0
 20 22  1  0
 22  2  1  0
 19  7  1  0
 18 13  1  0
  1 23  1  0
  1 24  1  0
  1 25  1  0
  3 26  1  0
  8 27  1  0
  9 28  1  0
 10 29  1  0
 14 30  1  0
 15 31  1  0
 16 32  1  0
 17 33  1  0
 18 34  1  0
 19 35  1  0
 21 36  1  0
 21 37  1  0
 21 38  1  0
M  CHG  1  22  -1
M  END
>  <UniqueID>  (32) 
27

>  <SMILES>  (32) 
Cc1cc(=O)c(-c2cccc(Oc3ccccc3)c2)c(C)[n-]1

>  <Energy>  (32) 
54.36967585876912

>  <Genealogy>  (32) 
Cc1cc(=O)c(-c2cccc(Oc3ccccc3)c2)c(C)[n-]1 (protonated)
Cc1cc(=O)c(-c2cccc(Oc3ccccc3)c2)c(C)[n-]1 (3D coordinates assigned)
Cc1cc(=O)c(-c2cccc(Oc3ccccc3)c2)c(C)[n-]1 (optimized conformer: 54.36967585876912 kcal/mol)

>  <smiles>  (32) 
Cc1cc(=O)c(-c2cccc(Oc3ccccc3)c2)c(C)[nH]1

>  <score_type>  (32) 
oracle

>  <origin>  (32) 
adgpu

>  <m_score__min__energy>  (32) 
-9.8300000000000001

>  <m_primary>  (32) 
energy

$$$$
32:0
     RDKit          3D

 39 41  0  0  0  0  0  0  0  0999 V2000
   -1.2140   20.2620  -34.2120 C   0  0  0  0  0  0  0  0  0  0  0  0
   -2.6190   20.0930  -34.0470 O   0  0  0  0  0  0  0  0  0  0  0  0
   -3.3880   20.7490  -33.0740 C   0  0  0  0  0  0  0  0  0  0  0  0
   -2.7220   21.4910  -32.0940 C   0  0  0  0  0  0  0  0  0  0  0  0
   -3.4340   22.1810  -31.1050 C   0  0  0  0  0  0  0  0  0  0  0  0
   -2.7140   22.9170  -30.1010 N   0  0  0  0  0  0  0  0  0  0  0  0
   -3.0180   24.2730  -29.7290 C   0  0  0  0  0  0  0  0  0  0  0  0
   -3.7580   24.9780  -30.4680 O   0  0  0  0  0  0  0  0  0  0  0  0
   -2.4380   24.8580  -28.5010 C   0  0  0  0  0  0  0  0  0  0  0  0
   -2.9430   24.5280  -27.2310 C   0  0  0  0  0  0  0  0  0  0  0  0
   -2.3670   25.0970  -26.0930 C   0  0  0  0  0  0  0  0  0  0  0  0
   -1.2980   25.9840  -26.2240 C   0  0  0  0  0  0  0  0  0  0  0  0
   -0.8190   26.2900  -27.4980 C   0  0  0  0  0  0  0  0  0  0  0  0
   -1.3920   25.7270  -28.5950 N   0  0  0  0  0  0  0  0  0  0  0  0
   -4.8360   22.0900  -31.0780 C   0  0  0  0  0  0  0  0  0  0  0  0
   -5.5260   21.3490  -32.0540 C   0  0  0  0  0  0  0  0  0  0  0  0
   -7.0090   21.2650  -32.0240 C   0  0  0  0  0  0  0  0  0  0  0  0
   -7.7820   22.3730  -31.6260 C   0  0  0  0  0  0  0  0  0  0  0  0
   -9.1770   22.2900  -31.6010 C   0  0  0  0  0  0  0  0  0  0  0  0
   -9.8160   21.1040  -31.9690 C   0  0  0  0  0  0  0  0  0  0  0  0
   -9.0610   19.9980  -32.3650 C   0  0  0  0  0  0  0  0  0  0  0  0
   -7.6650   20.0750  -32.3940 C   0  0  0  0  0  0  0  0  0  0  0  0
   -4.7940   20.6840  -33.0530 C   0  0  0  0  0  0  0  0  0  0  0  0
   -0.7332   20.3198  -33.2244 H   0  0  0  0  0  0  0  0  0  0  0  0
   -0.8048   19.4066  -34.7695 H   0  0  0  0  0  0  0  0  0  0  0  0
   -1.0193   21.1900  -34.7695 H   0  0  0  0  0  0  0  0  0  0  0  0
   -1.6228   21.5334  -32.0998 H   0  0  0  0  0  0  0  0  0  0  0  0
   -1.8640   22.4700  -29.6880 H   0  0  0  0  0  0  0  0  0  0  0  0
   -3.7853   23.8271  -27.1344 H   0  0  0  0  0  0  0  0  0  0  0  0
   -2.7555   24.8462  -25.0949 H   0  0  0  0  0  0  0  0  0  0  0  0
   -0.8383   26.4367  -25.3331 H   0  0  0  0  0  0  0  0  0  0  0  0
    0.0233   26.9877  -27.6152 H   0  0  0  0  0  0  0  0  0  0  0  0
   -5.3996   22.6037  -30.2852 H   0  0  0  0  0  0  0  0  0  0  0  0
   -7.2848   23.3095  -31.3330 H   0  0  0  0  0  0  0  0  0  0  0  0
   -9.7730   23.1609  -31.2907 H   0  0  0  0  0  0  0  0  0  0  0  0
  -10.9140   21.0410  -31.9469 H   0  0  0  0  0  0  0  0  0  0  0  0
   -9.5654   19.0644  -32.6547 H   0  0  0  0  0  0  0  0  0  0  0  0
   -7.0757   19.2008  -32.7077 H   0  0  0  0  0  0  0  0  0  0  0  0
   -5.3246   20.1077  -33.8252 H   0  0  0  0  0  0  0  0  0  0  0  0
  1  2  1  0
  2  3  1  0
  3  4  2  0
  4  5  1  0
  5  6  1  0
  6  7  1  0
  7  8  2  0
  7  9  1  0
  9 10  2  0
 10 11  1  0
 11 12  2  0
 12 13  1  0
 13 14  2  0
  5 15  2  0
 15 16  1  0
 16 17  1  0
 17 18  2  0
 18 19  1  0
 19 20  2  0
 20 21  1  0
 21 22  2  0
 16 23  2  0
 23  3  1  0
 14  9  1  0
 22 17  1  0
  1 24  1  0
  1 25  1  0
  1 26  1  0
  4 27  1  0
  6 28  1  0
 10 29  1  0
 11 30  1  0
 12 31  1  0
 13 32  1  0
 15 33  1  0
 18 34  1  0
 19 35  1  0
 20 36  1  0
 21 37  1  0
 22 38  1  0
 23 39  1  0
M  END
>  <UniqueID>  (33) 
28

>  <SMILES>  (33) 
COc1cc(NC(=O)c2ccccn2)cc(-c2ccccc2)c1

>  <Energy>  (33) 
50.77930663900247

>  <Genealogy>  (33) 
COc1cc(NC(=O)c2ccccn2)cc(-c2ccccc2)c1 (3D coordinates assigned)
COc1cc(NC(=O)c2ccccn2)cc(-c2ccccc2)c1 (optimized conformer: 50.77930663900247 kcal/mol)

>  <smiles>  (33) 
COc1cc(NC(=O)c2ccccn2)cc(-c2ccccc2)c1

>  <score_type>  (33) 
oracle

>  <origin>  (33) 
adgpu

>  <m_score__min__energy>  (33) 
-8.2400000000000002

>  <m_primary>  (33) 
energy

$$$$
33:0
     RDKit          3D

 43 46  0  0  0  0  0  0  0  0999 V2000
   -5.9421   26.2771  -31.4422 H   0  0  0  0  0  0  0  0  0  0  0  0
   -5.3870   25.3560  -31.2110 C   0  0  0  0  0  0  0  0  0  0  0  0
   -4.2560   25.4160  -30.4600 N   0  0  0  0  0  0  0  0  0  0  0  0
   -3.5360   24.3080  -30.1410 C   0  0  0  0  0  0  0  0  0  0  0  0
   -2.4720   24.4520  -29.3990 N   0  0  0  0  0  0  0  0  0  0  0  0
   -1.5190   23.4430  -29.0310 C   0  0  0  0  0  0  0  0  0  0  0  0
   -1.1560   22.4700  -29.9730 C   0  0  0  0  0  0  0  0  0  0  0  0
   -1.5719   22.5110  -30.9905 H   0  0  0  0  0  0  0  0  0  0  0  0
   -0.2680   21.4480  -29.6250 C   0  0  0  0  0  0  0  0  0  0  0  0
    0.0267   20.6979  -30.3736 H   0  0  0  0  0  0  0  0  0  0  0  0
    0.2460   21.3780  -28.3270 C   0  0  0  0  0  0  0  0  0  0  0  0
    0.9524   20.5790  -28.0574 H   0  0  0  0  0  0  0  0  0  0  0  0
   -0.1380   22.3240  -27.3710 C   0  0  0  0  0  0  0  0  0  0  0  0
    0.2598   22.2637  -26.3472 H   0  0  0  0  0  0  0  0  0  0  0  0
   -1.0270   23.3460  -27.7160 C   0  0  0  0  0  0  0  0  0  0  0  0
   -1.3431   24.0769  -26.9572 H   0  0  0  0  0  0  0  0  0  0  0  0
   -3.9880   23.0460  -30.5830 C   0  0  0  0  0  0  0  0  0  0  0  0
   -3.4476   22.1326  -30.2939 H   0  0  0  0  0  0  0  0  0  0  0  0
   -5.1330   22.9630  -31.3950 C   0  0  0  0  0  0  0  0  0  0  0  0
   -5.6460   21.7060  -31.8650 N   0  0  0  0  0  0  0  0  0  0  0  0
   -6.8960   21.3440  -31.9080 C   0  0  0  0  0  0  0  0  0  0  0  0
   -7.9180   22.0980  -31.4460 N   0  0  0  0  0  0  0  0  0  0  0  0
   -9.0130   21.3520  -31.6990 C   0  0  0  0  0  0  0  0  0  0  0  0
  -10.0466   21.6438  -31.4611 H   0  0  0  0  0  0  0  0  0  0  0  0
   -8.6410   20.1680  -32.3010 C   0  0  0  0  0  0  0  0  0  0  0  0
   -9.3215   19.3700  -32.6329 H   0  0  0  0  0  0  0  0  0  0  0  0
   -7.3020   20.1600  -32.4110 N   0  0  0  0  0  0  0  0  0  0  0  0
   -6.5030   19.1320  -33.0170 C   0  0  0  0  0  0  0  0  0  0  0  0
   -6.1140   19.2730  -34.3590 C   0  0  0  0  0  0  0  0  0  0  0  0
   -6.4417   20.1527  -34.9325 H   0  0  0  0  0  0  0  0  0  0  0  0
   -5.3150   18.3060  -34.9710 C   0  0  0  0  0  0  0  0  0  0  0  0
   -5.0132   18.4268  -36.0219 H   0  0  0  0  0  0  0  0  0  0  0  0
   -4.8990   17.1860  -34.2500 C   0  0  0  0  0  0  0  0  0  0  0  0
   -4.2591   16.4311  -34.7302 H   0  0  0  0  0  0  0  0  0  0  0  0
   -5.2930   17.0210  -32.9200 C   0  0  0  0  0  0  0  0  0  0  0  0
   -4.9592   16.1368  -32.3571 H   0  0  0  0  0  0  0  0  0  0  0  0
   -6.1130   17.9770  -32.2960 C   0  0  0  0  0  0  0  0  0  0  0  0
   -6.5400   17.7500  -30.8710 C   0  0  0  0  0  0  0  0  0  0  0  0
   -5.7769   18.1557  -30.1905 H   0  0  0  0  0  0  0  0  0  0  0  0
   -7.4992   18.2572  -30.6904 H   0  0  0  0  0  0  0  0  0  0  0  0
   -6.6560   16.6711  -30.6904 H   0  0  0  0  0  0  0  0  0  0  0  0
   -5.8450   24.1290  -31.6890 C   0  0  0  0  0  0  0  0  0  0  0  0
   -6.7620   24.0790  -32.2944 H   0  0  0  0  0  0  0  0  0  0  0  0
  1  2  1  0
  2  3  1  0
  3  4  1  0
  4  5  2  0
  5  6  1  0
  6  7  2  0
  7  8  1  0
  7  9  1  0
  9 10  1  0
  9 11  2  0
 11 12  1  0
 11 13  1  0
 13 14  1  0
 13 15  2  0
 15 16  1  0
  4 17  1  0
 17 18  1  0
 17 19  2  0
 19 20  1  0
 20 21  2  0
 21 22  1  0
 22 23  1  0
 23 24  1  0
 23 25  2  0
 25 26  1  0
 25 27  1  0
 27 28  1  0
 28 29  2  0
 29 30  1  0
 29 31  1  0
 31 32  1  0
 31 33  2  0
 33 34  1  0
 33 35  1  0
 35 36  1  0
 35 37  2  0
 37 38  1  0
 38 39  1  0
 38 40  1  0
 38 41  1  0
 19 42  1  0
 42 43  1  0
 42  2  2  0
 15  6  1  0
 27 21  1  0
 37 28  1  0
M  CHG  2   3  -1  22  -1
M  END
>  <UniqueID>  (34) 
29

>  <SMILES>  (34) 
Cc1ccccc1-n1cc[n-]/c1=N\c1cc[n-]/c(=N/c2ccccc2)c1

>  <Energy>  (34) 
99.70971495941185

>  <Genealogy>  (34) 
Cc1ccccc1-n1cc[n-]c1=Nc1cc[n-]c(=Nc2ccccc2)c1 (protonated)
Cc1ccccc1-n1cc[n-]/c1=N\c1cc[n-]/c(=N/c2ccccc2)c1 (cis-trans isomerization)
Cc1ccccc1-n1cc[n-]/c1=N\c1cc[n-]/c(=N/c2ccccc2)c1 (3D coordinates assigned)
Cc1ccccc1-n1cc[n-]/c1=N\c1cc[n-]/c(=N/c2ccccc2)c1 (optimized conformer: 99.70971495941185 kcal/mol)

>  <smiles>  (34) 
Cc1ccccc1-n1cc[nH]c1=Nc1cc[nH]c(=Nc2ccccc2)c1

>  <score_type>  (34) 
oracle

>  <origin>  (34) 
adgpu

>  <m_score__min__energy>  (34) 
-11.039999999999999

>  <m_primary>  (34) 
energy

$$$$
34:0
     RDKit          3D

 27 28  0  0  0  0  0  0  0  0999 V2000
   -9.5690   21.5890  -31.2280 C   0  0  0  0  0  0  0  0  0  0  0  0
   -8.4010   20.8070  -32.3860 S   0  0  0  0  0  0  0  0  0  0  0  0
   -7.0160   21.8270  -31.8730 C   0  0  0  0  0  0  0  0  0  0  0  0
   -7.1760   23.1620  -30.8680 S   0  0  0  0  0  0  0  0  0  0  0  0
   -5.5320   23.4950  -30.7180 C   0  0  0  0  0  0  0  0  0  0  0  0
   -4.9450   24.6040  -29.9250 C   0  0  0  0  0  0  0  0  0  0  0  0
   -4.2420   25.6680  -30.5780 N   0  0  0  0  0  0  0  0  0  0  0  0
   -5.0580   24.6200  -28.6300 N   0  0  0  0  0  0  0  0  0  0  0  0
   -4.8320   22.5370  -31.4500 C   0  0  0  0  0  0  0  0  0  0  0  0
   -5.6540   21.6000  -32.1040 C   0  0  0  0  0  0  0  0  0  0  0  0
   -5.0830   20.4630  -32.8580 C   0  0  0  0  0  0  0  0  0  0  0  0
   -5.8890   19.5530  -33.5570 C   0  0  0  0  0  0  0  0  0  0  0  0
   -5.2750   18.5150  -34.2590 C   0  0  0  0  0  0  0  0  0  0  0  0
   -3.9230   18.4070  -34.2680 N   0  0  0  0  0  0  0  0  0  0  0  0
   -3.1500   19.3030  -33.6000 C   0  0  0  0  0  0  0  0  0  0  0  0
   -3.7290   20.3190  -32.9100 N   0  0  0  0  0  0  0  0  0  0  0  0
   -9.2562   21.3796  -30.1944 H   0  0  0  0  0  0  0  0  0  0  0  0
   -9.5785   22.6762  -31.3951 H   0  0  0  0  0  0  0  0  0  0  0  0
  -10.5778   21.1836  -31.3951 H   0  0  0  0  0  0  0  0  0  0  0  0
   -4.0520   25.6540  -31.6030 H   0  0  0  0  0  0  0  0  0  0  0  0
   -3.8620   26.4700  -30.0280 H   0  0  0  0  0  0  0  0  0  0  0  0
   -5.5670   23.8720  -28.1090 H   0  0  0  0  0  0  0  0  0  0  0  0
   -4.6430   25.3960  -28.0680 H   0  0  0  0  0  0  0  0  0  0  0  0
   -3.7339   22.5153  -31.5111 H   0  0  0  0  0  0  0  0  0  0  0  0
   -6.9842   19.6554  -33.5520 H   0  0  0  0  0  0  0  0  0  0  0  0
   -5.8882   17.7835  -34.8057 H   0  0  0  0  0  0  0  0  0  0  0  0
   -2.0545   19.2051  -33.6183 H   0  0  0  0  0  0  0  0  0  0  0  0
  1  2  1  0
  2  3  1  0
  3  4  1  0
  4  5  1  0
  5  6  1  0
  6  7  1  0
  6  8  2  0
  5  9  2  0
  9 10  1  0
 10 11  1  0
 11 12  2  0
 12 13  1  0
 13 14  2  0
 14 15  1  0
 15 16  2  0
 10  3  2  0
 16 11  1  0
  1 17  1  0
  1 18  1  0
  1 19  1  0
  7 20  1  0
  7 21  1  0
  8 22  1  0
  8 23  1  0
  9 24  1  0
 12 25  1  0
 13 26  1  0
 15 27  1  0
M  CHG  1   8   1
M  END
>  <UniqueID>  (35) 
30

>  <SMILES>  (35) 
CSc1sc(C(N)=[NH2+])cc1-c1ccncn1

>  <Energy>  (35) 
55.74875531506235

>  <Genealogy>  (35) 
CSc1sc(C(N)=[NH2+])cc1-c1ccncn1 (protonated)
CSc1sc(C(N)=[NH2+])cc1-c1ccncn1 (3D coordinates assigned)
CSc1sc(C(N)=[NH2+])cc1-c1ccncn1 (optimized conformer: 55.74875531506235 kcal/mol)

>  <smiles>  (35) 
CSc1sc(C(=N)N)cc1-c1ccncn1

>  <score_type>  (35) 
oracle

>  <origin>  (35) 
adgpu

>  <m_score__min__energy>  (35) 
-7.1500000000000004

>  <m_primary>  (35) 
energy

$$$$
35:0
     RDKit          3D

 36 38  0  0  0  0  0  0  0  0999 V2000
    2.2270   25.5740  -27.2380 H   0  0  0  0  0  0  0  0  0  0  0  0
    1.2800   26.0120  -27.2640 N   0  0  0  0  0  0  0  0  0  0  0  0
    0.2810   25.4250  -27.8410 C   0  0  0  0  0  0  0  0  0  0  0  0
    0.4430   24.2130  -28.4330 N   0  0  0  0  0  0  0  0  0  0  0  0
   -0.5930   23.5790  -29.0420 C   0  0  0  0  0  0  0  0  0  0  0  0
   -0.4397   22.5976  -29.5146 H   0  0  0  0  0  0  0  0  0  0  0  0
   -1.8620   24.1840  -29.0650 C   0  0  0  0  0  0  0  0  0  0  0  0
   -3.0270   23.5320  -29.7150 C   0  0  0  0  0  0  0  0  0  0  0  0
   -3.1950   22.1350  -29.6520 C   0  0  0  0  0  0  0  0  0  0  0  0
   -2.4503   21.5199  -29.1256 H   0  0  0  0  0  0  0  0  0  0  0  0
   -4.2990   21.5230  -30.2520 C   0  0  0  0  0  0  0  0  0  0  0  0
   -4.4124   20.4299  -30.2047 H   0  0  0  0  0  0  0  0  0  0  0  0
   -5.2610   22.2960  -30.9130 C   0  0  0  0  0  0  0  0  0  0  0  0
   -6.4250   21.6450  -31.5480 C   0  0  0  0  0  0  0  0  0  0  0  0
   -7.7100   22.0120  -31.1200 C   0  0  0  0  0  0  0  0  0  0  0  0
   -7.8274   22.7847  -30.3459 H   0  0  0  0  0  0  0  0  0  0  0  0
   -8.8410   21.4040  -31.6690 C   0  0  0  0  0  0  0  0  0  0  0  0
   -9.8441   21.6966  -31.3252 H   0  0  0  0  0  0  0  0  0  0  0  0
   -8.6990   20.4260  -32.6530 C   0  0  0  0  0  0  0  0  0  0  0  0
   -9.5903   19.9423  -33.0791 H   0  0  0  0  0  0  0  0  0  0  0  0
   -7.4280   20.0600  -33.0980 C   0  0  0  0  0  0  0  0  0  0  0  0
   -7.3242   19.2866  -33.8733 H   0  0  0  0  0  0  0  0  0  0  0  0
   -6.2810   20.6690  -32.5660 C   0  0  0  0  0  0  0  0  0  0  0  0
   -4.6960   20.2060  -33.2100 S   0  0  0  0  0  0  0  0  0  0  0  0
   -3.9100   19.4790  -32.1560 O   0  0  0  0  0  0  0  0  0  0  0  0
   -4.8660   19.2890  -34.3900 O   0  0  0  0  0  0  0  0  0  0  0  0
   -3.8270   21.6200  -33.6930 N   0  0  0  0  0  0  0  0  0  0  0  0
   -3.1780   21.3330  -34.4600 H   0  0  0  0  0  0  0  0  0  0  0  0
   -4.5220   22.2780  -34.1140 H   0  0  0  0  0  0  0  0  0  0  0  0
   -5.0970   23.6850  -30.9900 C   0  0  0  0  0  0  0  0  0  0  0  0
   -5.8398   24.2942  -31.5258 H   0  0  0  0  0  0  0  0  0  0  0  0
   -3.9950   24.3020  -30.3900 C   0  0  0  0  0  0  0  0  0  0  0  0
   -3.8620   25.6490  -30.4990 F   0  0  0  0  0  0  0  0  0  0  0  0
   -2.0120   25.4030  -28.4740 N   0  0  0  0  0  0  0  0  0  0  0  0
   -0.9760   26.0350  -27.8640 C   0  0  0  0  0  0  0  0  0  0  0  0
   -1.1250   27.0176  -27.3926 H   0  0  0  0  0  0  0  0  0  0  0  0
  1  2  1  0
  2  3  2  0
  3  4  1  0
  4  5  1  0
  5  6  1  0
  5  7  2  0
  7  8  1  0
  8  9  2  0
  9 10  1  0
  9 11  1  0
 11 12  1  0
 11 13  2  0
 13 14  1  0
 14 15  2  0
 15 16  1  0
 15 17  1  0
 17 18  1  0
 17 19  2  0
 19 20  1  0
 19 21  1  0
 21 22  1  0
 21 23  2  0
 23 24  1  0
 24 25  2  0
 24 26  2  0
 24 27  1  0
 27 28  1  0
 27 29  1  0
 13 30  1  0
 30 31  1  0
 30 32  2  0
 32 33  1  0
  7 34  1  0
 34 35  2  0
 35 36  1  0
 35  3  1  0
 32  8  1  0
 23 14  1  0
M  CHG  1   4  -1
M  END
>  <UniqueID>  (36) 
31

>  <SMILES>  (36) 
[H]/N=c1/cnc(-c2ccc(-c3ccccc3S(N)(=O)=O)cc2F)c[n-]1

>  <Energy>  (36) 
52.5536846518552

>  <Genealogy>  (36) 
N=c1cnc(-c2ccc(-c3ccccc3S(N)(=O)=O)cc2F)c[n-]1 (protonated)
[H]/N=c1/cnc(-c2ccc(-c3ccccc3S(N)(=O)=O)cc2F)c[n-]1 (cis-trans isomerization)
[H]/N=c1/cnc(-c2ccc(-c3ccccc3S(N)(=O)=O)cc2F)c[n-]1 (3D coordinates assigned)
[H]/N=c1/cnc(-c2ccc(-c3ccccc3S(N)(=O)=O)cc2F)c[n-]1 (optimized conformer: 52.5536846518552 kcal/mol)

>  <smiles>  (36) 
N=c1cnc(-c2ccc(-c3ccccc3S(N)(=O)=O)cc2F)c[nH]1

>  <score_type>  (36) 
oracle

>  <origin>  (36) 
adgpu

>  <m_score__min__energy>  (36) 
-9.2400000000000002

>  <m_primary>  (36) 
energy

$$$$
36:0
     RDKit          3D

 45 47  0  0  0  0  0  0  0  0999 V2000
   -3.5190   21.7190  -30.4740 C   0  0  0  0  0  0  0  0  0  0  0  0
   -3.9450   23.1460  -30.3450 C   0  0  0  0  0  0  0  0  0  0  0  0
   -3.1410   24.1910  -30.6220 N   0  0  0  0  0  0  0  0  0  0  0  0
   -3.8500   25.2720  -30.4660 O   0  0  0  0  0  0  0  0  0  0  0  0
   -5.0820   24.9860  -30.1100 C   0  0  0  0  0  0  0  0  0  0  0  0
   -6.1420   26.0070  -29.8580 C   0  0  0  0  0  0  0  0  0  0  0  0
   -5.2070   23.6130  -30.0200 C   0  0  0  0  0  0  0  0  0  0  0  0
   -6.4440   22.8130  -29.6960 C   0  0  0  0  0  0  0  0  0  0  0  0
   -7.5960   23.2160  -30.5180 N   0  0  0  0  0  0  0  0  0  0  0  0
   -7.2870   23.1860  -31.9560 C   0  0  0  0  0  0  0  0  0  0  0  0
   -6.9070   21.7930  -32.3840 C   0  0  0  0  0  0  0  0  0  0  0  0
   -5.5970   21.5020  -32.7820 C   0  0  0  0  0  0  0  0  0  0  0  0
   -5.2460   20.2000  -33.1430 C   0  0  0  0  0  0  0  0  0  0  0  0
   -6.2130   19.1800  -33.0900 C   0  0  0  0  0  0  0  0  0  0  0  0
   -5.8950   17.8180  -33.4530 N   0  0  0  0  0  0  0  0  0  0  0  0
   -4.4980   17.4510  -33.7190 C   0  0  0  0  0  0  0  0  0  0  0  0
   -4.4330   16.2490  -34.6650 C   0  0  0  0  0  0  0  0  0  0  0  0
   -5.2440   15.1930  -34.1890 O   0  0  0  0  0  0  0  0  0  0  0  0
   -6.6010   15.5870  -34.2260 C   0  0  0  0  0  0  0  0  0  0  0  0
   -6.8650   16.7330  -33.2450 C   0  0  0  0  0  0  0  0  0  0  0  0
   -7.4780   19.4900  -32.6890 N   0  0  0  0  0  0  0  0  0  0  0  0
   -7.8410   20.7510  -32.3350 C   0  0  0  0  0  0  0  0  0  0  0  0
   -3.3889   21.2832  -29.4724 H   0  0  0  0  0  0  0  0  0  0  0  0
   -4.2879   21.1549  -31.0223 H   0  0  0  0  0  0  0  0  0  0  0  0
   -2.5667   21.6688  -31.0223 H   0  0  0  0  0  0  0  0  0  0  0  0
   -6.2762   26.1363  -28.7739 H   0  0  0  0  0  0  0  0  0  0  0  0
   -5.8423   26.9653  -30.3072 H   0  0  0  0  0  0  0  0  0  0  0  0
   -7.0884   25.6716  -30.3072 H   0  0  0  0  0  0  0  0  0  0  0  0
   -6.2349   21.7482  -29.8764 H   0  0  0  0  0  0  0  0  0  0  0  0
   -6.6995   22.9971  -28.6420 H   0  0  0  0  0  0  0  0  0  0  0  0
   -8.4130   22.5930  -30.3170 H   0  0  0  0  0  0  0  0  0  0  0  0
   -7.8570   24.1940  -30.2500 H   0  0  0  0  0  0  0  0  0  0  0  0
   -8.1717   23.5105  -32.5234 H   0  0  0  0  0  0  0  0  0  0  0  0
   -6.4419   23.8620  -32.1528 H   0  0  0  0  0  0  0  0  0  0  0  0
   -4.8420   22.3015  -32.8104 H   0  0  0  0  0  0  0  0  0  0  0  0
   -4.2195   19.9732  -33.4669 H   0  0  0  0  0  0  0  0  0  0  0  0
   -3.9807   18.3046  -34.1814 H   0  0  0  0  0  0  0  0  0  0  0  0
   -4.0120   17.1841  -32.7690 H   0  0  0  0  0  0  0  0  0  0  0  0
   -4.7858   16.5542  -35.6612 H   0  0  0  0  0  0  0  0  0  0  0  0
   -3.3919   15.8981  -34.7194 H   0  0  0  0  0  0  0  0  0  0  0  0
   -6.8517   15.9197  -35.2441 H   0  0  0  0  0  0  0  0  0  0  0  0
   -7.2242   14.7276  -33.9379 H   0  0  0  0  0  0  0  0  0  0  0  0
   -7.8821   17.1202  -33.4050 H   0  0  0  0  0  0  0  0  0  0  0  0
   -6.7626   16.3543  -32.2173 H   0  0  0  0  0  0  0  0  0  0  0  0
   -8.8718   20.9536  -32.0090 H   0  0  0  0  0  0  0  0  0  0  0  0
  1  2  1  0
  2  3  2  0
  3  4  1  0
  4  5  1  0
  5  6  1  0
  5  7  2  0
  7  8  1  0
  8  9  1  0
  9 10  1  0
 10 11  1  0
 11 12  2  0
 12 13  1  0
 13 14  2  0
 14 15  1  0
 15 16  1  0
 16 17  1  0
 17 18  1  0
 18 19  1  0
 19 20  1  0
 14 21  1  0
 21 22  2  0
  7  2  1  0
 22 11  1  0
 20 15  1  0
  1 23  1  0
  1 24  1  0
  1 25  1  0
  6 26  1  0
  6 27  1  0
  6 28  1  0
  8 29  1  0
  8 30  1  0
  9 31  1  0
  9 32  1  0
 10 33  1  0
 10 34  1  0
 12 35  1  0
 13 36  1  0
 16 37  1  0
 16 38  1  0
 17 39  1  0
 17 40  1  0
 19 41  1  0
 19 42  1  0
 20 43  1  0
 20 44  1  0
 22 45  1  0
M  CHG  1   9   1
M  END
>  <UniqueID>  (37) 
32

>  <SMILES>  (37) 
Cc1noc(C)c1C[NH2+]Cc1ccc(N2CCOCC2)nc1

>  <Energy>  (37) 
77.07500513846378

>  <Genealogy>  (37) 
Cc1noc(C)c1C[NH2+]Cc1ccc(N2CCOCC2)nc1 (protonated)
Cc1noc(C)c1C[NH2+]Cc1ccc(N2CCOCC2)nc1 (3D coordinates assigned)
Cc1noc(C)c1C[NH2+]Cc1ccc(N2CCOCC2)nc1 (nonaromatic ring conformer: 77.07500513846378 kcal/mol)

>  <smiles>  (37) 
Cc1noc(C)c1CNCc1ccc(N2CCOCC2)nc1

>  <score_type>  (37) 
oracle

>  <origin>  (37) 
adgpu

>  <m_score__min__energy>  (37) 
-7.7699999999999996

>  <m_primary>  (37) 
energy

$$$$
37:0
     RDKit          3D

 22 23  0  0  0  0  0  0  0  0999 V2000
   -5.5630   26.1150  -30.4680 N   0  0  0  0  0  0  0  0  0  0  0  0
   -5.7100   25.0270  -30.8330 C   0  0  0  0  0  0  0  0  0  0  0  0
   -5.8950   23.6730  -31.2860 C   0  0  0  0  0  0  0  0  0  0  0  0
   -4.7910   22.8540  -31.5180 C   0  0  0  0  0  0  0  0  0  0  0  0
   -4.9870   21.5440  -31.9590 C   0  0  0  0  0  0  0  0  0  0  0  0
   -6.2510   21.0540  -32.1640 N   0  0  0  0  0  0  0  0  0  0  0  0
   -6.4140   19.6990  -32.6370 C   0  0  0  0  0  0  0  0  0  0  0  0
   -7.0870   18.7390  -31.8610 C   0  0  0  0  0  0  0  0  0  0  0  0
   -7.2260   17.4380  -32.3470 C   0  0  0  0  0  0  0  0  0  0  0  0
   -6.6990   17.1010  -33.5950 C   0  0  0  0  0  0  0  0  0  0  0  0
   -6.8670   15.4700  -34.2180 Cl  0  0  0  0  0  0  0  0  0  0  0  0
   -6.0390   18.0790  -34.3430 C   0  0  0  0  0  0  0  0  0  0  0  0
   -5.9130   19.3410  -33.8540 N   0  0  0  0  0  0  0  0  0  0  0  0
   -7.3450   21.8540  -31.9380 C   0  0  0  0  0  0  0  0  0  0  0  0
   -8.5140   21.4110  -32.1070 O   0  0  0  0  0  0  0  0  0  0  0  0
   -7.1800   23.1730  -31.4980 C   0  0  0  0  0  0  0  0  0  0  0  0
   -3.7729   23.2371  -31.3548 H   0  0  0  0  0  0  0  0  0  0  0  0
   -4.1168   20.8971  -32.1442 H   0  0  0  0  0  0  0  0  0  0  0  0
   -7.5007   19.0111  -30.8787 H   0  0  0  0  0  0  0  0  0  0  0  0
   -7.7501   16.6792  -31.7474 H   0  0  0  0  0  0  0  0  0  0  0  0
   -5.6208   17.8275  -35.3288 H   0  0  0  0  0  0  0  0  0  0  0  0
   -8.0583   23.8111  -31.3206 H   0  0  0  0  0  0  0  0  0  0  0  0
  1  2  3  0
  2  3  1  0
  3  4  1  0
  4  5  2  0
  5  6  1  0
  6  7  1  0
  7  8  2  0
  8  9  1  0
  9 10  2  0
 10 11  1  0
 10 12  1  0
 12 13  2  0
  6 14  1  0
 14 15  2  0
 14 16  1  0
 16  3  2  0
 13  7  1  0
  4 17  1  0
  5 18  1  0
  8 19  1  0
  9 20  1  0
 12 21  1  0
 16 22  1  0
M  END
>  <UniqueID>  (38) 
33

>  <SMILES>  (38) 
N#Cc1ccn(-c2ccc(Cl)cn2)c(=O)c1

>  <Energy>  (38) 
30.85194681957371

>  <Genealogy>  (38) 
N#Cc1ccn(-c2ccc(Cl)cn2)c(=O)c1 (3D coordinates assigned)
N#Cc1ccn(-c2ccc(Cl)cn2)c(=O)c1 (optimized conformer: 30.85194681957371 kcal/mol)

>  <smiles>  (38) 
N#Cc1ccn(-c2ccc(Cl)cn2)c(=O)c1

>  <score_type>  (38) 
oracle

>  <origin>  (38) 
adgpu

>  <m_score__min__energy>  (38) 
-6.3200000000000003

>  <m_primary>  (38) 
energy

$$$$
38:0
     RDKit          3D

 29 30  0  0  0  0  0  0  0  0999 V2000
   -8.7320   18.5610  -31.2290 C   0  0  0  0  0  0  0  0  0  0  0  0
   -8.3850   20.0680  -32.1050 S   0  0  0  0  0  0  0  0  0  0  0  0
   -8.9040   21.2390  -31.3190 O   0  0  0  0  0  0  0  0  0  0  0  0
   -9.0710   20.0430  -33.4420 O   0  0  0  0  0  0  0  0  0  0  0  0
   -6.6460   20.2250  -32.3310 C   0  0  0  0  0  0  0  0  0  0  0  0
   -5.9620   21.3220  -31.7920 C   0  0  0  0  0  0  0  0  0  0  0  0
   -4.5790   21.4400  -31.9570 C   0  0  0  0  0  0  0  0  0  0  0  0
   -3.8590   20.4610  -32.6630 C   0  0  0  0  0  0  0  0  0  0  0  0
   -2.3900   20.5880  -32.8360 C   0  0  0  0  0  0  0  0  0  0  0  0
   -1.5120   19.9010  -31.9810 C   0  0  0  0  0  0  0  0  0  0  0  0
   -0.1340   20.0240  -32.1610 C   0  0  0  0  0  0  0  0  0  0  0  0
    0.9710   19.1640  -31.1020 Cl  0  0  0  0  0  0  0  0  0  0  0  0
    0.3630   20.8270  -33.1870 C   0  0  0  0  0  0  0  0  0  0  0  0
   -0.5300   21.5010  -34.0250 C   0  0  0  0  0  0  0  0  0  0  0  0
   -0.0670   22.2510  -34.9760 N   0  0  0  0  0  0  0  0  0  0  0  0
   -1.8760   21.3700  -33.8360 N   0  0  0  0  0  0  0  0  0  0  0  0
   -4.5510   19.3580  -33.1960 C   0  0  0  0  0  0  0  0  0  0  0  0
   -5.9350   19.2420  -33.0280 C   0  0  0  0  0  0  0  0  0  0  0  0
   -8.6889   18.7482  -30.1459 H   0  0  0  0  0  0  0  0  0  0  0  0
   -9.7362   18.2026  -31.4995 H   0  0  0  0  0  0  0  0  0  0  0  0
   -7.9857   17.7995  -31.4995 H   0  0  0  0  0  0  0  0  0  0  0  0
   -6.5153   22.0937  -31.2367 H   0  0  0  0  0  0  0  0  0  0  0  0
   -4.0503   22.3055  -31.5311 H   0  0  0  0  0  0  0  0  0  0  0  0
   -1.9093   19.2689  -31.1732 H   0  0  0  0  0  0  0  0  0  0  0  0
    1.4481   20.9291  -33.3356 H   0  0  0  0  0  0  0  0  0  0  0  0
   -0.6950   22.7750  -35.6260 H   0  0  0  0  0  0  0  0  0  0  0  0
   -2.5300   21.8990  -34.4580 H   0  0  0  0  0  0  0  0  0  0  0  0
   -4.0004   18.5821  -33.7482 H   0  0  0  0  0  0  0  0  0  0  0  0
   -6.4665   18.3742  -33.4457 H   0  0  0  0  0  0  0  0  0  0  0  0
  1  2  1  0
  2  3  2  0
  2  4  2  0
  2  5  1  0
  5  6  2  0
  6  7  1  0
  7  8  2  0
  8  9  1  0
  9 10  2  0
 10 11  1  0
 11 12  1  0
 11 13  2  0
 13 14  1  0
 14 15  2  3
 14 16  1  0
  8 17  1  0
 17 18  2  0
 18  5  1  0
 16  9  1  0
  1 19  1  0
  1 20  1  0
  1 21  1  0
  6 22  1  0
  7 23  1  0
 10 24  1  0
 13 25  1  0
 15 26  1  0
 16 27  1  0
 17 28  1  0
 18 29  1  0
M  END
>  <UniqueID>  (39) 
34

>  <SMILES>  (39) 
CS(=O)(=O)c1ccc(-c2cc(Cl)cc(=N)[nH]2)cc1

>  <Energy>  (39) 
32.23534497977026

>  <Genealogy>  (39) 
CS(=O)(=O)c1ccc(-c2cc(Cl)cc(=N)[nH]2)cc1 (3D coordinates assigned)
CS(=O)(=O)c1ccc(-c2cc(Cl)cc(=N)[nH]2)cc1 (optimized conformer: 32.23534497977026 kcal/mol)

>  <smiles>  (39) 
CS(=O)(=O)c1ccc(-c2cc(Cl)cc(=N)[nH]2)cc1

>  <score_type>  (39) 
oracle

>  <origin>  (39) 
adgpu

>  <m_score__min__energy>  (39) 
-7.2300000000000004

>  <m_primary>  (39) 
energy

$$$$
39:0
     RDKit          3D

 28 29  0  0  0  0  0  0  0  0999 V2000
   -6.0710   21.1870  -32.5490 C   0  0  0  0  0  0  0  0  0  0  0  0
   -6.0170   22.4350  -31.7200 C   0  0  0  0  0  0  0  0  0  0  0  0
   -7.1990   23.0220  -31.2460 C   0  0  0  0  0  0  0  0  0  0  0  0
   -7.1470   24.1980  -30.4930 C   0  0  0  0  0  0  0  0  0  0  0  0
   -5.9180   24.8080  -30.2300 C   0  0  0  0  0  0  0  0  0  0  0  0
   -4.7330   24.2590  -30.7330 C   0  0  0  0  0  0  0  0  0  0  0  0
   -3.4890   24.9160  -30.4460 N   0  0  0  0  0  0  0  0  0  0  0  0
   -2.5470   24.5430  -29.4300 C   0  0  0  0  0  0  0  0  0  0  0  0
   -1.7920   25.4300  -28.9520 O   0  0  0  0  0  0  0  0  0  0  0  0
   -2.4050   23.1430  -28.9670 C   0  0  0  0  0  0  0  0  0  0  0  0
   -3.2420   22.6480  -27.9470 C   0  0  0  0  0  0  0  0  0  0  0  0
   -4.1960   23.4350  -27.3890 F   0  0  0  0  0  0  0  0  0  0  0  0
   -3.1190   21.3220  -27.5160 C   0  0  0  0  0  0  0  0  0  0  0  0
   -2.1590   20.4840  -28.0870 C   0  0  0  0  0  0  0  0  0  0  0  0
   -1.3140   20.9700  -29.0870 C   0  0  0  0  0  0  0  0  0  0  0  0
   -1.4290   22.2940  -29.5250 C   0  0  0  0  0  0  0  0  0  0  0  0
   -0.5660   22.7490  -30.4680 F   0  0  0  0  0  0  0  0  0  0  0  0
   -4.7850   23.0590  -31.4670 C   0  0  0  0  0  0  0  0  0  0  0  0
   -6.1090   20.3088  -31.8876 H   0  0  0  0  0  0  0  0  0  0  0  0
   -6.9691   21.2071  -33.1838 H   0  0  0  0  0  0  0  0  0  0  0  0
   -5.1745   21.1294  -33.1838 H   0  0  0  0  0  0  0  0  0  0  0  0
   -8.1701   22.5553  -31.4676 H   0  0  0  0  0  0  0  0  0  0  0  0
   -8.0753   24.6442  -30.1067 H   0  0  0  0  0  0  0  0  0  0  0  0
   -5.8815   25.7253  -29.6240 H   0  0  0  0  0  0  0  0  0  0  0  0
   -3.7806   20.9389  -26.7251 H   0  0  0  0  0  0  0  0  0  0  0  0
   -2.0684   19.4411  -27.7491 H   0  0  0  0  0  0  0  0  0  0  0  0
   -0.5552   20.3096  -29.5320 H   0  0  0  0  0  0  0  0  0  0  0  0
   -3.8555   22.6078  -31.8444 H   0  0  0  0  0  0  0  0  0  0  0  0
  1  2  1  0
  2  3  2  0
  3  4  1  0
  4  5  2  0
  5  6  1  0
  6  7  1  0
  7  8  1  0
  8  9  2  0
  8 10  1  0
 10 11  2  0
 11 12  1  0
 11 13  1  0
 13 14  2  0
 14 15  1  0
 15 16  2  0
 16 17  1  0
  6 18  2  0
 18  2  1  0
 16 10  1  0
  1 19  1  0
  1 20  1  0
  1 21  1  0
  3 22  1  0
  4 23  1  0
  5 24  1  0
 13 25  1  0
 14 26  1  0
 15 27  1  0
 18 28  1  0
M  CHG  1   7  -1
M  END
>  <UniqueID>  (40) 
35

>  <SMILES>  (40) 
Cc1cccc([N-]C(=O)c2c(F)cccc2F)c1

>  <Energy>  (40) 
36.38689843791642

>  <Genealogy>  (40) 
Cc1cccc([N-]C(=O)c2c(F)cccc2F)c1 (protonated)
Cc1cccc([N-]C(=O)c2c(F)cccc2F)c1 (3D coordinates assigned)
Cc1cccc([N-]C(=O)c2c(F)cccc2F)c1 (optimized conformer: 36.38689843791642 kcal/mol)

>  <smiles>  (40) 
Cc1cccc(NC(=O)c2c(F)cccc2F)c1

>  <score_type>  (40) 
oracle

>  <origin>  (40) 
adgpu

>  <m_score__min__energy>  (40) 
-7.8700000000000001

>  <m_primary>  (40) 
energy

$$$$
40:0
     RDKit          3D

 41 43  0  0  0  0  0  0  0  0999 V2000
   -9.4520   18.9760  -32.2880 C   0  0  0  0  0  0  0  0  0  0  0  0
   -7.9880   18.8660  -32.5940 C   0  0  0  0  0  0  0  0  0  0  0  0
   -7.3740   19.7920  -33.4500 C   0  0  0  0  0  0  0  0  0  0  0  0
   -6.0170   19.6680  -33.7650 C   0  0  0  0  0  0  0  0  0  0  0  0
   -5.2620   18.6010  -33.2500 C   0  0  0  0  0  0  0  0  0  0  0  0
   -3.8230   18.4620  -33.5660 C   0  0  0  0  0  0  0  0  0  0  0  0
   -3.3580   17.4760  -34.3640 N   0  0  0  0  0  0  0  0  0  0  0  0
   -2.0200   17.6470  -34.3540 C   0  0  0  0  0  0  0  0  0  0  0  0
   -1.0550   16.7510  -35.0600 C   0  0  0  0  0  0  0  0  0  0  0  0
   -1.7520   15.8450  -35.8360 F   0  0  0  0  0  0  0  0  0  0  0  0
   -0.2210   17.4980  -35.8730 F   0  0  0  0  0  0  0  0  0  0  0  0
   -0.2860   16.0650  -34.1370 F   0  0  0  0  0  0  0  0  0  0  0  0
   -1.6880   18.7090  -33.5430 C   0  0  0  0  0  0  0  0  0  0  0  0
   -2.8280   19.2340  -33.0590 N   0  0  0  0  0  0  0  0  0  0  0  0
   -2.9230   20.4300  -32.2670 C   0  0  0  0  0  0  0  0  0  0  0  0
   -3.7960   21.4660  -32.6390 C   0  0  0  0  0  0  0  0  0  0  0  0
   -3.8840   22.6290  -31.8670 C   0  0  0  0  0  0  0  0  0  0  0  0
   -3.0870   22.7770  -30.7240 C   0  0  0  0  0  0  0  0  0  0  0  0
   -3.2150   24.2300  -29.7410 S   0  0  0  0  0  0  0  0  0  0  0  0
   -4.1620   23.8710  -28.2790 C   0  0  0  0  0  0  0  0  0  0  0  0
   -1.8440   24.7040  -29.3460 O   0  0  0  0  0  0  0  0  0  0  0  0
   -3.8930   25.3180  -30.5250 O   0  0  0  0  0  0  0  0  0  0  0  0
   -2.2060   21.7510  -30.3560 C   0  0  0  0  0  0  0  0  0  0  0  0
   -2.1190   20.5890  -31.1280 C   0  0  0  0  0  0  0  0  0  0  0  0
   -5.8780   17.6800  -32.3900 C   0  0  0  0  0  0  0  0  0  0  0  0
   -7.2340   17.8030  -32.0740 C   0  0  0  0  0  0  0  0  0  0  0  0
   -9.5989   18.9870  -31.1979 H   0  0  0  0  0  0  0  0  0  0  0  0
   -9.8482   19.9064  -32.7208 H   0  0  0  0  0  0  0  0  0  0  0  0
   -9.9827   18.1152  -32.7208 H   0  0  0  0  0  0  0  0  0  0  0  0
   -7.9619   20.6188  -33.8752 H   0  0  0  0  0  0  0  0  0  0  0  0
   -5.5379   20.4105  -34.4201 H   0  0  0  0  0  0  0  0  0  0  0  0
   -0.6697   19.0654  -33.3286 H   0  0  0  0  0  0  0  0  0  0  0  0
   -4.4141   21.3619  -33.5429 H   0  0  0  0  0  0  0  0  0  0  0  0
   -4.5804   23.4293  -32.1578 H   0  0  0  0  0  0  0  0  0  0  0  0
   -3.5601   24.0992  -27.3870 H   0  0  0  0  0  0  0  0  0  0  0  0
   -5.0742   24.4857  -28.2729 H   0  0  0  0  0  0  0  0  0  0  0  0
   -4.4375   22.8061  -28.2729 H   0  0  0  0  0  0  0  0  0  0  0  0
   -1.5813   21.8605  -29.4572 H   0  0  0  0  0  0  0  0  0  0  0  0
   -1.4154   19.7937  -30.8407 H   0  0  0  0  0  0  0  0  0  0  0  0
   -5.2899   16.8552  -31.9613 H   0  0  0  0  0  0  0  0  0  0  0  0
   -7.7121   17.0634  -31.4149 H   0  0  0  0  0  0  0  0  0  0  0  0
  1  2  1  0
  2  3  2  0
  3  4  1  0
  4  5  2  0
  5  6  1  0
  6  7  2  0
  7  8  1  0
  8  9  1  0
  9 10  1  0
  9 11  1  0
  9 12  1  0
  8 13  2  0
 13 14  1  0
 14 15  1  0
 15 16  2  0
 16 17  1  0
 17 18  2  0
 18 19  1  0
 19 20  1  0
 19 21  2  0
 19 22  2  0
 18 23  1  0
 23 24  2  0
  5 25  1  0
 25 26  2  0
 26  2  1  0
 14  6  1  0
 24 15  1  0
  1 27  1  0
  1 28  1  0
  1 29  1  0
  3 30  1  0
  4 31  1  0
 13 32  1  0
 16 33  1  0
 17 34  1  0
 20 35  1  0
 20 36  1  0
 20 37  1  0
 23 38  1  0
 24 39  1  0
 25 40  1  0
 26 41  1  0
M  END
>  <UniqueID>  (41) 
36

>  <SMILES>  (41) 
Cc1ccc(-c2nc(C(F)(F)F)cn2-c2ccc(S(C)(=O)=O)cc2)cc1

>  <Energy>  (41) 
77.00853407303713

>  <Genealogy>  (41) 
Cc1ccc(-c2nc(C(F)(F)F)cn2-c2ccc(S(C)(=O)=O)cc2)cc1 (3D coordinates assigned)
Cc1ccc(-c2nc(C(F)(F)F)cn2-c2ccc(S(C)(=O)=O)cc2)cc1 (optimized conformer: 77.00853407303713 kcal/mol)

>  <smiles>  (41) 
Cc1ccc(-c2nc(C(F)(F)F)cn2-c2ccc(S(C)(=O)=O)cc2)cc1

>  <score_type>  (41) 
oracle

>  <origin>  (41) 
adgpu

>  <m_score__min__energy>  (41) 
-8.1899999999999995

>  <m_primary>  (41) 
energy

$$$$
41:0
     RDKit          3D

 51 54  0  0  0  0  0  0  0  0999 V2000
   -1.6990   23.5600  -27.1580 C   0  0  0  0  0  0  0  0  0  0  0  0
   -1.1910   24.4950  -28.5860 S   0  0  0  0  0  0  0  0  0  0  0  0
   -0.1950   25.5500  -28.1950 O   0  0  0  0  0  0  0  0  0  0  0  0
   -0.5440   23.5610  -29.5680 O   0  0  0  0  0  0  0  0  0  0  0  0
   -2.5690   25.2280  -29.3400 N   0  0  0  0  0  0  0  0  0  0  0  0
   -3.6000   24.5340  -30.0570 C   0  0  0  0  0  0  0  0  0  0  0  0
   -4.9490   24.9160  -29.9980 C   0  0  0  0  0  0  0  0  0  0  0  0
   -5.8850   24.2220  -30.6970 N   0  0  0  0  0  0  0  0  0  0  0  0
   -5.5600   23.1500  -31.4660 C   0  0  0  0  0  0  0  0  0  0  0  0
   -4.2250   22.7240  -31.5640 C   0  0  0  0  0  0  0  0  0  0  0  0
   -3.8570   21.5560  -32.4000 C   0  0  0  0  0  0  0  0  0  0  0  0
   -2.6420   21.5020  -33.0080 N   0  0  0  0  0  0  0  0  0  0  0  0
   -2.2970   20.4370  -33.7770 C   0  0  0  0  0  0  0  0  0  0  0  0
   -1.0050   20.3870  -34.4190 N   0  0  0  0  0  0  0  0  0  0  0  0
   -0.4310   19.0900  -34.8040 C   0  0  0  0  0  0  0  0  0  0  0  0
    0.6050   19.2710  -35.9190 C   0  0  0  0  0  0  0  0  0  0  0  0
    1.5460   20.2670  -35.5730 O   0  0  0  0  0  0  0  0  0  0  0  0
    0.8990   21.5220  -35.5010 C   0  0  0  0  0  0  0  0  0  0  0  0
   -0.1090   21.5500  -34.3480 C   0  0  0  0  0  0  0  0  0  0  0  0
   -3.1820   19.4180  -33.9350 N   0  0  0  0  0  0  0  0  0  0  0  0
   -4.4010   19.4550  -33.3350 C   0  0  0  0  0  0  0  0  0  0  0  0
   -5.3350   18.3680  -33.5080 N   0  0  0  0  0  0  0  0  0  0  0  0
   -5.0780   17.3420  -34.5290 C   0  0  0  0  0  0  0  0  0  0  0  0
   -5.8270   16.0500  -34.1920 C   0  0  0  0  0  0  0  0  0  0  0  0
   -7.1910   16.3110  -33.9280 O   0  0  0  0  0  0  0  0  0  0  0  0
   -7.3020   17.0870  -32.7530 C   0  0  0  0  0  0  0  0  0  0  0  0
   -6.6920   18.4770  -32.9570 C   0  0  0  0  0  0  0  0  0  0  0  0
   -4.7300   20.5290  -32.5700 N   0  0  0  0  0  0  0  0  0  0  0  0
   -3.2480   23.4340  -30.8470 C   0  0  0  0  0  0  0  0  0  0  0  0
   -1.4066   24.0982  -26.2443 H   0  0  0  0  0  0  0  0  0  0  0  0
   -2.7913   23.4309  -27.1738 H   0  0  0  0  0  0  0  0  0  0  0  0
   -1.2129   22.5734  -27.1738 H   0  0  0  0  0  0  0  0  0  0  0  0
   -5.2492   25.7786  -29.3849 H   0  0  0  0  0  0  0  0  0  0  0  0
   -6.3471   22.6125  -32.0152 H   0  0  0  0  0  0  0  0  0  0  0  0
    0.0553   18.6352  -33.9284 H   0  0  0  0  0  0  0  0  0  0  0  0
   -1.2380   18.4386  -35.1707 H   0  0  0  0  0  0  0  0  0  0  0  0
    1.1310   18.3185  -36.0806 H   0  0  0  0  0  0  0  0  0  0  0  0
    0.0844   19.5815  -36.8369 H   0  0  0  0  0  0  0  0  0  0  0  0
    1.6524   22.3072  -35.3403 H   0  0  0  0  0  0  0  0  0  0  0  0
    0.3601   21.6950  -36.4442 H   0  0  0  0  0  0  0  0  0  0  0  0
    0.4343   21.5305  -33.3917 H   0  0  0  0  0  0  0  0  0  0  0  0
   -0.7107   22.4677  -34.4238 H   0  0  0  0  0  0  0  0  0  0  0  0
   -5.4174   17.7123  -35.5076 H   0  0  0  0  0  0  0  0  0  0  0  0
   -3.9989   17.1305  -34.5567 H   0  0  0  0  0  0  0  0  0  0  0  0
   -5.7512   15.3574  -35.0432 H   0  0  0  0  0  0  0  0  0  0  0  0
   -5.3742   15.6058  -33.2933 H   0  0  0  0  0  0  0  0  0  0  0  0
   -8.3650   17.1949  -32.4916 H   0  0  0  0  0  0  0  0  0  0  0  0
   -6.7572   16.5792  -31.9434 H   0  0  0  0  0  0  0  0  0  0  0  0
   -7.3210   19.0494  -33.6547 H   0  0  0  0  0  0  0  0  0  0  0  0
   -6.6409   18.9890  -31.9848 H   0  0  0  0  0  0  0  0  0  0  0  0
   -2.1949   23.1220  -30.9071 H   0  0  0  0  0  0  0  0  0  0  0  0
  1  2  1  0
  2  3  2  0
  2  4  2  0
  2  5  1  0
  5  6  1  0
  6  7  2  0
  7  8  1  0
  8  9  2  0
  9 10  1  0
 10 11  1  0
 11 12  2  0
 12 13  1  0
 13 14  1  0
 14 15  1  0
 15 16  1  0
 16 17  1  0
 17 18  1  0
 18 19  1  0
 13 20  2  0
 20 21  1  0
 21 22  1  0
 22 23  1  0
 23 24  1  0
 24 25  1  0
 25 26  1  0
 26 27  1  0
 21 28  2  0
 10 29  2  0
 29  6  1  0
 28 11  1  0
 19 14  1  0
 27 22  1  0
  1 30  1  0
  1 31  1  0
  1 32  1  0
  7 33  1  0
  9 34  1  0
 15 35  1  0
 15 36  1  0
 16 37  1  0
 16 38  1  0
 18 39  1  0
 18 40  1  0
 19 41  1  0
 19 42  1  0
 23 43  1  0
 23 44  1  0
 24 45  1  0
 24 46  1  0
 26 47  1  0
 26 48  1  0
 27 49  1  0
 27 50  1  0
 29 51  1  0
M  CHG  1   5  -1
M  END
>  <UniqueID>  (42) 
37

>  <SMILES>  (42) 
CS(=O)(=O)[N-]c1cncc(-c2nc(N3CCOCC3)nc(N3CCOCC3)n2)c1

>  <Energy>  (42) 
57.715805387149906

>  <Genealogy>  (42) 
CS(=O)(=O)[N-]c1cncc(-c2nc(N3CCOCC3)nc(N3CCOCC3)n2)c1 (protonated)
CS(=O)(=O)[N-]c1cncc(-c2nc(N3CCOCC3)nc(N3CCOCC3)n2)c1 (3D coordinates assigned)
CS(=O)(=O)[N-]c1cncc(-c2nc(N3CCOCC3)nc(N3CCOCC3)n2)c1 (nonaromatic ring conformer: 57.715805387149906 kcal/mol)

>  <smiles>  (42) 
CS(=O)(=O)Nc1cncc(-c2nc(N3CCOCC3)nc(N3CCOCC3)n2)c1

>  <score_type>  (42) 
oracle

>  <origin>  (42) 
adgpu

>  <m_score__min__energy>  (42) 
-9.4499999999999993

>  <m_primary>  (42) 
energy

$$$$
42:0
     RDKit          3D

 50 53  0  0  1  0  0  0  0  0999 V2000
   -5.7070   18.1490  -34.6710 C   0  0  0  0  0  0  0  0  0  0  0  0
   -4.3520   18.4870  -34.7580 O   0  0  0  0  0  0  0  0  0  0  0  0
   -3.7430   19.2780  -33.7970 C   0  0  0  0  0  0  0  0  0  0  0  0
   -4.2200   19.3310  -32.5060 C   0  0  0  0  0  0  0  0  0  0  0  0
   -3.5940   20.1200  -31.5850 C   0  0  0  0  0  0  0  0  0  0  0  0
   -2.4710   20.8850  -31.9150 C   0  0  0  0  0  0  0  0  0  0  0  0
   -1.8980   21.6700  -30.8830 N   0  0  0  0  0  0  0  0  0  0  0  0
   -2.5220   22.6720  -30.3660 C   0  0  0  0  0  0  0  0  0  0  0  0
   -1.9390   23.4320  -29.3500 C   0  0  0  0  0  0  0  0  0  0  0  0
   -2.5800   24.5090  -28.7770 C   0  0  0  0  0  0  0  0  0  0  0  0
   -1.9600   25.2950  -27.7180 C   0  0  0  0  0  0  0  0  0  0  0  0
   -0.8530   26.0920  -27.9480 C   0  0  0  0  0  0  0  0  0  0  0  0
   -0.2620   26.8390  -26.9460 C   0  0  0  0  0  0  0  0  0  0  0  0
   -0.7460   26.8320  -25.6600 C   0  0  0  0  0  0  0  0  0  0  0  0
   -1.8490   26.0450  -25.4090 C   0  0  0  0  0  0  0  0  0  0  0  0
   -2.4470   25.2860  -26.4260 C   0  0  0  0  0  0  0  0  0  0  0  0
   -3.8070   24.7990  -29.2440 N   0  0  0  0  0  0  0  0  0  0  0  0
   -4.3910   24.0630  -30.2390 C   0  0  0  0  0  0  0  0  0  0  0  0
   -6.0150   24.4720  -30.8350 S   0  0  0  0  0  0  0  0  0  0  0  0
   -6.3690   23.7080  -32.4320 C   0  0  0  0  0  0  0  0  0  0  0  0
   -7.2070   22.4980  -32.2410 C   0  0  0  0  0  0  0  0  0  0  0  0
   -8.4190   22.6750  -31.5940 C   0  0  0  0  0  0  0  0  0  0  0  0
   -9.2350   21.5600  -31.3960 C   0  0  0  0  0  0  0  0  0  0  0  0
   -8.8240   20.3170  -31.8430 C   0  0  0  0  0  0  0  0  0  0  0  0
   -7.6040   20.1730  -32.4880 C   0  0  0  0  0  0  0  0  0  0  0  0
   -6.7840   21.2560  -32.6940 C   0  0  0  0  0  0  0  0  0  0  0  0
   -3.7610   23.0180  -30.7910 N   0  0  0  0  0  0  0  0  0  0  0  0
   -1.9820   20.8420  -33.2040 C   0  0  0  0  0  0  0  0  0  0  0  0
   -2.6340   20.0330  -34.1210 C   0  0  0  0  0  0  0  0  0  0  0  0
   -5.9995   18.0760  -33.6131 H   0  0  0  0  0  0  0  0  0  0  0  0
   -6.3107   18.9241  -35.1657 H   0  0  0  0  0  0  0  0  0  0  0  0
   -5.8760   17.1812  -35.1657 H   0  0  0  0  0  0  0  0  0  0  0  0
   -5.1019   18.7398  -32.2184 H   0  0  0  0  0  0  0  0  0  0  0  0
   -3.9829   20.1550  -30.5566 H   0  0  0  0  0  0  0  0  0  0  0  0
   -0.9336   23.1618  -28.9948 H   0  0  0  0  0  0  0  0  0  0  0  0
   -0.4288   26.1328  -28.9621 H   0  0  0  0  0  0  0  0  0  0  0  0
    0.6180   27.4545  -27.1843 H   0  0  0  0  0  0  0  0  0  0  0  0
   -0.2737   27.4285  -24.8656 H   0  0  0  0  0  0  0  0  0  0  0  0
   -2.2682   26.0113  -24.3926 H   0  0  0  0  0  0  0  0  0  0  0  0
   -3.3257   24.6684  -26.1883 H   0  0  0  0  0  0  0  0  0  0  0  0
   -4.3740   25.5790  -28.8900 H   0  0  0  0  0  0  0  0  0  0  0  0
   -6.9063   24.4265  -33.0685 H   0  0  0  0  0  0  0  0  0  0  0  0
   -5.4223   23.4196  -32.9122 H   0  0  0  0  0  0  0  0  0  0  0  0
   -8.7309   23.6703  -31.2447 H   0  0  0  0  0  0  0  0  0  0  0  0
  -10.2032   21.6695  -30.8854 H   0  0  0  0  0  0  0  0  0  0  0  0
   -9.4674   19.4387  -31.6863 H   0  0  0  0  0  0  0  0  0  0  0  0
   -7.2893   19.1791  -32.8389 H   0  0  0  0  0  0  0  0  0  0  0  0
   -5.8166   21.1417  -33.2050 H   0  0  0  0  0  0  0  0  0  0  0  0
   -1.1007   21.4323  -33.4954 H   0  0  0  0  0  0  0  0  0  0  0  0
   -2.2512   19.9908  -35.1514 H   0  0  0  0  0  0  0  0  0  0  0  0
  1  2  1  0
  2  3  1  0
  3  4  2  0
  4  5  1  0
  5  6  2  0
  6  7  1  0
  7  8  2  0
  8  9  1  0
  9 10  2  0
 10 11  1  0
 11 12  2  0
 12 13  1  0
 13 14  2  0
 14 15  1  0
 15 16  2  0
 10 17  1  0
 17 18  1  0
 18 19  1  0
 19 20  1  0
 20 21  1  0
 21 22  2  0
 22 23  1  0
 23 24  2  0
 24 25  1  0
 25 26  2  0
 18 27  2  0
  6 28  1  0
 28 29  2  0
 29  3  1  0
 27  8  1  0
 16 11  1  0
 26 21  1  0
  1 30  1  0
  1 31  1  0
  1 32  1  0
  4 33  1  0
  5 34  1  0
  9 35  1  0
 12 36  1  0
 13 37  1  0
 14 38  1  0
 15 39  1  0
 16 40  1  0
 17 41  1  0
 20 42  1  0
 20 43  1  0
 22 44  1  0
 23 45  1  0
 24 46  1  0
 25 47  1  0
 26 48  1  0
 28 49  1  0
 29 50  1  0
M  END
>  <smiles>  (43) 
COc1ccc(N=c2cc(-c3ccccc3)[nH]c(SCc3ccccc3)n2)cc1

>  <score_type>  (43) 
oracle

>  <origin>  (43) 
adgpu

>  <m_score__min__energy>  (43) 
-9.3699999999999992

>  <m_primary>  (43) 
energy

$$$$
43:0
     RDKit          3D

 33 35  0  0  0  0  0  0  0  0999 V2000
  -10.4745   21.1293  -31.9388 H   0  0  0  0  0  0  0  0  0  0  0  0
   -9.3770   21.0730  -31.9870 C   0  0  0  0  0  0  0  0  0  0  0  0
   -8.7790   20.0420  -32.6380 N   0  0  0  0  0  0  0  0  0  0  0  0
   -7.4260   19.9400  -32.7190 C   0  0  0  0  0  0  0  0  0  0  0  0
   -6.9707   19.0942  -33.2550 H   0  0  0  0  0  0  0  0  0  0  0  0
   -6.6120   20.9070  -32.1230 C   0  0  0  0  0  0  0  0  0  0  0  0
   -5.5172   20.8267  -32.1937 H   0  0  0  0  0  0  0  0  0  0  0  0
   -7.1980   21.9840  -31.4320 C   0  0  0  0  0  0  0  0  0  0  0  0
   -6.3710   23.0390  -30.7900 C   0  0  0  0  0  0  0  0  0  0  0  0
   -5.4340   22.6820  -29.8700 N   0  0  0  0  0  0  0  0  0  0  0  0
   -4.6390   23.5980  -29.2560 C   0  0  0  0  0  0  0  0  0  0  0  0
   -3.7720   23.1800  -28.3760 N   0  0  0  0  0  0  0  0  0  0  0  0
   -2.7790   23.9600  -27.6960 C   0  0  0  0  0  0  0  0  0  0  0  0
   -1.4690   23.9780  -28.1890 C   0  0  0  0  0  0  0  0  0  0  0  0
   -1.2043   23.3631  -29.0619 H   0  0  0  0  0  0  0  0  0  0  0  0
   -0.4960   24.7730  -27.5780 C   0  0  0  0  0  0  0  0  0  0  0  0
    0.5359   24.7675  -27.9590 H   0  0  0  0  0  0  0  0  0  0  0  0
   -0.8310   25.5750  -26.4840 C   0  0  0  0  0  0  0  0  0  0  0  0
   -0.0600   26.1922  -25.9996 H   0  0  0  0  0  0  0  0  0  0  0  0
   -2.1480   25.5950  -26.0020 C   0  0  0  0  0  0  0  0  0  0  0  0
   -2.4980   26.4320  -24.8970 N   0  0  0  0  0  0  0  0  0  0  0  0
   -1.8030   27.0960  -24.4890 H   0  0  0  0  0  0  0  0  0  0  0  0
   -3.4540   26.3920  -24.4770 H   0  0  0  0  0  0  0  0  0  0  0  0
   -3.1230   24.7950  -26.6180 C   0  0  0  0  0  0  0  0  0  0  0  0
   -4.1613   24.8213  -26.2558 H   0  0  0  0  0  0  0  0  0  0  0  0
   -4.7970   24.9250  -29.5470 N   0  0  0  0  0  0  0  0  0  0  0  0
   -4.2510   25.6650  -29.0540 H   0  0  0  0  0  0  0  0  0  0  0  0
   -5.7090   25.3290  -30.4700 C   0  0  0  0  0  0  0  0  0  0  0  0
   -5.8129   26.3984  -30.7057 H   0  0  0  0  0  0  0  0  0  0  0  0
   -6.5130   24.3940  -31.1190 C   0  0  0  0  0  0  0  0  0  0  0  0
   -7.2452   24.7133  -31.8752 H   0  0  0  0  0  0  0  0  0  0  0  0
   -8.6000   22.0630  -31.3780 C   0  0  0  0  0  0  0  0  0  0  0  0
   -9.0851   22.9020  -30.8577 H   0  0  0  0  0  0  0  0  0  0  0  0
  1  2  1  0
  2  3  2  0
  3  4  1  0
  4  5  1  0
  4  6  2  0
  6  7  1  0
  6  8  1  0
  8  9  1  0
  9 10  2  0
 10 11  1  0
 11 12  2  0
 12 13  1  0
 13 14  2  0
 14 15  1  0
 14 16  1  0
 16 17  1  0
 16 18  2  0
 18 19  1  0
 18 20  1  0
 20 21  1  0
 21 22  1  0
 21 23  1  0
 20 24  2  0
 24 25  1  0
 11 26  1  0
 26 27  1  0
 26 28  1  0
 28 29  1  0
 28 30  2  0
 30 31  1  0
  8 32  2  0
 32 33  1  0
 32  2  1  0
 30  9  1  0
 24 13  1  0
M  END
>  <UniqueID>  (44) 
38

>  <SMILES>  (44) 
Nc1cccc(/N=c2/nc(-c3ccncc3)cc[nH]2)c1

>  <Energy>  (44) 
48.93572463247907

>  <Genealogy>  (44) 
Nc1cccc(/N=c2/nc(-c3ccncc3)cc[nH]2)c1 (cis-trans isomerization)
Nc1cccc(/N=c2/nc(-c3ccncc3)cc[nH]2)c1 (3D coordinates assigned)
Nc1cccc(/N=c2/nc(-c3ccncc3)cc[nH]2)c1 (optimized conformer: 48.93572463247907 kcal/mol)

>  <smiles>  (44) 
Nc1cccc(N=c2nc(-c3ccncc3)cc[nH]2)c1

>  <score_type>  (44) 
oracle

>  <origin>  (44) 
adgpu

>  <m_score__min__energy>  (44) 
-7.2999999999999998

>  <m_primary>  (44) 
energy

$$$$
44:0
     RDKit          3D

 33 35  0  0  0  0  0  0  0  0999 V2000
   -5.7790   16.2580  -33.9090 C   0  0  0  0  0  0  0  0  0  0  0  0
   -6.9550   16.6420  -33.2040 O   0  0  0  0  0  0  0  0  0  0  0  0
   -7.2770   17.9630  -32.8620 C   0  0  0  0  0  0  0  0  0  0  0  0
   -8.3480   18.2830  -32.0060 C   0  0  0  0  0  0  0  0  0  0  0  0
   -8.6290   19.6160  -31.6930 C   0  0  0  0  0  0  0  0  0  0  0  0
   -7.8390   20.6500  -32.2210 C   0  0  0  0  0  0  0  0  0  0  0  0
   -8.1380   22.0890  -31.8900 C   0  0  0  0  0  0  0  0  0  0  0  0
   -7.1170   22.9730  -32.4530 N   0  0  0  0  0  0  0  0  0  0  0  0
   -6.0340   23.5500  -31.6980 C   0  0  0  0  0  0  0  0  0  0  0  0
   -6.1170   24.8630  -31.1510 C   0  0  0  0  0  0  0  0  0  0  0  0
   -5.0470   25.4050  -30.4130 C   0  0  0  0  0  0  0  0  0  0  0  0
   -3.9120   24.6190  -30.2450 C   0  0  0  0  0  0  0  0  0  0  0  0
   -2.7830   24.9290  -29.5870 N   0  0  0  0  0  0  0  0  0  0  0  0
   -1.9700   23.8800  -29.6890 N   0  0  0  0  0  0  0  0  0  0  0  0
   -2.5810   22.9090  -30.4090 C   0  0  0  0  0  0  0  0  0  0  0  0
   -3.8230   23.3670  -30.7720 C   0  0  0  0  0  0  0  0  0  0  0  0
   -4.8550   22.7930  -31.5060 C   0  0  0  0  0  0  0  0  0  0  0  0
   -6.7790   20.3300  -33.0830 C   0  0  0  0  0  0  0  0  0  0  0  0
   -6.5000   18.9970  -33.3960 C   0  0  0  0  0  0  0  0  0  0  0  0
   -4.9880   15.9997  -33.1895 H   0  0  0  0  0  0  0  0  0  0  0  0
   -5.9990   15.3850  -34.5411 H   0  0  0  0  0  0  0  0  0  0  0  0
   -5.4414   17.0926  -34.5411 H   0  0  0  0  0  0  0  0  0  0  0  0
   -8.9673   17.4793  -31.5810 H   0  0  0  0  0  0  0  0  0  0  0  0
   -9.4731   19.8562  -31.0298 H   0  0  0  0  0  0  0  0  0  0  0  0
   -9.1192   22.3590  -32.3075 H   0  0  0  0  0  0  0  0  0  0  0  0
   -8.1427   22.2063  -30.7963 H   0  0  0  0  0  0  0  0  0  0  0  0
   -7.1590   23.1550  -33.4820 H   0  0  0  0  0  0  0  0  0  0  0  0
   -7.0274   25.4603  -31.3070 H   0  0  0  0  0  0  0  0  0  0  0  0
   -5.1069   26.4161  -29.9839 H   0  0  0  0  0  0  0  0  0  0  0  0
   -2.1563   21.9256  -30.6590 H   0  0  0  0  0  0  0  0  0  0  0  0
   -4.7573   21.7805  -31.9248 H   0  0  0  0  0  0  0  0  0  0  0  0
   -6.1640   21.1333  -33.5149 H   0  0  0  0  0  0  0  0  0  0  0  0
   -5.6624   18.7585  -34.0679 H   0  0  0  0  0  0  0  0  0  0  0  0
  1  2  1  0
  2  3  1  0
  3  4  2  0
  4  5  1  0
  5  6  2  0
  6  7  1  0
  7  8  1  0
  8  9  1  0
  9 10  2  0
 10 11  1  0
 11 12  2  0
 12 13  1  0
 13 14  1  0
 14 15  2  0
 15 16  1  0
 16 17  2  0
  6 18  1  0
 18 19  2  0
 19  3  1  0
 17  9  1  0
 16 12  1  0
  1 20  1  0
  1 21  1  0
  1 22  1  0
  4 23  1  0
  5 24  1  0
  7 25  1  0
  7 26  1  0
  8 27  1  0
 10 28  1  0
 11 29  1  0
 15 30  1  0
 17 31  1  0
 18 32  1  0
 19 33  1  0
M  CHG  1  13  -1
M  END
>  <UniqueID>  (45) 
39

>  <SMILES>  (45) 
COc1ccc(CNc2ccc3[n-]ncc3c2)cc1

>  <Energy>  (45) 
71.76535960125747

>  <Genealogy>  (45) 
COc1ccc(CNc2ccc3[n-]ncc3c2)cc1 (protonated)
COc1ccc(CNc2ccc3[n-]ncc3c2)cc1 (3D coordinates assigned)
COc1ccc(CNc2ccc3[n-]ncc3c2)cc1 (optimized conformer: 71.76535960125747 kcal/mol)

>  <smiles>  (45) 
COc1ccc(CNc2ccc3[nH]ncc3c2)cc1

>  <score_type>  (45) 
oracle

>  <origin>  (45) 
adgpu

>  <m_score__min__energy>  (45) 
-9.3200000000000003

>  <m_primary>  (45) 
energy

$$$$
45:0
     RDKit          3D

 27 29  0  0  0  0  0  0  0  0999 V2000
   -6.4010   16.9540  -33.7710 C   0  0  0  0  0  0  0  0  0  0  0  0
   -5.7850   17.9690  -34.5080 C   0  0  0  0  0  0  0  0  0  0  0  0
   -5.9780   19.3080  -34.1560 C   0  0  0  0  0  0  0  0  0  0  0  0
   -6.7930   19.6450  -33.0590 C   0  0  0  0  0  0  0  0  0  0  0  0
   -6.9980   21.0650  -32.6780 C   0  0  0  0  0  0  0  0  0  0  0  0
   -8.1420   21.4560  -32.1830 N   0  0  0  0  0  0  0  0  0  0  0  0
   -8.5260   23.1730  -31.9600 S   0  0  0  0  0  0  0  0  0  0  0  0
   -6.9620   23.5480  -31.1760 C   0  0  0  0  0  0  0  0  0  0  0  0
   -6.8930   24.4360  -30.0970 C   0  0  0  0  0  0  0  0  0  0  0  0
   -5.6470   24.8240  -29.5950 C   0  0  0  0  0  0  0  0  0  0  0  0
   -4.4720   24.3290  -30.1730 C   0  0  0  0  0  0  0  0  0  0  0  0
   -4.5420   23.4250  -31.2390 C   0  0  0  0  0  0  0  0  0  0  0  0
   -5.7910   23.0210  -31.7330 C   0  0  0  0  0  0  0  0  0  0  0  0
   -5.8850   21.9790  -32.7140 N   0  0  0  0  0  0  0  0  0  0  0  0
   -7.4060   18.6150  -32.3230 C   0  0  0  0  0  0  0  0  0  0  0  0
   -7.2100   17.2770  -32.6800 C   0  0  0  0  0  0  0  0  0  0  0  0
   -6.2485   15.9010  -34.0503 H   0  0  0  0  0  0  0  0  0  0  0  0
   -5.1469   17.7138  -35.3669 H   0  0  0  0  0  0  0  0  0  0  0  0
   -5.4902   20.1027  -34.7395 H   0  0  0  0  0  0  0  0  0  0  0  0
   -8.8950   20.7670  -31.9620 H   0  0  0  0  0  0  0  0  0  0  0  0
   -7.8162   24.8277  -29.6450 H   0  0  0  0  0  0  0  0  0  0  0  0
   -5.5900   25.5193  -28.7445 H   0  0  0  0  0  0  0  0  0  0  0  0
   -3.4928   24.6509  -29.7889 H   0  0  0  0  0  0  0  0  0  0  0  0
   -3.6185   23.0317  -31.6890 H   0  0  0  0  0  0  0  0  0  0  0  0
   -5.0360   21.7300  -33.2710 H   0  0  0  0  0  0  0  0  0  0  0  0
   -8.0433   18.8633  -31.4615 H   0  0  0  0  0  0  0  0  0  0  0  0
   -7.6942   16.4776  -32.1000 H   0  0  0  0  0  0  0  0  0  0  0  0
  1  2  2  0
  2  3  1  0
  3  4  2  0
  4  5  1  0
  5  6  2  0
  6  7  1  0
  7  8  1  0
  8  9  2  0
  9 10  1  0
 10 11  2  0
 11 12  1  0
 12 13  2  0
 13 14  1  0
  4 15  1  0
 15 16  2  0
 16  1  1  0
 14  5  1  0
 13  8  1  0
  1 17  1  0
  2 18  1  0
  3 19  1  0
  6 20  1  0
  9 21  1  0
 10 22  1  0
 11 23  1  0
 12 24  1  0
 14 25  1  0
 15 26  1  0
 16 27  1  0
M  CHG  1   6   1
M  END
>  <UniqueID>  (46) 
40

>  <SMILES>  (46) 
c1ccc(C2=[NH+]Sc3ccccc3N2)cc1

>  <Energy>  (46) 
46.582697386807595

>  <Genealogy>  (46) 
c1ccc(C2=[NH+]Sc3ccccc3N2)cc1 (protonated)
c1ccc(C2=[NH+]Sc3ccccc3N2)cc1 (3D coordinates assigned)
c1ccc(C2=[NH+]Sc3ccccc3N2)cc1 (nonaromatic ring conformer: 46.582697386807595 kcal/mol)

>  <smiles>  (46) 
c1ccc(C2=NSc3ccccc3N2)cc1

>  <score_type>  (46) 
oracle

>  <origin>  (46) 
adgpu

>  <m_score__min__energy>  (46) 
-6.6699999999999999

>  <m_primary>  (46) 
energy

$$$$
46:0
     RDKit          3D

 24 24  0  0  0  0  0  0  0  0999 V2000
   -8.3120   21.6540  -31.7360 C   0  0  0  0  0  0  0  0  0  0  0  0
   -7.7830   22.7430  -30.8080 C   0  0  0  0  0  0  0  0  0  0  0  0
   -6.2820   22.8810  -30.9370 C   0  0  0  0  0  0  0  0  0  0  0  0
   -5.5500   21.7690  -31.3860 C   0  0  0  0  0  0  0  0  0  0  0  0
   -4.1570   21.8260  -31.5080 C   0  0  0  0  0  0  0  0  0  0  0  0
   -3.3950   20.6430  -32.0310 C   0  0  0  0  0  0  0  0  0  0  0  0
   -3.4880   23.0170  -31.2080 C   0  0  0  0  0  0  0  0  0  0  0  0
   -4.1940   24.1310  -30.7470 C   0  0  0  0  0  0  0  0  0  0  0  0
   -3.4890   25.2960  -30.4600 O   0  0  0  0  0  0  0  0  0  0  0  0
   -5.5940   24.0730  -30.5830 C   0  0  0  0  0  0  0  0  0  0  0  0
   -6.3430   25.2900  -30.0940 C   0  0  0  0  0  0  0  0  0  0  0  0
   -8.7148   20.8247  -31.1360 H   0  0  0  0  0  0  0  0  0  0  0  0
   -9.1092   22.0684  -32.3706 H   0  0  0  0  0  0  0  0  0  0  0  0
   -7.4934   21.2835  -32.3706 H   0  0  0  0  0  0  0  0  0  0  0  0
   -8.2564   23.7007  -31.0702 H   0  0  0  0  0  0  0  0  0  0  0  0
   -8.0224   22.4670  -29.7704 H   0  0  0  0  0  0  0  0  0  0  0  0
   -6.0794   20.8403  -31.6454 H   0  0  0  0  0  0  0  0  0  0  0  0
   -3.0132   20.0503  -31.1866 H   0  0  0  0  0  0  0  0  0  0  0  0
   -4.0618   20.0196  -32.6448 H   0  0  0  0  0  0  0  0  0  0  0  0
   -2.5516   20.9923  -32.6448 H   0  0  0  0  0  0  0  0  0  0  0  0
   -2.3971   23.0771  -31.3360 H   0  0  0  0  0  0  0  0  0  0  0  0
   -6.3488   25.2995  -28.9941 H   0  0  0  0  0  0  0  0  0  0  0  0
   -5.8479   26.1992  -30.4659 H   0  0  0  0  0  0  0  0  0  0  0  0
   -7.3777   25.2577  -30.4659 H   0  0  0  0  0  0  0  0  0  0  0  0
  1  2  1  0
  2  3  1  0
  3  4  2  0
  4  5  1  0
  5  6  1  0
  5  7  2  0
  7  8  1  0
  8  9  1  0
  8 10  2  0
 10 11  1  0
 10  3  1  0
  1 12  1  0
  1 13  1  0
  1 14  1  0
  2 15  1  0
  2 16  1  0
  4 17  1  0
  6 18  1  0
  6 19  1  0
  6 20  1  0
  7 21  1  0
 11 22  1  0
 11 23  1  0
 11 24  1  0
M  CHG  1   9  -1
M  END
>  <UniqueID>  (47) 
41

>  <SMILES>  (47) 
CCc1cc(C)cc([O-])c1C

>  <Energy>  (47) 
20.42751831153155

>  <Genealogy>  (47) 
CCc1cc(C)cc([O-])c1C (protonated)
CCc1cc(C)cc([O-])c1C (3D coordinates assigned)
CCc1cc(C)cc([O-])c1C (optimized conformer: 20.42751831153155 kcal/mol)

>  <smiles>  (47) 
CCc1cc(C)cc(O)c1C

>  <score_type>  (47) 
oracle

>  <origin>  (47) 
adgpu

>  <m_score__min__energy>  (47) 
-8.1799999999999997

>  <m_primary>  (47) 
energy

$$$$
47:0
     RDKit          3D

 34 35  0  0  0  0  0  0  0  0999 V2000
   -8.0330   18.7470  -32.3960 C   0  0  0  0  0  0  0  0  0  0  0  0
   -7.7700   19.9980  -33.0240 O   0  0  0  0  0  0  0  0  0  0  0  0
   -7.1930   21.1060  -32.3820 C   0  0  0  0  0  0  0  0  0  0  0  0
   -5.8090   21.3620  -32.4400 C   0  0  0  0  0  0  0  0  0  0  0  0
   -5.2660   22.4700  -31.7860 C   0  0  0  0  0  0  0  0  0  0  0  0
   -6.0920   23.3370  -31.0630 C   0  0  0  0  0  0  0  0  0  0  0  0
   -5.4090   24.7240  -30.2210 S   0  0  0  0  0  0  0  0  0  0  0  0
   -4.2690   25.3140  -31.0050 O   0  0  0  0  0  0  0  0  0  0  0  0
   -6.4800   25.7640  -30.0560 O   0  0  0  0  0  0  0  0  0  0  0  0
   -4.8310   24.2450  -28.6550 N   0  0  0  0  0  0  0  0  0  0  0  0
   -3.6220   23.4900  -28.4430 C   0  0  0  0  0  0  0  0  0  0  0  0
   -3.6490   22.1930  -27.8920 C   0  0  0  0  0  0  0  0  0  0  0  0
   -2.4600   21.4850  -27.6910 C   0  0  0  0  0  0  0  0  0  0  0  0
   -1.2360   22.0570  -28.0400 C   0  0  0  0  0  0  0  0  0  0  0  0
   -1.1970   23.3380  -28.5940 C   0  0  0  0  0  0  0  0  0  0  0  0
   -2.3810   24.0520  -28.7980 C   0  0  0  0  0  0  0  0  0  0  0  0
   -2.3160   25.2980  -29.3320 F   0  0  0  0  0  0  0  0  0  0  0  0
   -7.4690   23.0950  -31.0070 C   0  0  0  0  0  0  0  0  0  0  0  0
   -8.0250   21.9830  -31.6600 C   0  0  0  0  0  0  0  0  0  0  0  0
   -9.5050   21.7270  -31.5820 C   0  0  0  0  0  0  0  0  0  0  0  0
   -8.0066   18.8724  -31.3035 H   0  0  0  0  0  0  0  0  0  0  0  0
   -9.0267   18.3860  -32.6997 H   0  0  0  0  0  0  0  0  0  0  0  0
   -7.2688   18.0164  -32.6997 H   0  0  0  0  0  0  0  0  0  0  0  0
   -5.1514   20.6844  -33.0044 H   0  0  0  0  0  0  0  0  0  0  0  0
   -4.1842   22.6618  -31.8396 H   0  0  0  0  0  0  0  0  0  0  0  0
   -5.4520   24.4540  -27.8430 H   0  0  0  0  0  0  0  0  0  0  0  0
   -4.6110   21.7350  -27.6185 H   0  0  0  0  0  0  0  0  0  0  0  0
   -2.4896   20.4748  -27.2567 H   0  0  0  0  0  0  0  0  0  0  0  0
   -0.3020   21.4988  -27.8787 H   0  0  0  0  0  0  0  0  0  0  0  0
   -0.2315   23.7866  -28.8707 H   0  0  0  0  0  0  0  0  0  0  0  0
   -8.1212   23.7813  -30.4470 H   0  0  0  0  0  0  0  0  0  0  0  0
   -9.8128   21.6738  -30.5273 H   0  0  0  0  0  0  0  0  0  0  0  0
  -10.0454   22.5450  -32.0808 H   0  0  0  0  0  0  0  0  0  0  0  0
   -9.7392   20.7750  -32.0808 H   0  0  0  0  0  0  0  0  0  0  0  0
  1  2  1  0
  2  3  1  0
  3  4  2  0
  4  5  1  0
  5  6  2  0
  6  7  1  0
  7  8  2  0
  7  9  2  0
  7 10  1  0
 10 11  1  0
 11 12  2  0
 12 13  1  0
 13 14  2  0
 14 15  1  0
 15 16  2  0
 16 17  1  0
  6 18  1  0
 18 19  2  0
 19 20  1  0
 19  3  1  0
 16 11  1  0
  1 21  1  0
  1 22  1  0
  1 23  1  0
  4 24  1  0
  5 25  1  0
 10 26  1  0
 12 27  1  0
 13 28  1  0
 14 29  1  0
 15 30  1  0
 18 31  1  0
 20 32  1  0
 20 33  1  0
 20 34  1  0
M  END
>  <UniqueID>  (48) 
42

>  <SMILES>  (48) 
COc1ccc(S(=O)(=O)Nc2ccccc2F)cc1C

>  <Energy>  (48) 
36.55514976378402

>  <Genealogy>  (48) 
COc1ccc(S(=O)(=O)Nc2ccccc2F)cc1C (3D coordinates assigned)
COc1ccc(S(=O)(=O)Nc2ccccc2F)cc1C (optimized conformer: 36.55514976378402 kcal/mol)

>  <smiles>  (48) 
COc1ccc(S(=O)(=O)Nc2ccccc2F)cc1C

>  <score_type>  (48) 
oracle

>  <origin>  (48) 
adgpu

>  <m_score__min__energy>  (48) 
-8.3800000000000008

>  <m_primary>  (48) 
energy

$$$$
48:0
     RDKit          3D

 41 43  0  0  0  0  0  0  0  0999 V2000
    0.1163   26.1200  -27.8367 H   0  0  0  0  0  0  0  0  0  0  0  0
   -0.5440   25.3100  -28.1800 C   0  0  0  0  0  0  0  0  0  0  0  0
   -1.6460   25.6010  -28.9170 N   0  0  0  0  0  0  0  0  0  0  0  0
   -2.4780   24.6200  -29.3510 C   0  0  0  0  0  0  0  0  0  0  0  0
   -3.5070   24.9370  -30.0820 N   0  0  0  0  0  0  0  0  0  0  0  0
   -4.5120   24.0430  -30.5900 C   0  0  0  0  0  0  0  0  0  0  0  0
   -5.8580   24.3250  -30.3250 C   0  0  0  0  0  0  0  0  0  0  0  0
   -6.1238   25.2279  -29.7558 H   0  0  0  0  0  0  0  0  0  0  0  0
   -6.8660   23.4700  -30.7770 C   0  0  0  0  0  0  0  0  0  0  0  0
   -7.9207   23.7168  -30.5853 H   0  0  0  0  0  0  0  0  0  0  0  0
   -6.5380   22.2970  -31.4750 C   0  0  0  0  0  0  0  0  0  0  0  0
   -7.6200   21.3990  -31.9960 C   0  0  0  0  0  0  0  0  0  0  0  0
   -8.1618   20.9493  -31.1509 H   0  0  0  0  0  0  0  0  0  0  0  0
   -8.3195   21.9856  -32.6096 H   0  0  0  0  0  0  0  0  0  0  0  0
   -7.1723   20.6034  -32.6096 H   0  0  0  0  0  0  0  0  0  0  0  0
   -5.1900   22.0030  -31.7300 C   0  0  0  0  0  0  0  0  0  0  0  0
   -4.9246   21.0938  -32.2895 H   0  0  0  0  0  0  0  0  0  0  0  0
   -4.1830   22.8590  -31.2770 C   0  0  0  0  0  0  0  0  0  0  0  0
   -3.1278   22.6066  -31.4580 H   0  0  0  0  0  0  0  0  0  0  0  0
   -2.1970   23.3210  -29.0520 N   0  0  0  0  0  0  0  0  0  0  0  0
   -1.1140   22.9750  -28.3060 C   0  0  0  0  0  0  0  0  0  0  0  0
   -0.8750   21.5410  -28.0140 C   0  0  0  0  0  0  0  0  0  0  0  0
    0.0950   20.8320  -28.7330 C   0  0  0  0  0  0  0  0  0  0  0  0
    0.6899   21.3467  -29.5019 H   0  0  0  0  0  0  0  0  0  0  0  0
    0.3120   19.4780  -28.4810 C   0  0  0  0  0  0  0  0  0  0  0  0
    1.0839   18.9282  -29.0395 H   0  0  0  0  0  0  0  0  0  0  0  0
   -0.4630   18.8180  -27.5070 C   0  0  0  0  0  0  0  0  0  0  0  0
   -0.3050   17.5520  -27.2270 N   0  0  0  0  0  0  0  0  0  0  0  0
    0.6320   16.6120  -27.8430 C   0  0  0  0  0  0  0  0  0  0  0  0
    1.3014   17.1621  -28.5207 H   0  0  0  0  0  0  0  0  0  0  0  0
    0.0583   15.8570  -28.4006 H   0  0  0  0  0  0  0  0  0  0  0  0
    1.4680   15.9040  -26.7800 C   0  0  0  0  0  0  0  0  0  0  0  0
    1.1177   16.2007  -25.7804 H   0  0  0  0  0  0  0  0  0  0  0  0
    1.3639   14.8152  -26.8968 H   0  0  0  0  0  0  0  0  0  0  0  0
    2.5248   16.1859  -26.8968 H   0  0  0  0  0  0  0  0  0  0  0  0
   -1.4130   19.5240  -26.8290 N   0  0  0  0  0  0  0  0  0  0  0  0
   -2.0010   19.0400  -26.1120 H   0  0  0  0  0  0  0  0  0  0  0  0
   -1.6370   20.8460  -27.0610 C   0  0  0  0  0  0  0  0  0  0  0  0
   -2.4207   21.3741  -26.4979 H   0  0  0  0  0  0  0  0  0  0  0  0
   -0.2470   23.9860  -27.8570 C   0  0  0  0  0  0  0  0  0  0  0  0
    0.8890   23.7040  -27.1720 F   0  0  0  0  0  0  0  0  0  0  0  0
  1  2  1  0
  2  3  2  0
  3  4  1  0
  4  5  2  0
  5  6  1  0
  6  7  2  0
  7  8  1  0
  7  9  1  0
  9 10  1  0
  9 11  2  0
 11 12  1  0
 12 13  1  0
 12 14  1  0
 12 15  1  0
 11 16  1  0
 16 17  1  0
 16 18  2  0
 18 19  1  0
  4 20  1  0
 20 21  1  0
 21 22  1  0
 22 23  1  0
 23 24  1  0
 23 25  2  0
 25 26  1  0
 25 27  1  0
 27 28  2  0
 28 29  1  0
 29 30  1  0
 29 31  1  0
 29 32  1  0
 32 33  1  0
 32 34  1  0
 32 35  1  0
 27 36  1  0
 36 37  1  0
 36 38  1  0
 38 39  1  0
 21 40  2  0
 40 41  1  0
 40  2  1  0
 18  6  1  0
 38 22  2  0
M  CHG  1  20  -1
M  END
>  <UniqueID>  (49) 
43

>  <SMILES>  (49) 
CC/N=c1\ccc(-c2[n-]/c(=N\c3ccc(C)cc3)ncc2F)c[nH]1

>  <Energy>  (49) 
54.695927296110206

>  <Genealogy>  (49) 
CCN=c1ccc(-c2[n-]c(=Nc3ccc(C)cc3)ncc2F)c[nH]1 (protonated)
CC/N=c1\ccc(-c2[n-]/c(=N\c3ccc(C)cc3)ncc2F)c[nH]1 (cis-trans isomerization)
CC/N=c1\ccc(-c2[n-]/c(=N\c3ccc(C)cc3)ncc2F)c[nH]1 (3D coordinates assigned)
CC/N=c1\ccc(-c2[n-]/c(=N\c3ccc(C)cc3)ncc2F)c[nH]1 (optimized conformer: 54.695927296110206 kcal/mol)

>  <smiles>  (49) 
CCN=c1ccc(-c2[nH]c(=Nc3ccc(C)cc3)ncc2F)c[nH]1

>  <score_type>  (49) 
oracle

>  <origin>  (49) 
adgpu

>  <m_score__min__energy>  (49) 
-8.6500000000000004

>  <m_primary>  (49) 
energy

$$$$
49:0
     RDKit          3D

 29 30  0  0  0  0  0  0  0  0999 V2000
   -3.9690   25.2580  -29.7260 N   0  0  0  0  0  0  0  0  0  0  0  0
   -4.4360   24.2280  -30.6020 C   0  0  0  0  0  0  0  0  0  0  0  0
   -5.7270   24.2890  -31.1330 C   0  0  0  0  0  0  0  0  0  0  0  0
   -6.1870   23.2790  -31.9780 C   0  0  0  0  0  0  0  0  0  0  0  0
   -5.3590   22.1980  -32.3210 C   0  0  0  0  0  0  0  0  0  0  0  0
   -5.8770   21.1420  -33.1500 N   0  0  0  0  0  0  0  0  0  0  0  0
   -6.8630   20.1880  -32.7140 C   0  0  0  0  0  0  0  0  0  0  0  0
   -8.1400   20.6360  -32.3420 C   0  0  0  0  0  0  0  0  0  0  0  0
   -9.1060   19.7290  -31.8950 C   0  0  0  0  0  0  0  0  0  0  0  0
   -8.8000   18.3680  -31.8050 C   0  0  0  0  0  0  0  0  0  0  0  0
   -7.5270   17.9150  -32.1560 C   0  0  0  0  0  0  0  0  0  0  0  0
   -6.5570   18.8180  -32.6030 C   0  0  0  0  0  0  0  0  0  0  0  0
   -4.0440   22.1310  -31.7960 C   0  0  0  0  0  0  0  0  0  0  0  0
   -3.1280   20.9710  -32.1320 C   0  0  0  0  0  0  0  0  0  0  0  0
   -2.9400   20.8510  -33.4980 F   0  0  0  0  0  0  0  0  0  0  0  0
   -1.8970   21.1700  -31.5350 F   0  0  0  0  0  0  0  0  0  0  0  0
   -3.6720   19.7860  -31.6720 F   0  0  0  0  0  0  0  0  0  0  0  0
   -3.6030   23.1480  -30.9270 C   0  0  0  0  0  0  0  0  0  0  0  0
   -3.0190   25.6720  -29.8440 H   0  0  0  0  0  0  0  0  0  0  0  0
   -4.5740   25.6140  -28.9510 H   0  0  0  0  0  0  0  0  0  0  0  0
   -6.3828   25.1363  -30.8838 H   0  0  0  0  0  0  0  0  0  0  0  0
   -7.2096   23.3299  -32.3801 H   0  0  0  0  0  0  0  0  0  0  0  0
   -5.4930   21.0420  -34.1170 H   0  0  0  0  0  0  0  0  0  0  0  0
   -8.3825   21.7072  -32.4024 H   0  0  0  0  0  0  0  0  0  0  0  0
  -10.1075   20.0868  -31.6140 H   0  0  0  0  0  0  0  0  0  0  0  0
   -9.5618   17.6544  -31.4578 H   0  0  0  0  0  0  0  0  0  0  0  0
   -7.2861   16.8444  -32.0808 H   0  0  0  0  0  0  0  0  0  0  0  0
   -5.5524   18.4570  -32.8686 H   0  0  0  0  0  0  0  0  0  0  0  0
   -2.5917   23.0942  -30.4976 H   0  0  0  0  0  0  0  0  0  0  0  0
  1  2  1  0
  2  3  2  0
  3  4  1  0
  4  5  2  0
  5  6  1  0
  6  7  1  0
  7  8  2  0
  8  9  1  0
  9 10  2  0
 10 11  1  0
 11 12  2  0
  5 13  1  0
 13 14  1  0
 14 15  1  0
 14 16  1  0
 14 17  1  0
 13 18  2  0
 18  2  1  0
 12  7  1  0
  1 19  1  0
  1 20  1  0
  3 21  1  0
  4 22  1  0
  6 23  1  0
  8 24  1  0
  9 25  1  0
 10 26  1  0
 11 27  1  0
 12 28  1  0
 18 29  1  0
M  END
>  <UniqueID>  (50) 
44

>  <SMILES>  (50) 
Nc1ccc(Nc2ccccc2)c(C(F)(F)F)c1

>  <Energy>  (50) 
36.50535936065439

>  <Genealogy>  (50) 
Nc1ccc(Nc2ccccc2)c(C(F)(F)F)c1 (3D coordinates assigned)
Nc1ccc(Nc2ccccc2)c(C(F)(F)F)c1 (optimized conformer: 36.50535936065439 kcal/mol)

>  <smiles>  (50) 
Nc1ccc(Nc2ccccc2)c(C(F)(F)F)c1

>  <score_type>  (50) 
oracle

>  <origin>  (50) 
adgpu

>  <m_score__min__energy>  (50) 
-6.8600000000000003

>  <m_primary>  (50) 
energy

$$$$
