0:0
     RDKit          3D

 34 36  0  0  0  0  0  0  0  0999 V2000
   -4.1510   24.0850  -28.1240 C   0  0  0  0  0  0  0  0  0  0  0  0
   -3.3400   24.1620  -29.7040 S   0  0  0  0  0  0  0  0  0  0  0  0
   -3.8790   25.3240  -30.4900 O   0  0  0  0  0  0  0  0  0  0  0  0
   -1.8640   24.3550  -29.5040 O   0  0  0  0  0  0  0  0  0  0  0  0
   -3.6310   22.6640  -30.5820 C   0  0  0  0  0  0  0  0  0  0  0  0
   -3.8930   22.6870  -31.9560 C   0  0  0  0  0  0  0  0  0  0  0  0
   -4.1090   21.4920  -32.6450 C   0  0  0  0  0  0  0  0  0  0  0  0
   -4.0700   20.2750  -31.9470 C   0  0  0  0  0  0  0  0  0  0  0  0
   -4.2790   19.0230  -32.6230 N   0  0  0  0  0  0  0  0  0  0  0  0
   -3.3020   18.2160  -33.0870 C   0  0  0  0  0  0  0  0  0  0  0  0
   -3.7800   17.1220  -33.7140 N   0  0  0  0  0  0  0  0  0  0  0  0
   -5.1190   17.2510  -33.6350 C   0  0  0  0  0  0  0  0  0  0  0  0
   -6.2400   16.0340  -34.2200 Cl  0  0  0  0  0  0  0  0  0  0  0  0
   -5.4370   18.4140  -32.9610 C   0  0  0  0  0  0  0  0  0  0  0  0
   -6.7930   18.8430  -32.5550 C   0  0  0  0  0  0  0  0  0  0  0  0
   -7.7840   17.8890  -32.2750 C   0  0  0  0  0  0  0  0  0  0  0  0
   -9.0670   18.2970  -31.8980 C   0  0  0  0  0  0  0  0  0  0  0  0
   -9.3700   19.6580  -31.7960 C   0  0  0  0  0  0  0  0  0  0  0  0
   -8.3870   20.6140  -32.0690 C   0  0  0  0  0  0  0  0  0  0  0  0
   -8.7660   22.3230  -31.9420 Cl  0  0  0  0  0  0  0  0  0  0  0  0
   -7.1010   20.2090  -32.4430 C   0  0  0  0  0  0  0  0  0  0  0  0
   -3.7850   20.2780  -30.6150 N   0  0  0  0  0  0  0  0  0  0  0  0
   -3.5690   21.4290  -29.9260 C   0  0  0  0  0  0  0  0  0  0  0  0
   -3.4006   24.1562  -27.3228 H   0  0  0  0  0  0  0  0  0  0  0  0
   -4.8620   24.9197  -28.0357 H   0  0  0  0  0  0  0  0  0  0  0  0
   -4.6922   23.1314  -28.0357 H   0  0  0  0  0  0  0  0  0  0  0  0
   -3.9288   23.6462  -32.4933 H   0  0  0  0  0  0  0  0  0  0  0  0
   -4.3082   21.5043  -33.7267 H   0  0  0  0  0  0  0  0  0  0  0  0
   -2.2294   18.4281  -32.9665 H   0  0  0  0  0  0  0  0  0  0  0  0
   -7.5503   16.8169  -32.3525 H   0  0  0  0  0  0  0  0  0  0  0  0
   -9.8401   17.5452  -31.6811 H   0  0  0  0  0  0  0  0  0  0  0  0
  -10.3808   19.9764  -31.5012 H   0  0  0  0  0  0  0  0  0  0  0  0
   -6.3278   20.9635  -32.6502 H   0  0  0  0  0  0  0  0  0  0  0  0
   -3.3448   21.3902  -28.8498 H   0  0  0  0  0  0  0  0  0  0  0  0
  1  2  1  0
  2  3  2  0
  2  4  2  0
  2  5  1  0
  5  6  2  0
  6  7  1  0
  7  8  2  0
  8  9  1  0
  9 10  1  0
 10 11  2  0
 11 12  1  0
 12 13  1  0
 12 14  2  0
 14 15  1  0
 15 16  2  0
 16 17  1  0
 17 18  2  0
 18 19  1  0
 19 20  1  0
 19 21  2  0
  8 22  1  0
 22 23  2  0
 23  5  1  0
 14  9  1  0
 21 15  1  0
  1 24  1  0
  1 25  1  0
  1 26  1  0
  6 27  1  0
  7 28  1  0
 10 29  1  0
 16 30  1  0
 17 31  1  0
 18 32  1  0
 21 33  1  0
 23 34  1  0
M  END
>  <UniqueID>  (1) 
1

>  <SMILES>  (1) 
CS(=O)(=O)c1ccc(-n2cnc(Cl)c2-c2cccc(Cl)c2)nc1

>  <Energy>  (1) 
73.6472581266001

>  <Genealogy>  (1) 
CS(=O)(=O)c1ccc(-n2cnc(Cl)c2-c2cccc(Cl)c2)nc1 (3D coordinates assigned)
CS(=O)(=O)c1ccc(-n2cnc(Cl)c2-c2cccc(Cl)c2)nc1 (optimized conformer: 73.6472581266001 kcal/mol)

>  <smiles>  (1) 
CS(=O)(=O)c1ccc(-n2cnc(Cl)c2-c2cccc(Cl)c2)nc1

>  <score_type>  (1) 
oracle

>  <origin>  (1) 
adgpu

>  <m_score__min__energy>  (1) 
-9.0899999999999999

>  <m_primary>  (1) 
energy

$$$$
1:0
     RDKit          3D

 43 46  0  0  0  0  0  0  0  0999 V2000
   -9.3610   22.1130  -31.9410 C   0  0  0  0  0  0  0  0  0  0  0  0
   -7.9150   21.9130  -31.9360 N   0  0  0  0  0  0  0  0  0  0  0  0
   -7.2420   20.9130  -32.5560 C   0  0  0  0  0  0  0  0  0  0  0  0
   -5.8710   21.0920  -32.4040 C   0  0  0  0  0  0  0  0  0  0  0  0
   -4.7920   20.3210  -33.1030 C   0  0  0  0  0  0  0  0  0  0  0  0
   -5.1820   18.8790  -33.1970 C   0  0  0  0  0  0  0  0  0  0  0  0
   -4.9930   17.9890  -32.2550 O   0  0  0  0  0  0  0  0  0  0  0  0
   -5.4110   16.8400  -32.7410 C   0  0  0  0  0  0  0  0  0  0  0  0
   -5.3640   15.7640  -32.0910 O   0  0  0  0  0  0  0  0  0  0  0  0
   -5.8920   16.9200  -34.0000 N   0  0  0  0  0  0  0  0  0  0  0  0
   -5.7410   18.2290  -34.2750 C   0  0  0  0  0  0  0  0  0  0  0  0
   -6.1130   18.8190  -35.4770 O   0  0  0  0  0  0  0  0  0  0  0  0
   -5.7210   22.2600  -31.6770 C   0  0  0  0  0  0  0  0  0  0  0  0
   -4.5760   22.9780  -31.3320 C   0  0  0  0  0  0  0  0  0  0  0  0
   -4.7390   24.2390  -30.7310 C   0  0  0  0  0  0  0  0  0  0  0  0
   -3.5790   25.0350  -30.4690 N   0  0  0  0  0  0  0  0  0  0  0  0
   -2.4630   24.6550  -29.1980 S   0  0  0  0  0  0  0  0  0  0  0  0
   -1.2570   25.5520  -29.2890 O   0  0  0  0  0  0  0  0  0  0  0  0
   -3.1280   24.8640  -27.8660 O   0  0  0  0  0  0  0  0  0  0  0  0
   -2.0150   22.9580  -29.3530 C   0  0  0  0  0  0  0  0  0  0  0  0
   -1.2530   22.5110  -30.4450 C   0  0  0  0  0  0  0  0  0  0  0  0
   -1.0000   21.1450  -30.6150 C   0  0  0  0  0  0  0  0  0  0  0  0
   -1.5080   20.2210  -29.6970 C   0  0  0  0  0  0  0  0  0  0  0  0
   -2.2640   20.6620  -28.6040 C   0  0  0  0  0  0  0  0  0  0  0  0
   -2.5190   22.0270  -28.4340 C   0  0  0  0  0  0  0  0  0  0  0  0
   -6.0440   24.7280  -30.4570 C   0  0  0  0  0  0  0  0  0  0  0  0
   -7.1800   23.9730  -30.7990 C   0  0  0  0  0  0  0  0  0  0  0  0
   -6.9820   22.7360  -31.4170 C   0  0  0  0  0  0  0  0  0  0  0  0
   -9.7277   22.1637  -30.9052 H   0  0  0  0  0  0  0  0  0  0  0  0
   -9.5994   23.0527  -32.4608 H   0  0  0  0  0  0  0  0  0  0  0  0
   -9.8455   21.2733  -32.4608 H   0  0  0  0  0  0  0  0  0  0  0  0
   -7.7119   20.0806  -33.1004 H   0  0  0  0  0  0  0  0  0  0  0  0
   -4.6490   20.7278  -34.1150 H   0  0  0  0  0  0  0  0  0  0  0  0
   -3.8548   20.4084  -32.5337 H   0  0  0  0  0  0  0  0  0  0  0  0
   -6.9340   19.4100  -35.5310 H   0  0  0  0  0  0  0  0  0  0  0  0
   -3.5731   22.5692  -31.5247 H   0  0  0  0  0  0  0  0  0  0  0  0
   -0.8539   23.2368  -31.1688 H   0  0  0  0  0  0  0  0  0  0  0  0
   -0.4017   20.7985  -31.4706 H   0  0  0  0  0  0  0  0  0  0  0  0
   -1.3137   19.1469  -29.8334 H   0  0  0  0  0  0  0  0  0  0  0  0
   -2.6576   19.9348  -27.8786 H   0  0  0  0  0  0  0  0  0  0  0  0
   -3.1166   22.3707  -27.5769 H   0  0  0  0  0  0  0  0  0  0  0  0
   -6.1674   25.7076  -29.9722 H   0  0  0  0  0  0  0  0  0  0  0  0
   -8.1931   24.3450  -30.5865 H   0  0  0  0  0  0  0  0  0  0  0  0
  1  2  1  0
  2  3  1  0
  3  4  2  0
  4  5  1  0
  5  6  1  0
  6  7  1  0
  7  8  1  0
  8  9  2  0
  8 10  1  0
 10 11  1  0
 11 12  1  0
  4 13  1  0
 13 14  2  0
 14 15  1  0
 15 16  1  0
 16 17  1  0
 17 18  2  0
 17 19  2  0
 17 20  1  0
 20 21  2  0
 21 22  1  0
 22 23  2  0
 23 24  1  0
 24 25  2  0
 15 26  2  0
 26 27  1  0
 27 28  2  0
 28  2  1  0
 11  6  2  0
 28 13  1  0
 25 20  1  0
  1 29  1  0
  1 30  1  0
  1 31  1  0
  3 32  1  0
  5 33  1  0
  5 34  1  0
 12 35  1  0
 14 36  1  0
 21 37  1  0
 22 38  1  0
 23 39  1  0
 24 40  1  0
 25 41  1  0
 26 42  1  0
 27 43  1  0
M  CHG  2  10  -1  16  -1
M  END
>  <UniqueID>  (2) 
2

>  <SMILES>  (2) 
Cn1cc(Cc2oc(=O)[n-]c2O)c2cc([N-]S(=O)(=O)c3ccccc3)ccc21

>  <Energy>  (2) 
113.85017081573162

>  <Genealogy>  (2) 
Cn1cc(Cc2oc(=O)[n-]c2O)c2cc([N-]S(=O)(=O)c3ccccc3)ccc21 (protonated)
Cn1cc(Cc2oc(=O)[n-]c2O)c2cc([N-]S(=O)(=O)c3ccccc3)ccc21 (3D coordinates assigned)
Cn1cc(Cc2oc(=O)[n-]c2O)c2cc([N-]S(=O)(=O)c3ccccc3)ccc21 (optimized conformer: 113.85017081573162 kcal/mol)

>  <smiles>  (2) 
Cn1cc(Cc2oc(=O)[nH]c2O)c2cc(NS(=O)(=O)c3ccccc3)ccc21

>  <score_type>  (2) 
oracle

>  <origin>  (2) 
adgpu

>  <m_score__min__energy>  (2) 
-11.050000000000001

>  <m_primary>  (2) 
energy

$$$$
2:0
     RDKit          3D

 35 36  0  0  0  0  0  0  0  0999 V2000
   -2.2530   19.8850  -26.8010 C   0  0  0  0  0  0  0  0  0  0  0  0
   -1.7820   21.2180  -26.9760 O   0  0  0  0  0  0  0  0  0  0  0  0
   -2.2590   22.1040  -27.9540 C   0  0  0  0  0  0  0  0  0  0  0  0
   -3.1470   21.6140  -28.9170 C   0  0  0  0  0  0  0  0  0  0  0  0
   -3.6420   22.4490  -29.9260 C   0  0  0  0  0  0  0  0  0  0  0  0
   -4.5780   21.9220  -30.8790 N   0  0  0  0  0  0  0  0  0  0  0  0
   -4.2510   21.5530  -32.2340 C   0  0  0  0  0  0  0  0  0  0  0  0
   -2.6960   21.5330  -32.7620 S   0  0  0  0  0  0  0  0  0  0  0  0
   -5.2870   21.1870  -33.1560 N   0  0  0  0  0  0  0  0  0  0  0  0
   -6.4800   20.4780  -32.7840 C   0  0  0  0  0  0  0  0  0  0  0  0
   -7.6170   21.1500  -32.3030 C   0  0  0  0  0  0  0  0  0  0  0  0
   -8.7470   20.4260  -31.9230 C   0  0  0  0  0  0  0  0  0  0  0  0
   -8.7280   19.0330  -32.0080 C   0  0  0  0  0  0  0  0  0  0  0  0
   -7.6140   18.3930  -32.4510 N   0  0  0  0  0  0  0  0  0  0  0  0
   -6.5010   19.0770  -32.8300 C   0  0  0  0  0  0  0  0  0  0  0  0
   -3.2790   23.8040  -29.9410 C   0  0  0  0  0  0  0  0  0  0  0  0
   -2.3850   24.3130  -28.9810 C   0  0  0  0  0  0  0  0  0  0  0  0
   -1.9810   25.6570  -28.9680 O   0  0  0  0  0  0  0  0  0  0  0  0
   -1.1440   26.2360  -27.9730 C   0  0  0  0  0  0  0  0  0  0  0  0
   -1.8760   23.4580  -27.9970 C   0  0  0  0  0  0  0  0  0  0  0  0
   -2.3318   19.6620  -25.7267 H   0  0  0  0  0  0  0  0  0  0  0  0
   -3.2423   19.7811  -27.2706 H   0  0  0  0  0  0  0  0  0  0  0  0
   -1.5486   19.1826  -27.2706 H   0  0  0  0  0  0  0  0  0  0  0  0
   -3.4602   20.5601  -28.8813 H   0  0  0  0  0  0  0  0  0  0  0  0
   -5.5540   21.7690  -30.5410 H   0  0  0  0  0  0  0  0  0  0  0  0
   -5.1580   21.4370  -34.1630 H   0  0  0  0  0  0  0  0  0  0  0  0
   -7.6156   22.2473  -32.2262 H   0  0  0  0  0  0  0  0  0  0  0  0
   -9.6446   20.9479  -31.5598 H   0  0  0  0  0  0  0  0  0  0  0  0
   -9.6156   18.4526  -31.7161 H   0  0  0  0  0  0  0  0  0  0  0  0
   -5.6124   18.5277  -33.1745 H   0  0  0  0  0  0  0  0  0  0  0  0
   -3.6960   24.4729  -30.7082 H   0  0  0  0  0  0  0  0  0  0  0  0
   -1.5246   25.9727  -26.9751 H   0  0  0  0  0  0  0  0  0  0  0  0
   -0.1193   25.8527  -28.0875 H   0  0  0  0  0  0  0  0  0  0  0  0
   -1.1412   27.3300  -28.0875 H   0  0  0  0  0  0  0  0  0  0  0  0
   -1.1694   23.8479  -27.2495 H   0  0  0  0  0  0  0  0  0  0  0  0
  1  2  1  0
  2  3  1  0
  3  4  2  0
  4  5  1  0
  5  6  1  0
  6  7  1  0
  7  8  2  0
  7  9  1  0
  9 10  1  0
 10 11  2  0
 11 12  1  0
 12 13  2  0
 13 14  1  0
 14 15  2  0
  5 16  2  0
 16 17  1  0
 17 18  1  0
 18 19  1  0
 17 20  2  0
 20  3  1  0
 15 10  1  0
  1 21  1  0
  1 22  1  0
  1 23  1  0
  4 24  1  0
  6 25  1  0
  9 26  1  0
 11 27  1  0
 12 28  1  0
 13 29  1  0
 15 30  1  0
 16 31  1  0
 19 32  1  0
 19 33  1  0
 19 34  1  0
 20 35  1  0
M  END
>  <UniqueID>  (3) 
3

>  <SMILES>  (3) 
COc1cc(NC(=S)Nc2cccnc2)cc(OC)c1

>  <Energy>  (3) 
45.07176125607406

>  <Genealogy>  (3) 
COc1cc(NC(=S)Nc2cccnc2)cc(OC)c1 (3D coordinates assigned)
COc1cc(NC(=S)Nc2cccnc2)cc(OC)c1 (optimized conformer: 45.07176125607406 kcal/mol)

>  <smiles>  (3) 
COc1cc(NC(=S)Nc2cccnc2)cc(OC)c1

>  <score_type>  (3) 
oracle

>  <origin>  (3) 
adgpu

>  <m_score__min__energy>  (3) 
-6.5300000000000002

>  <m_primary>  (3) 
energy

$$$$
3:0
     RDKit          3D

 41 44  0  0  0  0  0  0  0  0999 V2000
    5.1330   24.4270  -25.0480 O   0  0  0  0  0  0  0  0  0  0  0  0
    3.9310   24.3860  -25.7440 C   0  0  0  0  0  0  0  0  0  0  0  0
    2.7270   24.2220  -25.0510 C   0  0  0  0  0  0  0  0  0  0  0  0
    1.5170   24.1800  -25.7490 C   0  0  0  0  0  0  0  0  0  0  0  0
    1.5010   24.2910  -27.1500 C   0  0  0  0  0  0  0  0  0  0  0  0
    0.2170   24.2650  -27.8850 C   0  0  0  0  0  0  0  0  0  0  0  0
   -0.1270   23.1190  -28.6190 C   0  0  0  0  0  0  0  0  0  0  0  0
   -1.3370   23.0540  -29.3130 C   0  0  0  0  0  0  0  0  0  0  0  0
   -2.2260   24.1380  -29.2910 C   0  0  0  0  0  0  0  0  0  0  0  0
   -3.5040   24.0650  -30.0250 C   0  0  0  0  0  0  0  0  0  0  0  0
   -4.2240   22.9370  -30.1910 N   0  0  0  0  0  0  0  0  0  0  0  0
   -5.2730   23.3880  -30.9100 C   0  0  0  0  0  0  0  0  0  0  0  0
   -6.3860   22.5290  -31.3690 C   0  0  0  0  0  0  0  0  0  0  0  0
   -7.7130   22.8460  -31.0330 C   0  0  0  0  0  0  0  0  0  0  0  0
   -8.7640   22.0310  -31.4600 C   0  0  0  0  0  0  0  0  0  0  0  0
   -8.5040   20.8950  -32.2300 C   0  0  0  0  0  0  0  0  0  0  0  0
   -7.1870   20.5720  -32.5890 C   0  0  0  0  0  0  0  0  0  0  0  0
   -6.9030   19.3300  -33.3880 C   0  0  0  0  0  0  0  0  0  0  0  0
   -6.4270   19.6740  -34.6600 O   0  0  0  0  0  0  0  0  0  0  0  0
   -6.1310   21.3840  -32.1460 C   0  0  0  0  0  0  0  0  0  0  0  0
   -5.1910   24.7100  -31.1620 N   0  0  0  0  0  0  0  0  0  0  0  0
   -4.0850   25.0910  -30.6000 O   0  0  0  0  0  0  0  0  0  0  0  0
   -1.8820   25.2920  -28.5680 C   0  0  0  0  0  0  0  0  0  0  0  0
   -0.6700   25.3630  -27.8700 C   0  0  0  0  0  0  0  0  0  0  0  0
   -0.2730   26.8680  -27.0460 Cl  0  0  0  0  0  0  0  0  0  0  0  0
    2.7150   24.4680  -27.8380 C   0  0  0  0  0  0  0  0  0  0  0  0
    3.9240   24.5100  -27.1370 C   0  0  0  0  0  0  0  0  0  0  0  0
    2.7326   24.1260  -23.9552 H   0  0  0  0  0  0  0  0  0  0  0  0
    0.5721   24.0594  -25.1990 H   0  0  0  0  0  0  0  0  0  0  0  0
    0.5637   22.2634  -28.6478 H   0  0  0  0  0  0  0  0  0  0  0  0
   -1.5942   22.1472  -29.8801 H   0  0  0  0  0  0  0  0  0  0  0  0
   -7.9254   23.7412  -30.4302 H   0  0  0  0  0  0  0  0  0  0  0  0
   -9.7995   22.2846  -31.1891 H   0  0  0  0  0  0  0  0  0  0  0  0
   -9.3346   20.2516  -32.5559 H   0  0  0  0  0  0  0  0  0  0  0  0
   -6.1447   18.7274  -32.8665 H   0  0  0  0  0  0  0  0  0  0  0  0
   -7.8321   18.7510  -33.4958 H   0  0  0  0  0  0  0  0  0  0  0  0
   -7.2160   19.9570  -35.1910 H   0  0  0  0  0  0  0  0  0  0  0  0
   -5.0952   21.1229  -32.4086 H   0  0  0  0  0  0  0  0  0  0  0  0
   -2.5716   26.1488  -28.5498 H   0  0  0  0  0  0  0  0  0  0  0  0
    2.7132   24.5739  -28.9329 H   0  0  0  0  0  0  0  0  0  0  0  0
    4.8707   24.6407  -27.6817 H   0  0  0  0  0  0  0  0  0  0  0  0
  1  2  1  0
  2  3  2  0
  3  4  1  0
  4  5  2  0
  5  6  1  0
  6  7  2  0
  7  8  1  0
  8  9  2  0
  9 10  1  0
 10 11  2  0
 11 12  1  0
 12 13  1  0
 13 14  2  0
 14 15  1  0
 15 16  2  0
 16 17  1  0
 17 18  1  0
 18 19  1  0
 17 20  2  0
 12 21  2  0
 21 22  1  0
  9 23  1  0
 23 24  2  0
 24 25  1  0
  5 26  1  0
 26 27  2  0
 27  2  1  0
 24  6  1  0
 22 10  1  0
 20 13  1  0
  3 28  1  0
  4 29  1  0
  7 30  1  0
  8 31  1  0
 14 32  1  0
 15 33  1  0
 16 34  1  0
 18 35  1  0
 18 36  1  0
 19 37  1  0
 20 38  1  0
 23 39  1  0
 26 40  1  0
 27 41  1  0
M  CHG  1   1  -1
M  END
>  <UniqueID>  (4) 
4

>  <SMILES>  (4) 
[O-]c1ccc(-c2ccc(-c3nc(-c4cccc(CO)c4)no3)cc2Cl)cc1

>  <Energy>  (4) 
86.61706138134008

>  <Genealogy>  (4) 
[O-]c1ccc(-c2ccc(-c3nc(-c4cccc(CO)c4)no3)cc2Cl)cc1 (protonated)
[O-]c1ccc(-c2ccc(-c3nc(-c4cccc(CO)c4)no3)cc2Cl)cc1 (3D coordinates assigned)
[O-]c1ccc(-c2ccc(-c3nc(-c4cccc(CO)c4)no3)cc2Cl)cc1 (optimized conformer: 86.61706138134008 kcal/mol)

>  <smiles>  (4) 
OCc1cccc(-c2noc(-c3ccc(-c4ccc(O)cc4)c(Cl)c3)n2)c1

>  <score_type>  (4) 
oracle

>  <origin>  (4) 
adgpu

>  <m_score__min__energy>  (4) 
-10.08

>  <m_primary>  (4) 
energy

$$$$
4:0
     RDKit          3D

 50 52  0  0  0  0  0  0  0  0999 V2000
   -2.7930   16.8760  -33.6730 C   0  0  0  0  0  0  0  0  0  0  0  0
   -3.7780   17.6670  -34.3260 O   0  0  0  0  0  0  0  0  0  0  0  0
   -4.4600   18.7380  -33.7190 C   0  0  0  0  0  0  0  0  0  0  0  0
   -5.8100   18.6320  -33.3280 C   0  0  0  0  0  0  0  0  0  0  0  0
   -6.4850   19.7400  -32.7970 C   0  0  0  0  0  0  0  0  0  0  0  0
   -5.8260   20.9580  -32.6540 C   0  0  0  0  0  0  0  0  0  0  0  0
   -4.4810   21.0680  -33.0160 C   0  0  0  0  0  0  0  0  0  0  0  0
   -3.7850   19.9600  -33.5180 C   0  0  0  0  0  0  0  0  0  0  0  0
   -2.4000   20.1120  -33.8490 N   0  0  0  0  0  0  0  0  0  0  0  0
   -1.2970   21.0770  -32.9190 S   0  0  0  0  0  0  0  0  0  0  0  0
   -2.0240   22.2800  -32.3870 O   0  0  0  0  0  0  0  0  0  0  0  0
   -0.1780   21.5420  -33.8130 O   0  0  0  0  0  0  0  0  0  0  0  0
   -0.6400   20.1800  -31.5470 C   0  0  0  0  0  0  0  0  0  0  0  0
   -0.5080   18.7880  -31.6220 C   0  0  0  0  0  0  0  0  0  0  0  0
   -0.0050   18.0680  -30.5290 C   0  0  0  0  0  0  0  0  0  0  0  0
    0.3540   18.7330  -29.3510 C   0  0  0  0  0  0  0  0  0  0  0  0
    0.2220   20.1260  -29.2600 C   0  0  0  0  0  0  0  0  0  0  0  0
    0.5680   20.7680  -28.0240 N   0  0  0  0  0  0  0  0  0  0  0  0
   -0.5660   21.6020  -27.0010 S   0  0  0  0  0  0  0  0  0  0  0  0
    0.1940   22.3690  -25.9570 O   0  0  0  0  0  0  0  0  0  0  0  0
   -1.4570   20.6040  -26.3270 O   0  0  0  0  0  0  0  0  0  0  0  0
   -1.5600   22.6890  -27.9700 C   0  0  0  0  0  0  0  0  0  0  0  0
   -2.6330   22.1780  -28.7100 C   0  0  0  0  0  0  0  0  0  0  0  0
   -3.3890   23.0220  -29.5310 C   0  0  0  0  0  0  0  0  0  0  0  0
   -3.0880   24.3920  -29.6090 C   0  0  0  0  0  0  0  0  0  0  0  0
   -3.8170   25.2810  -30.4690 N   0  0  0  0  0  0  0  0  0  0  0  0
   -5.2150   25.1980  -30.7680 C   0  0  0  0  0  0  0  0  0  0  0  0
   -6.2090   25.6870  -29.7700 C   0  0  0  0  0  0  0  0  0  0  0  0
   -5.6140   24.6360  -31.8230 O   0  0  0  0  0  0  0  0  0  0  0  0
   -2.0050   24.8960  -28.8760 C   0  0  0  0  0  0  0  0  0  0  0  0
   -1.2490   24.0530  -28.0530 C   0  0  0  0  0  0  0  0  0  0  0  0
   -0.2650   20.8480  -30.3710 C   0  0  0  0  0  0  0  0  0  0  0  0
   -2.9103   16.9702  -32.5833 H   0  0  0  0  0  0  0  0  0  0  0  0
   -2.9157   15.8227  -33.9653 H   0  0  0  0  0  0  0  0  0  0  0  0
   -1.7910   17.2233  -33.9653 H   0  0  0  0  0  0  0  0  0  0  0  0
   -6.3375   17.6733  -33.4403 H   0  0  0  0  0  0  0  0  0  0  0  0
   -7.5379   19.6468  -32.4926 H   0  0  0  0  0  0  0  0  0  0  0  0
   -6.3631   21.8319  -32.2568 H   0  0  0  0  0  0  0  0  0  0  0  0
   -3.9639   22.0326  -32.9060 H   0  0  0  0  0  0  0  0  0  0  0  0
   -0.7996   18.2580  -32.5407 H   0  0  0  0  0  0  0  0  0  0  0  0
    0.1079   16.9760  -30.5977 H   0  0  0  0  0  0  0  0  0  0  0  0
    0.7407   18.1614  -28.4944 H   0  0  0  0  0  0  0  0  0  0  0  0
   -2.8828   21.1087  -28.6457 H   0  0  0  0  0  0  0  0  0  0  0  0
   -4.2232   22.6107  -30.1183 H   0  0  0  0  0  0  0  0  0  0  0  0
   -5.8306   25.5008  -28.7541 H   0  0  0  0  0  0  0  0  0  0  0  0
   -6.3684   26.7664  -29.9098 H   0  0  0  0  0  0  0  0  0  0  0  0
   -7.1613   25.1546  -29.9098 H   0  0  0  0  0  0  0  0  0  0  0  0
   -1.7469   25.9629  -28.9480 H   0  0  0  0  0  0  0  0  0  0  0  0
   -0.4099   24.4616  -27.4708 H   0  0  0  0  0  0  0  0  0  0  0  0
   -0.3513   21.9432  -30.3146 H   0  0  0  0  0  0  0  0  0  0  0  0
  1  2  1  0
  2  3  1  0
  3  4  2  0
  4  5  1  0
  5  6  2  0
  6  7  1  0
  7  8  2  0
  8  9  1  0
  9 10  1  0
 10 11  2  0
 10 12  2  0
 10 13  1  0
 13 14  2  0
 14 15  1  0
 15 16  2  0
 16 17  1  0
 17 18  1  0
 18 19  1  0
 19 20  2  0
 19 21  2  0
 19 22  1  0
 22 23  2  0
 23 24  1  0
 24 25  2  0
 25 26  1  0
 26 27  1  0
 27 28  1  0
 27 29  2  0
 25 30  1  0
 30 31  2  0
 17 32  2  0
  8  3  1  0
 32 13  1  0
 31 22  1  0
  1 33  1  0
  1 34  1  0
  1 35  1  0
  4 36  1  0
  5 37  1  0
  6 38  1  0
  7 39  1  0
 14 40  1  0
 15 41  1  0
 16 42  1  0
 23 43  1  0
 24 44  1  0
 28 45  1  0
 28 46  1  0
 28 47  1  0
 30 48  1  0
 31 49  1  0
 32 50  1  0
M  CHG  3   9  -1  18  -1  26  -1
M  END
>  <UniqueID>  (5) 
5

>  <SMILES>  (5) 
COc1ccccc1[N-]S(=O)(=O)c1cccc([N-]S(=O)(=O)c2ccc([N-]C(C)=O)cc2)c1

>  <Energy>  (5) 
63.37888415441535

>  <Genealogy>  (5) 
COc1ccccc1[N-]S(=O)(=O)c1cccc([N-]S(=O)(=O)c2ccc([N-]C(C)=O)cc2)c1 (protonated)
COc1ccccc1[N-]S(=O)(=O)c1cccc([N-]S(=O)(=O)c2ccc([N-]C(C)=O)cc2)c1 (3D coordinates assigned)
COc1ccccc1[N-]S(=O)(=O)c1cccc([N-]S(=O)(=O)c2ccc([N-]C(C)=O)cc2)c1 (optimized conformer: 63.37888415441535 kcal/mol)

>  <smiles>  (5) 
COc1ccccc1NS(=O)(=O)c1cccc(NS(=O)(=O)c2ccc(NC(C)=O)cc2)c1

>  <score_type>  (5) 
oracle

>  <origin>  (5) 
adgpu

>  <m_score__min__energy>  (5) 
-12

>  <m_primary>  (5) 
energy

$$$$
5:0
     RDKit          3D

 44 46  0  0  0  0  0  0  0  0999 V2000
   -0.0970   24.2170  -24.5040 C   0  0  0  0  0  0  0  0  0  0  0  0
   -0.8760   25.8400  -24.7700 S   0  0  0  0  0  0  0  0  0  0  0  0
   -1.8910   25.2620  -26.1320 C   0  0  0  0  0  0  0  0  0  0  0  0
   -3.2850   25.2430  -26.0090 C   0  0  0  0  0  0  0  0  0  0  0  0
   -4.0780   24.7910  -27.0690 C   0  0  0  0  0  0  0  0  0  0  0  0
   -3.4810   24.3620  -28.2690 C   0  0  0  0  0  0  0  0  0  0  0  0
   -4.2710   23.8690  -29.3650 N   0  0  0  0  0  0  0  0  0  0  0  0
   -4.5020   24.5900  -30.5840 C   0  0  0  0  0  0  0  0  0  0  0  0
   -3.8650   25.6490  -30.8320 O   0  0  0  0  0  0  0  0  0  0  0  0
   -5.4750   24.0930  -31.5110 N   0  0  0  0  0  0  0  0  0  0  0  0
   -5.8760   22.7250  -31.6830 C   0  0  0  0  0  0  0  0  0  0  0  0
   -4.9710   21.6570  -31.5370 C   0  0  0  0  0  0  0  0  0  0  0  0
   -5.4080   20.3380  -31.6880 C   0  0  0  0  0  0  0  0  0  0  0  0
   -6.7540   20.0680  -31.9690 C   0  0  0  0  0  0  0  0  0  0  0  0
   -7.3190   18.4090  -32.1420 S   0  0  0  0  0  0  0  0  0  0  0  0
   -6.6810   17.5640  -31.0770 O   0  0  0  0  0  0  0  0  0  0  0  0
   -8.8130   18.3370  -31.9920 O   0  0  0  0  0  0  0  0  0  0  0  0
   -6.8760   17.7920  -33.7030 N   0  0  0  0  0  0  0  0  0  0  0  0
   -5.6520   17.6780  -34.1240 C   0  0  0  0  0  0  0  0  0  0  0  0
   -4.5030   18.0190  -33.4340 C   0  0  0  0  0  0  0  0  0  0  0  0
   -3.5040   17.6890  -34.3250 C   0  0  0  0  0  0  0  0  0  0  0  0
   -2.0390   17.8600  -34.1060 C   0  0  0  0  0  0  0  0  0  0  0  0
   -4.0430   17.2120  -35.4240 O   0  0  0  0  0  0  0  0  0  0  0  0
   -5.3420   17.1880  -35.3390 N   0  0  0  0  0  0  0  0  0  0  0  0
   -7.6590   21.1280  -32.0960 C   0  0  0  0  0  0  0  0  0  0  0  0
   -7.2230   22.4480  -31.9440 C   0  0  0  0  0  0  0  0  0  0  0  0
   -2.0820   24.3580  -28.3720 C   0  0  0  0  0  0  0  0  0  0  0  0
   -1.2910   24.8100  -27.3120 C   0  0  0  0  0  0  0  0  0  0  0  0
   -0.0056   24.0267  -23.4245 H   0  0  0  0  0  0  0  0  0  0  0  0
   -0.7170   23.4330  -24.9634 H   0  0  0  0  0  0  0  0  0  0  0  0
    0.9025   24.2103  -24.9634 H   0  0  0  0  0  0  0  0  0  0  0  0
   -3.7582   25.5843  -25.0765 H   0  0  0  0  0  0  0  0  0  0  0  0
   -5.1728   24.7708  -26.9641 H   0  0  0  0  0  0  0  0  0  0  0  0
   -4.6280   22.8890  -29.3140 H   0  0  0  0  0  0  0  0  0  0  0  0
   -3.9157   21.8612  -31.3032 H   0  0  0  0  0  0  0  0  0  0  0  0
   -4.6926   19.5087  -31.5859 H   0  0  0  0  0  0  0  0  0  0  0  0
   -4.4094   18.4471  -32.4251 H   0  0  0  0  0  0  0  0  0  0  0  0
   -1.8301   17.8844  -33.0263 H   0  0  0  0  0  0  0  0  0  0  0  0
   -1.4990   17.0188  -34.5651 H   0  0  0  0  0  0  0  0  0  0  0  0
   -1.7072   18.8030  -34.5651 H   0  0  0  0  0  0  0  0  0  0  0  0
   -8.7169   20.9221  -32.3161 H   0  0  0  0  0  0  0  0  0  0  0  0
   -7.9437   23.2745  -32.0302 H   0  0  0  0  0  0  0  0  0  0  0  0
   -1.6038   23.9963  -29.2942 H   0  0  0  0  0  0  0  0  0  0  0  0
   -0.1950   24.8103  -27.4058 H   0  0  0  0  0  0  0  0  0  0  0  0
  1  2  1  0
  2  3  1  0
  3  4  2  0
  4  5  1  0
  5  6  2  0
  6  7  1  0
  7  8  1  0
  8  9  2  0
  8 10  1  0
 10 11  1  0
 11 12  2  0
 12 13  1  0
 13 14  2  0
 14 15  1  0
 15 16  2  0
 15 17  2  0
 15 18  1  0
 18 19  2  3
 19 20  1  0
 20 21  2  0
 21 22  1  0
 21 23  1  0
 23 24  1  0
 14 25  1  0
 25 26  2  0
  6 27  1  0
 27 28  2  0
 28  3  1  0
 26 11  1  0
 24 19  1  0
  1 29  1  0
  1 30  1  0
  1 31  1  0
  4 32  1  0
  5 33  1  0
  7 34  1  0
 12 35  1  0
 13 36  1  0
 20 37  1  0
 22 38  1  0
 22 39  1  0
 22 40  1  0
 25 41  1  0
 26 42  1  0
 27 43  1  0
 28 44  1  0
M  CHG  2  10  -1  24  -1
M  END
>  <UniqueID>  (6) 
6

>  <SMILES>  (6) 
CSc1ccc(NC(=O)[N-]c2ccc(S(=O)(=O)N=c3cc(C)o[n-]3)cc2)cc1

>  <Energy>  (6) 
81.73566632126169

>  <Genealogy>  (6) 
CSc1ccc(NC(=O)[N-]c2ccc(S(=O)(=O)N=c3cc(C)o[n-]3)cc2)cc1 (protonated)
CSc1ccc(NC(=O)[N-]c2ccc(S(=O)(=O)N=c3cc(C)o[n-]3)cc2)cc1 (3D coordinates assigned)
CSc1ccc(NC(=O)[N-]c2ccc(S(=O)(=O)N=c3cc(C)o[n-]3)cc2)cc1 (optimized conformer: 81.73566632126169 kcal/mol)

>  <smiles>  (6) 
CSc1ccc(NC(=O)Nc2ccc(S(=O)(=O)N=c3cc(C)o[nH]3)cc2)cc1

>  <score_type>  (6) 
oracle

>  <origin>  (6) 
adgpu

>  <m_score__min__energy>  (6) 
-10.27

>  <m_primary>  (6) 
energy

$$$$
6:0
     RDKit          3D

 60 63  0  0  0  0  0  0  0  0999 V2000
    2.9810   25.9170  -23.7650 C   0  0  0  0  0  0  0  0  0  0  0  0
    1.6090   26.3450  -24.2940 C   0  0  0  0  0  0  0  0  0  0  0  0
    0.5140   25.3590  -24.0830 N   0  0  0  0  0  0  0  0  0  0  0  0
    0.8620   23.9700  -24.4990 C   0  0  0  0  0  0  0  0  0  0  0  0
    0.1210   23.4950  -25.7590 C   0  0  0  0  0  0  0  0  0  0  0  0
   -0.1200   24.6380  -26.6420 N   0  0  0  0  0  0  0  0  0  0  0  0
   -0.4410   24.2570  -28.0360 C   0  0  0  0  0  0  0  0  0  0  0  0
   -1.8940   23.8890  -28.2560 C   0  0  0  0  0  0  0  0  0  0  0  0
   -2.5750   23.0820  -27.3310 C   0  0  0  0  0  0  0  0  0  0  0  0
   -3.9090   22.7310  -27.5490 C   0  0  0  0  0  0  0  0  0  0  0  0
   -4.5780   23.1840  -28.6890 C   0  0  0  0  0  0  0  0  0  0  0  0
   -3.9160   24.0020  -29.6190 C   0  0  0  0  0  0  0  0  0  0  0  0
   -4.6240   24.5000  -30.8190 C   0  0  0  0  0  0  0  0  0  0  0  0
   -5.0720   25.6770  -30.8380 O   0  0  0  0  0  0  0  0  0  0  0  0
   -4.8520   23.6520  -31.9500 N   0  0  0  0  0  0  0  0  0  0  0  0
   -5.5600   22.4030  -31.9000 C   0  0  0  0  0  0  0  0  0  0  0  0
   -6.9650   22.3840  -31.9550 C   0  0  0  0  0  0  0  0  0  0  0  0
   -7.6600   21.1690  -31.9240 C   0  0  0  0  0  0  0  0  0  0  0  0
   -9.0970   21.1580  -31.9990 C   0  0  0  0  0  0  0  0  0  0  0  0
  -10.2520   21.1500  -32.0600 N   0  0  0  0  0  0  0  0  0  0  0  0
   -6.9540   19.9650  -31.8380 C   0  0  0  0  0  0  0  0  0  0  0  0
   -5.5600   19.9730  -31.7860 C   0  0  0  0  0  0  0  0  0  0  0  0
   -4.8500   21.1860  -31.8060 C   0  0  0  0  0  0  0  0  0  0  0  0
   -3.3700   21.1600  -31.7950 C   0  0  0  0  0  0  0  0  0  0  0  0
   -2.6630   21.1120  -30.5810 C   0  0  0  0  0  0  0  0  0  0  0  0
   -1.2660   21.0920  -30.5800 C   0  0  0  0  0  0  0  0  0  0  0  0
   -0.5630   21.1170  -31.7880 C   0  0  0  0  0  0  0  0  0  0  0  0
   -1.2580   21.1610  -33.0010 C   0  0  0  0  0  0  0  0  0  0  0  0
   -0.3750   21.1940  -34.5170 Cl  0  0  0  0  0  0  0  0  0  0  0  0
   -2.6570   21.1800  -33.0050 C   0  0  0  0  0  0  0  0  0  0  0  0
   -2.5670   24.3320  -29.4050 C   0  0  0  0  0  0  0  0  0  0  0  0
   -1.1010   25.5630  -26.0480 C   0  0  0  0  0  0  0  0  0  0  0  0
   -0.8140   25.8290  -24.5510 C   0  0  0  0  0  0  0  0  0  0  0  0
    2.9675   25.9212  -22.6651 H   0  0  0  0  0  0  0  0  0  0  0  0
    3.2130   24.9038  -24.1250 H   0  0  0  0  0  0  0  0  0  0  0  0
    3.7479   26.6186  -24.1250 H   0  0  0  0  0  0  0  0  0  0  0  0
    1.3264   27.2809  -23.7897 H   0  0  0  0  0  0  0  0  0  0  0  0
    1.7204   26.4499  -25.3833 H   0  0  0  0  0  0  0  0  0  0  0  0
    0.4250   25.3190  -23.0380 H   0  0  0  0  0  0  0  0  0  0  0  0
    1.9434   23.9278  -24.6962 H   0  0  0  0  0  0  0  0  0  0  0  0
    0.5570   23.3042  -23.6782 H   0  0  0  0  0  0  0  0  0  0  0  0
    0.7333   22.7477  -26.2850 H   0  0  0  0  0  0  0  0  0  0  0  0
   -0.8402   23.0439  -25.4716 H   0  0  0  0  0  0  0  0  0  0  0  0
   -0.1962   25.1058  -28.6915 H   0  0  0  0  0  0  0  0  0  0  0  0
    0.1524   23.3595  -28.2650 H   0  0  0  0  0  0  0  0  0  0  0  0
   -2.0553   22.7243  -26.4299 H   0  0  0  0  0  0  0  0  0  0  0  0
   -4.4348   22.0959  -26.8209 H   0  0  0  0  0  0  0  0  0  0  0  0
   -5.6268   22.8989  -28.8586 H   0  0  0  0  0  0  0  0  0  0  0  0
   -7.5218   23.3302  -32.0228 H   0  0  0  0  0  0  0  0  0  0  0  0
   -7.4989   19.0098  -31.8113 H   0  0  0  0  0  0  0  0  0  0  0  0
   -5.0113   19.0213  -31.7288 H   0  0  0  0  0  0  0  0  0  0  0  0
   -3.2118   21.0901  -29.6280 H   0  0  0  0  0  0  0  0  0  0  0  0
   -0.7182   21.0565  -29.6268 H   0  0  0  0  0  0  0  0  0  0  0  0
    0.5369   21.1021  -31.7846 H   0  0  0  0  0  0  0  0  0  0  0  0
   -3.2012   21.2108  -33.9605 H   0  0  0  0  0  0  0  0  0  0  0  0
   -2.0326   24.9443  -30.1463 H   0  0  0  0  0  0  0  0  0  0  0  0
   -1.0632   26.5183  -26.5921 H   0  0  0  0  0  0  0  0  0  0  0  0
   -2.0956   25.0998  -26.1263 H   0  0  0  0  0  0  0  0  0  0  0  0
   -0.8747   26.9135  -24.3775 H   0  0  0  0  0  0  0  0  0  0  0  0
   -1.5641   25.2584  -23.9838 H   0  0  0  0  0  0  0  0  0  0  0  0
  1  2  1  0
  2  3  1  0
  3  4  1  0
  4  5  1  0
  5  6  1  0
  6  7  1  0
  7  8  1  0
  8  9  2  0
  9 10  1  0
 10 11  2  0
 11 12  1  0
 12 13  1  0
 13 14  2  0
 13 15  1  0
 15 16  1  0
 16 17  2  0
 17 18  1  0
 18 19  1  0
 19 20  3  0
 18 21  2  0
 21 22  1  0
 22 23  2  0
 23 24  1  0
 24 25  2  0
 25 26  1  0
 26 27  2  0
 27 28  1  0
 28 29  1  0
 28 30  2  0
 12 31  2  0
  6 32  1  0
 32 33  1  0
 33  3  1  0
 31  8  1  0
 23 16  1  0
 30 24  1  0
  1 34  1  0
  1 35  1  0
  1 36  1  0
  2 37  1  0
  2 38  1  0
  3 39  1  0
  4 40  1  0
  4 41  1  0
  5 42  1  0
  5 43  1  0
  7 44  1  0
  7 45  1  0
  9 46  1  0
 10 47  1  0
 11 48  1  0
 17 49  1  0
 21 50  1  0
 22 51  1  0
 25 52  1  0
 26 53  1  0
 27 54  1  0
 30 55  1  0
 31 56  1  0
 32 57  1  0
 32 58  1  0
 33 59  1  0
 33 60  1  0
M  CHG  2   3   1  15  -1
M  END
>  <UniqueID>  (7) 
7

>  <SMILES>  (7) 
CC[NH+]1CCN(Cc2cccc(C(=O)[N-]c3cc(C#N)ccc3-c3cccc(Cl)c3)c2)CC1

>  <Energy>  (7) 
89.15849381889842

>  <Genealogy>  (7) 
CC[NH+]1CCN(Cc2cccc(C(=O)[N-]c3cc(C#N)ccc3-c3cccc(Cl)c3)c2)CC1 (protonated)
CC[NH+]1CCN(Cc2cccc(C(=O)[N-]c3cc(C#N)ccc3-c3cccc(Cl)c3)c2)CC1 (3D coordinates assigned)
CC[NH+]1CCN(Cc2cccc(C(=O)[N-]c3cc(C#N)ccc3-c3cccc(Cl)c3)c2)CC1 (nonaromatic ring conformer: 89.15849381889842 kcal/mol)

>  <smiles>  (7) 
CCN1CCN(Cc2cccc(C(=O)Nc3cc(C#N)ccc3-c3cccc(Cl)c3)c2)CC1

>  <score_type>  (7) 
oracle

>  <origin>  (7) 
adgpu

>  <m_score__min__energy>  (7) 
-11.199999999999999

>  <m_primary>  (7) 
energy

$$$$
7:0
     RDKit          3D

 33 35  0  0  0  0  0  0  0  0999 V2000
   -5.4780   25.7910  -30.5050 C   0  0  0  0  0  0  0  0  0  0  0  0
   -4.8540   24.4220  -30.5810 C   0  0  0  0  0  0  0  0  0  0  0  0
   -3.5210   24.2260  -30.1660 C   0  0  0  0  0  0  0  0  0  0  0  0
   -2.7560   25.2950  -29.7080 O   0  0  0  0  0  0  0  0  0  0  0  0
   -2.9500   22.9520  -30.2080 C   0  0  0  0  0  0  0  0  0  0  0  0
   -3.6960   21.8560  -30.6440 C   0  0  0  0  0  0  0  0  0  0  0  0
   -5.0340   22.0230  -31.0360 C   0  0  0  0  0  0  0  0  0  0  0  0
   -5.8240   20.9420  -31.4650 C   0  0  0  0  0  0  0  0  0  0  0  0
   -5.3380   19.7790  -31.5220 O   0  0  0  0  0  0  0  0  0  0  0  0
   -7.1630   21.1650  -31.8290 C   0  0  0  0  0  0  0  0  0  0  0  0
   -8.0450   20.0500  -32.3330 C   0  0  0  0  0  0  0  0  0  0  0  0
   -7.2310   19.0460  -33.1050 C   0  0  0  0  0  0  0  0  0  0  0  0
   -7.2690   17.6860  -32.7550 C   0  0  0  0  0  0  0  0  0  0  0  0
   -6.5380   16.7480  -33.4930 C   0  0  0  0  0  0  0  0  0  0  0  0
   -5.7720   17.1600  -34.5870 C   0  0  0  0  0  0  0  0  0  0  0  0
   -5.7370   18.5100  -34.9470 C   0  0  0  0  0  0  0  0  0  0  0  0
   -6.4660   19.4510  -34.2120 C   0  0  0  0  0  0  0  0  0  0  0  0
   -7.6590   22.4740  -31.7660 C   0  0  0  0  0  0  0  0  0  0  0  0
   -6.8880   23.4760  -31.3590 O   0  0  0  0  0  0  0  0  0  0  0  0
   -5.6170   23.3130  -30.9980 C   0  0  0  0  0  0  0  0  0  0  0  0
   -5.6082   26.0766  -29.4507 H   0  0  0  0  0  0  0  0  0  0  0  0
   -4.8235   26.5205  -31.0044 H   0  0  0  0  0  0  0  0  0  0  0  0
   -6.4580   25.7755  -31.0044 H   0  0  0  0  0  0  0  0  0  0  0  0
   -1.9048   22.8115  -29.8952 H   0  0  0  0  0  0  0  0  0  0  0  0
   -3.2344   20.8582  -30.6807 H   0  0  0  0  0  0  0  0  0  0  0  0
   -8.5213   19.5494  -31.4771 H   0  0  0  0  0  0  0  0  0  0  0  0
   -8.8123   20.4742  -32.9973 H   0  0  0  0  0  0  0  0  0  0  0  0
   -7.8753   17.3572  -31.8981 H   0  0  0  0  0  0  0  0  0  0  0  0
   -6.5664   15.6850  -33.2116 H   0  0  0  0  0  0  0  0  0  0  0  0
   -5.1966   16.4217  -35.1648 H   0  0  0  0  0  0  0  0  0  0  0  0
   -5.1354   18.8331  -35.8094 H   0  0  0  0  0  0  0  0  0  0  0  0
   -6.4403   20.5119  -34.5017 H   0  0  0  0  0  0  0  0  0  0  0  0
   -8.7006   22.6744  -32.0574 H   0  0  0  0  0  0  0  0  0  0  0  0
  1  2  1  0
  2  3  2  0
  3  4  1  0
  3  5  1  0
  5  6  2  0
  6  7  1  0
  7  8  1  0
  8  9  2  0
  8 10  1  0
 10 11  1  0
 11 12  1  0
 12 13  2  0
 13 14  1  0
 14 15  2  0
 15 16  1  0
 16 17  2  0
 10 18  2  0
 18 19  1  0
 19 20  1  0
 20  2  1  0
 20  7  2  0
 17 12  1  0
  1 21  1  0
  1 22  1  0
  1 23  1  0
  5 24  1  0
  6 25  1  0
 11 26  1  0
 11 27  1  0
 13 28  1  0
 14 29  1  0
 15 30  1  0
 16 31  1  0
 17 32  1  0
 18 33  1  0
M  CHG  1   4  -1
M  END
>  <UniqueID>  (8) 
8

>  <SMILES>  (8) 
Cc1c([O-])ccc2c(=O)c(Cc3ccccc3)coc12

>  <Energy>  (8) 
41.34614042505371

>  <Genealogy>  (8) 
Cc1c([O-])ccc2c(=O)c(Cc3ccccc3)coc12 (protonated)
Cc1c([O-])ccc2c(=O)c(Cc3ccccc3)coc12 (3D coordinates assigned)
Cc1c([O-])ccc2c(=O)c(Cc3ccccc3)coc12 (optimized conformer: 41.34614042505371 kcal/mol)

>  <smiles>  (8) 
Cc1c(O)ccc2c(=O)c(Cc3ccccc3)coc12

>  <score_type>  (8) 
oracle

>  <origin>  (8) 
adgpu

>  <m_score__min__energy>  (8) 
-10.81

>  <m_primary>  (8) 
energy

$$$$
8:0
     RDKit          3D

 50 52  0  0  0  0  0  0  0  0999 V2000
   -0.4840   27.0350  -35.7570 C   0  0  0  0  0  0  0  0  0  0  0  0
    1.0060   26.7260  -35.8410 C   0  0  0  0  0  0  0  0  0  0  0  0
    1.2440   25.2540  -35.7470 C   0  0  0  0  0  0  0  0  0  0  0  0
    0.2500   24.3360  -35.7410 N   0  0  0  0  0  0  0  0  0  0  0  0
    0.6950   23.0810  -35.7130 N   0  0  0  0  0  0  0  0  0  0  0  0
    2.0440   23.0020  -35.7080 C   0  0  0  0  0  0  0  0  0  0  0  0
    2.7060   21.8880  -35.6910 N   0  0  0  0  0  0  0  0  0  0  0  0
    1.9420   20.3320  -35.6710 S   0  0  0  0  0  0  0  0  0  0  0  0
    1.3590   20.0480  -37.0250 O   0  0  0  0  0  0  0  0  0  0  0  0
    2.9650   19.2760  -35.3580 O   0  0  0  0  0  0  0  0  0  0  0  0
    0.6490   20.3220  -34.4750 C   0  0  0  0  0  0  0  0  0  0  0  0
    0.8750   20.7910  -33.1740 C   0  0  0  0  0  0  0  0  0  0  0  0
   -0.1640   20.8000  -32.2380 C   0  0  0  0  0  0  0  0  0  0  0  0
   -1.4480   20.3390  -32.5930 C   0  0  0  0  0  0  0  0  0  0  0  0
   -2.5400   20.3360  -31.6550 N   0  0  0  0  0  0  0  0  0  0  0  0
   -2.3630   20.5480  -30.2170 C   0  0  0  0  0  0  0  0  0  0  0  0
   -2.1500   22.0080  -29.9170 C   0  0  0  0  0  0  0  0  0  0  0  0
   -1.0090   22.4260  -29.2180 C   0  0  0  0  0  0  0  0  0  0  0  0
   -0.8230   23.7840  -28.9010 C   0  0  0  0  0  0  0  0  0  0  0  0
    0.3110   24.2440  -28.2130 O   0  0  0  0  0  0  0  0  0  0  0  0
    0.2820   24.8490  -26.9240 C   0  0  0  0  0  0  0  0  0  0  0  0
   -1.7980   24.7170  -29.2790 C   0  0  0  0  0  0  0  0  0  0  0  0
   -1.6200   26.0620  -28.9710 O   0  0  0  0  0  0  0  0  0  0  0  0
   -2.9530   24.3110  -29.9620 C   0  0  0  0  0  0  0  0  0  0  0  0
   -3.9020   25.2840  -30.3110 O   0  0  0  0  0  0  0  0  0  0  0  0
   -5.3100   25.1170  -30.1920 C   0  0  0  0  0  0  0  0  0  0  0  0
   -3.1260   22.9490  -30.2740 C   0  0  0  0  0  0  0  0  0  0  0  0
   -1.6640   19.8730  -33.9010 C   0  0  0  0  0  0  0  0  0  0  0  0
   -0.6240   19.8670  -34.8350 C   0  0  0  0  0  0  0  0  0  0  0  0
    2.7640   24.5200  -35.7410 S   0  0  0  0  0  0  0  0  0  0  0  0
   -0.7865   27.0977  -34.7013 H   0  0  0  0  0  0  0  0  0  0  0  0
   -0.6881   27.9946  -36.2545 H   0  0  0  0  0  0  0  0  0  0  0  0
   -1.0528   26.2357  -36.2545 H   0  0  0  0  0  0  0  0  0  0  0  0
    1.3982   27.0951  -36.8001 H   0  0  0  0  0  0  0  0  0  0  0  0
    1.5188   27.2223  -35.0039 H   0  0  0  0  0  0  0  0  0  0  0  0
    1.8734   21.1534  -32.8879 H   0  0  0  0  0  0  0  0  0  0  0  0
    0.0218   21.1690  -31.2185 H   0  0  0  0  0  0  0  0  0  0  0  0
   -3.5060   20.1790  -32.0260 H   0  0  0  0  0  0  0  0  0  0  0  0
   -3.2610   20.1977  -29.6870 H   0  0  0  0  0  0  0  0  0  0  0  0
   -1.4789   19.9854  -29.8826 H   0  0  0  0  0  0  0  0  0  0  0  0
   -0.2532   21.6864  -28.9150 H   0  0  0  0  0  0  0  0  0  0  0  0
    0.3195   24.0672  -26.1511 H   0  0  0  0  0  0  0  0  0  0  0  0
    1.1492   25.5165  -26.8127 H   0  0  0  0  0  0  0  0  0  0  0  0
   -0.6451   25.4305  -26.8127 H   0  0  0  0  0  0  0  0  0  0  0  0
   -5.5867   25.0842  -29.1279 H   0  0  0  0  0  0  0  0  0  0  0  0
   -5.8217   25.9608  -30.6781 H   0  0  0  0  0  0  0  0  0  0  0  0
   -5.6101   24.1770  -30.6781 H   0  0  0  0  0  0  0  0  0  0  0  0
   -4.0336   22.6208  -30.8017 H   0  0  0  0  0  0  0  0  0  0  0  0
   -2.6605   19.5097  -34.1925 H   0  0  0  0  0  0  0  0  0  0  0  0
   -0.8072   19.5032  -35.8568 H   0  0  0  0  0  0  0  0  0  0  0  0
  1  2  1  0
  2  3  1  0
  3  4  2  0
  4  5  1  0
  5  6  1  0
  6  7  2  3
  7  8  1  0
  8  9  2  0
  8 10  2  0
  8 11  1  0
 11 12  2  0
 12 13  1  0
 13 14  2  0
 14 15  1  0
 15 16  1  0
 16 17  1  0
 17 18  2  0
 18 19  1  0
 19 20  1  0
 20 21  1  0
 19 22  2  0
 22 23  1  0
 22 24  1  0
 24 25  1  0
 25 26  1  0
 24 27  2  0
 14 28  1  0
 28 29  2  0
  6 30  1  0
 30  3  1  0
 29 11  1  0
 27 17  1  0
  1 31  1  0
  1 32  1  0
  1 33  1  0
  2 34  1  0
  2 35  1  0
 12 36  1  0
 13 37  1  0
 15 38  1  0
 16 39  1  0
 16 40  1  0
 18 41  1  0
 21 42  1  0
 21 43  1  0
 21 44  1  0
 26 45  1  0
 26 46  1  0
 26 47  1  0
 27 48  1  0
 28 49  1  0
 29 50  1  0
M  CHG  2   5  -1  23  -1
M  END
>  <UniqueID>  (9) 
9

>  <SMILES>  (9) 
CCc1n[n-]c(=NS(=O)(=O)c2ccc(NCc3cc(OC)c([O-])c(OC)c3)cc2)s1

>  <Energy>  (9) 
83.41980976154531

>  <Genealogy>  (9) 
CCc1n[n-]c(=NS(=O)(=O)c2ccc(NCc3cc(OC)c([O-])c(OC)c3)cc2)s1 (protonated)
CCc1n[n-]c(=NS(=O)(=O)c2ccc(NCc3cc(OC)c([O-])c(OC)c3)cc2)s1 (3D coordinates assigned)
CCc1n[n-]c(=NS(=O)(=O)c2ccc(NCc3cc(OC)c([O-])c(OC)c3)cc2)s1 (optimized conformer: 83.41980976154531 kcal/mol)

>  <smiles>  (9) 
CCc1n[nH]c(=NS(=O)(=O)c2ccc(NCc3cc(OC)c(O)c(OC)c3)cc2)s1

>  <score_type>  (9) 
oracle

>  <origin>  (9) 
adgpu

>  <m_score__min__energy>  (9) 
-13.07

>  <m_primary>  (9) 
energy

$$$$
9:0
     RDKit          3D

 30 31  0  0  0  0  0  0  0  0999 V2000
   -7.5640   20.4170  -33.4100 N   0  0  0  0  0  0  0  0  0  0  0  0
   -8.0280   21.2960  -31.9970 S   0  0  0  0  0  0  0  0  0  0  0  0
   -9.2570   22.1090  -32.2950 O   0  0  0  0  0  0  0  0  0  0  0  0
   -8.3440   20.3350  -30.8860 O   0  0  0  0  0  0  0  0  0  0  0  0
   -6.7120   22.3600  -31.5080 C   0  0  0  0  0  0  0  0  0  0  0  0
   -6.9800   23.5300  -30.7860 C   0  0  0  0  0  0  0  0  0  0  0  0
   -5.9330   24.3760  -30.4090 C   0  0  0  0  0  0  0  0  0  0  0  0
   -4.6140   24.0790  -30.7690 C   0  0  0  0  0  0  0  0  0  0  0  0
   -3.5680   24.9670  -30.3520 N   0  0  0  0  0  0  0  0  0  0  0  0
   -2.5330   24.6450  -29.4180 C   0  0  0  0  0  0  0  0  0  0  0  0
   -2.4360   23.4620  -28.9980 O   0  0  0  0  0  0  0  0  0  0  0  0
   -1.6230   25.6590  -28.9680 N   0  0  0  0  0  0  0  0  0  0  0  0
   -1.3880   26.0620  -27.6110 C   0  0  0  0  0  0  0  0  0  0  0  0
   -0.4970   27.1030  -27.2830 C   0  0  0  0  0  0  0  0  0  0  0  0
   -0.2810   27.4470  -25.9450 C   0  0  0  0  0  0  0  0  0  0  0  0
   -0.9370   26.7510  -24.9260 C   0  0  0  0  0  0  0  0  0  0  0  0
   -0.7250   27.0850  -23.6290 F   0  0  0  0  0  0  0  0  0  0  0  0
   -1.8040   25.7010  -25.2440 C   0  0  0  0  0  0  0  0  0  0  0  0
   -2.0210   25.3550  -26.5810 C   0  0  0  0  0  0  0  0  0  0  0  0
   -4.3420   22.8900  -31.4730 C   0  0  0  0  0  0  0  0  0  0  0  0
   -3.0670   22.5170  -31.7480 F   0  0  0  0  0  0  0  0  0  0  0  0
   -5.3910   22.0440  -31.8480 C   0  0  0  0  0  0  0  0  0  0  0  0
   -8.4440   20.0720  -33.8550 H   0  0  0  0  0  0  0  0  0  0  0  0
   -8.0156   23.7834  -30.5153 H   0  0  0  0  0  0  0  0  0  0  0  0
   -6.1479   25.2827  -29.8245 H   0  0  0  0  0  0  0  0  0  0  0  0
    0.0299   27.6463  -28.0813 H   0  0  0  0  0  0  0  0  0  0  0  0
    0.4071   28.2676  -25.6938 H   0  0  0  0  0  0  0  0  0  0  0  0
   -2.3151   25.1475  -24.4425 H   0  0  0  0  0  0  0  0  0  0  0  0
   -2.6945   24.5205  -26.8261 H   0  0  0  0  0  0  0  0  0  0  0  0
   -5.1768   21.1250  -32.4134 H   0  0  0  0  0  0  0  0  0  0  0  0
  1  2  1  0
  2  3  2  0
  2  4  2  0
  2  5  1  0
  5  6  2  0
  6  7  1  0
  7  8  2  0
  8  9  1  0
  9 10  1  0
 10 11  2  0
 10 12  1  0
 12 13  1  0
 13 14  2  0
 14 15  1  0
 15 16  2  0
 16 17  1  0
 16 18  1  0
 18 19  2  0
  8 20  1  0
 20 21  1  0
 20 22  2  0
 22  5  1  0
 19 13  1  0
  1 23  1  0
  6 24  1  0
  7 25  1  0
 14 26  1  0
 15 27  1  0
 18 28  1  0
 19 29  1  0
 22 30  1  0
M  CHG  3   1  -1   9  -1  12  -1
M  END
>  <UniqueID>  (10) 
10

>  <SMILES>  (10) 
[NH-]S(=O)(=O)c1ccc([N-]C(=O)[N-]c2ccc(F)cc2)c(F)c1

>  <Energy>  (10) 
38.939768281256555

>  <Genealogy>  (10) 
[NH-]S(=O)(=O)c1ccc([N-]C(=O)[N-]c2ccc(F)cc2)c(F)c1 (protonated)
[NH-]S(=O)(=O)c1ccc([N-]C(=O)[N-]c2ccc(F)cc2)c(F)c1 (3D coordinates assigned)
[NH-]S(=O)(=O)c1ccc([N-]C(=O)[N-]c2ccc(F)cc2)c(F)c1 (optimized conformer: 38.939768281256555 kcal/mol)

>  <smiles>  (10) 
NS(=O)(=O)c1ccc(NC(=O)Nc2ccc(F)cc2)c(F)c1

>  <score_type>  (10) 
oracle

>  <origin>  (10) 
adgpu

>  <m_score__min__energy>  (10) 
-10.1

>  <m_primary>  (10) 
energy

$$$$
10:0
     RDKit          3D

 41 42  0  0  0  0  0  0  0  0999 V2000
   -1.2550   26.2490  -25.1010 C   0  0  0  0  0  0  0  0  0  0  0  0
   -1.0580   25.8930  -26.4660 O   0  0  0  0  0  0  0  0  0  0  0  0
   -1.9780   25.1670  -27.2360 C   0  0  0  0  0  0  0  0  0  0  0  0
   -3.2420   24.9100  -26.6940 C   0  0  0  0  0  0  0  0  0  0  0  0
   -4.1940   24.1920  -27.4220 C   0  0  0  0  0  0  0  0  0  0  0  0
   -3.9030   23.7210  -28.7110 C   0  0  0  0  0  0  0  0  0  0  0  0
   -4.9060   22.9850  -29.4320 N   0  0  0  0  0  0  0  0  0  0  0  0
   -6.0250   23.7050  -30.5470 S   0  0  0  0  0  0  0  0  0  0  0  0
   -5.2580   24.4270  -31.6200 O   0  0  0  0  0  0  0  0  0  0  0  0
   -6.9080   24.6900  -29.8330 O   0  0  0  0  0  0  0  0  0  0  0  0
   -7.0270   22.4340  -31.2690 C   0  0  0  0  0  0  0  0  0  0  0  0
   -8.3780   22.3560  -30.8960 C   0  0  0  0  0  0  0  0  0  0  0  0
   -9.2090   21.3750  -31.4350 C   0  0  0  0  0  0  0  0  0  0  0  0
   -8.7000   20.4500  -32.3400 C   0  0  0  0  0  0  0  0  0  0  0  0
   -7.3550   20.4940  -32.7200 C   0  0  0  0  0  0  0  0  0  0  0  0
   -6.8720   19.4990  -33.6340 N   0  0  0  0  0  0  0  0  0  0  0  0
   -6.4120   18.2050  -33.2140 C   0  0  0  0  0  0  0  0  0  0  0  0
   -6.4700   17.7730  -31.7770 C   0  0  0  0  0  0  0  0  0  0  0  0
   -5.7030   17.2160  -34.3100 S   0  0  0  0  0  0  0  0  0  0  0  0
   -6.5080   21.5150  -32.2200 C   0  0  0  0  0  0  0  0  0  0  0  0
   -5.0750   21.6160  -32.6910 C   0  0  0  0  0  0  0  0  0  0  0  0
   -2.6290   23.9740  -29.2550 C   0  0  0  0  0  0  0  0  0  0  0  0
   -1.6770   24.6910  -28.5250 C   0  0  0  0  0  0  0  0  0  0  0  0
   -0.8245   25.4710  -24.4534 H   0  0  0  0  0  0  0  0  0  0  0  0
   -0.7605   27.2103  -24.8977 H   0  0  0  0  0  0  0  0  0  0  0  0
   -2.3322   26.3406  -24.8977 H   0  0  0  0  0  0  0  0  0  0  0  0
   -3.4882   25.2763  -25.6864 H   0  0  0  0  0  0  0  0  0  0  0  0
   -5.1817   23.9940  -26.9800 H   0  0  0  0  0  0  0  0  0  0  0  0
   -5.0170   21.9630  -29.2460 H   0  0  0  0  0  0  0  0  0  0  0  0
   -8.7851   23.0762  -30.1711 H   0  0  0  0  0  0  0  0  0  0  0  0
  -10.2690   21.3326  -31.1440 H   0  0  0  0  0  0  0  0  0  0  0  0
   -9.3607   19.6775  -32.7603 H   0  0  0  0  0  0  0  0  0  0  0  0
   -6.9950   19.6790  -34.6570 H   0  0  0  0  0  0  0  0  0  0  0  0
   -6.3521   18.6511  -31.1251 H   0  0  0  0  0  0  0  0  0  0  0  0
   -7.4403   17.2952  -31.5766 H   0  0  0  0  0  0  0  0  0  0  0  0
   -5.6600   17.0562  -31.5766 H   0  0  0  0  0  0  0  0  0  0  0  0
   -4.4051   21.6632  -31.8198 H   0  0  0  0  0  0  0  0  0  0  0  0
   -4.8254   20.7332  -33.2980 H   0  0  0  0  0  0  0  0  0  0  0  0
   -4.9517   22.5251  -33.2980 H   0  0  0  0  0  0  0  0  0  0  0  0
   -2.3815   23.6048  -30.2612 H   0  0  0  0  0  0  0  0  0  0  0  0
   -0.6859   24.8844  -28.9613 H   0  0  0  0  0  0  0  0  0  0  0  0
  1  2  1  0
  2  3  1  0
  3  4  2  0
  4  5  1  0
  5  6  2  0
  6  7  1  0
  7  8  1  0
  8  9  2  0
  8 10  2  0
  8 11  1  0
 11 12  2  0
 12 13  1  0
 13 14  2  0
 14 15  1  0
 15 16  1  0
 16 17  1  0
 17 18  1  0
 17 19  2  0
 15 20  2  0
 20 21  1  0
  6 22  1  0
 22 23  2  0
 23  3  1  0
 20 11  1  0
  1 24  1  0
  1 25  1  0
  1 26  1  0
  4 27  1  0
  5 28  1  0
  7 29  1  0
 12 30  1  0
 13 31  1  0
 14 32  1  0
 16 33  1  0
 18 34  1  0
 18 35  1  0
 18 36  1  0
 21 37  1  0
 21 38  1  0
 21 39  1  0
 22 40  1  0
 23 41  1  0
M  END
>  <UniqueID>  (11) 
11

>  <SMILES>  (11) 
COc1ccc(NS(=O)(=O)c2cccc(NC(C)=S)c2C)cc1

>  <Energy>  (11) 
51.522516314243106

>  <Genealogy>  (11) 
COc1ccc(NS(=O)(=O)c2cccc(NC(C)=S)c2C)cc1 (3D coordinates assigned)
COc1ccc(NS(=O)(=O)c2cccc(NC(C)=S)c2C)cc1 (optimized conformer: 51.522516314243106 kcal/mol)

>  <smiles>  (11) 
COc1ccc(NS(=O)(=O)c2cccc(NC(C)=S)c2C)cc1

>  <score_type>  (11) 
oracle

>  <origin>  (11) 
adgpu

>  <m_score__min__energy>  (11) 
-9.1400000000000006

>  <m_primary>  (11) 
energy

$$$$
11:0
     RDKit          3D

 44 47  0  0  0  0  0  0  0  0999 V2000
    0.6968   21.1711  -32.5882 H   0  0  0  0  0  0  0  0  0  0  0  0
   -0.3880   21.0720  -32.4350 C   0  0  0  0  0  0  0  0  0  0  0  0
   -0.8830   20.6530  -31.1970 C   0  0  0  0  0  0  0  0  0  0  0  0
   -0.1876   20.4237  -30.3761 H   0  0  0  0  0  0  0  0  0  0  0  0
   -2.2620   20.5250  -31.0010 C   0  0  0  0  0  0  0  0  0  0  0  0
   -2.6490   20.1992  -30.0242 H   0  0  0  0  0  0  0  0  0  0  0  0
   -3.1540   20.8110  -32.0470 C   0  0  0  0  0  0  0  0  0  0  0  0
   -4.5770   20.6610  -31.8530 N   0  0  0  0  0  0  0  0  0  0  0  0
   -5.3120   21.6580  -31.2550 C   0  0  0  0  0  0  0  0  0  0  0  0
   -4.6850   22.8750  -30.6860 C   0  0  0  0  0  0  0  0  0  0  0  0
   -4.9620   24.1270  -31.2440 C   0  0  0  0  0  0  0  0  0  0  0  0
   -5.6429   24.2116  -32.1038 H   0  0  0  0  0  0  0  0  0  0  0  0
   -4.3690   25.2680  -30.7030 C   0  0  0  0  0  0  0  0  0  0  0  0
   -4.5771   26.2538  -31.1444 H   0  0  0  0  0  0  0  0  0  0  0  0
   -3.5350   25.1690  -29.6330 N   0  0  0  0  0  0  0  0  0  0  0  0
   -3.1130   26.0540  -29.2790 H   0  0  0  0  0  0  0  0  0  0  0  0
   -3.2630   23.9600  -29.0460 C   0  0  0  0  0  0  0  0  0  0  0  0
   -2.4730   23.8480  -28.0140 N   0  0  0  0  0  0  0  0  0  0  0  0
   -1.7800   24.9190  -27.2950 C   0  0  0  0  0  0  0  0  0  0  0  0
   -2.5062   25.7012  -27.0291 H   0  0  0  0  0  0  0  0  0  0  0  0
   -1.3218   24.4923  -26.3905 H   0  0  0  0  0  0  0  0  0  0  0  0
   -0.6750   25.5350  -28.1540 C   0  0  0  0  0  0  0  0  0  0  0  0
    0.3070   26.0710  -27.3420 F   0  0  0  0  0  0  0  0  0  0  0  0
   -0.1120   24.5530  -28.9490 F   0  0  0  0  0  0  0  0  0  0  0  0
   -1.1820   26.5310  -28.9690 F   0  0  0  0  0  0  0  0  0  0  0  0
   -3.8440   22.7970  -29.5680 C   0  0  0  0  0  0  0  0  0  0  0  0
   -3.6400   21.8226  -29.1002 H   0  0  0  0  0  0  0  0  0  0  0  0
   -6.6590   21.5430  -31.1640 N   0  0  0  0  0  0  0  0  0  0  0  0
   -7.3200   20.4550  -31.6230 C   0  0  0  0  0  0  0  0  0  0  0  0
   -8.7100   20.3960  -31.4910 C   0  0  0  0  0  0  0  0  0  0  0  0
   -9.2522   21.2313  -31.0239 H   0  0  0  0  0  0  0  0  0  0  0  0
   -9.4110   19.2830  -31.9490 C   0  0  0  0  0  0  0  0  0  0  0  0
  -10.5053   19.2418  -31.8451 H   0  0  0  0  0  0  0  0  0  0  0  0
   -8.7270   18.2210  -32.5390 C   0  0  0  0  0  0  0  0  0  0  0  0
   -9.2874   17.3444  -32.8962 H   0  0  0  0  0  0  0  0  0  0  0  0
   -7.3330   18.2580  -32.6820 C   0  0  0  0  0  0  0  0  0  0  0  0
   -6.5850   16.8520  -33.4380 Cl  0  0  0  0  0  0  0  0  0  0  0  0
   -6.6070   19.3920  -32.2200 C   0  0  0  0  0  0  0  0  0  0  0  0
   -5.2030   19.5350  -32.3310 C   0  0  0  0  0  0  0  0  0  0  0  0
   -4.5150   18.6350  -32.8880 O   0  0  0  0  0  0  0  0  0  0  0  0
   -2.6500   21.2380  -33.2870 C   0  0  0  0  0  0  0  0  0  0  0  0
   -3.3419   21.4729  -34.1093 H   0  0  0  0  0  0  0  0  0  0  0  0
   -1.2700   21.3650  -33.4780 C   0  0  0  0  0  0  0  0  0  0  0  0
   -0.8787   21.6962  -34.4512 H   0  0  0  0  0  0  0  0  0  0  0  0
  1  2  1  0
  2  3  2  0
  3  4  1  0
  3  5  1  0
  5  6  1  0
  5  7  2  0
  7  8  1  0
  8  9  1  0
  9 10  1  0
 10 11  1  0
 11 12  1  0
 11 13  2  0
 13 14  1  0
 13 15  1  0
 15 16  1  0
 15 17  1  0
 17 18  2  0
 18 19  1  0
 19 20  1  0
 19 21  1  0
 19 22  1  0
 22 23  1  0
 22 24  1  0
 22 25  1  0
 17 26  1  0
 26 27  1  0
  9 28  2  0
 28 29  1  0
 29 30  2  0
 30 31  1  0
 30 32  1  0
 32 33  1  0
 32 34  2  0
 34 35  1  0
 34 36  1  0
 36 37  1  0
 36 38  2  0
 38 39  1  0
 39 40  2  0
  7 41  1  0
 41 42  1  0
 41 43  2  0
 43 44  1  0
 43  2  1  0
 39  8  1  0
 26 10  2  0
 38 29  1  0
M  END
>  <UniqueID>  (12) 
12

>  <SMILES>  (12) 
O=c1c2c(Cl)cccc2nc(-c2cc[nH]/c(=N\CC(F)(F)F)c2)n1-c1ccccc1

>  <Energy>  (12) 
72.89339839688488

>  <Genealogy>  (12) 
O=c1c2c(Cl)cccc2nc(-c2cc[nH]/c(=N\CC(F)(F)F)c2)n1-c1ccccc1 (cis-trans isomerization)
O=c1c2c(Cl)cccc2nc(-c2cc[nH]/c(=N\CC(F)(F)F)c2)n1-c1ccccc1 (3D coordinates assigned)
O=c1c2c(Cl)cccc2nc(-c2cc[nH]/c(=N\CC(F)(F)F)c2)n1-c1ccccc1 (optimized conformer: 72.89339839688488 kcal/mol)

>  <smiles>  (12) 
O=c1c2c(Cl)cccc2nc(-c2cc[nH]c(=NCC(F)(F)F)c2)n1-c1ccccc1

>  <score_type>  (12) 
oracle

>  <origin>  (12) 
adgpu

>  <m_score__min__energy>  (12) 
-8.25

>  <m_primary>  (12) 
energy

$$$$
12:0
     RDKit          3D

 38 40  0  0  0  0  0  0  0  0999 V2000
   -2.1990   23.2270  -27.9670 C   0  0  0  0  0  0  0  0  0  0  0  0
   -3.1110   23.8660  -28.9600 C   0  0  0  0  0  0  0  0  0  0  0  0
   -4.4340   23.5400  -29.1670 C   0  0  0  0  0  0  0  0  0  0  0  0
   -4.8490   24.4470  -30.1190 C   0  0  0  0  0  0  0  0  0  0  0  0
   -6.2100   24.5530  -30.6770 C   0  0  0  0  0  0  0  0  0  0  0  0
   -7.0610   25.2770  -30.0950 O   0  0  0  0  0  0  0  0  0  0  0  0
   -6.5740   23.9100  -31.9050 N   0  0  0  0  0  0  0  0  0  0  0  0
   -7.3560   22.7140  -32.0250 C   0  0  0  0  0  0  0  0  0  0  0  0
   -8.7420   22.7180  -31.7940 C   0  0  0  0  0  0  0  0  0  0  0  0
   -9.4820   21.5420  -31.9400 C   0  0  0  0  0  0  0  0  0  0  0  0
   -8.8460   20.3570  -32.3220 C   0  0  0  0  0  0  0  0  0  0  0  0
   -7.4680   20.3480  -32.5700 C   0  0  0  0  0  0  0  0  0  0  0  0
   -6.6550   18.8530  -33.0230 S   0  0  0  0  0  0  0  0  0  0  0  0
   -6.4420   18.8460  -34.5100 O   0  0  0  0  0  0  0  0  0  0  0  0
   -7.4860   17.6600  -32.6380 O   0  0  0  0  0  0  0  0  0  0  0  0
   -5.1170   18.7510  -32.2290 N   0  0  0  0  0  0  0  0  0  0  0  0
   -3.9880   19.5980  -32.4940 C   0  0  0  0  0  0  0  0  0  0  0  0
   -3.7310   20.7510  -31.7270 C   0  0  0  0  0  0  0  0  0  0  0  0
   -2.6320   21.5630  -32.0220 C   0  0  0  0  0  0  0  0  0  0  0  0
   -1.7790   21.2320  -33.0760 C   0  0  0  0  0  0  0  0  0  0  0  0
   -2.0200   20.0870  -33.8370 C   0  0  0  0  0  0  0  0  0  0  0  0
   -3.1200   19.2700  -33.5500 C   0  0  0  0  0  0  0  0  0  0  0  0
   -3.3990   17.8390  -34.5330 Cl  0  0  0  0  0  0  0  0  0  0  0  0
   -6.7310   21.5330  -32.4390 C   0  0  0  0  0  0  0  0  0  0  0  0
   -3.8330   25.2760  -30.4320 N   0  0  0  0  0  0  0  0  0  0  0  0
   -2.7720   24.9220  -29.7220 N   0  0  0  0  0  0  0  0  0  0  0  0
   -2.5402   23.4660  -26.9489 H   0  0  0  0  0  0  0  0  0  0  0  0
   -2.2076   22.1364  -28.1100 H   0  0  0  0  0  0  0  0  0  0  0  0
   -1.1769   23.6075  -28.1100 H   0  0  0  0  0  0  0  0  0  0  0  0
   -5.0208   22.7436  -28.6859 H   0  0  0  0  0  0  0  0  0  0  0  0
   -9.2458   23.6497  -31.4974 H   0  0  0  0  0  0  0  0  0  0  0  0
  -10.5662   21.5484  -31.7542 H   0  0  0  0  0  0  0  0  0  0  0  0
   -9.4291   19.4303  -32.4279 H   0  0  0  0  0  0  0  0  0  0  0  0
   -4.3978   21.0136  -30.8925 H   0  0  0  0  0  0  0  0  0  0  0  0
   -2.4391   22.4647  -31.4222 H   0  0  0  0  0  0  0  0  0  0  0  0
   -0.9162   21.8740  -33.3071 H   0  0  0  0  0  0  0  0  0  0  0  0
   -1.3438   19.8259  -34.6644 H   0  0  0  0  0  0  0  0  0  0  0  0
   -5.6541   21.5343  -32.6632 H   0  0  0  0  0  0  0  0  0  0  0  0
  1  2  1  0
  2  3  1  0
  3  4  2  0
  4  5  1  0
  5  6  2  0
  5  7  1  0
  7  8  1  0
  8  9  2  0
  9 10  1  0
 10 11  2  0
 11 12  1  0
 12 13  1  0
 13 14  2  0
 13 15  2  0
 13 16  1  0
 16 17  1  0
 17 18  2  0
 18 19  1  0
 19 20  2  0
 20 21  1  0
 21 22  2  0
 22 23  1  0
 12 24  2  0
  4 25  1  0
 25 26  1  0
 26  2  2  0
 24  8  1  0
 22 17  1  0
  1 27  1  0
  1 28  1  0
  1 29  1  0
  3 30  1  0
  9 31  1  0
 10 32  1  0
 11 33  1  0
 18 34  1  0
 19 35  1  0
 20 36  1  0
 21 37  1  0
 24 38  1  0
M  CHG  3   7  -1  16  -1  25  -1
M  END
>  <UniqueID>  (13) 
13

>  <SMILES>  (13) 
Cc1cc(C(=O)[N-]c2cccc(S(=O)(=O)[N-]c3ccccc3Cl)c2)[n-]n1

>  <Energy>  (13) 
76.42828909647295

>  <Genealogy>  (13) 
Cc1cc(C(=O)[N-]c2cccc(S(=O)(=O)[N-]c3ccccc3Cl)c2)[n-]n1 (protonated)
Cc1cc(C(=O)[N-]c2cccc(S(=O)(=O)[N-]c3ccccc3Cl)c2)[n-]n1 (3D coordinates assigned)
Cc1cc(C(=O)[N-]c2cccc(S(=O)(=O)[N-]c3ccccc3Cl)c2)[n-]n1 (optimized conformer: 76.42828909647295 kcal/mol)

>  <smiles>  (13) 
Cc1cc(C(=O)Nc2cccc(S(=O)(=O)Nc3ccccc3Cl)c2)[nH]n1

>  <score_type>  (13) 
oracle

>  <origin>  (13) 
adgpu

>  <m_score__min__energy>  (13) 
-11.949999999999999

>  <m_primary>  (13) 
energy

$$$$
13:0
     RDKit          3D

 41 44  0  0  1  0  0  0  0  0999 V2000
    0.1490   22.2660  -34.9710 N   0  0  0  0  0  0  0  0  0  0  0  0
    0.4100   20.6900  -34.2850 S   0  0  0  0  0  0  0  0  0  0  0  0
    0.8890   19.7710  -35.3990 O   0  0  0  0  0  0  0  0  0  0  0  0
    1.4140   20.7720  -33.1780 O   0  0  0  0  0  0  0  0  0  0  0  0
   -1.1630   20.1480  -33.7070 C   0  0  0  0  0  0  0  0  0  0  0  0
   -1.2020   18.9040  -33.1150 C   0  0  0  0  0  0  0  0  0  0  0  0
   -2.4420   18.4800  -32.6600 C   0  0  0  0  0  0  0  0  0  0  0  0
   -3.5730   19.2580  -32.7930 C   0  0  0  0  0  0  0  0  0  0  0  0
   -3.5000   20.5090  -33.3960 C   0  0  0  0  0  0  0  0  0  0  0  0
   -4.7120   21.2380  -33.4870 N   0  0  0  0  0  0  0  0  0  0  0  0
   -4.9730   22.0760  -32.5700 C   0  0  0  0  0  0  0  0  0  0  0  0
   -5.9450   22.8940  -32.3230 N   0  0  0  0  0  0  0  0  0  0  0  0
   -5.9290   23.6590  -31.2590 C   0  0  0  0  0  0  0  0  0  0  0  0
   -6.8980   24.5750  -30.8730 N   0  0  0  0  0  0  0  0  0  0  0  0
   -6.7540   25.2960  -29.7550 C   0  0  0  0  0  0  0  0  0  0  0  0
   -5.7100   25.2220  -28.9170 N   0  0  0  0  0  0  0  0  0  0  0  0
   -4.7390   24.3390  -29.2550 C   0  0  0  0  0  0  0  0  0  0  0  0
   -3.7250   24.2230  -28.5020 N   0  0  0  0  0  0  0  0  0  0  0  0
   -2.6730   23.3140  -28.8020 C   0  0  0  0  0  0  0  0  0  0  0  0
   -1.6230   23.6330  -29.6500 C   0  0  0  0  0  0  0  0  0  0  0  0
   -0.6300   22.6760  -29.8910 C   0  0  0  0  0  0  0  0  0  0  0  0
   -0.7250   21.4330  -29.2720 C   0  0  0  0  0  0  0  0  0  0  0  0
   -1.7660   21.1070  -28.4260 C   0  0  0  0  0  0  0  0  0  0  0  0
   -1.8840   19.5430  -27.6480 Cl  0  0  0  0  0  0  0  0  0  0  0  0
   -2.7400   22.0600  -28.1950 C   0  0  0  0  0  0  0  0  0  0  0  0
   -4.8760   23.5870  -30.4100 C   0  0  0  0  0  0  0  0  0  0  0  0
   -3.7860   22.3480  -31.1300 S   0  0  0  0  0  0  0  0  0  0  0  0
   -2.2900   20.9330  -33.8440 C   0  0  0  0  0  0  0  0  0  0  0  0
    0.6740   22.3740  -35.8580 H   0  0  0  0  0  0  0  0  0  0  0  0
   -0.8610   22.4810  -35.1200 H   0  0  0  0  0  0  0  0  0  0  0  0
   -0.3007   18.2824  -33.0093 H   0  0  0  0  0  0  0  0  0  0  0  0
   -2.5257   17.4943  -32.1790 H   0  0  0  0  0  0  0  0  0  0  0  0
   -4.5388   18.8867  -32.4198 H   0  0  0  0  0  0  0  0  0  0  0  0
   -6.7900   22.9400  -33.0200 H   0  0  0  0  0  0  0  0  0  0  0  0
   -7.5558   26.0058  -29.5035 H   0  0  0  0  0  0  0  0  0  0  0  0
   -5.6000   25.7770  -28.0550 H   0  0  0  0  0  0  0  0  0  0  0  0
   -1.5712   24.6232  -30.1262 H   0  0  0  0  0  0  0  0  0  0  0  0
    0.2132   22.9032  -30.5599 H   0  0  0  0  0  0  0  0  0  0  0  0
    0.0572   20.6838  -29.4637 H   0  0  0  0  0  0  0  0  0  0  0  0
   -3.5793   21.8264  -27.5234 H   0  0  0  0  0  0  0  0  0  0  0  0
   -2.2067   21.9191  -34.3243 H   0  0  0  0  0  0  0  0  0  0  0  0
  1  2  1  0
  2  3  2  0
  2  4  2  0
  2  5  1  0
  5  6  2  0
  6  7  1  0
  7  8  2  0
  8  9  1  0
  9 10  1  0
 10 11  2  0
 11 12  1  0
 12 13  1  0
 13 14  1  0
 14 15  2  0
 15 16  1  0
 16 17  1  0
 17 18  2  0
 18 19  1  0
 19 20  2  0
 20 21  1  0
 21 22  2  0
 22 23  1  0
 23 24  1  0
 23 25  2  0
 17 26  1  0
 26 27  1  0
  9 28  2  0
 28  5  1  0
 27 11  1  0
 26 13  2  0
 25 19  1  0
  1 29  1  0
  1 30  1  0
  6 31  1  0
  7 32  1  0
  8 33  1  0
 12 34  1  0
 15 35  1  0
 16 36  1  0
 20 37  1  0
 21 38  1  0
 22 39  1  0
 25 40  1  0
 28 41  1  0
M  END
>  <smiles>  (14) 
NS(=O)(=O)c1cccc(N=c2[nH]c3nc[nH]c(=Nc4cccc(Cl)c4)c3s2)c1

>  <score_type>  (14) 
oracle

>  <origin>  (14) 
adgpu

>  <m_score__min__energy>  (14) 
-9.2300000000000004

>  <m_primary>  (14) 
energy

$$$$
14:0
     RDKit          3D

 37 39  0  0  0  0  0  0  0  0999 V2000
   -3.1040   24.2430  -29.6850 C   0  0  0  0  0  0  0  0  0  0  0  0
   -3.9470   24.4910  -30.8060 O   0  0  0  0  0  0  0  0  0  0  0  0
   -5.0030   23.6570  -31.2070 C   0  0  0  0  0  0  0  0  0  0  0  0
   -4.7770   22.3880  -31.7750 C   0  0  0  0  0  0  0  0  0  0  0  0
   -5.8520   21.5900  -32.1720 C   0  0  0  0  0  0  0  0  0  0  0  0
   -7.1670   22.0340  -31.9800 C   0  0  0  0  0  0  0  0  0  0  0  0
   -7.4000   23.3000  -31.4210 C   0  0  0  0  0  0  0  0  0  0  0  0
   -6.3190   24.1170  -31.0350 C   0  0  0  0  0  0  0  0  0  0  0  0
   -6.5100   25.3890  -30.4710 O   0  0  0  0  0  0  0  0  0  0  0  0
   -6.4270   25.6750  -29.0780 C   0  0  0  0  0  0  0  0  0  0  0  0
   -8.2740   21.1250  -32.3420 C   0  0  0  0  0  0  0  0  0  0  0  0
   -9.4730   21.5090  -32.2800 O   0  0  0  0  0  0  0  0  0  0  0  0
   -7.9630   19.7030  -32.7180 C   0  0  0  0  0  0  0  0  0  0  0  0
   -6.6250   19.6380  -33.4850 C   0  0  2  0  0  0  0  0  0  0  0  0
   -6.1310   18.2360  -33.8030 C   0  0  0  0  0  0  0  0  0  0  0  0
   -4.9030   18.1030  -34.4770 C   0  0  0  0  0  0  0  0  0  0  0  0
   -4.4030   16.8400  -34.8100 C   0  0  0  0  0  0  0  0  0  0  0  0
   -5.1260   15.6940  -34.4800 C   0  0  0  0  0  0  0  0  0  0  0  0
   -6.3520   15.8070  -33.8220 C   0  0  0  0  0  0  0  0  0  0  0  0
   -6.8570   17.0660  -33.4870 C   0  0  0  0  0  0  0  0  0  0  0  0
   -5.6130   20.3410  -32.7570 O   0  0  0  0  0  0  0  0  0  0  0  0
   -3.6700   24.4095  -28.7566 H   0  0  0  0  0  0  0  0  0  0  0  0
   -2.7490   23.2023  -29.7163 H   0  0  0  0  0  0  0  0  0  0  0  0
   -2.2420   24.9256  -29.7163 H   0  0  0  0  0  0  0  0  0  0  0  0
   -3.7476   22.0234  -31.9066 H   0  0  0  0  0  0  0  0  0  0  0  0
   -8.4316   23.6562  -31.2835 H   0  0  0  0  0  0  0  0  0  0  0  0
   -6.6883   24.7746  -28.5026 H   0  0  0  0  0  0  0  0  0  0  0  0
   -5.4017   25.9853  -28.8278 H   0  0  0  0  0  0  0  0  0  0  0  0
   -7.1269   26.4859  -28.8278 H   0  0  0  0  0  0  0  0  0  0  0  0
   -7.8894   19.0931  -31.8055 H   0  0  0  0  0  0  0  0  0  0  0  0
   -8.7666   19.3168  -33.3623 H   0  0  0  0  0  0  0  0  0  0  0  0
   -6.8267   20.1126  -34.4566 H   0  0  0  0  0  0  0  0  0  0  0  0
   -4.3297   19.0027  -34.7451 H   0  0  0  0  0  0  0  0  0  0  0  0
   -3.4391   16.7505  -35.3324 H   0  0  0  0  0  0  0  0  0  0  0  0
   -4.7301   14.7007  -34.7383 H   0  0  0  0  0  0  0  0  0  0  0  0
   -6.9224   14.9018  -33.5664 H   0  0  0  0  0  0  0  0  0  0  0  0
   -7.8265   17.1467  -32.9737 H   0  0  0  0  0  0  0  0  0  0  0  0
  1  2  1  0
  2  3  1  0
  3  4  2  0
  4  5  1  0
  5  6  2  0
  6  7  1  0
  7  8  2  0
  8  9  1  0
  9 10  1  0
  6 11  1  0
 11 12  2  0
 11 13  1  0
 13 14  1  0
 14 15  1  0
 15 16  2  0
 16 17  1  0
 17 18  2  0
 18 19  1  0
 19 20  2  0
 14 21  1  0
  8  3  1  0
 20 15  1  0
 21  5  1  0
  1 22  1  0
  1 23  1  0
  1 24  1  0
  4 25  1  0
  7 26  1  0
 10 27  1  0
 10 28  1  0
 10 29  1  0
 13 30  1  0
 13 31  1  0
 14 32  1  6
 16 33  1  0
 17 34  1  0
 18 35  1  0
 19 36  1  0
 20 37  1  0
M  END
>  <UniqueID>  (15) 
14

>  <SMILES>  (15) 
COc1cc2c(cc1OC)C(=O)C[C@H](c1ccccc1)O2

>  <Energy>  (15) 
42.77599459189911

>  <Genealogy>  (15) 
COc1cc2c(cc1OC)C(=O)C[C@H](c1ccccc1)O2 (chirality)
COc1cc2c(cc1OC)C(=O)C[C@H](c1ccccc1)O2 (3D coordinates assigned)
COc1cc2c(cc1OC)C(=O)C[C@H](c1ccccc1)O2 (nonaromatic ring conformer: 42.77599459189911 kcal/mol)

>  <smiles>  (15) 
COc1cc2c(cc1OC)C(=O)CC(c1ccccc1)O2

>  <score_type>  (15) 
oracle

>  <origin>  (15) 
adgpu

>  <m_score__min__energy>  (15) 
-7.6900000000000004

>  <m_primary>  (15) 
energy

$$$$
15:0
     RDKit          3D

 50 51  0  0  0  0  0  0  0  0999 V2000
   -0.8940   26.2890  -27.7640 C   0  0  0  0  0  0  0  0  0  0  0  0
   -1.6220   25.8790  -28.9170 O   0  0  0  0  0  0  0  0  0  0  0  0
   -1.8310   24.5420  -29.2910 C   0  0  0  0  0  0  0  0  0  0  0  0
   -0.9550   23.5110  -28.9030 C   0  0  0  0  0  0  0  0  0  0  0  0
   -1.1970   22.1930  -29.2930 C   0  0  0  0  0  0  0  0  0  0  0  0
   -2.3200   21.8790  -30.0670 C   0  0  0  0  0  0  0  0  0  0  0  0
   -2.5610   20.4620  -30.5170 C   0  0  0  0  0  0  0  0  0  0  0  0
   -2.5720   20.3760  -32.0490 C   0  0  0  0  0  0  0  0  0  0  0  0
   -3.9440   20.2090  -32.5510 N   0  0  0  0  0  0  0  0  0  0  0  0
   -4.5080   21.5040  -32.9600 C   0  0  0  0  0  0  0  0  0  0  0  0
   -5.9720   21.5860  -32.5870 C   0  0  0  0  0  0  0  0  0  0  0  0
   -6.5160   22.8280  -32.2350 C   0  0  0  0  0  0  0  0  0  0  0  0
   -7.8660   22.9440  -31.9180 C   0  0  0  0  0  0  0  0  0  0  0  0
   -8.6910   21.8230  -31.9560 C   0  0  0  0  0  0  0  0  0  0  0  0
   -8.1780   20.5620  -32.3230 C   0  0  0  0  0  0  0  0  0  0  0  0
   -9.0120   19.4330  -32.3640 O   0  0  0  0  0  0  0  0  0  0  0  0
   -8.8180   18.2460  -31.6020 C   0  0  0  0  0  0  0  0  0  0  0  0
   -6.8010   20.4430  -32.6520 C   0  0  0  0  0  0  0  0  0  0  0  0
   -6.2000   19.2300  -33.0490 O   0  0  0  0  0  0  0  0  0  0  0  0
   -6.1210   18.7120  -34.3730 C   0  0  0  0  0  0  0  0  0  0  0  0
   -3.1890   22.9040  -30.4700 C   0  0  0  0  0  0  0  0  0  0  0  0
   -2.9520   24.2380  -30.0810 C   0  0  0  0  0  0  0  0  0  0  0  0
   -3.8050   25.2880  -30.4600 O   0  0  0  0  0  0  0  0  0  0  0  0
   -5.2140   25.2940  -30.2610 C   0  0  0  0  0  0  0  0  0  0  0  0
   -1.4383   25.9825  -26.8586 H   0  0  0  0  0  0  0  0  0  0  0  0
    0.1001   25.8181  -27.7714 H   0  0  0  0  0  0  0  0  0  0  0  0
   -0.7814   27.3832  -27.7714 H   0  0  0  0  0  0  0  0  0  0  0  0
   -0.0736   23.7456  -28.2882 H   0  0  0  0  0  0  0  0  0  0  0  0
   -0.5012   21.3965  -28.9904 H   0  0  0  0  0  0  0  0  0  0  0  0
   -1.7610   19.8171  -30.1245 H   0  0  0  0  0  0  0  0  0  0  0  0
   -3.5384   20.1305  -30.1363 H   0  0  0  0  0  0  0  0  0  0  0  0
   -2.1452   21.3003  -32.4655 H   0  0  0  0  0  0  0  0  0  0  0  0
   -1.9742   19.5060  -32.3584 H   0  0  0  0  0  0  0  0  0  0  0  0
   -3.9330   19.5640  -33.3760 H   0  0  0  0  0  0  0  0  0  0  0  0
   -4.5390   19.7960  -31.7950 H   0  0  0  0  0  0  0  0  0  0  0  0
   -3.9600   22.3132  -32.4551 H   0  0  0  0  0  0  0  0  0  0  0  0
   -4.4128   21.6048  -34.0512 H   0  0  0  0  0  0  0  0  0  0  0  0
   -5.8709   23.7186  -32.2090 H   0  0  0  0  0  0  0  0  0  0  0  0
   -8.2820   23.9228  -31.6370 H   0  0  0  0  0  0  0  0  0  0  0  0
   -9.7554   21.9223  -31.6967 H   0  0  0  0  0  0  0  0  0  0  0  0
   -8.8576   18.4881  -30.5297 H   0  0  0  0  0  0  0  0  0  0  0  0
   -9.6097   17.5216  -31.8438 H   0  0  0  0  0  0  0  0  0  0  0  0
   -7.8369   17.8113  -31.8438 H   0  0  0  0  0  0  0  0  0  0  0  0
   -5.9553   17.6253  -34.3323 H   0  0  0  0  0  0  0  0  0  0  0  0
   -7.0612   18.9198  -34.9048 H   0  0  0  0  0  0  0  0  0  0  0  0
   -5.2855   19.1907  -34.9048 H   0  0  0  0  0  0  0  0  0  0  0  0
   -4.0623   22.6648  -31.0946 H   0  0  0  0  0  0  0  0  0  0  0  0
   -5.4320   25.2949  -29.1828 H   0  0  0  0  0  0  0  0  0  0  0  0
   -5.6458   26.1940  -30.7232 H   0  0  0  0  0  0  0  0  0  0  0  0
   -5.6534   24.3977  -30.7232 H   0  0  0  0  0  0  0  0  0  0  0  0
  1  2  1  0
  2  3  1  0
  3  4  2  0
  4  5  1  0
  5  6  2  0
  6  7  1  0
  7  8  1  0
  8  9  1  0
  9 10  1  0
 10 11  1  0
 11 12  2  0
 12 13  1  0
 13 14  2  0
 14 15  1  0
 15 16  1  0
 16 17  1  0
 15 18  2  0
 18 19  1  0
 19 20  1  0
  6 21  1  0
 21 22  2  0
 22 23  1  0
 23 24  1  0
 22  3  1  0
 18 11  1  0
  1 25  1  0
  1 26  1  0
  1 27  1  0
  4 28  1  0
  5 29  1  0
  7 30  1  0
  7 31  1  0
  8 32  1  0
  8 33  1  0
  9 34  1  0
  9 35  1  0
 10 36  1  0
 10 37  1  0
 12 38  1  0
 13 39  1  0
 14 40  1  0
 17 41  1  0
 17 42  1  0
 17 43  1  0
 20 44  1  0
 20 45  1  0
 20 46  1  0
 21 47  1  0
 24 48  1  0
 24 49  1  0
 24 50  1  0
M  CHG  1   9   1
M  END
>  <UniqueID>  (16) 
15

>  <SMILES>  (16) 
COc1ccc(CC[NH2+]Cc2cccc(OC)c2OC)cc1OC

>  <Energy>  (16) 
46.9481678137725

>  <Genealogy>  (16) 
COc1ccc(CC[NH2+]Cc2cccc(OC)c2OC)cc1OC (protonated)
COc1ccc(CC[NH2+]Cc2cccc(OC)c2OC)cc1OC (3D coordinates assigned)
COc1ccc(CC[NH2+]Cc2cccc(OC)c2OC)cc1OC (optimized conformer: 46.9481678137725 kcal/mol)

>  <smiles>  (16) 
COc1ccc(CCNCc2cccc(OC)c2OC)cc1OC

>  <score_type>  (16) 
oracle

>  <origin>  (16) 
adgpu

>  <m_score__min__energy>  (16) 
-6.8700000000000001

>  <m_primary>  (16) 
energy

$$$$
16:0
     RDKit          3D

 54 56  0  0  0  0  0  0  0  0999 V2000
   -0.8890   26.5540  -28.0560 C   0  0  0  0  0  0  0  0  0  0  0  0
   -1.5650   25.6830  -28.9600 O   0  0  0  0  0  0  0  0  0  0  0  0
   -1.6730   24.2920  -28.8020 C   0  0  0  0  0  0  0  0  0  0  0  0
   -0.5510   23.4450  -28.8990 C   0  0  0  0  0  0  0  0  0  0  0  0
   -0.6860   22.0680  -28.6940 C   0  0  0  0  0  0  0  0  0  0  0  0
   -1.9310   21.5270  -28.3930 C   0  0  0  0  0  0  0  0  0  0  0  0
   -3.0540   22.3540  -28.2930 C   0  0  0  0  0  0  0  0  0  0  0  0
   -2.9370   23.7280  -28.5160 C   0  0  0  0  0  0  0  0  0  0  0  0
   -4.1170   24.5370  -28.4710 N   0  0  0  0  0  0  0  0  0  0  0  0
   -5.0510   24.8840  -29.8900 S   0  0  0  0  0  0  0  0  0  0  0  0
   -6.2450   25.7090  -29.5020 O   0  0  0  0  0  0  0  0  0  0  0  0
   -4.2320   25.6660  -30.8790 O   0  0  0  0  0  0  0  0  0  0  0  0
   -5.6020   23.3710  -30.6070 C   0  0  0  0  0  0  0  0  0  0  0  0
   -6.9690   23.1340  -30.7940 C   0  0  0  0  0  0  0  0  0  0  0  0
   -7.4000   21.9770  -31.4430 C   0  0  0  0  0  0  0  0  0  0  0  0
   -6.4730   21.0260  -31.9000 C   0  0  0  0  0  0  0  0  0  0  0  0
   -6.9400   19.9020  -32.6710 N   0  0  0  0  0  0  0  0  0  0  0  0
   -6.4740   19.6940  -34.0460 C   0  0  0  0  0  0  0  0  0  0  0  0
   -5.8040   18.3120  -34.1950 C   0  0  0  0  0  0  0  0  0  0  0  0
   -6.1400   17.3890  -33.0860 N   0  0  0  0  0  0  0  0  0  0  0  0
   -5.8270   16.0020  -33.4620 C   0  0  0  0  0  0  0  0  0  0  0  0
   -7.5570   17.5110  -32.7010 C   0  0  0  0  0  0  0  0  0  0  0  0
   -7.7830   18.8750  -32.0390 C   0  0  0  0  0  0  0  0  0  0  0  0
   -5.0930   21.2390  -31.6690 C   0  0  0  0  0  0  0  0  0  0  0  0
   -4.1030   20.2770  -32.0580 N   0  0  0  0  0  0  0  0  0  0  0  0
   -3.0240   20.5900  -32.9490 C   0  0  0  0  0  0  0  0  0  0  0  0
   -2.0210   19.5390  -33.3000 C   0  0  0  0  0  0  0  0  0  0  0  0
   -2.9130   21.7460  -33.4400 O   0  0  0  0  0  0  0  0  0  0  0  0
   -4.6700   22.4260  -31.0520 C   0  0  0  0  0  0  0  0  0  0  0  0
   -1.1183   26.2585  -27.0215 H   0  0  0  0  0  0  0  0  0  0  0  0
    0.1960   26.4871  -28.2245 H   0  0  0  0  0  0  0  0  0  0  0  0
   -1.2231   27.5884  -28.2245 H   0  0  0  0  0  0  0  0  0  0  0  0
    0.4358   23.8688  -29.1371 H   0  0  0  0  0  0  0  0  0  0  0  0
    0.1938   21.4123  -28.7710 H   0  0  0  0  0  0  0  0  0  0  0  0
   -2.0329   20.4435  -28.2328 H   0  0  0  0  0  0  0  0  0  0  0  0
   -4.0326   21.9213  -28.0379 H   0  0  0  0  0  0  0  0  0  0  0  0
   -7.7064   23.8633  -30.4275 H   0  0  0  0  0  0  0  0  0  0  0  0
   -8.4758   21.8079  -31.5983 H   0  0  0  0  0  0  0  0  0  0  0  0
   -7.3328   19.7540  -34.7307 H   0  0  0  0  0  0  0  0  0  0  0  0
   -5.7351   20.4718  -34.2890 H   0  0  0  0  0  0  0  0  0  0  0  0
   -6.1365   17.8603  -35.1413 H   0  0  0  0  0  0  0  0  0  0  0  0
   -4.7153   18.4680  -34.1779 H   0  0  0  0  0  0  0  0  0  0  0  0
   -5.6906   15.3976  -32.5531 H   0  0  0  0  0  0  0  0  0  0  0  0
   -6.6543   15.5878  -34.0571 H   0  0  0  0  0  0  0  0  0  0  0  0
   -4.9020   15.9832  -34.0571 H   0  0  0  0  0  0  0  0  0  0  0  0
   -8.1902   17.4271  -33.5965 H   0  0  0  0  0  0  0  0  0  0  0  0
   -7.8188   16.7092  -31.9949 H   0  0  0  0  0  0  0  0  0  0  0  0
   -8.8404   19.1585  -32.1465 H   0  0  0  0  0  0  0  0  0  0  0  0
   -7.5157   18.8018  -30.9745 H   0  0  0  0  0  0  0  0  0  0  0  0
   -4.2740   19.2720  -31.8250 H   0  0  0  0  0  0  0  0  0  0  0  0
   -1.6068   19.1050  -32.3780 H   0  0  0  0  0  0  0  0  0  0  0  0
   -2.5088   18.7492  -33.8902 H   0  0  0  0  0  0  0  0  0  0  0  0
   -1.2093   19.9893  -33.8902 H   0  0  0  0  0  0  0  0  0  0  0  0
   -3.5950   22.6160  -30.9166 H   0  0  0  0  0  0  0  0  0  0  0  0
  1  2  1  0
  2  3  1  0
  3  4  2  0
  4  5  1  0
  5  6  2  0
  6  7  1  0
  7  8  2  0
  8  9  1  0
  9 10  1  0
 10 11  2  0
 10 12  2  0
 10 13  1  0
 13 14  2  0
 14 15  1  0
 15 16  2  0
 16 17  1  0
 17 18  1  0
 18 19  1  0
 19 20  1  0
 20 21  1  0
 20 22  1  0
 22 23  1  0
 16 24  1  0
 24 25  1  0
 25 26  1  0
 26 27  1  0
 26 28  2  0
 24 29  2  0
  8  3  1  0
 29 13  1  0
 23 17  1  0
  1 30  1  0
  1 31  1  0
  1 32  1  0
  4 33  1  0
  5 34  1  0
  6 35  1  0
  7 36  1  0
 14 37  1  0
 15 38  1  0
 18 39  1  0
 18 40  1  0
 19 41  1  0
 19 42  1  0
 21 43  1  0
 21 44  1  0
 21 45  1  0
 22 46  1  0
 22 47  1  0
 23 48  1  0
 23 49  1  0
 25 50  1  0
 27 51  1  0
 27 52  1  0
 27 53  1  0
 29 54  1  0
M  CHG  1   9  -1
M  END
>  <UniqueID>  (17) 
16

>  <SMILES>  (17) 
COc1ccccc1[N-]S(=O)(=O)c1ccc(N2CCN(C)CC2)c(NC(C)=O)c1

>  <Energy>  (17) 
74.7021539096024

>  <Genealogy>  (17) 
COc1ccccc1[N-]S(=O)(=O)c1ccc(N2CCN(C)CC2)c(NC(C)=O)c1 (protonated)
COc1ccccc1[N-]S(=O)(=O)c1ccc(N2CCN(C)CC2)c(NC(C)=O)c1 (3D coordinates assigned)
COc1ccccc1[N-]S(=O)(=O)c1ccc(N2CCN(C)CC2)c(NC(C)=O)c1 (nonaromatic ring conformer: 74.7021539096024 kcal/mol)

>  <smiles>  (17) 
COc1ccccc1NS(=O)(=O)c1ccc(N2CCN(C)CC2)c(NC(C)=O)c1

>  <score_type>  (17) 
oracle

>  <origin>  (17) 
adgpu

>  <m_score__min__energy>  (17) 
-11.27

>  <m_primary>  (17) 
energy

$$$$
17:0
     RDKit          3D

 35 38  0  0  0  0  0  0  0  0999 V2000
   -3.5450   25.2940  -30.4930 N   0  0  0  0  0  0  0  0  0  0  0  0
   -5.2280   24.9670  -30.2680 S   0  0  0  0  0  0  0  0  0  0  0  0
   -6.0370   25.9610  -31.0510 O   0  0  0  0  0  0  0  0  0  0  0  0
   -5.5760   25.1010  -28.8120 O   0  0  0  0  0  0  0  0  0  0  0  0
   -5.5890   23.3350  -30.8190 C   0  0  0  0  0  0  0  0  0  0  0  0
   -4.6310   22.3210  -30.6910 C   0  0  0  0  0  0  0  0  0  0  0  0
   -4.9110   21.0270  -31.1400 C   0  0  0  0  0  0  0  0  0  0  0  0
   -6.1570   20.7300  -31.7140 C   0  0  0  0  0  0  0  0  0  0  0  0
   -6.4350   19.3670  -32.2100 C   0  0  0  0  0  0  0  0  0  0  0  0
   -7.6510   18.6990  -32.1060 C   0  0  0  0  0  0  0  0  0  0  0  0
   -7.5550   17.4560  -32.6260 N   0  0  0  0  0  0  0  0  0  0  0  0
   -6.2910   17.3310  -33.0720 C   0  0  0  0  0  0  0  0  0  0  0  0
   -5.5760   18.4790  -32.8420 C   0  0  0  0  0  0  0  0  0  0  0  0
   -4.2550   18.5840  -33.2920 C   0  0  0  0  0  0  0  0  0  0  0  0
   -3.5980   19.6480  -33.1520 O   0  0  0  0  0  0  0  0  0  0  0  0
   -3.6980   17.5360  -33.9030 O   0  0  0  0  0  0  0  0  0  0  0  0
   -4.3520   16.3870  -34.1210 C   0  0  0  0  0  0  0  0  0  0  0  0
   -3.7020   15.3290  -34.7640 C   0  0  0  0  0  0  0  0  0  0  0  0
   -4.3820   14.1310  -35.0070 C   0  0  0  0  0  0  0  0  0  0  0  0
   -5.7150   13.9830  -34.6080 C   0  0  0  0  0  0  0  0  0  0  0  0
   -6.3800   15.0300  -33.9630 C   0  0  0  0  0  0  0  0  0  0  0  0
   -5.7040   16.2360  -33.7130 C   0  0  0  0  0  0  0  0  0  0  0  0
   -7.1040   21.7560  -31.8680 C   0  0  0  0  0  0  0  0  0  0  0  0
   -6.8230   23.0490  -31.4190 C   0  0  0  0  0  0  0  0  0  0  0  0
   -3.4750   26.0410  -31.2210 H   0  0  0  0  0  0  0  0  0  0  0  0
   -3.6548   22.5437  -30.2355 H   0  0  0  0  0  0  0  0  0  0  0  0
   -4.1511   20.2377  -31.0430 H   0  0  0  0  0  0  0  0  0  0  0  0
   -8.5634   19.1239  -31.6622 H   0  0  0  0  0  0  0  0  0  0  0  0
   -8.3230   16.7510  -32.6700 H   0  0  0  0  0  0  0  0  0  0  0  0
   -2.6539   15.4390  -35.0793 H   0  0  0  0  0  0  0  0  0  0  0  0
   -3.8667   13.3018  -35.5139 H   0  0  0  0  0  0  0  0  0  0  0  0
   -6.2426   13.0376  -34.8029 H   0  0  0  0  0  0  0  0  0  0  0  0
   -7.4284   14.9101  -33.6524 H   0  0  0  0  0  0  0  0  0  0  0  0
   -8.0717   21.5404  -32.3445 H   0  0  0  0  0  0  0  0  0  0  0  0
   -7.5728   23.8452  -31.5368 H   0  0  0  0  0  0  0  0  0  0  0  0
  1  2  1  0
  2  3  2  0
  2  4  2  0
  2  5  1  0
  5  6  2  0
  6  7  1  0
  7  8  2  0
  8  9  1  0
  9 10  2  0
 10 11  1  0
 11 12  1  0
 12 13  2  0
 13 14  1  0
 14 15  2  0
 14 16  1  0
 16 17  1  0
 17 18  2  0
 18 19  1  0
 19 20  2  0
 20 21  1  0
 21 22  2  0
  8 23  1  0
 23 24  2  0
 24  5  1  0
 13  9  1  0
 22 17  1  0
 22 12  1  0
  1 25  1  0
  6 26  1  0
  7 27  1  0
 10 28  1  0
 11 29  1  0
 18 30  1  0
 19 31  1  0
 20 32  1  0
 21 33  1  0
 23 34  1  0
 24 35  1  0
M  CHG  1   1  -1
M  END
>  <UniqueID>  (18) 
17

>  <SMILES>  (18) 
[NH-]S(=O)(=O)c1ccc(-c2c[nH]c3c2c(=O)oc2ccccc23)cc1

>  <Energy>  (18) 
84.60346793149505

>  <Genealogy>  (18) 
[NH-]S(=O)(=O)c1ccc(-c2c[nH]c3c2c(=O)oc2ccccc23)cc1 (protonated)
[NH-]S(=O)(=O)c1ccc(-c2c[nH]c3c2c(=O)oc2ccccc23)cc1 (3D coordinates assigned)
[NH-]S(=O)(=O)c1ccc(-c2c[nH]c3c2c(=O)oc2ccccc23)cc1 (optimized conformer: 84.60346793149505 kcal/mol)

>  <smiles>  (18) 
NS(=O)(=O)c1ccc(-c2c[nH]c3c2c(=O)oc2ccccc23)cc1

>  <score_type>  (18) 
oracle

>  <origin>  (18) 
adgpu

>  <m_score__min__energy>  (18) 
-10.140000000000001

>  <m_primary>  (18) 
energy

$$$$
18:0
     RDKit          3D

 56 59  0  0  0  0  0  0  0  0999 V2000
   -4.3110   25.4550  -27.7590 H   0  0  0  0  0  0  0  0  0  0  0  0
   -4.3480   24.9150  -26.9280 O   0  0  0  0  0  0  0  0  0  0  0  0
   -3.0680   24.9820  -26.3640 C   0  0  0  0  0  0  0  0  0  0  0  0
   -3.0782   24.5045  -25.3731 H   0  0  0  0  0  0  0  0  0  0  0  0
   -2.7672   26.0349  -26.2598 H   0  0  0  0  0  0  0  0  0  0  0  0
   -2.0750   24.2550  -27.2700 C   0  0  0  0  0  0  0  0  0  0  0  0
   -2.5276   23.3142  -27.6165 H   0  0  0  0  0  0  0  0  0  0  0  0
   -1.1592   24.0556  -26.6942 H   0  0  0  0  0  0  0  0  0  0  0  0
   -1.7070   25.1100  -28.4860 C   0  0  0  0  0  0  0  0  0  0  0  0
   -0.8956   24.6176  -29.0421 H   0  0  0  0  0  0  0  0  0  0  0  0
   -1.3819   26.1014  -28.1376 H   0  0  0  0  0  0  0  0  0  0  0  0
   -2.8350   25.2710  -29.3460 O   0  0  0  0  0  0  0  0  0  0  0  0
   -3.6100   24.2280  -29.8790 C   0  0  0  0  0  0  0  0  0  0  0  0
   -3.1760   22.8750  -29.8850 C   0  0  0  0  0  0  0  0  0  0  0  0
   -2.1957   22.6154  -29.4588 H   0  0  0  0  0  0  0  0  0  0  0  0
   -3.9870   21.8660  -30.4300 C   0  0  0  0  0  0  0  0  0  0  0  0
   -3.6751   20.8118  -30.3917 H   0  0  0  0  0  0  0  0  0  0  0  0
   -5.2010   22.2320  -31.0230 C   0  0  0  0  0  0  0  0  0  0  0  0
   -6.2350   21.4630  -31.5610 C   0  0  0  0  0  0  0  0  0  0  0  0
   -6.2300   20.0890  -31.8590 C   0  0  0  0  0  0  0  0  0  0  0  0
   -5.1820   19.4900  -32.3710 N   0  0  0  0  0  0  0  0  0  0  0  0
   -4.0270   20.0560  -33.0750 C   0  0  0  0  0  0  0  0  0  0  0  0
   -4.3581   20.4898  -34.0301 H   0  0  0  0  0  0  0  0  0  0  0  0
   -3.5692   20.8382  -32.4516 H   0  0  0  0  0  0  0  0  0  0  0  0
   -2.9960   18.9580  -33.3460 C   0  0  0  0  0  0  0  0  0  0  0  0
   -2.2661   19.3202  -34.0850 H   0  0  0  0  0  0  0  0  0  0  0  0
   -2.4862   18.7061  -32.4044 H   0  0  0  0  0  0  0  0  0  0  0  0
   -3.6610   17.7470  -33.8710 N   0  0  0  0  0  0  0  0  0  0  0  0
   -4.2470   16.9470  -32.7690 C   0  0  0  0  0  0  0  0  0  0  0  0
   -3.4388   16.4178  -32.2430 H   0  0  0  0  0  0  0  0  0  0  0  0
   -4.7751   17.6320  -32.0893 H   0  0  0  0  0  0  0  0  0  0  0  0
   -5.2550   15.9200  -33.2930 C   0  0  0  0  0  0  0  0  0  0  0  0
   -4.7533   15.2611  -34.0170 H   0  0  0  0  0  0  0  0  0  0  0  0
   -5.6364   15.3382  -32.4409 H   0  0  0  0  0  0  0  0  0  0  0  0
   -6.4430   16.6130  -33.9830 C   0  0  0  0  0  0  0  0  0  0  0  0
   -6.7855   15.9798  -34.8147 H   0  0  0  0  0  0  0  0  0  0  0  0
   -7.2309   16.7531  -33.2283 H   0  0  0  0  0  0  0  0  0  0  0  0
   -6.0780   18.0000  -34.5380 C   0  0  0  0  0  0  0  0  0  0  0  0
   -6.7194   18.2198  -35.4041 H   0  0  0  0  0  0  0  0  0  0  0  0
   -6.2310   18.7443  -33.7426 H   0  0  0  0  0  0  0  0  0  0  0  0
   -4.6090   18.0540  -34.9770 C   0  0  0  0  0  0  0  0  0  0  0  0
   -4.4566   17.3212  -35.7831 H   0  0  0  0  0  0  0  0  0  0  0  0
   -4.4028   19.0812  -35.3123 H   0  0  0  0  0  0  0  0  0  0  0  0
   -7.3130   19.3040  -31.6120 N   0  0  0  0  0  0  0  0  0  0  0  0
   -7.1110   18.2780  -31.5400 H   0  0  0  0  0  0  0  0  0  0  0  0
   -8.6410   19.6110  -31.6590 C   0  0  0  0  0  0  0  0  0  0  0  0
   -9.4640   18.6710  -31.4760 O   0  0  0  0  0  0  0  0  0  0  0  0
   -9.1930   20.8570  -31.9900 C   0  0  0  0  0  0  0  0  0  0  0  0
  -10.2423   20.8551  -32.3203 H   0  0  0  0  0  0  0  0  0  0  0  0
   -8.5780   22.0600  -31.9480 N   0  0  0  0  0  0  0  0  0  0  0  0
   -7.2940   22.3560  -31.6740 C   0  0  0  0  0  0  0  0  0  0  0  0
   -6.9140   23.6190  -31.3790 N   0  0  0  0  0  0  0  0  0  0  0  0
   -7.5190   24.4690  -31.3630 H   0  0  0  0  0  0  0  0  0  0  0  0
   -5.6420   23.5290  -30.9640 C   0  0  0  0  0  0  0  0  0  0  0  0
   -4.8710   24.5510  -30.4130 C   0  0  0  0  0  0  0  0  0  0  0  0
   -5.2401   25.5871  -30.3960 H   0  0  0  0  0  0  0  0  0  0  0  0
  1  2  1  0
  2  3  1  0
  3  4  1  0
  3  5  1  0
  3  6  1  0
  6  7  1  0
  6  8  1  0
  6  9  1  0
  9 10  1  0
  9 11  1  0
  9 12  1  0
 12 13  1  0
 13 14  2  0
 14 15  1  0
 14 16  1  0
 16 17  1  0
 16 18  2  0
 18 19  1  0
 19 20  1  0
 20 21  2  0
 21 22  1  0
 22 23  1  0
 22 24  1  0
 22 25  1  0
 25 26  1  0
 25 27  1  0
 25 28  1  0
 28 29  1  0
 29 30  1  0
 29 31  1  0
 29 32  1  0
 32 33  1  0
 32 34  1  0
 32 35  1  0
 35 36  1  0
 35 37  1  0
 35 38  1  0
 38 39  1  0
 38 40  1  0
 38 41  1  0
 41 42  1  0
 41 43  1  0
 20 44  1  0
 44 45  1  0
 44 46  1  0
 46 47  2  0
 46 48  1  0
 48 49  1  0
 48 50  2  0
 50 51  1  0
 51 52  1  0
 52 53  1  0
 52 54  1  0
 54 55  2  0
 55 56  1  0
 55 13  1  0
 54 18  1  0
 51 19  2  0
 41 28  1  0
M  END
>  <UniqueID>  (19) 
18

>  <SMILES>  (19) 
O=c1cnc2[nH]c3cc(OCCCO)ccc3c2/c(=N\CCN2CCCCC2)[nH]1

>  <Energy>  (19) 
140.06346173801094

>  <Genealogy>  (19) 
O=c1cnc2[nH]c3cc(OCCCO)ccc3c2/c(=N\CCN2CCCCC2)[nH]1 (cis-trans isomerization)
O=c1cnc2[nH]c3cc(OCCCO)ccc3c2/c(=N\CCN2CCCCC2)[nH]1 (3D coordinates assigned)
O=c1cnc2[nH]c3cc(OCCCO)ccc3c2/c(=N\CCN2CCCCC2)[nH]1 (nonaromatic ring conformer: 140.06346173801094 kcal/mol)

>  <smiles>  (19) 
O=c1cnc2[nH]c3cc(OCCCO)ccc3c2c(=NCCN2CCCCC2)[nH]1

>  <score_type>  (19) 
oracle

>  <origin>  (19) 
adgpu

>  <m_score__min__energy>  (19) 
-8.6799999999999997

>  <m_primary>  (19) 
energy

$$$$
19:0
     RDKit          3D

 48 51  0  0  0  0  0  0  0  0999 V2000
   -3.8244   18.6921  -33.1523 H   0  0  0  0  0  0  0  0  0  0  0  0
   -3.0460   19.4500  -32.9800 C   0  0  0  0  0  0  0  0  0  0  0  0
   -2.1370   19.7570  -33.9940 C   0  0  0  0  0  0  0  0  0  0  0  0
   -2.1992   19.2410  -34.9635 H   0  0  0  0  0  0  0  0  0  0  0  0
   -1.1480   20.7200  -33.7770 C   0  0  0  0  0  0  0  0  0  0  0  0
   -0.0000   21.1000  -35.0490 Cl  0  0  0  0  0  0  0  0  0  0  0  0
   -1.0690   21.3790  -32.5450 C   0  0  0  0  0  0  0  0  0  0  0  0
   -0.2912   22.1393  -32.3808 H   0  0  0  0  0  0  0  0  0  0  0  0
   -1.9790   21.0750  -31.5140 C   0  0  0  0  0  0  0  0  0  0  0  0
   -1.8800   21.7540  -30.2010 C   0  0  0  0  0  0  0  0  0  0  0  0
   -1.4150   21.1290  -29.2090 O   0  0  0  0  0  0  0  0  0  0  0  0
   -2.2840   23.1300  -30.0720 N   0  0  0  0  0  0  0  0  0  0  0  0
   -3.4110   23.6610  -30.4530 C   0  0  0  0  0  0  0  0  0  0  0  0
   -4.4460   23.0460  -31.1360 C   0  0  0  0  0  0  0  0  0  0  0  0
   -4.5405   21.9890  -31.4255 H   0  0  0  0  0  0  0  0  0  0  0  0
   -5.3350   24.0850  -31.3670 C   0  0  0  0  0  0  0  0  0  0  0  0
   -6.5880   23.9930  -32.0620 N   0  0  0  0  0  0  0  0  0  0  0  0
   -6.9650   24.8650  -32.4960 H   0  0  0  0  0  0  0  0  0  0  0  0
   -7.3690   22.7890  -32.1500 C   0  0  0  0  0  0  0  0  0  0  0  0
   -8.7460   22.8360  -31.8950 C   0  0  0  0  0  0  0  0  0  0  0  0
   -9.2239   23.7945  -31.6440 H   0  0  0  0  0  0  0  0  0  0  0  0
   -9.5150   21.6710  -31.9580 C   0  0  0  0  0  0  0  0  0  0  0  0
  -10.5958   21.7164  -31.7582 H   0  0  0  0  0  0  0  0  0  0  0  0
   -8.9160   20.4480  -32.2740 C   0  0  0  0  0  0  0  0  0  0  0  0
   -9.5240   19.5317  -32.3029 H   0  0  0  0  0  0  0  0  0  0  0  0
   -7.5400   20.3840  -32.5550 C   0  0  0  0  0  0  0  0  0  0  0  0
   -6.8810   19.0850  -32.8480 C   0  0  0  0  0  0  0  0  0  0  0  0
   -6.9870   18.0070  -31.9530 C   0  0  0  0  0  0  0  0  0  0  0  0
   -7.5614   18.1232  -31.0221 H   0  0  0  0  0  0  0  0  0  0  0  0
   -6.3670   16.7890  -32.2390 C   0  0  0  0  0  0  0  0  0  0  0  0
   -6.4564   15.9492  -31.5341 H   0  0  0  0  0  0  0  0  0  0  0  0
   -5.6340   16.6340  -33.4170 C   0  0  0  0  0  0  0  0  0  0  0  0
   -5.1498   15.6707  -33.6352 H   0  0  0  0  0  0  0  0  0  0  0  0
   -5.5100   17.6930  -34.3220 C   0  0  0  0  0  0  0  0  0  0  0  0
   -4.7620   17.4890  -35.4920 O   0  0  0  0  0  0  0  0  0  0  0  0
   -3.6440   16.6090  -35.5900 C   0  0  0  0  0  0  0  0  0  0  0  0
   -3.3006   16.3387  -34.5806 H   0  0  0  0  0  0  0  0  0  0  0  0
   -3.9401   15.6990  -36.1325 H   0  0  0  0  0  0  0  0  0  0  0  0
   -2.8291   17.1105  -36.1325 H   0  0  0  0  0  0  0  0  0  0  0  0
   -6.1360   18.9210  -34.0320 C   0  0  0  0  0  0  0  0  0  0  0  0
   -6.0421   19.7601  -34.7371 H   0  0  0  0  0  0  0  0  0  0  0  0
   -6.7840   21.5680  -32.5270 C   0  0  0  0  0  0  0  0  0  0  0  0
   -5.7198   21.5389  -32.8039 H   0  0  0  0  0  0  0  0  0  0  0  0
   -4.8710   25.2310  -30.8300 N   0  0  0  0  0  0  0  0  0  0  0  0
   -3.6970   24.9640  -30.2810 N   0  0  0  0  0  0  0  0  0  0  0  0
   -3.0960   25.6740  -29.8060 H   0  0  0  0  0  0  0  0  0  0  0  0
   -2.9700   20.1030  -31.7460 C   0  0  0  0  0  0  0  0  0  0  0  0
   -3.6893   19.8555  -30.9515 H   0  0  0  0  0  0  0  0  0  0  0  0
  1  2  1  0
  2  3  2  0
  3  4  1  0
  3  5  1  0
  5  6  1  0
  5  7  2  0
  7  8  1  0
  7  9  1  0
  9 10  1  0
 10 11  2  0
 10 12  1  0
 12 13  2  0
 13 14  1  0
 14 15  1  0
 14 16  2  0
 16 17  1  0
 17 18  1  0
 17 19  1  0
 19 20  2  0
 20 21  1  0
 20 22  1  0
 22 23  1  0
 22 24  2  0
 24 25  1  0
 24 26  1  0
 26 27  1  0
 27 28  2  0
 28 29  1  0
 28 30  1  0
 30 31  1  0
 30 32  2  0
 32 33  1  0
 32 34  1  0
 34 35  1  0
 35 36  1  0
 36 37  1  0
 36 38  1  0
 36 39  1  0
 34 40  2  0
 40 41  1  0
 26 42  2  0
 42 43  1  0
 16 44  1  0
 44 45  1  0
 45 46  1  0
  9 47  2  0
 47 48  1  0
 47  2  1  0
 45 13  1  0
 42 19  1  0
 40 27  1  0
M  CHG  1  44  -1
M  END
>  <UniqueID>  (20) 
19

>  <SMILES>  (20) 
COc1cccc(-c2cccc(Nc3c/c(=N\C(=O)c4cccc(Cl)c4)[nH][n-]3)c2)c1

>  <Energy>  (20) 
95.28786750719404

>  <Genealogy>  (20) 
COc1cccc(-c2cccc(Nc3cc(=NC(=O)c4cccc(Cl)c4)[nH][n-]3)c2)c1 (protonated)
COc1cccc(-c2cccc(Nc3c/c(=N\C(=O)c4cccc(Cl)c4)[nH][n-]3)c2)c1 (cis-trans isomerization)
COc1cccc(-c2cccc(Nc3c/c(=N\C(=O)c4cccc(Cl)c4)[nH][n-]3)c2)c1 (3D coordinates assigned)
COc1cccc(-c2cccc(Nc3c/c(=N\C(=O)c4cccc(Cl)c4)[nH][n-]3)c2)c1 (optimized conformer: 95.28786750719404 kcal/mol)

>  <smiles>  (20) 
COc1cccc(-c2cccc(Nc3cc(=NC(=O)c4cccc(Cl)c4)[nH][nH]3)c2)c1

>  <score_type>  (20) 
oracle

>  <origin>  (20) 
adgpu

>  <m_score__min__energy>  (20) 
-11.49

>  <m_primary>  (20) 
energy

$$$$
20:0
     RDKit          3D

 49 52  0  0  0  0  0  0  0  0999 V2000
   -0.3810   20.0970  -32.6100 O   0  0  0  0  0  0  0  0  0  0  0  0
   -0.5470   20.5950  -33.7570 C   0  0  0  0  0  0  0  0  0  0  0  0
   -1.8770   20.7550  -34.2790 N   0  0  0  0  0  0  0  0  0  0  0  0
   -3.0130   20.0030  -33.8160 C   0  0  0  0  0  0  0  0  0  0  0  0
   -2.9840   18.5980  -33.7460 C   0  0  0  0  0  0  0  0  0  0  0  0
   -4.1080   17.8900  -33.3130 C   0  0  0  0  0  0  0  0  0  0  0  0
   -5.2760   18.5720  -32.9520 C   0  0  0  0  0  0  0  0  0  0  0  0
   -6.6850   17.6720  -32.3980 S   0  0  0  0  0  0  0  0  0  0  0  0
   -6.7940   16.3630  -33.1280 O   0  0  0  0  0  0  0  0  0  0  0  0
   -6.5450   17.4030  -30.9260 O   0  0  0  0  0  0  0  0  0  0  0  0
   -8.1270   18.5940  -32.6750 N   0  0  0  0  0  0  0  0  0  0  0  0
   -8.3460   19.7480  -32.1260 C   0  0  0  0  0  0  0  0  0  0  0  0
   -7.4840   20.3590  -31.2830 N   0  0  0  0  0  0  0  0  0  0  0  0
   -7.9740   21.5510  -30.8530 C   0  0  0  0  0  0  0  0  0  0  0  0
   -9.2270   21.8900  -31.3550 C   0  0  0  0  0  0  0  0  0  0  0  0
   -9.7390   20.6500  -32.3730 S   0  0  0  0  0  0  0  0  0  0  0  0
   -5.3190   19.9690  -33.0450 C   0  0  0  0  0  0  0  0  0  0  0  0
   -4.1960   20.6790  -33.4800 C   0  0  0  0  0  0  0  0  0  0  0  0
    0.6300   21.0600  -34.5300 C   0  0  0  0  0  0  0  0  0  0  0  0
    1.8360   20.3370  -34.4850 C   0  0  0  0  0  0  0  0  0  0  0  0
    2.9430   20.7620  -35.2230 C   0  0  0  0  0  0  0  0  0  0  0  0
    2.8620   21.9120  -36.0090 C   0  0  0  0  0  0  0  0  0  0  0  0
    1.6770   22.6530  -36.0610 C   0  0  0  0  0  0  0  0  0  0  0  0
    1.6370   23.7950  -36.8740 O   0  0  0  0  0  0  0  0  0  0  0  0
    1.0420   25.0160  -36.5240 C   0  0  0  0  0  0  0  0  0  0  0  0
   -0.2500   25.2850  -36.8570 N   0  0  0  0  0  0  0  0  0  0  0  0
   -0.8570   26.4530  -36.5190 C   0  0  0  0  0  0  0  0  0  0  0  0
   -0.1500   27.4370  -35.8080 C   0  0  0  0  0  0  0  0  0  0  0  0
   -0.8280   28.7140  -35.3830 C   0  0  0  0  0  0  0  0  0  0  0  0
   -1.1570   28.6300  -34.0430 F   0  0  0  0  0  0  0  0  0  0  0  0
   -1.9820   28.9210  -36.1180 F   0  0  0  0  0  0  0  0  0  0  0  0
    0.0080   29.7990  -35.5750 F   0  0  0  0  0  0  0  0  0  0  0  0
    1.1710   27.1620  -35.4220 C   0  0  0  0  0  0  0  0  0  0  0  0
    1.7740   25.9540  -35.7850 C   0  0  0  0  0  0  0  0  0  0  0  0
    3.4310   25.6260  -35.3060 Cl  0  0  0  0  0  0  0  0  0  0  0  0
    0.5550   22.2100  -35.3370 C   0  0  0  0  0  0  0  0  0  0  0  0
   -2.0510   21.5360  -34.9520 H   0  0  0  0  0  0  0  0  0  0  0  0
   -2.0720   18.0544  -34.0336 H   0  0  0  0  0  0  0  0  0  0  0  0
   -4.0750   16.7920  -33.2555 H   0  0  0  0  0  0  0  0  0  0  0  0
   -7.4208   22.2007  -30.1588 H   0  0  0  0  0  0  0  0  0  0  0  0
   -9.7863   22.8092  -31.1263 H   0  0  0  0  0  0  0  0  0  0  0  0
   -6.2387   20.5088  -32.7751 H   0  0  0  0  0  0  0  0  0  0  0  0
   -4.2400   21.7752  -33.5595 H   0  0  0  0  0  0  0  0  0  0  0  0
    1.9076   19.4314  -33.8647 H   0  0  0  0  0  0  0  0  0  0  0  0
    3.8810   20.1887  -35.1845 H   0  0  0  0  0  0  0  0  0  0  0  0
    3.7361   22.2380  -36.5917 H   0  0  0  0  0  0  0  0  0  0  0  0
   -1.9051   26.6285  -36.8030 H   0  0  0  0  0  0  0  0  0  0  0  0
    1.7341   27.8998  -34.8316 H   0  0  0  0  0  0  0  0  0  0  0  0
   -0.3905   22.7684  -35.4026 H   0  0  0  0  0  0  0  0  0  0  0  0
  1  2  2  0
  2  3  1  0
  3  4  1  0
  4  5  2  0
  5  6  1  0
  6  7  2  0
  7  8  1  0
  8  9  2  0
  8 10  2  0
  8 11  1  0
 11 12  2  3
 12 13  1  0
 13 14  1  0
 14 15  2  0
 15 16  1  0
  7 17  1  0
 17 18  2  0
  2 19  1  0
 19 20  2  0
 20 21  1  0
 21 22  2  0
 22 23  1  0
 23 24  1  0
 24 25  1  0
 25 26  2  0
 26 27  1  0
 27 28  2  0
 28 29  1  0
 29 30  1  0
 29 31  1  0
 29 32  1  0
 28 33  1  0
 33 34  2  0
 34 35  1  0
 23 36  2  0
 18  4  1  0
 36 19  1  0
 16 12  1  0
 34 25  1  0
  3 37  1  0
  5 38  1  0
  6 39  1  0
 14 40  1  0
 15 41  1  0
 17 42  1  0
 18 43  1  0
 20 44  1  0
 21 45  1  0
 22 46  1  0
 27 47  1  0
 33 48  1  0
 36 49  1  0
M  CHG  1  13  -1
M  END
>  <UniqueID>  (21) 
20

>  <SMILES>  (21) 
O=C(Nc1ccc(S(=O)(=O)N=c2[n-]ccs2)cc1)c1cccc(Oc2ncc(C(F)(F)F)cc2Cl)c1

>  <Energy>  (21) 
97.8582425823544

>  <Genealogy>  (21) 
O=C(Nc1ccc(S(=O)(=O)N=c2[n-]ccs2)cc1)c1cccc(Oc2ncc(C(F)(F)F)cc2Cl)c1 (protonated)
O=C(Nc1ccc(S(=O)(=O)N=c2[n-]ccs2)cc1)c1cccc(Oc2ncc(C(F)(F)F)cc2Cl)c1 (3D coordinates assigned)
O=C(Nc1ccc(S(=O)(=O)N=c2[n-]ccs2)cc1)c1cccc(Oc2ncc(C(F)(F)F)cc2Cl)c1 (optimized conformer: 97.8582425823544 kcal/mol)

>  <smiles>  (21) 
O=C(Nc1ccc(S(=O)(=O)N=c2[nH]ccs2)cc1)c1cccc(Oc2ncc(C(F)(F)F)cc2Cl)c1

>  <score_type>  (21) 
oracle

>  <origin>  (21) 
adgpu

>  <m_score__min__energy>  (21) 
-10.289999999999999

>  <m_primary>  (21) 
energy

$$$$
21:0
     RDKit          3D

 38 39  0  0  0  0  0  0  0  0999 V2000
   -2.2260   24.2910  -29.2980 C   0  0  0  0  0  0  0  0  0  0  0  0
   -3.2090   24.9280  -30.1070 O   0  0  0  0  0  0  0  0  0  0  0  0
   -4.5400   24.5010  -30.2200 C   0  0  0  0  0  0  0  0  0  0  0  0
   -5.5530   25.3530  -29.7650 C   0  0  0  0  0  0  0  0  0  0  0  0
   -6.8940   24.9670  -29.8460 C   0  0  0  0  0  0  0  0  0  0  0  0
   -7.2350   23.7290  -30.3950 C   0  0  0  0  0  0  0  0  0  0  0  0
   -6.2350   22.8740  -30.8830 C   0  0  0  0  0  0  0  0  0  0  0  0
   -6.5620   21.5830  -31.4160 N   0  0  0  0  0  0  0  0  0  0  0  0
   -7.8610   21.2060  -31.9180 C   0  0  0  0  0  0  0  0  0  0  0  0
   -9.1050   22.2770  -31.9640 S   0  0  0  0  0  0  0  0  0  0  0  0
   -8.0950   19.8720  -32.3940 N   0  0  0  0  0  0  0  0  0  0  0  0
   -7.1030   19.0730  -33.0610 C   0  0  0  0  0  0  0  0  0  0  0  0
   -5.9580   19.6870  -33.5770 C   0  0  0  0  0  0  0  0  0  0  0  0
   -4.9710   18.9300  -34.2090 C   0  0  0  0  0  0  0  0  0  0  0  0
   -5.1040   17.5360  -34.3250 C   0  0  0  0  0  0  0  0  0  0  0  0
   -4.0220   16.7460  -35.0120 C   0  0  0  0  0  0  0  0  0  0  0  0
   -6.2460   16.9000  -33.7800 C   0  0  0  0  0  0  0  0  0  0  0  0
   -6.4230   15.4070  -33.8660 C   0  0  0  0  0  0  0  0  0  0  0  0
   -7.2300   17.6760  -33.1450 C   0  0  0  0  0  0  0  0  0  0  0  0
   -4.8890   23.2530  -30.7740 C   0  0  0  0  0  0  0  0  0  0  0  0
   -2.4674   24.4474  -28.2363 H   0  0  0  0  0  0  0  0  0  0  0  0
   -2.2139   23.2129  -29.5163 H   0  0  0  0  0  0  0  0  0  0  0  0
   -1.2371   24.7204  -29.5163 H   0  0  0  0  0  0  0  0  0  0  0  0
   -5.2919   26.3336  -29.3405 H   0  0  0  0  0  0  0  0  0  0  0  0
   -7.6822   25.6396  -29.4766 H   0  0  0  0  0  0  0  0  0  0  0  0
   -8.2905   23.4232  -30.4450 H   0  0  0  0  0  0  0  0  0  0  0  0
   -5.7770   20.9000  -31.5040 H   0  0  0  0  0  0  0  0  0  0  0  0
   -9.0470   19.4640  -32.2590 H   0  0  0  0  0  0  0  0  0  0  0  0
   -5.8342   20.7760  -33.4840 H   0  0  0  0  0  0  0  0  0  0  0  0
   -4.0809   19.4288  -34.6201 H   0  0  0  0  0  0  0  0  0  0  0  0
   -3.3763   16.2746  -34.2565 H   0  0  0  0  0  0  0  0  0  0  0  0
   -4.4792   15.9678  -35.6407 H   0  0  0  0  0  0  0  0  0  0  0  0
   -3.4200   17.4185  -35.6407 H   0  0  0  0  0  0  0  0  0  0  0  0
   -6.4731   14.9847  -32.8515 H   0  0  0  0  0  0  0  0  0  0  0  0
   -7.3545   15.1786  -34.4046 H   0  0  0  0  0  0  0  0  0  0  0  0
   -5.5707   14.9671  -34.4046 H   0  0  0  0  0  0  0  0  0  0  0  0
   -8.1113   17.1837  -32.7079 H   0  0  0  0  0  0  0  0  0  0  0  0
   -4.0999   22.5710  -31.1235 H   0  0  0  0  0  0  0  0  0  0  0  0
  1  2  1  0
  2  3  1  0
  3  4  2  0
  4  5  1  0
  5  6  2  0
  6  7  1  0
  7  8  1  0
  8  9  1  0
  9 10  2  0
  9 11  1  0
 11 12  1  0
 12 13  2  0
 13 14  1  0
 14 15  2  0
 15 16  1  0
 15 17  1  0
 17 18  1  0
 17 19  2  0
  7 20  2  0
 20  3  1  0
 19 12  1  0
  1 21  1  0
  1 22  1  0
  1 23  1  0
  4 24  1  0
  5 25  1  0
  6 26  1  0
  8 27  1  0
 11 28  1  0
 13 29  1  0
 14 30  1  0
 16 31  1  0
 16 32  1  0
 16 33  1  0
 18 34  1  0
 18 35  1  0
 18 36  1  0
 19 37  1  0
 20 38  1  0
M  END
>  <UniqueID>  (22) 
21

>  <SMILES>  (22) 
COc1cccc(NC(=S)Nc2ccc(C)c(C)c2)c1

>  <Energy>  (22) 
47.71246688912661

>  <Genealogy>  (22) 
COc1cccc(NC(=S)Nc2ccc(C)c(C)c2)c1 (3D coordinates assigned)
COc1cccc(NC(=S)Nc2ccc(C)c(C)c2)c1 (optimized conformer: 47.71246688912661 kcal/mol)

>  <smiles>  (22) 
COc1cccc(NC(=S)Nc2ccc(C)c(C)c2)c1

>  <score_type>  (22) 
oracle

>  <origin>  (22) 
adgpu

>  <m_score__min__energy>  (22) 
-8.1999999999999993

>  <m_primary>  (22) 
energy

$$$$
22:0
     RDKit          3D

 38 40  0  0  0  0  0  0  0  0999 V2000
   -5.7330   14.7480  -34.2310 C   0  0  0  0  0  0  0  0  0  0  0  0
   -5.8540   15.9780  -33.3920 C   0  0  0  0  0  0  0  0  0  0  0  0
   -5.3170   16.0020  -32.2510 O   0  0  0  0  0  0  0  0  0  0  0  0
   -6.6550   17.0790  -33.8490 N   0  0  0  0  0  0  0  0  0  0  0  0
   -6.6900   18.3690  -33.2150 C   0  0  0  0  0  0  0  0  0  0  0  0
   -5.7730   19.3800  -33.5520 C   0  0  0  0  0  0  0  0  0  0  0  0
   -5.8440   20.6340  -32.9370 C   0  0  0  0  0  0  0  0  0  0  0  0
   -6.8500   20.9060  -31.9940 C   0  0  0  0  0  0  0  0  0  0  0  0
   -6.9460   22.1710  -31.3220 N   0  0  0  0  0  0  0  0  0  0  0  0
   -6.3550   23.4080  -31.7390 C   0  0  0  0  0  0  0  0  0  0  0  0
   -6.8720   24.0890  -32.6650 O   0  0  0  0  0  0  0  0  0  0  0  0
   -5.1670   23.9180  -31.0450 C   0  0  0  0  0  0  0  0  0  0  0  0
   -4.3830   23.2170  -30.1520 C   0  0  0  0  0  0  0  0  0  0  0  0
   -3.4090   24.1270  -29.7780 C   0  0  0  0  0  0  0  0  0  0  0  0
   -2.3130   23.9180  -28.8000 C   0  0  0  0  0  0  0  0  0  0  0  0
   -2.3160   22.7500  -28.0140 C   0  0  0  0  0  0  0  0  0  0  0  0
   -1.2960   22.5110  -27.0890 C   0  0  0  0  0  0  0  0  0  0  0  0
   -0.2650   23.4370  -26.9290 C   0  0  0  0  0  0  0  0  0  0  0  0
   -0.2560   24.6090  -27.6890 C   0  0  0  0  0  0  0  0  0  0  0  0
   -1.2750   24.8600  -28.6160 C   0  0  0  0  0  0  0  0  0  0  0  0
   -1.2530   26.0570  -29.3210 O   0  0  0  0  0  0  0  0  0  0  0  0
   -3.6240   25.2970  -30.4130 N   0  0  0  0  0  0  0  0  0  0  0  0
   -4.6910   25.1680  -31.1880 N   0  0  0  0  0  0  0  0  0  0  0  0
   -7.7610   19.8980  -31.6570 C   0  0  0  0  0  0  0  0  0  0  0  0
   -7.6910   18.6450  -32.2730 C   0  0  0  0  0  0  0  0  0  0  0  0
   -5.6463   13.8664  -33.5789 H   0  0  0  0  0  0  0  0  0  0  0  0
   -6.6256   14.6480  -34.8660 H   0  0  0  0  0  0  0  0  0  0  0  0
   -4.8380   14.8239  -34.8660 H   0  0  0  0  0  0  0  0  0  0  0  0
   -7.3120   16.9030  -34.6410 H   0  0  0  0  0  0  0  0  0  0  0  0
   -4.9948   19.1834  -34.3041 H   0  0  0  0  0  0  0  0  0  0  0  0
   -5.1088   21.4113  -33.1926 H   0  0  0  0  0  0  0  0  0  0  0  0
   -4.5038   22.1768  -29.8154 H   0  0  0  0  0  0  0  0  0  0  0  0
   -3.1292   22.0183  -28.1291 H   0  0  0  0  0  0  0  0  0  0  0  0
   -1.3062   21.5910  -26.4860 H   0  0  0  0  0  0  0  0  0  0  0  0
    0.5403   23.2444  -26.2049 H   0  0  0  0  0  0  0  0  0  0  0  0
    0.5564   25.3391  -27.5585 H   0  0  0  0  0  0  0  0  0  0  0  0
   -8.5372   20.0931  -30.9024 H   0  0  0  0  0  0  0  0  0  0  0  0
   -8.4274   17.8692  -32.0165 H   0  0  0  0  0  0  0  0  0  0  0  0
  1  2  1  0
  2  3  2  0
  2  4  1  0
  4  5  1  0
  5  6  2  0
  6  7  1  0
  7  8  2  0
  8  9  1  0
  9 10  1  0
 10 11  2  0
 10 12  1  0
 12 13  1  0
 13 14  2  0
 14 15  1  0
 15 16  2  0
 16 17  1  0
 17 18  2  0
 18 19  1  0
 19 20  2  0
 20 21  1  0
 14 22  1  0
 22 23  1  0
  8 24  1  0
 24 25  2  0
 25  5  1  0
 23 12  2  0
 20 15  1  0
  1 26  1  0
  1 27  1  0
  1 28  1  0
  4 29  1  0
  6 30  1  0
  7 31  1  0
 13 32  1  0
 16 33  1  0
 17 34  1  0
 18 35  1  0
 19 36  1  0
 24 37  1  0
 25 38  1  0
M  CHG  3   9  -1  21  -1  22  -1
M  END
>  <UniqueID>  (23) 
22

>  <SMILES>  (23) 
CC(=O)Nc1ccc([N-]C(=O)c2cc(-c3ccccc3[O-])[n-]n2)cc1

>  <Energy>  (23) 
78.2351329132709

>  <Genealogy>  (23) 
CC(=O)Nc1ccc([N-]C(=O)c2cc(-c3ccccc3[O-])[n-]n2)cc1 (protonated)
CC(=O)Nc1ccc([N-]C(=O)c2cc(-c3ccccc3[O-])[n-]n2)cc1 (3D coordinates assigned)
CC(=O)Nc1ccc([N-]C(=O)c2cc(-c3ccccc3[O-])[n-]n2)cc1 (optimized conformer: 78.2351329132709 kcal/mol)

>  <smiles>  (23) 
CC(=O)Nc1ccc(NC(=O)c2cc(-c3ccccc3O)[nH]n2)cc1

>  <score_type>  (23) 
oracle

>  <origin>  (23) 
adgpu

>  <m_score__min__energy>  (23) 
-13.82

>  <m_primary>  (23) 
energy

$$$$
23:0
     RDKit          3D

 35 36  0  0  0  0  0  0  0  0999 V2000
   -3.1090   25.2920  -29.9170 O   0  0  0  0  0  0  0  0  0  0  0  0
   -3.0160   24.0220  -29.3580 C   0  0  0  0  0  0  0  0  0  0  0  0
   -2.5360   23.8740  -28.0490 C   0  0  0  0  0  0  0  0  0  0  0  0
   -2.0110   25.4030  -27.0240 Br  0  0  0  0  0  0  0  0  0  0  0  0
   -2.4440   22.6020  -27.4750 C   0  0  0  0  0  0  0  0  0  0  0  0
   -2.8280   21.4740  -28.2050 C   0  0  0  0  0  0  0  0  0  0  0  0
   -2.7250   19.7420  -27.4100 Br  0  0  0  0  0  0  0  0  0  0  0  0
   -3.3030   21.6150  -29.5110 C   0  0  0  0  0  0  0  0  0  0  0  0
   -3.4010   22.8880  -30.0990 C   0  0  0  0  0  0  0  0  0  0  0  0
   -3.9920   23.0270  -31.4780 C   0  0  0  0  0  0  0  0  0  0  0  0
   -5.4590   22.9880  -31.4160 N   0  0  0  0  0  0  0  0  0  0  0  0
   -6.2440   24.2280  -31.3240 C   0  0  0  0  0  0  0  0  0  0  0  0
   -6.3310   24.7270  -29.8820 C   0  0  0  0  0  0  0  0  0  0  0  0
   -5.7400   25.9920  -29.7750 O   0  0  0  0  0  0  0  0  0  0  0  0
   -6.1310   21.7620  -31.7470 C   0  0  0  0  0  0  0  0  0  0  0  0
   -7.2950   21.4030  -31.0530 C   0  0  0  0  0  0  0  0  0  0  0  0
   -7.9730   20.2280  -31.3790 C   0  0  0  0  0  0  0  0  0  0  0  0
   -7.4970   19.4050  -32.4010 C   0  0  0  0  0  0  0  0  0  0  0  0
   -6.3370   19.7490  -33.1030 C   0  0  0  0  0  0  0  0  0  0  0  0
   -5.7420   18.5800  -34.4990 Br  0  0  0  0  0  0  0  0  0  0  0  0
   -5.6440   20.9330  -32.7760 C   0  0  0  0  0  0  0  0  0  0  0  0
   -4.4800   21.3050  -33.4510 O   0  0  0  0  0  0  0  0  0  0  0  0
   -2.0687   22.4893  -26.4472 H   0  0  0  0  0  0  0  0  0  0  0  0
   -3.6022   20.7243  -30.0829 H   0  0  0  0  0  0  0  0  0  0  0  0
   -3.6736   23.9857  -31.9132 H   0  0  0  0  0  0  0  0  0  0  0  0
   -3.6402   22.1917  -32.1014 H   0  0  0  0  0  0  0  0  0  0  0  0
   -5.7650   25.0016  -31.9422 H   0  0  0  0  0  0  0  0  0  0  0  0
   -7.2636   24.0196  -31.6804 H   0  0  0  0  0  0  0  0  0  0  0  0
   -7.3874   24.7923  -29.5825 H   0  0  0  0  0  0  0  0  0  0  0  0
   -5.7989   24.0238  -29.2245 H   0  0  0  0  0  0  0  0  0  0  0  0
   -4.8600   25.8480  -29.3410 H   0  0  0  0  0  0  0  0  0  0  0  0
   -7.6751   22.0500  -30.2486 H   0  0  0  0  0  0  0  0  0  0  0  0
   -8.8844   19.9496  -30.8296 H   0  0  0  0  0  0  0  0  0  0  0  0
   -8.0369   18.4811  -32.6557 H   0  0  0  0  0  0  0  0  0  0  0  0
   -4.4620   22.0180  -34.1680 H   0  0  0  0  0  0  0  0  0  0  0  0
  1  2  1  0
  2  3  2  0
  3  4  1  0
  3  5  1  0
  5  6  2  0
  6  7  1  0
  6  8  1  0
  8  9  2  0
  9 10  1  0
 10 11  1  0
 11 12  1  0
 12 13  1  0
 13 14  1  0
 11 15  1  0
 15 16  2  0
 16 17  1  0
 17 18  2  0
 18 19  1  0
 19 20  1  0
 19 21  2  0
 21 22  1  0
  9  2  1  0
 21 15  1  0
  5 23  1  0
  8 24  1  0
 10 25  1  0
 10 26  1  0
 12 27  1  0
 12 28  1  0
 13 29  1  0
 13 30  1  0
 14 31  1  0
 16 32  1  0
 17 33  1  0
 18 34  1  0
 22 35  1  0
M  CHG  1   1  -1
M  END
>  <UniqueID>  (24) 
23

>  <SMILES>  (24) 
[O-]c1c(Br)cc(Br)cc1CN(CCO)c1cccc(Br)c1O

>  <Energy>  (24) 
36.66581520844046

>  <Genealogy>  (24) 
[O-]c1c(Br)cc(Br)cc1CN(CCO)c1cccc(Br)c1O (protonated)
[O-]c1c(Br)cc(Br)cc1CN(CCO)c1cccc(Br)c1O (3D coordinates assigned)
[O-]c1c(Br)cc(Br)cc1CN(CCO)c1cccc(Br)c1O (optimized conformer: 36.66581520844046 kcal/mol)

>  <smiles>  (24) 
OCCN(Cc1cc(Br)cc(Br)c1O)c1cccc(Br)c1O

>  <score_type>  (24) 
oracle

>  <origin>  (24) 
adgpu

>  <m_score__min__energy>  (24) 
-11.19

>  <m_primary>  (24) 
energy

$$$$
24:0
     RDKit          3D

 46 48  0  0  0  0  0  0  0  0999 V2000
  -10.5874   19.9970  -32.0623 H   0  0  0  0  0  0  0  0  0  0  0  0
   -9.4990   20.0430  -32.2150 C   0  0  0  0  0  0  0  0  0  0  0  0
   -8.9020   18.9490  -32.7150 C   0  0  0  0  0  0  0  0  0  0  0  0
   -9.5580   18.1553  -33.1018 H   0  0  0  0  0  0  0  0  0  0  0  0
   -7.4420   18.7120  -32.7940 C   0  0  0  0  0  0  0  0  0  0  0  0
   -6.8270   17.6460  -32.1130 C   0  0  0  0  0  0  0  0  0  0  0  0
   -7.4212   17.0163  -31.4345 H   0  0  0  0  0  0  0  0  0  0  0  0
   -5.4670   17.3810  -32.2920 C   0  0  0  0  0  0  0  0  0  0  0  0
   -4.9912   16.5617  -31.7332 H   0  0  0  0  0  0  0  0  0  0  0  0
   -4.7010   18.1580  -33.1850 C   0  0  0  0  0  0  0  0  0  0  0  0
   -3.3420   17.9120  -33.4430 O   0  0  0  0  0  0  0  0  0  0  0  0
   -2.2340   18.5050  -32.7630 C   0  0  0  0  0  0  0  0  0  0  0  0
   -1.3706   18.5437  -33.4435 H   0  0  0  0  0  0  0  0  0  0  0  0
   -1.9935   17.8971  -31.8784 H   0  0  0  0  0  0  0  0  0  0  0  0
   -2.5800   19.9240  -32.3080 C   0  0  0  0  0  0  0  0  0  0  0  0
   -1.8290   20.2618  -31.5786 H   0  0  0  0  0  0  0  0  0  0  0  0
   -3.5806   19.9131  -31.8511 H   0  0  0  0  0  0  0  0  0  0  0  0
   -2.5940   20.8560  -33.4560 N   0  0  0  0  0  0  0  0  0  0  0  0
   -1.2660   21.4560  -33.6520 C   0  0  0  0  0  0  0  0  0  0  0  0
   -0.8089   21.6625  -32.6730 H   0  0  0  0  0  0  0  0  0  0  0  0
   -0.6280   20.7587  -34.2148 H   0  0  0  0  0  0  0  0  0  0  0  0
   -1.3676   22.3956  -34.2148 H   0  0  0  0  0  0  0  0  0  0  0  0
   -3.5940   21.9190  -33.2610 C   0  0  0  0  0  0  0  0  0  0  0  0
   -3.7489   22.0837  -32.1845 H   0  0  0  0  0  0  0  0  0  0  0  0
   -3.2359   22.8491  -33.7264 H   0  0  0  0  0  0  0  0  0  0  0  0
   -4.5443   21.6183  -33.7264 H   0  0  0  0  0  0  0  0  0  0  0  0
   -5.3220   19.2040  -33.8760 C   0  0  0  0  0  0  0  0  0  0  0  0
   -4.7356   19.8181  -34.5753 H   0  0  0  0  0  0  0  0  0  0  0  0
   -6.6800   19.4770  -33.6870 C   0  0  0  0  0  0  0  0  0  0  0  0
   -7.1540   20.2988  -34.2437 H   0  0  0  0  0  0  0  0  0  0  0  0
   -8.8210   21.2980  -31.8540 C   0  0  0  0  0  0  0  0  0  0  0  0
   -9.4010   22.5050  -31.9930 N   0  0  0  0  0  0  0  0  0  0  0  0
   -8.4880   23.3560  -31.6410 O   0  0  0  0  0  0  0  0  0  0  0  0
   -7.3900   22.7200  -31.3150 C   0  0  0  0  0  0  0  0  0  0  0  0
   -6.1460   23.3830  -30.8820 C   0  0  0  0  0  0  0  0  0  0  0  0
   -6.0470   24.7850  -30.9150 C   0  0  0  0  0  0  0  0  0  0  0  0
   -6.9019   25.3857  -31.2590 H   0  0  0  0  0  0  0  0  0  0  0  0
   -4.8680   25.4200  -30.5130 C   0  0  0  0  0  0  0  0  0  0  0  0
   -4.7998   26.5177  -30.5352 H   0  0  0  0  0  0  0  0  0  0  0  0
   -3.7760   24.6610  -30.0830 C   0  0  0  0  0  0  0  0  0  0  0  0
   -2.6040   25.2940  -29.6850 O   0  0  0  0  0  0  0  0  0  0  0  0
   -3.8630   23.2670  -30.0530 C   0  0  0  0  0  0  0  0  0  0  0  0
   -3.0018   22.6701  -29.7184 H   0  0  0  0  0  0  0  0  0  0  0  0
   -5.0440   22.6290  -30.4480 C   0  0  0  0  0  0  0  0  0  0  0  0
   -5.1094   21.5313  -30.4184 H   0  0  0  0  0  0  0  0  0  0  0  0
   -7.5390   21.3840  -31.4390 N   0  0  0  0  0  0  0  0  0  0  0  0
  1  2  1  0
  2  3  2  0
  3  4  1  0
  3  5  1  0
  5  6  2  0
  6  7  1  0
  6  8  1  0
  8  9  1  0
  8 10  2  0
 10 11  1  0
 11 12  1  0
 12 13  1  0
 12 14  1  0
 12 15  1  0
 15 16  1  0
 15 17  1  0
 15 18  1  0
 18 19  1  0
 19 20  1  0
 19 21  1  0
 19 22  1  0
 18 23  1  0
 23 24  1  0
 23 25  1  0
 23 26  1  0
 10 27  1  0
 27 28  1  0
 27 29  2  0
 29 30  1  0
  2 31  1  0
 31 32  2  0
 32 33  1  0
 33 34  1  0
 34 35  1  0
 35 36  2  0
 36 37  1  0
 36 38  1  0
 38 39  1  0
 38 40  2  0
 40 41  1  0
 40 42  1  0
 42 43  1  0
 42 44  2  0
 44 45  1  0
 34 46  2  0
 29  5  1  0
 46 31  1  0
 44 35  1  0
M  CHG  1  41  -1
M  END
>  <UniqueID>  (25) 
24

>  <SMILES>  (25) 
CN(C)CCOc1ccc(/C=C\c2noc(-c3ccc([O-])cc3)n2)cc1

>  <Energy>  (25) 
86.95261350466065

>  <Genealogy>  (25) 
CN(C)CCOc1ccc(C=Cc2noc(-c3ccc([O-])cc3)n2)cc1 (protonated)
CN(C)CCOc1ccc(/C=C\c2noc(-c3ccc([O-])cc3)n2)cc1 (cis-trans isomerization)
CN(C)CCOc1ccc(/C=C\c2noc(-c3ccc([O-])cc3)n2)cc1 (3D coordinates assigned)
CN(C)CCOc1ccc(/C=C\c2noc(-c3ccc([O-])cc3)n2)cc1 (optimized conformer: 86.95261350466065 kcal/mol)

>  <smiles>  (25) 
CN(C)CCOc1ccc(C=Cc2noc(-c3ccc(O)cc3)n2)cc1

>  <score_type>  (25) 
oracle

>  <origin>  (25) 
adgpu

>  <m_score__min__energy>  (25) 
-11.6

>  <m_primary>  (25) 
energy

$$$$
25:0
     RDKit          3D

 27 28  0  0  0  0  0  0  0  0999 V2000
   -3.1920   24.0410  -28.5730 C   0  0  0  0  0  0  0  0  0  0  0  0
   -4.3960   23.7970  -29.4370 C   0  0  0  0  0  0  0  0  0  0  0  0
   -5.2630   22.7290  -29.1600 C   0  0  0  0  0  0  0  0  0  0  0  0
   -6.3770   22.4940  -29.9680 C   0  0  0  0  0  0  0  0  0  0  0  0
   -6.6470   23.3190  -31.0700 C   0  0  0  0  0  0  0  0  0  0  0  0
   -7.8080   23.0520  -31.8780 N   0  0  0  0  0  0  0  0  0  0  0  0
   -8.8760   21.7070  -31.6240 S   0  0  0  0  0  0  0  0  0  0  0  0
   -9.2960   21.6710  -30.1820 O   0  0  0  0  0  0  0  0  0  0  0  0
  -10.0950   21.8700  -32.4870 O   0  0  0  0  0  0  0  0  0  0  0  0
   -8.0690   20.2130  -32.0620 C   0  0  0  0  0  0  0  0  0  0  0  0
   -8.4030   18.9500  -31.5930 C   0  0  0  0  0  0  0  0  0  0  0  0
   -7.6040   17.9390  -32.1370 C   0  0  0  0  0  0  0  0  0  0  0  0
   -6.6520   18.4150  -33.0270 C   0  0  0  0  0  0  0  0  0  0  0  0
   -5.3830   17.3530  -33.9750 Br  0  0  0  0  0  0  0  0  0  0  0  0
   -6.7940   20.0860  -33.1490 S   0  0  0  0  0  0  0  0  0  0  0  0
   -5.7680   24.3790  -31.3580 C   0  0  0  0  0  0  0  0  0  0  0  0
   -4.6520   24.6180  -30.5490 C   0  0  0  0  0  0  0  0  0  0  0  0
   -3.7990   25.6730  -30.8580 O   0  0  0  0  0  0  0  0  0  0  0  0
   -3.4828   23.9821  -27.5138 H   0  0  0  0  0  0  0  0  0  0  0  0
   -2.4273   23.2796  -28.7862 H   0  0  0  0  0  0  0  0  0  0  0  0
   -2.7841   25.0401  -28.7862 H   0  0  0  0  0  0  0  0  0  0  0  0
   -5.0635   22.0724  -28.3003 H   0  0  0  0  0  0  0  0  0  0  0  0
   -7.0493   21.6541  -29.7384 H   0  0  0  0  0  0  0  0  0  0  0  0
   -7.9890   23.6440  -32.7190 H   0  0  0  0  0  0  0  0  0  0  0  0
   -9.2107   18.7638  -30.8699 H   0  0  0  0  0  0  0  0  0  0  0  0
   -7.7188   16.8745  -31.8848 H   0  0  0  0  0  0  0  0  0  0  0  0
   -5.9599   25.0256  -32.2270 H   0  0  0  0  0  0  0  0  0  0  0  0
  1  2  1  0
  2  3  2  0
  3  4  1  0
  4  5  2  0
  5  6  1  0
  6  7  1  0
  7  8  2  0
  7  9  2  0
  7 10  1  0
 10 11  2  0
 11 12  1  0
 12 13  2  0
 13 14  1  0
 13 15  1  0
  5 16  1  0
 16 17  2  0
 17 18  1  0
 17  2  1  0
 15 10  1  0
  1 19  1  0
  1 20  1  0
  1 21  1  0
  3 22  1  0
  4 23  1  0
  6 24  1  0
 11 25  1  0
 12 26  1  0
 16 27  1  0
M  CHG  1  18  -1
M  END
>  <UniqueID>  (26) 
25

>  <SMILES>  (26) 
Cc1ccc(NS(=O)(=O)c2ccc(Br)s2)cc1[O-]

>  <Energy>  (26) 
56.21336175111393

>  <Genealogy>  (26) 
Cc1ccc(NS(=O)(=O)c2ccc(Br)s2)cc1[O-] (protonated)
Cc1ccc(NS(=O)(=O)c2ccc(Br)s2)cc1[O-] (3D coordinates assigned)
Cc1ccc(NS(=O)(=O)c2ccc(Br)s2)cc1[O-] (optimized conformer: 56.21336175111393 kcal/mol)

>  <smiles>  (26) 
Cc1ccc(NS(=O)(=O)c2ccc(Br)s2)cc1O

>  <score_type>  (26) 
oracle

>  <origin>  (26) 
adgpu

>  <m_score__min__energy>  (26) 
-10.99

>  <m_primary>  (26) 
energy

$$$$
26:0
     RDKit          3D

 37 39  0  0  0  0  0  0  0  0999 V2000
   -1.1930   26.3380  -29.8780 H   0  0  0  0  0  0  0  0  0  0  0  0
   -1.3030   25.6750  -29.0780 N   0  0  0  0  0  0  0  0  0  0  0  0
   -2.3320   24.8960  -28.9810 C   0  0  0  0  0  0  0  0  0  0  0  0
   -3.3040   24.9250  -29.9330 N   0  0  0  0  0  0  0  0  0  0  0  0
   -4.4090   24.1290  -29.8690 C   0  0  0  0  0  0  0  0  0  0  0  0
   -5.4100   24.2020  -30.9560 C   0  0  0  0  0  0  0  0  0  0  0  0
   -5.5680   25.3000  -31.5550 O   0  0  0  0  0  0  0  0  0  0  0  0
   -6.2360   23.0410  -31.3610 C   0  0  0  0  0  0  0  0  0  0  0  0
   -7.6290   23.0440  -31.1720 C   0  0  0  0  0  0  0  0  0  0  0  0
   -8.1149   23.9102  -30.6991 H   0  0  0  0  0  0  0  0  0  0  0  0
   -8.3990   21.9540  -31.5810 C   0  0  0  0  0  0  0  0  0  0  0  0
   -9.4871   21.9605  -31.4195 H   0  0  0  0  0  0  0  0  0  0  0  0
   -7.7940   20.8560  -32.1940 C   0  0  0  0  0  0  0  0  0  0  0  0
   -8.4079   20.0000  -32.5109 H   0  0  0  0  0  0  0  0  0  0  0  0
   -6.4050   20.8370  -32.4090 C   0  0  0  0  0  0  0  0  0  0  0  0
   -5.7600   19.6700  -33.0650 C   0  0  0  0  0  0  0  0  0  0  0  0
   -4.4140   19.7310  -33.4640 C   0  0  0  0  0  0  0  0  0  0  0  0
   -3.8350   20.6498  -33.2892 H   0  0  0  0  0  0  0  0  0  0  0  0
   -3.8040   18.6350  -34.0810 C   0  0  0  0  0  0  0  0  0  0  0  0
   -2.5010   18.7320  -34.4460 F   0  0  0  0  0  0  0  0  0  0  0  0
   -4.5320   17.4520  -34.3130 C   0  0  0  0  0  0  0  0  0  0  0  0
   -3.8800   16.2700  -34.9780 C   0  0  0  0  0  0  0  0  0  0  0  0
   -3.4998   15.5807  -34.2097 H   0  0  0  0  0  0  0  0  0  0  0  0
   -4.6182   15.7488  -35.6052 H   0  0  0  0  0  0  0  0  0  0  0  0
   -3.0454   16.6164  -35.6052 H   0  0  0  0  0  0  0  0  0  0  0  0
   -5.8830   17.3900  -33.9160 C   0  0  0  0  0  0  0  0  0  0  0  0
   -6.8540   15.9450  -34.1830 Cl  0  0  0  0  0  0  0  0  0  0  0  0
   -6.4860   18.4910  -33.2990 C   0  0  0  0  0  0  0  0  0  0  0  0
   -7.5411   18.4326  -32.9935 H   0  0  0  0  0  0  0  0  0  0  0  0
   -5.6340   21.9390  -31.9950 C   0  0  0  0  0  0  0  0  0  0  0  0
   -4.5479   21.9387  -32.1692 H   0  0  0  0  0  0  0  0  0  0  0  0
   -4.5400   23.2240  -28.8010 C   0  0  0  0  0  0  0  0  0  0  0  0
   -5.4119   22.5556  -28.7449 H   0  0  0  0  0  0  0  0  0  0  0  0
   -3.5560   23.1800  -27.8130 C   0  0  0  0  0  0  0  0  0  0  0  0
   -3.6557   22.4829  -26.9679 H   0  0  0  0  0  0  0  0  0  0  0  0
   -2.4460   24.0200  -27.8970 C   0  0  0  0  0  0  0  0  0  0  0  0
   -1.6687   23.9938  -27.1191 H   0  0  0  0  0  0  0  0  0  0  0  0
  1  2  1  0
  2  3  2  0
  3  4  1  0
  4  5  1  0
  5  6  1  0
  6  7  2  0
  6  8  1  0
  8  9  2  0
  9 10  1  0
  9 11  1  0
 11 12  1  0
 11 13  2  0
 13 14  1  0
 13 15  1  0
 15 16  1  0
 16 17  2  0
 17 18  1  0
 17 19  1  0
 19 20  1  0
 19 21  2  0
 21 22  1  0
 22 23  1  0
 22 24  1  0
 22 25  1  0
 21 26  1  0
 26 27  1  0
 26 28  2  0
 28 29  1  0
 15 30  2  0
 30 31  1  0
  5 32  2  0
 32 33  1  0
 32 34  1  0
 34 35  1  0
 34 36  2  0
 36 37  1  0
 36  3  1  0
 30  8  1  0
 28 16  1  0
M  CHG  1   4  -1
M  END
>  <UniqueID>  (27) 
26

>  <SMILES>  (27) 
[H]/N=c1/cccc(C(=O)c2cccc(-c3cc(F)c(C)c(Cl)c3)c2)[n-]1

>  <Energy>  (27) 
52.28689527813737

>  <Genealogy>  (27) 
Cc1c(F)cc(-c2cccc(C(=O)c3cccc(=N)[n-]3)c2)cc1Cl (protonated)
[H]/N=c1/cccc(C(=O)c2cccc(-c3cc(F)c(C)c(Cl)c3)c2)[n-]1 (cis-trans isomerization)
[H]/N=c1/cccc(C(=O)c2cccc(-c3cc(F)c(C)c(Cl)c3)c2)[n-]1 (3D coordinates assigned)
[H]/N=c1/cccc(C(=O)c2cccc(-c3cc(F)c(C)c(Cl)c3)c2)[n-]1 (optimized conformer: 52.28689527813737 kcal/mol)

>  <smiles>  (27) 
Cc1c(F)cc(-c2cccc(C(=O)c3cccc(=N)[nH]3)c2)cc1Cl

>  <score_type>  (27) 
oracle

>  <origin>  (27) 
adgpu

>  <m_score__min__energy>  (27) 
-12.07

>  <m_primary>  (27) 
energy

$$$$
27:0
     RDKit          3D

 47 49  0  0  0  0  0  0  0  0999 V2000
   -9.2290   21.7530  -31.4330 C   0  0  0  0  0  0  0  0  0  0  0  0
   -8.8920   20.5280  -32.0770 O   0  0  0  0  0  0  0  0  0  0  0  0
   -7.5860   20.1460  -32.4150 C   0  0  0  0  0  0  0  0  0  0  0  0
   -6.6580   21.1480  -32.7200 C   0  0  0  0  0  0  0  0  0  0  0  0
   -5.3440   20.8180  -33.0660 C   0  0  0  0  0  0  0  0  0  0  0  0
   -4.9330   19.4750  -33.1080 C   0  0  0  0  0  0  0  0  0  0  0  0
   -3.5820   19.1360  -33.4730 N   0  0  0  0  0  0  0  0  0  0  0  0
   -3.3080   17.9200  -34.2410 C   0  0  0  0  0  0  0  0  0  0  0  0
   -2.2590   20.1860  -33.0520 S   0  0  0  0  0  0  0  0  0  0  0  0
   -0.9940   19.3770  -32.9700 O   0  0  0  0  0  0  0  0  0  0  0  0
   -2.0910   21.2540  -34.0970 O   0  0  0  0  0  0  0  0  0  0  0  0
   -2.5950   20.9740  -31.5130 C   0  0  0  0  0  0  0  0  0  0  0  0
   -2.5270   20.2310  -30.3300 C   0  0  0  0  0  0  0  0  0  0  0  0
   -2.7800   20.8420  -29.1020 C   0  0  0  0  0  0  0  0  0  0  0  0
   -3.0970   22.2010  -29.0450 C   0  0  0  0  0  0  0  0  0  0  0  0
   -3.1670   22.9660  -30.2240 C   0  0  0  0  0  0  0  0  0  0  0  0
   -3.5060   24.4080  -30.1680 C   0  0  0  0  0  0  0  0  0  0  0  0
   -4.4410   24.8660  -30.8790 O   0  0  0  0  0  0  0  0  0  0  0  0
   -2.7470   25.2930  -29.3350 N   0  0  0  0  0  0  0  0  0  0  0  0
   -1.8100   24.8660  -28.3370 C   0  0  0  0  0  0  0  0  0  0  0  0
   -0.5040   24.5530  -28.7350 C   0  0  0  0  0  0  0  0  0  0  0  0
    0.4400   24.1290  -27.7960 C   0  0  0  0  0  0  0  0  0  0  0  0
    0.0800   23.9980  -26.4530 C   0  0  0  0  0  0  0  0  0  0  0  0
   -1.2280   24.2780  -26.0490 C   0  0  0  0  0  0  0  0  0  0  0  0
   -2.1810   24.7020  -26.9840 C   0  0  0  0  0  0  0  0  0  0  0  0
   -3.8400   24.9250  -26.4400 Cl  0  0  0  0  0  0  0  0  0  0  0  0
   -2.9130   22.3400  -31.4590 C   0  0  0  0  0  0  0  0  0  0  0  0
   -5.8670   18.4680  -32.8080 C   0  0  0  0  0  0  0  0  0  0  0  0
   -7.1810   18.7990  -32.4610 C   0  0  0  0  0  0  0  0  0  0  0  0
   -9.1914   21.6162  -30.3422 H   0  0  0  0  0  0  0  0  0  0  0  0
   -8.5120   22.5326  -31.7297 H   0  0  0  0  0  0  0  0  0  0  0  0
  -10.2439   22.0562  -31.7297 H   0  0  0  0  0  0  0  0  0  0  0  0
   -6.9647   22.2039  -32.6873 H   0  0  0  0  0  0  0  0  0  0  0  0
   -4.6264   21.6161  -33.3072 H   0  0  0  0  0  0  0  0  0  0  0  0
   -3.1198   17.0848  -33.5504 H   0  0  0  0  0  0  0  0  0  0  0  0
   -4.1753   17.6834  -34.8748 H   0  0  0  0  0  0  0  0  0  0  0  0
   -2.4230   18.0782  -34.8748 H   0  0  0  0  0  0  0  0  0  0  0  0
   -2.2732   19.1614  -30.3682 H   0  0  0  0  0  0  0  0  0  0  0  0
   -2.7297   20.2515  -28.1753 H   0  0  0  0  0  0  0  0  0  0  0  0
   -3.2931   22.6762  -28.0725 H   0  0  0  0  0  0  0  0  0  0  0  0
   -0.2196   24.6416  -29.7939 H   0  0  0  0  0  0  0  0  0  0  0  0
    1.4672   23.8983  -28.1148 H   0  0  0  0  0  0  0  0  0  0  0  0
    0.8265   23.6742  -25.7128 H   0  0  0  0  0  0  0  0  0  0  0  0
   -1.5106   24.1650  -24.9919 H   0  0  0  0  0  0  0  0  0  0  0  0
   -2.9641   22.9258  -32.3887 H   0  0  0  0  0  0  0  0  0  0  0  0
   -5.5622   17.4118  -32.8464 H   0  0  0  0  0  0  0  0  0  0  0  0
   -7.9013   18.0025  -32.2229 H   0  0  0  0  0  0  0  0  0  0  0  0
  1  2  1  0
  2  3  1  0
  3  4  2  0
  4  5  1  0
  5  6  2  0
  6  7  1  0
  7  8  1  0
  7  9  1  0
  9 10  2  0
  9 11  2  0
  9 12  1  0
 12 13  2  0
 13 14  1  0
 14 15  2  0
 15 16  1  0
 16 17  1  0
 17 18  2  0
 17 19  1  0
 19 20  1  0
 20 21  2  0
 21 22  1  0
 22 23  2  0
 23 24  1  0
 24 25  2  0
 25 26  1  0
 16 27  2  0
  6 28  1  0
 28 29  2  0
 29  3  1  0
 27 12  1  0
 25 20  1  0
  1 30  1  0
  1 31  1  0
  1 32  1  0
  4 33  1  0
  5 34  1  0
  8 35  1  0
  8 36  1  0
  8 37  1  0
 13 38  1  0
 14 39  1  0
 15 40  1  0
 21 41  1  0
 22 42  1  0
 23 43  1  0
 24 44  1  0
 27 45  1  0
 28 46  1  0
 29 47  1  0
M  CHG  1  19  -1
M  END
>  <UniqueID>  (28) 
27

>  <SMILES>  (28) 
COc1ccc(N(C)S(=O)(=O)c2cccc(C(=O)[N-]c3ccccc3Cl)c2)cc1

>  <Energy>  (28) 
61.32497226328038

>  <Genealogy>  (28) 
COc1ccc(N(C)S(=O)(=O)c2cccc(C(=O)[N-]c3ccccc3Cl)c2)cc1 (protonated)
COc1ccc(N(C)S(=O)(=O)c2cccc(C(=O)[N-]c3ccccc3Cl)c2)cc1 (3D coordinates assigned)
COc1ccc(N(C)S(=O)(=O)c2cccc(C(=O)[N-]c3ccccc3Cl)c2)cc1 (optimized conformer: 61.32497226328038 kcal/mol)

>  <smiles>  (28) 
COc1ccc(N(C)S(=O)(=O)c2cccc(C(=O)Nc3ccccc3Cl)c2)cc1

>  <score_type>  (28) 
oracle

>  <origin>  (28) 
adgpu

>  <m_score__min__energy>  (28) 
-10.449999999999999

>  <m_primary>  (28) 
energy

$$$$
28:0
     RDKit          3D

 51 55  0  0  0  0  0  0  0  0999 V2000
   -7.7223   16.4401  -33.6525 H   0  0  0  0  0  0  0  0  0  0  0  0
   -6.6800   16.7850  -33.7210 C   0  0  0  0  0  0  0  0  0  0  0  0
   -5.6570   16.0660  -34.2490 N   0  0  0  0  0  0  0  0  0  0  0  0
   -4.5940   16.8840  -34.1100 C   0  0  0  0  0  0  0  0  0  0  0  0
   -3.2820   16.6050  -34.4710 C   0  0  0  0  0  0  0  0  0  0  0  0
   -3.0111   15.6521  -34.9491 H   0  0  0  0  0  0  0  0  0  0  0  0
   -2.3160   17.5860  -34.2020 C   0  0  0  0  0  0  0  0  0  0  0  0
   -1.2649   17.4146  -34.4774 H   0  0  0  0  0  0  0  0  0  0  0  0
   -2.6950   18.7920  -33.5780 C   0  0  0  0  0  0  0  0  0  0  0  0
   -1.7960   19.6960  -33.3220 N   0  0  0  0  0  0  0  0  0  0  0  0
   -2.0870   20.9750  -32.6810 C   0  0  0  0  0  0  0  0  0  0  0  0
   -1.3792   21.7360  -33.0416 H   0  0  0  0  0  0  0  0  0  0  0  0
   -3.1133   21.2851  -32.9273 H   0  0  0  0  0  0  0  0  0  0  0  0
   -1.9500   20.8280  -31.1930 C   0  0  0  0  0  0  0  0  0  0  0  0
   -1.0360   19.9100  -30.6540 C   0  0  0  0  0  0  0  0  0  0  0  0
   -0.3970   19.3152  -31.3232 H   0  0  0  0  0  0  0  0  0  0  0  0
   -0.9350   19.7490  -29.2690 C   0  0  0  0  0  0  0  0  0  0  0  0
   -0.2091   19.0350  -28.8527 H   0  0  0  0  0  0  0  0  0  0  0  0
   -1.7520   20.4910  -28.4100 C   0  0  0  0  0  0  0  0  0  0  0  0
   -1.5980   20.2580  -26.6750 Cl  0  0  0  0  0  0  0  0  0  0  0  0
   -2.6810   21.4000  -28.9440 C   0  0  0  0  0  0  0  0  0  0  0  0
   -3.7360   22.3450  -27.8990 Cl  0  0  0  0  0  0  0  0  0  0  0  0
   -2.7810   21.5620  -30.3310 C   0  0  0  0  0  0  0  0  0  0  0  0
   -3.5144   22.2680  -30.7479 H   0  0  0  0  0  0  0  0  0  0  0  0
   -4.0060   18.9940  -33.2490 N   0  0  0  0  0  0  0  0  0  0  0  0
   -4.9040   18.0530  -33.5360 N   0  0  0  0  0  0  0  0  0  0  0  0
   -6.2200   18.0210  -33.2790 C   0  0  0  0  0  0  0  0  0  0  0  0
   -7.0160   19.0880  -32.6270 C   0  0  0  0  0  0  0  0  0  0  0  0
   -8.3790   18.9010  -32.3430 C   0  0  0  0  0  0  0  0  0  0  0  0
   -8.8685   17.9535  -32.6125 H   0  0  0  0  0  0  0  0  0  0  0  0
   -9.1160   19.9100  -31.7210 C   0  0  0  0  0  0  0  0  0  0  0  0
  -10.1822   19.7528  -31.5008 H   0  0  0  0  0  0  0  0  0  0  0  0
   -8.5060   21.1180  -31.3770 C   0  0  0  0  0  0  0  0  0  0  0  0
   -9.0934   21.9073  -30.8852 H   0  0  0  0  0  0  0  0  0  0  0  0
   -7.1460   21.3300  -31.6560 C   0  0  0  0  0  0  0  0  0  0  0  0
   -6.4810   22.5980  -31.2840 C   0  0  0  0  0  0  0  0  0  0  0  0
   -5.3430   23.1890  -31.8270 C   0  0  0  0  0  0  0  0  0  0  0  0
   -4.4880   22.6680  -32.9360 C   0  0  0  0  0  0  0  0  0  0  0  0
   -3.6208   22.1396  -32.5132 H   0  0  0  0  0  0  0  0  0  0  0  0
   -5.0742   21.9735  -33.5556 H   0  0  0  0  0  0  0  0  0  0  0  0
   -4.1395   23.5074  -33.5556 H   0  0  0  0  0  0  0  0  0  0  0  0
   -5.0930   24.3510  -31.1910 N   0  0  0  0  0  0  0  0  0  0  0  0
   -6.0130   24.4980  -30.2520 N   0  0  0  0  0  0  0  0  0  0  0  0
   -6.1160   25.6670  -29.3910 C   0  0  0  0  0  0  0  0  0  0  0  0
   -6.0881   25.3504  -28.3379 H   0  0  0  0  0  0  0  0  0  0  0  0
   -5.2742   26.3459  -29.5922 H   0  0  0  0  0  0  0  0  0  0  0  0
   -7.0635   26.1882  -29.5922 H   0  0  0  0  0  0  0  0  0  0  0  0
   -6.8730   23.4620  -30.2780 C   0  0  0  0  0  0  0  0  0  0  0  0
   -7.7387   23.3263  -29.6131 H   0  0  0  0  0  0  0  0  0  0  0  0
   -6.4050   20.3030  -32.2670 C   0  0  0  0  0  0  0  0  0  0  0  0
   -5.3334   20.4515  -32.4661 H   0  0  0  0  0  0  0  0  0  0  0  0
  1  2  1  0
  2  3  1  0
  3  4  2  0
  4  5  1  0
  5  6  1  0
  5  7  2  0
  7  8  1  0
  7  9  1  0
  9 10  2  0
 10 11  1  0
 11 12  1  0
 11 13  1  0
 11 14  1  0
 14 15  2  0
 15 16  1  0
 15 17  1  0
 17 18  1  0
 17 19  2  0
 19 20  1  0
 19 21  1  0
 21 22  1  0
 21 23  2  0
 23 24  1  0
  9 25  1  0
 25 26  1  0
 26 27  1  0
 27 28  1  0
 28 29  2  0
 29 30  1  0
 29 31  1  0
 31 32  1  0
 31 33  2  0
 33 34  1  0
 33 35  1  0
 35 36  1  0
 36 37  1  0
 37 38  1  0
 38 39  1  0
 38 40  1  0
 38 41  1  0
 37 42  2  0
 42 43  1  0
 43 44  1  0
 44 45  1  0
 44 46  1  0
 44 47  1  0
 43 48  1  0
 48 49  1  0
 35 50  2  0
 50 51  1  0
 27  2  2  0
 50 28  1  0
 26  4  1  0
 48 36  2  0
 23 14  1  0
M  CHG  1  25  -1
M  END
>  <UniqueID>  (29) 
28

>  <SMILES>  (29) 
Cc1nn(C)cc1-c1cccc(-c2cnc3cc/c(=N/Cc4ccc(Cl)c(Cl)c4)[n-]n23)c1

>  <Energy>  (29) 
128.95992031544952

>  <Genealogy>  (29) 
Cc1nn(C)cc1-c1cccc(-c2cnc3ccc(=NCc4ccc(Cl)c(Cl)c4)[n-]n23)c1 (protonated)
Cc1nn(C)cc1-c1cccc(-c2cnc3cc/c(=N/Cc4ccc(Cl)c(Cl)c4)[n-]n23)c1 (cis-trans isomerization)
Cc1nn(C)cc1-c1cccc(-c2cnc3cc/c(=N/Cc4ccc(Cl)c(Cl)c4)[n-]n23)c1 (3D coordinates assigned)
Cc1nn(C)cc1-c1cccc(-c2cnc3cc/c(=N/Cc4ccc(Cl)c(Cl)c4)[n-]n23)c1 (optimized conformer: 128.95992031544952 kcal/mol)

>  <smiles>  (29) 
Cc1nn(C)cc1-c1cccc(-c2cnc3ccc(=NCc4ccc(Cl)c(Cl)c4)[nH]n23)c1

>  <score_type>  (29) 
oracle

>  <origin>  (29) 
adgpu

>  <m_score__min__energy>  (29) 
-11.279999999999999

>  <m_primary>  (29) 
energy

$$$$
29:0
     RDKit          3D

 61 64  0  0  0  0  0  0  0  0999 V2000
   -3.1170   18.5510  -25.6190 C   0  0  0  0  0  0  0  0  0  0  0  0
   -3.4410   18.9710  -27.0490 C   0  0  0  0  0  0  0  0  0  0  0  0
   -2.4990   20.0030  -27.5090 N   0  0  0  0  0  0  0  0  0  0  0  0
   -1.0850   19.9490  -27.1100 C   0  0  0  0  0  0  0  0  0  0  0  0
   -0.3990   18.7420  -27.7400 C   0  0  0  0  0  0  0  0  0  0  0  0
   -2.9670   21.0780  -28.3470 C   0  0  0  0  0  0  0  0  0  0  0  0
   -3.7530   22.1030  -27.8110 C   0  0  0  0  0  0  0  0  0  0  0  0
   -4.2040   23.1460  -28.6200 C   0  0  0  0  0  0  0  0  0  0  0  0
   -3.8810   23.1920  -29.9870 C   0  0  0  0  0  0  0  0  0  0  0  0
   -4.3710   24.3400  -30.7930 C   0  0  0  0  0  0  0  0  0  0  0  0
   -3.8660   25.4840  -30.6420 O   0  0  0  0  0  0  0  0  0  0  0  0
   -5.4780   24.1570  -31.6870 N   0  0  0  0  0  0  0  0  0  0  0  0
   -6.3510   23.0190  -31.7470 C   0  0  0  0  0  0  0  0  0  0  0  0
   -7.6740   23.0700  -31.2790 C   0  0  0  0  0  0  0  0  0  0  0  0
   -8.4970   21.9450  -31.3700 C   0  0  0  0  0  0  0  0  0  0  0  0
   -8.0220   20.7540  -31.9430 C   0  0  0  0  0  0  0  0  0  0  0  0
   -8.9290   19.5540  -31.9730 C   0  0  0  0  0  0  0  0  0  0  0  0
   -6.7130   20.7200  -32.4810 C   0  0  0  0  0  0  0  0  0  0  0  0
   -6.1960   19.5560  -33.1470 N   0  0  0  0  0  0  0  0  0  0  0  0
   -5.5950   18.4930  -32.5830 C   0  0  0  0  0  0  0  0  0  0  0  0
   -5.3640   17.5910  -33.6040 C   0  0  0  0  0  0  0  0  0  0  0  0
   -4.7310   16.2540  -33.5070 C   0  0  0  0  0  0  0  0  0  0  0  0
   -3.9490   15.7380  -34.5600 C   0  0  0  0  0  0  0  0  0  0  0  0
   -3.3560   14.4770  -34.4480 C   0  0  0  0  0  0  0  0  0  0  0  0
   -3.5350   13.7170  -33.2910 C   0  0  0  0  0  0  0  0  0  0  0  0
   -4.3100   14.2170  -32.2410 C   0  0  0  0  0  0  0  0  0  0  0  0
   -4.9050   15.4770  -32.3460 C   0  0  0  0  0  0  0  0  0  0  0  0
   -5.8450   18.1240  -34.7460 N   0  0  0  0  0  0  0  0  0  0  0  0
   -6.3520   19.3100  -34.4390 N   0  0  0  0  0  0  0  0  0  0  0  0
   -5.8880   21.8500  -32.3580 C   0  0  0  0  0  0  0  0  0  0  0  0
   -3.1040   22.1400  -30.5460 C   0  0  0  0  0  0  0  0  0  0  0  0
   -2.7610   22.0880  -32.0110 C   0  0  0  0  0  0  0  0  0  0  0  0
   -2.6470   21.1040  -29.7120 C   0  0  0  0  0  0  0  0  0  0  0  0
   -3.6330   19.2199  -24.9145 H   0  0  0  0  0  0  0  0  0  0  0  0
   -3.4533   17.5165  -25.4556 H   0  0  0  0  0  0  0  0  0  0  0  0
   -2.0310   18.6137  -25.4556 H   0  0  0  0  0  0  0  0  0  0  0  0
   -3.3680   18.0941  -27.7091 H   0  0  0  0  0  0  0  0  0  0  0  0
   -4.4607   19.3826  -27.0764 H   0  0  0  0  0  0  0  0  0  0  0  0
   -0.5795   20.8675  -27.4429 H   0  0  0  0  0  0  0  0  0  0  0  0
   -1.0271   19.8602  -26.0151 H   0  0  0  0  0  0  0  0  0  0  0  0
   -0.0223   18.0791  -26.9471 H   0  0  0  0  0  0  0  0  0  0  0  0
   -1.1207   18.1942  -28.3637 H   0  0  0  0  0  0  0  0  0  0  0  0
    0.4409   19.0818  -28.3637 H   0  0  0  0  0  0  0  0  0  0  0  0
   -4.0176   22.0866  -26.7434 H   0  0  0  0  0  0  0  0  0  0  0  0
   -4.8214   23.9440  -28.1817 H   0  0  0  0  0  0  0  0  0  0  0  0
   -8.0639   23.9997  -30.8389 H   0  0  0  0  0  0  0  0  0  0  0  0
   -9.5278   21.9924  -30.9889 H   0  0  0  0  0  0  0  0  0  0  0  0
   -9.1625   19.2451  -30.9434 H   0  0  0  0  0  0  0  0  0  0  0  0
   -9.8603   19.8114  -32.4988 H   0  0  0  0  0  0  0  0  0  0  0  0
   -8.4273   18.7282  -32.4988 H   0  0  0  0  0  0  0  0  0  0  0  0
   -5.3385   18.3669  -31.5208 H   0  0  0  0  0  0  0  0  0  0  0  0
   -3.8045   16.3309  -35.4752 H   0  0  0  0  0  0  0  0  0  0  0  0
   -2.7464   14.0825  -35.2743 H   0  0  0  0  0  0  0  0  0  0  0  0
   -3.0665   12.7254  -33.2057 H   0  0  0  0  0  0  0  0  0  0  0  0
   -4.4519   13.6173  -31.3298 H   0  0  0  0  0  0  0  0  0  0  0  0
   -5.5136   15.8645  -31.5157 H   0  0  0  0  0  0  0  0  0  0  0  0
   -4.8604   21.8146  -32.7490 H   0  0  0  0  0  0  0  0  0  0  0  0
   -1.6797   21.9241  -32.1288 H   0  0  0  0  0  0  0  0  0  0  0  0
   -3.3110   21.2630  -32.4873 H   0  0  0  0  0  0  0  0  0  0  0  0
   -3.0417   23.0390  -32.4873 H   0  0  0  0  0  0  0  0  0  0  0  0
   -2.0280   20.3004  -30.1376 H   0  0  0  0  0  0  0  0  0  0  0  0
  1  2  1  0
  2  3  1  0
  3  4  1  0
  4  5  1  0
  3  6  1  0
  6  7  2  0
  7  8  1  0
  8  9  2  0
  9 10  1  0
 10 11  2  0
 10 12  1  0
 12 13  1  0
 13 14  2  0
 14 15  1  0
 15 16  2  0
 16 17  1  0
 16 18  1  0
 18 19  1  0
 19 20  1  0
 20 21  2  0
 21 22  1  0
 22 23  2  0
 23 24  1  0
 24 25  2  0
 25 26  1  0
 26 27  2  0
 21 28  1  0
 28 29  2  0
 18 30  2  0
  9 31  1  0
 31 32  1  0
 31 33  2  0
 33  6  1  0
 30 13  1  0
 29 19  1  0
 27 22  1  0
  1 34  1  0
  1 35  1  0
  1 36  1  0
  2 37  1  0
  2 38  1  0
  4 39  1  0
  4 40  1  0
  5 41  1  0
  5 42  1  0
  5 43  1  0
  7 44  1  0
  8 45  1  0
 14 46  1  0
 15 47  1  0
 17 48  1  0
 17 49  1  0
 17 50  1  0
 20 51  1  0
 23 52  1  0
 24 53  1  0
 25 54  1  0
 26 55  1  0
 27 56  1  0
 30 57  1  0
 32 58  1  0
 32 59  1  0
 32 60  1  0
 33 61  1  0
M  CHG  1  12  -1
M  END
>  <UniqueID>  (30) 
29

>  <SMILES>  (30) 
CCN(CC)c1ccc(C(=O)[N-]c2ccc(C)c(-n3cc(-c4ccccc4)nn3)c2)c(C)c1

>  <Energy>  (30) 
112.28255038633397

>  <Genealogy>  (30) 
CCN(CC)c1ccc(C(=O)[N-]c2ccc(C)c(-n3cc(-c4ccccc4)nn3)c2)c(C)c1 (protonated)
CCN(CC)c1ccc(C(=O)[N-]c2ccc(C)c(-n3cc(-c4ccccc4)nn3)c2)c(C)c1 (3D coordinates assigned)
CCN(CC)c1ccc(C(=O)[N-]c2ccc(C)c(-n3cc(-c4ccccc4)nn3)c2)c(C)c1 (optimized conformer: 112.28255038633397 kcal/mol)

>  <smiles>  (30) 
CCN(CC)c1ccc(C(=O)Nc2ccc(C)c(-n3cc(-c4ccccc4)nn3)c2)c(C)c1

>  <score_type>  (30) 
oracle

>  <origin>  (30) 
adgpu

>  <m_score__min__energy>  (30) 
-12.109999999999999

>  <m_primary>  (30) 
energy

$$$$
30:0
     RDKit          3D

 48 50  0  0  0  0  0  0  0  0999 V2000
   -3.8690   24.5180  -27.0530 C   0  0  0  0  0  0  0  0  0  0  0  0
   -2.4020   24.9240  -27.1500 C   0  0  0  0  0  0  0  0  0  0  0  0
   -1.9480   24.8630  -28.5020 O   0  0  0  0  0  0  0  0  0  0  0  0
   -2.1970   23.8150  -29.4060 C   0  0  0  0  0  0  0  0  0  0  0  0
   -1.5180   22.5830  -29.3370 C   0  0  0  0  0  0  0  0  0  0  0  0
   -1.8080   21.5630  -30.2450 C   0  0  0  0  0  0  0  0  0  0  0  0
   -2.7790   21.7550  -31.2310 C   0  0  0  0  0  0  0  0  0  0  0  0
   -3.1840   20.4420  -32.3340 S   0  0  0  0  0  0  0  0  0  0  0  0
   -3.2770   20.9840  -33.7330 O   0  0  0  0  0  0  0  0  0  0  0  0
   -2.1130   19.3870  -32.2920 O   0  0  0  0  0  0  0  0  0  0  0  0
   -4.7040   19.7270  -31.9000 N   0  0  0  0  0  0  0  0  0  0  0  0
   -5.3150   18.6720  -32.6590 C   0  0  0  0  0  0  0  0  0  0  0  0
   -4.5880   18.0900  -33.7090 C   0  0  0  0  0  0  0  0  0  0  0  0
   -5.1420   17.0600  -34.4710 C   0  0  0  0  0  0  0  0  0  0  0  0
   -6.4330   16.6090  -34.2020 C   0  0  0  0  0  0  0  0  0  0  0  0
   -7.1790   17.1940  -33.1770 C   0  0  0  0  0  0  0  0  0  0  0  0
   -6.6350   18.2400  -32.4030 C   0  0  0  0  0  0  0  0  0  0  0  0
   -7.3840   18.8760  -31.4020 O   0  0  0  0  0  0  0  0  0  0  0  0
   -8.7310   19.3130  -31.5450 C   0  0  0  0  0  0  0  0  0  0  0  0
   -3.4470   22.9830  -31.3180 C   0  0  0  0  0  0  0  0  0  0  0  0
   -3.1490   24.0220  -30.4180 C   0  0  0  0  0  0  0  0  0  0  0  0
   -3.8490   25.2740  -30.4600 N   0  0  0  0  0  0  0  0  0  0  0  0
   -5.2700   25.4600  -30.4530 C   0  0  0  0  0  0  0  0  0  0  0  0
   -5.7700   26.5750  -30.1430 O   0  0  0  0  0  0  0  0  0  0  0  0
   -6.1500   24.3250  -30.7540 C   0  0  0  0  0  0  0  0  0  0  0  0
   -6.7920   23.5150  -29.8240 C   0  0  0  0  0  0  0  0  0  0  0  0
   -7.5700   22.5100  -30.4100 C   0  0  0  0  0  0  0  0  0  0  0  0
   -7.5440   22.5230  -31.7990 C   0  0  0  0  0  0  0  0  0  0  0  0
   -6.5550   23.7890  -32.2970 S   0  0  0  0  0  0  0  0  0  0  0  0
   -4.1581   24.4380  -25.9947 H   0  0  0  0  0  0  0  0  0  0  0  0
   -4.4930   25.2772  -27.5472 H   0  0  0  0  0  0  0  0  0  0  0  0
   -4.0139   23.5460  -27.5472 H   0  0  0  0  0  0  0  0  0  0  0  0
   -2.2869   25.9524  -26.7769 H   0  0  0  0  0  0  0  0  0  0  0  0
   -1.8026   24.2280  -26.5448 H   0  0  0  0  0  0  0  0  0  0  0  0
   -0.7537   22.4233  -28.5621 H   0  0  0  0  0  0  0  0  0  0  0  0
   -1.2704   20.6053  -30.1839 H   0  0  0  0  0  0  0  0  0  0  0  0
   -5.2990   20.2690  -31.2320 H   0  0  0  0  0  0  0  0  0  0  0  0
   -3.5726   18.4487  -33.9335 H   0  0  0  0  0  0  0  0  0  0  0  0
   -4.5590   16.6038  -35.2847 H   0  0  0  0  0  0  0  0  0  0  0  0
   -6.8646   15.7913  -34.7979 H   0  0  0  0  0  0  0  0  0  0  0  0
   -8.1988   16.8364  -32.9716 H   0  0  0  0  0  0  0  0  0  0  0  0
   -9.1771   19.4577  -30.5500 H   0  0  0  0  0  0  0  0  0  0  0  0
   -8.7513   20.2638  -32.0978 H   0  0  0  0  0  0  0  0  0  0  0  0
   -9.3056   18.5552  -32.0978 H   0  0  0  0  0  0  0  0  0  0  0  0
   -4.2099   23.1359  -32.0955 H   0  0  0  0  0  0  0  0  0  0  0  0
   -6.6978   23.6505  -28.7364 H   0  0  0  0  0  0  0  0  0  0  0  0
   -8.1477   21.7786  -29.8258 H   0  0  0  0  0  0  0  0  0  0  0  0
   -8.0787   21.8249  -32.4599 H   0  0  0  0  0  0  0  0  0  0  0  0
  1  2  1  0
  2  3  1  0
  3  4  1  0
  4  5  2  0
  5  6  1  0
  6  7  2  0
  7  8  1  0
  8  9  2  0
  8 10  2  0
  8 11  1  0
 11 12  1  0
 12 13  2  0
 13 14  1  0
 14 15  2  0
 15 16  1  0
 16 17  2  0
 17 18  1  0
 18 19  1  0
  7 20  1  0
 20 21  2  0
 21 22  1  0
 22 23  1  0
 23 24  2  0
 23 25  1  0
 25 26  2  0
 26 27  1  0
 27 28  2  0
 28 29  1  0
 21  4  1  0
 29 25  1  0
 17 12  1  0
  1 30  1  0
  1 31  1  0
  1 32  1  0
  2 33  1  0
  2 34  1  0
  5 35  1  0
  6 36  1  0
 11 37  1  0
 13 38  1  0
 14 39  1  0
 15 40  1  0
 16 41  1  0
 19 42  1  0
 19 43  1  0
 19 44  1  0
 20 45  1  0
 26 46  1  0
 27 47  1  0
 28 48  1  0
M  CHG  1  22  -1
M  END
>  <UniqueID>  (31) 
30

>  <SMILES>  (31) 
CCOc1ccc(S(=O)(=O)Nc2ccccc2OC)cc1[N-]C(=O)c1cccs1

>  <Energy>  (31) 
80.94780988094563

>  <Genealogy>  (31) 
CCOc1ccc(S(=O)(=O)Nc2ccccc2OC)cc1[N-]C(=O)c1cccs1 (protonated)
CCOc1ccc(S(=O)(=O)Nc2ccccc2OC)cc1[N-]C(=O)c1cccs1 (3D coordinates assigned)
CCOc1ccc(S(=O)(=O)Nc2ccccc2OC)cc1[N-]C(=O)c1cccs1 (optimized conformer: 80.94780988094563 kcal/mol)

>  <smiles>  (31) 
CCOc1ccc(S(=O)(=O)Nc2ccccc2OC)cc1NC(=O)c1cccs1

>  <score_type>  (31) 
oracle

>  <origin>  (31) 
adgpu

>  <m_score__min__energy>  (31) 
-10.359999999999999

>  <m_primary>  (31) 
energy

$$$$
31:0
     RDKit          3D

 36 38  0  0  0  0  0  0  0  0999 V2000
   -9.4950   20.6820  -32.3110 C   0  0  0  0  0  0  0  0  0  0  0  0
   -8.1420   21.2330  -31.9690 C   0  0  0  0  0  0  0  0  0  0  0  0
   -8.0170   22.2690  -31.0330 C   0  0  0  0  0  0  0  0  0  0  0  0
   -6.7620   22.8110  -30.7420 C   0  0  0  0  0  0  0  0  0  0  0  0
   -5.6100   22.3330  -31.3930 C   0  0  0  0  0  0  0  0  0  0  0  0
   -4.3060   22.8960  -31.1190 N   0  0  0  0  0  0  0  0  0  0  0  0
   -3.0800   22.2140  -31.5680 C   0  0  0  0  0  0  0  0  0  0  0  0
   -2.2960   21.6890  -30.3970 C   0  0  0  0  0  0  0  0  0  0  0  0
   -2.8680   20.9270  -29.3680 C   0  0  0  0  0  0  0  0  0  0  0  0
   -1.9640   20.5570  -28.3820 C   0  0  0  0  0  0  0  0  0  0  0  0
   -0.4590   21.1790  -28.7970 S   0  0  0  0  0  0  0  0  0  0  0  0
   -0.9340   21.9200  -30.2270 C   0  0  0  0  0  0  0  0  0  0  0  0
   -4.2260   24.2290  -30.5770 C   0  0  0  0  0  0  0  0  0  0  0  0
   -4.8680   25.1630  -31.1290 O   0  0  0  0  0  0  0  0  0  0  0  0
   -3.4400   24.5180  -29.3640 C   0  0  0  0  0  0  0  0  0  0  0  0
   -3.7060   24.0370  -28.0960 C   0  0  0  0  0  0  0  0  0  0  0  0
   -2.7130   24.5480  -27.2880 C   0  0  0  0  0  0  0  0  0  0  0  0
   -1.9040   25.3050  -28.1100 C   0  0  0  0  0  0  0  0  0  0  0  0
   -2.3620   25.2660  -29.3400 O   0  0  0  0  0  0  0  0  0  0  0  0
   -5.7440   21.3060  -32.3430 C   0  0  0  0  0  0  0  0  0  0  0  0
   -7.0000   20.7660  -32.6340 C   0  0  0  0  0  0  0  0  0  0  0  0
  -10.0446   20.4582  -31.3848 H   0  0  0  0  0  0  0  0  0  0  0  0
  -10.0549   21.4237  -32.8995 H   0  0  0  0  0  0  0  0  0  0  0  0
   -9.3774   19.7601  -32.8995 H   0  0  0  0  0  0  0  0  0  0  0  0
   -8.9117   22.6576  -30.5246 H   0  0  0  0  0  0  0  0  0  0  0  0
   -6.6744   23.6171  -29.9987 H   0  0  0  0  0  0  0  0  0  0  0  0
   -3.3549   21.3738  -32.2227 H   0  0  0  0  0  0  0  0  0  0  0  0
   -2.4553   22.9378  -32.1119 H   0  0  0  0  0  0  0  0  0  0  0  0
   -3.9320   20.6490  -29.3446 H   0  0  0  0  0  0  0  0  0  0  0  0
   -2.1926   19.9611  -27.4861 H   0  0  0  0  0  0  0  0  0  0  0  0
   -0.2837   22.4876  -30.9089 H   0  0  0  0  0  0  0  0  0  0  0  0
   -4.5371   23.3826  -27.7943 H   0  0  0  0  0  0  0  0  0  0  0  0
   -2.5905   24.3852  -26.2070 H   0  0  0  0  0  0  0  0  0  0  0  0
   -1.0104   25.8577  -27.7843 H   0  0  0  0  0  0  0  0  0  0  0  0
   -4.8527   20.9238  -32.8621 H   0  0  0  0  0  0  0  0  0  0  0  0
   -7.0926   19.9708  -33.3884 H   0  0  0  0  0  0  0  0  0  0  0  0
  1  2  1  0
  2  3  2  0
  3  4  1  0
  4  5  2  0
  5  6  1  0
  6  7  1  0
  7  8  1  0
  8  9  1  0
  9 10  2  0
 10 11  1  0
 11 12  1  0
  6 13  1  0
 13 14  2  0
 13 15  1  0
 15 16  2  0
 16 17  1  0
 17 18  2  0
 18 19  1  0
  5 20  1  0
 20 21  2  0
 21  2  1  0
 12  8  2  0
 19 15  1  0
  1 22  1  0
  1 23  1  0
  1 24  1  0
  3 25  1  0
  4 26  1  0
  7 27  1  0
  7 28  1  0
  9 29  1  0
 10 30  1  0
 12 31  1  0
 16 32  1  0
 17 33  1  0
 18 34  1  0
 20 35  1  0
 21 36  1  0
M  END
>  <UniqueID>  (32) 
31

>  <SMILES>  (32) 
Cc1ccc(N(Cc2ccsc2)C(=O)c2ccco2)cc1

>  <Energy>  (32) 
95.01149852743917

>  <Genealogy>  (32) 
Cc1ccc(N(Cc2ccsc2)C(=O)c2ccco2)cc1 (3D coordinates assigned)
Cc1ccc(N(Cc2ccsc2)C(=O)c2ccco2)cc1 (optimized conformer: 95.01149852743917 kcal/mol)

>  <smiles>  (32) 
Cc1ccc(N(Cc2ccsc2)C(=O)c2ccco2)cc1

>  <score_type>  (32) 
oracle

>  <origin>  (32) 
adgpu

>  <m_score__min__energy>  (32) 
-7.6399999999999997

>  <m_primary>  (32) 
energy

$$$$
32:0
     RDKit          3D

 36 39  0  0  1  0  0  0  0  0999 V2000
   -3.2510   18.8610  -26.2040 C   0  0  0  0  0  0  0  0  0  0  0  0
   -2.6120   20.0490  -26.6580 N   0  0  0  0  0  0  0  0  0  0  0  0
   -1.5660   20.5020  -25.7880 C   0  0  0  0  0  0  0  0  0  0  0  0
   -1.2030   21.9510  -26.0200 C   0  0  0  0  0  0  0  0  0  0  0  0
   -0.5670   22.1640  -27.3750 C   0  0  1  0  0  0  0  0  0  0  0  0
    0.1150   20.8860  -27.7950 C   0  0  0  0  0  0  0  0  0  0  0  0
    1.4880   20.7900  -27.8700 C   0  0  0  0  0  0  0  0  0  0  0  0
    2.0740   19.5940  -28.2600 C   0  0  0  0  0  0  0  0  0  0  0  0
    1.2830   18.5030  -28.5710 C   0  0  0  0  0  0  0  0  0  0  0  0
   -0.0940   18.6400  -28.4830 C   0  0  0  0  0  0  0  0  0  0  0  0
   -0.6890   19.8070  -28.1020 C   0  0  0  0  0  0  0  0  0  0  0  0
   -2.1920   19.9040  -28.0220 C   0  0  2  0  0  0  0  0  0  0  0  0
   -2.4810   21.2420  -28.6600 C   0  0  0  0  0  0  0  0  0  0  0  0
   -3.5230   21.3600  -29.5480 C   0  0  0  0  0  0  0  0  0  0  0  0
   -3.7410   22.6120  -30.1040 C   0  0  0  0  0  0  0  0  0  0  0  0
   -5.0560   22.8270  -31.2430 Cl  0  0  0  0  0  0  0  0  0  0  0  0
   -2.9650   23.7090  -29.8000 C   0  0  0  0  0  0  0  0  0  0  0  0
   -3.2080   24.9420  -30.3700 O   0  0  0  0  0  0  0  0  0  0  0  0
   -1.9140   23.5800  -28.9030 C   0  0  0  0  0  0  0  0  0  0  0  0
   -1.6930   22.3300  -28.3460 C   0  0  0  0  0  0  0  0  0  0  0  0
   -3.2589   18.8463  -25.1041 H   0  0  0  0  0  0  0  0  0  0  0  0
   -4.2850   18.8347  -26.5785 H   0  0  0  0  0  0  0  0  0  0  0  0
   -2.7030   17.9838  -26.5785 H   0  0  0  0  0  0  0  0  0  0  0  0
   -1.8989   20.3848  -24.7462 H   0  0  0  0  0  0  0  0  0  0  0  0
   -0.6720   19.8969  -25.9990 H   0  0  0  0  0  0  0  0  0  0  0  0
   -2.1163   22.5608  -25.9562 H   0  0  0  0  0  0  0  0  0  0  0  0
   -0.4737   22.2465  -25.2514 H   0  0  0  0  0  0  0  0  0  0  0  0
    0.1312   23.0134  -27.3447 H   0  0  0  0  0  0  0  0  0  0  0  0
    2.1167   21.6579  -27.6217 H   0  0  0  0  0  0  0  0  0  0  0  0
    3.1693   19.5136  -28.3219 H   0  0  0  0  0  0  0  0  0  0  0  0
    1.7354   17.5494  -28.8808 H   0  0  0  0  0  0  0  0  0  0  0  0
   -0.7295   17.7766  -28.7293 H   0  0  0  0  0  0  0  0  0  0  0  0
   -2.6789   19.0271  -28.4737 H   0  0  0  0  0  0  0  0  0  0  0  0
   -4.1568   20.4990  -29.8067 H   0  0  0  0  0  0  0  0  0  0  0  0
   -3.5300   24.9720  -31.3340 H   0  0  0  0  0  0  0  0  0  0  0  0
   -1.2786   24.4395  -28.6431 H   0  0  0  0  0  0  0  0  0  0  0  0
  1  2  1  0
  2  3  1  0
  3  4  1  0
  4  5  1  0
  5  6  1  0
  6  7  2  0
  7  8  1  0
  8  9  2  0
  9 10  1  0
 10 11  2  0
 11 12  1  0
 12 13  1  0
 13 14  2  0
 14 15  1  0
 15 16  1  0
 15 17  2  0
 17 18  1  0
 17 19  1  0
 19 20  2  0
 12  2  1  0
 20 13  1  0
 20  5  1  0
 11  6  1  0
  1 21  1  0
  1 22  1  0
  1 23  1  0
  3 24  1  0
  3 25  1  0
  4 26  1  0
  4 27  1  0
  5 28  1  1
  7 29  1  0
  8 30  1  0
  9 31  1  0
 10 32  1  0
 12 33  1  6
 14 34  1  0
 18 35  1  0
 19 36  1  0
M  END
>  <smiles>  (33) 
CN1CCC2c3ccccc3C1c1cc(Cl)c(O)cc12

>  <score_type>  (33) 
oracle

>  <origin>  (33) 
adgpu

>  <m_score__min__energy>  (33) 
-6.3300000000000001

>  <m_primary>  (33) 
energy

$$$$
33:0
     RDKit          3D

 45 47  0  0  0  0  0  0  0  0999 V2000
   -2.3430   24.5550  -28.9170 C   0  0  0  0  0  0  0  0  0  0  0  0
   -3.2620   25.2710  -29.7340 O   0  0  0  0  0  0  0  0  0  0  0  0
   -4.5280   24.7970  -30.1140 C   0  0  0  0  0  0  0  0  0  0  0  0
   -5.7150   25.3830  -29.6280 C   0  0  0  0  0  0  0  0  0  0  0  0
   -6.9600   24.9340  -30.0750 C   0  0  0  0  0  0  0  0  0  0  0  0
   -7.0380   23.9050  -31.0130 C   0  0  0  0  0  0  0  0  0  0  0  0
   -5.8700   23.3080  -31.4930 C   0  0  0  0  0  0  0  0  0  0  0  0
   -4.6150   23.7240  -31.0290 C   0  0  0  0  0  0  0  0  0  0  0  0
   -3.4460   23.0640  -31.5360 N   0  0  0  0  0  0  0  0  0  0  0  0
   -3.0760   21.6940  -31.3240 C   0  0  0  0  0  0  0  0  0  0  0  0
   -2.3720   21.4160  -30.3160 O   0  0  0  0  0  0  0  0  0  0  0  0
   -3.4410   20.6110  -32.2780 C   0  0  0  0  0  0  0  0  0  0  0  0
   -2.5680   20.2270  -33.3120 C   0  0  0  0  0  0  0  0  0  0  0  0
   -2.9090   19.1880  -34.1800 C   0  0  0  0  0  0  0  0  0  0  0  0
   -4.1100   18.4980  -34.0100 C   0  0  0  0  0  0  0  0  0  0  0  0
   -4.9860   18.8470  -32.9740 C   0  0  0  0  0  0  0  0  0  0  0  0
   -6.4550   17.9010  -32.7010 S   0  0  0  0  0  0  0  0  0  0  0  0
   -6.4020   17.2940  -31.3250 O   0  0  0  0  0  0  0  0  0  0  0  0
   -6.5030   16.7770  -33.7000 O   0  0  0  0  0  0  0  0  0  0  0  0
   -7.9110   18.8610  -32.8580 N   0  0  0  0  0  0  0  0  0  0  0  0
   -7.6090   20.2850  -33.0980 C   0  0  0  0  0  0  0  0  0  0  0  0
   -8.0050   21.0480  -31.8470 C   0  0  0  0  0  0  0  0  0  0  0  0
   -9.1120   20.2120  -31.2530 C   0  0  0  0  0  0  0  0  0  0  0  0
   -8.7480   18.7880  -31.6430 C   0  0  0  0  0  0  0  0  0  0  0  0
   -4.6500   19.9060  -32.1140 C   0  0  0  0  0  0  0  0  0  0  0  0
   -2.5759   24.7365  -27.8574 H   0  0  0  0  0  0  0  0  0  0  0  0
   -2.4233   23.4790  -29.1310 H   0  0  0  0  0  0  0  0  0  0  0  0
   -1.3193   24.8960  -29.1310 H   0  0  0  0  0  0  0  0  0  0  0  0
   -5.6602   26.1989  -28.8922 H   0  0  0  0  0  0  0  0  0  0  0  0
   -7.8809   25.3931  -29.6862 H   0  0  0  0  0  0  0  0  0  0  0  0
   -8.0191   23.5636  -31.3748 H   0  0  0  0  0  0  0  0  0  0  0  0
   -5.9359   22.5046  -32.2415 H   0  0  0  0  0  0  0  0  0  0  0  0
   -1.6084   20.7498  -33.4378 H   0  0  0  0  0  0  0  0  0  0  0  0
   -2.2293   18.9126  -34.9999 H   0  0  0  0  0  0  0  0  0  0  0  0
   -4.3702   17.6759  -34.6930 H   0  0  0  0  0  0  0  0  0  0  0  0
   -8.4510   18.4820  -33.6720 H   0  0  0  0  0  0  0  0  0  0  0  0
   -6.5342   20.4141  -33.2931 H   0  0  0  0  0  0  0  0  0  0  0  0
   -8.1618   20.6581  -33.9728 H   0  0  0  0  0  0  0  0  0  0  0  0
   -7.1569   21.1273  -31.1510 H   0  0  0  0  0  0  0  0  0  0  0  0
   -8.3180   22.0810  -32.0591 H   0  0  0  0  0  0  0  0  0  0  0  0
   -9.1412   20.3224  -30.1589 H   0  0  0  0  0  0  0  0  0  0  0  0
  -10.1073   20.5087  -31.6153 H   0  0  0  0  0  0  0  0  0  0  0  0
   -8.1865   18.3073  -30.8284 H   0  0  0  0  0  0  0  0  0  0  0  0
   -9.6544   18.1941  -31.8319 H   0  0  0  0  0  0  0  0  0  0  0  0
   -5.3384   20.1879  -31.3036 H   0  0  0  0  0  0  0  0  0  0  0  0
  1  2  1  0
  2  3  1  0
  3  4  2  0
  4  5  1  0
  5  6  2  0
  6  7  1  0
  7  8  2  0
  8  9  1  0
  9 10  1  0
 10 11  2  0
 10 12  1  0
 12 13  2  0
 13 14  1  0
 14 15  2  0
 15 16  1  0
 16 17  1  0
 17 18  2  0
 17 19  2  0
 17 20  1  0
 20 21  1  0
 21 22  1  0
 22 23  1  0
 23 24  1  0
 16 25  2  0
  8  3  1  0
 25 12  1  0
 24 20  1  0
  1 26  1  0
  1 27  1  0
  1 28  1  0
  4 29  1  0
  5 30  1  0
  6 31  1  0
  7 32  1  0
 13 33  1  0
 14 34  1  0
 15 35  1  0
 20 36  1  0
 21 37  1  0
 21 38  1  0
 22 39  1  0
 22 40  1  0
 23 41  1  0
 23 42  1  0
 24 43  1  0
 24 44  1  0
 25 45  1  0
M  CHG  2   9  -1  20   1
M  END
>  <UniqueID>  (34) 
32

>  <SMILES>  (34) 
COc1ccccc1[N-]C(=O)c1cccc(S(=O)(=O)[NH+]2CCCC2)c1

>  <Energy>  (34) 
54.070314100253086

>  <Genealogy>  (34) 
COc1ccccc1[N-]C(=O)c1cccc(S(=O)(=O)[NH+]2CCCC2)c1 (protonated)
COc1ccccc1[N-]C(=O)c1cccc(S(=O)(=O)[NH+]2CCCC2)c1 (3D coordinates assigned)
COc1ccccc1[N-]C(=O)c1cccc(S(=O)(=O)[NH+]2CCCC2)c1 (nonaromatic ring conformer: 54.070314100253086 kcal/mol)

>  <smiles>  (34) 
COc1ccccc1NC(=O)c1cccc(S(=O)(=O)N2CCCC2)c1

>  <score_type>  (34) 
oracle

>  <origin>  (34) 
adgpu

>  <m_score__min__energy>  (34) 
-11.039999999999999

>  <m_primary>  (34) 
energy

$$$$
34:0
     RDKit          3D

 63 66  0  0  0  0  0  0  0  0999 V2000
   -4.5271   14.9421  -32.1945 H   0  0  0  0  0  0  0  0  0  0  0  0
   -4.0090   15.7460  -32.7380 C   0  0  0  0  0  0  0  0  0  0  0  0
   -2.6920   15.6120  -32.9600 C   0  0  0  0  0  0  0  0  0  0  0  0
   -2.1974   14.7040  -32.5846 H   0  0  0  0  0  0  0  0  0  0  0  0
   -1.8460   16.6240  -33.6900 C   0  0  0  0  0  0  0  0  0  0  0  0
   -2.0593   16.5604  -34.7672 H   0  0  0  0  0  0  0  0  0  0  0  0
   -0.7870   16.4021  -33.4917 H   0  0  0  0  0  0  0  0  0  0  0  0
   -2.1340   17.9960  -33.2210 N   0  0  0  0  0  0  0  0  0  0  0  0
   -1.1400   18.4730  -32.2270 C   0  0  0  0  0  0  0  0  0  0  0  0
   -0.2573   18.8376  -32.7728 H   0  0  0  0  0  0  0  0  0  0  0  0
   -0.9203   17.6172  -31.5717 H   0  0  0  0  0  0  0  0  0  0  0  0
   -1.6400   19.6070  -31.3100 C   0  0  0  0  0  0  0  0  0  0  0  0
   -1.0321   19.5904  -30.3934 H   0  0  0  0  0  0  0  0  0  0  0  0
   -2.7090   19.4051  -31.1473 H   0  0  0  0  0  0  0  0  0  0  0  0
   -1.5720   21.0450  -31.8990 C   0  0  0  0  0  0  0  0  0  0  0  0
   -0.5124   21.3135  -32.0222 H   0  0  0  0  0  0  0  0  0  0  0  0
   -2.1073   21.6933  -31.1897 H   0  0  0  0  0  0  0  0  0  0  0  0
   -2.2480   21.2190  -33.2130 N   0  0  2  0  0  0  0  0  0  0  0  0
   -2.1240   22.1970  -33.5580 H   0  0  0  0  0  0  0  0  0  0  0  0
   -3.7140   21.0070  -33.0750 C   0  0  0  0  0  0  0  0  0  0  0  0
   -3.8841   20.0556  -32.5497 H   0  0  0  0  0  0  0  0  0  0  0  0
   -4.1449   20.9954  -34.0870 H   0  0  0  0  0  0  0  0  0  0  0  0
   -4.3940   22.1160  -32.3010 C   0  0  0  0  0  0  0  0  0  0  0  0
   -5.7930   22.2090  -32.2770 C   0  0  0  0  0  0  0  0  0  0  0  0
   -6.4004   21.4682  -32.8176 H   0  0  0  0  0  0  0  0  0  0  0  0
   -6.4190   23.2390  -31.5690 C   0  0  0  0  0  0  0  0  0  0  0  0
   -7.5164   23.3144  -31.5647 H   0  0  0  0  0  0  0  0  0  0  0  0
   -5.6520   24.1740  -30.8660 C   0  0  0  0  0  0  0  0  0  0  0  0
   -6.1489   24.9857  -30.3144 H   0  0  0  0  0  0  0  0  0  0  0  0
   -4.2570   24.0820  -30.8610 C   0  0  0  0  0  0  0  0  0  0  0  0
   -3.4980   25.0620  -30.1380 N   0  0  0  0  0  0  0  0  0  0  0  0
   -2.4480   24.7860  -29.1990 C   0  0  0  0  0  0  0  0  0  0  0  0
   -1.6470   25.7100  -28.8950 O   0  0  0  0  0  0  0  0  0  0  0  0
   -2.3360   23.4700  -28.5270 C   0  0  0  0  0  0  0  0  0  0  0  0
   -3.5000   22.7100  -28.3120 C   0  0  0  0  0  0  0  0  0  0  0  0
   -4.4759   23.1024  -28.6341 H   0  0  0  0  0  0  0  0  0  0  0  0
   -3.4250   21.4600  -27.6920 C   0  0  0  0  0  0  0  0  0  0  0  0
   -4.3411   20.8751  -27.5225 H   0  0  0  0  0  0  0  0  0  0  0  0
   -2.1880   20.9520  -27.2870 C   0  0  0  0  0  0  0  0  0  0  0  0
   -2.0980   19.3770  -26.5210 Cl  0  0  0  0  0  0  0  0  0  0  0  0
   -1.0250   21.6980  -27.4950 C   0  0  0  0  0  0  0  0  0  0  0  0
   -0.0528   21.2948  -27.1753 H   0  0  0  0  0  0  0  0  0  0  0  0
   -1.0890   22.9560  -28.1080 C   0  0  0  0  0  0  0  0  0  0  0  0
    0.4200   23.8130  -28.4180 Cl  0  0  0  0  0  0  0  0  0  0  0  0
   -3.6300   23.0650  -31.6030 C   0  0  0  0  0  0  0  0  0  0  0  0
   -2.5318   23.0126  -31.6368 H   0  0  0  0  0  0  0  0  0  0  0  0
   -1.7340   20.2870  -34.2540 C   0  0  0  0  0  0  0  0  0  0  0  0
   -0.6692   20.1037  -34.0476 H   0  0  0  0  0  0  0  0  0  0  0  0
   -1.9226   20.7811  -35.2185 H   0  0  0  0  0  0  0  0  0  0  0  0
   -2.4440   18.9180  -34.3360 C   0  0  0  0  0  0  0  0  0  0  0  0
   -2.1449   18.4321  -35.2764 H   0  0  0  0  0  0  0  0  0  0  0  0
   -3.5234   19.1226  -34.2806 H   0  0  0  0  0  0  0  0  0  0  0  0
   -4.8030   16.9100  -33.1810 C   0  0  0  0  0  0  0  0  0  0  0  0
   -4.9660   17.1520  -34.5550 C   0  0  0  0  0  0  0  0  0  0  0  0
   -4.4747   16.4956  -35.2883 H   0  0  0  0  0  0  0  0  0  0  0  0
   -5.7510   18.2250  -34.9960 C   0  0  0  0  0  0  0  0  0  0  0  0
   -5.8919   18.3975  -36.0732 H   0  0  0  0  0  0  0  0  0  0  0  0
   -6.3550   19.0760  -34.0670 C   0  0  0  0  0  0  0  0  0  0  0  0
   -6.9734   19.9173  -34.4132 H   0  0  0  0  0  0  0  0  0  0  0  0
   -6.1740   18.8590  -32.6970 C   0  0  0  0  0  0  0  0  0  0  0  0
   -6.6439   19.5351  -31.9675 H   0  0  0  0  0  0  0  0  0  0  0  0
   -5.3960   17.7830  -32.2520 C   0  0  0  0  0  0  0  0  0  0  0  0
   -5.2486   17.6206  -31.1741 H   0  0  0  0  0  0  0  0  0  0  0  0
  1  2  1  0
  2  3  2  0
  3  4  1  0
  3  5  1  0
  5  6  1  0
  5  7  1  0
  5  8  1  0
  8  9  1  0
  9 10  1  0
  9 11  1  0
  9 12  1  0
 12 13  1  0
 12 14  1  0
 12 15  1  0
 15 16  1  0
 15 17  1  0
 15 18  1  0
 18 19  1  6
 18 20  1  0
 20 21  1  0
 20 22  1  0
 20 23  1  0
 23 24  2  0
 24 25  1  0
 24 26  1  0
 26 27  1  0
 26 28  2  0
 28 29  1  0
 28 30  1  0
 30 31  1  0
 31 32  1  0
 32 33  2  0
 32 34  1  0
 34 35  2  0
 35 36  1  0
 35 37  1  0
 37 38  1  0
 37 39  2  0
 39 40  1  0
 39 41  1  0
 41 42  1  0
 41 43  2  0
 43 44  1  0
 30 45  2  0
 45 46  1  0
 18 47  1  0
 47 48  1  0
 47 49  1  0
 47 50  1  0
 50 51  1  0
 50 52  1  0
  2 53  1  0
 53 54  2  0
 54 55  1  0
 54 56  1  0
 56 57  1  0
 56 58  2  0
 58 59  1  0
 58 60  1  0
 60 61  1  0
 60 62  2  0
 62 63  1  0
 50  8  1  0
 62 53  1  0
 45 23  1  0
 43 34  1  0
M  CHG  2  18   1  31  -1
M  END
>  <UniqueID>  (35) 
33

>  <SMILES>  (35) 
O=C([N-]c1cccc(C[N@H+]2CCCN(C/C=C\c3ccccc3)CC2)c1)c1ccc(Cl)cc1Cl

>  <Energy>  (35) 
100.98608684675959

>  <Genealogy>  (35) 
O=C([N-]c1cccc(C[NH+]2CCCN(CC=Cc3ccccc3)CC2)c1)c1ccc(Cl)cc1Cl (protonated)
O=C([N-]c1cccc(C[N@H+]2CCCN(CC=Cc3ccccc3)CC2)c1)c1ccc(Cl)cc1Cl (chirality)
O=C([N-]c1cccc(C[N@H+]2CCCN(C/C=C\c3ccccc3)CC2)c1)c1ccc(Cl)cc1Cl (cis-trans isomerization)
O=C([N-]c1cccc(C[N@H+]2CCCN(C/C=C\c3ccccc3)CC2)c1)c1ccc(Cl)cc1Cl (3D coordinates assigned)
O=C([N-]c1cccc(C[N@H+]2CCCN(C/C=C\c3ccccc3)CC2)c1)c1ccc(Cl)cc1Cl (nonaromatic ring conformer: 100.98608684675959 kcal/mol)

>  <smiles>  (35) 
O=C(Nc1cccc(CN2CCCN(CC=Cc3ccccc3)CC2)c1)c1ccc(Cl)cc1Cl

>  <score_type>  (35) 
oracle

>  <origin>  (35) 
adgpu

>  <m_score__min__energy>  (35) 
-8.9000000000000004

>  <m_primary>  (35) 
energy

$$$$
35:0
     RDKit          3D

 62 66  0  0  0  0  0  0  0  0999 V2000
   -9.2060   18.3560  -31.3800 O   0  0  0  0  0  0  0  0  0  0  0  0
   -8.3770   18.7880  -32.2250 C   0  0  0  0  0  0  0  0  0  0  0  0
   -7.1970   17.9520  -32.5760 C   0  0  0  0  0  0  0  0  0  0  0  0
   -6.4490   17.2900  -31.5910 C   0  0  0  0  0  0  0  0  0  0  0  0
   -5.3590   16.4990  -31.9650 C   0  0  0  0  0  0  0  0  0  0  0  0
   -5.0070   16.3850  -33.3130 C   0  0  0  0  0  0  0  0  0  0  0  0
   -3.8360   15.5850  -33.7260 C   0  0  0  0  0  0  0  0  0  0  0  0
   -3.8080   14.2190  -33.3960 C   0  0  0  0  0  0  0  0  0  0  0  0
   -2.7390   13.4150  -33.7930 C   0  0  0  0  0  0  0  0  0  0  0  0
   -1.6910   13.9630  -34.5360 C   0  0  0  0  0  0  0  0  0  0  0  0
   -1.7040   15.3210  -34.8740 C   0  0  0  0  0  0  0  0  0  0  0  0
   -2.7590   16.1550  -34.4550 C   0  0  0  0  0  0  0  0  0  0  0  0
   -2.7610   17.6170  -34.8630 C   0  0  0  0  0  0  0  0  0  0  0  0
   -1.8500   18.4170  -34.0430 N   0  0  0  0  0  0  0  0  0  0  0  0
   -2.2850   19.3580  -33.0470 C   0  0  0  0  0  0  0  0  0  0  0  0
   -3.6490   19.5480  -32.7500 C   0  0  0  0  0  0  0  0  0  0  0  0
   -4.0380   20.4870  -31.7890 C   0  0  0  0  0  0  0  0  0  0  0  0
   -3.0760   21.2480  -31.1010 C   0  0  0  0  0  0  0  0  0  0  0  0
   -3.4970   22.2910  -30.1350 C   0  0  0  0  0  0  0  0  0  0  0  0
   -2.9600   22.2630  -28.8360 C   0  0  0  0  0  0  0  0  0  0  0  0
   -3.3870   23.1830  -27.8710 C   0  0  0  0  0  0  0  0  0  0  0  0
   -4.3420   24.1530  -28.1970 C   0  0  0  0  0  0  0  0  0  0  0  0
   -4.8670   24.2170  -29.4970 C   0  0  0  0  0  0  0  0  0  0  0  0
   -6.0530   25.4730  -29.8630 Cl  0  0  0  0  0  0  0  0  0  0  0  0
   -4.4480   23.2870  -30.4730 C   0  0  0  0  0  0  0  0  0  0  0  0
   -5.0830   23.4010  -32.1120 Cl  0  0  0  0  0  0  0  0  0  0  0  0
   -1.7170   21.0540  -31.3920 C   0  0  0  0  0  0  0  0  0  0  0  0
   -1.3250   20.1130  -32.3500 C   0  0  0  0  0  0  0  0  0  0  0  0
   -5.7760   17.0540  -34.2680 C   0  0  0  0  0  0  0  0  0  0  0  0
   -6.8390   17.8080  -33.8810 N   0  0  0  0  0  0  0  0  0  0  0  0
   -8.5310   20.1180  -32.7870 N   0  0  0  0  0  0  0  0  0  0  0  0
   -7.3130   20.9310  -32.5880 C   0  0  0  0  0  0  0  0  0  0  0  0
   -7.2530   21.5290  -31.1770 C   0  0  0  0  0  0  0  0  0  0  0  0
   -8.3960   22.3220  -30.9360 O   0  0  0  0  0  0  0  0  0  0  0  0
   -9.5410   21.4940  -30.9300 C   0  0  0  0  0  0  0  0  0  0  0  0
   -9.7460   20.8210  -32.3030 C   0  0  0  0  0  0  0  0  0  0  0  0
   -6.7189   17.3929  -30.5296 H   0  0  0  0  0  0  0  0  0  0  0  0
   -4.7779   15.9659  -31.1981 H   0  0  0  0  0  0  0  0  0  0  0  0
   -4.6359   13.7801  -32.8199 H   0  0  0  0  0  0  0  0  0  0  0  0
   -2.7216   12.3494  -33.5208 H   0  0  0  0  0  0  0  0  0  0  0  0
   -0.8535   13.3258  -34.8562 H   0  0  0  0  0  0  0  0  0  0  0  0
   -0.8824   15.7412  -35.4727 H   0  0  0  0  0  0  0  0  0  0  0  0
   -2.4502   17.6923  -35.9155 H   0  0  0  0  0  0  0  0  0  0  0  0
   -3.7791   18.0081  -34.7195 H   0  0  0  0  0  0  0  0  0  0  0  0
   -0.8380   18.4110  -34.3050 H   0  0  0  0  0  0  0  0  0  0  0  0
   -4.4116   18.9552  -33.2763 H   0  0  0  0  0  0  0  0  0  0  0  0
   -5.1061   20.6315  -31.5694 H   0  0  0  0  0  0  0  0  0  0  0  0
   -2.1988   21.5127  -28.5760 H   0  0  0  0  0  0  0  0  0  0  0  0
   -2.9708   23.1435  -26.8536 H   0  0  0  0  0  0  0  0  0  0  0  0
   -4.6819   24.8670  -27.4323 H   0  0  0  0  0  0  0  0  0  0  0  0
   -0.9551   21.6457  -30.8634 H   0  0  0  0  0  0  0  0  0  0  0  0
   -0.2558   19.9622  -32.5600 H   0  0  0  0  0  0  0  0  0  0  0  0
   -5.5211   16.9707  -35.3348 H   0  0  0  0  0  0  0  0  0  0  0  0
   -8.6570   20.0040  -33.8220 H   0  0  0  0  0  0  0  0  0  0  0  0
   -6.4300   20.2935  -32.7426 H   0  0  0  0  0  0  0  0  0  0  0  0
   -7.3329   21.7601  -33.3107 H   0  0  0  0  0  0  0  0  0  0  0  0
   -7.2130   20.7148  -30.4384 H   0  0  0  0  0  0  0  0  0  0  0  0
   -6.3545   22.1577  -31.0909 H   0  0  0  0  0  0  0  0  0  0  0  0
   -9.4174   20.7153  -30.1629 H   0  0  0  0  0  0  0  0  0  0  0  0
  -10.4213   22.1161  -30.7106 H   0  0  0  0  0  0  0  0  0  0  0  0
  -10.5640   20.0905  -32.2176 H   0  0  0  0  0  0  0  0  0  0  0  0
   -9.9806   21.6139  -33.0285 H   0  0  0  0  0  0  0  0  0  0  0  0
  1  2  2  0
  2  3  1  0
  3  4  2  0
  4  5  1  0
  5  6  2  0
  6  7  1  0
  7  8  2  0
  8  9  1  0
  9 10  2  0
 10 11  1  0
 11 12  2  0
 12 13  1  0
 13 14  1  0
 14 15  1  0
 15 16  2  0
 16 17  1  0
 17 18  2  0
 18 19  1  0
 19 20  2  0
 20 21  1  0
 21 22  2  0
 22 23  1  0
 23 24  1  0
 23 25  2  0
 25 26  1  0
 18 27  1  0
 27 28  2  0
  6 29  1  0
 29 30  2  0
  2 31  1  0
 31 32  1  0
 32 33  1  0
 33 34  1  0
 34 35  1  0
 35 36  1  0
 30  3  1  0
 36 31  1  0
 12  7  1  0
 28 15  1  0
 25 19  1  0
  4 37  1  0
  5 38  1  0
  8 39  1  0
  9 40  1  0
 10 41  1  0
 11 42  1  0
 13 43  1  0
 13 44  1  0
 14 45  1  0
 16 46  1  0
 17 47  1  0
 20 48  1  0
 21 49  1  0
 22 50  1  0
 27 51  1  0
 28 52  1  0
 29 53  1  0
 31 54  1  0
 32 55  1  0
 32 56  1  0
 33 57  1  0
 33 58  1  0
 35 59  1  0
 35 60  1  0
 36 61  1  0
 36 62  1  0
M  CHG  1  31   1
M  END
>  <UniqueID>  (36) 
34

>  <SMILES>  (36) 
O=C(c1ccc(-c2ccccc2CNc2ccc(-c3cccc(Cl)c3Cl)cc2)cn1)[NH+]1CCOCC1

>  <Energy>  (36) 
94.9584592725961

>  <Genealogy>  (36) 
O=C(c1ccc(-c2ccccc2CNc2ccc(-c3cccc(Cl)c3Cl)cc2)cn1)[NH+]1CCOCC1 (protonated)
O=C(c1ccc(-c2ccccc2CNc2ccc(-c3cccc(Cl)c3Cl)cc2)cn1)[NH+]1CCOCC1 (3D coordinates assigned)
O=C(c1ccc(-c2ccccc2CNc2ccc(-c3cccc(Cl)c3Cl)cc2)cn1)[NH+]1CCOCC1 (nonaromatic ring conformer: 94.9584592725961 kcal/mol)

>  <smiles>  (36) 
O=C(c1ccc(-c2ccccc2CNc2ccc(-c3cccc(Cl)c3Cl)cc2)cn1)N1CCOCC1

>  <score_type>  (36) 
oracle

>  <origin>  (36) 
adgpu

>  <m_score__min__energy>  (36) 
-10.01

>  <m_primary>  (36) 
energy

$$$$
36:0
     RDKit          3D

 50 52  0  0  0  0  0  0  0  0999 V2000
   -1.9470   25.6510  -25.6660 C   0  0  0  0  0  0  0  0  0  0  0  0
   -1.3460   26.3220  -26.6530 C   0  0  0  0  0  0  0  0  0  0  0  0
   -0.7320   25.6020  -27.8240 C   0  0  0  0  0  0  0  0  0  0  0  0
   -1.7070   25.4660  -28.9140 N   0  0  0  0  0  0  0  0  0  0  0  0
   -2.6910   24.4160  -28.9970 C   0  0  0  0  0  0  0  0  0  0  0  0
   -2.6110   23.2740  -28.1790 C   0  0  0  0  0  0  0  0  0  0  0  0
   -3.5810   22.2680  -28.2590 C   0  0  0  0  0  0  0  0  0  0  0  0
   -3.4950   21.0750  -27.4720 N   0  0  0  0  0  0  0  0  0  0  0  0
   -2.0010   20.2390  -27.1760 S   0  0  0  0  0  0  0  0  0  0  0  0
   -1.5330   19.5980  -28.4460 O   0  0  0  0  0  0  0  0  0  0  0  0
   -2.2090   19.1660  -26.1360 O   0  0  0  0  0  0  0  0  0  0  0  0
   -0.7990   21.4100  -26.6340 C   0  0  0  0  0  0  0  0  0  0  0  0
    0.1750   21.8710  -27.5300 C   0  0  0  0  0  0  0  0  0  0  0  0
    1.0730   22.8700  -27.1380 C   0  0  0  0  0  0  0  0  0  0  0  0
    0.9970   23.4190  -25.8540 C   0  0  0  0  0  0  0  0  0  0  0  0
    1.8670   24.3860  -25.4840 F   0  0  0  0  0  0  0  0  0  0  0  0
    0.0310   22.9600  -24.9540 C   0  0  0  0  0  0  0  0  0  0  0  0
   -0.8640   21.9560  -25.3410 C   0  0  0  0  0  0  0  0  0  0  0  0
   -4.6450   22.4090  -29.1460 C   0  0  0  0  0  0  0  0  0  0  0  0
   -4.7140   23.4990  -30.0270 C   0  0  0  0  0  0  0  0  0  0  0  0
   -5.8080   23.5470  -31.0840 C   0  0  0  0  0  0  0  0  0  0  0  0
   -5.5020   22.7960  -32.3300 N   0  0  0  0  0  0  0  0  0  0  0  0
   -4.1240   22.2960  -32.4060 C   0  0  0  0  0  0  0  0  0  0  0  0
   -4.1380   20.8150  -32.0330 C   0  0  0  0  0  0  0  0  0  0  0  0
   -5.5890   20.3750  -32.1600 C   0  0  0  0  0  0  0  0  0  0  0  0
   -6.3660   21.6290  -32.5620 C   0  0  0  0  0  0  0  0  0  0  0  0
   -3.7580   24.5290  -29.9120 C   0  0  0  0  0  0  0  0  0  0  0  0
   -3.8740   25.6720  -30.6970 O   0  0  0  0  0  0  0  0  0  0  0  0
   -2.3892   26.1969  -24.8195 H   0  0  0  0  0  0  0  0  0  0  0  0
   -1.9996   24.5528  -25.7000 H   0  0  0  0  0  0  0  0  0  0  0  0
   -1.2990   27.4201  -26.6091 H   0  0  0  0  0  0  0  0  0  0  0  0
    0.1366   26.1725  -28.1846 H   0  0  0  0  0  0  0  0  0  0  0  0
   -0.4190   24.5985  -27.4998 H   0  0  0  0  0  0  0  0  0  0  0  0
   -1.6110   26.1380  -29.7100 H   0  0  0  0  0  0  0  0  0  0  0  0
   -1.7772   23.1706  -27.4690 H   0  0  0  0  0  0  0  0  0  0  0  0
    0.2337   21.4468  -28.5432 H   0  0  0  0  0  0  0  0  0  0  0  0
    1.8407   23.2244  -27.8416 H   0  0  0  0  0  0  0  0  0  0  0  0
   -0.0257   23.3877  -23.9421 H   0  0  0  0  0  0  0  0  0  0  0  0
   -1.6211   21.5930  -24.6303 H   0  0  0  0  0  0  0  0  0  0  0  0
   -5.4445   21.6536  -29.1563 H   0  0  0  0  0  0  0  0  0  0  0  0
   -6.7254   23.1260  -30.6468 H   0  0  0  0  0  0  0  0  0  0  0  0
   -5.9121   24.6026  -31.3754 H   0  0  0  0  0  0  0  0  0  0  0  0
   -3.7378   22.4198  -33.4285 H   0  0  0  0  0  0  0  0  0  0  0  0
   -3.4753   22.8573  -31.7174 H   0  0  0  0  0  0  0  0  0  0  0  0
   -3.5007   20.2398  -32.7207 H   0  0  0  0  0  0  0  0  0  0  0  0
   -3.7490   20.6472  -31.0178 H   0  0  0  0  0  0  0  0  0  0  0  0
   -5.6883   19.5979  -32.9322 H   0  0  0  0  0  0  0  0  0  0  0  0
   -5.9675   19.9457  -31.2207 H   0  0  0  0  0  0  0  0  0  0  0  0
   -6.6393   21.5731  -33.6260 H   0  0  0  0  0  0  0  0  0  0  0  0
   -7.2876   21.7131  -31.9674 H   0  0  0  0  0  0  0  0  0  0  0  0
  1  2  2  0
  2  3  1  0
  3  4  1  0
  4  5  1  0
  5  6  2  0
  6  7  1  0
  7  8  1  0
  8  9  1  0
  9 10  2  0
  9 11  2  0
  9 12  1  0
 12 13  2  0
 13 14  1  0
 14 15  2  0
 15 16  1  0
 15 17  1  0
 17 18  2  0
  7 19  2  0
 19 20  1  0
 20 21  1  0
 21 22  1  0
 22 23  1  0
 23 24  1  0
 24 25  1  0
 25 26  1  0
 20 27  2  0
 27 28  1  0
 27  5  1  0
 18 12  1  0
 26 22  1  0
  1 29  1  0
  1 30  1  0
  2 31  1  0
  3 32  1  0
  3 33  1  0
  4 34  1  0
  6 35  1  0
 13 36  1  0
 14 37  1  0
 17 38  1  0
 18 39  1  0
 19 40  1  0
 21 41  1  0
 21 42  1  0
 23 43  1  0
 23 44  1  0
 24 45  1  0
 24 46  1  0
 25 47  1  0
 25 48  1  0
 26 49  1  0
 26 50  1  0
M  CHG  2   8  -1  28  -1
M  END
>  <UniqueID>  (37) 
35

>  <SMILES>  (37) 
C=CCNc1cc([N-]S(=O)(=O)c2ccc(F)cc2)cc(CN2CCCC2)c1[O-]

>  <Energy>  (37) 
57.791629172654524

>  <Genealogy>  (37) 
C=CCNc1cc([N-]S(=O)(=O)c2ccc(F)cc2)cc(CN2CCCC2)c1[O-] (protonated)
C=CCNc1cc([N-]S(=O)(=O)c2ccc(F)cc2)cc(CN2CCCC2)c1[O-] (3D coordinates assigned)
C=CCNc1cc([N-]S(=O)(=O)c2ccc(F)cc2)cc(CN2CCCC2)c1[O-] (nonaromatic ring conformer: 57.791629172654524 kcal/mol)

>  <smiles>  (37) 
C=CCNc1cc(NS(=O)(=O)c2ccc(F)cc2)cc(CN2CCCC2)c1O

>  <score_type>  (37) 
oracle

>  <origin>  (37) 
adgpu

>  <m_score__min__energy>  (37) 
-11.91

>  <m_primary>  (37) 
energy

$$$$
37:0
     RDKit          3D

 35 37  0  0  0  0  0  0  0  0999 V2000
   -3.8136   14.0927  -32.8030 H   0  0  0  0  0  0  0  0  0  0  0  0
   -4.6810   14.6980  -33.1050 C   0  0  0  0  0  0  0  0  0  0  0  0
   -5.6860   14.1310  -33.8220 N   0  0  0  0  0  0  0  0  0  0  0  0
   -6.7730   14.8470  -34.2120 C   0  0  0  0  0  0  0  0  0  0  0  0
   -7.5717   14.3601  -34.7907 H   0  0  0  0  0  0  0  0  0  0  0  0
   -6.8790   16.2000  -33.8800 C   0  0  0  0  0  0  0  0  0  0  0  0
   -7.7585   16.7795  -34.1973 H   0  0  0  0  0  0  0  0  0  0  0  0
   -5.8570   16.8170  -33.1390 C   0  0  0  0  0  0  0  0  0  0  0  0
   -5.9580   18.2500  -32.7790 C   0  0  0  0  0  0  0  0  0  0  0  0
   -5.6930   18.7290  -31.5400 N   0  0  0  0  0  0  0  0  0  0  0  0
   -5.8500   20.0480  -31.4360 N   0  0  0  0  0  0  0  0  0  0  0  0
   -5.7210   20.5400  -30.5260 H   0  0  0  0  0  0  0  0  0  0  0  0
   -6.2390   20.6350  -32.5930 C   0  0  0  0  0  0  0  0  0  0  0  0
   -6.4950   21.9010  -32.7430 N   0  0  0  0  0  0  0  0  0  0  0  0
   -6.2880   22.9330  -31.7670 C   0  0  0  0  0  0  0  0  0  0  0  0
   -7.3920   23.4560  -31.0850 C   0  0  0  0  0  0  0  0  0  0  0  0
   -8.3963   23.0498  -31.2756 H   0  0  0  0  0  0  0  0  0  0  0  0
   -7.2240   24.4920  -30.1630 C   0  0  0  0  0  0  0  0  0  0  0  0
   -8.0932   24.8841  -29.6146 H   0  0  0  0  0  0  0  0  0  0  0  0
   -5.9550   25.0320  -29.9350 C   0  0  0  0  0  0  0  0  0  0  0  0
   -5.8270   25.8434  -29.2034 H   0  0  0  0  0  0  0  0  0  0  0  0
   -4.8420   24.5400  -30.6390 C   0  0  0  0  0  0  0  0  0  0  0  0
   -3.5250   25.0780  -30.4550 N   0  0  0  0  0  0  0  0  0  0  0  0
   -2.3870   24.5440  -29.2610 S   0  0  0  0  0  0  0  0  0  0  0  0
   -1.4160   25.6480  -28.9510 O   0  0  0  0  0  0  0  0  0  0  0  0
   -1.6490   23.3360  -29.7630 O   0  0  0  0  0  0  0  0  0  0  0  0
   -3.2690   24.1130  -27.7790 C   0  0  0  0  0  0  0  0  0  0  0  0
   -2.6741   24.4037  -26.9006 H   0  0  0  0  0  0  0  0  0  0  0  0
   -4.2337   24.6412  -27.7597 H   0  0  0  0  0  0  0  0  0  0  0  0
   -3.4450   23.0273  -27.7597 H   0  0  0  0  0  0  0  0  0  0  0  0
   -5.0170   23.5010  -31.5610 C   0  0  0  0  0  0  0  0  0  0  0  0
   -4.1534   23.1253  -32.1294 H   0  0  0  0  0  0  0  0  0  0  0  0
   -6.4260   19.5020  -33.8170 S   0  0  0  0  0  0  0  0  0  0  0  0
   -4.7460   16.0480  -32.7500 C   0  0  0  0  0  0  0  0  0  0  0  0
   -3.9322   16.5067  -32.1692 H   0  0  0  0  0  0  0  0  0  0  0  0
  1  2  1  0
  2  3  2  0
  3  4  1  0
  4  5  1  0
  4  6  2  0
  6  7  1  0
  6  8  1  0
  8  9  1  0
  9 10  2  0
 10 11  1  0
 11 12  1  0
 11 13  1  0
 13 14  2  0
 14 15  1  0
 15 16  2  0
 16 17  1  0
 16 18  1  0
 18 19  1  0
 18 20  2  0
 20 21  1  0
 20 22  1  0
 22 23  1  0
 23 24  1  0
 24 25  2  0
 24 26  2  0
 24 27  1  0
 27 28  1  0
 27 29  1  0
 27 30  1  0
 22 31  2  0
 31 32  1  0
 13 33  1  0
  8 34  2  0
 34 35  1  0
 34  2  1  0
 33  9  1  0
 31 15  1  0
M  CHG  1  23  -1
M  END
>  <UniqueID>  (38) 
36

>  <SMILES>  (38) 
CS(=O)(=O)[N-]c1cccc(/N=c2\[nH]nc(-c3ccncc3)s2)c1

>  <Energy>  (38) 
79.63502475501919

>  <Genealogy>  (38) 
CS(=O)(=O)[N-]c1cccc(N=c2[nH]nc(-c3ccncc3)s2)c1 (protonated)
CS(=O)(=O)[N-]c1cccc(/N=c2\[nH]nc(-c3ccncc3)s2)c1 (cis-trans isomerization)
CS(=O)(=O)[N-]c1cccc(/N=c2\[nH]nc(-c3ccncc3)s2)c1 (3D coordinates assigned)
CS(=O)(=O)[N-]c1cccc(/N=c2\[nH]nc(-c3ccncc3)s2)c1 (optimized conformer: 79.63502475501919 kcal/mol)

>  <smiles>  (38) 
CS(=O)(=O)Nc1cccc(N=c2[nH]nc(-c3ccncc3)s2)c1

>  <score_type>  (38) 
oracle

>  <origin>  (38) 
adgpu

>  <m_score__min__energy>  (38) 
-9.6400000000000006

>  <m_primary>  (38) 
energy

$$$$
38:0
     RDKit          3D

 29 30  0  0  0  0  0  0  0  0999 V2000
   -4.7850   24.5450  -28.4250 N   0  0  0  0  0  0  0  0  0  0  0  0
   -5.1460   24.9630  -30.0630 S   0  0  0  0  0  0  0  0  0  0  0  0
   -5.9570   26.2280  -30.0900 O   0  0  0  0  0  0  0  0  0  0  0  0
   -3.8650   25.1960  -30.8150 O   0  0  0  0  0  0  0  0  0  0  0  0
   -6.0520   23.6570  -30.8200 C   0  0  0  0  0  0  0  0  0  0  0  0
   -7.3850   23.4230  -30.4590 C   0  0  0  0  0  0  0  0  0  0  0  0
   -8.1020   22.3770  -31.0480 C   0  0  0  0  0  0  0  0  0  0  0  0
   -7.4930   21.5590  -32.0170 C   0  0  0  0  0  0  0  0  0  0  0  0
   -8.1840   20.4600  -32.6300 N   0  0  0  0  0  0  0  0  0  0  0  0
   -7.9770   19.0650  -32.3680 C   0  0  0  0  0  0  0  0  0  0  0  0
   -8.6810   18.4730  -31.5050 O   0  0  0  0  0  0  0  0  0  0  0  0
   -6.9730   18.3050  -33.1470 C   0  0  0  0  0  0  0  0  0  0  0  0
   -6.8580   16.9100  -33.0050 C   0  0  0  0  0  0  0  0  0  0  0  0
   -5.9060   16.2130  -33.7520 C   0  0  0  0  0  0  0  0  0  0  0  0
   -5.0920   16.8800  -34.6120 N   0  0  0  0  0  0  0  0  0  0  0  0
   -5.1780   18.2270  -34.7740 C   0  0  0  0  0  0  0  0  0  0  0  0
   -6.1160   18.9620  -34.0470 C   0  0  0  0  0  0  0  0  0  0  0  0
   -6.1510   21.7780  -32.3510 C   0  0  0  0  0  0  0  0  0  0  0  0
   -5.4350   22.8240  -31.7610 C   0  0  0  0  0  0  0  0  0  0  0  0
   -4.6000   25.4370  -27.9160 H   0  0  0  0  0  0  0  0  0  0  0  0
   -5.6560   24.1390  -28.0150 H   0  0  0  0  0  0  0  0  0  0  0  0
   -7.8699   24.0649  -29.7088 H   0  0  0  0  0  0  0  0  0  0  0  0
   -9.1456   22.1932  -30.7527 H   0  0  0  0  0  0  0  0  0  0  0  0
   -7.5158   16.3702  -32.3079 H   0  0  0  0  0  0  0  0  0  0  0  0
   -5.8148   15.1221  -33.6442 H   0  0  0  0  0  0  0  0  0  0  0  0
   -4.5070   18.7389  -35.4795 H   0  0  0  0  0  0  0  0  0  0  0  0
   -6.1843   20.0520  -34.1780 H   0  0  0  0  0  0  0  0  0  0  0  0
   -5.6564   21.1224  -33.0829 H   0  0  0  0  0  0  0  0  0  0  0  0
   -4.3837   22.9930  -32.0370 H   0  0  0  0  0  0  0  0  0  0  0  0
  1  2  1  0
  2  3  2  0
  2  4  2  0
  2  5  1  0
  5  6  2  0
  6  7  1  0
  7  8  2  0
  8  9  1  0
  9 10  1  0
 10 11  2  0
 10 12  1  0
 12 13  2  0
 13 14  1  0
 14 15  2  0
 15 16  1  0
 16 17  2  0
  8 18  1  0
 18 19  2  0
 19  5  1  0
 17 12  1  0
  1 20  1  0
  1 21  1  0
  6 22  1  0
  7 23  1  0
 13 24  1  0
 14 25  1  0
 16 26  1  0
 17 27  1  0
 18 28  1  0
 19 29  1  0
M  CHG  1   9  -1
M  END
>  <UniqueID>  (39) 
37

>  <SMILES>  (39) 
NS(=O)(=O)c1ccc([N-]C(=O)c2ccncc2)cc1

>  <Energy>  (39) 
33.487382045092744

>  <Genealogy>  (39) 
NS(=O)(=O)c1ccc([N-]C(=O)c2ccncc2)cc1 (protonated)
NS(=O)(=O)c1ccc([N-]C(=O)c2ccncc2)cc1 (3D coordinates assigned)
NS(=O)(=O)c1ccc([N-]C(=O)c2ccncc2)cc1 (optimized conformer: 33.487382045092744 kcal/mol)

>  <smiles>  (39) 
NS(=O)(=O)c1ccc(NC(=O)c2ccncc2)cc1

>  <score_type>  (39) 
oracle

>  <origin>  (39) 
adgpu

>  <m_score__min__energy>  (39) 
-8.5800000000000001

>  <m_primary>  (39) 
energy

$$$$
39:0
     RDKit          3D

 31 32  0  0  0  0  0  0  0  0999 V2000
   -8.7710   19.1480  -31.9950 C   0  0  0  0  0  0  0  0  0  0  0  0
   -7.4230   18.5940  -32.4430 C   0  0  0  0  0  0  0  0  0  0  0  0
   -6.7510   19.5220  -33.2950 O   0  0  0  0  0  0  0  0  0  0  0  0
   -5.3610   19.6130  -33.4840 C   0  0  0  0  0  0  0  0  0  0  0  0
   -4.6150   18.5650  -34.0600 C   0  0  0  0  0  0  0  0  0  0  0  0
   -3.2290   18.6670  -34.1900 C   0  0  0  0  0  0  0  0  0  0  0  0
   -2.5660   19.8120  -33.7480 C   0  0  0  0  0  0  0  0  0  0  0  0
   -0.8230   19.9320  -33.9050 Cl  0  0  0  0  0  0  0  0  0  0  0  0
   -3.2920   20.8650  -33.1850 C   0  0  0  0  0  0  0  0  0  0  0  0
   -4.6890   20.7850  -33.0650 C   0  0  0  0  0  0  0  0  0  0  0  0
   -5.4240   21.9260  -32.4730 C   0  0  0  0  0  0  0  0  0  0  0  0
   -4.7250   22.9530  -31.9190 N   0  0  0  0  0  0  0  0  0  0  0  0
   -5.3580   24.0170  -31.3640 C   0  0  0  0  0  0  0  0  0  0  0  0
   -4.6840   24.9490  -30.8490 O   0  0  0  0  0  0  0  0  0  0  0  0
   -6.7500   24.0760  -31.3630 C   0  0  0  0  0  0  0  0  0  0  0  0
   -7.4630   23.0320  -31.9630 C   0  0  0  0  0  0  0  0  0  0  0  0
   -8.9630   23.0490  -31.9630 C   0  0  0  0  0  0  0  0  0  0  0  0
   -6.7890   21.9740  -32.4980 N   0  0  0  0  0  0  0  0  0  0  0  0
   -8.8133   19.1654  -30.8960 H   0  0  0  0  0  0  0  0  0  0  0  0
   -8.8947   20.1699  -32.3829 H   0  0  0  0  0  0  0  0  0  0  0  0
   -9.5775   18.5084  -32.3829 H   0  0  0  0  0  0  0  0  0  0  0  0
   -6.7999   18.4013  -31.5572 H   0  0  0  0  0  0  0  0  0  0  0  0
   -7.5931   17.6619  -33.0018 H   0  0  0  0  0  0  0  0  0  0  0  0
   -5.1299   17.6583  -34.4104 H   0  0  0  0  0  0  0  0  0  0  0  0
   -2.6582   17.8425  -34.6421 H   0  0  0  0  0  0  0  0  0  0  0  0
   -2.7649   21.7640  -32.8329 H   0  0  0  0  0  0  0  0  0  0  0  0
   -7.2767   24.9241  -30.9010 H   0  0  0  0  0  0  0  0  0  0  0  0
   -9.3296   23.0532  -30.9259 H   0  0  0  0  0  0  0  0  0  0  0  0
   -9.3195   23.9512  -32.4815 H   0  0  0  0  0  0  0  0  0  0  0  0
   -9.3398   22.1551  -32.4815 H   0  0  0  0  0  0  0  0  0  0  0  0
   -7.3290   21.2070  -32.9580 H   0  0  0  0  0  0  0  0  0  0  0  0
  1  2  1  0
  2  3  1  0
  3  4  1  0
  4  5  2  0
  5  6  1  0
  6  7  2  0
  7  8  1  0
  7  9  1  0
  9 10  2  0
 10 11  1  0
 11 12  2  0
 12 13  1  0
 13 14  2  0
 13 15  1  0
 15 16  2  0
 16 17  1  0
 16 18  1  0
 10  4  1  0
 18 11  1  0
  1 19  1  0
  1 20  1  0
  1 21  1  0
  2 22  1  0
  2 23  1  0
  5 24  1  0
  6 25  1  0
  9 26  1  0
 15 27  1  0
 17 28  1  0
 17 29  1  0
 17 30  1  0
 18 31  1  0
M  END
>  <UniqueID>  (40) 
38

>  <SMILES>  (40) 
CCOc1ccc(Cl)cc1-c1nc(=O)cc(C)[nH]1

>  <Energy>  (40) 
34.229069914058705

>  <Genealogy>  (40) 
CCOc1ccc(Cl)cc1-c1nc(=O)cc(C)[nH]1 (3D coordinates assigned)
CCOc1ccc(Cl)cc1-c1nc(=O)cc(C)[nH]1 (optimized conformer: 34.229069914058705 kcal/mol)

>  <smiles>  (40) 
CCOc1ccc(Cl)cc1-c1nc(=O)cc(C)[nH]1

>  <score_type>  (40) 
oracle

>  <origin>  (40) 
adgpu

>  <m_score__min__energy>  (40) 
-6.71

>  <m_primary>  (40) 
energy

$$$$
40:0
     RDKit          3D

 49 51  0  0  0  0  0  0  0  0999 V2000
   -9.4240   21.0690  -32.0550 C   0  0  0  0  0  0  0  0  0  0  0  0
   -8.3880   22.0300  -31.5520 C   0  0  0  0  0  0  0  0  0  0  0  0
   -7.8360   23.0000  -32.4030 C   0  0  0  0  0  0  0  0  0  0  0  0
   -6.8890   23.9070  -31.9180 C   0  0  0  0  0  0  0  0  0  0  0  0
   -6.4990   23.8670  -30.5710 C   0  0  0  0  0  0  0  0  0  0  0  0
   -5.2920   24.9880  -29.9520 S   0  0  0  0  0  0  0  0  0  0  0  0
   -5.1140   24.7690  -28.4760 O   0  0  0  0  0  0  0  0  0  0  0  0
   -5.7360   26.4080  -30.1690 O   0  0  0  0  0  0  0  0  0  0  0  0
   -3.7820   24.7240  -30.7540 N   0  0  0  0  0  0  0  0  0  0  0  0
   -3.2960   23.4030  -30.9940 C   0  0  0  0  0  0  0  0  0  0  0  0
   -3.9390   22.6110  -31.9530 C   0  0  0  0  0  0  0  0  0  0  0  0
   -3.5190   21.2990  -32.1830 C   0  0  0  0  0  0  0  0  0  0  0  0
   -2.4520   20.7700  -31.4560 C   0  0  0  0  0  0  0  0  0  0  0  0
   -1.7990   21.5510  -30.5000 C   0  0  0  0  0  0  0  0  0  0  0  0
   -2.2080   22.8760  -30.2580 C   0  0  0  0  0  0  0  0  0  0  0  0
   -1.4860   23.6910  -29.2520 C   0  0  0  0  0  0  0  0  0  0  0  0
   -0.2300   23.6130  -29.1790 O   0  0  0  0  0  0  0  0  0  0  0  0
   -2.2090   24.5950  -28.3980 N   0  0  0  0  0  0  0  0  0  0  0  0
   -1.6140   25.3590  -27.3320 C   0  0  0  0  0  0  0  0  0  0  0  0
   -0.7980   26.4740  -27.5870 C   0  0  0  0  0  0  0  0  0  0  0  0
   -0.2380   27.1970  -26.5290 C   0  0  0  0  0  0  0  0  0  0  0  0
   -0.4680   26.8080  -25.1980 C   0  0  0  0  0  0  0  0  0  0  0  0
    0.1210   27.5870  -24.0790 C   0  0  0  0  0  0  0  0  0  0  0  0
    0.7120   26.9020  -22.9680 N   0  0  0  0  0  0  0  0  0  0  0  0
    0.1140   28.8870  -24.1000 N   0  0  0  0  0  0  0  0  0  0  0  0
   -1.2510   25.6690  -24.9480 C   0  0  0  0  0  0  0  0  0  0  0  0
   -1.8140   24.9510  -26.0060 C   0  0  0  0  0  0  0  0  0  0  0  0
   -7.0570   22.9060  -29.7190 C   0  0  0  0  0  0  0  0  0  0  0  0
   -7.9970   21.9930  -30.2050 C   0  0  0  0  0  0  0  0  0  0  0  0
   -9.9322   20.5976  -31.2009 H   0  0  0  0  0  0  0  0  0  0  0  0
  -10.1606   21.6108  -32.6665 H   0  0  0  0  0  0  0  0  0  0  0  0
   -8.9390   20.2939  -32.6665 H   0  0  0  0  0  0  0  0  0  0  0  0
   -8.1498   23.0468  -33.4562 H   0  0  0  0  0  0  0  0  0  0  0  0
   -6.4484   24.6541  -32.5945 H   0  0  0  0  0  0  0  0  0  0  0  0
   -4.7801   23.0246  -32.5288 H   0  0  0  0  0  0  0  0  0  0  0  0
   -4.0295   20.6825  -32.9375 H   0  0  0  0  0  0  0  0  0  0  0  0
   -2.1244   19.7355  -31.6363 H   0  0  0  0  0  0  0  0  0  0  0  0
   -0.9581   21.1272  -29.9314 H   0  0  0  0  0  0  0  0  0  0  0  0
   -3.1930   24.8270  -28.6650 H   0  0  0  0  0  0  0  0  0  0  0  0
   -0.5985   26.7799  -28.6246 H   0  0  0  0  0  0  0  0  0  0  0  0
    0.3874   28.0770  -26.7400 H   0  0  0  0  0  0  0  0  0  0  0  0
    1.1710   27.4350  -22.1960 H   0  0  0  0  0  0  0  0  0  0  0  0
    0.6520   25.8640  -22.8800 H   0  0  0  0  0  0  0  0  0  0  0  0
    0.5260   29.4350  -23.3130 H   0  0  0  0  0  0  0  0  0  0  0  0
   -0.2740   29.4220  -24.9090 H   0  0  0  0  0  0  0  0  0  0  0  0
   -1.4221   25.3401  -23.9123 H   0  0  0  0  0  0  0  0  0  0  0  0
   -2.4199   24.0571  -25.7965 H   0  0  0  0  0  0  0  0  0  0  0  0
   -6.7541   22.8695  -28.6622 H   0  0  0  0  0  0  0  0  0  0  0  0
   -8.4320   21.2424  -29.5287 H   0  0  0  0  0  0  0  0  0  0  0  0
  1  2  1  0
  2  3  2  0
  3  4  1  0
  4  5  2  0
  5  6  1  0
  6  7  2  0
  6  8  2  0
  6  9  1  0
  9 10  1  0
 10 11  2  0
 11 12  1  0
 12 13  2  0
 13 14  1  0
 14 15  2  0
 15 16  1  0
 16 17  2  0
 16 18  1  0
 18 19  1  0
 19 20  2  0
 20 21  1  0
 21 22  2  0
 22 23  1  0
 23 24  1  0
 23 25  2  0
 22 26  1  0
 26 27  2  0
  5 28  1  0
 28 29  2  0
 29  2  1  0
 15 10  1  0
 27 19  1  0
  1 30  1  0
  1 31  1  0
  1 32  1  0
  3 33  1  0
  4 34  1  0
 11 35  1  0
 12 36  1  0
 13 37  1  0
 14 38  1  0
 18 39  1  0
 20 40  1  0
 21 41  1  0
 24 42  1  0
 24 43  1  0
 25 44  1  0
 25 45  1  0
 26 46  1  0
 27 47  1  0
 28 48  1  0
 29 49  1  0
M  CHG  2   9  -1  25   1
M  END
>  <UniqueID>  (41) 
39

>  <SMILES>  (41) 
Cc1ccc(S(=O)(=O)[N-]c2ccccc2C(=O)Nc2ccc(C(N)=[NH2+])cc2)cc1

>  <Energy>  (41) 
64.59483729731282

>  <Genealogy>  (41) 
Cc1ccc(S(=O)(=O)[N-]c2ccccc2C(=O)Nc2ccc(C(N)=[NH2+])cc2)cc1 (protonated)
Cc1ccc(S(=O)(=O)[N-]c2ccccc2C(=O)Nc2ccc(C(N)=[NH2+])cc2)cc1 (3D coordinates assigned)
Cc1ccc(S(=O)(=O)[N-]c2ccccc2C(=O)Nc2ccc(C(N)=[NH2+])cc2)cc1 (optimized conformer: 64.59483729731282 kcal/mol)

>  <smiles>  (41) 
Cc1ccc(S(=O)(=O)Nc2ccccc2C(=O)Nc2ccc(C(=N)N)cc2)cc1

>  <score_type>  (41) 
oracle

>  <origin>  (41) 
adgpu

>  <m_score__min__energy>  (41) 
-12.039999999999999

>  <m_primary>  (41) 
energy

$$$$
41:0
     RDKit          3D

 36 37  0  0  0  0  0  0  0  0999 V2000
   -3.4890   24.9240  -31.2680 H   0  0  0  0  0  0  0  0  0  0  0  0
   -3.8620   25.5030  -30.5240 O   0  0  0  0  0  0  0  0  0  0  0  0
   -4.3040   24.9320  -29.3520 N   0  0  0  0  0  0  0  0  0  0  0  0
   -4.9610   25.4770  -28.7480 H   0  0  0  0  0  0  0  0  0  0  0  0
   -3.8920   23.7580  -28.9680 C   0  0  0  0  0  0  0  0  0  0  0  0
   -2.9710   22.9520  -29.8060 C   0  0  0  0  0  0  0  0  0  0  0  0
   -3.2100   22.7140  -31.1800 C   0  0  0  0  0  0  0  0  0  0  0  0
   -4.3720   23.1610  -31.8240 O   0  0  0  0  0  0  0  0  0  0  0  0
   -5.5490   22.4100  -31.9610 C   0  0  0  0  0  0  0  0  0  0  0  0
   -5.4590   21.1090  -32.4660 C   0  0  0  0  0  0  0  0  0  0  0  0
   -4.4771   20.6972  -32.7424 H   0  0  0  0  0  0  0  0  0  0  0  0
   -6.6080   20.3280  -32.6220 C   0  0  0  0  0  0  0  0  0  0  0  0
   -6.5247   19.3088  -33.0273 H   0  0  0  0  0  0  0  0  0  0  0  0
   -7.8640   20.8340  -32.2660 C   0  0  0  0  0  0  0  0  0  0  0  0
   -8.9880   20.0130  -32.4460 O   0  0  0  0  0  0  0  0  0  0  0  0
   -9.0750   18.6620  -32.0060 C   0  0  0  0  0  0  0  0  0  0  0  0
   -9.0768   18.6339  -30.9064 H   0  0  0  0  0  0  0  0  0  0  0  0
  -10.0040   18.2118  -32.3858 H   0  0  0  0  0  0  0  0  0  0  0  0
   -8.2114   18.0963  -32.3858 H   0  0  0  0  0  0  0  0  0  0  0  0
   -7.9560   22.1370  -31.7420 C   0  0  0  0  0  0  0  0  0  0  0  0
   -8.9368   22.5440  -31.4549 H   0  0  0  0  0  0  0  0  0  0  0  0
   -6.8060   22.9160  -31.5850 C   0  0  0  0  0  0  0  0  0  0  0  0
   -6.8847   23.9297  -31.1653 H   0  0  0  0  0  0  0  0  0  0  0  0
   -2.2830   22.0420  -31.9150 N   0  0  0  0  0  0  0  0  0  0  0  0
   -1.1390   21.5500  -31.3700 C   0  0  0  0  0  0  0  0  0  0  0  0
   -0.1700   20.7980  -32.2260 C   0  0  0  0  0  0  0  0  0  0  0  0
    0.5364   20.2498  -31.5854 H   0  0  0  0  0  0  0  0  0  0  0  0
   -0.7175   20.0861  -32.8611 H   0  0  0  0  0  0  0  0  0  0  0  0
    0.3837   21.5051  -32.8611 H   0  0  0  0  0  0  0  0  0  0  0  0
   -0.8940   21.7150  -30.0030 C   0  0  0  0  0  0  0  0  0  0  0  0
    0.0136   21.2935  -29.5464 H   0  0  0  0  0  0  0  0  0  0  0  0
   -1.8130   22.4200  -29.2240 C   0  0  0  0  0  0  0  0  0  0  0  0
   -1.6272   22.5584  -28.1487 H   0  0  0  0  0  0  0  0  0  0  0  0
   -4.3120   23.2380  -27.7020 N   0  0  0  0  0  0  0  0  0  0  0  0
   -4.9460   23.7870  -27.0800 H   0  0  0  0  0  0  0  0  0  0  0  0
   -4.0120   22.2880  -27.3910 H   0  0  0  0  0  0  0  0  0  0  0  0
  1  2  1  0
  2  3  1  0
  3  4  1  0
  3  5  2  0
  5  6  1  0
  6  7  2  0
  7  8  1  0
  8  9  1  0
  9 10  2  0
 10 11  1  0
 10 12  1  0
 12 13  1  0
 12 14  2  0
 14 15  1  0
 15 16  1  0
 16 17  1  0
 16 18  1  0
 16 19  1  0
 14 20  1  0
 20 21  1  0
 20 22  2  0
 22 23  1  0
  7 24  1  0
 24 25  2  0
 25 26  1  0
 26 27  1  0
 26 28  1  0
 26 29  1  0
 25 30  1  0
 30 31  1  0
 30 32  2  0
 32 33  1  0
  5 34  1  0
 34 35  1  0
 34 36  1  0
 32  6  1  0
 22  9  1  0
M  CHG  1   3   1
M  END
>  <UniqueID>  (42) 
40

>  <SMILES>  (42) 
COc1ccc(Oc2nc(C)ccc2/C(N)=[NH+]\O)cc1

>  <Energy>  (42) 
46.078595136181775

>  <Genealogy>  (42) 
COc1ccc(Oc2nc(C)ccc2C(N)=[NH+]O)cc1 (protonated)
COc1ccc(Oc2nc(C)ccc2/C(N)=[NH+]\O)cc1 (cis-trans isomerization)
COc1ccc(Oc2nc(C)ccc2/C(N)=[NH+]\O)cc1 (3D coordinates assigned)
COc1ccc(Oc2nc(C)ccc2/C(N)=[NH+]\O)cc1 (optimized conformer: 46.078595136181775 kcal/mol)

>  <smiles>  (42) 
COc1ccc(Oc2nc(C)ccc2C(N)=NO)cc1

>  <score_type>  (42) 
oracle

>  <origin>  (42) 
adgpu

>  <m_score__min__energy>  (42) 
-6.8899999999999997

>  <m_primary>  (42) 
energy

$$$$
42:0
     RDKit          3D

 50 53  0  0  0  0  0  0  0  0999 V2000
   -0.0090   19.7730  -29.6950 C   0  0  0  0  0  0  0  0  0  0  0  0
    0.0440   19.7200  -31.1180 O   0  0  0  0  0  0  0  0  0  0  0  0
   -1.0510   19.9600  -31.9610 C   0  0  0  0  0  0  0  0  0  0  0  0
   -1.2480   21.2590  -32.4430 C   0  0  0  0  0  0  0  0  0  0  0  0
   -2.3260   21.5470  -33.2820 C   0  0  0  0  0  0  0  0  0  0  0  0
   -3.2180   20.5370  -33.6520 C   0  0  0  0  0  0  0  0  0  0  0  0
   -3.0360   19.2260  -33.1840 C   0  0  0  0  0  0  0  0  0  0  0  0
   -3.9520   18.1820  -33.5640 N   0  0  0  0  0  0  0  0  0  0  0  0
   -3.7050   16.8100  -33.1040 C   0  0  0  0  0  0  0  0  0  0  0  0
   -4.8910   15.8970  -33.4400 C   0  0  0  0  0  0  0  0  0  0  0  0
   -6.1850   16.6060  -33.3110 N   0  0  0  0  0  0  0  0  0  0  0  0
   -6.4580   17.1100  -31.9390 C   0  0  0  0  0  0  0  0  0  0  0  0
   -6.6590   18.5990  -31.9050 C   0  0  0  0  0  0  0  0  0  0  0  0
   -7.8340   19.2670  -32.1570 C   0  0  0  0  0  0  0  0  0  0  0  0
   -7.6010   20.5440  -31.9840 O   0  0  0  0  0  0  0  0  0  0  0  0
   -6.3380   20.6680  -31.6330 C   0  0  0  0  0  0  0  0  0  0  0  0
   -5.6900   21.9630  -31.3420 C   0  0  0  0  0  0  0  0  0  0  0  0
   -6.3630   23.1660  -31.6160 C   0  0  0  0  0  0  0  0  0  0  0  0
   -5.7510   24.3940  -31.3410 C   0  0  0  0  0  0  0  0  0  0  0  0
   -4.4680   24.4320  -30.7890 C   0  0  0  0  0  0  0  0  0  0  0  0
   -3.8640   25.6530  -30.5160 O   0  0  0  0  0  0  0  0  0  0  0  0
   -3.7930   23.2400  -30.5130 C   0  0  0  0  0  0  0  0  0  0  0  0
   -4.3990   22.0100  -30.7880 C   0  0  0  0  0  0  0  0  0  0  0  0
   -5.7000   19.4800  -31.5630 N   0  0  0  0  0  0  0  0  0  0  0  0
   -6.2910   17.7010  -34.3110 C   0  0  0  0  0  0  0  0  0  0  0  0
   -4.9560   18.4270  -34.6060 C   0  0  0  0  0  0  0  0  0  0  0  0
   -1.9530   18.9430  -32.3340 C   0  0  0  0  0  0  0  0  0  0  0  0
    0.7097   19.0543  -29.2743 H   0  0  0  0  0  0  0  0  0  0  0  0
    0.2463   20.7879  -29.3561 H   0  0  0  0  0  0  0  0  0  0  0  0
   -1.0239   19.5177  -29.3561 H   0  0  0  0  0  0  0  0  0  0  0  0
   -0.5484   22.0589  -32.1587 H   0  0  0  0  0  0  0  0  0  0  0  0
   -2.4737   22.5720  -33.6529 H   0  0  0  0  0  0  0  0  0  0  0  0
   -4.0661   20.7701  -34.3126 H   0  0  0  0  0  0  0  0  0  0  0  0
   -2.8013   16.4223  -33.5970 H   0  0  0  0  0  0  0  0  0  0  0  0
   -3.5715   16.8245  -32.0122 H   0  0  0  0  0  0  0  0  0  0  0  0
   -4.7828   15.5390  -34.4745 H   0  0  0  0  0  0  0  0  0  0  0  0
   -4.8886   15.0578  -32.7288 H   0  0  0  0  0  0  0  0  0  0  0  0
   -6.9390   15.9120  -33.5360 H   0  0  0  0  0  0  0  0  0  0  0  0
   -7.3672   16.6220  -31.5578 H   0  0  0  0  0  0  0  0  0  0  0  0
   -5.5829   16.8754  -31.3152 H   0  0  0  0  0  0  0  0  0  0  0  0
   -8.7922   18.8129  -32.4497 H   0  0  0  0  0  0  0  0  0  0  0  0
   -7.3743   23.1422  -32.0481 H   0  0  0  0  0  0  0  0  0  0  0  0
   -6.2816   25.3323  -31.5601 H   0  0  0  0  0  0  0  0  0  0  0  0
   -2.7829   23.2692  -30.0785 H   0  0  0  0  0  0  0  0  0  0  0  0
   -3.8627   21.0747  -30.5697 H   0  0  0  0  0  0  0  0  0  0  0  0
   -6.6653   17.2725  -35.2524 H   0  0  0  0  0  0  0  0  0  0  0  0
   -6.9702   18.4531  -33.8832 H   0  0  0  0  0  0  0  0  0  0  0  0
   -4.5626   18.0687  -35.5687 H   0  0  0  0  0  0  0  0  0  0  0  0
   -5.1576   19.5080  -34.6345 H   0  0  0  0  0  0  0  0  0  0  0  0
   -1.8082   17.9199  -31.9569 H   0  0  0  0  0  0  0  0  0  0  0  0
  1  2  1  0
  2  3  1  0
  3  4  2  0
  4  5  1  0
  5  6  2  0
  6  7  1  0
  7  8  1  0
  8  9  1  0
  9 10  1  0
 10 11  1  0
 11 12  1  0
 12 13  1  0
 13 14  2  0
 14 15  1  0
 15 16  1  0
 16 17  1  0
 17 18  2  0
 18 19  1  0
 19 20  2  0
 20 21  1  0
 20 22  1  0
 22 23  2  0
 16 24  2  0
 11 25  1  0
 25 26  1  0
  7 27  2  0
 27  3  1  0
 26  8  1  0
 24 13  1  0
 23 17  1  0
  1 28  1  0
  1 29  1  0
  1 30  1  0
  4 31  1  0
  5 32  1  0
  6 33  1  0
  9 34  1  0
  9 35  1  0
 10 36  1  0
 10 37  1  0
 11 38  1  0
 12 39  1  0
 12 40  1  0
 14 41  1  0
 18 42  1  0
 19 43  1  0
 22 44  1  0
 23 45  1  0
 25 46  1  0
 25 47  1  0
 26 48  1  0
 26 49  1  0
 27 50  1  0
M  CHG  2  11   1  21  -1
M  END
>  <UniqueID>  (43) 
41

>  <SMILES>  (43) 
COc1cccc(N2CC[NH+](Cc3coc(-c4ccc([O-])cc4)n3)CC2)c1

>  <Energy>  (43) 
94.57015788914767

>  <Genealogy>  (43) 
COc1cccc(N2CC[NH+](Cc3coc(-c4ccc([O-])cc4)n3)CC2)c1 (protonated)
COc1cccc(N2CC[NH+](Cc3coc(-c4ccc([O-])cc4)n3)CC2)c1 (3D coordinates assigned)
COc1cccc(N2CC[NH+](Cc3coc(-c4ccc([O-])cc4)n3)CC2)c1 (nonaromatic ring conformer: 94.57015788914767 kcal/mol)

>  <smiles>  (43) 
COc1cccc(N2CCN(Cc3coc(-c4ccc(O)cc4)n3)CC2)c1

>  <score_type>  (43) 
oracle

>  <origin>  (43) 
adgpu

>  <m_score__min__energy>  (43) 
-9.5899999999999999

>  <m_primary>  (43) 
energy

$$$$
43:0
     RDKit          3D

 37 39  0  0  0  0  0  0  0  0999 V2000
   -2.8480   22.6840  -30.9150 C   0  0  0  0  0  0  0  0  0  0  0  0
   -4.1220   23.4740  -30.8070 C   0  0  0  0  0  0  0  0  0  0  0  0
   -5.3310   22.9350  -31.2770 C   0  0  0  0  0  0  0  0  0  0  0  0
   -6.5310   23.6560  -31.1580 C   0  0  0  0  0  0  0  0  0  0  0  0
   -7.7990   23.0780  -31.6640 C   0  0  0  0  0  0  0  0  0  0  0  0
   -8.4460   23.6910  -32.5550 O   0  0  0  0  0  0  0  0  0  0  0  0
   -8.3470   21.8620  -31.1340 N   0  0  0  0  0  0  0  0  0  0  0  0
   -8.1060   20.5380  -31.6310 C   0  0  0  0  0  0  0  0  0  0  0  0
   -9.0580   19.5150  -31.4920 C   0  0  0  0  0  0  0  0  0  0  0  0
   -8.7870   18.2340  -31.9790 C   0  0  0  0  0  0  0  0  0  0  0  0
   -7.5630   17.9600  -32.5930 C   0  0  0  0  0  0  0  0  0  0  0  0
   -6.5880   18.9650  -32.7180 C   0  0  0  0  0  0  0  0  0  0  0  0
   -5.2820   18.6720  -33.3620 C   0  0  0  0  0  0  0  0  0  0  0  0
   -4.1680   19.5020  -33.1430 C   0  0  0  0  0  0  0  0  0  0  0  0
   -2.9470   19.2120  -33.7530 C   0  0  0  0  0  0  0  0  0  0  0  0
   -2.8430   18.0930  -34.5810 C   0  0  0  0  0  0  0  0  0  0  0  0
   -3.9250   17.2970  -34.7870 N   0  0  0  0  0  0  0  0  0  0  0  0
   -5.1250   17.5560  -34.2040 C   0  0  0  0  0  0  0  0  0  0  0  0
   -6.8700   20.2530  -32.2240 C   0  0  0  0  0  0  0  0  0  0  0  0
   -6.5060   24.9360  -30.5790 C   0  0  0  0  0  0  0  0  0  0  0  0
   -5.3070   25.4720  -30.1040 C   0  0  0  0  0  0  0  0  0  0  0  0
   -4.1180   24.7460  -30.2100 C   0  0  0  0  0  0  0  0  0  0  0  0
   -2.9370   25.2950  -29.7230 O   0  0  0  0  0  0  0  0  0  0  0  0
   -2.4739   22.4520  -29.9069 H   0  0  0  0  0  0  0  0  0  0  0  0
   -3.0422   21.7476  -31.4586 H   0  0  0  0  0  0  0  0  0  0  0  0
   -2.0955   23.2742  -31.4586 H   0  0  0  0  0  0  0  0  0  0  0  0
   -5.3383   21.9385  -31.7428 H   0  0  0  0  0  0  0  0  0  0  0  0
  -10.0190   19.7228  -30.9987 H   0  0  0  0  0  0  0  0  0  0  0  0
   -9.5401   17.4386  -31.8785 H   0  0  0  0  0  0  0  0  0  0  0  0
   -7.3604   16.9510  -32.9814 H   0  0  0  0  0  0  0  0  0  0  0  0
   -4.2594   20.3819  -32.4893 H   0  0  0  0  0  0  0  0  0  0  0  0
   -2.0741   19.8594  -33.5829 H   0  0  0  0  0  0  0  0  0  0  0  0
   -1.8851   17.8555  -35.0668 H   0  0  0  0  0  0  0  0  0  0  0  0
   -5.9791   16.8887  -34.3917 H   0  0  0  0  0  0  0  0  0  0  0  0
   -6.1105   21.0446  -32.3049 H   0  0  0  0  0  0  0  0  0  0  0  0
   -7.4355   25.5189  -30.4994 H   0  0  0  0  0  0  0  0  0  0  0  0
   -5.2987   26.4711  -29.6439 H   0  0  0  0  0  0  0  0  0  0  0  0
  1  2  1  0
  2  3  2  0
  3  4  1  0
  4  5  1  0
  5  6  2  0
  5  7  1  0
  7  8  1  0
  8  9  2  0
  9 10  1  0
 10 11  2  0
 11 12  1  0
 12 13  1  0
 13 14  2  0
 14 15  1  0
 15 16  2  0
 16 17  1  0
 17 18  2  0
 12 19  2  0
  4 20  2  0
 20 21  1  0
 21 22  2  0
 22 23  1  0
 22  2  1  0
 19  8  1  0
 18 13  1  0
  1 24  1  0
  1 25  1  0
  1 26  1  0
  3 27  1  0
  9 28  1  0
 10 29  1  0
 11 30  1  0
 14 31  1  0
 15 32  1  0
 16 33  1  0
 18 34  1  0
 19 35  1  0
 20 36  1  0
 21 37  1  0
M  CHG  2   7  -1  23  -1
M  END
>  <UniqueID>  (44) 
42

>  <SMILES>  (44) 
Cc1cc(C(=O)[N-]c2cccc(-c3cccnc3)c2)ccc1[O-]

>  <Energy>  (44) 
52.79095015964135

>  <Genealogy>  (44) 
Cc1cc(C(=O)[N-]c2cccc(-c3cccnc3)c2)ccc1[O-] (protonated)
Cc1cc(C(=O)[N-]c2cccc(-c3cccnc3)c2)ccc1[O-] (3D coordinates assigned)
Cc1cc(C(=O)[N-]c2cccc(-c3cccnc3)c2)ccc1[O-] (optimized conformer: 52.79095015964135 kcal/mol)

>  <smiles>  (44) 
Cc1cc(C(=O)Nc2cccc(-c3cccnc3)c2)ccc1O

>  <score_type>  (44) 
oracle

>  <origin>  (44) 
adgpu

>  <m_score__min__energy>  (44) 
-11.44

>  <m_primary>  (44) 
energy

$$$$
44:0
     RDKit          3D

 56 59  0  0  0  0  0  0  0  0999 V2000
   -3.6780   13.7070  -32.0160 C   0  0  0  0  0  0  0  0  0  0  0  0
   -4.0950   15.0230  -32.3660 O   0  0  0  0  0  0  0  0  0  0  0  0
   -3.2600   15.9950  -32.9390 C   0  0  0  0  0  0  0  0  0  0  0  0
   -1.8810   15.7910  -33.1040 C   0  0  0  0  0  0  0  0  0  0  0  0
   -1.1170   16.7410  -33.7000 N   0  0  0  0  0  0  0  0  0  0  0  0
   -1.6580   17.9060  -34.1450 C   0  0  0  0  0  0  0  0  0  0  0  0
   -0.8050   18.9280  -34.8020 C   0  0  0  0  0  0  0  0  0  0  0  0
   -0.9700   20.2950  -34.5100 C   0  0  0  0  0  0  0  0  0  0  0  0
   -0.1600   21.2550  -35.1230 C   0  0  0  0  0  0  0  0  0  0  0  0
    0.8170   20.8750  -36.0520 C   0  0  0  0  0  0  0  0  0  0  0  0
    1.6560   21.8810  -36.6440 N   0  0  0  0  0  0  0  0  0  0  0  0
    1.8220   23.2050  -36.1180 C   0  0  0  0  0  0  0  0  0  0  0  0
    1.3870   23.4970  -34.9720 O   0  0  0  0  0  0  0  0  0  0  0  0
    2.4850   24.1920  -36.9160 N   0  0  0  0  0  0  0  0  0  0  0  0
    1.9520   25.4600  -37.3270 C   0  0  0  0  0  0  0  0  0  0  0  0
    0.5730   25.6700  -37.4980 C   0  0  0  0  0  0  0  0  0  0  0  0
    0.0920   26.9280  -37.8730 C   0  0  0  0  0  0  0  0  0  0  0  0
    0.9810   28.0010  -38.0700 C   0  0  0  0  0  0  0  0  0  0  0  0
    0.5550   29.2830  -38.4510 O   0  0  0  0  0  0  0  0  0  0  0  0
   -0.3860   30.0840  -37.7380 C   0  0  0  0  0  0  0  0  0  0  0  0
    0.2640   30.8530  -36.7890 F   0  0  0  0  0  0  0  0  0  0  0  0
   -1.2860   29.2540  -37.0970 F   0  0  0  0  0  0  0  0  0  0  0  0
   -1.0780   30.9010  -38.6140 F   0  0  0  0  0  0  0  0  0  0  0  0
    2.3510   27.7900  -37.8780 C   0  0  0  0  0  0  0  0  0  0  0  0
    2.8320   26.5340  -37.5000 C   0  0  0  0  0  0  0  0  0  0  0  0
    0.9990   19.5100  -36.3340 C   0  0  0  0  0  0  0  0  0  0  0  0
    0.1930   18.5470  -35.7190 C   0  0  0  0  0  0  0  0  0  0  0  0
   -2.9900   18.1240  -33.9860 N   0  0  0  0  0  0  0  0  0  0  0  0
   -3.8050   17.2120  -33.3910 C   0  0  0  0  0  0  0  0  0  0  0  0
   -5.2070   17.5170  -33.2430 N   0  0  0  0  0  0  0  0  0  0  0  0
   -5.9340   17.1570  -32.0180 C   0  0  0  0  0  0  0  0  0  0  0  0
   -7.1190   18.1060  -31.8120 C   0  0  0  0  0  0  0  0  0  0  0  0
   -6.7470   19.4150  -32.1930 O   0  0  0  0  0  0  0  0  0  0  0  0
   -6.6390   19.5080  -33.6070 C   0  0  0  0  0  0  0  0  0  0  0  0
   -5.9020   18.3150  -34.2600 C   0  0  0  0  0  0  0  0  0  0  0  0
   -3.6476   13.6112  -30.9206 H   0  0  0  0  0  0  0  0  0  0  0  0
   -4.3883   12.9754  -32.4285 H   0  0  0  0  0  0  0  0  0  0  0  0
   -2.6760   13.5180  -32.4285 H   0  0  0  0  0  0  0  0  0  0  0  0
   -1.4183   14.8583  -32.7491 H   0  0  0  0  0  0  0  0  0  0  0  0
   -1.7428   20.6104  -33.7935 H   0  0  0  0  0  0  0  0  0  0  0  0
   -0.2909   22.3183  -34.8737 H   0  0  0  0  0  0  0  0  0  0  0  0
    2.2480   21.6120  -37.4620 H   0  0  0  0  0  0  0  0  0  0  0  0
   -0.1312   24.8407  -37.3360 H   0  0  0  0  0  0  0  0  0  0  0  0
   -0.9881   27.0801  -38.0150 H   0  0  0  0  0  0  0  0  0  0  0  0
    3.0561   28.6212  -38.0261 H   0  0  0  0  0  0  0  0  0  0  0  0
    3.9101   26.3884  -37.3372 H   0  0  0  0  0  0  0  0  0  0  0  0
    1.7801   19.1975  -37.0427 H   0  0  0  0  0  0  0  0  0  0  0  0
    0.3400   17.4824  -35.9537 H   0  0  0  0  0  0  0  0  0  0  0  0
   -6.3049   16.1251  -32.1048 H   0  0  0  0  0  0  0  0  0  0  0  0
   -5.2533   17.2384  -31.1578 H   0  0  0  0  0  0  0  0  0  0  0  0
   -7.9672   17.7722  -32.4277 H   0  0  0  0  0  0  0  0  0  0  0  0
   -7.4112   18.1023  -30.7515 H   0  0  0  0  0  0  0  0  0  0  0  0
   -7.6535   19.5611  -34.0289 H   0  0  0  0  0  0  0  0  0  0  0  0
   -6.0437   20.4074  -33.8229 H   0  0  0  0  0  0  0  0  0  0  0  0
   -6.6335   17.6793  -34.7804 H   0  0  0  0  0  0  0  0  0  0  0  0
   -5.1602   18.7041  -34.9730 H   0  0  0  0  0  0  0  0  0  0  0  0
  1  2  1  0
  2  3  1  0
  3  4  2  0
  4  5  1  0
  5  6  2  0
  6  7  1  0
  7  8  2  0
  8  9  1  0
  9 10  2  0
 10 11  1  0
 11 12  1  0
 12 13  2  0
 12 14  1  0
 14 15  1  0
 15 16  2  0
 16 17  1  0
 17 18  2  0
 18 19  1  0
 19 20  1  0
 20 21  1  0
 20 22  1  0
 20 23  1  0
 18 24  1  0
 24 25  2  0
 10 26  1  0
 26 27  2  0
  6 28  1  0
 28 29  2  0
 29 30  1  0
 30 31  1  0
 31 32  1  0
 32 33  1  0
 33 34  1  0
 34 35  1  0
 29  3  1  0
 35 30  1  0
 27  7  1  0
 25 15  1  0
  1 36  1  0
  1 37  1  0
  1 38  1  0
  4 39  1  0
  8 40  1  0
  9 41  1  0
 11 42  1  0
 16 43  1  0
 17 44  1  0
 24 45  1  0
 25 46  1  0
 26 47  1  0
 27 48  1  0
 31 49  1  0
 31 50  1  0
 32 51  1  0
 32 52  1  0
 34 53  1  0
 34 54  1  0
 35 55  1  0
 35 56  1  0
M  CHG  1  14  -1
M  END
>  <UniqueID>  (45) 
43

>  <SMILES>  (45) 
COc1cnc(-c2ccc(NC(=O)[N-]c3ccc(OC(F)(F)F)cc3)cc2)nc1N1CCOCC1

>  <Energy>  (45) 
79.20119020637456

>  <Genealogy>  (45) 
COc1cnc(-c2ccc(NC(=O)[N-]c3ccc(OC(F)(F)F)cc3)cc2)nc1N1CCOCC1 (protonated)
COc1cnc(-c2ccc(NC(=O)[N-]c3ccc(OC(F)(F)F)cc3)cc2)nc1N1CCOCC1 (3D coordinates assigned)
COc1cnc(-c2ccc(NC(=O)[N-]c3ccc(OC(F)(F)F)cc3)cc2)nc1N1CCOCC1 (nonaromatic ring conformer: 79.20119020637456 kcal/mol)

>  <smiles>  (45) 
COc1cnc(-c2ccc(NC(=O)Nc3ccc(OC(F)(F)F)cc3)cc2)nc1N1CCOCC1

>  <score_type>  (45) 
oracle

>  <origin>  (45) 
adgpu

>  <m_score__min__energy>  (45) 
-8.5099999999999998

>  <m_primary>  (45) 
energy

$$$$
45:0
     RDKit          3D

 40 42  0  0  0  0  0  0  0  0999 V2000
    0.5352   20.2058  -29.0580 H   0  0  0  0  0  0  0  0  0  0  0  0
   -0.0610   20.4080  -29.9600 C   0  0  0  0  0  0  0  0  0  0  0  0
    0.2340   19.7470  -31.1560 C   0  0  0  0  0  0  0  0  0  0  0  0
    1.0621   19.0239  -31.1936 H   0  0  0  0  0  0  0  0  0  0  0  0
   -0.5210   20.0030  -32.3040 C   0  0  0  0  0  0  0  0  0  0  0  0
   -0.2859   19.4799  -33.2427 H   0  0  0  0  0  0  0  0  0  0  0  0
   -1.5800   20.9270  -32.2630 C   0  0  0  0  0  0  0  0  0  0  0  0
   -2.4150   21.1920  -33.4880 C   0  0  0  0  0  0  0  0  0  0  0  0
   -1.8811   20.8226  -34.3760 H   0  0  0  0  0  0  0  0  0  0  0  0
   -2.5886   22.2751  -33.5707 H   0  0  0  0  0  0  0  0  0  0  0  0
   -3.7080   20.5140  -33.3880 N   0  0  0  0  0  0  0  0  0  0  0  0
   -4.7940   21.0540  -32.9190 C   0  0  0  0  0  0  0  0  0  0  0  0
   -4.8010   22.3390  -32.4740 N   0  0  0  0  0  0  0  0  0  0  0  0
   -5.9410   22.8870  -31.9870 C   0  0  0  0  0  0  0  0  0  0  0  0
   -5.9380   24.5740  -31.4000 S   0  0  0  0  0  0  0  0  0  0  0  0
   -4.6560   24.2320  -30.2040 C   0  0  0  0  0  0  0  0  0  0  0  0
   -4.8150   23.2290  -29.3060 N   0  0  0  0  0  0  0  0  0  0  0  0
   -3.8490   22.9400  -28.3990 C   0  0  0  0  0  0  0  0  0  0  0  0
   -4.0300   21.9950  -27.5860 O   0  0  0  0  0  0  0  0  0  0  0  0
   -2.6560   23.6850  -28.3760 C   0  0  0  0  0  0  0  0  0  0  0  0
   -1.6160   23.3490  -27.4440 N   0  0  0  0  0  0  0  0  0  0  0  0
   -0.6850   23.8150  -27.4500 H   0  0  0  0  0  0  0  0  0  0  0  0
   -1.7340   22.5570  -26.7720 H   0  0  0  0  0  0  0  0  0  0  0  0
   -2.5190   24.7390  -29.3090 C   0  0  0  0  0  0  0  0  0  0  0  0
   -1.3680   25.5880  -29.3410 N   0  0  0  0  0  0  0  0  0  0  0  0
   -1.2340   26.3390  -30.0510 H   0  0  0  0  0  0  0  0  0  0  0  0
   -0.5740   25.4020  -28.6880 H   0  0  0  0  0  0  0  0  0  0  0  0
   -3.5210   24.9750  -30.1970 N   0  0  0  0  0  0  0  0  0  0  0  0
   -7.0800   22.1520  -31.9420 N   0  0  0  0  0  0  0  0  0  0  0  0
   -7.0780   20.8710  -32.3860 C   0  0  0  0  0  0  0  0  0  0  0  0
   -8.5810   19.9020  -32.3290 S   0  0  0  0  0  0  0  0  0  0  0  0
   -7.7010   18.3470  -31.9860 C   0  0  0  0  0  0  0  0  0  0  0  0
   -7.6199   18.2038  -30.8984 H   0  0  0  0  0  0  0  0  0  0  0  0
   -8.2572   17.5062  -32.4261 H   0  0  0  0  0  0  0  0  0  0  0  0
   -6.6938   18.3909  -32.4261 H   0  0  0  0  0  0  0  0  0  0  0  0
   -5.9360   20.3230  -32.8740 N   0  0  0  0  0  0  0  0  0  0  0  0
   -1.8720   21.5860  -31.0560 C   0  0  0  0  0  0  0  0  0  0  0  0
   -2.7000   22.3088  -31.0126 H   0  0  0  0  0  0  0  0  0  0  0  0
   -1.1140   21.3260  -29.9110 C   0  0  0  0  0  0  0  0  0  0  0  0
   -1.3465   21.8448  -28.9693 H   0  0  0  0  0  0  0  0  0  0  0  0
  1  2  1  0
  2  3  2  0
  3  4  1  0
  3  5  1  0
  5  6  1  0
  5  7  2  0
  7  8  1  0
  8  9  1  0
  8 10  1  0
  8 11  1  0
 11 12  2  0
 12 13  1  0
 13 14  2  0
 14 15  1  0
 15 16  1  0
 16 17  2  0
 17 18  1  0
 18 19  2  0
 18 20  1  0
 20 21  1  0
 21 22  1  0
 21 23  1  0
 20 24  2  0
 24 25  1  0
 25 26  1  0
 25 27  1  0
 24 28  1  0
 14 29  1  0
 29 30  2  0
 30 31  1  0
 31 32  1  0
 32 33  1  0
 32 34  1  0
 32 35  1  0
 30 36  1  0
  7 37  1  0
 37 38  1  0
 37 39  2  0
 39 40  1  0
 39  2  1  0
 36 12  1  0
 28 16  1  0
M  CHG  2  28  -1  36  -1
M  END
>  <UniqueID>  (46) 
44

>  <SMILES>  (46) 
CSc1nc(Sc2nc(=O)c(N)c(N)[n-]2)n/c(=N\Cc2ccccc2)[n-]1

>  <Energy>  (46) 
36.108434207936305

>  <Genealogy>  (46) 
CSc1nc(Sc2nc(=O)c(N)c(N)[n-]2)nc(=NCc2ccccc2)[n-]1 (protonated)
CSc1nc(Sc2nc(=O)c(N)c(N)[n-]2)n/c(=N\Cc2ccccc2)[n-]1 (cis-trans isomerization)
CSc1nc(Sc2nc(=O)c(N)c(N)[n-]2)n/c(=N\Cc2ccccc2)[n-]1 (3D coordinates assigned)
CSc1nc(Sc2nc(=O)c(N)c(N)[n-]2)n/c(=N\Cc2ccccc2)[n-]1 (optimized conformer: 36.108434207936305 kcal/mol)

>  <smiles>  (46) 
CSc1nc(Sc2nc(=O)c(N)c(N)[nH]2)nc(=NCc2ccccc2)[nH]1

>  <score_type>  (46) 
oracle

>  <origin>  (46) 
adgpu

>  <m_score__min__energy>  (46) 
-9.1500000000000004

>  <m_primary>  (46) 
energy

$$$$
