0:0
     RDKit          3D

 37 39  0  0  0  0  0  0  0  0999 V2000
   -6.2740   25.6480  -30.6530 O   0  0  0  0  0  0  0  0  0  0  0  0
   -5.1510   24.7020  -30.3300 S   0  0  0  0  0  0  0  0  0  0  0  0
   -3.8670   25.3020  -30.8310 O   0  0  0  0  0  0  0  0  0  0  0  0
   -5.0650   24.4860  -28.6080 N   0  0  0  0  0  0  0  0  0  0  0  0
   -4.2930   23.2810  -28.2980 C   0  0  0  0  0  0  0  0  0  0  0  0
   -2.8250   23.6100  -28.2910 C   0  0  0  0  0  0  0  0  0  0  0  0
   -1.9340   22.8890  -29.1020 C   0  0  0  0  0  0  0  0  0  0  0  0
   -0.5650   23.1730  -29.0670 C   0  0  0  0  0  0  0  0  0  0  0  0
   -0.0760   24.1680  -28.2160 C   0  0  0  0  0  0  0  0  0  0  0  0
    1.2520   24.4410  -28.1820 F   0  0  0  0  0  0  0  0  0  0  0  0
   -0.9570   24.8790  -27.3940 C   0  0  0  0  0  0  0  0  0  0  0  0
   -2.3270   24.5980  -27.4260 C   0  0  0  0  0  0  0  0  0  0  0  0
   -5.4530   23.1590  -31.1280 C   0  0  0  0  0  0  0  0  0  0  0  0
   -6.7060   22.5490  -31.0120 C   0  0  0  0  0  0  0  0  0  0  0  0
   -6.9480   21.3150  -31.6210 C   0  0  0  0  0  0  0  0  0  0  0  0
   -5.9370   20.6660  -32.3550 C   0  0  0  0  0  0  0  0  0  0  0  0
   -6.1920   19.3530  -33.0010 C   0  0  0  0  0  0  0  0  0  0  0  0
   -6.9010   18.2860  -32.4740 C   0  0  0  0  0  0  0  0  0  0  0  0
   -6.8650   17.2970  -33.4340 C   0  0  0  0  0  0  0  0  0  0  0  0
   -6.1900   17.7150  -34.4780 O   0  0  0  0  0  0  0  0  0  0  0  0
   -5.7720   18.9410  -34.2560 C   0  0  0  0  0  0  0  0  0  0  0  0
   -4.6760   21.2860  -32.4580 C   0  0  0  0  0  0  0  0  0  0  0  0
   -4.4370   22.5200  -31.8480 C   0  0  0  0  0  0  0  0  0  0  0  0
   -6.0460   24.3410  -28.2720 H   0  0  0  0  0  0  0  0  0  0  0  0
   -4.5879   22.9018  -27.3084 H   0  0  0  0  0  0  0  0  0  0  0  0
   -4.4917   22.5136  -29.0606 H   0  0  0  0  0  0  0  0  0  0  0  0
   -2.3136   22.0989  -29.7665 H   0  0  0  0  0  0  0  0  0  0  0  0
    0.1284   22.6120  -29.7107 H   0  0  0  0  0  0  0  0  0  0  0  0
   -0.5719   25.6599  -26.7217 H   0  0  0  0  0  0  0  0  0  0  0  0
   -3.0161   25.1524  -26.7719 H   0  0  0  0  0  0  0  0  0  0  0  0
   -7.5045   23.0428  -30.4388 H   0  0  0  0  0  0  0  0  0  0  0  0
   -7.9384   20.8459  -31.5260 H   0  0  0  0  0  0  0  0  0  0  0  0
   -7.3922   18.2376  -31.4909 H   0  0  0  0  0  0  0  0  0  0  0  0
   -7.3324   16.3058  -33.3386 H   0  0  0  0  0  0  0  0  0  0  0  0
   -5.1801   19.5468  -34.9579 H   0  0  0  0  0  0  0  0  0  0  0  0
   -3.8717   20.7936  -33.0243 H   0  0  0  0  0  0  0  0  0  0  0  0
   -3.4467   22.9911  -31.9339 H   0  0  0  0  0  0  0  0  0  0  0  0
  1  2  2  0
  2  3  2  0
  2  4  1  0
  4  5  1  0
  5  6  1  0
  6  7  2  0
  7  8  1  0
  8  9  2  0
  9 10  1  0
  9 11  1  0
 11 12  2  0
  2 13  1  0
 13 14  2  0
 14 15  1  0
 15 16  2  0
 16 17  1  0
 17 18  1  0
 18 19  2  0
 19 20  1  0
 20 21  1  0
 16 22  1  0
 22 23  2  0
 12  6  1  0
 23 13  1  0
 21 17  2  0
  4 24  1  0
  5 25  1  0
  5 26  1  0
  7 27  1  0
  8 28  1  0
 11 29  1  0
 12 30  1  0
 14 31  1  0
 15 32  1  0
 18 33  1  0
 19 34  1  0
 21 35  1  0
 22 36  1  0
 23 37  1  0
M  END
>  <UniqueID>  (1) 
1

>  <SMILES>  (1) 
O=S(=O)(NCc1ccc(F)cc1)c1ccc(-c2ccoc2)cc1

>  <Energy>  (1) 
65.10322476056376

>  <Genealogy>  (1) 
O=S(=O)(NCc1ccc(F)cc1)c1ccc(-c2ccoc2)cc1 (3D coordinates assigned)
O=S(=O)(NCc1ccc(F)cc1)c1ccc(-c2ccoc2)cc1 (optimized conformer: 65.10322476056376 kcal/mol)

>  <smiles>  (1) 
O=S(=O)(NCc1ccc(F)cc1)c1ccc(-c2ccoc2)cc1

>  <score_type>  (1) 
oracle

>  <origin>  (1) 
adgpu

>  <m_score__min__energy>  (1) 
-8.6099999999999994

>  <m_primary>  (1) 
energy

$$$$
1:0
     RDKit          3D

 44 47  0  0  0  0  0  0  0  0999 V2000
   -0.1220   26.1715  -25.0768 H   0  0  0  0  0  0  0  0  0  0  0  0
   -0.1220   25.7030  -26.0720 C   0  0  0  0  0  0  0  0  0  0  0  0
   -1.2540   25.7960  -26.8890 C   0  0  0  0  0  0  0  0  0  0  0  0
   -2.1504   26.3209  -26.5272 H   0  0  0  0  0  0  0  0  0  0  0  0
   -1.2480   25.2210  -28.1690 C   0  0  0  0  0  0  0  0  0  0  0  0
   -2.4110   25.2870  -29.0060 N   0  0  0  0  0  0  0  0  0  0  0  0
   -3.0990   24.3040  -29.5260 C   0  0  0  0  0  0  0  0  0  0  0  0
   -4.0960   24.6280  -30.3950 N   0  0  0  0  0  0  0  0  0  0  0  0
   -4.8660   23.6870  -30.9980 C   0  0  0  0  0  0  0  0  0  0  0  0
   -5.8720   24.0570  -31.8940 C   0  0  0  0  0  0  0  0  0  0  0  0
   -6.0490   25.1198  -32.1156 H   0  0  0  0  0  0  0  0  0  0  0  0
   -6.6540   23.0730  -32.5090 C   0  0  0  0  0  0  0  0  0  0  0  0
   -7.4444   23.3678  -33.2150 H   0  0  0  0  0  0  0  0  0  0  0  0
   -6.4390   21.7100  -32.2330 C   0  0  0  0  0  0  0  0  0  0  0  0
   -7.2470   20.7030  -32.8700 N   0  0  0  0  0  0  0  0  0  0  0  0
   -6.7940   20.0280  -33.8190 O   0  0  0  0  0  0  0  0  0  0  0  0
   -8.5340   20.4670  -32.4440 O   0  0  0  0  0  0  0  0  0  0  0  0
   -5.4230   21.3470  -31.3270 C   0  0  0  0  0  0  0  0  0  0  0  0
   -5.2442   20.2856  -31.1002 H   0  0  0  0  0  0  0  0  0  0  0  0
   -4.6410   22.3320  -30.7150 C   0  0  0  0  0  0  0  0  0  0  0  0
   -3.6700   21.9940  -29.8320 N   0  0  0  0  0  0  0  0  0  0  0  0
   -2.8850   22.9280  -29.2230 C   0  0  0  0  0  0  0  0  0  0  0  0
   -2.0190   22.5650  -28.3210 N   0  0  0  0  0  0  0  0  0  0  0  0
   -1.6640   21.2280  -27.9290 C   0  0  0  0  0  0  0  0  0  0  0  0
   -0.3980   20.7440  -28.2810 C   0  0  0  0  0  0  0  0  0  0  0  0
    0.3066   21.3963  -28.8177 H   0  0  0  0  0  0  0  0  0  0  0  0
   -0.0240   19.4380  -27.9550 C   0  0  0  0  0  0  0  0  0  0  0  0
    0.9804   19.0762  -28.2202 H   0  0  0  0  0  0  0  0  0  0  0  0
   -0.9160   18.5860  -27.2940 C   0  0  0  0  0  0  0  0  0  0  0  0
   -0.4920   17.2840  -26.9870 O   0  0  0  0  0  0  0  0  0  0  0  0
    0.7010   16.6900  -27.4880 C   0  0  0  0  0  0  0  0  0  0  0  0
    1.3349   16.3744  -26.6463 H   0  0  0  0  0  0  0  0  0  0  0  0
    0.4446   15.8144  -28.1024 H   0  0  0  0  0  0  0  0  0  0  0  0
    1.2452   17.4224  -28.1024 H   0  0  0  0  0  0  0  0  0  0  0  0
   -2.2030   19.0580  -26.9700 C   0  0  0  0  0  0  0  0  0  0  0  0
   -2.9173   18.3953  -26.4595 H   0  0  0  0  0  0  0  0  0  0  0  0
   -2.5760   20.3660  -27.2950 C   0  0  0  0  0  0  0  0  0  0  0  0
   -3.5882   20.7223  -27.0533 H   0  0  0  0  0  0  0  0  0  0  0  0
   -0.1250   24.5040  -28.6000 C   0  0  0  0  0  0  0  0  0  0  0  0
   -0.1322   24.0140  -29.5848 H   0  0  0  0  0  0  0  0  0  0  0  0
    1.0050   24.4090  -27.7830 C   0  0  0  0  0  0  0  0  0  0  0  0
    1.8910   23.8584  -28.1321 H   0  0  0  0  0  0  0  0  0  0  0  0
    1.0100   25.0140  -26.5210 C   0  0  0  0  0  0  0  0  0  0  0  0
    2.5560   24.8890  -25.4070 Br  0  0  0  0  0  0  0  0  0  0  0  0
  1  2  1  0
  2  3  2  0
  3  4  1  0
  3  5  1  0
  5  6  1  0
  6  7  2  0
  7  8  1  0
  8  9  1  0
  9 10  2  0
 10 11  1  0
 10 12  1  0
 12 13  1  0
 12 14  2  0
 14 15  1  0
 15 16  2  0
 15 17  1  0
 14 18  1  0
 18 19  1  0
 18 20  2  0
 20 21  1  0
 21 22  1  0
 22 23  2  3
 23 24  1  0
 24 25  2  0
 25 26  1  0
 25 27  1  0
 27 28  1  0
 27 29  2  0
 29 30  1  0
 30 31  1  0
 31 32  1  0
 31 33  1  0
 31 34  1  0
 29 35  1  0
 35 36  1  0
 35 37  2  0
 37 38  1  0
  5 39  2  0
 39 40  1  0
 39 41  1  0
 41 42  1  0
 41 43  2  0
 43 44  1  0
 43  2  1  0
 22  7  1  0
 37 24  1  0
 20  9  1  0
M  CHG  4   8  -1  15   1  17  -1  21  -1
M  END
>  <UniqueID>  (2) 
2

>  <SMILES>  (2) 
COc1ccc(N=c2[n-]c3cc([N+](=O)[O-])ccc3[n-]/c2=N/c2ccc(Br)cc2)cc1

>  <Energy>  (2) 
72.46270030992078

>  <Genealogy>  (2) 
COc1ccc(N=c2[n-]c3cc([N+](=O)[O-])ccc3[n-]c2=Nc2ccc(Br)cc2)cc1 (protonated)
COc1ccc(N=c2[n-]c3cc([N+](=O)[O-])ccc3[n-]/c2=N/c2ccc(Br)cc2)cc1 (cis-trans isomerization)
COc1ccc(N=c2[n-]c3cc([N+](=O)[O-])ccc3[n-]/c2=N/c2ccc(Br)cc2)cc1 (3D coordinates assigned)
COc1ccc(N=c2[n-]c3cc([N+](=O)[O-])ccc3[n-]/c2=N/c2ccc(Br)cc2)cc1 (optimized conformer: 72.46270030992078 kcal/mol)

>  <smiles>  (2) 
COc1ccc(N=c2[nH]c3cc([N+](=O)[O-])ccc3[nH]c2=Nc2ccc(Br)cc2)cc1

>  <score_type>  (2) 
oracle

>  <origin>  (2) 
adgpu

>  <m_score__min__energy>  (2) 
-10.140000000000001

>  <m_primary>  (2) 
energy

$$$$
2:0
     RDKit          3D

 35 38  0  0  0  0  0  0  0  0999 V2000
   -1.1036   18.1678  -26.1957 H   0  0  0  0  0  0  0  0  0  0  0  0
   -1.4240   19.0920  -26.6990 C   0  0  0  0  0  0  0  0  0  0  0  0
   -2.6660   19.1560  -27.2760 N   0  0  0  0  0  0  0  0  0  0  0  0
   -3.1140   20.2780  -27.9130 C   0  0  0  0  0  0  0  0  0  0  0  0
   -4.1141   20.3095  -28.3700 H   0  0  0  0  0  0  0  0  0  0  0  0
   -2.2670   21.3790  -27.9660 C   0  0  0  0  0  0  0  0  0  0  0  0
   -2.4020   22.6340  -28.5130 C   0  0  0  0  0  0  0  0  0  0  0  0
   -3.4460   23.2440  -29.2000 C   0  0  0  0  0  0  0  0  0  0  0  0
   -4.3873   22.7121  -29.4025 H   0  0  0  0  0  0  0  0  0  0  0  0
   -3.2450   24.5830  -29.6290 C   0  0  0  0  0  0  0  0  0  0  0  0
   -4.1580   25.2570  -30.2710 N   0  0  0  0  0  0  0  0  0  0  0  0
   -5.4110   24.7730  -30.7750 C   0  0  0  0  0  0  0  0  0  0  0  0
   -6.4390   25.4870  -30.6340 O   0  0  0  0  0  0  0  0  0  0  0  0
   -5.4720   23.5660  -31.5530 N   0  0  0  0  0  0  0  0  0  0  0  0
   -4.5920   23.2460  -32.0170 H   0  0  0  0  0  0  0  0  0  0  0  0
   -6.6820   22.8320  -31.8060 C   0  0  0  0  0  0  0  0  0  0  0  0
   -6.6100   21.4540  -32.0690 C   0  0  0  0  0  0  0  0  0  0  0  0
   -5.6305   20.9543  -32.0989 H   0  0  0  0  0  0  0  0  0  0  0  0
   -7.7740   20.7130  -32.2930 C   0  0  0  0  0  0  0  0  0  0  0  0
   -7.7068   19.6366  -32.5097 H   0  0  0  0  0  0  0  0  0  0  0  0
   -9.0230   21.3380  -32.2420 C   0  0  0  0  0  0  0  0  0  0  0  0
  -10.1500   20.6180  -32.4560 F   0  0  0  0  0  0  0  0  0  0  0  0
   -9.1080   22.7050  -31.9580 C   0  0  0  0  0  0  0  0  0  0  0  0
  -10.0914   23.1955  -31.9101 H   0  0  0  0  0  0  0  0  0  0  0  0
   -7.9460   23.4490  -31.7350 C   0  0  0  0  0  0  0  0  0  0  0  0
   -8.0191   24.5217  -31.5029 H   0  0  0  0  0  0  0  0  0  0  0  0
   -2.0660   25.2160  -29.3280 N   0  0  0  0  0  0  0  0  0  0  0  0
   -1.0480   24.6060  -28.6500 C   0  0  0  0  0  0  0  0  0  0  0  0
   -0.1127   25.1427  -28.4329 H   0  0  0  0  0  0  0  0  0  0  0  0
   -1.2260   23.2920  -28.2430 C   0  0  0  0  0  0  0  0  0  0  0  0
   -0.3610   22.5130  -27.5560 N   0  0  0  0  0  0  0  0  0  0  0  0
    0.5960   22.7630  -27.2210 H   0  0  0  0  0  0  0  0  0  0  0  0
   -1.0140   21.3410  -27.3950 C   0  0  0  0  0  0  0  0  0  0  0  0
   -0.5550   20.1990  -26.7450 C   0  0  0  0  0  0  0  0  0  0  0  0
    0.4443   20.1628  -26.2866 H   0  0  0  0  0  0  0  0  0  0  0  0
  1  2  1  0
  2  3  2  0
  3  4  1  0
  4  5  1  0
  4  6  2  0
  6  7  1  0
  7  8  2  0
  8  9  1  0
  8 10  1  0
 10 11  2  0
 11 12  1  0
 12 13  2  0
 12 14  1  0
 14 15  1  0
 14 16  1  0
 16 17  2  0
 17 18  1  0
 17 19  1  0
 19 20  1  0
 19 21  2  0
 21 22  1  0
 21 23  1  0
 23 24  1  0
 23 25  2  0
 25 26  1  0
 10 27  1  0
 27 28  1  0
 28 29  1  0
 28 30  2  0
 30 31  1  0
 31 32  1  0
 31 33  1  0
 33 34  2  0
 34 35  1  0
 34  2  1  0
 33  6  1  0
 30  7  1  0
 25 16  1  0
M  CHG  1  27  -1
M  END
>  <UniqueID>  (3) 
3

>  <SMILES>  (3) 
O=C(/N=c1\cc2c(c[n-]1)[nH]c1ccncc12)Nc1ccc(F)cc1

>  <Energy>  (3) 
94.27014172122844

>  <Genealogy>  (3) 
O=C(N=c1cc2c(c[n-]1)[nH]c1ccncc12)Nc1ccc(F)cc1 (protonated)
O=C(/N=c1\cc2c(c[n-]1)[nH]c1ccncc12)Nc1ccc(F)cc1 (cis-trans isomerization)
O=C(/N=c1\cc2c(c[n-]1)[nH]c1ccncc12)Nc1ccc(F)cc1 (3D coordinates assigned)
O=C(/N=c1\cc2c(c[n-]1)[nH]c1ccncc12)Nc1ccc(F)cc1 (optimized conformer: 94.27014172122844 kcal/mol)

>  <smiles>  (3) 
O=C(N=c1cc2c(c[nH]1)[nH]c1ccncc12)Nc1ccc(F)cc1

>  <score_type>  (3) 
oracle

>  <origin>  (3) 
adgpu

>  <m_score__min__energy>  (3) 
-9.3000000000000007

>  <m_primary>  (3) 
energy

$$$$
3:0
     RDKit          3D

 40 42  0  0  0  0  0  0  0  0999 V2000
   -3.2550   20.3370  -33.5160 C   0  0  0  0  0  0  0  0  0  0  0  0
   -4.4810   21.0010  -32.9740 C   0  0  0  0  0  0  0  0  0  0  0  0
   -4.4030   22.2770  -32.4100 C   0  0  0  0  0  0  0  0  0  0  0  0
   -5.5580   22.9060  -31.9100 C   0  0  0  0  0  0  0  0  0  0  0  0
   -5.4580   24.3080  -31.3310 C   0  0  0  0  0  0  0  0  0  0  0  0
   -4.2110   24.5380  -30.6700 O   0  0  0  0  0  0  0  0  0  0  0  0
   -3.5660   23.6220  -29.8240 C   0  0  0  0  0  0  0  0  0  0  0  0
   -2.2570   23.1560  -30.0650 C   0  0  0  0  0  0  0  0  0  0  0  0
   -1.6680   22.2310  -29.1980 C   0  0  0  0  0  0  0  0  0  0  0  0
   -2.3700   21.7640  -28.0780 C   0  0  0  0  0  0  0  0  0  0  0  0
   -1.6430   20.5940  -26.9820 S   0  0  0  0  0  0  0  0  0  0  0  0
   -2.8170   19.3050  -26.6250 C   0  0  0  0  0  0  0  0  0  0  0  0
   -1.2410   21.2820  -25.7090 O   0  0  0  0  0  0  0  0  0  0  0  0
   -0.4240   19.9780  -27.6100 O   0  0  0  0  0  0  0  0  0  0  0  0
   -3.6680   22.2300  -27.8350 C   0  0  0  0  0  0  0  0  0  0  0  0
   -4.2600   23.1510  -28.7040 C   0  0  0  0  0  0  0  0  0  0  0  0
   -6.7800   22.1820  -31.9100 C   0  0  0  0  0  0  0  0  0  0  0  0
   -7.9730   22.6900  -31.3480 C   0  0  0  0  0  0  0  0  0  0  0  0
   -9.1520   21.9400  -31.3900 C   0  0  0  0  0  0  0  0  0  0  0  0
   -9.1630   20.6760  -31.9800 C   0  0  0  0  0  0  0  0  0  0  0  0
   -7.9910   20.1490  -32.5240 C   0  0  0  0  0  0  0  0  0  0  0  0
   -6.8030   20.8860  -32.4880 C   0  0  0  0  0  0  0  0  0  0  0  0
   -5.6670   20.3440  -32.9970 N   0  0  0  0  0  0  0  0  0  0  0  0
   -2.6241   19.9953  -32.6822 H   0  0  0  0  0  0  0  0  0  0  0  0
   -3.5474   19.4740  -34.1322 H   0  0  0  0  0  0  0  0  0  0  0  0
   -2.6920   21.0535  -34.1322 H   0  0  0  0  0  0  0  0  0  0  0  0
   -3.4329   22.7928  -32.3566 H   0  0  0  0  0  0  0  0  0  0  0  0
   -5.5637   25.0361  -32.1487 H   0  0  0  0  0  0  0  0  0  0  0  0
   -6.2584   24.4202  -30.5848 H   0  0  0  0  0  0  0  0  0  0  0  0
   -1.6973   23.5217  -30.9385 H   0  0  0  0  0  0  0  0  0  0  0  0
   -0.6487   21.8678  -29.3956 H   0  0  0  0  0  0  0  0  0  0  0  0
   -2.9188   19.1932  -25.5354 H   0  0  0  0  0  0  0  0  0  0  0  0
   -3.7929   19.5673  -27.0595 H   0  0  0  0  0  0  0  0  0  0  0  0
   -2.4649   18.3577  -27.0595 H   0  0  0  0  0  0  0  0  0  0  0  0
   -4.2239   21.8698  -26.9568 H   0  0  0  0  0  0  0  0  0  0  0  0
   -5.2810   23.5089  -28.5055 H   0  0  0  0  0  0  0  0  0  0  0  0
   -7.9739   23.6827  -30.8741 H   0  0  0  0  0  0  0  0  0  0  0  0
  -10.0761   22.3488  -30.9554 H   0  0  0  0  0  0  0  0  0  0  0  0
  -10.0960   20.0944  -32.0164 H   0  0  0  0  0  0  0  0  0  0  0  0
   -8.0016   19.1495  -32.9832 H   0  0  0  0  0  0  0  0  0  0  0  0
  1  2  1  0
  2  3  2  0
  3  4  1  0
  4  5  1  0
  5  6  1  0
  6  7  1  0
  7  8  2  0
  8  9  1  0
  9 10  2  0
 10 11  1  0
 11 12  1  0
 11 13  2  0
 11 14  2  0
 10 15  1  0
 15 16  2  0
  4 17  2  0
 17 18  1  0
 18 19  2  0
 19 20  1  0
 20 21  2  0
 21 22  1  0
 22 23  2  0
 23  2  1  0
 16  7  1  0
 22 17  1  0
  1 24  1  0
  1 25  1  0
  1 26  1  0
  3 27  1  0
  5 28  1  0
  5 29  1  0
  8 30  1  0
  9 31  1  0
 12 32  1  0
 12 33  1  0
 12 34  1  0
 15 35  1  0
 16 36  1  0
 18 37  1  0
 19 38  1  0
 20 39  1  0
 21 40  1  0
M  END
>  <UniqueID>  (4) 
4

>  <SMILES>  (4) 
Cc1cc(COc2ccc(S(C)(=O)=O)cc2)c2ccccc2n1

>  <Energy>  (4) 
45.256466142133604

>  <Genealogy>  (4) 
Cc1cc(COc2ccc(S(C)(=O)=O)cc2)c2ccccc2n1 (3D coordinates assigned)
Cc1cc(COc2ccc(S(C)(=O)=O)cc2)c2ccccc2n1 (optimized conformer: 45.256466142133604 kcal/mol)

>  <smiles>  (4) 
Cc1cc(COc2ccc(S(C)(=O)=O)cc2)c2ccccc2n1

>  <score_type>  (4) 
oracle

>  <origin>  (4) 
adgpu

>  <m_score__min__energy>  (4) 
-8.9399999999999995

>  <m_primary>  (4) 
energy

$$$$
4:0
     RDKit          3D

 37 38  0  0  0  0  0  0  0  0999 V2000
   -9.4620   19.7520  -32.6840 C   0  0  0  0  0  0  0  0  0  0  0  0
   -8.6730   20.0710  -31.4530 C   0  0  0  0  0  0  0  0  0  0  0  0
   -9.0570   21.4210  -30.8370 C   0  0  0  0  0  0  0  0  0  0  0  0
   -9.2630   22.3670  -31.9720 C   0  0  0  0  0  0  0  0  0  0  0  0
   -8.4450   23.5020  -31.9620 O   0  0  0  0  0  0  0  0  0  0  0  0
   -7.0720   23.3990  -31.7970 C   0  0  0  0  0  0  0  0  0  0  0  0
   -6.3160   24.2710  -31.1430 N   0  0  0  0  0  0  0  0  0  0  0  0
   -4.9920   24.1690  -30.9830 C   0  0  0  0  0  0  0  0  0  0  0  0
   -4.2810   25.0430  -30.3360 N   0  0  0  0  0  0  0  0  0  0  0  0
   -4.3740   23.0640  -31.5490 C   0  0  0  0  0  0  0  0  0  0  0  0
   -3.1090   22.6150  -31.6120 N   0  0  0  0  0  0  0  0  0  0  0  0
   -3.0690   21.4520  -32.3100 C   0  0  0  0  0  0  0  0  0  0  0  0
   -4.3160   21.1440  -32.7040 N   0  0  0  0  0  0  0  0  0  0  0  0
   -4.7550   20.0010  -33.4700 C   0  0  0  0  0  0  0  0  0  0  0  0
   -5.6810   19.1780  -32.6310 C   0  0  0  0  0  0  0  0  0  0  0  0
   -6.4700   18.2400  -33.4900 C   0  0  0  0  0  0  0  0  0  0  0  0
   -5.1240   22.1330  -32.2390 C   0  0  0  0  0  0  0  0  0  0  0  0
   -6.4480   22.3250  -32.3430 N   0  0  0  0  0  0  0  0  0  0  0  0
  -10.4462   19.3541  -32.3958 H   0  0  0  0  0  0  0  0  0  0  0  0
   -9.5965   20.6664  -33.2805 H   0  0  0  0  0  0  0  0  0  0  0  0
   -8.9232   19.0011  -33.2805 H   0  0  0  0  0  0  0  0  0  0  0  0
   -8.8492   19.2814  -30.7077 H   0  0  0  0  0  0  0  0  0  0  0  0
   -7.6135   20.1278  -31.7431 H   0  0  0  0  0  0  0  0  0  0  0  0
   -9.9841   21.3214  -30.2534 H   0  0  0  0  0  0  0  0  0  0  0  0
   -8.2717   21.7835  -30.1573 H   0  0  0  0  0  0  0  0  0  0  0  0
   -9.0743   21.8207  -32.9079 H   0  0  0  0  0  0  0  0  0  0  0  0
  -10.2949   22.7357  -31.8764 H   0  0  0  0  0  0  0  0  0  0  0  0
   -4.7850   25.8630  -29.9220 H   0  0  0  0  0  0  0  0  0  0  0  0
   -2.1658   20.8598  -32.5186 H   0  0  0  0  0  0  0  0  0  0  0  0
   -5.2815   20.3428  -34.3733 H   0  0  0  0  0  0  0  0  0  0  0  0
   -3.8853   19.3960  -33.7658 H   0  0  0  0  0  0  0  0  0  0  0  0
   -5.0927   18.5969  -31.9056 H   0  0  0  0  0  0  0  0  0  0  0  0
   -6.3757   19.8487  -32.1041 H   0  0  0  0  0  0  0  0  0  0  0  0
   -7.0464   17.5547  -32.8511 H   0  0  0  0  0  0  0  0  0  0  0  0
   -7.1590   18.8161  -34.1251 H   0  0  0  0  0  0  0  0  0  0  0  0
   -5.7844   17.6598  -34.1251 H   0  0  0  0  0  0  0  0  0  0  0  0
   -7.0070   21.6280  -32.8590 H   0  0  0  0  0  0  0  0  0  0  0  0
  1  2  1  0
  2  3  1  0
  3  4  1  0
  4  5  1  0
  5  6  1  0
  6  7  2  0
  7  8  1  0
  8  9  2  3
  8 10  1  0
 10 11  1  0
 11 12  2  0
 12 13  1  0
 13 14  1  0
 14 15  1  0
 15 16  1  0
 13 17  1  0
 17 18  1  0
 18  6  1  0
 17 10  2  0
  1 19  1  0
  1 20  1  0
  1 21  1  0
  2 22  1  0
  2 23  1  0
  3 24  1  0
  3 25  1  0
  4 26  1  0
  4 27  1  0
  9 28  1  0
 12 29  1  0
 14 30  1  0
 14 31  1  0
 15 32  1  0
 15 33  1  0
 16 34  1  0
 16 35  1  0
 16 36  1  0
 18 37  1  0
M  END
>  <smiles>  (5) 
CCCCOc1nc(=N)c2ncn(CCC)c2[nH]1

>  <score_type>  (5) 
oracle

>  <origin>  (5) 
adgpu

>  <m_score__min__energy>  (5) 
-5.71

>  <m_primary>  (5) 
energy

$$$$
5:0
     RDKit          3D

 31 32  0  0  0  0  0  0  0  0999 V2000
   -3.5000   25.2530  -30.4550 N   0  0  0  0  0  0  0  0  0  0  0  0
   -4.3120   24.5720  -29.5030 C   0  0  0  0  0  0  0  0  0  0  0  0
   -3.7930   23.7340  -28.7190 O   0  0  0  0  0  0  0  0  0  0  0  0
   -5.7890   24.8230  -29.4610 C   0  0  0  0  0  0  0  0  0  0  0  0
   -6.4060   24.8070  -30.8650 C   0  0  0  0  0  0  0  0  0  0  0  0
   -6.4280   23.4180  -31.4510 C   0  0  0  0  0  0  0  0  0  0  0  0
   -7.5600   22.6020  -31.3040 C   0  0  0  0  0  0  0  0  0  0  0  0
   -7.5650   21.3030  -31.8180 C   0  0  0  0  0  0  0  0  0  0  0  0
   -6.4370   20.7940  -32.4850 C   0  0  0  0  0  0  0  0  0  0  0  0
   -6.4410   19.4120  -33.0300 C   0  0  0  0  0  0  0  0  0  0  0  0
   -5.7370   19.1060  -34.2100 C   0  0  0  0  0  0  0  0  0  0  0  0
   -5.7440   17.8040  -34.7210 C   0  0  0  0  0  0  0  0  0  0  0  0
   -6.4490   16.7950  -34.0610 C   0  0  0  0  0  0  0  0  0  0  0  0
   -7.1500   17.0850  -32.8890 C   0  0  0  0  0  0  0  0  0  0  0  0
   -7.1480   18.3850  -32.3740 C   0  0  0  0  0  0  0  0  0  0  0  0
   -5.3020   21.6120  -32.6230 C   0  0  0  0  0  0  0  0  0  0  0  0
   -5.2970   22.9110  -32.1080 C   0  0  0  0  0  0  0  0  0  0  0  0
   -3.8730   26.0650  -30.9950 H   0  0  0  0  0  0  0  0  0  0  0  0
   -6.2666   24.0409  -28.8526 H   0  0  0  0  0  0  0  0  0  0  0  0
   -5.9559   25.8185  -29.0239 H   0  0  0  0  0  0  0  0  0  0  0  0
   -7.4374   25.1845  -30.8050 H   0  0  0  0  0  0  0  0  0  0  0  0
   -5.7894   25.4434  -31.5168 H   0  0  0  0  0  0  0  0  0  0  0  0
   -8.4480   22.9871  -30.7814 H   0  0  0  0  0  0  0  0  0  0  0  0
   -8.4591   20.6732  -31.6998 H   0  0  0  0  0  0  0  0  0  0  0  0
   -5.1780   19.8957  -34.7334 H   0  0  0  0  0  0  0  0  0  0  0  0
   -5.1930   17.5742  -35.6449 H   0  0  0  0  0  0  0  0  0  0  0  0
   -6.4519   15.7717  -34.4647 H   0  0  0  0  0  0  0  0  0  0  0  0
   -7.7048   16.2896  -32.3699 H   0  0  0  0  0  0  0  0  0  0  0  0
   -7.7023   18.6074  -31.4503 H   0  0  0  0  0  0  0  0  0  0  0  0
   -4.4111   21.2265  -33.1403 H   0  0  0  0  0  0  0  0  0  0  0  0
   -4.4011   23.5396  -32.2184 H   0  0  0  0  0  0  0  0  0  0  0  0
  1  2  1  0
  2  3  2  0
  2  4  1  0
  4  5  1  0
  5  6  1  0
  6  7  2  0
  7  8  1  0
  8  9  2  0
  9 10  1  0
 10 11  2  0
 11 12  1  0
 12 13  2  0
 13 14  1  0
 14 15  2  0
  9 16  1  0
 16 17  2  0
 17  6  1  0
 15 10  1  0
  1 18  1  0
  4 19  1  0
  4 20  1  0
  5 21  1  0
  5 22  1  0
  7 23  1  0
  8 24  1  0
 11 25  1  0
 12 26  1  0
 13 27  1  0
 14 28  1  0
 15 29  1  0
 16 30  1  0
 17 31  1  0
M  CHG  1   1  -1
M  END
>  <UniqueID>  (6) 
5

>  <SMILES>  (6) 
[NH-]C(=O)CCc1ccc(-c2ccccc2)cc1

>  <Energy>  (6) 
32.350044444871486

>  <Genealogy>  (6) 
[NH-]C(=O)CCc1ccc(-c2ccccc2)cc1 (protonated)
[NH-]C(=O)CCc1ccc(-c2ccccc2)cc1 (3D coordinates assigned)
[NH-]C(=O)CCc1ccc(-c2ccccc2)cc1 (optimized conformer: 32.350044444871486 kcal/mol)

>  <smiles>  (6) 
NC(=O)CCc1ccc(-c2ccccc2)cc1

>  <score_type>  (6) 
oracle

>  <origin>  (6) 
adgpu

>  <m_score__min__energy>  (6) 
-10.130000000000001

>  <m_primary>  (6) 
energy

$$$$
6:0
     RDKit          3D

 54 57  0  0  0  0  0  0  0  0999 V2000
    3.2250   21.3290  -36.4540 C   0  0  0  0  0  0  0  0  0  0  0  0
    2.1150   20.7710  -35.6650 N   0  0  0  0  0  0  0  0  0  0  0  0
    1.0520   21.5710  -35.3150 C   0  0  0  0  0  0  0  0  0  0  0  0
    0.9890   22.7770  -35.6780 O   0  0  0  0  0  0  0  0  0  0  0  0
    0.0420   21.0260  -34.5400 C   0  0  0  0  0  0  0  0  0  0  0  0
   -1.0780   21.6170  -34.0910 N   0  0  0  0  0  0  0  0  0  0  0  0
   -1.7390   20.6640  -33.3840 C   0  0  0  0  0  0  0  0  0  0  0  0
   -3.0640   20.8730  -32.7500 C   0  0  0  0  0  0  0  0  0  0  0  0
   -3.5220   20.0070  -31.7400 C   0  0  0  0  0  0  0  0  0  0  0  0
   -4.7990   20.1620  -31.1970 C   0  0  0  0  0  0  0  0  0  0  0  0
   -5.6520   21.1680  -31.6670 C   0  0  0  0  0  0  0  0  0  0  0  0
   -7.0070   21.2240  -31.1980 N   0  0  0  0  0  0  0  0  0  0  0  0
   -8.1450   20.8620  -32.0020 C   0  0  0  0  0  0  0  0  0  0  0  0
   -9.6020   21.5240  -31.6600 S   0  0  0  0  0  0  0  0  0  0  0  0
   -8.0390   19.9390  -33.1010 N   0  0  0  0  0  0  0  0  0  0  0  0
   -7.0430   18.9070  -33.1860 C   0  0  0  0  0  0  0  0  0  0  0  0
   -6.1060   18.9340  -34.2280 C   0  0  0  0  0  0  0  0  0  0  0  0
   -5.0580   18.0080  -34.2590 C   0  0  0  0  0  0  0  0  0  0  0  0
   -4.9520   17.0300  -33.2620 C   0  0  0  0  0  0  0  0  0  0  0  0
   -3.5830   15.9240  -33.2610 S   0  0  0  0  0  0  0  0  0  0  0  0
   -3.2920   15.3500  -34.9190 C   0  0  0  0  0  0  0  0  0  0  0  0
   -3.8790   14.7540  -32.3640 O   0  0  0  0  0  0  0  0  0  0  0  0
   -2.3540   16.6260  -32.7520 O   0  0  0  0  0  0  0  0  0  0  0  0
   -5.9130   16.9710  -32.2450 C   0  0  0  0  0  0  0  0  0  0  0  0
   -6.9610   17.8960  -32.2130 C   0  0  0  0  0  0  0  0  0  0  0  0
   -5.1790   22.0740  -32.6290 C   0  0  0  0  0  0  0  0  0  0  0  0
   -3.9000   21.9240  -33.1710 C   0  0  0  0  0  0  0  0  0  0  0  0
   -1.0190   19.4660  -33.3880 C   0  0  0  0  0  0  0  0  0  0  0  0
    0.1110   19.7330  -34.1360 C   0  0  0  0  0  0  0  0  0  0  0  0
    1.1550   18.9220  -34.4640 N   0  0  0  0  0  0  0  0  0  0  0  0
    1.1960   17.5360  -33.9760 C   0  0  0  0  0  0  0  0  0  0  0  0
    2.1800   19.4620  -35.2150 C   0  0  0  0  0  0  0  0  0  0  0  0
    3.1920   18.7570  -35.4880 O   0  0  0  0  0  0  0  0  0  0  0  0
    3.9983   21.7177  -35.7751 H   0  0  0  0  0  0  0  0  0  0  0  0
    3.6566   20.5407  -37.0883 H   0  0  0  0  0  0  0  0  0  0  0  0
    2.8498   22.1456  -37.0883 H   0  0  0  0  0  0  0  0  0  0  0  0
   -1.3830   22.5950  -34.2890 H   0  0  0  0  0  0  0  0  0  0  0  0
   -2.8684   19.2010  -31.3751 H   0  0  0  0  0  0  0  0  0  0  0  0
   -5.1371   19.4895  -30.3949 H   0  0  0  0  0  0  0  0  0  0  0  0
   -7.1740   21.5000  -30.2030 H   0  0  0  0  0  0  0  0  0  0  0  0
   -8.7000   20.0510  -33.9020 H   0  0  0  0  0  0  0  0  0  0  0  0
   -6.1951   19.6868  -35.0251 H   0  0  0  0  0  0  0  0  0  0  0  0
   -4.3148   18.0480  -35.0690 H   0  0  0  0  0  0  0  0  0  0  0  0
   -2.7948   14.3693  -34.8855 H   0  0  0  0  0  0  0  0  0  0  0  0
   -4.2517   15.2567  -35.4485 H   0  0  0  0  0  0  0  0  0  0  0  0
   -2.6495   16.0689  -35.4485 H   0  0  0  0  0  0  0  0  0  0  0  0
   -5.8431   16.1945  -31.4690 H   0  0  0  0  0  0  0  0  0  0  0  0
   -7.7242   17.8323  -31.4234 H   0  0  0  0  0  0  0  0  0  0  0  0
   -5.8185   22.9064  -32.9579 H   0  0  0  0  0  0  0  0  0  0  0  0
   -3.5436   22.6330  -33.9328 H   0  0  0  0  0  0  0  0  0  0  0  0
   -1.2925   18.5179  -32.9018 H   0  0  0  0  0  0  0  0  0  0  0  0
    1.1960   17.5344  -32.8760 H   0  0  0  0  0  0  0  0  0  0  0  0
    0.3136   16.9916  -34.3434 H   0  0  0  0  0  0  0  0  0  0  0  0
    2.1091   17.0448  -34.3434 H   0  0  0  0  0  0  0  0  0  0  0  0
  1  2  1  0
  2  3  1  0
  3  4  2  0
  3  5  1  0
  5  6  1  0
  6  7  1  0
  7  8  1  0
  8  9  2  0
  9 10  1  0
 10 11  2  0
 11 12  1  0
 12 13  1  0
 13 14  2  0
 13 15  1  0
 15 16  1  0
 16 17  2  0
 17 18  1  0
 18 19  2  0
 19 20  1  0
 20 21  1  0
 20 22  2  0
 20 23  2  0
 19 24  1  0
 24 25  2  0
 11 26  1  0
 26 27  2  0
  7 28  2  0
 28 29  1  0
 29 30  1  0
 30 31  1  0
 30 32  1  0
 32 33  2  0
 32  2  1  0
 29  5  2  0
 27  8  1  0
 25 16  1  0
  1 34  1  0
  1 35  1  0
  1 36  1  0
  6 37  1  0
  9 38  1  0
 10 39  1  0
 12 40  1  0
 15 41  1  0
 17 42  1  0
 18 43  1  0
 21 44  1  0
 21 45  1  0
 21 46  1  0
 24 47  1  0
 25 48  1  0
 26 49  1  0
 27 50  1  0
 28 51  1  0
 31 52  1  0
 31 53  1  0
 31 54  1  0
M  END
>  <UniqueID>  (7) 
6

>  <SMILES>  (7) 
Cn1c(=O)c2[nH]c(-c3ccc(NC(=S)Nc4ccc(S(C)(=O)=O)cc4)cc3)cc2n(C)c1=O

>  <Energy>  (7) 
102.62433547411884

>  <Genealogy>  (7) 
Cn1c(=O)c2[nH]c(-c3ccc(NC(=S)Nc4ccc(S(C)(=O)=O)cc4)cc3)cc2n(C)c1=O (3D coordinates assigned)
Cn1c(=O)c2[nH]c(-c3ccc(NC(=S)Nc4ccc(S(C)(=O)=O)cc4)cc3)cc2n(C)c1=O (optimized conformer: 102.62433547411884 kcal/mol)

>  <smiles>  (7) 
Cn1c(=O)c2[nH]c(-c3ccc(NC(=S)Nc4ccc(S(C)(=O)=O)cc4)cc3)cc2n(C)c1=O

>  <score_type>  (7) 
oracle

>  <origin>  (7) 
adgpu

>  <m_score__min__energy>  (7) 
-9.2200000000000006

>  <m_primary>  (7) 
energy

$$$$
7:0
     RDKit          3D

 37 39  0  0  0  0  0  0  0  0999 V2000
   -9.8929   21.7949  -31.8599 H   0  0  0  0  0  0  0  0  0  0  0  0
   -8.7940   21.8440  -31.8640 C   0  0  0  0  0  0  0  0  0  0  0  0
   -8.1520   23.0630  -31.6300 C   0  0  0  0  0  0  0  0  0  0  0  0
   -8.7478   23.9673  -31.4371 H   0  0  0  0  0  0  0  0  0  0  0  0
   -6.7500   23.1390  -31.6400 C   0  0  0  0  0  0  0  0  0  0  0  0
   -6.0610   24.4570  -31.3960 C   0  0  0  0  0  0  0  0  0  0  0  0
   -6.2159   25.1110  -32.2668 H   0  0  0  0  0  0  0  0  0  0  0  0
   -6.4877   24.9144  -30.4912 H   0  0  0  0  0  0  0  0  0  0  0  0
   -4.6230   24.2650  -31.1900 N   0  0  0  0  0  0  0  0  0  0  0  0
   -3.9740   24.2950  -30.0590 C   0  0  0  0  0  0  0  0  0  0  0  0
   -2.6290   24.1130  -30.0850 N   0  0  0  0  0  0  0  0  0  0  0  0
   -1.8660   24.1330  -28.9600 C   0  0  0  0  0  0  0  0  0  0  0  0
   -0.4840   23.9400  -29.0620 C   0  0  0  0  0  0  0  0  0  0  0  0
   -0.0245   23.7722  -30.0472 H   0  0  0  0  0  0  0  0  0  0  0  0
    0.3130   23.9600  -27.9160 C   0  0  0  0  0  0  0  0  0  0  0  0
    1.3993   23.8084  -28.0000 H   0  0  0  0  0  0  0  0  0  0  0  0
   -0.2660   24.1720  -26.6640 C   0  0  0  0  0  0  0  0  0  0  0  0
    0.3659   24.1858  -25.7637 H   0  0  0  0  0  0  0  0  0  0  0  0
   -1.6460   24.3670  -26.5490 C   0  0  0  0  0  0  0  0  0  0  0  0
   -2.0946   24.5344  -25.5587 H   0  0  0  0  0  0  0  0  0  0  0  0
   -2.4660   24.3500  -27.6980 C   0  0  0  0  0  0  0  0  0  0  0  0
   -3.8670   24.5400  -27.6350 C   0  0  0  0  0  0  0  0  0  0  0  0
   -4.5790   24.7750  -26.3270 C   0  0  0  0  0  0  0  0  0  0  0  0
   -3.8977   24.5501  -25.4931 H   0  0  0  0  0  0  0  0  0  0  0  0
   -4.8979   25.8260  -26.2668 H   0  0  0  0  0  0  0  0  0  0  0  0
   -5.4609   24.1203  -26.2668 H   0  0  0  0  0  0  0  0  0  0  0  0
   -4.6150   24.5070  -28.8240 C   0  0  0  0  0  0  0  0  0  0  0  0
   -5.7055   24.6474  -28.7895 H   0  0  0  0  0  0  0  0  0  0  0  0
   -6.0010   21.9830  -31.9120 C   0  0  0  0  0  0  0  0  0  0  0  0
   -4.9027   22.0371  -31.9420 H   0  0  0  0  0  0  0  0  0  0  0  0
   -6.6440   20.7630  -32.1450 C   0  0  0  0  0  0  0  0  0  0  0  0
   -6.0498   19.8629  -32.3612 H   0  0  0  0  0  0  0  0  0  0  0  0
   -8.0450   20.6830  -32.1040 C   0  0  0  0  0  0  0  0  0  0  0  0
   -8.7350   19.3830  -32.3920 C   0  0  0  0  0  0  0  0  0  0  0  0
   -8.9971   18.8892  -31.4446 H   0  0  0  0  0  0  0  0  0  0  0  0
   -9.6503   19.5742  -32.9713 H   0  0  0  0  0  0  0  0  0  0  0  0
   -8.0637   18.7320  -32.9713 H   0  0  0  0  0  0  0  0  0  0  0  0
  1  2  1  0
  2  3  2  0
  3  4  1  0
  3  5  1  0
  5  6  1  0
  6  7  1  0
  6  8  1  0
  6  9  1  0
  9 10  2  0
 10 11  1  0
 11 12  1  0
 12 13  2  0
 13 14  1  0
 13 15  1  0
 15 16  1  0
 15 17  2  0
 17 18  1  0
 17 19  1  0
 19 20  1  0
 19 21  2  0
 21 22  1  0
 22 23  1  0
 23 24  1  0
 23 25  1  0
 23 26  1  0
 22 27  2  0
 27 28  1  0
  5 29  2  0
 29 30  1  0
 29 31  1  0
 31 32  1  0
 31 33  2  0
 33 34  1  0
 34 35  1  0
 34 36  1  0
 34 37  1  0
 33  2  1  0
 27 10  1  0
 21 12  1  0
M  CHG  1  11  -1
M  END
>  <UniqueID>  (8) 
7

>  <SMILES>  (8) 
Cc1ccc(C/N=c2\cc(C)c3ccccc3[n-]2)cc1

>  <Energy>  (8) 
44.66068768566204

>  <Genealogy>  (8) 
Cc1ccc(CN=c2cc(C)c3ccccc3[n-]2)cc1 (protonated)
Cc1ccc(C/N=c2\cc(C)c3ccccc3[n-]2)cc1 (cis-trans isomerization)
Cc1ccc(C/N=c2\cc(C)c3ccccc3[n-]2)cc1 (3D coordinates assigned)
Cc1ccc(C/N=c2\cc(C)c3ccccc3[n-]2)cc1 (optimized conformer: 44.66068768566204 kcal/mol)

>  <smiles>  (8) 
Cc1ccc(CN=c2cc(C)c3ccccc3[nH]2)cc1

>  <score_type>  (8) 
oracle

>  <origin>  (8) 
adgpu

>  <m_score__min__energy>  (8) 
-9.0700000000000003

>  <m_primary>  (8) 
energy

$$$$
8:0
     RDKit          3D

 18 18  0  0  0  0  0  0  0  0999 V2000
   -6.3920   25.7210  -29.4070 C   0  0  0  0  0  0  0  0  0  0  0  0
   -6.1990   24.5370  -30.3140 C   0  0  0  0  0  0  0  0  0  0  0  0
   -7.2570   23.6310  -30.5080 C   0  0  0  0  0  0  0  0  0  0  0  0
   -7.1070   22.5150  -31.3500 C   0  0  0  0  0  0  0  0  0  0  0  0
   -8.1940   21.5900  -31.5470 N   0  0  0  0  0  0  0  0  0  0  0  0
   -9.3140   21.9940  -31.9220 O   0  0  0  0  0  0  0  0  0  0  0  0
   -8.0160   20.2440  -31.3240 O   0  0  0  0  0  0  0  0  0  0  0  0
   -5.8790   22.3120  -31.9990 C   0  0  0  0  0  0  0  0  0  0  0  0
   -4.8230   23.2060  -31.8110 C   0  0  0  0  0  0  0  0  0  0  0  0
   -4.9710   24.3160  -30.9750 C   0  0  0  0  0  0  0  0  0  0  0  0
   -3.8830   25.1790  -30.8220 O   0  0  0  0  0  0  0  0  0  0  0  0
   -6.3384   25.3924  -28.3586 H   0  0  0  0  0  0  0  0  0  0  0  0
   -5.6029   26.4628  -29.5995 H   0  0  0  0  0  0  0  0  0  0  0  0
   -7.3758   26.1738  -29.5995 H   0  0  0  0  0  0  0  0  0  0  0  0
   -8.2151   23.7978  -29.9939 H   0  0  0  0  0  0  0  0  0  0  0  0
   -5.7477   21.4427  -32.6602 H   0  0  0  0  0  0  0  0  0  0  0  0
   -3.8659   23.0350  -32.3256 H   0  0  0  0  0  0  0  0  0  0  0  0
   -3.4550   25.6710  -31.5960 H   0  0  0  0  0  0  0  0  0  0  0  0
  1  2  1  0
  2  3  2  0
  3  4  1  0
  4  5  1  0
  5  6  2  0
  5  7  1  0
  4  8  2  0
  8  9  1  0
  9 10  2  0
 10 11  1  0
 10  2  1  0
  1 12  1  0
  1 13  1  0
  1 14  1  0
  3 15  1  0
  8 16  1  0
  9 17  1  0
 11 18  1  0
M  CHG  2   5   1   7  -1
M  END
>  <UniqueID>  (9) 
8

>  <SMILES>  (9) 
Cc1cc([N+](=O)[O-])ccc1O

>  <Energy>  (9) 
18.154091803635147

>  <Genealogy>  (9) 
Cc1cc([N+](=O)[O-])ccc1O (3D coordinates assigned)
Cc1cc([N+](=O)[O-])ccc1O (optimized conformer: 18.154091803635147 kcal/mol)

>  <smiles>  (9) 
Cc1cc([N+](=O)[O-])ccc1O

>  <score_type>  (9) 
oracle

>  <origin>  (9) 
adgpu

>  <m_score__min__energy>  (9) 
-5.9800000000000004

>  <m_primary>  (9) 
energy

$$$$
9:0
     RDKit          3D

 59 62  0  0  0  0  0  0  0  0999 V2000
    4.0980   20.2120  -34.9900 C   0  0  0  0  0  0  0  0  0  0  0  0
    2.7260   20.8200  -35.0760 C   0  0  0  0  0  0  0  0  0  0  0  0
    1.7770   20.5750  -34.0700 C   0  0  0  0  0  0  0  0  0  0  0  0
    0.4900   21.1410  -34.1440 C   0  0  0  0  0  0  0  0  0  0  0  0
   -0.5190   20.8810  -33.0900 C   0  0  0  0  0  0  0  0  0  0  0  0
   -1.7450   20.9770  -33.3680 O   0  0  0  0  0  0  0  0  0  0  0  0
   -0.1200   20.5310  -31.7550 N   0  0  0  0  0  0  0  0  0  0  0  0
   -1.0660   20.0110  -30.7710 C   0  0  0  0  0  0  0  0  0  0  0  0
   -1.2900   21.0230  -29.6780 C   0  0  0  0  0  0  0  0  0  0  0  0
   -1.1250   20.6700  -28.3310 C   0  0  0  0  0  0  0  0  0  0  0  0
   -1.3250   21.6180  -27.3270 C   0  0  0  0  0  0  0  0  0  0  0  0
   -1.6980   22.9240  -27.6570 C   0  0  0  0  0  0  0  0  0  0  0  0
   -1.8800   23.2930  -29.0010 C   0  0  0  0  0  0  0  0  0  0  0  0
   -2.2720   24.6820  -29.3420 C   0  0  0  0  0  0  0  0  0  0  0  0
   -1.5280   25.6380  -28.9930 O   0  0  0  0  0  0  0  0  0  0  0  0
   -3.4500   24.9780  -30.1060 N   0  0  0  0  0  0  0  0  0  0  0  0
   -4.4460   24.0360  -30.5290 C   0  0  0  0  0  0  0  0  0  0  0  0
   -4.1690   23.0510  -31.4930 C   0  0  0  0  0  0  0  0  0  0  0  0
   -5.1630   22.1490  -31.8840 C   0  0  0  0  0  0  0  0  0  0  0  0
   -6.4440   22.2020  -31.3040 C   0  0  0  0  0  0  0  0  0  0  0  0
   -7.4700   21.2730  -31.7070 N   0  0  0  0  0  0  0  0  0  0  0  0
   -7.2400   19.8250  -31.5860 C   0  0  0  0  0  0  0  0  0  0  0  0
   -7.9790   19.0280  -32.6840 C   0  0  0  0  0  0  0  0  0  0  0  0
   -9.1540   19.7220  -33.2460 N   0  0  0  0  0  0  0  0  0  0  0  0
   -9.7820   20.6220  -32.2780 C   0  0  0  0  0  0  0  0  0  0  0  0
   -8.8240   21.7740  -31.9830 C   0  0  0  0  0  0  0  0  0  0  0  0
   -6.7040   23.1700  -30.3200 C   0  0  0  0  0  0  0  0  0  0  0  0
   -5.7110   24.0740  -29.9320 C   0  0  0  0  0  0  0  0  0  0  0  0
   -1.6560   22.3380  -30.0070 C   0  0  0  0  0  0  0  0  0  0  0  0
    0.1600   21.9410  -35.2510 C   0  0  0  0  0  0  0  0  0  0  0  0
    1.1010   22.1880  -36.2520 C   0  0  0  0  0  0  0  0  0  0  0  0
    2.3810   21.6350  -36.1690 C   0  0  0  0  0  0  0  0  0  0  0  0
    3.3040   21.8940  -37.1760 O   0  0  0  0  0  0  0  0  0  0  0  0
    4.3784   20.0877  -33.9336 H   0  0  0  0  0  0  0  0  0  0  0  0
    4.0959   19.2305  -35.4867 H   0  0  0  0  0  0  0  0  0  0  0  0
    4.8237   20.8728  -35.4867 H   0  0  0  0  0  0  0  0  0  0  0  0
    2.0419   19.9345  -33.2158 H   0  0  0  0  0  0  0  0  0  0  0  0
    0.8690   20.6780  -31.4530 H   0  0  0  0  0  0  0  0  0  0  0  0
   -2.0236   19.7942  -31.2670 H   0  0  0  0  0  0  0  0  0  0  0  0
   -0.6547   19.0914  -30.3293 H   0  0  0  0  0  0  0  0  0  0  0  0
   -0.8369   19.6423  -28.0650 H   0  0  0  0  0  0  0  0  0  0  0  0
   -1.1887   21.3367  -26.2724 H   0  0  0  0  0  0  0  0  0  0  0  0
   -1.8500   23.6672  -26.8604 H   0  0  0  0  0  0  0  0  0  0  0  0
   -3.1664   22.9897  -31.9414 H   0  0  0  0  0  0  0  0  0  0  0  0
   -4.9420   21.3920  -32.6509 H   0  0  0  0  0  0  0  0  0  0  0  0
   -6.1609   19.6285  -31.6699 H   0  0  0  0  0  0  0  0  0  0  0  0
   -7.6289   19.4995  -30.6099 H   0  0  0  0  0  0  0  0  0  0  0  0
   -7.2711   18.8296  -33.5023 H   0  0  0  0  0  0  0  0  0  0  0  0
   -8.3512   18.1073  -32.2110 H   0  0  0  0  0  0  0  0  0  0  0  0
   -9.8580   19.0030  -33.5300 H   0  0  0  0  0  0  0  0  0  0  0  0
  -10.7192   21.0184  -32.6958 H   0  0  0  0  0  0  0  0  0  0  0  0
  -10.0057   20.0753  -31.3501 H   0  0  0  0  0  0  0  0  0  0  0  0
   -8.7890   22.4452  -32.8538 H   0  0  0  0  0  0  0  0  0  0  0  0
   -9.1864   22.3139  -31.0958 H   0  0  0  0  0  0  0  0  0  0  0  0
   -7.6977   23.2171  -29.8506 H   0  0  0  0  0  0  0  0  0  0  0  0
   -5.9253   24.8199  -29.1525 H   0  0  0  0  0  0  0  0  0  0  0  0
   -1.7685   22.6235  -31.0633 H   0  0  0  0  0  0  0  0  0  0  0  0
   -0.8473   22.3759  -35.3294 H   0  0  0  0  0  0  0  0  0  0  0  0
    0.8332   22.8214  -37.1106 H   0  0  0  0  0  0  0  0  0  0  0  0
  1  2  1  0
  2  3  2  0
  3  4  1  0
  4  5  1  0
  5  6  2  0
  5  7  1  0
  7  8  1  0
  8  9  1  0
  9 10  2  0
 10 11  1  0
 11 12  2  0
 12 13  1  0
 13 14  1  0
 14 15  2  0
 14 16  1  0
 16 17  1  0
 17 18  2  0
 18 19  1  0
 19 20  2  0
 20 21  1  0
 21 22  1  0
 22 23  1  0
 23 24  1  0
 24 25  1  0
 25 26  1  0
 20 27  1  0
 27 28  2  0
 13 29  2  0
  4 30  2  0
 30 31  1  0
 31 32  2  0
 32 33  1  0
 32  2  1  0
 29  9  1  0
 28 17  1  0
 26 21  1  0
  1 34  1  0
  1 35  1  0
  1 36  1  0
  3 37  1  0
  7 38  1  0
  8 39  1  0
  8 40  1  0
 10 41  1  0
 11 42  1  0
 12 43  1  0
 18 44  1  0
 19 45  1  0
 22 46  1  0
 22 47  1  0
 23 48  1  0
 23 49  1  0
 24 50  1  0
 25 51  1  0
 25 52  1  0
 26 53  1  0
 26 54  1  0
 27 55  1  0
 28 56  1  0
 29 57  1  0
 30 58  1  0
 31 59  1  0
M  CHG  2  16  -1  33  -1
M  END
>  <UniqueID>  (10) 
9

>  <SMILES>  (10) 
Cc1cc(C(=O)NCc2cccc(C(=O)[N-]c3ccc(N4CCNCC4)cc3)c2)ccc1[O-]

>  <Energy>  (10) 
75.90011168412454

>  <Genealogy>  (10) 
Cc1cc(C(=O)NCc2cccc(C(=O)[N-]c3ccc(N4CCNCC4)cc3)c2)ccc1[O-] (protonated)
Cc1cc(C(=O)NCc2cccc(C(=O)[N-]c3ccc(N4CCNCC4)cc3)c2)ccc1[O-] (3D coordinates assigned)
Cc1cc(C(=O)NCc2cccc(C(=O)[N-]c3ccc(N4CCNCC4)cc3)c2)ccc1[O-] (nonaromatic ring conformer: 75.90011168412454 kcal/mol)

>  <smiles>  (10) 
Cc1cc(C(=O)NCc2cccc(C(=O)Nc3ccc(N4CCNCC4)cc3)c2)ccc1O

>  <score_type>  (10) 
oracle

>  <origin>  (10) 
adgpu

>  <m_score__min__energy>  (10) 
-12.24

>  <m_primary>  (10) 
energy

$$$$
10:0
     RDKit          3D

 47 50  0  0  0  0  0  0  0  0999 V2000
   -3.1260   21.3900  -27.7710 C   0  0  0  0  0  0  0  0  0  0  0  0
   -3.2870   22.6110  -28.6330 C   0  0  0  0  0  0  0  0  0  0  0  0
   -3.8740   22.6730  -29.8860 C   0  0  0  0  0  0  0  0  0  0  0  0
   -4.4940   21.5470  -30.6640 C   0  0  0  0  0  0  0  0  0  0  0  0
   -3.5100   20.9910  -31.6700 C   0  0  0  0  0  0  0  0  0  0  0  0
   -2.1740   20.8040  -31.2660 C   0  0  0  0  0  0  0  0  0  0  0  0
   -1.2380   20.2340  -32.1300 C   0  0  0  0  0  0  0  0  0  0  0  0
   -1.6190   19.8460  -33.4120 C   0  0  0  0  0  0  0  0  0  0  0  0
   -2.9330   20.0350  -33.8390 C   0  0  0  0  0  0  0  0  0  0  0  0
   -3.8930   20.6080  -32.9820 C   0  0  0  0  0  0  0  0  0  0  0  0
   -5.2290   20.8390  -33.4670 N   0  0  0  0  0  0  0  0  0  0  0  0
   -6.3870   20.1960  -32.9050 C   0  0  0  0  0  0  0  0  0  0  0  0
   -7.3580   20.9390  -32.1970 C   0  0  0  0  0  0  0  0  0  0  0  0
   -7.2410   22.6850  -32.0160 Cl  0  0  0  0  0  0  0  0  0  0  0  0
   -8.4780   20.2920  -31.6600 C   0  0  0  0  0  0  0  0  0  0  0  0
   -8.6460   18.9180  -31.8270 C   0  0  0  0  0  0  0  0  0  0  0  0
   -7.7010   18.1790  -32.5400 C   0  0  0  0  0  0  0  0  0  0  0  0
   -6.5760   18.8100  -33.0840 C   0  0  0  0  0  0  0  0  0  0  0  0
   -5.4000   17.8300  -33.9500 Cl  0  0  0  0  0  0  0  0  0  0  0  0
   -3.8630   23.9480  -30.3260 N   0  0  0  0  0  0  0  0  0  0  0  0
   -3.2540   24.6400  -29.3410 C   0  0  0  0  0  0  0  0  0  0  0  0
   -2.8790   23.8570  -28.3070 N   0  0  0  0  0  0  0  0  0  0  0  0
   -2.1920   24.2980  -27.1230 C   0  0  0  0  0  0  0  0  0  0  0  0
   -1.0030   23.6720  -26.7070 C   0  0  0  0  0  0  0  0  0  0  0  0
   -0.3370   24.1150  -25.5600 C   0  0  0  0  0  0  0  0  0  0  0  0
   -0.8400   25.1940  -24.8290 C   0  0  0  0  0  0  0  0  0  0  0  0
   -0.1910   25.6220  -23.7190 F   0  0  0  0  0  0  0  0  0  0  0  0
   -2.0100   25.8340  -25.2450 C   0  0  0  0  0  0  0  0  0  0  0  0
   -2.6810   25.3940  -26.3920 C   0  0  0  0  0  0  0  0  0  0  0  0
   -3.1645   21.6818  -26.7111 H   0  0  0  0  0  0  0  0  0  0  0  0
   -3.9383   20.6800  -27.9856 H   0  0  0  0  0  0  0  0  0  0  0  0
   -2.1574   20.9148  -27.9856 H   0  0  0  0  0  0  0  0  0  0  0  0
   -4.7912   20.7478  -29.9690 H   0  0  0  0  0  0  0  0  0  0  0  0
   -5.3739   21.9295  -31.2020 H   0  0  0  0  0  0  0  0  0  0  0  0
   -1.8642   21.1112  -30.2562 H   0  0  0  0  0  0  0  0  0  0  0  0
   -0.1990   20.0912  -31.7983 H   0  0  0  0  0  0  0  0  0  0  0  0
   -0.8820   19.3895  -34.0892 H   0  0  0  0  0  0  0  0  0  0  0  0
   -3.2231   19.7333  -34.8563 H   0  0  0  0  0  0  0  0  0  0  0  0
   -5.3400   21.3130  -34.3900 H   0  0  0  0  0  0  0  0  0  0  0  0
   -9.2294   20.8711  -31.1033 H   0  0  0  0  0  0  0  0  0  0  0  0
   -9.5247   18.4158  -31.3961 H   0  0  0  0  0  0  0  0  0  0  0  0
   -7.8407   17.0963  -32.6751 H   0  0  0  0  0  0  0  0  0  0  0  0
   -3.0815   25.7258  -29.3765 H   0  0  0  0  0  0  0  0  0  0  0  0
   -0.5954   22.8305  -27.2864 H   0  0  0  0  0  0  0  0  0  0  0  0
    0.5852   23.6127  -25.2325 H   0  0  0  0  0  0  0  0  0  0  0  0
   -2.4046   26.6850  -24.6704 H   0  0  0  0  0  0  0  0  0  0  0  0
   -3.5953   25.9085  -26.7226 H   0  0  0  0  0  0  0  0  0  0  0  0
  1  2  1  0
  2  3  2  0
  3  4  1  0
  4  5  1  0
  5  6  2  0
  6  7  1  0
  7  8  2  0
  8  9  1  0
  9 10  2  0
 10 11  1  0
 11 12  1  0
 12 13  2  0
 13 14  1  0
 13 15  1  0
 15 16  2  0
 16 17  1  0
 17 18  2  0
 18 19  1  0
  3 20  1  0
 20 21  2  0
 21 22  1  0
 22 23  1  0
 23 24  2  0
 24 25  1  0
 25 26  2  0
 26 27  1  0
 26 28  1  0
 28 29  2  0
 22  2  1  0
 29 23  1  0
 10  5  1  0
 18 12  1  0
  1 30  1  0
  1 31  1  0
  1 32  1  0
  4 33  1  0
  4 34  1  0
  6 35  1  0
  7 36  1  0
  8 37  1  0
  9 38  1  0
 11 39  1  0
 15 40  1  0
 16 41  1  0
 17 42  1  0
 21 43  1  0
 24 44  1  0
 25 45  1  0
 28 46  1  0
 29 47  1  0
M  END
>  <UniqueID>  (11) 
10

>  <SMILES>  (11) 
Cc1c(Cc2ccccc2Nc2c(Cl)cccc2Cl)ncn1-c1ccc(F)cc1

>  <Energy>  (11) 
96.019854055091

>  <Genealogy>  (11) 
Cc1c(Cc2ccccc2Nc2c(Cl)cccc2Cl)ncn1-c1ccc(F)cc1 (3D coordinates assigned)
Cc1c(Cc2ccccc2Nc2c(Cl)cccc2Cl)ncn1-c1ccc(F)cc1 (optimized conformer: 96.019854055091 kcal/mol)

>  <smiles>  (11) 
Cc1c(Cc2ccccc2Nc2c(Cl)cccc2Cl)ncn1-c1ccc(F)cc1

>  <score_type>  (11) 
oracle

>  <origin>  (11) 
adgpu

>  <m_score__min__energy>  (11) 
-9.5199999999999996

>  <m_primary>  (11) 
energy

$$$$
11:0
     RDKit          3D

 32 34  0  0  0  0  0  0  0  0999 V2000
   -5.3490   23.6180  -32.0120 O   0  0  0  0  0  0  0  0  0  0  0  0
   -5.2870   23.3360  -30.7860 C   0  0  0  0  0  0  0  0  0  0  0  0
   -6.2610   22.4650  -30.1890 N   0  0  0  0  0  0  0  0  0  0  0  0
   -7.1740   21.6460  -30.9410 C   0  0  0  0  0  0  0  0  0  0  0  0
   -8.5310   22.0020  -30.9970 C   0  0  0  0  0  0  0  0  0  0  0  0
   -9.4420   21.2100  -31.7030 C   0  0  0  0  0  0  0  0  0  0  0  0
   -9.0090   20.0470  -32.3460 C   0  0  0  0  0  0  0  0  0  0  0  0
   -7.6630   19.6700  -32.2760 C   0  0  0  0  0  0  0  0  0  0  0  0
   -7.1250   18.1970  -33.0630 Cl  0  0  0  0  0  0  0  0  0  0  0  0
   -6.7490   20.4610  -31.5710 C   0  0  0  0  0  0  0  0  0  0  0  0
   -4.2300   23.9410  -29.9590 C   0  0  0  0  0  0  0  0  0  0  0  0
   -3.8400   23.5190  -28.7040 C   0  0  0  0  0  0  0  0  0  0  0  0
   -2.8340   24.4020  -28.3510 C   0  0  0  0  0  0  0  0  0  0  0  0
   -2.0530   24.4110  -27.0900 C   0  0  0  0  0  0  0  0  0  0  0  0
   -1.2800   23.2900  -26.7340 C   0  0  0  0  0  0  0  0  0  0  0  0
   -0.5390   23.2850  -25.5480 C   0  0  0  0  0  0  0  0  0  0  0  0
   -0.5610   24.3970  -24.7050 C   0  0  0  0  0  0  0  0  0  0  0  0
   -1.3230   25.5170  -25.0450 C   0  0  0  0  0  0  0  0  0  0  0  0
   -2.0660   25.5260  -26.2290 C   0  0  0  0  0  0  0  0  0  0  0  0
   -2.6500   25.2900  -29.3510 N   0  0  0  0  0  0  0  0  0  0  0  0
   -3.5000   25.0100  -30.3270 N   0  0  0  0  0  0  0  0  0  0  0  0
   -6.3760   22.4930  -29.1500 H   0  0  0  0  0  0  0  0  0  0  0  0
   -8.8797   22.9095  -30.4824 H   0  0  0  0  0  0  0  0  0  0  0  0
  -10.5012   21.5028  -31.7524 H   0  0  0  0  0  0  0  0  0  0  0  0
   -9.7255   19.4286  -32.9066 H   0  0  0  0  0  0  0  0  0  0  0  0
   -5.6941   20.1556  -31.5088 H   0  0  0  0  0  0  0  0  0  0  0  0
   -4.2369   22.6759  -28.1195 H   0  0  0  0  0  0  0  0  0  0  0  0
   -1.2585   22.4104  -27.3942 H   0  0  0  0  0  0  0  0  0  0  0  0
    0.0618   22.4036  -25.2793 H   0  0  0  0  0  0  0  0  0  0  0  0
    0.0221   24.3914  -23.7723 H   0  0  0  0  0  0  0  0  0  0  0  0
   -1.3385   26.3932  -24.3802 H   0  0  0  0  0  0  0  0  0  0  0  0
   -2.6654   26.4105  -26.4905 H   0  0  0  0  0  0  0  0  0  0  0  0
  1  2  2  0
  2  3  1  0
  3  4  1  0
  4  5  2  0
  5  6  1  0
  6  7  2  0
  7  8  1  0
  8  9  1  0
  8 10  2  0
  2 11  1  0
 11 12  1  0
 12 13  2  0
 13 14  1  0
 14 15  2  0
 15 16  1  0
 16 17  2  0
 17 18  1  0
 18 19  2  0
 13 20  1  0
 20 21  1  0
 10  4  1  0
 21 11  2  0
 19 14  1  0
  3 22  1  0
  5 23  1  0
  6 24  1  0
  7 25  1  0
 10 26  1  0
 12 27  1  0
 15 28  1  0
 16 29  1  0
 17 30  1  0
 18 31  1  0
 19 32  1  0
M  CHG  1  20  -1
M  END
>  <UniqueID>  (12) 
11

>  <SMILES>  (12) 
O=C(Nc1cccc(Cl)c1)c1cc(-c2ccccc2)[n-]n1

>  <Energy>  (12) 
68.30706627505836

>  <Genealogy>  (12) 
O=C(Nc1cccc(Cl)c1)c1cc(-c2ccccc2)[n-]n1 (protonated)
O=C(Nc1cccc(Cl)c1)c1cc(-c2ccccc2)[n-]n1 (3D coordinates assigned)
O=C(Nc1cccc(Cl)c1)c1cc(-c2ccccc2)[n-]n1 (optimized conformer: 68.30706627505836 kcal/mol)

>  <smiles>  (12) 
O=C(Nc1cccc(Cl)c1)c1cc(-c2ccccc2)[nH]n1

>  <score_type>  (12) 
oracle

>  <origin>  (12) 
adgpu

>  <m_score__min__energy>  (12) 
-10.32

>  <m_primary>  (12) 
energy

$$$$
12:0
     RDKit          3D

 44 46  0  0  0  0  0  0  0  0999 V2000
   -5.1458   22.8239  -27.4086 H   0  0  0  0  0  0  0  0  0  0  0  0
   -4.5930   23.1860  -28.2880 C   0  0  0  0  0  0  0  0  0  0  0  0
   -5.3020   23.5320  -29.3710 C   0  0  0  0  0  0  0  0  0  0  0  0
   -6.3916   23.3845  -29.3398 H   0  0  0  0  0  0  0  0  0  0  0  0
   -4.6050   24.2080  -30.8430 S   0  0  0  0  0  0  0  0  0  0  0  0
   -4.3420   25.6730  -30.6380 O   0  0  0  0  0  0  0  0  0  0  0  0
   -5.5780   24.0240  -31.9740 O   0  0  0  0  0  0  0  0  0  0  0  0
   -3.1090   23.4070  -31.2000 N   0  0  0  0  0  0  0  0  0  0  0  0
   -2.9940   22.0850  -31.7340 C   0  0  0  0  0  0  0  0  0  0  0  0
   -1.9090   21.2500  -31.4220 C   0  0  0  0  0  0  0  0  0  0  0  0
   -1.1168   21.6072  -30.7476 H   0  0  0  0  0  0  0  0  0  0  0  0
   -1.8350   19.9670  -31.9670 C   0  0  0  0  0  0  0  0  0  0  0  0
   -0.9843   19.3146  -31.7206 H   0  0  0  0  0  0  0  0  0  0  0  0
   -2.8390   19.5090  -32.8250 C   0  0  0  0  0  0  0  0  0  0  0  0
   -2.7731   18.4973  -33.2516 H   0  0  0  0  0  0  0  0  0  0  0  0
   -3.9270   20.3280  -33.1450 C   0  0  0  0  0  0  0  0  0  0  0  0
   -4.9040   19.8250  -34.0200 O   0  0  0  0  0  0  0  0  0  0  0  0
   -5.8790   18.8350  -33.6870 C   0  0  0  0  0  0  0  0  0  0  0  0
   -6.2731   18.3927  -34.6139 H   0  0  0  0  0  0  0  0  0  0  0  0
   -5.3975   18.0654  -33.0658 H   0  0  0  0  0  0  0  0  0  0  0  0
   -7.0180   19.4370  -32.9060 C   0  0  0  0  0  0  0  0  0  0  0  0
   -7.0820   20.8260  -32.7060 C   0  0  0  0  0  0  0  0  0  0  0  0
   -6.3022   21.4771  -33.1280 H   0  0  0  0  0  0  0  0  0  0  0  0
   -8.1340   21.3840  -31.9720 C   0  0  0  0  0  0  0  0  0  0  0  0
   -8.1837   22.4729  -31.8243 H   0  0  0  0  0  0  0  0  0  0  0  0
   -9.1220   20.5600  -31.4260 C   0  0  0  0  0  0  0  0  0  0  0  0
   -9.9516   21.0009  -30.8538 H   0  0  0  0  0  0  0  0  0  0  0  0
   -9.0560   19.1760  -31.6070 C   0  0  0  0  0  0  0  0  0  0  0  0
   -9.8314   18.5278  -31.1728 H   0  0  0  0  0  0  0  0  0  0  0  0
   -8.0060   18.6140  -32.3390 C   0  0  0  0  0  0  0  0  0  0  0  0
   -7.9529   17.5233  -32.4717 H   0  0  0  0  0  0  0  0  0  0  0  0
   -4.0010   21.6190  -32.5870 C   0  0  0  0  0  0  0  0  0  0  0  0
   -4.8579   22.2668  -32.8237 H   0  0  0  0  0  0  0  0  0  0  0  0
   -3.1210   23.2570  -28.1930 C   0  0  0  0  0  0  0  0  0  0  0  0
   -2.4890   24.5090  -28.2190 C   0  0  0  0  0  0  0  0  0  0  0  0
   -3.0920   25.4257  -28.2971 H   0  0  0  0  0  0  0  0  0  0  0  0
   -1.0960   24.5960  -28.1460 C   0  0  0  0  0  0  0  0  0  0  0  0
   -0.6046   25.5795  -28.1814 H   0  0  0  0  0  0  0  0  0  0  0  0
   -0.3260   23.4350  -28.0280 C   0  0  0  0  0  0  0  0  0  0  0  0
    0.7708   23.5047  -27.9816 H   0  0  0  0  0  0  0  0  0  0  0  0
   -0.9500   22.1860  -27.9690 C   0  0  0  0  0  0  0  0  0  0  0  0
   -0.3443   21.2734  -27.8674 H   0  0  0  0  0  0  0  0  0  0  0  0
   -2.3450   22.0950  -28.0390 C   0  0  0  0  0  0  0  0  0  0  0  0
   -2.8350   21.1124  -27.9734 H   0  0  0  0  0  0  0  0  0  0  0  0
  1  2  1  0
  2  3  2  0
  3  4  1  0
  3  5  1  0
  5  6  2  0
  5  7  2  0
  5  8  1  0
  8  9  1  0
  9 10  2  0
 10 11  1  0
 10 12  1  0
 12 13  1  0
 12 14  2  0
 14 15  1  0
 14 16  1  0
 16 17  1  0
 17 18  1  0
 18 19  1  0
 18 20  1  0
 18 21  1  0
 21 22  2  0
 22 23  1  0
 22 24  1  0
 24 25  1  0
 24 26  2  0
 26 27  1  0
 26 28  1  0
 28 29  1  0
 28 30  2  0
 30 31  1  0
 16 32  2  0
 32 33  1  0
  2 34  1  0
 34 35  2  0
 35 36  1  0
 35 37  1  0
 37 38  1  0
 37 39  2  0
 39 40  1  0
 39 41  1  0
 41 42  1  0
 41 43  2  0
 43 44  1  0
 32  9  1  0
 43 34  1  0
 30 21  1  0
M  CHG  1   8  -1
M  END
>  <UniqueID>  (13) 
12

>  <SMILES>  (13) 
O=S(=O)(/C=C\c1ccccc1)[N-]c1cccc(OCc2ccccc2)c1

>  <Energy>  (13) 
53.961993186420536

>  <Genealogy>  (13) 
O=S(=O)(C=Cc1ccccc1)[N-]c1cccc(OCc2ccccc2)c1 (protonated)
O=S(=O)(/C=C\c1ccccc1)[N-]c1cccc(OCc2ccccc2)c1 (cis-trans isomerization)
O=S(=O)(/C=C\c1ccccc1)[N-]c1cccc(OCc2ccccc2)c1 (3D coordinates assigned)
O=S(=O)(/C=C\c1ccccc1)[N-]c1cccc(OCc2ccccc2)c1 (optimized conformer: 53.961993186420536 kcal/mol)

>  <smiles>  (13) 
O=S(=O)(C=Cc1ccccc1)Nc1cccc(OCc2ccccc2)c1

>  <score_type>  (13) 
oracle

>  <origin>  (13) 
adgpu

>  <m_score__min__energy>  (13) 
-10.33

>  <m_primary>  (13) 
energy

$$$$
13:0
     RDKit          3D

 30 31  0  0  0  0  0  0  0  0999 V2000
   -4.4910   19.9740  -33.6190 N   0  0  0  0  0  0  0  0  0  0  0  0
   -3.8410   20.4530  -32.7910 C   0  0  0  0  0  0  0  0  0  0  0  0
   -3.0330   21.0520  -31.7610 C   0  0  0  0  0  0  0  0  0  0  0  0
   -1.9190   20.3690  -31.2610 C   0  0  0  0  0  0  0  0  0  0  0  0
   -1.1350   20.9470  -30.2610 C   0  0  0  0  0  0  0  0  0  0  0  0
   -1.4540   22.2120  -29.7520 C   0  0  0  0  0  0  0  0  0  0  0  0
   -0.4260   22.8870  -28.4920 Cl  0  0  0  0  0  0  0  0  0  0  0  0
   -2.5760   22.9070  -30.2520 C   0  0  0  0  0  0  0  0  0  0  0  0
   -3.0090   24.5020  -29.6300 S   0  0  0  0  0  0  0  0  0  0  0  0
   -3.8130   24.3330  -28.3710 O   0  0  0  0  0  0  0  0  0  0  0  0
   -1.7700   25.2920  -29.3130 O   0  0  0  0  0  0  0  0  0  0  0  0
   -3.9280   25.3450  -30.8440 N   0  0  0  0  0  0  0  0  0  0  0  0
   -5.3220   25.5030  -30.4290 C   0  0  0  0  0  0  0  0  0  0  0  0
   -6.1170   24.2700  -30.7700 C   0  0  0  0  0  0  0  0  0  0  0  0
   -6.8370   23.5860  -29.7770 C   0  0  0  0  0  0  0  0  0  0  0  0
   -7.5670   22.4380  -30.1020 C   0  0  0  0  0  0  0  0  0  0  0  0
   -7.5850   21.9680  -31.4180 C   0  0  0  0  0  0  0  0  0  0  0  0
   -6.8770   22.6470  -32.4120 C   0  0  0  0  0  0  0  0  0  0  0  0
   -6.1470   23.7960  -32.0920 C   0  0  0  0  0  0  0  0  0  0  0  0
   -3.3600   22.3170  -31.2570 C   0  0  0  0  0  0  0  0  0  0  0  0
   -1.6607   19.3755  -31.6563 H   0  0  0  0  0  0  0  0  0  0  0  0
   -0.2610   20.4053  -29.8703 H   0  0  0  0  0  0  0  0  0  0  0  0
   -5.3596   25.6688  -29.3422 H   0  0  0  0  0  0  0  0  0  0  0  0
   -5.7556   26.3637  -30.9592 H   0  0  0  0  0  0  0  0  0  0  0  0
   -6.8268   23.9542  -28.7405 H   0  0  0  0  0  0  0  0  0  0  0  0
   -8.1278   21.9043  -29.3205 H   0  0  0  0  0  0  0  0  0  0  0  0
   -8.1569   21.0631  -31.6709 H   0  0  0  0  0  0  0  0  0  0  0  0
   -6.8936   22.2775  -33.4480 H   0  0  0  0  0  0  0  0  0  0  0  0
   -5.5942   24.3307  -32.8785 H   0  0  0  0  0  0  0  0  0  0  0  0
   -4.2367   22.8521  -31.6508 H   0  0  0  0  0  0  0  0  0  0  0  0
  1  2  3  0
  2  3  1  0
  3  4  2  0
  4  5  1  0
  5  6  2  0
  6  7  1  0
  6  8  1  0
  8  9  1  0
  9 10  2  0
  9 11  2  0
  9 12  1  0
 12 13  1  0
 13 14  1  0
 14 15  2  0
 15 16  1  0
 16 17  2  0
 17 18  1  0
 18 19  2  0
  8 20  2  0
 20  3  1  0
 19 14  1  0
  4 21  1  0
  5 22  1  0
 13 23  1  0
 13 24  1  0
 15 25  1  0
 16 26  1  0
 17 27  1  0
 18 28  1  0
 19 29  1  0
 20 30  1  0
M  CHG  1  12  -1
M  END
>  <UniqueID>  (14) 
13

>  <SMILES>  (14) 
N#Cc1ccc(Cl)c(S(=O)(=O)[N-]Cc2ccccc2)c1

>  <Energy>  (14) 
30.183592463763762

>  <Genealogy>  (14) 
N#Cc1ccc(Cl)c(S(=O)(=O)[N-]Cc2ccccc2)c1 (protonated)
N#Cc1ccc(Cl)c(S(=O)(=O)[N-]Cc2ccccc2)c1 (3D coordinates assigned)
N#Cc1ccc(Cl)c(S(=O)(=O)[N-]Cc2ccccc2)c1 (optimized conformer: 30.183592463763762 kcal/mol)

>  <smiles>  (14) 
N#Cc1ccc(Cl)c(S(=O)(=O)NCc2ccccc2)c1

>  <score_type>  (14) 
oracle

>  <origin>  (14) 
adgpu

>  <m_score__min__energy>  (14) 
-8.9700000000000006

>  <m_primary>  (14) 
energy

$$$$
14:0
     RDKit          3D

 54 57  0  0  0  0  0  0  0  0999 V2000
   -8.8310   21.9290  -30.2930 O   0  0  0  0  0  0  0  0  0  0  0  0
   -7.8480   21.7920  -31.0690 C   0  0  0  0  0  0  0  0  0  0  0  0
   -6.9850   22.7870  -31.3790 N   0  0  0  0  0  0  0  0  0  0  0  0
   -7.0070   24.1790  -30.9180 C   0  0  0  0  0  0  0  0  0  0  0  0
   -6.0720   24.3890  -29.7160 C   0  0  0  0  0  0  0  0  0  0  0  0
   -4.5740   24.2690  -30.0510 C   0  0  0  0  0  0  0  0  0  0  0  0
   -3.7720   24.0610  -28.8200 N   0  0  0  0  0  0  0  0  0  0  0  0
   -2.3450   24.4380  -28.9860 C   0  0  0  0  0  0  0  0  0  0  0  0
   -1.4310   23.2560  -29.3760 C   0  0  0  0  0  0  0  0  0  0  0  0
   -2.2120   22.1810  -29.9940 N   0  0  0  0  0  0  0  0  0  0  0  0
   -1.8500   21.6350  -31.2770 C   0  0  0  0  0  0  0  0  0  0  0  0
   -0.4980   21.5360  -31.6530 C   0  0  0  0  0  0  0  0  0  0  0  0
   -0.1460   20.9960  -32.8940 C   0  0  0  0  0  0  0  0  0  0  0  0
   -1.1370   20.5440  -33.7680 C   0  0  0  0  0  0  0  0  0  0  0  0
   -0.7940   20.0220  -34.9710 F   0  0  0  0  0  0  0  0  0  0  0  0
   -2.4830   20.6270  -33.4000 C   0  0  0  0  0  0  0  0  0  0  0  0
   -2.8400   21.1660  -32.1610 C   0  0  0  0  0  0  0  0  0  0  0  0
   -3.3540   21.6380  -29.2500 C   0  0  0  0  0  0  0  0  0  0  0  0
   -3.9150   22.6910  -28.2770 C   0  0  0  0  0  0  0  0  0  0  0  0
   -6.0930   22.2150  -32.2180 C   0  0  0  0  0  0  0  0  0  0  0  0
   -4.9920   22.8710  -32.7630 O   0  0  0  0  0  0  0  0  0  0  0  0
   -6.4480   20.8960  -32.4240 C   0  0  0  0  0  0  0  0  0  0  0  0
   -7.5350   20.6290  -31.6760 N   0  0  0  0  0  0  0  0  0  0  0  0
   -8.2720   19.3660  -31.6610 C   0  0  0  0  0  0  0  0  0  0  0  0
   -7.3900   18.2240  -32.1890 C   0  0  0  0  0  0  0  0  0  0  0  0
   -6.6520   18.6460  -33.4730 C   0  0  0  0  0  0  0  0  0  0  0  0
   -5.7290   19.8520  -33.2230 C   0  0  0  0  0  0  0  0  0  0  0  0
   -6.6836   24.8333  -31.7410 H   0  0  0  0  0  0  0  0  0  0  0  0
   -8.0328   24.4226  -30.6042 H   0  0  0  0  0  0  0  0  0  0  0  0
   -6.2546   25.3944  -29.3088 H   0  0  0  0  0  0  0  0  0  0  0  0
   -6.2992   23.5889  -28.9961 H   0  0  0  0  0  0  0  0  0  0  0  0
   -4.4234   23.4150  -30.7277 H   0  0  0  0  0  0  0  0  0  0  0  0
   -4.2451   25.2022  -30.5317 H   0  0  0  0  0  0  0  0  0  0  0  0
   -2.2775   25.2034  -29.7732 H   0  0  0  0  0  0  0  0  0  0  0  0
   -1.9947   24.8064  -28.0105 H   0  0  0  0  0  0  0  0  0  0  0  0
   -0.6712   23.6070  -30.0898 H   0  0  0  0  0  0  0  0  0  0  0  0
   -0.9488   22.8662  -28.4674 H   0  0  0  0  0  0  0  0  0  0  0  0
    0.2872   21.8856  -30.9665 H   0  0  0  0  0  0  0  0  0  0  0  0
    0.9133   20.9271  -33.1823 H   0  0  0  0  0  0  0  0  0  0  0  0
   -3.2630   20.2673  -34.0872 H   0  0  0  0  0  0  0  0  0  0  0  0
   -3.9006   21.2241  -31.8750 H   0  0  0  0  0  0  0  0  0  0  0  0
   -4.1418   21.3450  -29.9596 H   0  0  0  0  0  0  0  0  0  0  0  0
   -3.0186   20.7638  -28.6727 H   0  0  0  0  0  0  0  0  0  0  0  0
   -4.9814   22.4848  -28.1029 H   0  0  0  0  0  0  0  0  0  0  0  0
   -3.3465   22.6307  -27.3373 H   0  0  0  0  0  0  0  0  0  0  0  0
   -4.9150   23.0270  -33.7590 H   0  0  0  0  0  0  0  0  0  0  0  0
   -8.5803   19.1386  -30.6298 H   0  0  0  0  0  0  0  0  0  0  0  0
   -9.1565   19.4617  -32.3080 H   0  0  0  0  0  0  0  0  0  0  0  0
   -6.6502   17.9558  -31.4204 H   0  0  0  0  0  0  0  0  0  0  0  0
   -8.0334   17.3626  -32.4213 H   0  0  0  0  0  0  0  0  0  0  0  0
   -6.0463   17.8006  -33.8313 H   0  0  0  0  0  0  0  0  0  0  0  0
   -7.4027   18.9357  -34.2230 H   0  0  0  0  0  0  0  0  0  0  0  0
   -4.8386   19.5196  -32.6692 H   0  0  0  0  0  0  0  0  0  0  0  0
   -5.4302   20.2823  -34.1902 H   0  0  0  0  0  0  0  0  0  0  0  0
  1  2  2  0
  2  3  1  0
  3  4  1  0
  4  5  1  0
  5  6  1  0
  6  7  1  0
  7  8  1  0
  8  9  1  0
  9 10  1  0
 10 11  1  0
 11 12  2  0
 12 13  1  0
 13 14  2  0
 14 15  1  0
 14 16  1  0
 16 17  2  0
 10 18  1  0
 18 19  1  0
  3 20  1  0
 20 21  1  0
 20 22  2  0
 22 23  1  0
 23 24  1  0
 24 25  1  0
 25 26  1  0
 26 27  1  0
 23  2  1  0
 19  7  1  0
 27 22  1  0
 17 11  1  0
  4 28  1  0
  4 29  1  0
  5 30  1  0
  5 31  1  0
  6 32  1  0
  6 33  1  0
  8 34  1  0
  8 35  1  0
  9 36  1  0
  9 37  1  0
 12 38  1  0
 13 39  1  0
 16 40  1  0
 17 41  1  0
 18 42  1  0
 18 43  1  0
 19 44  1  0
 19 45  1  0
 21 46  1  0
 24 47  1  0
 24 48  1  0
 25 49  1  0
 25 50  1  0
 26 51  1  0
 26 52  1  0
 27 53  1  0
 27 54  1  0
M  END
>  <UniqueID>  (15) 
14

>  <SMILES>  (15) 
O=c1n(CCCN2CCN(c3ccc(F)cc3)CC2)c(O)c2n1CCCC2

>  <Energy>  (15) 
97.84840077305977

>  <Genealogy>  (15) 
O=c1n(CCCN2CCN(c3ccc(F)cc3)CC2)c(O)c2n1CCCC2 (3D coordinates assigned)
O=c1n(CCCN2CCN(c3ccc(F)cc3)CC2)c(O)c2n1CCCC2 (nonaromatic ring conformer: 97.84840077305977 kcal/mol)

>  <smiles>  (15) 
O=c1n(CCCN2CCN(c3ccc(F)cc3)CC2)c(O)c2n1CCCC2

>  <score_type>  (15) 
oracle

>  <origin>  (15) 
adgpu

>  <m_score__min__energy>  (15) 
-8.8499999999999996

>  <m_primary>  (15) 
energy

$$$$
15:0
     RDKit          3D

 24 25  0  0  0  0  0  0  0  0999 V2000
   -9.1500   19.3220  -32.7460 N   0  0  0  0  0  0  0  0  0  0  0  0
   -8.3210   20.4470  -32.4430 C   0  0  0  0  0  0  0  0  0  0  0  0
   -8.8330   21.5210  -31.7000 C   0  0  0  0  0  0  0  0  0  0  0  0
   -8.0230   22.6200  -31.4030 C   0  0  0  0  0  0  0  0  0  0  0  0
   -6.6850   22.6530  -31.8370 C   0  0  0  0  0  0  0  0  0  0  0  0
   -5.8460   23.7470  -31.5740 O   0  0  0  0  0  0  0  0  0  0  0  0
   -4.9920   23.8690  -30.4680 C   0  0  0  0  0  0  0  0  0  0  0  0
   -5.2810   23.1480  -29.3040 C   0  0  0  0  0  0  0  0  0  0  0  0
   -4.4810   23.2600  -28.2100 N   0  0  0  0  0  0  0  0  0  0  0  0
   -3.3910   24.0720  -28.2010 C   0  0  0  0  0  0  0  0  0  0  0  0
   -3.0740   24.8280  -29.3330 C   0  0  0  0  0  0  0  0  0  0  0  0
   -1.9710   25.6710  -29.3260 O   0  0  0  0  0  0  0  0  0  0  0  0
   -3.8810   24.7300  -30.4700 C   0  0  0  0  0  0  0  0  0  0  0  0
   -6.1850   21.5890  -32.5950 C   0  0  0  0  0  0  0  0  0  0  0  0
   -6.9940   20.4880  -32.8920 C   0  0  0  0  0  0  0  0  0  0  0  0
   -9.6470   18.8030  -31.9880 H   0  0  0  0  0  0  0  0  0  0  0  0
   -9.2720   18.9990  -33.7320 H   0  0  0  0  0  0  0  0  0  0  0  0
   -9.8756   21.4979  -31.3500 H   0  0  0  0  0  0  0  0  0  0  0  0
   -8.4330   23.4630  -30.8275 H   0  0  0  0  0  0  0  0  0  0  0  0
   -6.1599   22.4872  -29.2738 H   0  0  0  0  0  0  0  0  0  0  0  0
   -2.7586   24.1341  -27.3031 H   0  0  0  0  0  0  0  0  0  0  0  0
   -3.6471   25.3256  -31.3647 H   0  0  0  0  0  0  0  0  0  0  0  0
   -5.1478   21.6187  -32.9601 H   0  0  0  0  0  0  0  0  0  0  0  0
   -6.5878   19.6516  -33.4797 H   0  0  0  0  0  0  0  0  0  0  0  0
  1  2  1  0
  2  3  2  0
  3  4  1  0
  4  5  2  0
  5  6  1  0
  6  7  1  0
  7  8  2  0
  8  9  1  0
  9 10  2  0
 10 11  1  0
 11 12  1  0
 11 13  2  0
  5 14  1  0
 14 15  2  0
 15  2  1  0
 13  7  1  0
  1 16  1  0
  1 17  1  0
  3 18  1  0
  4 19  1  0
  8 20  1  0
 10 21  1  0
 13 22  1  0
 14 23  1  0
 15 24  1  0
M  CHG  1  12  -1
M  END
>  <UniqueID>  (16) 
15

>  <SMILES>  (16) 
Nc1ccc(Oc2cncc([O-])c2)cc1

>  <Energy>  (16) 
31.192131467983806

>  <Genealogy>  (16) 
Nc1ccc(Oc2cncc([O-])c2)cc1 (protonated)
Nc1ccc(Oc2cncc([O-])c2)cc1 (3D coordinates assigned)
Nc1ccc(Oc2cncc([O-])c2)cc1 (optimized conformer: 31.192131467983806 kcal/mol)

>  <smiles>  (16) 
Nc1ccc(Oc2cncc(O)c2)cc1

>  <score_type>  (16) 
oracle

>  <origin>  (16) 
adgpu

>  <m_score__min__energy>  (16) 
-8.4700000000000006

>  <m_primary>  (16) 
energy

$$$$
16:0
     RDKit          3D

 35 37  0  0  0  0  0  0  0  0999 V2000
   -2.3120   27.1980  -24.3310 H   0  0  0  0  0  0  0  0  0  0  0  0
   -1.5970   27.0310  -25.0750 N   0  0  0  0  0  0  0  0  0  0  0  0
   -1.7750   26.1560  -26.0130 C   0  0  0  0  0  0  0  0  0  0  0  0
   -0.8110   25.9820  -26.9550 N   0  0  0  0  0  0  0  0  0  0  0  0
   -0.9600   25.0750  -27.9540 C   0  0  0  0  0  0  0  0  0  0  0  0
   -0.1687   24.9548  -28.7086 H   0  0  0  0  0  0  0  0  0  0  0  0
   -2.1190   24.2920  -28.0260 C   0  0  0  0  0  0  0  0  0  0  0  0
   -2.3040   23.3040  -29.1170 C   0  0  0  0  0  0  0  0  0  0  0  0
   -1.7990   22.0010  -28.9560 C   0  0  0  0  0  0  0  0  0  0  0  0
   -1.2851   21.7263  -28.0230 H   0  0  0  0  0  0  0  0  0  0  0  0
   -1.9450   21.0540  -29.9710 C   0  0  0  0  0  0  0  0  0  0  0  0
   -1.5361   20.0413  -29.8397 H   0  0  0  0  0  0  0  0  0  0  0  0
   -2.6080   21.3890  -31.1510 C   0  0  0  0  0  0  0  0  0  0  0  0
   -2.7237   20.6397  -31.9480 H   0  0  0  0  0  0  0  0  0  0  0  0
   -3.1250   22.6740  -31.3220 C   0  0  0  0  0  0  0  0  0  0  0  0
   -3.6601   22.9281  -32.2489 H   0  0  0  0  0  0  0  0  0  0  0  0
   -2.9670   23.6480  -30.3170 C   0  0  0  0  0  0  0  0  0  0  0  0
   -3.5530   24.9520  -30.4640 N   0  0  0  0  0  0  0  0  0  0  0  0
   -4.9530   25.2500  -30.5420 C   0  0  0  0  0  0  0  0  0  0  0  0
   -5.3210   26.4480  -30.4170 O   0  0  0  0  0  0  0  0  0  0  0  0
   -5.9670   24.2030  -30.8150 C   0  0  0  0  0  0  0  0  0  0  0  0
   -6.6180   23.5580  -29.7490 C   0  0  0  0  0  0  0  0  0  0  0  0
   -6.3702   23.8295  -28.7123 H   0  0  0  0  0  0  0  0  0  0  0  0
   -7.5790   22.5730  -29.9990 C   0  0  0  0  0  0  0  0  0  0  0  0
   -8.0783   22.0674  -29.1593 H   0  0  0  0  0  0  0  0  0  0  0  0
   -7.9060   22.2300  -31.3140 C   0  0  0  0  0  0  0  0  0  0  0  0
   -8.6596   21.4528  -31.5091 H   0  0  0  0  0  0  0  0  0  0  0  0
   -7.2750   22.8750  -32.3800 C   0  0  0  0  0  0  0  0  0  0  0  0
   -7.5343   22.6062  -33.4146 H   0  0  0  0  0  0  0  0  0  0  0  0
   -6.3150   23.8610  -32.1360 C   0  0  0  0  0  0  0  0  0  0  0  0
   -5.8289   24.3724  -32.9799 H   0  0  0  0  0  0  0  0  0  0  0  0
   -3.1040   24.4930  -27.0500 C   0  0  0  0  0  0  0  0  0  0  0  0
   -4.0326   23.9041  -27.0798 H   0  0  0  0  0  0  0  0  0  0  0  0
   -2.9170   25.4130  -26.0660 N   0  0  0  0  0  0  0  0  0  0  0  0
   -3.6670   25.5440  -25.3500 H   0  0  0  0  0  0  0  0  0  0  0  0
  1  2  1  0
  2  3  2  0
  3  4  1  0
  4  5  2  0
  5  6  1  0
  5  7  1  0
  7  8  1  0
  8  9  2  0
  9 10  1  0
  9 11  1  0
 11 12  1  0
 11 13  2  0
 13 14  1  0
 13 15  1  0
 15 16  1  0
 15 17  2  0
 17 18  1  0
 18 19  1  0
 19 20  2  0
 19 21  1  0
 21 22  2  0
 22 23  1  0
 22 24  1  0
 24 25  1  0
 24 26  2  0
 26 27  1  0
 26 28  1  0
 28 29  1  0
 28 30  2  0
 30 31  1  0
  7 32  2  0
 32 33  1  0
 32 34  1  0
 34 35  1  0
 34  3  1  0
 17  8  1  0
 30 21  1  0
M  CHG  1  18  -1
M  END
>  <UniqueID>  (17) 
16

>  <SMILES>  (17) 
[H]/N=c1/ncc(-c2ccccc2[N-]C(=O)c2ccccc2)c[nH]1

>  <Energy>  (17) 
51.80906729651092

>  <Genealogy>  (17) 
N=c1ncc(-c2ccccc2[N-]C(=O)c2ccccc2)c[nH]1 (protonated)
[H]/N=c1/ncc(-c2ccccc2[N-]C(=O)c2ccccc2)c[nH]1 (cis-trans isomerization)
[H]/N=c1/ncc(-c2ccccc2[N-]C(=O)c2ccccc2)c[nH]1 (3D coordinates assigned)
[H]/N=c1/ncc(-c2ccccc2[N-]C(=O)c2ccccc2)c[nH]1 (optimized conformer: 51.80906729651092 kcal/mol)

>  <smiles>  (17) 
N=c1ncc(-c2ccccc2NC(=O)c2ccccc2)c[nH]1

>  <score_type>  (17) 
oracle

>  <origin>  (17) 
adgpu

>  <m_score__min__energy>  (17) 
-9.2100000000000009

>  <m_primary>  (17) 
energy

$$$$
17:0
     RDKit          3D

 24 26  0  0  0  0  0  0  0  0999 V2000
   -7.3040   18.6160  -32.2310 Cl  0  0  0  0  0  0  0  0  0  0  0  0
   -7.6160   20.3240  -31.9740 C   0  0  0  0  0  0  0  0  0  0  0  0
   -8.9050   20.8340  -32.1540 C   0  0  0  0  0  0  0  0  0  0  0  0
   -9.1540   22.1930  -31.9490 C   0  0  0  0  0  0  0  0  0  0  0  0
   -8.1160   23.0460  -31.5620 C   0  0  0  0  0  0  0  0  0  0  0  0
   -6.8150   22.5450  -31.3770 C   0  0  0  0  0  0  0  0  0  0  0  0
   -5.7150   23.4460  -30.9690 C   0  0  0  0  0  0  0  0  0  0  0  0
   -5.4230   24.6040  -31.5940 N   0  0  0  0  0  0  0  0  0  0  0  0
   -4.4110   25.0900  -30.9430 O   0  0  0  0  0  0  0  0  0  0  0  0
   -4.0880   24.2820  -29.9650 C   0  0  0  0  0  0  0  0  0  0  0  0
   -2.9900   24.5170  -29.0240 C   0  0  0  0  0  0  0  0  0  0  0  0
   -2.8730   23.9610  -27.7670 C   0  0  0  0  0  0  0  0  0  0  0  0
   -1.6960   24.4610  -27.2510 C   0  0  0  0  0  0  0  0  0  0  0  0
   -1.1710   25.2880  -28.2250 C   0  0  0  0  0  0  0  0  0  0  0  0
   -1.9660   25.3000  -29.2710 O   0  0  0  0  0  0  0  0  0  0  0  0
   -4.8910   23.2020  -29.9270 N   0  0  0  0  0  0  0  0  0  0  0  0
   -6.5740   21.1750  -31.5860 C   0  0  0  0  0  0  0  0  0  0  0  0
   -9.7236   20.1647  -32.4572 H   0  0  0  0  0  0  0  0  0  0  0  0
  -10.1687   22.5929  -32.0923 H   0  0  0  0  0  0  0  0  0  0  0  0
   -8.3181   24.1153  -31.4013 H   0  0  0  0  0  0  0  0  0  0  0  0
   -3.5715   23.2653  -27.2790 H   0  0  0  0  0  0  0  0  0  0  0  0
   -1.2627   24.2449  -26.2633 H   0  0  0  0  0  0  0  0  0  0  0  0
   -0.2301   25.8511  -28.1381 H   0  0  0  0  0  0  0  0  0  0  0  0
   -5.5612   20.7699  -31.4438 H   0  0  0  0  0  0  0  0  0  0  0  0
  1  2  1  0
  2  3  2  0
  3  4  1  0
  4  5  2  0
  5  6  1  0
  6  7  1  0
  7  8  2  0
  8  9  1  0
  9 10  1  0
 10 11  1  0
 11 12  2  0
 12 13  1  0
 13 14  2  0
 14 15  1  0
 10 16  2  0
  6 17  2  0
 17  2  1  0
 16  7  1  0
 15 11  1  0
  3 18  1  0
  4 19  1  0
  5 20  1  0
 12 21  1  0
 13 22  1  0
 14 23  1  0
 17 24  1  0
M  END
>  <UniqueID>  (18) 
17

>  <SMILES>  (18) 
Clc1cccc(-c2noc(-c3ccco3)n2)c1

>  <Energy>  (18) 
84.9258936300843

>  <Genealogy>  (18) 
Clc1cccc(-c2noc(-c3ccco3)n2)c1 (3D coordinates assigned)
Clc1cccc(-c2noc(-c3ccco3)n2)c1 (optimized conformer: 84.9258936300843 kcal/mol)

>  <smiles>  (18) 
Clc1cccc(-c2noc(-c3ccco3)n2)c1

>  <score_type>  (18) 
oracle

>  <origin>  (18) 
adgpu

>  <m_score__min__energy>  (18) 
-8.5899999999999999

>  <m_primary>  (18) 
energy

$$$$
18:0
     RDKit          3D

 35 37  0  0  0  0  0  0  0  0999 V2000
   -7.0531   24.3937  -32.2524 H   0  0  0  0  0  0  0  0  0  0  0  0
   -6.1270   24.2900  -31.6680 C   0  0  0  0  0  0  0  0  0  0  0  0
   -5.3360   25.5290  -30.8470 S   0  0  0  0  0  0  0  0  0  0  0  0
   -4.1150   24.5220  -30.3000 C   0  0  0  0  0  0  0  0  0  0  0  0
   -3.1490   24.9180  -29.5240 N   0  0  0  0  0  0  0  0  0  0  0  0
   -2.0560   24.1200  -29.0400 C   0  0  0  0  0  0  0  0  0  0  0  0
   -1.5580   23.0150  -29.7590 C   0  0  0  0  0  0  0  0  0  0  0  0
   -2.0238   22.7267  -30.7129 H   0  0  0  0  0  0  0  0  0  0  0  0
   -0.4740   22.2840  -29.2640 C   0  0  0  0  0  0  0  0  0  0  0  0
   -0.0988   21.4144  -29.8236 H   0  0  0  0  0  0  0  0  0  0  0  0
    0.1370   22.6540  -28.0580 C   0  0  0  0  0  0  0  0  0  0  0  0
    1.2450   21.9050  -27.5530 N   0  0  0  0  0  0  0  0  0  0  0  0
    1.2530   20.8610  -27.6010 H   0  0  0  0  0  0  0  0  0  0  0  0
    2.0690   22.3880  -27.1300 H   0  0  0  0  0  0  0  0  0  0  0  0
   -0.3390   23.7690  -27.3570 C   0  0  0  0  0  0  0  0  0  0  0  0
    0.1410   24.0695  -26.4140 H   0  0  0  0  0  0  0  0  0  0  0  0
   -1.4230   24.5020  -27.8520 C   0  0  0  0  0  0  0  0  0  0  0  0
   -1.7805   25.3856  -27.3029 H   0  0  0  0  0  0  0  0  0  0  0  0
   -4.2910   23.2470  -30.7080 N   0  0  0  0  0  0  0  0  0  0  0  0
   -5.4050   23.1050  -31.4800 C   0  0  0  0  0  0  0  0  0  0  0  0
   -5.7910   21.7830  -32.0410 C   0  0  0  0  0  0  0  0  0  0  0  0
   -4.8310   20.9990  -32.7060 C   0  0  0  0  0  0  0  0  0  0  0  0
   -3.8001   21.3699  -32.8044 H   0  0  0  0  0  0  0  0  0  0  0  0
   -5.1710   19.7550  -33.2430 C   0  0  0  0  0  0  0  0  0  0  0  0
   -4.4063   19.1537  -33.7565 H   0  0  0  0  0  0  0  0  0  0  0  0
   -6.4850   19.2670  -33.1310 C   0  0  0  0  0  0  0  0  0  0  0  0
   -6.8660   18.0210  -33.6570 O   0  0  0  0  0  0  0  0  0  0  0  0
   -5.9670   17.0840  -34.2420 C   0  0  0  0  0  0  0  0  0  0  0  0
   -5.4406   16.5354  -33.4470 H   0  0  0  0  0  0  0  0  0  0  0  0
   -6.5311   16.3747  -34.8654 H   0  0  0  0  0  0  0  0  0  0  0  0
   -5.2349   17.6183  -34.8654 H   0  0  0  0  0  0  0  0  0  0  0  0
   -7.4490   20.0460  -32.4740 C   0  0  0  0  0  0  0  0  0  0  0  0
   -9.1020   19.4710  -32.3220 Cl  0  0  0  0  0  0  0  0  0  0  0  0
   -7.1060   21.2920  -31.9360 C   0  0  0  0  0  0  0  0  0  0  0  0
   -7.8724   21.8939  -31.4257 H   0  0  0  0  0  0  0  0  0  0  0  0
  1  2  1  0
  2  3  1  0
  3  4  1  0
  4  5  2  0
  5  6  1  0
  6  7  2  0
  7  8  1  0
  7  9  1  0
  9 10  1  0
  9 11  2  0
 11 12  1  0
 12 13  1  0
 12 14  1  0
 11 15  1  0
 15 16  1  0
 15 17  2  0
 17 18  1  0
  4 19  1  0
 19 20  1  0
 20 21  1  0
 21 22  2  0
 22 23  1  0
 22 24  1  0
 24 25  1  0
 24 26  2  0
 26 27  1  0
 27 28  1  0
 28 29  1  0
 28 30  1  0
 28 31  1  0
 26 32  1  0
 32 33  1  0
 32 34  2  0
 34 35  1  0
 20  2  2  0
 34 21  1  0
 17  6  1  0
M  CHG  1  19  -1
M  END
>  <UniqueID>  (19) 
18

>  <SMILES>  (19) 
COc1ccc(-c2cs/c(=N/c3ccc(N)cc3)[n-]2)cc1Cl

>  <Energy>  (19) 
74.08758415743262

>  <Genealogy>  (19) 
COc1ccc(-c2csc(=Nc3ccc(N)cc3)[n-]2)cc1Cl (protonated)
COc1ccc(-c2cs/c(=N/c3ccc(N)cc3)[n-]2)cc1Cl (cis-trans isomerization)
COc1ccc(-c2cs/c(=N/c3ccc(N)cc3)[n-]2)cc1Cl (3D coordinates assigned)
COc1ccc(-c2cs/c(=N/c3ccc(N)cc3)[n-]2)cc1Cl (optimized conformer: 74.08758415743262 kcal/mol)

>  <smiles>  (19) 
COc1ccc(-c2csc(=Nc3ccc(N)cc3)[nH]2)cc1Cl

>  <score_type>  (19) 
oracle

>  <origin>  (19) 
adgpu

>  <m_score__min__energy>  (19) 
-8.3300000000000001

>  <m_primary>  (19) 
energy

$$$$
19:0
     RDKit          3D

 36 37  0  0  0  0  0  0  0  0999 V2000
   -1.6280   25.7630  -25.0620 C   0  0  0  0  0  0  0  0  0  0  0  0
   -1.7580   25.0970  -26.4000 C   0  0  0  0  0  0  0  0  0  0  0  0
   -0.6120   24.7160  -27.1140 C   0  0  0  0  0  0  0  0  0  0  0  0
   -0.7330   24.1400  -28.3800 C   0  0  0  0  0  0  0  0  0  0  0  0
   -1.9950   23.9420  -28.9460 C   0  0  0  0  0  0  0  0  0  0  0  0
   -3.1540   24.3160  -28.2420 C   0  0  0  0  0  0  0  0  0  0  0  0
   -4.4620   24.1620  -28.8180 N   0  0  0  0  0  0  0  0  0  0  0  0
   -4.8990   24.8380  -30.0050 C   0  0  0  0  0  0  0  0  0  0  0  0
   -4.0570   25.2690  -30.8400 O   0  0  0  0  0  0  0  0  0  0  0  0
   -6.3620   24.9610  -30.3010 C   0  0  0  0  0  0  0  0  0  0  0  0
   -7.2300   23.3810  -29.9930 S   0  0  0  0  0  0  0  0  0  0  0  0
   -7.7980   23.0980  -31.7110 C   0  0  0  0  0  0  0  0  0  0  0  0
   -7.8140   21.6260  -32.0480 C   0  0  0  0  0  0  0  0  0  0  0  0
   -9.0410   20.9380  -32.0080 C   0  0  0  0  0  0  0  0  0  0  0  0
   -9.1040   19.5760  -32.3170 C   0  0  0  0  0  0  0  0  0  0  0  0
   -7.9440   18.8820  -32.6590 C   0  0  0  0  0  0  0  0  0  0  0  0
   -6.7170   19.5460  -32.6900 C   0  0  0  0  0  0  0  0  0  0  0  0
   -6.6380   20.9110  -32.3830 C   0  0  0  0  0  0  0  0  0  0  0  0
   -5.0490   21.6670  -32.4150 Cl  0  0  0  0  0  0  0  0  0  0  0  0
   -3.0240   24.9150  -26.9790 C   0  0  0  0  0  0  0  0  0  0  0  0
   -1.7734   25.0180  -24.2659 H   0  0  0  0  0  0  0  0  0  0  0  0
   -0.6261   26.2076  -24.9695 H   0  0  0  0  0  0  0  0  0  0  0  0
   -2.3891   26.5517  -24.9695 H   0  0  0  0  0  0  0  0  0  0  0  0
    0.3846   24.8715  -26.6751 H   0  0  0  0  0  0  0  0  0  0  0  0
    0.1689   23.8408  -28.9341 H   0  0  0  0  0  0  0  0  0  0  0  0
   -2.0826   23.4920  -29.9459 H   0  0  0  0  0  0  0  0  0  0  0  0
   -5.1250   23.4910  -28.3660 H   0  0  0  0  0  0  0  0  0  0  0  0
   -6.7948   25.7404  -29.6566 H   0  0  0  0  0  0  0  0  0  0  0  0
   -6.4832   25.2257  -31.3618 H   0  0  0  0  0  0  0  0  0  0  0  0
   -8.8147   23.5024  -31.8235 H   0  0  0  0  0  0  0  0  0  0  0  0
   -7.1004   23.6033  -32.3951 H   0  0  0  0  0  0  0  0  0  0  0  0
   -9.9591   21.4769  -31.7310 H   0  0  0  0  0  0  0  0  0  0  0  0
  -10.0703   19.0510  -32.2903 H   0  0  0  0  0  0  0  0  0  0  0  0
   -7.9961   17.8110  -32.9044 H   0  0  0  0  0  0  0  0  0  0  0  0
   -5.8043   18.9934  -32.9576 H   0  0  0  0  0  0  0  0  0  0  0  0
   -3.9229   25.2450  -26.4377 H   0  0  0  0  0  0  0  0  0  0  0  0
  1  2  1  0
  2  3  2  0
  3  4  1  0
  4  5  2  0
  5  6  1  0
  6  7  1  0
  7  8  1  0
  8  9  2  0
  8 10  1  0
 10 11  1  0
 11 12  1  0
 12 13  1  0
 13 14  2  0
 14 15  1  0
 15 16  2  0
 16 17  1  0
 17 18  2  0
 18 19  1  0
  6 20  2  0
 20  2  1  0
 18 13  1  0
  1 21  1  0
  1 22  1  0
  1 23  1  0
  3 24  1  0
  4 25  1  0
  5 26  1  0
  7 27  1  0
 10 28  1  0
 10 29  1  0
 12 30  1  0
 12 31  1  0
 14 32  1  0
 15 33  1  0
 16 34  1  0
 17 35  1  0
 20 36  1  0
M  END
>  <UniqueID>  (20) 
19

>  <SMILES>  (20) 
Cc1cccc(NC(=O)CSCc2ccccc2Cl)c1

>  <Energy>  (20) 
35.35347019278143

>  <Genealogy>  (20) 
Cc1cccc(NC(=O)CSCc2ccccc2Cl)c1 (3D coordinates assigned)
Cc1cccc(NC(=O)CSCc2ccccc2Cl)c1 (optimized conformer: 35.35347019278143 kcal/mol)

>  <smiles>  (20) 
Cc1cccc(NC(=O)CSCc2ccccc2Cl)c1

>  <score_type>  (20) 
oracle

>  <origin>  (20) 
adgpu

>  <m_score__min__energy>  (20) 
-8.5899999999999999

>  <m_primary>  (20) 
energy

$$$$
20:0
     RDKit          3D

 63 67  0  0  0  0  0  0  0  0999 V2000
   -0.4590   26.6760  -23.9620 C   0  0  0  0  0  0  0  0  0  0  0  0
   -0.2010   26.6110  -25.3610 O   0  0  0  0  0  0  0  0  0  0  0  0
   -1.0560   26.0090  -26.2980 C   0  0  0  0  0  0  0  0  0  0  0  0
   -2.2740   25.4870  -25.8470 C   0  0  0  0  0  0  0  0  0  0  0  0
   -3.1590   24.8770  -26.7380 C   0  0  0  0  0  0  0  0  0  0  0  0
   -2.8330   24.7680  -28.0990 C   0  0  0  0  0  0  0  0  0  0  0  0
   -3.7670   24.0960  -29.0270 C   0  0  0  0  0  0  0  0  0  0  0  0
   -4.9730   24.6130  -29.3680 N   0  0  0  0  0  0  0  0  0  0  0  0
   -5.4740   23.7110  -30.2390 C   0  0  0  0  0  0  0  0  0  0  0  0
   -6.7160   23.7880  -30.8600 C   0  0  0  0  0  0  0  0  0  0  0  0
   -7.0860   22.7380  -31.7150 C   0  0  0  0  0  0  0  0  0  0  0  0
   -6.2220   21.6340  -31.9230 C   0  0  0  0  0  0  0  0  0  0  0  0
   -6.6060   20.5550  -32.8010 N   0  0  0  0  0  0  0  0  0  0  0  0
   -5.6610   20.0500  -33.8070 C   0  0  0  0  0  0  0  0  0  0  0  0
   -6.0940   18.6690  -34.3200 C   0  0  0  0  0  0  0  0  0  0  0  0
   -6.6360   17.8630  -33.2060 N   0  0  0  0  0  0  0  0  0  0  0  0
   -6.8500   16.4710  -33.6400 C   0  0  0  0  0  0  0  0  0  0  0  0
   -7.8970   18.4380  -32.6630 C   0  0  0  0  0  0  0  0  0  0  0  0
   -7.9570   19.9780  -32.7580 C   0  0  0  0  0  0  0  0  0  0  0  0
   -4.9710   21.6240  -31.2690 C   0  0  0  0  0  0  0  0  0  0  0  0
   -4.6570   22.6680  -30.4590 N   0  0  0  0  0  0  0  0  0  0  0  0
   -3.5780   22.8870  -29.6920 C   0  0  0  0  0  0  0  0  0  0  0  0
   -2.5000   21.9530  -29.5250 N   0  0  0  0  0  0  0  0  0  0  0  0
   -2.2910   21.1940  -28.3190 C   0  0  0  0  0  0  0  0  0  0  0  0
   -3.1130   20.0930  -28.0110 C   0  0  0  0  0  0  0  0  0  0  0  0
   -2.9080   19.3600  -26.8410 C   0  0  0  0  0  0  0  0  0  0  0  0
   -1.8740   19.7070  -25.9720 C   0  0  0  0  0  0  0  0  0  0  0  0
   -1.0410   20.7870  -26.2700 C   0  0  0  0  0  0  0  0  0  0  0  0
   -1.2410   21.5400  -27.4450 C   0  0  0  0  0  0  0  0  0  0  0  0
   -0.4290   22.6420  -27.7650 O   0  0  0  0  0  0  0  0  0  0  0  0
    0.8050   22.9470  -27.1240 C   0  0  0  0  0  0  0  0  0  0  0  0
   -1.6240   25.3150  -28.5580 C   0  0  0  0  0  0  0  0  0  0  0  0
   -0.7350   25.9200  -27.6650 C   0  0  0  0  0  0  0  0  0  0  0  0
    0.4625   26.4438  -23.4080 H   0  0  0  0  0  0  0  0  0  0  0  0
   -0.8000   27.6881  -23.6987 H   0  0  0  0  0  0  0  0  0  0  0  0
   -1.2388   25.9463  -23.6987 H   0  0  0  0  0  0  0  0  0  0  0  0
   -2.5362   25.5580  -24.7811 H   0  0  0  0  0  0  0  0  0  0  0  0
   -4.1170   24.4796  -26.3715 H   0  0  0  0  0  0  0  0  0  0  0  0
   -7.3860   24.6431  -30.6870 H   0  0  0  0  0  0  0  0  0  0  0  0
   -8.0577   22.7725  -32.2295 H   0  0  0  0  0  0  0  0  0  0  0  0
   -5.6246   20.7531  -34.6522 H   0  0  0  0  0  0  0  0  0  0  0  0
   -4.6685   19.9571  -33.3419 H   0  0  0  0  0  0  0  0  0  0  0  0
   -6.8692   18.7933  -35.0905 H   0  0  0  0  0  0  0  0  0  0  0  0
   -5.2218   18.1531  -34.7480 H   0  0  0  0  0  0  0  0  0  0  0  0
   -5.9230   17.8390  -32.4360 H   0  0  0  0  0  0  0  0  0  0  0  0
   -6.9497   15.8228  -32.7569 H   0  0  0  0  0  0  0  0  0  0  0  0
   -7.7678   16.4121  -34.2435 H   0  0  0  0  0  0  0  0  0  0  0  0
   -5.9923   16.1391  -34.2435 H   0  0  0  0  0  0  0  0  0  0  0  0
   -8.7430   18.0202  -33.2283 H   0  0  0  0  0  0  0  0  0  0  0  0
   -7.9415   18.1756  -31.5957 H   0  0  0  0  0  0  0  0  0  0  0  0
   -8.4987   20.2614  -33.6725 H   0  0  0  0  0  0  0  0  0  0  0  0
   -8.4755   20.3645  -31.8682 H   0  0  0  0  0  0  0  0  0  0  0  0
   -4.2674   20.7906  -31.4120 H   0  0  0  0  0  0  0  0  0  0  0  0
   -1.8860   21.7660  -30.3490 H   0  0  0  0  0  0  0  0  0  0  0  0
   -3.9234   19.8082  -28.6981 H   0  0  0  0  0  0  0  0  0  0  0  0
   -3.5624   18.5081  -26.6043 H   0  0  0  0  0  0  0  0  0  0  0  0
   -1.7144   19.1287  -25.0500 H   0  0  0  0  0  0  0  0  0  0  0  0
   -0.2234   21.0521  -25.5836 H   0  0  0  0  0  0  0  0  0  0  0  0
    0.6695   22.9135  -26.0329 H   0  0  0  0  0  0  0  0  0  0  0  0
    1.5650   22.2097  -27.4219 H   0  0  0  0  0  0  0  0  0  0  0  0
    1.1340   23.9535  -27.4219 H   0  0  0  0  0  0  0  0  0  0  0  0
   -1.3746   25.2671  -29.6283 H   0  0  0  0  0  0  0  0  0  0  0  0
    0.2184   26.3277  -28.0321 H   0  0  0  0  0  0  0  0  0  0  0  0
  1  2  1  0
  2  3  1  0
  3  4  2  0
  4  5  1  0
  5  6  2  0
  6  7  1  0
  7  8  1  0
  8  9  2  0
  9 10  1  0
 10 11  2  0
 11 12  1  0
 12 13  1  0
 13 14  1  0
 14 15  1  0
 15 16  1  0
 16 17  1  0
 16 18  1  0
 18 19  1  0
 12 20  2  0
 20 21  1  0
 21 22  1  0
 22 23  1  0
 23 24  1  0
 24 25  2  0
 25 26  1  0
 26 27  2  0
 27 28  1  0
 28 29  2  0
 29 30  1  0
 30 31  1  0
  6 32  1  0
 32 33  2  0
 33  3  1  0
 22  7  2  0
 29 24  1  0
 21  9  1  0
 19 13  1  0
  1 34  1  0
  1 35  1  0
  1 36  1  0
  4 37  1  0
  5 38  1  0
 10 39  1  0
 11 40  1  0
 14 41  1  0
 14 42  1  0
 15 43  1  0
 15 44  1  0
 16 45  1  0
 17 46  1  0
 17 47  1  0
 17 48  1  0
 18 49  1  0
 18 50  1  0
 19 51  1  0
 19 52  1  0
 20 53  1  0
 23 54  1  0
 25 55  1  0
 26 56  1  0
 27 57  1  0
 28 58  1  0
 31 59  1  0
 31 60  1  0
 31 61  1  0
 32 62  1  0
 33 63  1  0
M  CHG  1  16   1
M  END
>  <UniqueID>  (21) 
20

>  <SMILES>  (21) 
COc1ccc(-c2nc3ccc(N4CC[NH+](C)CC4)cn3c2Nc2ccccc2OC)cc1

>  <Energy>  (21) 
120.1556977050044

>  <Genealogy>  (21) 
COc1ccc(-c2nc3ccc(N4CC[NH+](C)CC4)cn3c2Nc2ccccc2OC)cc1 (protonated)
COc1ccc(-c2nc3ccc(N4CC[NH+](C)CC4)cn3c2Nc2ccccc2OC)cc1 (3D coordinates assigned)
COc1ccc(-c2nc3ccc(N4CC[NH+](C)CC4)cn3c2Nc2ccccc2OC)cc1 (nonaromatic ring conformer: 120.1556977050044 kcal/mol)

>  <smiles>  (21) 
COc1ccc(-c2nc3ccc(N4CCN(C)CC4)cn3c2Nc2ccccc2OC)cc1

>  <score_type>  (21) 
oracle

>  <origin>  (21) 
adgpu

>  <m_score__min__energy>  (21) 
-7.8700000000000001

>  <m_primary>  (21) 
energy

$$$$
21:0
     RDKit          3D

 36 37  0  0  0  0  0  0  0  0999 V2000
   -3.2520   18.7190  -25.9760 C   0  0  0  0  0  0  0  0  0  0  0  0
   -2.2220   19.2780  -26.9510 C   0  0  0  0  0  0  0  0  0  0  0  0
   -2.8450   20.1430  -27.8990 O   0  0  0  0  0  0  0  0  0  0  0  0
   -2.1600   20.7450  -28.9640 C   0  0  0  0  0  0  0  0  0  0  0  0
   -1.7350   20.0350  -29.9160 O   0  0  0  0  0  0  0  0  0  0  0  0
   -1.9160   22.2120  -28.9370 C   0  0  0  0  0  0  0  0  0  0  0  0
   -2.7540   23.0450  -29.7000 C   0  0  0  0  0  0  0  0  0  0  0  0
   -2.5960   24.4320  -29.6900 C   0  0  0  0  0  0  0  0  0  0  0  0
   -3.4890   25.2350  -30.4770 N   0  0  0  0  0  0  0  0  0  0  0  0
   -4.9210   25.1520  -30.4840 C   0  0  0  0  0  0  0  0  0  0  0  0
   -5.5830   26.1440  -30.0790 O   0  0  0  0  0  0  0  0  0  0  0  0
   -5.6380   23.9600  -30.9970 C   0  0  0  0  0  0  0  0  0  0  0  0
   -5.0070   23.0580  -31.8730 C   0  0  0  0  0  0  0  0  0  0  0  0
   -5.6950   21.9390  -32.3520 C   0  0  0  0  0  0  0  0  0  0  0  0
   -7.0210   21.7140  -31.9710 C   0  0  0  0  0  0  0  0  0  0  0  0
   -7.7020   20.6010  -32.4480 O   0  0  0  0  0  0  0  0  0  0  0  0
   -7.6620   22.6130  -31.1150 C   0  0  0  0  0  0  0  0  0  0  0  0
   -6.9780   23.7340  -30.6340 C   0  0  0  0  0  0  0  0  0  0  0  0
   -1.5380   24.9850  -28.9480 C   0  0  0  0  0  0  0  0  0  0  0  0
   -1.3140   26.2240  -28.9640 O   0  0  0  0  0  0  0  0  0  0  0  0
   -0.7270   24.1740  -28.2230 N   0  0  0  0  0  0  0  0  0  0  0  0
   -0.8770   22.8220  -28.1860 C   0  0  0  0  0  0  0  0  0  0  0  0
    0.0990   22.0370  -27.3590 C   0  0  0  0  0  0  0  0  0  0  0  0
   -2.9168   18.9009  -24.9442 H   0  0  0  0  0  0  0  0  0  0  0  0
   -4.2196   19.2157  -26.1401 H   0  0  0  0  0  0  0  0  0  0  0  0
   -3.3628   17.6370  -26.1401 H   0  0  0  0  0  0  0  0  0  0  0  0
   -1.4630   19.8432  -26.3902 H   0  0  0  0  0  0  0  0  0  0  0  0
   -1.7530   18.4413  -27.4894 H   0  0  0  0  0  0  0  0  0  0  0  0
   -3.5476   22.5958  -30.3152 H   0  0  0  0  0  0  0  0  0  0  0  0
   -3.9663   23.2341  -32.1829 H   0  0  0  0  0  0  0  0  0  0  0  0
   -5.1917   21.2341  -33.0302 H   0  0  0  0  0  0  0  0  0  0  0  0
   -8.7069   22.4387  -30.8187 H   0  0  0  0  0  0  0  0  0  0  0  0
   -7.4910   24.4432  -29.9678 H   0  0  0  0  0  0  0  0  0  0  0  0
   -0.1079   22.2034  -26.2915 H   0  0  0  0  0  0  0  0  0  0  0  0
   -0.0028   20.9663  -27.5897 H   0  0  0  0  0  0  0  0  0  0  0  0
    1.1230   22.3660  -27.5897 H   0  0  0  0  0  0  0  0  0  0  0  0
  1  2  1  0
  2  3  1  0
  3  4  1  0
  4  5  2  0
  4  6  1  0
  6  7  1  0
  7  8  2  0
  8  9  1  0
  9 10  1  0
 10 11  2  0
 10 12  1  0
 12 13  2  0
 13 14  1  0
 14 15  2  0
 15 16  1  0
 15 17  1  0
 17 18  2  0
  8 19  1  0
 19 20  2  0
 19 21  1  0
 21 22  1  0
 22 23  1  0
 22  6  2  0
 18 12  1  0
  1 24  1  0
  1 25  1  0
  1 26  1  0
  2 27  1  0
  2 28  1  0
  7 29  1  0
 13 30  1  0
 14 31  1  0
 17 32  1  0
 18 33  1  0
 23 34  1  0
 23 35  1  0
 23 36  1  0
M  CHG  3   9  -1  16  -1  21  -1
M  END
>  <UniqueID>  (22) 
21

>  <SMILES>  (22) 
CCOC(=O)c1cc([N-]C(=O)c2ccc([O-])cc2)c(=O)[n-]c1C

>  <Energy>  (22) 
45.327405034126095

>  <Genealogy>  (22) 
CCOC(=O)c1cc([N-]C(=O)c2ccc([O-])cc2)c(=O)[n-]c1C (protonated)
CCOC(=O)c1cc([N-]C(=O)c2ccc([O-])cc2)c(=O)[n-]c1C (3D coordinates assigned)
CCOC(=O)c1cc([N-]C(=O)c2ccc([O-])cc2)c(=O)[n-]c1C (optimized conformer: 45.327405034126095 kcal/mol)

>  <smiles>  (22) 
CCOC(=O)c1cc(NC(=O)c2ccc(O)cc2)c(=O)[nH]c1C

>  <score_type>  (22) 
oracle

>  <origin>  (22) 
adgpu

>  <m_score__min__energy>  (22) 
-10.390000000000001

>  <m_primary>  (22) 
energy

$$$$
22:0
     RDKit          3D

 35 36  0  0  0  0  0  0  0  0999 V2000
   -8.0451   25.0983  -29.6732 H   0  0  0  0  0  0  0  0  0  0  0  0
   -7.1550   24.6360  -30.1250 C   0  0  0  0  0  0  0  0  0  0  0  0
   -5.8970   25.2130  -29.9340 C   0  0  0  0  0  0  0  0  0  0  0  0
   -5.8014   26.1284  -29.3316 H   0  0  0  0  0  0  0  0  0  0  0  0
   -4.7580   24.6340  -30.5040 C   0  0  0  0  0  0  0  0  0  0  0  0
   -3.4870   25.2610  -30.2830 N   0  0  0  0  0  0  0  0  0  0  0  0
   -2.2800   24.7080  -29.1690 S   0  0  0  0  0  0  0  0  0  0  0  0
   -1.6140   23.4730  -29.7080 O   0  0  0  0  0  0  0  0  0  0  0  0
   -1.2580   25.7870  -28.9450 O   0  0  0  0  0  0  0  0  0  0  0  0
   -3.0620   24.3190  -27.6200 C   0  0  0  0  0  0  0  0  0  0  0  0
   -2.4144   24.6411  -26.7912 H   0  0  0  0  0  0  0  0  0  0  0  0
   -4.0277   24.8418  -27.5553 H   0  0  0  0  0  0  0  0  0  0  0  0
   -3.2276   23.2335  -27.5553 H   0  0  0  0  0  0  0  0  0  0  0  0
   -4.8910   23.4630  -31.2740 C   0  0  0  0  0  0  0  0  0  0  0  0
   -4.0003   23.0024  -31.7262 H   0  0  0  0  0  0  0  0  0  0  0  0
   -6.1550   22.8780  -31.4690 C   0  0  0  0  0  0  0  0  0  0  0  0
   -6.2990   21.6490  -32.2750 C   0  0  0  0  0  0  0  0  0  0  0  0
   -7.4800   21.1580  -32.7140 N   0  0  0  0  0  0  0  0  0  0  0  0
   -7.1830   20.0610  -33.3900 N   0  0  0  0  0  0  0  0  0  0  0  0
   -7.8880   19.4460  -33.8530 H   0  0  0  0  0  0  0  0  0  0  0  0
   -5.8450   19.9210  -33.3430 C   0  0  0  0  0  0  0  0  0  0  0  0
   -5.1680   18.9560  -33.8900 N   0  0  0  0  0  0  0  0  0  0  0  0
   -5.7370   17.8590  -34.6760 C   0  0  0  0  0  0  0  0  0  0  0  0
   -6.3796   18.2687  -35.4692 H   0  0  0  0  0  0  0  0  0  0  0  0
   -4.6200   17.0450  -35.3370 C   0  0  0  0  0  0  0  0  0  0  0  0
   -3.9911   16.5867  -34.5596 H   0  0  0  0  0  0  0  0  0  0  0  0
   -5.0624   16.2561  -35.9630 H   0  0  0  0  0  0  0  0  0  0  0  0
   -4.0045   17.7078  -35.9630 H   0  0  0  0  0  0  0  0  0  0  0  0
   -6.5680   16.9670  -33.7540 C   0  0  0  0  0  0  0  0  0  0  0  0
   -6.3409   17.2107  -32.7057 H   0  0  0  0  0  0  0  0  0  0  0  0
   -7.6377   17.1364  -33.9464 H   0  0  0  0  0  0  0  0  0  0  0  0
   -6.3234   15.9119  -33.9464 H   0  0  0  0  0  0  0  0  0  0  0  0
   -5.2920   20.8910  -32.6580 O   0  0  0  0  0  0  0  0  0  0  0  0
   -7.2850   23.4740  -30.8880 C   0  0  0  0  0  0  0  0  0  0  0  0
   -8.2778   23.0235  -31.0345 H   0  0  0  0  0  0  0  0  0  0  0  0
  1  2  1  0
  2  3  2  0
  3  4  1  0
  3  5  1  0
  5  6  1  0
  6  7  1  0
  7  8  2  0
  7  9  2  0
  7 10  1  0
 10 11  1  0
 10 12  1  0
 10 13  1  0
  5 14  2  0
 14 15  1  0
 14 16  1  0
 16 17  1  0
 17 18  2  0
 18 19  1  0
 19 20  1  0
 19 21  1  0
 21 22  2  0
 22 23  1  0
 23 24  1  0
 23 25  1  0
 25 26  1  0
 25 27  1  0
 25 28  1  0
 23 29  1  0
 29 30  1  0
 29 31  1  0
 29 32  1  0
 21 33  1  0
 16 34  2  0
 34 35  1  0
 34  2  1  0
 33 17  1  0
M  CHG  1   6  -1
M  END
>  <UniqueID>  (23) 
22

>  <SMILES>  (23) 
CC(C)/N=c1\[nH]nc(-c2cccc([N-]S(C)(=O)=O)c2)o1

>  <Energy>  (23) 
65.75512240218218

>  <Genealogy>  (23) 
CC(C)N=c1[nH]nc(-c2cccc([N-]S(C)(=O)=O)c2)o1 (protonated)
CC(C)/N=c1\[nH]nc(-c2cccc([N-]S(C)(=O)=O)c2)o1 (cis-trans isomerization)
CC(C)/N=c1\[nH]nc(-c2cccc([N-]S(C)(=O)=O)c2)o1 (3D coordinates assigned)
CC(C)/N=c1\[nH]nc(-c2cccc([N-]S(C)(=O)=O)c2)o1 (optimized conformer: 65.75512240218218 kcal/mol)

>  <smiles>  (23) 
CC(C)N=c1[nH]nc(-c2cccc(NS(C)(=O)=O)c2)o1

>  <score_type>  (23) 
oracle

>  <origin>  (23) 
adgpu

>  <m_score__min__energy>  (23) 
-9.5800000000000001

>  <m_primary>  (23) 
energy

$$$$
23:0
     RDKit          3D

 43 45  0  0  0  0  0  0  0  0999 V2000
   -1.7960   19.0630  -26.7640 C   0  0  0  0  0  0  0  0  0  0  0  0
   -1.0060   20.3290  -27.0800 C   0  0  0  0  0  0  0  0  0  0  0  0
   -1.9330   21.4700  -27.3980 C   0  0  0  0  0  0  0  0  0  0  0  0
   -3.3090   21.2450  -27.5500 C   0  0  0  0  0  0  0  0  0  0  0  0
   -4.1650   22.3000  -27.8780 C   0  0  0  0  0  0  0  0  0  0  0  0
   -3.6610   23.5950  -28.0760 C   0  0  0  0  0  0  0  0  0  0  0  0
   -4.5680   24.6550  -28.4260 N   0  0  0  0  0  0  0  0  0  0  0  0
   -5.2190   24.8820  -30.0180 S   0  0  0  0  0  0  0  0  0  0  0  0
   -4.2410   25.6750  -30.8390 O   0  0  0  0  0  0  0  0  0  0  0  0
   -6.5090   25.6470  -29.9220 O   0  0  0  0  0  0  0  0  0  0  0  0
   -5.5420   23.3210  -30.7650 C   0  0  0  0  0  0  0  0  0  0  0  0
   -6.8010   22.7220  -30.6450 C   0  0  0  0  0  0  0  0  0  0  0  0
   -7.0560   21.4910  -31.2570 C   0  0  0  0  0  0  0  0  0  0  0  0
   -6.0530   20.8390  -31.9970 C   0  0  0  0  0  0  0  0  0  0  0  0
   -6.3240   19.5340  -32.6530 C   0  0  0  0  0  0  0  0  0  0  0  0
   -5.6370   19.1660  -33.8260 C   0  0  0  0  0  0  0  0  0  0  0  0
   -5.8930   17.9370  -34.4410 C   0  0  0  0  0  0  0  0  0  0  0  0
   -6.8350   17.0630  -33.8940 C   0  0  0  0  0  0  0  0  0  0  0  0
   -7.5220   17.4160  -32.7310 C   0  0  0  0  0  0  0  0  0  0  0  0
   -7.2700   18.6440  -32.1120 C   0  0  0  0  0  0  0  0  0  0  0  0
   -4.7870   21.4460  -32.1080 C   0  0  0  0  0  0  0  0  0  0  0  0
   -4.5350   22.6750  -31.4930 C   0  0  0  0  0  0  0  0  0  0  0  0
   -2.2790   23.8170  -27.9250 C   0  0  0  0  0  0  0  0  0  0  0  0
   -1.4230   22.7630  -27.5970 C   0  0  0  0  0  0  0  0  0  0  0  0
   -1.8722   18.9410  -25.6734 H   0  0  0  0  0  0  0  0  0  0  0  0
   -2.8047   19.1430  -27.1953 H   0  0  0  0  0  0  0  0  0  0  0  0
   -1.2808   18.1921  -27.1953 H   0  0  0  0  0  0  0  0  0  0  0  0
   -0.3898   20.5967  -26.2090 H   0  0  0  0  0  0  0  0  0  0  0  0
   -0.3679   20.1379  -27.9554 H   0  0  0  0  0  0  0  0  0  0  0  0
   -3.7166   20.2329  -27.4103 H   0  0  0  0  0  0  0  0  0  0  0  0
   -5.2441   22.1137  -27.9820 H   0  0  0  0  0  0  0  0  0  0  0  0
   -4.9380   25.2750  -27.6710 H   0  0  0  0  0  0  0  0  0  0  0  0
   -7.5927   23.2213  -30.0672 H   0  0  0  0  0  0  0  0  0  0  0  0
   -8.0492   21.0285  -31.1590 H   0  0  0  0  0  0  0  0  0  0  0  0
   -4.8939   19.8503  -34.2613 H   0  0  0  0  0  0  0  0  0  0  0  0
   -5.3517   17.6579  -35.3571 H   0  0  0  0  0  0  0  0  0  0  0  0
   -7.0357   16.0965  -34.3795 H   0  0  0  0  0  0  0  0  0  0  0  0
   -8.2632   16.7264  -32.3007 H   0  0  0  0  0  0  0  0  0  0  0  0
   -7.8149   18.9162  -31.1960 H   0  0  0  0  0  0  0  0  0  0  0  0
   -3.9914   20.9493  -32.6827 H   0  0  0  0  0  0  0  0  0  0  0  0
   -3.5408   23.1374  -31.5810 H   0  0  0  0  0  0  0  0  0  0  0  0
   -1.8701   24.8283  -28.0664 H   0  0  0  0  0  0  0  0  0  0  0  0
   -0.3434   22.9470  -27.4940 H   0  0  0  0  0  0  0  0  0  0  0  0
  1  2  1  0
  2  3  1  0
  3  4  2  0
  4  5  1  0
  5  6  2  0
  6  7  1  0
  7  8  1  0
  8  9  2  0
  8 10  2  0
  8 11  1  0
 11 12  2  0
 12 13  1  0
 13 14  2  0
 14 15  1  0
 15 16  2  0
 16 17  1  0
 17 18  2  0
 18 19  1  0
 19 20  2  0
 14 21  1  0
 21 22  2  0
  6 23  1  0
 23 24  2  0
 24  3  1  0
 22 11  1  0
 20 15  1  0
  1 25  1  0
  1 26  1  0
  1 27  1  0
  2 28  1  0
  2 29  1  0
  4 30  1  0
  5 31  1  0
  7 32  1  0
 12 33  1  0
 13 34  1  0
 16 35  1  0
 17 36  1  0
 18 37  1  0
 19 38  1  0
 20 39  1  0
 21 40  1  0
 22 41  1  0
 23 42  1  0
 24 43  1  0
M  END
>  <UniqueID>  (24) 
23

>  <SMILES>  (24) 
CCc1ccc(NS(=O)(=O)c2ccc(-c3ccccc3)cc2)cc1

>  <Energy>  (24) 
49.84770529150817

>  <Genealogy>  (24) 
CCc1ccc(NS(=O)(=O)c2ccc(-c3ccccc3)cc2)cc1 (3D coordinates assigned)
CCc1ccc(NS(=O)(=O)c2ccc(-c3ccccc3)cc2)cc1 (optimized conformer: 49.84770529150817 kcal/mol)

>  <smiles>  (24) 
CCc1ccc(NS(=O)(=O)c2ccc(-c3ccccc3)cc2)cc1

>  <score_type>  (24) 
oracle

>  <origin>  (24) 
adgpu

>  <m_score__min__energy>  (24) 
-9.6899999999999995

>  <m_primary>  (24) 
energy

$$$$
24:0
     RDKit          3D

 34 35  0  0  0  0  0  0  0  0999 V2000
   -9.0840   18.5350  -31.6000 C   0  0  0  0  0  0  0  0  0  0  0  0
   -8.2390   19.7560  -31.8170 C   0  0  0  0  0  0  0  0  0  0  0  0
   -7.3220   19.8010  -32.8780 C   0  0  0  0  0  0  0  0  0  0  0  0
   -6.5090   20.9240  -33.0580 C   0  0  0  0  0  0  0  0  0  0  0  0
   -6.5840   21.9990  -32.1630 C   0  0  0  0  0  0  0  0  0  0  0  0
   -5.5410   23.4420  -32.3980 S   0  0  0  0  0  0  0  0  0  0  0  0
   -4.0320   22.6080  -31.8740 C   0  0  0  0  0  0  0  0  0  0  0  0
   -3.6410   21.4660  -32.5860 C   0  0  0  0  0  0  0  0  0  0  0  0
   -2.4970   20.7550  -32.2230 C   0  0  0  0  0  0  0  0  0  0  0  0
   -1.7220   21.1800  -31.1410 C   0  0  0  0  0  0  0  0  0  0  0  0
   -0.2770   20.2840  -30.6830 S   0  0  0  0  0  0  0  0  0  0  0  0
    0.9020   20.4090  -31.9410 N   0  0  0  0  0  0  0  0  0  0  0  0
   -0.6210   18.8380  -30.4590 O   0  0  0  0  0  0  0  0  0  0  0  0
    0.2900   20.8480  -29.4100 O   0  0  0  0  0  0  0  0  0  0  0  0
   -2.0820   22.3390  -30.4450 C   0  0  0  0  0  0  0  0  0  0  0  0
   -3.2230   23.0730  -30.8080 C   0  0  0  0  0  0  0  0  0  0  0  0
   -3.5820   24.5590  -29.9130 S   0  0  0  0  0  0  0  0  0  0  0  0
   -2.1350   25.2650  -29.2790 N   0  0  0  0  0  0  0  0  0  0  0  0
   -4.2760   25.5380  -30.8160 O   0  0  0  0  0  0  0  0  0  0  0  0
   -4.4870   24.2430  -28.7540 O   0  0  0  0  0  0  0  0  0  0  0  0
   -7.5030   21.9600  -31.1100 C   0  0  0  0  0  0  0  0  0  0  0  0
   -8.3180   20.8390  -30.9280 C   0  0  0  0  0  0  0  0  0  0  0  0
   -9.2051   18.3600  -30.5208 H   0  0  0  0  0  0  0  0  0  0  0  0
  -10.0717   18.6861  -32.0601 H   0  0  0  0  0  0  0  0  0  0  0  0
   -8.5946   17.6639  -32.0601 H   0  0  0  0  0  0  0  0  0  0  0  0
   -7.2425   18.9500  -33.5704 H   0  0  0  0  0  0  0  0  0  0  0  0
   -5.8083   20.9636  -33.9050 H   0  0  0  0  0  0  0  0  0  0  0  0
   -4.2434   21.1262  -33.4414 H   0  0  0  0  0  0  0  0  0  0  0  0
   -2.2047   19.8585  -32.7894 H   0  0  0  0  0  0  0  0  0  0  0  0
    0.6420   21.2370  -32.5210 H   0  0  0  0  0  0  0  0  0  0  0  0
   -1.4630   22.6800  -29.6020 H   0  0  0  0  0  0  0  0  0  0  0  0
   -1.6140   25.6700  -30.0890 H   0  0  0  0  0  0  0  0  0  0  0  0
   -7.5850   22.8146  -30.4223 H   0  0  0  0  0  0  0  0  0  0  0  0
   -9.0238   20.8056  -30.0849 H   0  0  0  0  0  0  0  0  0  0  0  0
  1  2  1  0
  2  3  2  0
  3  4  1  0
  4  5  2  0
  5  6  1  0
  6  7  1  0
  7  8  2  0
  8  9  1  0
  9 10  2  0
 10 11  1  0
 11 12  1  0
 11 13  2  0
 11 14  2  0
 10 15  1  0
 15 16  2  0
 16 17  1  0
 17 18  1  0
 17 19  2  0
 17 20  2  0
  5 21  1  0
 21 22  2  0
 22  2  1  0
 16  7  1  0
  1 23  1  0
  1 24  1  0
  1 25  1  0
  3 26  1  0
  4 27  1  0
  8 28  1  0
  9 29  1  0
 12 30  1  0
 15 31  1  0
 18 32  1  0
 21 33  1  0
 22 34  1  0
M  CHG  2  12  -1  18  -1
M  END
>  <UniqueID>  (25) 
24

>  <SMILES>  (25) 
Cc1ccc(Sc2ccc(S([NH-])(=O)=O)cc2S([NH-])(=O)=O)cc1

>  <Energy>  (25) 
31.78858842337121

>  <Genealogy>  (25) 
Cc1ccc(Sc2ccc(S([NH-])(=O)=O)cc2S([NH-])(=O)=O)cc1 (protonated)
Cc1ccc(Sc2ccc(S([NH-])(=O)=O)cc2S([NH-])(=O)=O)cc1 (3D coordinates assigned)
Cc1ccc(Sc2ccc(S([NH-])(=O)=O)cc2S([NH-])(=O)=O)cc1 (optimized conformer: 31.78858842337121 kcal/mol)

>  <smiles>  (25) 
Cc1ccc(Sc2ccc(S(N)(=O)=O)cc2S(N)(=O)=O)cc1

>  <score_type>  (25) 
oracle

>  <origin>  (25) 
adgpu

>  <m_score__min__energy>  (25) 
-10.58

>  <m_primary>  (25) 
energy

$$$$
25:0
     RDKit          3D

 49 51  0  0  0  0  0  0  0  0999 V2000
   -0.0590   27.2710  -23.7540 C   0  0  0  0  0  0  0  0  0  0  0  0
   -1.2360   26.4880  -24.3270 C   0  0  0  0  0  0  0  0  0  0  0  0
   -1.4170   26.7860  -25.7120 O   0  0  0  0  0  0  0  0  0  0  0  0
   -1.7050   25.8480  -26.7180 C   0  0  0  0  0  0  0  0  0  0  0  0
   -2.7570   24.9500  -26.5000 C   0  0  0  0  0  0  0  0  0  0  0  0
   -3.0850   23.9910  -27.4610 C   0  0  0  0  0  0  0  0  0  0  0  0
   -2.3560   23.9120  -28.6550 C   0  0  0  0  0  0  0  0  0  0  0  0
   -2.7010   22.9050  -29.6760 C   0  0  0  0  0  0  0  0  0  0  0  0
   -1.8770   21.7760  -29.7940 C   0  0  0  0  0  0  0  0  0  0  0  0
   -2.1420   20.7980  -30.7520 C   0  0  0  0  0  0  0  0  0  0  0  0
   -3.2430   20.9250  -31.6120 C   0  0  0  0  0  0  0  0  0  0  0  0
   -3.5240   19.8840  -32.6340 C   0  0  0  0  0  0  0  0  0  0  0  0
   -4.8400   19.6420  -33.0650 C   0  0  0  0  0  0  0  0  0  0  0  0
   -5.1050   18.6610  -34.0250 C   0  0  0  0  0  0  0  0  0  0  0  0
   -4.0540   17.9040  -34.5750 C   0  0  0  0  0  0  0  0  0  0  0  0
   -4.2670   16.9110  -35.5420 O   0  0  0  0  0  0  0  0  0  0  0  0
   -3.4540   15.7510  -35.6970 C   0  0  0  0  0  0  0  0  0  0  0  0
   -2.7440   18.1440  -34.1470 C   0  0  0  0  0  0  0  0  0  0  0  0
   -2.4790   19.1230  -33.1850 C   0  0  0  0  0  0  0  0  0  0  0  0
   -4.0780   22.0490  -31.4900 C   0  0  0  0  0  0  0  0  0  0  0  0
   -3.8260   23.0400  -30.5240 C   0  0  0  0  0  0  0  0  0  0  0  0
   -4.9530   24.4050  -30.3920 S   0  0  0  0  0  0  0  0  0  0  0  0
   -6.3640   24.1790  -31.4580 C   0  0  0  0  0  0  0  0  0  0  0  0
   -4.2660   25.6750  -30.8130 O   0  0  0  0  0  0  0  0  0  0  0  0
   -5.4070   24.5570  -28.9680 O   0  0  0  0  0  0  0  0  0  0  0  0
   -1.3210   24.8260  -28.8930 C   0  0  0  0  0  0  0  0  0  0  0  0
   -0.9910   25.7850  -27.9310 C   0  0  0  0  0  0  0  0  0  0  0  0
   -0.1004   27.2434  -22.6551 H   0  0  0  0  0  0  0  0  0  0  0  0
    0.8836   26.8193  -24.0968 H   0  0  0  0  0  0  0  0  0  0  0  0
   -0.1114   28.3149  -24.0968 H   0  0  0  0  0  0  0  0  0  0  0  0
   -1.0431   25.4112  -24.2120 H   0  0  0  0  0  0  0  0  0  0  0  0
   -2.1482   26.7737  -23.7826 H   0  0  0  0  0  0  0  0  0  0  0  0
   -3.3307   25.0003  -25.5628 H   0  0  0  0  0  0  0  0  0  0  0  0
   -3.9180   23.2958  -27.2800 H   0  0  0  0  0  0  0  0  0  0  0  0
   -1.0125   21.6609  -29.1236 H   0  0  0  0  0  0  0  0  0  0  0  0
   -1.4832   19.9209  -30.8339 H   0  0  0  0  0  0  0  0  0  0  0  0
   -5.6686   20.2298  -32.6431 H   0  0  0  0  0  0  0  0  0  0  0  0
   -6.1396   18.4800  -34.3519 H   0  0  0  0  0  0  0  0  0  0  0  0
   -3.1801   15.3601  -34.7059 H   0  0  0  0  0  0  0  0  0  0  0  0
   -4.0127   14.9832  -36.2524 H   0  0  0  0  0  0  0  0  0  0  0  0
   -2.5417   16.0142  -36.2524 H   0  0  0  0  0  0  0  0  0  0  0  0
   -1.9156   17.5575  -34.5709 H   0  0  0  0  0  0  0  0  0  0  0  0
   -1.4440   19.2991  -32.8566 H   0  0  0  0  0  0  0  0  0  0  0  0
   -4.9430   22.1555  -32.1611 H   0  0  0  0  0  0  0  0  0  0  0  0
   -7.2665   24.0344  -30.8460 H   0  0  0  0  0  0  0  0  0  0  0  0
   -6.4901   25.0684  -32.0929 H   0  0  0  0  0  0  0  0  0  0  0  0
   -6.2060   23.2947  -32.0929 H   0  0  0  0  0  0  0  0  0  0  0  0
   -0.7654   24.7887  -29.8416 H   0  0  0  0  0  0  0  0  0  0  0  0
   -0.1710   26.4930  -28.1217 H   0  0  0  0  0  0  0  0  0  0  0  0
  1  2  1  0
  2  3  1  0
  3  4  1  0
  4  5  2  0
  5  6  1  0
  6  7  2  0
  7  8  1  0
  8  9  2  0
  9 10  1  0
 10 11  2  0
 11 12  1  0
 12 13  2  0
 13 14  1  0
 14 15  2  0
 15 16  1  0
 16 17  1  0
 15 18  1  0
 18 19  2  0
 11 20  1  0
 20 21  2  0
 21 22  1  0
 22 23  1  0
 22 24  2  0
 22 25  2  0
  7 26  1  0
 26 27  2  0
 27  4  1  0
 21  8  1  0
 19 12  1  0
  1 28  1  0
  1 29  1  0
  1 30  1  0
  2 31  1  0
  2 32  1  0
  5 33  1  0
  6 34  1  0
  9 35  1  0
 10 36  1  0
 13 37  1  0
 14 38  1  0
 17 39  1  0
 17 40  1  0
 17 41  1  0
 18 42  1  0
 19 43  1  0
 20 44  1  0
 23 45  1  0
 23 46  1  0
 23 47  1  0
 26 48  1  0
 27 49  1  0
M  END
>  <UniqueID>  (26) 
25

>  <SMILES>  (26) 
CCOc1ccc(-c2ccc(-c3ccc(OC)cc3)cc2S(C)(=O)=O)cc1

>  <Energy>  (26) 
59.802439946112656

>  <Genealogy>  (26) 
CCOc1ccc(-c2ccc(-c3ccc(OC)cc3)cc2S(C)(=O)=O)cc1 (3D coordinates assigned)
CCOc1ccc(-c2ccc(-c3ccc(OC)cc3)cc2S(C)(=O)=O)cc1 (optimized conformer: 59.802439946112656 kcal/mol)

>  <smiles>  (26) 
CCOc1ccc(-c2ccc(-c3ccc(OC)cc3)cc2S(C)(=O)=O)cc1

>  <score_type>  (26) 
oracle

>  <origin>  (26) 
adgpu

>  <m_score__min__energy>  (26) 
-8.3900000000000006

>  <m_primary>  (26) 
energy

$$$$
26:0
     RDKit          3D

 38 40  0  0  0  0  0  0  0  0999 V2000
   -5.4270   14.6330  -33.6890 C   0  0  0  0  0  0  0  0  0  0  0  0
   -6.1740   15.6490  -34.3520 O   0  0  0  0  0  0  0  0  0  0  0  0
   -6.4360   16.9210  -33.8170 C   0  0  0  0  0  0  0  0  0  0  0  0
   -7.3570   17.1160  -32.7710 C   0  0  0  0  0  0  0  0  0  0  0  0
   -7.5910   18.3950  -32.2650 C   0  0  0  0  0  0  0  0  0  0  0  0
   -6.9130   19.5060  -32.7900 C   0  0  0  0  0  0  0  0  0  0  0  0
   -7.1630   20.8660  -32.2480 C   0  0  0  0  0  0  0  0  0  0  0  0
   -8.4640   21.3980  -32.2290 C   0  0  0  0  0  0  0  0  0  0  0  0
   -8.6970   22.6760  -31.7190 C   0  0  0  0  0  0  0  0  0  0  0  0
   -7.6390   23.4400  -31.2230 C   0  0  0  0  0  0  0  0  0  0  0  0
   -6.3310   22.9300  -31.2300 C   0  0  0  0  0  0  0  0  0  0  0  0
   -5.2100   23.7370  -30.7000 C   0  0  0  0  0  0  0  0  0  0  0  0
   -4.8250   24.9210  -31.2200 N   0  0  0  0  0  0  0  0  0  0  0  0
   -3.8270   25.3020  -30.4840 O   0  0  0  0  0  0  0  0  0  0  0  0
   -3.5950   24.4050  -29.5600 C   0  0  0  0  0  0  0  0  0  0  0  0
   -2.5350   24.5260  -28.5190 C   0  0  0  0  0  0  0  0  0  0  0  0
   -4.4560   23.3720  -29.6400 N   0  0  0  0  0  0  0  0  0  0  0  0
   -6.1010   21.6410  -31.7440 C   0  0  0  0  0  0  0  0  0  0  0  0
   -5.9940   19.3110  -33.8360 C   0  0  0  0  0  0  0  0  0  0  0  0
   -5.7520   18.0230  -34.3520 C   0  0  0  0  0  0  0  0  0  0  0  0
   -4.8420   17.7970  -35.3970 O   0  0  0  0  0  0  0  0  0  0  0  0
   -3.6420   17.0410  -35.2740 C   0  0  0  0  0  0  0  0  0  0  0  0
   -5.5206   14.7604  -32.6004 H   0  0  0  0  0  0  0  0  0  0  0  0
   -5.8154   13.6451  -33.9773 H   0  0  0  0  0  0  0  0  0  0  0  0
   -4.3682   14.7091  -33.9773 H   0  0  0  0  0  0  0  0  0  0  0  0
   -7.8959   16.2546  -32.3496 H   0  0  0  0  0  0  0  0  0  0  0  0
   -8.3134   18.5338  -31.4472 H   0  0  0  0  0  0  0  0  0  0  0  0
   -9.3035   20.8034  -32.6185 H   0  0  0  0  0  0  0  0  0  0  0  0
   -9.7188   23.0832  -31.7078 H   0  0  0  0  0  0  0  0  0  0  0  0
   -7.8313   24.4471  -30.8245 H   0  0  0  0  0  0  0  0  0  0  0  0
   -2.9939   24.4736  -27.5206 H   0  0  0  0  0  0  0  0  0  0  0  0
   -1.8126   23.7045  -28.6341 H   0  0  0  0  0  0  0  0  0  0  0  0
   -2.0163   25.4892  -28.6341 H   0  0  0  0  0  0  0  0  0  0  0  0
   -5.0793   21.2336  -31.7523 H   0  0  0  0  0  0  0  0  0  0  0  0
   -5.4577   20.1745  -34.2563 H   0  0  0  0  0  0  0  0  0  0  0  0
   -3.4087   16.8940  -34.2091 H   0  0  0  0  0  0  0  0  0  0  0  0
   -3.7738   16.0625  -35.7589 H   0  0  0  0  0  0  0  0  0  0  0  0
   -2.8163   17.5823  -35.7589 H   0  0  0  0  0  0  0  0  0  0  0  0
  1  2  1  0
  2  3  1  0
  3  4  2  0
  4  5  1  0
  5  6  2  0
  6  7  1  0
  7  8  2  0
  8  9  1  0
  9 10  2  0
 10 11  1  0
 11 12  1  0
 12 13  2  0
 13 14  1  0
 14 15  1  0
 15 16  1  0
 15 17  2  0
 11 18  2  0
  6 19  1  0
 19 20  2  0
 20 21  1  0
 21 22  1  0
 20  3  1  0
 18  7  1  0
 17 12  1  0
  1 23  1  0
  1 24  1  0
  1 25  1  0
  4 26  1  0
  5 27  1  0
  8 28  1  0
  9 29  1  0
 10 30  1  0
 16 31  1  0
 16 32  1  0
 16 33  1  0
 18 34  1  0
 19 35  1  0
 22 36  1  0
 22 37  1  0
 22 38  1  0
M  END
>  <UniqueID>  (27) 
26

>  <SMILES>  (27) 
COc1ccc(-c2cccc(-c3noc(C)n3)c2)cc1OC

>  <Energy>  (27) 
76.48270900652936

>  <Genealogy>  (27) 
COc1ccc(-c2cccc(-c3noc(C)n3)c2)cc1OC (3D coordinates assigned)
COc1ccc(-c2cccc(-c3noc(C)n3)c2)cc1OC (optimized conformer: 76.48270900652936 kcal/mol)

>  <smiles>  (27) 
COc1ccc(-c2cccc(-c3noc(C)n3)c2)cc1OC

>  <score_type>  (27) 
oracle

>  <origin>  (27) 
adgpu

>  <m_score__min__energy>  (27) 
-8.8900000000000006

>  <m_primary>  (27) 
energy

$$$$
27:0
     RDKit          3D

 26 27  0  0  0  0  0  0  0  0999 V2000
   -3.8630   25.3110  -30.5090 N   0  0  0  0  0  0  0  0  0  0  0  0
   -3.2660   23.8040  -29.9110 S   0  0  0  0  0  0  0  0  0  0  0  0
   -1.7860   23.9110  -29.6750 O   0  0  0  0  0  0  0  0  0  0  0  0
   -3.9400   23.4780  -28.6070 O   0  0  0  0  0  0  0  0  0  0  0  0
   -3.5930   22.5350  -31.0870 C   0  0  0  0  0  0  0  0  0  0  0  0
   -4.7340   22.6020  -31.8980 C   0  0  0  0  0  0  0  0  0  0  0  0
   -4.9860   21.6020  -32.8420 C   0  0  0  0  0  0  0  0  0  0  0  0
   -4.0920   20.5370  -33.0010 C   0  0  0  0  0  0  0  0  0  0  0  0
   -4.3900   19.5170  -33.9630 N   0  0  0  0  0  0  0  0  0  0  0  0
   -5.5350   18.6540  -33.9510 C   0  0  0  0  0  0  0  0  0  0  0  0
   -5.5020   17.5910  -34.6280 O   0  0  0  0  0  0  0  0  0  0  0  0
   -6.7130   18.9420  -33.1130 C   0  0  0  0  0  0  0  0  0  0  0  0
   -7.3650   18.0370  -32.2960 C   0  0  0  0  0  0  0  0  0  0  0  0
   -8.3930   18.7400  -31.7050 C   0  0  0  0  0  0  0  0  0  0  0  0
   -8.2980   20.0260  -32.1940 C   0  0  0  0  0  0  0  0  0  0  0  0
   -9.4520   21.4750  -31.7450 Br  0  0  0  0  0  0  0  0  0  0  0  0
   -7.2890   20.1190  -33.0270 O   0  0  0  0  0  0  0  0  0  0  0  0
   -2.9610   20.4570  -32.1700 C   0  0  0  0  0  0  0  0  0  0  0  0
   -2.7080   21.4580  -31.2270 C   0  0  0  0  0  0  0  0  0  0  0  0
   -3.1820   25.6450  -31.2270 H   0  0  0  0  0  0  0  0  0  0  0  0
   -5.4336   23.4441  -31.7915 H   0  0  0  0  0  0  0  0  0  0  0  0
   -5.8923   21.6526  -33.4634 H   0  0  0  0  0  0  0  0  0  0  0  0
   -7.1152   16.9760  -32.1482 H   0  0  0  0  0  0  0  0  0  0  0  0
   -9.1357   18.3548  -30.9909 H   0  0  0  0  0  0  0  0  0  0  0  0
   -2.2726   19.6040  -32.2619 H   0  0  0  0  0  0  0  0  0  0  0  0
   -1.8110   21.3996  -30.5929 H   0  0  0  0  0  0  0  0  0  0  0  0
  1  2  1  0
  2  3  2  0
  2  4  2  0
  2  5  1  0
  5  6  2  0
  6  7  1  0
  7  8  2  0
  8  9  1  0
  9 10  1  0
 10 11  2  0
 10 12  1  0
 12 13  2  0
 13 14  1  0
 14 15  2  0
 15 16  1  0
 15 17  1  0
  8 18  1  0
 18 19  2  0
 19  5  1  0
 17 12  1  0
  1 20  1  0
  6 21  1  0
  7 22  1  0
 13 23  1  0
 14 24  1  0
 18 25  1  0
 19 26  1  0
M  CHG  2   1  -1   9  -1
M  END
>  <UniqueID>  (28) 
27

>  <SMILES>  (28) 
[NH-]S(=O)(=O)c1ccc([N-]C(=O)c2ccc(Br)o2)cc1

>  <Energy>  (28) 
56.322664548381994

>  <Genealogy>  (28) 
[NH-]S(=O)(=O)c1ccc([N-]C(=O)c2ccc(Br)o2)cc1 (protonated)
[NH-]S(=O)(=O)c1ccc([N-]C(=O)c2ccc(Br)o2)cc1 (3D coordinates assigned)
[NH-]S(=O)(=O)c1ccc([N-]C(=O)c2ccc(Br)o2)cc1 (optimized conformer: 56.322664548381994 kcal/mol)

>  <smiles>  (28) 
NS(=O)(=O)c1ccc(NC(=O)c2ccc(Br)o2)cc1

>  <score_type>  (28) 
oracle

>  <origin>  (28) 
adgpu

>  <m_score__min__energy>  (28) 
-9.6999999999999993

>  <m_primary>  (28) 
energy

$$$$
28:0
     RDKit          3D

 46 49  0  0  1  0  0  0  0  0999 V2000
    0.7440   28.7650  -35.8590 C   0  0  0  0  0  0  0  0  0  0  0  0
   -0.2020   27.8730  -36.6000 C   0  0  0  0  0  0  0  0  0  0  0  0
   -0.0070   26.4310  -36.3160 C   0  0  0  0  0  0  0  0  0  0  0  0
    1.1400   25.8100  -35.8400 C   0  0  0  0  0  0  0  0  0  0  0  0
    0.8070   24.4760  -35.7490 C   0  0  0  0  0  0  0  0  0  0  0  0
    1.5410   23.4760  -35.3540 N   0  0  0  0  0  0  0  0  0  0  0  0
    1.0160   22.1390  -35.3260 C   0  0  0  0  0  0  0  0  0  0  0  0
    1.6280   21.1850  -36.1140 C   0  0  0  0  0  0  0  0  0  0  0  0
    1.1210   19.8920  -36.0870 C   0  0  0  0  0  0  0  0  0  0  0  0
    0.0640   19.5570  -35.3230 N   0  0  0  0  0  0  0  0  0  0  0  0
   -0.4980   20.5330  -34.5700 C   0  0  0  0  0  0  0  0  0  0  0  0
   -1.5030   20.1920  -33.8500 N   0  0  0  0  0  0  0  0  0  0  0  0
   -2.1870   21.1170  -33.0120 C   0  0  0  0  0  0  0  0  0  0  0  0
   -3.4540   21.5920  -33.2860 C   0  0  0  0  0  0  0  0  0  0  0  0
   -4.0200   22.4970  -32.3860 C   0  0  0  0  0  0  0  0  0  0  0  0
   -3.3170   22.8990  -31.2550 C   0  0  0  0  0  0  0  0  0  0  0  0
   -4.0530   24.0370  -30.1430 S   0  0  0  0  0  0  0  0  0  0  0  0
   -4.9820   23.2440  -28.9490 N   0  0  0  0  0  0  0  0  0  0  0  0
   -2.9480   24.8020  -29.4780 O   0  0  0  0  0  0  0  0  0  0  0  0
   -4.9330   25.0200  -30.8590 O   0  0  0  0  0  0  0  0  0  0  0  0
   -2.0460   22.4220  -30.9800 C   0  0  0  0  0  0  0  0  0  0  0  0
   -1.4980   21.5320  -31.8710 C   0  0  0  0  0  0  0  0  0  0  0  0
   -0.0410   21.7990  -34.5640 N   0  0  0  0  0  0  0  0  0  0  0  0
   -0.4840   24.2970  -36.1530 N   0  0  0  0  0  0  0  0  0  0  0  0
   -0.9610   25.4970  -36.4930 N   0  0  0  0  0  0  0  0  0  0  0  0
   -0.9630   28.3650  -37.7570 C   0  0  0  0  0  0  0  0  0  0  0  0
   -1.6800   28.3140  -36.4660 C   0  0  0  0  0  0  0  0  0  0  0  0
    0.6022   28.6313  -34.7764 H   0  0  0  0  0  0  0  0  0  0  0  0
    1.7787   28.5062  -36.1280 H   0  0  0  0  0  0  0  0  0  0  0  0
    0.5464   29.8131  -36.1280 H   0  0  0  0  0  0  0  0  0  0  0  0
    2.1029   26.2797  -35.5904 H   0  0  0  0  0  0  0  0  0  0  0  0
    2.4919   21.4412  -36.7449 H   0  0  0  0  0  0  0  0  0  0  0  0
    1.5971   19.1189  -36.7081 H   0  0  0  0  0  0  0  0  0  0  0  0
   -0.3080   18.5910  -35.3090 H   0  0  0  0  0  0  0  0  0  0  0  0
   -3.9999   21.2679  -34.1843 H   0  0  0  0  0  0  0  0  0  0  0  0
   -5.0285   22.8947  -32.5725 H   0  0  0  0  0  0  0  0  0  0  0  0
   -5.7550   23.8010  -28.5520 H   0  0  0  0  0  0  0  0  0  0  0  0
   -4.3420   22.9820  -28.1510 H   0  0  0  0  0  0  0  0  0  0  0  0
   -1.4968   22.7435  -30.0828 H   0  0  0  0  0  0  0  0  0  0  0  0
   -0.4897   21.1358  -31.6805 H   0  0  0  0  0  0  0  0  0  0  0  0
   -1.0400   23.4320  -36.2070 H   0  0  0  0  0  0  0  0  0  0  0  0
   -1.9380   25.6650  -36.8440 H   0  0  0  0  0  0  0  0  0  0  0  0
   -0.7086   29.3411  -38.1957 H   0  0  0  0  0  0  0  0  0  0  0  0
   -1.1719   27.9549  -38.7561 H   0  0  0  0  0  0  0  0  0  0  0  0
   -1.9364   29.2432  -35.9361 H   0  0  0  0  0  0  0  0  0  0  0  0
   -2.6097   27.8561  -36.0974 H   0  0  0  0  0  0  0  0  0  0  0  0
  1  2  1  0
  2  3  1  0
  3  4  2  0
  4  5  1  0
  5  6  2  0
  6  7  1  0
  7  8  1  0
  8  9  2  0
  9 10  1  0
 10 11  1  0
 11 12  2  0
 12 13  1  0
 13 14  2  0
 14 15  1  0
 15 16  2  0
 16 17  1  0
 17 18  1  0
 17 19  2  0
 17 20  2  0
 16 21  1  0
 21 22  2  0
 11 23  1  0
  5 24  1  0
 24 25  1  0
  2 26  1  0
 26 27  1  0
 27  2  1  0
 25  3  1  0
 23  7  2  0
 22 13  1  0
  1 28  1  0
  1 29  1  0
  1 30  1  0
  4 31  1  0
  8 32  1  0
  9 33  1  0
 10 34  1  0
 14 35  1  0
 15 36  1  0
 18 37  1  0
 18 38  1  0
 21 39  1  0
 22 40  1  0
 24 41  1  0
 25 42  1  0
 26 43  1  0
 26 44  1  0
 27 45  1  0
 27 46  1  0
M  END
>  <smiles>  (29) 
CC1(c2cc(=Nc3cc[nH]c(=Nc4ccc(S(N)(=O)=O)cc4)n3)[nH][nH]2)CC1

>  <score_type>  (29) 
oracle

>  <origin>  (29) 
adgpu

>  <m_score__min__energy>  (29) 
-10.26

>  <m_primary>  (29) 
energy

$$$$
29:0
     RDKit          3D

 40 42  0  0  0  0  0  0  0  0999 V2000
  -10.3991   20.9892  -31.8864 H   0  0  0  0  0  0  0  0  0  0  0  0
   -9.3040   20.9550  -31.9840 C   0  0  0  0  0  0  0  0  0  0  0  0
   -8.5580   22.0310  -31.6260 N   0  0  0  0  0  0  0  0  0  0  0  0
   -7.2020   22.0100  -31.7430 C   0  0  0  0  0  0  0  0  0  0  0  0
   -6.4850   23.0360  -31.4040 N   0  0  0  0  0  0  0  0  0  0  0  0
   -7.0260   24.2840  -30.8670 C   0  0  0  0  0  0  0  0  0  0  0  0
   -7.9484   24.0680  -30.3080 H   0  0  0  0  0  0  0  0  0  0  0  0
   -7.2403   24.9676  -31.7017 H   0  0  0  0  0  0  0  0  0  0  0  0
   -6.0090   24.9500  -29.9270 C   0  0  0  0  0  0  0  0  0  0  0  0
   -6.5630   26.0950  -29.3820 F   0  0  0  0  0  0  0  0  0  0  0  0
   -5.7350   24.0740  -28.8910 F   0  0  0  0  0  0  0  0  0  0  0  0
   -4.6790   25.2850  -30.6340 C   0  0  0  0  0  0  0  0  0  0  0  0
   -4.8794   25.4600  -31.7014 H   0  0  0  0  0  0  0  0  0  0  0  0
   -4.2574   26.1805  -30.1540 H   0  0  0  0  0  0  0  0  0  0  0  0
   -3.6990   24.2040  -30.5090 N   0  0  0  0  0  0  0  0  0  0  0  0
   -2.6400   24.2270  -29.7570 C   0  0  0  0  0  0  0  0  0  0  0  0
   -2.3660   25.2990  -28.9580 N   0  0  0  0  0  0  0  0  0  0  0  0
   -1.2600   25.3430  -28.1700 C   0  0  0  0  0  0  0  0  0  0  0  0
   -1.0703   26.2230  -27.5378 H   0  0  0  0  0  0  0  0  0  0  0  0
   -0.3640   24.2720  -28.1620 C   0  0  0  0  0  0  0  0  0  0  0  0
    0.5338   24.3030  -27.5273 H   0  0  0  0  0  0  0  0  0  0  0  0
   -0.6200   23.1620  -28.9680 C   0  0  0  0  0  0  0  0  0  0  0  0
    0.0773   22.3113  -28.9726 H   0  0  0  0  0  0  0  0  0  0  0  0
   -1.7640   23.1340  -29.7690 C   0  0  0  0  0  0  0  0  0  0  0  0
   -1.9752   22.2609  -30.4039 H   0  0  0  0  0  0  0  0  0  0  0  0
   -6.5840   20.8970  -32.2180 N   0  0  0  0  0  0  0  0  0  0  0  0
   -7.2850   19.7880  -32.5820 C   0  0  0  0  0  0  0  0  0  0  0  0
   -6.5500   18.6010  -33.0930 C   0  0  0  0  0  0  0  0  0  0  0  0
   -6.4450   17.4170  -32.3360 C   0  0  0  0  0  0  0  0  0  0  0  0
   -6.9227   17.3571  -31.3470 H   0  0  0  0  0  0  0  0  0  0  0  0
   -5.7380   16.3180  -32.8330 C   0  0  0  0  0  0  0  0  0  0  0  0
   -5.6656   15.3972  -32.2355 H   0  0  0  0  0  0  0  0  0  0  0  0
   -5.1230   16.3850  -34.0860 C   0  0  0  0  0  0  0  0  0  0  0  0
   -4.2370   15.0040  -34.7060 Cl  0  0  0  0  0  0  0  0  0  0  0  0
   -5.2100   17.5570  -34.8420 C   0  0  0  0  0  0  0  0  0  0  0  0
   -4.7229   17.6126  -35.8267 H   0  0  0  0  0  0  0  0  0  0  0  0
   -5.9150   18.6590  -34.3490 C   0  0  0  0  0  0  0  0  0  0  0  0
   -5.9744   19.5800  -34.9475 H   0  0  0  0  0  0  0  0  0  0  0  0
   -8.6850   19.8070  -32.4750 C   0  0  0  0  0  0  0  0  0  0  0  0
   -9.2818   18.9324  -32.7731 H   0  0  0  0  0  0  0  0  0  0  0  0
  1  2  1  0
  2  3  1  0
  3  4  1  0
  4  5  2  0
  5  6  1  0
  6  7  1  0
  6  8  1  0
  6  9  1  0
  9 10  1  0
  9 11  1  0
  9 12  1  0
 12 13  1  0
 12 14  1  0
 12 15  1  0
 15 16  2  0
 16 17  1  0
 17 18  1  0
 18 19  1  0
 18 20  2  0
 20 21  1  0
 20 22  1  0
 22 23  1  0
 22 24  2  0
 24 25  1  0
  4 26  1  0
 26 27  2  0
 27 28  1  0
 28 29  2  0
 29 30  1  0
 29 31  1  0
 31 32  1  0
 31 33  2  0
 33 34  1  0
 33 35  1  0
 35 36  1  0
 35 37  2  0
 37 38  1  0
 27 39  1  0
 39 40  1  0
 39  2  2  0
 24 16  1  0
 37 28  1  0
M  CHG  2   3  -1  17  -1
M  END
>  <UniqueID>  (30) 
28

>  <SMILES>  (30) 
FC(F)(C/N=c1/cccc[n-]1)C/N=c1/nc(-c2ccc(Cl)cc2)cc[n-]1

>  <Energy>  (30) 
44.62697823999934

>  <Genealogy>  (30) 
FC(F)(CN=c1cccc[n-]1)CN=c1nc(-c2ccc(Cl)cc2)cc[n-]1 (protonated)
FC(F)(C/N=c1/cccc[n-]1)C/N=c1/nc(-c2ccc(Cl)cc2)cc[n-]1 (cis-trans isomerization)
FC(F)(C/N=c1/cccc[n-]1)C/N=c1/nc(-c2ccc(Cl)cc2)cc[n-]1 (3D coordinates assigned)
FC(F)(C/N=c1/cccc[n-]1)C/N=c1/nc(-c2ccc(Cl)cc2)cc[n-]1 (optimized conformer: 44.62697823999934 kcal/mol)

>  <smiles>  (30) 
FC(F)(CN=c1cccc[nH]1)CN=c1nc(-c2ccc(Cl)cc2)cc[nH]1

>  <score_type>  (30) 
oracle

>  <origin>  (30) 
adgpu

>  <m_score__min__energy>  (30) 
-9.8699999999999992

>  <m_primary>  (30) 
energy

$$$$
30:0
     RDKit          3D

 28 30  0  0  0  0  0  0  0  0999 V2000
   -4.1500   22.3890  -31.8710 F   0  0  0  0  0  0  0  0  0  0  0  0
   -5.0150   23.2340  -31.2540 C   0  0  0  0  0  0  0  0  0  0  0  0
   -4.5090   24.4120  -30.6940 C   0  0  0  0  0  0  0  0  0  0  0  0
   -5.3640   25.3090  -30.0510 C   0  0  0  0  0  0  0  0  0  0  0  0
   -6.7290   25.0310  -29.9630 C   0  0  0  0  0  0  0  0  0  0  0  0
   -7.2420   23.8560  -30.5200 C   0  0  0  0  0  0  0  0  0  0  0  0
   -6.3930   22.9400  -31.1730 C   0  0  0  0  0  0  0  0  0  0  0  0
   -6.9460   21.6940  -31.7610 C   0  0  0  0  0  0  0  0  0  0  0  0
   -6.1850   20.6680  -32.2030 N   0  0  0  0  0  0  0  0  0  0  0  0
   -6.9190   19.6320  -32.7020 C   0  0  0  0  0  0  0  0  0  0  0  0
   -6.2600   18.4090  -33.2370 C   0  0  0  0  0  0  0  0  0  0  0  0
   -6.2870   17.2160  -32.4880 C   0  0  0  0  0  0  0  0  0  0  0  0
   -5.6750   16.0550  -32.9700 C   0  0  0  0  0  0  0  0  0  0  0  0
   -5.0270   16.0660  -34.2080 C   0  0  0  0  0  0  0  0  0  0  0  0
   -4.2600   14.6090  -34.8110 Cl  0  0  0  0  0  0  0  0  0  0  0  0
   -4.9920   17.2400  -34.9630 C   0  0  0  0  0  0  0  0  0  0  0  0
   -5.6030   18.4040  -34.4850 C   0  0  0  0  0  0  0  0  0  0  0  0
   -8.3010   19.8360  -32.6580 C   0  0  0  0  0  0  0  0  0  0  0  0
   -8.5790   21.3470  -31.9780 S   0  0  0  0  0  0  0  0  0  0  0  0
   -3.4333   24.6323  -30.7606 H   0  0  0  0  0  0  0  0  0  0  0  0
   -4.9619   26.2348  -29.6137 H   0  0  0  0  0  0  0  0  0  0  0  0
   -7.4018   25.7374  -29.4547 H   0  0  0  0  0  0  0  0  0  0  0  0
   -8.3190   23.6442  -30.4479 H   0  0  0  0  0  0  0  0  0  0  0  0
   -6.7954   17.1978  -31.5127 H   0  0  0  0  0  0  0  0  0  0  0  0
   -5.7037   15.1312  -32.3736 H   0  0  0  0  0  0  0  0  0  0  0  0
   -4.4819   17.2496  -35.9375 H   0  0  0  0  0  0  0  0  0  0  0  0
   -5.5708   19.3236  -35.0878 H   0  0  0  0  0  0  0  0  0  0  0  0
   -9.0706   19.1318  -33.0069 H   0  0  0  0  0  0  0  0  0  0  0  0
  1  2  1  0
  2  3  2  0
  3  4  1  0
  4  5  2  0
  5  6  1  0
  6  7  2  0
  7  8  1  0
  8  9  2  0
  9 10  1  0
 10 11  1  0
 11 12  2  0
 12 13  1  0
 13 14  2  0
 14 15  1  0
 14 16  1  0
 16 17  2  0
 10 18  2  0
 18 19  1  0
  7  2  1  0
 19  8  1  0
 17 11  1  0
  3 20  1  0
  4 21  1  0
  5 22  1  0
  6 23  1  0
 12 24  1  0
 13 25  1  0
 16 26  1  0
 17 27  1  0
 18 28  1  0
M  END
>  <UniqueID>  (31) 
29

>  <SMILES>  (31) 
Fc1ccccc1-c1nc(-c2ccc(Cl)cc2)cs1

>  <Energy>  (31) 
64.7951197074424

>  <Genealogy>  (31) 
Fc1ccccc1-c1nc(-c2ccc(Cl)cc2)cs1 (3D coordinates assigned)
Fc1ccccc1-c1nc(-c2ccc(Cl)cc2)cs1 (optimized conformer: 64.7951197074424 kcal/mol)

>  <smiles>  (31) 
Fc1ccccc1-c1nc(-c2ccc(Cl)cc2)cs1

>  <score_type>  (31) 
oracle

>  <origin>  (31) 
adgpu

>  <m_score__min__energy>  (31) 
-7.25

>  <m_primary>  (31) 
energy

$$$$
31:0
     RDKit          3D

 40 42  0  0  0  0  0  0  0  0999 V2000
   -0.6225   22.6056  -28.4957 H   0  0  0  0  0  0  0  0  0  0  0  0
   -1.1280   22.3920  -29.4490 C   0  0  0  0  0  0  0  0  0  0  0  0
   -0.4770   21.6440  -30.4300 C   0  0  0  0  0  0  0  0  0  0  0  0
    0.5405   21.2672  -30.2489 H   0  0  0  0  0  0  0  0  0  0  0  0
   -1.1160   21.3730  -31.6420 C   0  0  0  0  0  0  0  0  0  0  0  0
   -0.6012   20.7734  -32.4072 H   0  0  0  0  0  0  0  0  0  0  0  0
   -2.4100   21.8590  -31.8930 C   0  0  0  0  0  0  0  0  0  0  0  0
   -3.0720   21.5360  -33.2070 C   0  0  0  0  0  0  0  0  0  0  0  0
   -4.0462   21.0607  -33.0197 H   0  0  0  0  0  0  0  0  0  0  0  0
   -3.2205   22.4629  -33.7804 H   0  0  0  0  0  0  0  0  0  0  0  0
   -2.4328   20.8485  -33.7804 H   0  0  0  0  0  0  0  0  0  0  0  0
   -3.0720   22.6170  -30.8950 C   0  0  0  0  0  0  0  0  0  0  0  0
   -4.4610   23.0940  -31.0800 C   0  0  0  0  0  0  0  0  0  0  0  0
   -5.3770   22.2300  -31.5910 N   0  0  0  0  0  0  0  0  0  0  0  0
   -6.6820   22.5770  -31.7540 C   0  0  0  0  0  0  0  0  0  0  0  0
   -7.5360   21.7440  -32.2780 N   0  0  0  0  0  0  0  0  0  0  0  0
   -7.2860   20.3830  -32.6660 C   0  0  0  0  0  0  0  0  0  0  0  0
   -7.9770   19.3590  -32.0060 C   0  0  0  0  0  0  0  0  0  0  0  0
   -8.7052   19.6099  -31.2207 H   0  0  0  0  0  0  0  0  0  0  0  0
   -7.7480   18.0200  -32.3380 C   0  0  0  0  0  0  0  0  0  0  0  0
   -8.3156   17.2256  -31.8313 H   0  0  0  0  0  0  0  0  0  0  0  0
   -6.7980   17.6850  -33.3140 C   0  0  0  0  0  0  0  0  0  0  0  0
   -6.5810   16.2520  -33.6980 C   0  0  0  0  0  0  0  0  0  0  0  0
   -6.4882   15.6389  -32.7894 H   0  0  0  0  0  0  0  0  0  0  0  0
   -7.4358   15.8984  -34.2932 H   0  0  0  0  0  0  0  0  0  0  0  0
   -5.6598   16.1673  -34.2932 H   0  0  0  0  0  0  0  0  0  0  0  0
   -6.0930   18.7070  -33.9660 C   0  0  0  0  0  0  0  0  0  0  0  0
   -5.3558   18.4538  -34.7421 H   0  0  0  0  0  0  0  0  0  0  0  0
   -6.3220   20.0460  -33.6350 C   0  0  0  0  0  0  0  0  0  0  0  0
   -5.7464   20.8396  -34.1339 H   0  0  0  0  0  0  0  0  0  0  0  0
   -7.0920   23.8260  -31.4050 N   0  0  0  0  0  0  0  0  0  0  0  0
   -8.0910   24.1060  -31.5350 H   0  0  0  0  0  0  0  0  0  0  0  0
   -6.2150   24.7310  -30.8950 C   0  0  0  0  0  0  0  0  0  0  0  0
   -6.5668   25.7349  -30.6149 H   0  0  0  0  0  0  0  0  0  0  0  0
   -4.8680   24.3940  -30.7240 C   0  0  0  0  0  0  0  0  0  0  0  0
   -3.9450   25.3800  -30.2450 N   0  0  0  0  0  0  0  0  0  0  0  0
   -3.1070   25.6660  -30.7970 H   0  0  0  0  0  0  0  0  0  0  0  0
   -4.1280   25.8860  -29.3500 H   0  0  0  0  0  0  0  0  0  0  0  0
   -2.4200   22.8700  -29.6750 C   0  0  0  0  0  0  0  0  0  0  0  0
   -2.9321   23.4492  -28.8925 H   0  0  0  0  0  0  0  0  0  0  0  0
  1  2  1  0
  2  3  2  0
  3  4  1  0
  3  5  1  0
  5  6  1  0
  5  7  2  0
  7  8  1  0
  8  9  1  0
  8 10  1  0
  8 11  1  0
  7 12  1  0
 12 13  1  0
 13 14  2  0
 14 15  1  0
 15 16  2  0
 16 17  1  0
 17 18  2  0
 18 19  1  0
 18 20  1  0
 20 21  1  0
 20 22  2  0
 22 23  1  0
 23 24  1  0
 23 25  1  0
 23 26  1  0
 22 27  1  0
 27 28  1  0
 27 29  2  0
 29 30  1  0
 15 31  1  0
 31 32  1  0
 31 33  1  0
 33 34  1  0
 33 35  2  0
 35 36  1  0
 36 37  1  0
 36 38  1  0
 12 39  2  0
 39 40  1  0
 39  2  1  0
 35 13  1  0
 29 17  1  0
M  END
>  <UniqueID>  (32) 
30

>  <SMILES>  (32) 
Cc1ccc(/N=c2\nc(-c3ccccc3C)c(N)c[nH]2)cc1

>  <Energy>  (32) 
55.05523879592524

>  <Genealogy>  (32) 
Cc1ccc(/N=c2\nc(-c3ccccc3C)c(N)c[nH]2)cc1 (cis-trans isomerization)
Cc1ccc(/N=c2\nc(-c3ccccc3C)c(N)c[nH]2)cc1 (3D coordinates assigned)
Cc1ccc(/N=c2\nc(-c3ccccc3C)c(N)c[nH]2)cc1 (optimized conformer: 55.05523879592524 kcal/mol)

>  <smiles>  (32) 
Cc1ccc(N=c2nc(-c3ccccc3C)c(N)c[nH]2)cc1

>  <score_type>  (32) 
oracle

>  <origin>  (32) 
adgpu

>  <m_score__min__energy>  (32) 
-8.8200000000000003

>  <m_primary>  (32) 
energy

$$$$
32:0
     RDKit          3D

 58 60  0  0  1  0  0  0  0  0999 V2000
   -7.3310   17.8440  -32.5560 C   0  0  0  0  0  0  0  0  0  0  0  0
   -8.1850   18.5670  -31.5710 C   0  0  0  0  0  0  0  0  0  0  0  0
   -8.0310   20.0200  -31.6130 N   0  0  0  0  0  0  0  0  0  0  0  0
   -9.2230   20.6660  -32.1030 C   0  0  0  0  0  0  0  0  0  0  0  0
   -9.4070   22.0730  -31.5850 C   0  0  0  0  0  0  0  0  0  0  0  0
   -6.8780   20.2510  -32.4560 C   0  0  0  0  0  0  0  0  0  0  0  0
   -5.6420   20.6660  -31.7350 C   0  0  0  0  0  0  0  0  0  0  0  0
   -5.6610   22.1320  -31.3570 C   0  0  0  0  0  0  0  0  0  0  0  0
   -4.5460   22.9060  -31.9830 C   0  0  0  0  0  0  0  0  0  0  0  0
   -3.9990   23.9250  -31.1160 N   0  0  0  0  0  0  0  0  0  0  0  0
   -3.3380   23.6990  -30.0570 C   0  0  0  0  0  0  0  0  0  0  0  0
   -3.0950   22.4090  -29.6570 C   0  0  0  0  0  0  0  0  0  0  0  0
   -2.3710   22.2170  -28.5080 C   0  0  0  0  0  0  0  0  0  0  0  0
   -2.0560   20.8970  -27.9960 C   0  0  0  0  0  0  0  0  0  0  0  0
   -0.8680   20.2980  -28.3820 C   0  0  0  0  0  0  0  0  0  0  0  0
   -0.4910   19.0470  -27.9430 C   0  0  0  0  0  0  0  0  0  0  0  0
   -1.3250   18.3480  -27.0800 C   0  0  0  0  0  0  0  0  0  0  0  0
   -2.4980   18.9420  -26.7010 C   0  0  0  0  0  0  0  0  0  0  0  0
   -2.8670   20.1860  -27.1400 C   0  0  0  0  0  0  0  0  0  0  0  0
   -1.9320   23.2750  -27.8210 N   0  0  0  0  0  0  0  0  0  0  0  0
   -2.1640   24.5440  -28.2020 C   0  0  0  0  0  0  0  0  0  0  0  0
   -1.6380   25.6260  -27.3820 C   0  0  0  0  0  0  0  0  0  0  0  0
   -1.9710   25.7400  -26.0400 C   0  0  0  0  0  0  0  0  0  0  0  0
   -1.5000   26.7400  -25.2260 C   0  0  0  0  0  0  0  0  0  0  0  0
   -0.6530   27.6880  -25.7480 C   0  0  0  0  0  0  0  0  0  0  0  0
   -0.3070   27.5980  -27.0720 C   0  0  0  0  0  0  0  0  0  0  0  0
   -0.7850   26.5880  -27.8830 C   0  0  0  0  0  0  0  0  0  0  0  0
   -2.8680   24.7270  -29.3230 N   0  0  0  0  0  0  0  0  0  0  0  0
   -6.5979   17.2234  -32.0198 H   0  0  0  0  0  0  0  0  0  0  0  0
   -7.9628   17.2021  -33.1875 H   0  0  0  0  0  0  0  0  0  0  0  0
   -6.8021   18.5730  -33.1875 H   0  0  0  0  0  0  0  0  0  0  0  0
   -9.2373   18.3234  -31.7793 H   0  0  0  0  0  0  0  0  0  0  0  0
   -7.8679   18.2395  -30.5699 H   0  0  0  0  0  0  0  0  0  0  0  0
   -9.1711   20.7041  -33.2011 H   0  0  0  0  0  0  0  0  0  0  0  0
  -10.0793   20.0763  -31.7439 H   0  0  0  0  0  0  0  0  0  0  0  0
   -9.4055   22.0619  -30.4851 H   0  0  0  0  0  0  0  0  0  0  0  0
   -8.5842   22.7073  -31.9464 H   0  0  0  0  0  0  0  0  0  0  0  0
  -10.3653   22.4744  -31.9464 H   0  0  0  0  0  0  0  0  0  0  0  0
   -6.6598   19.3191  -32.9981 H   0  0  0  0  0  0  0  0  0  0  0  0
   -7.1440   21.0895  -33.1165 H   0  0  0  0  0  0  0  0  0  0  0  0
   -5.5491   20.0656  -30.8180 H   0  0  0  0  0  0  0  0  0  0  0  0
   -4.7887   20.5040  -32.4100 H   0  0  0  0  0  0  0  0  0  0  0  0
   -6.6172   22.5668  -31.6835 H   0  0  0  0  0  0  0  0  0  0  0  0
   -5.5358   22.1944  -30.2659 H   0  0  0  0  0  0  0  0  0  0  0  0
   -3.7410   22.2051  -32.2489 H   0  0  0  0  0  0  0  0  0  0  0  0
   -4.9596   23.4169  -32.8650 H   0  0  0  0  0  0  0  0  0  0  0  0
   -3.4695   21.5548  -30.2402 H   0  0  0  0  0  0  0  0  0  0  0  0
   -0.1995   20.8420  -29.0655 H   0  0  0  0  0  0  0  0  0  0  0  0
    0.4614   18.6064  -28.2730 H   0  0  0  0  0  0  0  0  0  0  0  0
   -1.0511   17.3480  -26.7126 H   0  0  0  0  0  0  0  0  0  0  0  0
   -3.1695   18.4005  -26.0185 H   0  0  0  0  0  0  0  0  0  0  0  0
   -3.8203   20.6211  -26.8055 H   0  0  0  0  0  0  0  0  0  0  0  0
   -2.6479   24.9897  -25.6055 H   0  0  0  0  0  0  0  0  0  0  0  0
   -1.7972   26.7820  -24.1677 H   0  0  0  0  0  0  0  0  0  0  0  0
   -0.2615   28.5005  -25.1182 H   0  0  0  0  0  0  0  0  0  0  0  0
    0.3704   28.3517  -27.4999 H   0  0  0  0  0  0  0  0  0  0  0  0
   -0.4826   26.5498  -28.9399 H   0  0  0  0  0  0  0  0  0  0  0  0
   -3.0720   25.6770  -29.6550 H   0  0  0  0  0  0  0  0  0  0  0  0
  1  2  1  0
  2  3  1  0
  3  4  1  0
  4  5  1  0
  3  6  1  0
  6  7  1  0
  7  8  1  0
  8  9  1  0
  9 10  1  0
 10 11  2  0
 11 12  1  0
 12 13  2  0
 13 14  1  0
 14 15  2  0
 15 16  1  0
 16 17  2  0
 17 18  1  0
 18 19  2  0
 13 20  1  0
 20 21  2  0
 21 22  1  0
 22 23  2  0
 23 24  1  0
 24 25  2  0
 25 26  1  0
 26 27  2  0
 21 28  1  0
 28 11  1  0
 19 14  1  0
 27 22  1  0
  1 29  1  0
  1 30  1  0
  1 31  1  0
  2 32  1  0
  2 33  1  0
  4 34  1  0
  4 35  1  0
  5 36  1  0
  5 37  1  0
  5 38  1  0
  6 39  1  0
  6 40  1  0
  7 41  1  0
  7 42  1  0
  8 43  1  0
  8 44  1  0
  9 45  1  0
  9 46  1  0
 12 47  1  0
 15 48  1  0
 16 49  1  0
 17 50  1  0
 18 51  1  0
 19 52  1  0
 23 53  1  0
 24 54  1  0
 25 55  1  0
 26 56  1  0
 27 57  1  0
 28 58  1  0
M  END
>  <smiles>  (33) 
CCN(CC)CCCCN=c1cc(-c2ccccc2)nc(-c2ccccc2)[nH]1

>  <score_type>  (33) 
oracle

>  <origin>  (33) 
adgpu

>  <m_score__min__energy>  (33) 
-9.3900000000000006

>  <m_primary>  (33) 
energy

$$$$
33:0
     RDKit          3D

 42 44  0  0  0  0  0  0  0  0999 V2000
   -6.6020   17.6710  -31.2200 C   0  0  0  0  0  0  0  0  0  0  0  0
   -7.5570   18.1650  -32.2320 N   0  0  0  0  0  0  0  0  0  0  0  0
   -6.8690   18.5390  -33.4890 C   0  0  0  0  0  0  0  0  0  0  0  0
   -5.9500   19.7570  -33.2960 C   0  0  0  0  0  0  0  0  0  0  0  0
   -6.5700   20.7550  -32.4140 N   0  0  0  0  0  0  0  0  0  0  0  0
   -5.7850   21.8160  -31.8220 C   0  0  0  0  0  0  0  0  0  0  0  0
   -6.3960   22.9030  -31.1690 C   0  0  0  0  0  0  0  0  0  0  0  0
   -5.6040   23.9160  -30.6250 C   0  0  0  0  0  0  0  0  0  0  0  0
   -4.2130   23.8590  -30.7400 C   0  0  0  0  0  0  0  0  0  0  0  0
   -3.4180   24.9060  -30.1620 N   0  0  0  0  0  0  0  0  0  0  0  0
   -2.3310   24.7320  -29.2440 C   0  0  0  0  0  0  0  0  0  0  0  0
   -1.6040   25.7260  -28.9760 O   0  0  0  0  0  0  0  0  0  0  0  0
   -2.0080   23.4150  -28.6450 C   0  0  0  0  0  0  0  0  0  0  0  0
   -3.0260   22.6300  -28.0760 C   0  0  0  0  0  0  0  0  0  0  0  0
   -2.7260   21.3880  -27.5070 C   0  0  0  0  0  0  0  0  0  0  0  0
   -1.4100   20.9230  -27.4930 C   0  0  0  0  0  0  0  0  0  0  0  0
   -0.3870   21.7010  -28.0420 C   0  0  0  0  0  0  0  0  0  0  0  0
    0.8920   21.2530  -28.0180 F   0  0  0  0  0  0  0  0  0  0  0  0
   -0.6820   22.9450  -28.6110 C   0  0  0  0  0  0  0  0  0  0  0  0
   -3.6350   22.7500  -31.3730 C   0  0  0  0  0  0  0  0  0  0  0  0
   -4.4240   21.7740  -31.8940 N   0  0  0  0  0  0  0  0  0  0  0  0
   -8.0170   20.6680  -32.1830 C   0  0  0  0  0  0  0  0  0  0  0  0
   -8.4080   19.2610  -31.6870 C   0  0  0  0  0  0  0  0  0  0  0  0
   -6.9962   17.8749  -30.2135 H   0  0  0  0  0  0  0  0  0  0  0  0
   -6.4618   16.5873  -31.3463 H   0  0  0  0  0  0  0  0  0  0  0  0
   -5.6365   18.1828  -31.3463 H   0  0  0  0  0  0  0  0  0  0  0  0
   -8.1870   17.3580  -32.4620 H   0  0  0  0  0  0  0  0  0  0  0  0
   -6.2635   17.6866  -33.8308 H   0  0  0  0  0  0  0  0  0  0  0  0
   -7.6352   18.8030  -34.2329 H   0  0  0  0  0  0  0  0  0  0  0  0
   -5.0013   19.4238  -32.8499 H   0  0  0  0  0  0  0  0  0  0  0  0
   -5.7747   20.2206  -34.2780 H   0  0  0  0  0  0  0  0  0  0  0  0
   -7.4918   22.9541  -31.0877 H   0  0  0  0  0  0  0  0  0  0  0  0
   -6.0769   24.7617  -30.1042 H   0  0  0  0  0  0  0  0  0  0  0  0
   -4.0639   22.9944  -28.0783 H   0  0  0  0  0  0  0  0  0  0  0  0
   -3.5289   20.7764  -27.0696 H   0  0  0  0  0  0  0  0  0  0  0  0
   -1.1779   19.9435  -27.0495 H   0  0  0  0  0  0  0  0  0  0  0  0
    0.1270   23.5588  -29.0340 H   0  0  0  0  0  0  0  0  0  0  0  0
   -2.5405   22.6696  -31.4482 H   0  0  0  0  0  0  0  0  0  0  0  0
   -8.3067   21.4110  -31.4254 H   0  0  0  0  0  0  0  0  0  0  0  0
   -8.5383   20.8654  -33.1313 H   0  0  0  0  0  0  0  0  0  0  0  0
   -8.3285   19.2470  -30.5900 H   0  0  0  0  0  0  0  0  0  0  0  0
   -9.4323   19.0732  -32.0413 H   0  0  0  0  0  0  0  0  0  0  0  0
  1  2  1  0
  2  3  1  0
  3  4  1  0
  4  5  1  0
  5  6  1  0
  6  7  2  0
  7  8  1  0
  8  9  2  0
  9 10  1  0
 10 11  1  0
 11 12  2  0
 11 13  1  0
 13 14  2  0
 14 15  1  0
 15 16  2  0
 16 17  1  0
 17 18  1  0
 17 19  2  0
  9 20  1  0
 20 21  2  0
  5 22  1  0
 22 23  1  0
 23  2  1  0
 21  6  1  0
 19 13  1  0
  1 24  1  0
  1 25  1  0
  1 26  1  0
  2 27  1  0
  3 28  1  0
  3 29  1  0
  4 30  1  0
  4 31  1  0
  7 32  1  0
  8 33  1  0
 14 34  1  0
 15 35  1  0
 16 36  1  0
 19 37  1  0
 20 38  1  0
 22 39  1  0
 22 40  1  0
 23 41  1  0
 23 42  1  0
M  CHG  2   2   1  10  -1
M  END
>  <UniqueID>  (34) 
31

>  <SMILES>  (34) 
C[NH+]1CCN(c2ccc([N-]C(=O)c3cccc(F)c3)cn2)CC1

>  <Energy>  (34) 
61.0909276862814

>  <Genealogy>  (34) 
C[NH+]1CCN(c2ccc([N-]C(=O)c3cccc(F)c3)cn2)CC1 (protonated)
C[NH+]1CCN(c2ccc([N-]C(=O)c3cccc(F)c3)cn2)CC1 (3D coordinates assigned)
C[NH+]1CCN(c2ccc([N-]C(=O)c3cccc(F)c3)cn2)CC1 (nonaromatic ring conformer: 61.0909276862814 kcal/mol)

>  <smiles>  (34) 
CN1CCN(c2ccc(NC(=O)c3cccc(F)c3)cn2)CC1

>  <score_type>  (34) 
oracle

>  <origin>  (34) 
adgpu

>  <m_score__min__energy>  (34) 
-8.8499999999999996

>  <m_primary>  (34) 
energy

$$$$
34:0
     RDKit          3D

 37 38  0  0  0  0  0  0  0  0999 V2000
   -2.5810   19.6260  -27.0200 C   0  0  0  0  0  0  0  0  0  0  0  0
   -1.7670   20.3800  -27.9810 N   0  0  0  0  0  0  0  0  0  0  0  0
   -0.4160   19.8990  -28.2970 C   0  0  0  0  0  0  0  0  0  0  0  0
   -2.2900   21.5790  -28.6120 C   0  0  0  0  0  0  0  0  0  0  0  0
   -2.7180   22.6770  -27.8350 C   0  0  0  0  0  0  0  0  0  0  0  0
   -3.2250   23.8290  -28.4430 C   0  0  0  0  0  0  0  0  0  0  0  0
   -3.3320   23.9050  -29.8390 C   0  0  0  0  0  0  0  0  0  0  0  0
   -3.8250   25.0830  -30.4900 N   0  0  0  0  0  0  0  0  0  0  0  0
   -5.1710   25.5740  -30.4510 C   0  0  0  0  0  0  0  0  0  0  0  0
   -5.3630   26.8180  -30.4570 O   0  0  0  0  0  0  0  0  0  0  0  0
   -6.3610   24.6540  -30.4870 C   0  0  0  0  0  0  0  0  0  0  0  0
   -6.4260   23.9790  -31.7430 O   0  0  0  0  0  0  0  0  0  0  0  0
   -7.0630   22.7460  -31.9640 C   0  0  0  0  0  0  0  0  0  0  0  0
   -8.4240   22.6380  -31.6530 C   0  0  0  0  0  0  0  0  0  0  0  0
   -9.1060   21.4350  -31.8570 C   0  0  0  0  0  0  0  0  0  0  0  0
   -8.4300   20.3260  -32.3740 C   0  0  0  0  0  0  0  0  0  0  0  0
   -7.0710   20.4200  -32.6870 C   0  0  0  0  0  0  0  0  0  0  0  0
   -6.1450   18.9050  -33.3930 Br  0  0  0  0  0  0  0  0  0  0  0  0
   -6.3870   21.6230  -32.4810 C   0  0  0  0  0  0  0  0  0  0  0  0
   -2.8840   22.8370  -30.6190 C   0  0  0  0  0  0  0  0  0  0  0  0
   -2.3770   21.6820  -30.0160 C   0  0  0  0  0  0  0  0  0  0  0  0
   -2.2862   19.8991  -25.9960 H   0  0  0  0  0  0  0  0  0  0  0  0
   -3.6437   19.8659  -27.1719 H   0  0  0  0  0  0  0  0  0  0  0  0
   -2.4231   18.5480  -27.1719 H   0  0  0  0  0  0  0  0  0  0  0  0
    0.1316   19.7040  -27.3631 H   0  0  0  0  0  0  0  0  0  0  0  0
   -0.4850   18.9702  -28.8823 H   0  0  0  0  0  0  0  0  0  0  0  0
    0.1175   20.6624  -28.8823 H   0  0  0  0  0  0  0  0  0  0  0  0
   -2.6518   22.6255  -26.7382 H   0  0  0  0  0  0  0  0  0  0  0  0
   -3.5418   24.6806  -27.8229 H   0  0  0  0  0  0  0  0  0  0  0  0
   -6.2707   23.9118  -29.6802 H   0  0  0  0  0  0  0  0  0  0  0  0
   -7.2771   25.2476  -30.3514 H   0  0  0  0  0  0  0  0  0  0  0  0
   -8.9609   23.5070  -31.2448 H   0  0  0  0  0  0  0  0  0  0  0  0
  -10.1755   21.3609  -31.6105 H   0  0  0  0  0  0  0  0  0  0  0  0
   -8.9674   19.3797  -32.5344 H   0  0  0  0  0  0  0  0  0  0  0  0
   -5.3164   21.6925  -32.7238 H   0  0  0  0  0  0  0  0  0  0  0  0
   -2.9303   22.9049  -31.7159 H   0  0  0  0  0  0  0  0  0  0  0  0
   -2.0419   20.8435  -30.6441 H   0  0  0  0  0  0  0  0  0  0  0  0
  1  2  1  0
  2  3  1  0
  2  4  1  0
  4  5  2  0
  5  6  1  0
  6  7  2  0
  7  8  1  0
  8  9  1  0
  9 10  2  0
  9 11  1  0
 11 12  1  0
 12 13  1  0
 13 14  2  0
 14 15  1  0
 15 16  2  0
 16 17  1  0
 17 18  1  0
 17 19  2  0
  7 20  1  0
 20 21  2  0
 21  4  1  0
 19 13  1  0
  1 22  1  0
  1 23  1  0
  1 24  1  0
  3 25  1  0
  3 26  1  0
  3 27  1  0
  5 28  1  0
  6 29  1  0
 11 30  1  0
 11 31  1  0
 14 32  1  0
 15 33  1  0
 16 34  1  0
 19 35  1  0
 20 36  1  0
 21 37  1  0
M  CHG  1   8  -1
M  END
>  <UniqueID>  (35) 
32

>  <SMILES>  (35) 
CN(C)c1ccc([N-]C(=O)COc2cccc(Br)c2)cc1

>  <Energy>  (35) 
42.182096830567524

>  <Genealogy>  (35) 
CN(C)c1ccc([N-]C(=O)COc2cccc(Br)c2)cc1 (protonated)
CN(C)c1ccc([N-]C(=O)COc2cccc(Br)c2)cc1 (3D coordinates assigned)
CN(C)c1ccc([N-]C(=O)COc2cccc(Br)c2)cc1 (optimized conformer: 42.182096830567524 kcal/mol)

>  <smiles>  (35) 
CN(C)c1ccc(NC(=O)COc2cccc(Br)c2)cc1

>  <score_type>  (35) 
oracle

>  <origin>  (35) 
adgpu

>  <m_score__min__energy>  (35) 
-9.3300000000000001

>  <m_primary>  (35) 
energy

$$$$
35:0
     RDKit          3D

 37 39  0  0  0  0  0  0  0  0999 V2000
   -2.9977   18.3822  -32.1975 H   0  0  0  0  0  0  0  0  0  0  0  0
   -2.2420   19.1680  -32.3440 C   0  0  0  0  0  0  0  0  0  0  0  0
   -1.5560   19.2590  -33.5580 C   0  0  0  0  0  0  0  0  0  0  0  0
   -1.7658   18.5399  -34.3635 H   0  0  0  0  0  0  0  0  0  0  0  0
   -0.6020   20.2650  -33.7490 C   0  0  0  0  0  0  0  0  0  0  0  0
    0.2440   20.3920  -35.2800 Cl  0  0  0  0  0  0  0  0  0  0  0  0
   -0.3260   21.1720  -32.7180 C   0  0  0  0  0  0  0  0  0  0  0  0
    0.4114   21.9728  -32.8760 H   0  0  0  0  0  0  0  0  0  0  0  0
   -0.9840   21.0640  -31.4880 C   0  0  0  0  0  0  0  0  0  0  0  0
   -0.7150   22.0330  -30.4600 N   0  0  0  0  0  0  0  0  0  0  0  0
   -1.4550   23.0570  -30.1230 C   0  0  0  0  0  0  0  0  0  0  0  0
   -2.7410   23.2620  -30.6490 C   0  0  0  0  0  0  0  0  0  0  0  0
   -3.1757   22.5321  -31.3478 H   0  0  0  0  0  0  0  0  0  0  0  0
   -3.4660   24.4000  -30.2790 C   0  0  0  0  0  0  0  0  0  0  0  0
   -4.7430   24.6660  -30.7940 O   0  0  0  0  0  0  0  0  0  0  0  0
   -5.6720   23.6970  -31.2030 C   0  0  0  0  0  0  0  0  0  0  0  0
   -7.0160   23.8580  -30.8440 C   0  0  0  0  0  0  0  0  0  0  0  0
   -7.3238   24.7361  -30.2573 H   0  0  0  0  0  0  0  0  0  0  0  0
   -7.9690   22.9090  -31.2270 C   0  0  0  0  0  0  0  0  0  0  0  0
   -9.0218   23.0398  -30.9362 H   0  0  0  0  0  0  0  0  0  0  0  0
   -7.5860   21.7940  -31.9790 C   0  0  0  0  0  0  0  0  0  0  0  0
   -8.3352   21.0420  -32.2675 H   0  0  0  0  0  0  0  0  0  0  0  0
   -6.2500   21.6340  -32.3650 C   0  0  0  0  0  0  0  0  0  0  0  0
   -5.8550   20.4890  -33.1420 C   0  0  0  0  0  0  0  0  0  0  0  0
   -5.5350   19.5690  -33.7660 N   0  0  0  0  0  0  0  0  0  0  0  0
   -5.2970   22.5900  -31.9900 C   0  0  0  0  0  0  0  0  0  0  0  0
   -4.2512   22.4759  -32.3114 H   0  0  0  0  0  0  0  0  0  0  0  0
   -2.9370   25.2480  -29.3620 N   0  0  0  0  0  0  0  0  0  0  0  0
   -1.7340   25.0490  -28.8160 N   0  0  0  0  0  0  0  0  0  0  0  0
   -1.2460   26.0170  -27.8330 C   0  0  0  0  0  0  0  0  0  0  0  0
   -1.4373   25.6375  -26.8184 H   0  0  0  0  0  0  0  0  0  0  0  0
   -0.1649   26.1663  -27.9708 H   0  0  0  0  0  0  0  0  0  0  0  0
   -1.7689   26.9749  -27.9708 H   0  0  0  0  0  0  0  0  0  0  0  0
   -0.9710   23.9710  -29.1740 C   0  0  0  0  0  0  0  0  0  0  0  0
    0.1690   23.7980  -28.6600 O   0  0  0  0  0  0  0  0  0  0  0  0
   -1.9690   20.0740  -31.3160 C   0  0  0  0  0  0  0  0  0  0  0  0
   -2.5258   20.0132  -30.3693 H   0  0  0  0  0  0  0  0  0  0  0  0
  1  2  1  0
  2  3  2  0
  3  4  1  0
  3  5  1  0
  5  6  1  0
  5  7  2  0
  7  8  1  0
  7  9  1  0
  9 10  1  0
 10 11  2  0
 11 12  1  0
 12 13  1  0
 12 14  2  0
 14 15  1  0
 15 16  1  0
 16 17  2  0
 17 18  1  0
 17 19  1  0
 19 20  1  0
 19 21  2  0
 21 22  1  0
 21 23  1  0
 23 24  1  0
 24 25  3  0
 23 26  2  0
 26 27  1  0
 14 28  1  0
 28 29  1  0
 29 30  1  0
 30 31  1  0
 30 32  1  0
 30 33  1  0
 29 34  1  0
 34 35  2  0
  9 36  2  0
 36 37  1  0
 36  2  1  0
 34 11  1  0
 26 16  1  0
M  CHG  1  28  -1
M  END
>  <UniqueID>  (36) 
33

>  <SMILES>  (36) 
Cn1[n-]c(Oc2cccc(C#N)c2)c/c(=N\c2cccc(Cl)c2)c1=O

>  <Energy>  (36) 
55.40885938565802

>  <Genealogy>  (36) 
Cn1[n-]c(Oc2cccc(C#N)c2)cc(=Nc2cccc(Cl)c2)c1=O (protonated)
Cn1[n-]c(Oc2cccc(C#N)c2)c/c(=N\c2cccc(Cl)c2)c1=O (cis-trans isomerization)
Cn1[n-]c(Oc2cccc(C#N)c2)c/c(=N\c2cccc(Cl)c2)c1=O (3D coordinates assigned)
Cn1[n-]c(Oc2cccc(C#N)c2)c/c(=N\c2cccc(Cl)c2)c1=O (optimized conformer: 55.40885938565802 kcal/mol)

>  <smiles>  (36) 
Cn1[nH]c(Oc2cccc(C#N)c2)cc(=Nc2cccc(Cl)c2)c1=O

>  <score_type>  (36) 
oracle

>  <origin>  (36) 
adgpu

>  <m_score__min__energy>  (36) 
-9.9000000000000004

>  <m_primary>  (36) 
energy

$$$$
36:0
     RDKit          3D

 31 33  0  0  0  0  0  0  0  0999 V2000
   -5.9670   25.6760  -30.1210 C   0  0  0  0  0  0  0  0  0  0  0  0
   -4.8630   25.3160  -30.9450 O   0  0  0  0  0  0  0  0  0  0  0  0
   -4.1500   24.1100  -30.8440 C   0  0  0  0  0  0  0  0  0  0  0  0
   -4.5590   22.9460  -31.5250 C   0  0  0  0  0  0  0  0  0  0  0  0
   -3.8270   21.7520  -31.4070 C   0  0  0  0  0  0  0  0  0  0  0  0
   -4.2610   20.5310  -32.1240 C   0  0  0  0  0  0  0  0  0  0  0  0
   -3.7090   20.1310  -33.3050 N   0  0  0  0  0  0  0  0  0  0  0  0
   -4.3940   19.0130  -33.5710 C   0  0  0  0  0  0  0  0  0  0  0  0
   -4.2420   18.2120  -34.6540 N   0  0  0  0  0  0  0  0  0  0  0  0
   -5.0350   17.1030  -34.7720 C   0  0  0  0  0  0  0  0  0  0  0  0
   -5.9930   16.7910  -33.7720 C   0  0  0  0  0  0  0  0  0  0  0  0
   -6.8880   15.5980  -33.9270 C   0  0  0  0  0  0  0  0  0  0  0  0
   -6.1410   17.6530  -32.6640 C   0  0  0  0  0  0  0  0  0  0  0  0
   -5.3040   18.7610  -32.6020 C   0  0  0  0  0  0  0  0  0  0  0  0
   -5.2480   19.7130  -31.6610 N   0  0  0  0  0  0  0  0  0  0  0  0
   -2.6790   21.7310  -30.5990 C   0  0  0  0  0  0  0  0  0  0  0  0
   -2.2670   22.8800  -29.9210 C   0  0  0  0  0  0  0  0  0  0  0  0
   -0.8250   22.8170  -28.9190 Cl  0  0  0  0  0  0  0  0  0  0  0  0
   -2.9970   24.0700  -30.0400 C   0  0  0  0  0  0  0  0  0  0  0  0
   -2.5660   25.2060  -29.3530 O   0  0  0  0  0  0  0  0  0  0  0  0
   -5.6807   25.5826  -29.0630 H   0  0  0  0  0  0  0  0  0  0  0  0
   -6.2582   26.7156  -30.3317 H   0  0  0  0  0  0  0  0  0  0  0  0
   -6.8150   25.0078  -30.3317 H   0  0  0  0  0  0  0  0  0  0  0  0
   -5.4602   22.9722  -32.1552 H   0  0  0  0  0  0  0  0  0  0  0  0
   -4.9292   16.4478  -35.6492 H   0  0  0  0  0  0  0  0  0  0  0  0
   -7.1712   15.2205  -32.9334 H   0  0  0  0  0  0  0  0  0  0  0  0
   -7.7931   15.8881  -34.4807 H   0  0  0  0  0  0  0  0  0  0  0  0
   -6.3563   14.8102  -34.4807 H   0  0  0  0  0  0  0  0  0  0  0  0
   -6.8884   17.4559  -31.8814 H   0  0  0  0  0  0  0  0  0  0  0  0
   -2.0992   20.8015  -30.4992 H   0  0  0  0  0  0  0  0  0  0  0  0
   -3.1000   26.0670  -29.3400 H   0  0  0  0  0  0  0  0  0  0  0  0
  1  2  1  0
  2  3  1  0
  3  4  2  0
  4  5  1  0
  5  6  1  0
  6  7  2  0
  7  8  1  0
  8  9  2  0
  9 10  1  0
 10 11  2  0
 11 12  1  0
 11 13  1  0
 13 14  2  0
 14 15  1  0
  5 16  2  0
 16 17  1  0
 17 18  1  0
 17 19  2  0
 19 20  1  0
 19  3  1  0
 15  6  1  0
 14  8  1  0
  1 21  1  0
  1 22  1  0
  1 23  1  0
  4 24  1  0
 10 25  1  0
 12 26  1  0
 12 27  1  0
 12 28  1  0
 13 29  1  0
 16 30  1  0
 20 31  1  0
M  CHG  1  15  -1
M  END
>  <UniqueID>  (37) 
34

>  <SMILES>  (37) 
COc1cc(-c2nc3ncc(C)cc3[n-]2)cc(Cl)c1O

>  <Energy>  (37) 
70.36013172796268

>  <Genealogy>  (37) 
COc1cc(-c2nc3ncc(C)cc3[n-]2)cc(Cl)c1O (protonated)
COc1cc(-c2nc3ncc(C)cc3[n-]2)cc(Cl)c1O (3D coordinates assigned)
COc1cc(-c2nc3ncc(C)cc3[n-]2)cc(Cl)c1O (optimized conformer: 70.36013172796268 kcal/mol)

>  <smiles>  (37) 
COc1cc(-c2nc3ncc(C)cc3[nH]2)cc(Cl)c1O

>  <score_type>  (37) 
oracle

>  <origin>  (37) 
adgpu

>  <m_score__min__energy>  (37) 
-7.5300000000000002

>  <m_primary>  (37) 
energy

$$$$
37:0
     RDKit          3D

 30 32  0  0  0  0  0  0  0  0999 V2000
    1.6022   21.1631  -33.1906 H   0  0  0  0  0  0  0  0  0  0  0  0
    0.5450   20.8600  -33.1690 C   0  0  0  0  0  0  0  0  0  0  0  0
    0.0420   20.1560  -32.0710 C   0  0  0  0  0  0  0  0  0  0  0  0
    0.7018   19.9124  -31.2252 H   0  0  0  0  0  0  0  0  0  0  0  0
   -1.3000   19.7610  -32.0470 C   0  0  0  0  0  0  0  0  0  0  0  0
   -1.6982   19.2210  -31.1753 H   0  0  0  0  0  0  0  0  0  0  0  0
   -2.1390   20.0530  -33.1340 C   0  0  0  0  0  0  0  0  0  0  0  0
   -3.5270   19.6950  -33.1060 N   0  0  0  0  0  0  0  0  0  0  0  0
   -4.5120   20.4500  -32.7050 C   0  0  0  0  0  0  0  0  0  0  0  0
   -5.8770   19.8860  -32.7380 C   0  0  0  0  0  0  0  0  0  0  0  0
   -6.0450   18.6910  -33.1080 O   0  0  0  0  0  0  0  0  0  0  0  0
   -7.0410   20.7140  -32.3540 C   0  0  0  0  0  0  0  0  0  0  0  0
   -8.3370   20.1640  -32.3420 C   0  0  0  0  0  0  0  0  0  0  0  0
   -8.4826   19.1029  -32.5929 H   0  0  0  0  0  0  0  0  0  0  0  0
   -9.4380   20.9560  -32.0140 C   0  0  0  0  0  0  0  0  0  0  0  0
  -10.4465   20.5170  -32.0037 H   0  0  0  0  0  0  0  0  0  0  0  0
   -9.2620   22.3040  -31.6990 C   0  0  0  0  0  0  0  0  0  0  0  0
  -10.1319   22.9268  -31.4434 H   0  0  0  0  0  0  0  0  0  0  0  0
   -7.9820   22.8630  -31.7080 C   0  0  0  0  0  0  0  0  0  0  0  0
   -7.8489   23.9269  -31.4623 H   0  0  0  0  0  0  0  0  0  0  0  0
   -6.8620   22.0750  -32.0290 C   0  0  0  0  0  0  0  0  0  0  0  0
   -5.5050   22.6640  -32.0310 C   0  0  0  0  0  0  0  0  0  0  0  0
   -5.3620   23.9160  -31.9550 O   0  0  0  0  0  0  0  0  0  0  0  0
   -4.2750   21.7990  -32.0500 C   0  0  1  0  0  0  0  0  0  0  0  0
   -3.5122   22.3209  -32.6465 H   0  0  0  0  0  0  0  0  0  0  0  0
   -3.7290   21.5430  -30.3720 Cl  0  0  0  0  0  0  0  0  0  0  0  0
   -1.6380   20.7850  -34.2180 C   0  0  0  0  0  0  0  0  0  0  0  0
   -2.3015   21.0507  -35.0541 H   0  0  0  0  0  0  0  0  0  0  0  0
   -0.2960   21.1790  -34.2400 C   0  0  0  0  0  0  0  0  0  0  0  0
    0.0981   21.7401  -35.1002 H   0  0  0  0  0  0  0  0  0  0  0  0
  1  2  1  0
  2  3  2  0
  3  4  1  0
  3  5  1  0
  5  6  1  0
  5  7  2  0
  7  8  1  0
  8  9  2  0
  9 10  1  0
 10 11  2  0
 10 12  1  0
 12 13  2  0
 13 14  1  0
 13 15  1  0
 15 16  1  0
 15 17  2  0
 17 18  1  0
 17 19  1  0
 19 20  1  0
 19 21  2  0
 21 22  1  0
 22 23  2  0
 22 24  1  0
 24 25  1  6
 24 26  1  0
  7 27  1  0
 27 28  1  0
 27 29  2  0
 29 30  1  0
 29  2  1  0
 24  9  1  0
 21 12  1  0
M  END
>  <UniqueID>  (38) 
35

>  <SMILES>  (38) 
O=C1/C(=N/c2ccccc2)[C@H](Cl)C(=O)c2ccccc21

>  <Energy>  (38) 
44.14729155902593

>  <Genealogy>  (38) 
O=C1C(=Nc2ccccc2)[C@H](Cl)C(=O)c2ccccc21 (chirality)
O=C1/C(=N/c2ccccc2)[C@H](Cl)C(=O)c2ccccc21 (cis-trans isomerization)
O=C1/C(=N/c2ccccc2)[C@H](Cl)C(=O)c2ccccc21 (3D coordinates assigned)
O=C1/C(=N/c2ccccc2)[C@H](Cl)C(=O)c2ccccc21 (nonaromatic ring conformer: 44.14729155902593 kcal/mol)

>  <smiles>  (38) 
O=C1C(=Nc2ccccc2)C(Cl)C(=O)c2ccccc21

>  <score_type>  (38) 
oracle

>  <origin>  (38) 
adgpu

>  <m_score__min__energy>  (38) 
-7.46

>  <m_primary>  (38) 
energy

$$$$
38:0
     RDKit          3D

 34 35  0  0  0  0  0  0  0  0999 V2000
   -6.3320   25.7200  -29.4070 C   0  0  0  0  0  0  0  0  0  0  0  0
   -6.0090   24.5520  -30.2760 C   0  0  0  0  0  0  0  0  0  0  0  0
   -6.9370   23.7390  -30.8190 N   0  0  0  0  0  0  0  0  0  0  0  0
   -6.3060   22.8770  -31.6050 N   0  0  0  0  0  0  0  0  0  0  0  0
   -6.9930   21.8210  -32.3410 C   0  0  0  0  0  0  0  0  0  0  0  0
   -4.9750   23.1190  -31.5850 C   0  0  0  0  0  0  0  0  0  0  0  0
   -3.9430   22.2990  -32.2990 C   0  0  0  0  0  0  0  0  0  0  0  0
   -4.7620   24.2110  -30.7590 C   0  0  0  0  0  0  0  0  0  0  0  0
   -3.5450   24.9050  -30.4610 N   0  0  0  0  0  0  0  0  0  0  0  0
   -2.5270   24.5770  -29.0960 S   0  0  0  0  0  0  0  0  0  0  0  0
   -3.2640   24.9080  -27.8280 O   0  0  0  0  0  0  0  0  0  0  0  0
   -1.3010   25.4420  -29.1870 O   0  0  0  0  0  0  0  0  0  0  0  0
   -2.0140   22.8920  -29.1000 C   0  0  0  0  0  0  0  0  0  0  0  0
   -1.2810   22.3780  -30.1770 C   0  0  0  0  0  0  0  0  0  0  0  0
   -0.8660   21.0460  -30.1690 C   0  0  0  0  0  0  0  0  0  0  0  0
   -1.1830   20.2160  -29.0900 C   0  0  0  0  0  0  0  0  0  0  0  0
   -1.9280   20.7120  -28.0060 C   0  0  0  0  0  0  0  0  0  0  0  0
   -2.2530   19.8560  -26.8950 N   0  0  0  0  0  0  0  0  0  0  0  0
   -3.0820   18.9320  -27.0240 O   0  0  0  0  0  0  0  0  0  0  0  0
   -1.6600   20.0470  -25.6680 O   0  0  0  0  0  0  0  0  0  0  0  0
   -2.3470   22.0550  -28.0240 C   0  0  0  0  0  0  0  0  0  0  0  0
   -6.2503   25.4247  -28.3505 H   0  0  0  0  0  0  0  0  0  0  0  0
   -5.6263   26.5378  -29.6147 H   0  0  0  0  0  0  0  0  0  0  0  0
   -7.3576   26.0591  -29.6147 H   0  0  0  0  0  0  0  0  0  0  0  0
   -7.4509   21.1171  -31.6305 H   0  0  0  0  0  0  0  0  0  0  0  0
   -7.7759   22.2647  -32.9737 H   0  0  0  0  0  0  0  0  0  0  0  0
   -6.2702   21.2851  -32.9737 H   0  0  0  0  0  0  0  0  0  0  0  0
   -3.3038   21.7911  -31.5617 H   0  0  0  0  0  0  0  0  0  0  0  0
   -4.4427   21.5489  -32.9296 H   0  0  0  0  0  0  0  0  0  0  0  0
   -3.3252   22.9553  -32.9296 H   0  0  0  0  0  0  0  0  0  0  0  0
   -1.0321   23.0256  -31.0306 H   0  0  0  0  0  0  0  0  0  0  0  0
   -0.2871   20.6475  -31.0152 H   0  0  0  0  0  0  0  0  0  0  0  0
   -0.8475   19.1684  -29.0891 H   0  0  0  0  0  0  0  0  0  0  0  0
   -2.9407   22.4523  -27.1875 H   0  0  0  0  0  0  0  0  0  0  0  0
  1  2  1  0
  2  3  2  0
  3  4  1  0
  4  5  1  0
  4  6  1  0
  6  7  1  0
  6  8  2  0
  8  9  1  0
  9 10  1  0
 10 11  2  0
 10 12  2  0
 10 13  1  0
 13 14  2  0
 14 15  1  0
 15 16  2  0
 16 17  1  0
 17 18  1  0
 18 19  2  0
 18 20  1  0
 17 21  2  0
  8  2  1  0
 21 13  1  0
  1 22  1  0
  1 23  1  0
  1 24  1  0
  5 25  1  0
  5 26  1  0
  5 27  1  0
  7 28  1  0
  7 29  1  0
  7 30  1  0
 14 31  1  0
 15 32  1  0
 16 33  1  0
 21 34  1  0
M  CHG  3   9  -1  18   1  20  -1
M  END
>  <UniqueID>  (39) 
36

>  <SMILES>  (39) 
Cc1nn(C)c(C)c1[N-]S(=O)(=O)c1cccc([N+](=O)[O-])c1

>  <Energy>  (39) 
69.82859010392154

>  <Genealogy>  (39) 
Cc1nn(C)c(C)c1[N-]S(=O)(=O)c1cccc([N+](=O)[O-])c1 (protonated)
Cc1nn(C)c(C)c1[N-]S(=O)(=O)c1cccc([N+](=O)[O-])c1 (3D coordinates assigned)
Cc1nn(C)c(C)c1[N-]S(=O)(=O)c1cccc([N+](=O)[O-])c1 (optimized conformer: 69.82859010392154 kcal/mol)

>  <smiles>  (39) 
Cc1nn(C)c(C)c1NS(=O)(=O)c1cccc([N+](=O)[O-])c1

>  <score_type>  (39) 
oracle

>  <origin>  (39) 
adgpu

>  <m_score__min__energy>  (39) 
-8.5999999999999996

>  <m_primary>  (39) 
energy

$$$$
39:0
     RDKit          3D

 31 32  0  0  0  0  0  0  0  0999 V2000
   -7.3050   18.3590  -31.9700 C   0  0  0  0  0  0  0  0  0  0  0  0
   -6.0120   19.1080  -31.6660 C   0  0  0  0  0  0  0  0  0  0  0  0
   -5.8080   20.5260  -32.7410 S   0  0  0  0  0  0  0  0  0  0  0  0
   -6.8170   20.4270  -33.8490 O   0  0  0  0  0  0  0  0  0  0  0  0
   -4.4250   20.4580  -33.3270 O   0  0  0  0  0  0  0  0  0  0  0  0
   -6.0260   22.0800  -31.9140 C   0  0  0  0  0  0  0  0  0  0  0  0
   -4.9050   22.8390  -31.5330 C   0  0  0  0  0  0  0  0  0  0  0  0
   -5.0520   24.0580  -30.8620 C   0  0  0  0  0  0  0  0  0  0  0  0
   -3.8700   24.8090  -30.5330 N   0  0  0  0  0  0  0  0  0  0  0  0
   -3.0150   24.5370  -29.5910 C   0  0  0  0  0  0  0  0  0  0  0  0
   -3.0680   23.4370  -28.8090 N   0  0  0  0  0  0  0  0  0  0  0  0
   -1.9900   23.5880  -28.0160 C   0  0  0  0  0  0  0  0  0  0  0  0
   -1.5560   22.5900  -26.9970 C   0  0  0  0  0  0  0  0  0  0  0  0
   -1.3170   24.7400  -28.3580 C   0  0  0  0  0  0  0  0  0  0  0  0
   -1.9820   25.3070  -29.3350 O   0  0  0  0  0  0  0  0  0  0  0  0
   -6.3420   24.5450  -30.5990 C   0  0  0  0  0  0  0  0  0  0  0  0
   -7.4630   23.7910  -30.9500 C   0  0  0  0  0  0  0  0  0  0  0  0
   -7.3160   22.5580  -31.5920 C   0  0  0  0  0  0  0  0  0  0  0  0
   -8.7750   21.6430  -31.9580 Cl  0  0  0  0  0  0  0  0  0  0  0  0
   -7.7948   18.0753  -31.0268 H   0  0  0  0  0  0  0  0  0  0  0  0
   -7.9767   19.0079  -32.5512 H   0  0  0  0  0  0  0  0  0  0  0  0
   -7.0763   17.4535  -32.5512 H   0  0  0  0  0  0  0  0  0  0  0  0
   -6.0349   19.4516  -30.6213 H   0  0  0  0  0  0  0  0  0  0  0  0
   -5.1680   18.4228  -31.8339 H   0  0  0  0  0  0  0  0  0  0  0  0
   -3.8960   22.4682  -31.7664 H   0  0  0  0  0  0  0  0  0  0  0  0
   -1.7319   22.9946  -25.9894 H   0  0  0  0  0  0  0  0  0  0  0  0
   -2.1316   21.6614  -27.1249 H   0  0  0  0  0  0  0  0  0  0  0  0
   -0.4843   22.3777  -27.1249 H   0  0  0  0  0  0  0  0  0  0  0  0
   -0.3918   25.1152  -27.8963 H   0  0  0  0  0  0  0  0  0  0  0  0
   -6.4699   25.5243  -30.1146 H   0  0  0  0  0  0  0  0  0  0  0  0
   -8.4697   24.1699  -30.7197 H   0  0  0  0  0  0  0  0  0  0  0  0
  1  2  1  0
  2  3  1  0
  3  4  2  0
  3  5  2  0
  3  6  1  0
  6  7  2  0
  7  8  1  0
  8  9  1  0
  9 10  2  3
 10 11  1  0
 11 12  1  0
 12 13  1  0
 12 14  2  0
 14 15  1  0
  8 16  2  0
 16 17  1  0
 17 18  2  0
 18 19  1  0
 18  6  1  0
 15 10  1  0
  1 20  1  0
  1 21  1  0
  1 22  1  0
  2 23  1  0
  2 24  1  0
  7 25  1  0
 13 26  1  0
 13 27  1  0
 13 28  1  0
 14 29  1  0
 16 30  1  0
 17 31  1  0
M  CHG  1  11  -1
M  END
>  <UniqueID>  (40) 
37

>  <SMILES>  (40) 
CCS(=O)(=O)c1cc(N=c2[n-]c(C)co2)ccc1Cl

>  <Energy>  (40) 
63.12766644108272

>  <Genealogy>  (40) 
CCS(=O)(=O)c1cc(N=c2[n-]c(C)co2)ccc1Cl (protonated)
CCS(=O)(=O)c1cc(N=c2[n-]c(C)co2)ccc1Cl (3D coordinates assigned)
CCS(=O)(=O)c1cc(N=c2[n-]c(C)co2)ccc1Cl (optimized conformer: 63.12766644108272 kcal/mol)

>  <smiles>  (40) 
CCS(=O)(=O)c1cc(N=c2[nH]c(C)co2)ccc1Cl

>  <score_type>  (40) 
oracle

>  <origin>  (40) 
adgpu

>  <m_score__min__energy>  (40) 
-9.3900000000000006

>  <m_primary>  (40) 
energy

$$$$
40:0
     RDKit          3D

 37 38  0  0  0  0  0  0  0  0999 V2000
   -0.4700   27.2120  -25.3880 C   0  0  0  0  0  0  0  0  0  0  0  0
   -1.1870   26.2630  -26.3020 C   0  0  0  0  0  0  0  0  0  0  0  0
   -2.3710   25.6390  -25.8850 C   0  0  0  0  0  0  0  0  0  0  0  0
   -3.0610   24.7840  -26.7490 C   0  0  0  0  0  0  0  0  0  0  0  0
   -2.5750   24.5370  -28.0420 C   0  0  0  0  0  0  0  0  0  0  0  0
   -3.3170   23.6740  -28.9200 N   0  0  0  0  0  0  0  0  0  0  0  0
   -4.0130   24.1250  -30.0940 C   0  0  0  0  0  0  0  0  0  0  0  0
   -3.8680   25.3080  -30.5100 O   0  0  0  0  0  0  0  0  0  0  0  0
   -4.8760   23.1940  -30.8560 C   0  0  0  0  0  0  0  0  0  0  0  0
   -6.2790   23.3140  -30.8360 C   0  0  0  0  0  0  0  0  0  0  0  0
   -6.8970   24.3080  -29.9970 N   0  0  0  0  0  0  0  0  0  0  0  0
   -7.0450   22.4660  -31.6020 N   0  0  0  0  0  0  0  0  0  0  0  0
   -8.5150   22.5850  -31.5780 C   0  0  0  0  0  0  0  0  0  0  0  0
   -6.4460   21.5100  -32.3880 C   0  0  0  0  0  0  0  0  0  0  0  0
   -7.1540   20.7660  -33.1250 O   0  0  0  0  0  0  0  0  0  0  0  0
   -5.0830   21.3550  -32.3870 N   0  0  0  0  0  0  0  0  0  0  0  0
   -4.4600   20.3310  -33.2450 C   0  0  0  0  0  0  0  0  0  0  0  0
   -4.2960   22.2020  -31.6580 C   0  0  0  0  0  0  0  0  0  0  0  0
   -3.0380   22.1130  -31.7240 O   0  0  0  0  0  0  0  0  0  0  0  0
   -1.4100   25.1970  -28.4730 C   0  0  0  0  0  0  0  0  0  0  0  0
   -0.7210   26.0530  -27.6080 C   0  0  0  0  0  0  0  0  0  0  0  0
   -0.6757   26.9398  -24.3423 H   0  0  0  0  0  0  0  0  0  0  0  0
    0.6123   27.1547  -25.5757 H   0  0  0  0  0  0  0  0  0  0  0  0
   -0.8209   28.2375  -25.5757 H   0  0  0  0  0  0  0  0  0  0  0  0
   -2.7591   25.8232  -24.8724 H   0  0  0  0  0  0  0  0  0  0  0  0
   -3.9909   24.3017  -26.4133 H   0  0  0  0  0  0  0  0  0  0  0  0
   -3.3000   22.6480  -28.7200 H   0  0  0  0  0  0  0  0  0  0  0  0
   -6.6920   24.3670  -28.9760 H   0  0  0  0  0  0  0  0  0  0  0  0
   -7.5800   25.0050  -30.3660 H   0  0  0  0  0  0  0  0  0  0  0  0
   -8.8636   22.6132  -30.5351 H   0  0  0  0  0  0  0  0  0  0  0  0
   -8.8164   23.5105  -32.0905 H   0  0  0  0  0  0  0  0  0  0  0  0
   -8.9613   21.7200  -32.0905 H   0  0  0  0  0  0  0  0  0  0  0  0
   -3.9913   19.5606  -32.6151 H   0  0  0  0  0  0  0  0  0  0  0  0
   -5.2292   19.8673  -33.8801 H   0  0  0  0  0  0  0  0  0  0  0  0
   -3.6946   20.8010  -33.8801 H   0  0  0  0  0  0  0  0  0  0  0  0
   -1.0388   25.0389  -29.4963 H   0  0  0  0  0  0  0  0  0  0  0  0
    0.1901   26.5636  -27.9533 H   0  0  0  0  0  0  0  0  0  0  0  0
  1  2  1  0
  2  3  2  0
  3  4  1  0
  4  5  2  0
  5  6  1  0
  6  7  1  0
  7  8  2  0
  7  9  1  0
  9 10  2  0
 10 11  1  0
 10 12  1  0
 12 13  1  0
 12 14  1  0
 14 15  2  0
 14 16  1  0
 16 17  1  0
 16 18  1  0
 18 19  2  0
  5 20  1  0
 20 21  2  0
 21  2  1  0
 18  9  1  0
  1 22  1  0
  1 23  1  0
  1 24  1  0
  3 25  1  0
  4 26  1  0
  6 27  1  0
 11 28  1  0
 11 29  1  0
 13 30  1  0
 13 31  1  0
 13 32  1  0
 17 33  1  0
 17 34  1  0
 17 35  1  0
 20 36  1  0
 21 37  1  0
M  END
>  <UniqueID>  (41) 
38

>  <SMILES>  (41) 
Cc1ccc(NC(=O)c2c(N)n(C)c(=O)n(C)c2=O)cc1

>  <Energy>  (41) 
57.0420500443966

>  <Genealogy>  (41) 
Cc1ccc(NC(=O)c2c(N)n(C)c(=O)n(C)c2=O)cc1 (3D coordinates assigned)
Cc1ccc(NC(=O)c2c(N)n(C)c(=O)n(C)c2=O)cc1 (optimized conformer: 57.0420500443966 kcal/mol)

>  <smiles>  (41) 
Cc1ccc(NC(=O)c2c(N)n(C)c(=O)n(C)c2=O)cc1

>  <score_type>  (41) 
oracle

>  <origin>  (41) 
adgpu

>  <m_score__min__energy>  (41) 
-7.0099999999999998

>  <m_primary>  (41) 
energy

$$$$
41:0
     RDKit          3D

 56 60  0  0  0  0  0  0  0  0999 V2000
    1.0650   29.5820  -23.7600 N   0  0  0  0  0  0  0  0  0  0  0  0
   -0.0560   29.8540  -25.0480 S   0  0  0  0  0  0  0  0  0  0  0  0
    0.5610   30.7660  -26.0690 O   0  0  0  0  0  0  0  0  0  0  0  0
   -1.2920   30.4980  -24.4830 O   0  0  0  0  0  0  0  0  0  0  0  0
   -0.4720   28.3220  -25.8080 C   0  0  0  0  0  0  0  0  0  0  0  0
   -1.1000   27.3170  -25.0630 C   0  0  0  0  0  0  0  0  0  0  0  0
   -1.4240   26.0950  -25.6590 C   0  0  0  0  0  0  0  0  0  0  0  0
   -1.1170   25.8530  -27.0090 C   0  0  0  0  0  0  0  0  0  0  0  0
   -1.4600   24.5870  -27.6120 N   0  0  0  0  0  0  0  0  0  0  0  0
   -2.1500   24.3890  -28.7560 C   0  0  0  0  0  0  0  0  0  0  0  0
   -2.2340   23.0310  -28.9870 C   0  0  0  0  0  0  0  0  0  0  0  0
   -2.7890   22.3850  -30.1920 C   0  0  0  0  0  0  0  0  0  0  0  0
   -4.0130   21.8190  -30.2350 N   0  0  0  0  0  0  0  0  0  0  0  0
   -4.1220   21.3450  -31.4920 C   0  0  0  0  0  0  0  0  0  0  0  0
   -5.3390   20.6650  -32.0020 C   0  0  0  0  0  0  0  0  0  0  0  0
   -6.6230   21.1820  -31.7580 C   0  0  0  0  0  0  0  0  0  0  0  0
   -7.7650   20.5400  -32.2650 C   0  0  0  0  0  0  0  0  0  0  0  0
   -9.1400   21.0870  -31.9710 C   0  0  0  0  0  0  0  0  0  0  0  0
   -9.3930   20.9780  -30.6160 F   0  0  0  0  0  0  0  0  0  0  0  0
  -10.1070   20.3850  -32.6680 F   0  0  0  0  0  0  0  0  0  0  0  0
   -9.2250   22.4190  -32.3390 F   0  0  0  0  0  0  0  0  0  0  0  0
   -7.6170   19.3340  -32.9710 C   0  0  0  0  0  0  0  0  0  0  0  0
   -6.3440   18.7870  -33.1990 C   0  0  0  0  0  0  0  0  0  0  0  0
   -6.1910   17.5220  -34.0100 C   0  0  0  0  0  0  0  0  0  0  0  0
   -5.0450   16.8400  -33.6400 F   0  0  0  0  0  0  0  0  0  0  0  0
   -7.2740   16.6830  -33.8150 F   0  0  0  0  0  0  0  0  0  0  0  0
   -6.1080   17.8490  -35.3490 F   0  0  0  0  0  0  0  0  0  0  0  0
   -5.2110   19.4750  -32.7380 C   0  0  0  0  0  0  0  0  0  0  0  0
   -2.9580   21.6220  -32.1850 C   0  0  0  0  0  0  0  0  0  0  0  0
   -2.1240   22.2720  -31.3590 N   0  0  0  0  0  0  0  0  0  0  0  0
   -1.5680   22.4480  -27.9150 C   0  0  0  0  0  0  0  0  0  0  0  0
   -1.3700   21.0100  -27.6420 C   0  0  0  0  0  0  0  0  0  0  0  0
   -0.2190   20.3430  -28.0920 C   0  0  0  0  0  0  0  0  0  0  0  0
   -0.0420   18.9820  -27.8220 C   0  0  0  0  0  0  0  0  0  0  0  0
    1.0810   18.3480  -28.2440 F   0  0  0  0  0  0  0  0  0  0  0  0
   -1.0230   18.2740  -27.1240 C   0  0  0  0  0  0  0  0  0  0  0  0
   -2.1860   18.9240  -26.7010 C   0  0  0  0  0  0  0  0  0  0  0  0
   -3.1420   18.2330  -26.0320 F   0  0  0  0  0  0  0  0  0  0  0  0
   -2.3640   20.2860  -26.9650 C   0  0  0  0  0  0  0  0  0  0  0  0
   -1.1010   23.4170  -27.1040 N   0  0  0  0  0  0  0  0  0  0  0  0
   -0.4840   26.8690  -27.7520 C   0  0  0  0  0  0  0  0  0  0  0  0
   -0.1620   28.0900  -27.1530 C   0  0  0  0  0  0  0  0  0  0  0  0
    0.5210   29.1920  -22.9590 H   0  0  0  0  0  0  0  0  0  0  0  0
   -1.3396   27.4898  -24.0034 H   0  0  0  0  0  0  0  0  0  0  0  0
   -1.9240   25.3152  -25.0658 H   0  0  0  0  0  0  0  0  0  0  0  0
   -2.5736   25.1772  -29.3957 H   0  0  0  0  0  0  0  0  0  0  0  0
   -6.7350   22.1003  -31.1629 H   0  0  0  0  0  0  0  0  0  0  0  0
   -8.5086   18.8125  -33.3494 H   0  0  0  0  0  0  0  0  0  0  0  0
   -4.2089   19.0771  -32.9559 H   0  0  0  0  0  0  0  0  0  0  0  0
   -2.7515   21.3556  -33.2321 H   0  0  0  0  0  0  0  0  0  0  0  0
   -1.1670   22.6240  -31.5870 H   0  0  0  0  0  0  0  0  0  0  0  0
    0.5464   20.8931  -28.6591 H   0  0  0  0  0  0  0  0  0  0  0  0
   -0.8804   17.2050  -26.9072 H   0  0  0  0  0  0  0  0  0  0  0  0
   -3.2858   20.7914  -26.6411 H   0  0  0  0  0  0  0  0  0  0  0  0
   -0.2414   26.7000  -28.8115 H   0  0  0  0  0  0  0  0  0  0  0  0
    0.3379   28.8731  -27.7420 H   0  0  0  0  0  0  0  0  0  0  0  0
  1  2  1  0
  2  3  2  0
  2  4  2  0
  2  5  1  0
  5  6  2  0
  6  7  1  0
  7  8  2  0
  8  9  1  0
  9 10  1  0
 10 11  2  0
 11 12  1  0
 12 13  2  0
 13 14  1  0
 14 15  1  0
 15 16  2  0
 16 17  1  0
 17 18  1  0
 18 19  1  0
 18 20  1  0
 18 21  1  0
 17 22  2  0
 22 23  1  0
 23 24  1  0
 24 25  1  0
 24 26  1  0
 24 27  1  0
 23 28  2  0
 14 29  2  0
 29 30  1  0
 11 31  1  0
 31 32  1  0
 32 33  2  0
 33 34  1  0
 34 35  1  0
 34 36  2  0
 36 37  1  0
 37 38  1  0
 37 39  2  0
 31 40  2  0
  8 41  1  0
 41 42  2  0
 42  5  1  0
 40  9  1  0
 30 12  1  0
 39 32  1  0
 28 15  1  0
  1 43  1  0
  6 44  1  0
  7 45  1  0
 10 46  1  0
 16 47  1  0
 22 48  1  0
 28 49  1  0
 29 50  1  0
 30 51  1  0
 33 52  1  0
 36 53  1  0
 39 54  1  0
 41 55  1  0
 42 56  1  0
M  CHG  1   1  -1
M  END
>  <UniqueID>  (42) 
39

>  <SMILES>  (42) 
[NH-]S(=O)(=O)c1ccc(-n2cc(-c3nc(-c4cc(C(F)(F)F)cc(C(F)(F)F)c4)c[nH]3)c(-c3cc(F)cc(F)c3)n2)cc1

>  <Energy>  (42) 
130.95011430914704

>  <Genealogy>  (42) 
[NH-]S(=O)(=O)c1ccc(-n2cc(-c3nc(-c4cc(C(F)(F)F)cc(C(F)(F)F)c4)c[nH]3)c(-c3cc(F)cc(F)c3)n2)cc1 (protonated)
[NH-]S(=O)(=O)c1ccc(-n2cc(-c3nc(-c4cc(C(F)(F)F)cc(C(F)(F)F)c4)c[nH]3)c(-c3cc(F)cc(F)c3)n2)cc1 (3D coordinates assigned)
[NH-]S(=O)(=O)c1ccc(-n2cc(-c3nc(-c4cc(C(F)(F)F)cc(C(F)(F)F)c4)c[nH]3)c(-c3cc(F)cc(F)c3)n2)cc1 (optimized conformer: 130.95011430914704 kcal/mol)

>  <smiles>  (42) 
NS(=O)(=O)c1ccc(-n2cc(-c3nc(-c4cc(C(F)(F)F)cc(C(F)(F)F)c4)c[nH]3)c(-c3cc(F)cc(F)c3)n2)cc1

>  <score_type>  (42) 
oracle

>  <origin>  (42) 
adgpu

>  <m_score__min__energy>  (42) 
-8.8300000000000001

>  <m_primary>  (42) 
energy

$$$$
42:0
     RDKit          3D

 27 29  0  0  0  0  0  0  0  0999 V2000
   -1.2450   26.2670  -28.9850 N   0  0  0  0  0  0  0  0  0  0  0  0
   -1.9840   25.0800  -28.7050 C   0  0  0  0  0  0  0  0  0  0  0  0
   -1.8420   24.5120  -27.5900 O   0  0  0  0  0  0  0  0  0  0  0  0
   -2.9460   24.5390  -29.6800 C   0  0  0  0  0  0  0  0  0  0  0  0
   -3.8700   25.3050  -30.2900 N   0  0  0  0  0  0  0  0  0  0  0  0
   -4.5230   24.5620  -31.1720 N   0  0  0  0  0  0  0  0  0  0  0  0
   -4.0190   23.3140  -31.1390 C   0  0  0  0  0  0  0  0  0  0  0  0
   -3.0170   23.2510  -30.1940 C   0  0  0  0  0  0  0  0  0  0  0  0
   -2.2770   22.0360  -29.7990 C   0  0  0  0  0  0  0  0  0  0  0  0
   -1.1550   21.6140  -30.5300 C   0  0  0  0  0  0  0  0  0  0  0  0
   -0.4370   20.4810  -30.1390 C   0  0  0  0  0  0  0  0  0  0  0  0
   -0.8230   19.7610  -29.0000 C   0  0  0  0  0  0  0  0  0  0  0  0
   -0.1100   18.6200  -28.5980 C   0  0  0  0  0  0  0  0  0  0  0  0
   -0.5020   17.9130  -27.4580 C   0  0  0  0  0  0  0  0  0  0  0  0
   -1.6060   18.3380  -26.7120 C   0  0  0  0  0  0  0  0  0  0  0  0
   -2.3240   19.4720  -27.1010 C   0  0  0  0  0  0  0  0  0  0  0  0
   -1.9420   20.1900  -28.2450 C   0  0  0  0  0  0  0  0  0  0  0  0
   -2.6540   21.3300  -28.6460 C   0  0  0  0  0  0  0  0  0  0  0  0
   -0.8780   26.4570  -29.9440 H   0  0  0  0  0  0  0  0  0  0  0  0
   -4.3542   22.4758  -31.7676 H   0  0  0  0  0  0  0  0  0  0  0  0
   -0.8385   22.1803  -31.4183 H   0  0  0  0  0  0  0  0  0  0  0  0
    0.4333   20.1532  -30.7264 H   0  0  0  0  0  0  0  0  0  0  0  0
    0.7590   18.2819  -29.1816 H   0  0  0  0  0  0  0  0  0  0  0  0
    0.0594   17.0197  -27.1466 H   0  0  0  0  0  0  0  0  0  0  0  0
   -1.9103   17.7776  -25.8157 H   0  0  0  0  0  0  0  0  0  0  0  0
   -3.1904   19.8027  -26.5094 H   0  0  0  0  0  0  0  0  0  0  0  0
   -3.5142   21.6733  -28.0525 H   0  0  0  0  0  0  0  0  0  0  0  0
  1  2  1  0
  2  3  2  0
  2  4  1  0
  4  5  2  0
  5  6  1  0
  6  7  1  0
  7  8  2  0
  8  9  1  0
  9 10  2  0
 10 11  1  0
 11 12  2  0
 12 13  1  0
 13 14  2  0
 14 15  1  0
 15 16  2  0
 16 17  1  0
 17 18  2  0
  8  4  1  0
 18  9  1  0
 17 12  1  0
  1 19  1  0
  7 20  1  0
 10 21  1  0
 11 22  1  0
 13 23  1  0
 14 24  1  0
 15 25  1  0
 16 26  1  0
 18 27  1  0
M  CHG  2   1  -1   6  -1
M  END
>  <UniqueID>  (43) 
40

>  <SMILES>  (43) 
[NH-]C(=O)c1n[n-]cc1-c1ccc2ccccc2c1

>  <Energy>  (43) 
67.81340543655297

>  <Genealogy>  (43) 
[NH-]C(=O)c1n[n-]cc1-c1ccc2ccccc2c1 (protonated)
[NH-]C(=O)c1n[n-]cc1-c1ccc2ccccc2c1 (3D coordinates assigned)
[NH-]C(=O)c1n[n-]cc1-c1ccc2ccccc2c1 (optimized conformer: 67.81340543655297 kcal/mol)

>  <smiles>  (43) 
NC(=O)c1n[nH]cc1-c1ccc2ccccc2c1

>  <score_type>  (43) 
oracle

>  <origin>  (43) 
adgpu

>  <m_score__min__energy>  (43) 
-9.9199999999999999

>  <m_primary>  (43) 
energy

$$$$
43:0
     RDKit          3D

 45 48  0  0  0  0  0  0  0  0999 V2000
   -1.3110   17.8530  -26.7670 O   0  0  0  0  0  0  0  0  0  0  0  0
   -0.4940   18.5600  -27.4210 C   0  0  0  0  0  0  0  0  0  0  0  0
    0.7990   17.9610  -27.8240 C   0  0  0  0  0  0  0  0  0  0  0  0
    1.0860   16.6100  -27.8540 C   0  0  0  0  0  0  0  0  0  0  0  0
    2.3910   16.5140  -28.2860 C   0  0  0  0  0  0  0  0  0  0  0  0
    2.8200   17.8090  -28.4960 C   0  0  0  0  0  0  0  0  0  0  0  0
    1.8510   18.6470  -28.2100 O   0  0  0  0  0  0  0  0  0  0  0  0
   -0.8480   19.9250  -27.7590 N   0  0  0  0  0  0  0  0  0  0  0  0
   -1.8650   20.4410  -26.8160 C   0  0  0  0  0  0  0  0  0  0  0  0
   -2.3550   21.8330  -27.2480 C   0  0  0  0  0  0  0  0  0  0  0  0
   -2.8300   21.8840  -28.6590 N   0  0  0  0  0  0  0  0  0  0  0  0
   -4.2390   22.3200  -28.7550 C   0  0  0  0  0  0  0  0  0  0  0  0
   -4.3940   23.3900  -29.8010 C   0  0  0  0  0  0  0  0  0  0  0  0
   -3.7410   24.6030  -29.8320 C   0  0  0  0  0  0  0  0  0  0  0  0
   -4.2460   25.3140  -30.8620 N   0  0  0  0  0  0  0  0  0  0  0  0
   -5.1720   24.5610  -31.4410 N   0  0  0  0  0  0  0  0  0  0  0  0
   -5.2710   23.3950  -30.8240 N   0  0  0  0  0  0  0  0  0  0  0  0
   -6.2170   22.3790  -31.1840 C   0  0  0  0  0  0  0  0  0  0  0  0
   -7.5250   22.4590  -30.6870 C   0  0  0  0  0  0  0  0  0  0  0  0
   -8.4660   21.4830  -31.0190 C   0  0  0  0  0  0  0  0  0  0  0  0
   -8.1110   20.4240  -31.8580 C   0  0  0  0  0  0  0  0  0  0  0  0
   -6.8160   20.3420  -32.3790 C   0  0  0  0  0  0  0  0  0  0  0  0
   -6.4180   19.0000  -33.4480 Cl  0  0  0  0  0  0  0  0  0  0  0  0
   -5.8640   21.3270  -32.0550 C   0  0  0  0  0  0  0  0  0  0  0  0
   -4.2610   21.2780  -32.7900 Cl  0  0  0  0  0  0  0  0  0  0  0  0
   -2.6460   20.6160  -29.3940 C   0  0  0  0  0  0  0  0  0  0  0  0
   -1.2260   20.0650  -29.1940 C   0  0  0  0  0  0  0  0  0  0  0  0
    0.4122   15.7822  -27.5881 H   0  0  0  0  0  0  0  0  0  0  0  0
    2.9729   15.5922  -28.4336 H   0  0  0  0  0  0  0  0  0  0  0  0
    3.8216   18.0953  -28.8493 H   0  0  0  0  0  0  0  0  0  0  0  0
    0.0110   20.5110  -27.6130 H   0  0  0  0  0  0  0  0  0  0  0  0
   -2.7197   19.7489  -26.7934 H   0  0  0  0  0  0  0  0  0  0  0  0
   -1.4107   20.5217  -25.8175 H   0  0  0  0  0  0  0  0  0  0  0  0
   -3.1852   22.1296  -26.5901 H   0  0  0  0  0  0  0  0  0  0  0  0
   -1.4968   22.5167  -27.1705 H   0  0  0  0  0  0  0  0  0  0  0  0
   -4.8663   21.4576  -29.0248 H   0  0  0  0  0  0  0  0  0  0  0  0
   -4.5500   22.7285  -27.7822 H   0  0  0  0  0  0  0  0  0  0  0  0
   -2.9505   24.9325  -29.1416 H   0  0  0  0  0  0  0  0  0  0  0  0
   -7.8114   23.2951  -30.0321 H   0  0  0  0  0  0  0  0  0  0  0  0
   -9.4888   21.5478  -30.6193 H   0  0  0  0  0  0  0  0  0  0  0  0
   -8.8529   19.6518  -32.1097 H   0  0  0  0  0  0  0  0  0  0  0  0
   -3.3735   19.8778  -29.0256 H   0  0  0  0  0  0  0  0  0  0  0  0
   -2.8001   20.8069  -30.4663 H   0  0  0  0  0  0  0  0  0  0  0  0
   -1.1646   19.0752  -29.6700 H   0  0  0  0  0  0  0  0  0  0  0  0
   -0.5288   20.7850  -29.6473 H   0  0  0  0  0  0  0  0  0  0  0  0
  1  2  2  0
  2  3  1  0
  3  4  2  0
  4  5  1  0
  5  6  2  0
  6  7  1  0
  2  8  1  0
  8  9  1  0
  9 10  1  0
 10 11  1  0
 11 12  1  0
 12 13  1  0
 13 14  2  0
 14 15  1  0
 15 16  2  0
 16 17  1  0
 17 18  1  0
 18 19  2  0
 19 20  1  0
 20 21  2  0
 21 22  1  0
 22 23  1  0
 22 24  2  0
 24 25  1  0
 11 26  1  0
 26 27  1  0
  7  3  1  0
 27  8  1  0
 17 13  1  0
 24 18  1  0
  4 28  1  0
  5 29  1  0
  6 30  1  0
  8 31  1  0
  9 32  1  0
  9 33  1  0
 10 34  1  0
 10 35  1  0
 12 36  1  0
 12 37  1  0
 14 38  1  0
 19 39  1  0
 20 40  1  0
 21 41  1  0
 26 42  1  0
 26 43  1  0
 27 44  1  0
 27 45  1  0
M  CHG  1   8   1
M  END
>  <UniqueID>  (44) 
41

>  <SMILES>  (44) 
O=C(c1ccco1)[NH+]1CCN(Cc2cnnn2-c2cccc(Cl)c2Cl)CC1

>  <Energy>  (44) 
131.13374057098278

>  <Genealogy>  (44) 
O=C(c1ccco1)[NH+]1CCN(Cc2cnnn2-c2cccc(Cl)c2Cl)CC1 (protonated)
O=C(c1ccco1)[NH+]1CCN(Cc2cnnn2-c2cccc(Cl)c2Cl)CC1 (3D coordinates assigned)
O=C(c1ccco1)[NH+]1CCN(Cc2cnnn2-c2cccc(Cl)c2Cl)CC1 (nonaromatic ring conformer: 131.13374057098278 kcal/mol)

>  <smiles>  (44) 
O=C(c1ccco1)N1CCN(Cc2cnnn2-c2cccc(Cl)c2Cl)CC1

>  <score_type>  (44) 
oracle

>  <origin>  (44) 
adgpu

>  <m_score__min__energy>  (44) 
-8.5099999999999998

>  <m_primary>  (44) 
energy

$$$$
44:0
     RDKit          3D

 46 48  0  0  0  0  0  0  0  0999 V2000
   -6.5990   14.5820  -34.2240 C   0  0  0  0  0  0  0  0  0  0  0  0
   -6.9190   15.9270  -34.5650 O   0  0  0  0  0  0  0  0  0  0  0  0
   -6.5230   17.0490  -33.8230 C   0  0  0  0  0  0  0  0  0  0  0  0
   -7.4010   17.7290  -32.9560 C   0  0  0  0  0  0  0  0  0  0  0  0
   -6.9610   18.8430  -32.2360 C   0  0  0  0  0  0  0  0  0  0  0  0
   -5.6370   19.2960  -32.3710 C   0  0  0  0  0  0  0  0  0  0  0  0
   -5.1450   20.4080  -31.6670 C   0  0  0  0  0  0  0  0  0  0  0  0
   -5.9040   21.0370  -30.8760 O   0  0  0  0  0  0  0  0  0  0  0  0
   -3.8430   20.8070  -31.8340 N   0  0  0  0  0  0  0  0  0  0  0  0
   -3.3550   21.9460  -31.1000 C   0  0  0  0  0  0  0  0  0  0  0  0
   -2.2250   21.8260  -30.2890 C   0  0  0  0  0  0  0  0  0  0  0  0
   -1.7330   22.9300  -29.5660 C   0  0  0  0  0  0  0  0  0  0  0  0
   -0.5930   22.8100  -28.7560 O   0  0  0  0  0  0  0  0  0  0  0  0
   -0.1600   21.6070  -28.1290 C   0  0  0  0  0  0  0  0  0  0  0  0
   -2.4080   24.1770  -29.6650 C   0  0  0  0  0  0  0  0  0  0  0  0
   -2.0010   25.3410  -28.9840 O   0  0  0  0  0  0  0  0  0  0  0  0
   -1.5750   25.4270  -27.6290 C   0  0  0  0  0  0  0  0  0  0  0  0
   -3.5500   24.2890  -30.4780 C   0  0  0  0  0  0  0  0  0  0  0  0
   -4.1920   25.5360  -30.5510 O   0  0  0  0  0  0  0  0  0  0  0  0
   -5.5890   25.7380  -30.3600 C   0  0  0  0  0  0  0  0  0  0  0  0
   -4.0170   23.1720  -31.1910 C   0  0  0  0  0  0  0  0  0  0  0  0
   -3.0160   20.1270  -32.6950 C   0  0  0  0  0  0  0  0  0  0  0  0
   -1.5870   20.5400  -32.9130 C   0  0  0  0  0  0  0  0  0  0  0  0
   -3.4840   19.0470  -33.3740 N   0  0  0  0  0  0  0  0  0  0  0  0
   -4.7610   18.6170  -33.2350 C   0  0  0  0  0  0  0  0  0  0  0  0
   -5.2050   17.5010  -33.9550 C   0  0  0  0  0  0  0  0  0  0  0  0
   -6.5741   14.4773  -33.1293 H   0  0  0  0  0  0  0  0  0  0  0  0
   -7.3616   13.9070  -34.6397 H   0  0  0  0  0  0  0  0  0  0  0  0
   -5.6141   14.3227  -34.6397 H   0  0  0  0  0  0  0  0  0  0  0  0
   -8.4386   17.3811  -32.8452 H   0  0  0  0  0  0  0  0  0  0  0  0
   -7.6533   19.3675  -31.5610 H   0  0  0  0  0  0  0  0  0  0  0  0
   -1.7119   20.8559  -30.2136 H   0  0  0  0  0  0  0  0  0  0  0  0
   -0.2032   21.7269  -27.0364 H   0  0  0  0  0  0  0  0  0  0  0  0
   -0.8163   20.7782  -28.4331 H   0  0  0  0  0  0  0  0  0  0  0  0
    0.8739   21.3866  -28.4331 H   0  0  0  0  0  0  0  0  0  0  0  0
   -2.4332   25.2537  -26.9631 H   0  0  0  0  0  0  0  0  0  0  0  0
   -0.8035   24.6665  -27.4382 H   0  0  0  0  0  0  0  0  0  0  0  0
   -1.1590   26.4273  -27.4382 H   0  0  0  0  0  0  0  0  0  0  0  0
   -5.8110   25.7701  -29.2831 H   0  0  0  0  0  0  0  0  0  0  0  0
   -5.8889   26.6889  -30.8247 H   0  0  0  0  0  0  0  0  0  0  0  0
   -6.1460   24.9111  -30.8247 H   0  0  0  0  0  0  0  0  0  0  0  0
   -4.9108   23.2640  -31.8256 H   0  0  0  0  0  0  0  0  0  0  0  0
   -1.0940   20.6825  -31.9400 H   0  0  0  0  0  0  0  0  0  0  0  0
   -1.0613   19.7570  -33.4792 H   0  0  0  0  0  0  0  0  0  0  0  0
   -1.5601   21.4827  -33.4792 H   0  0  0  0  0  0  0  0  0  0  0  0
   -4.5127   16.9757  -34.6294 H   0  0  0  0  0  0  0  0  0  0  0  0
  1  2  1  0
  2  3  1  0
  3  4  2  0
  4  5  1  0
  5  6  2  0
  6  7  1  0
  7  8  2  0
  7  9  1  0
  9 10  1  0
 10 11  2  0
 11 12  1  0
 12 13  1  0
 13 14  1  0
 12 15  2  0
 15 16  1  0
 16 17  1  0
 15 18  1  0
 18 19  1  0
 19 20  1  0
 18 21  2  0
  9 22  1  0
 22 23  1  0
 22 24  2  0
 24 25  1  0
 25 26  2  0
 26  3  1  0
 25  6  1  0
 21 10  1  0
  1 27  1  0
  1 28  1  0
  1 29  1  0
  4 30  1  0
  5 31  1  0
 11 32  1  0
 14 33  1  0
 14 34  1  0
 14 35  1  0
 17 36  1  0
 17 37  1  0
 17 38  1  0
 20 39  1  0
 20 40  1  0
 20 41  1  0
 21 42  1  0
 23 43  1  0
 23 44  1  0
 23 45  1  0
 26 46  1  0
M  END
>  <UniqueID>  (45) 
42

>  <SMILES>  (45) 
COc1ccc2c(=O)n(-c3cc(OC)c(OC)c(OC)c3)c(C)nc2c1

>  <Energy>  (45) 
62.40706692054034

>  <Genealogy>  (45) 
COc1ccc2c(=O)n(-c3cc(OC)c(OC)c(OC)c3)c(C)nc2c1 (3D coordinates assigned)
COc1ccc2c(=O)n(-c3cc(OC)c(OC)c(OC)c3)c(C)nc2c1 (optimized conformer: 62.40706692054034 kcal/mol)

>  <smiles>  (45) 
COc1ccc2c(=O)n(-c3cc(OC)c(OC)c(OC)c3)c(C)nc2c1

>  <score_type>  (45) 
oracle

>  <origin>  (45) 
adgpu

>  <m_score__min__energy>  (45) 
-7.4400000000000004

>  <m_primary>  (45) 
energy

$$$$
45:0
     RDKit          3D

 33 34  0  0  0  0  0  0  0  0999 V2000
   -0.5460   22.3280  -26.2910 C   0  0  0  0  0  0  0  0  0  0  0  0
   -1.3240   23.0150  -27.3830 C   0  0  0  0  0  0  0  0  0  0  0  0
   -1.0270   24.3510  -27.7020 C   0  0  0  0  0  0  0  0  0  0  0  0
   -1.7320   25.0160  -28.7070 C   0  0  0  0  0  0  0  0  0  0  0  0
   -2.7430   24.3540  -29.4190 C   0  0  0  0  0  0  0  0  0  0  0  0
   -3.4950   25.0010  -30.4530 N   0  0  0  0  0  0  0  0  0  0  0  0
   -4.9070   25.2470  -30.4590 C   0  0  0  0  0  0  0  0  0  0  0  0
   -5.3580   26.4230  -30.5010 O   0  0  0  0  0  0  0  0  0  0  0  0
   -5.8500   24.0920  -30.5380 C   0  0  0  0  0  0  0  0  0  0  0  0
   -5.6740   23.2270  -32.1360 S   0  0  0  0  0  0  0  0  0  0  0  0
   -7.3160   22.5000  -32.1000 C   0  0  0  0  0  0  0  0  0  0  0  0
   -8.4450   23.1940  -31.8740 N   0  0  0  0  0  0  0  0  0  0  0  0
   -9.4210   22.2990  -31.9600 N   0  0  0  0  0  0  0  0  0  0  0  0
   -8.9180   21.1030  -32.2330 N   0  0  0  0  0  0  0  0  0  0  0  0
   -7.6050   21.2040  -32.3110 N   0  0  0  0  0  0  0  0  0  0  0  0
   -6.7110   20.1250  -32.7130 C   0  0  0  0  0  0  0  0  0  0  0  0
   -3.0670   23.0350  -29.0830 C   0  0  0  0  0  0  0  0  0  0  0  0
   -2.3690   22.3540  -28.0710 C   0  0  0  0  0  0  0  0  0  0  0  0
   -2.7310   20.9260  -27.7570 C   0  0  0  0  0  0  0  0  0  0  0  0
   -0.9201   22.6584  -25.3108 H   0  0  0  0  0  0  0  0  0  0  0  0
   -0.6694   21.2388  -26.3825 H   0  0  0  0  0  0  0  0  0  0  0  0
    0.5196   22.5852  -26.3825 H   0  0  0  0  0  0  0  0  0  0  0  0
   -0.2315   24.8778  -27.1547 H   0  0  0  0  0  0  0  0  0  0  0  0
   -1.4935   26.0639  -28.9415 H   0  0  0  0  0  0  0  0  0  0  0  0
   -5.6304   23.3895  -29.7205 H   0  0  0  0  0  0  0  0  0  0  0  0
   -6.8799   24.4683  -30.4500 H   0  0  0  0  0  0  0  0  0  0  0  0
   -6.3037   19.6334  -31.8172 H   0  0  0  0  0  0  0  0  0  0  0  0
   -7.2690   19.3907  -33.3126 H   0  0  0  0  0  0  0  0  0  0  0  0
   -5.8858   20.5367  -33.3126 H   0  0  0  0  0  0  0  0  0  0  0  0
   -3.8801   22.5235  -29.6189 H   0  0  0  0  0  0  0  0  0  0  0  0
   -2.7660   20.7880  -26.6663 H   0  0  0  0  0  0  0  0  0  0  0  0
   -3.7163   20.6943  -28.1877 H   0  0  0  0  0  0  0  0  0  0  0  0
   -1.9751   20.2529  -28.1877 H   0  0  0  0  0  0  0  0  0  0  0  0
  1  2  1  0
  2  3  2  0
  3  4  1  0
  4  5  2  0
  5  6  1  0
  6  7  1  0
  7  8  2  0
  7  9  1  0
  9 10  1  0
 10 11  1  0
 11 12  2  0
 12 13  1  0
 13 14  2  0
 14 15  1  0
 15 16  1  0
  5 17  1  0
 17 18  2  0
 18 19  1  0
 18  2  1  0
 15 11  1  0
  1 20  1  0
  1 21  1  0
  1 22  1  0
  3 23  1  0
  4 24  1  0
  9 25  1  0
  9 26  1  0
 16 27  1  0
 16 28  1  0
 16 29  1  0
 17 30  1  0
 19 31  1  0
 19 32  1  0
 19 33  1  0
M  CHG  1   6  -1
M  END
>  <UniqueID>  (46) 
43

>  <SMILES>  (46) 
Cc1ccc([N-]C(=O)CSc2nnnn2C)cc1C

>  <Energy>  (46) 
69.72980104757995

>  <Genealogy>  (46) 
Cc1ccc([N-]C(=O)CSc2nnnn2C)cc1C (protonated)
Cc1ccc([N-]C(=O)CSc2nnnn2C)cc1C (3D coordinates assigned)
Cc1ccc([N-]C(=O)CSc2nnnn2C)cc1C (optimized conformer: 69.72980104757995 kcal/mol)

>  <smiles>  (46) 
Cc1ccc(NC(=O)CSc2nnnn2C)cc1C

>  <score_type>  (46) 
oracle

>  <origin>  (46) 
adgpu

>  <m_score__min__energy>  (46) 
-9.3000000000000007

>  <m_primary>  (46) 
energy

$$$$
46:0
     RDKit          3D

 39 41  0  0  0  0  0  0  0  0999 V2000
   -8.4940   19.1120  -31.9640 C   0  0  0  0  0  0  0  0  0  0  0  0
   -6.9510   19.8830  -32.4070 S   0  0  0  0  0  0  0  0  0  0  0  0
   -5.8410   19.0770  -31.7930 O   0  0  0  0  0  0  0  0  0  0  0  0
   -6.8060   19.8720  -33.9020 O   0  0  0  0  0  0  0  0  0  0  0  0
   -6.8580   21.5490  -31.8240 C   0  0  0  0  0  0  0  0  0  0  0  0
   -5.6530   22.0620  -31.3190 C   0  0  0  0  0  0  0  0  0  0  0  0
   -5.5760   23.3860  -30.8490 C   0  0  0  0  0  0  0  0  0  0  0  0
   -4.3100   23.9440  -30.3160 C   0  0  0  0  0  0  0  0  0  0  0  0
   -3.8600   25.0140  -30.8090 O   0  0  0  0  0  0  0  0  0  0  0  0
   -3.6000   23.2900  -29.2470 N   0  0  0  0  0  0  0  0  0  0  0  0
   -2.3340   23.7380  -28.7340 C   0  0  0  0  0  0  0  0  0  0  0  0
   -1.1230   23.3640  -29.3400 C   0  0  0  0  0  0  0  0  0  0  0  0
    0.0920   23.7960  -28.8080 C   0  0  0  0  0  0  0  0  0  0  0  0
    0.1160   24.5910  -27.6600 C   0  0  0  0  0  0  0  0  0  0  0  0
   -1.0830   24.9570  -27.0220 C   0  0  0  0  0  0  0  0  0  0  0  0
   -1.0620   25.7680  -25.8290 N   0  0  0  0  0  0  0  0  0  0  0  0
   -0.8230   25.3600  -24.5680 C   0  0  0  0  0  0  0  0  0  0  0  0
   -0.8980   26.4570  -23.7420 C   0  0  0  0  0  0  0  0  0  0  0  0
   -1.1840   27.5540  -24.4710 N   0  0  0  0  0  0  0  0  0  0  0  0
   -1.2750   27.0990  -25.7370 C   0  0  0  0  0  0  0  0  0  0  0  0
   -2.3050   24.5150  -27.5660 C   0  0  0  0  0  0  0  0  0  0  0  0
   -6.7350   24.1810  -30.8630 C   0  0  0  0  0  0  0  0  0  0  0  0
   -7.9380   23.6700  -31.3540 C   0  0  0  0  0  0  0  0  0  0  0  0
   -8.0030   22.3610  -31.8340 C   0  0  0  0  0  0  0  0  0  0  0  0
   -9.1880   21.8830  -32.2930 F   0  0  0  0  0  0  0  0  0  0  0  0
   -8.5809   19.0686  -30.8683 H   0  0  0  0  0  0  0  0  0  0  0  0
   -9.3285   19.6990  -32.3750 H   0  0  0  0  0  0  0  0  0  0  0  0
   -8.5256   18.0922  -32.3750 H   0  0  0  0  0  0  0  0  0  0  0  0
   -4.7589   21.4218  -31.2904 H   0  0  0  0  0  0  0  0  0  0  0  0
   -4.0370   22.4700  -28.7710 H   0  0  0  0  0  0  0  0  0  0  0  0
   -1.1329   22.7280  -30.2375 H   0  0  0  0  0  0  0  0  0  0  0  0
    1.0357   23.5091  -29.2950 H   0  0  0  0  0  0  0  0  0  0  0  0
    1.0786   24.9331  -27.2522 H   0  0  0  0  0  0  0  0  0  0  0  0
   -0.6056   24.3286  -24.2534 H   0  0  0  0  0  0  0  0  0  0  0  0
   -0.7475   26.4415  -22.6525 H   0  0  0  0  0  0  0  0  0  0  0  0
   -1.4984   27.7418  -26.6012 H   0  0  0  0  0  0  0  0  0  0  0  0
   -3.2489   24.7825  -27.0685 H   0  0  0  0  0  0  0  0  0  0  0  0
   -6.6940   25.2130  -30.4845 H   0  0  0  0  0  0  0  0  0  0  0  0
   -8.8384   24.3018  -31.3626 H   0  0  0  0  0  0  0  0  0  0  0  0
  1  2  1  0
  2  3  2  0
  2  4  2  0
  2  5  1  0
  5  6  2  0
  6  7  1  0
  7  8  1  0
  8  9  2  0
  8 10  1  0
 10 11  1  0
 11 12  2  0
 12 13  1  0
 13 14  2  0
 14 15  1  0
 15 16  1  0
 16 17  1  0
 17 18  2  0
 18 19  1  0
 19 20  2  0
 15 21  2  0
  7 22  2  0
 22 23  1  0
 23 24  2  0
 24 25  1  0
 24  5  1  0
 21 11  1  0
 20 16  1  0
  1 26  1  0
  1 27  1  0
  1 28  1  0
  6 29  1  0
 10 30  1  0
 12 31  1  0
 13 32  1  0
 14 33  1  0
 17 34  1  0
 18 35  1  0
 20 36  1  0
 21 37  1  0
 22 38  1  0
 23 39  1  0
M  END
>  <UniqueID>  (47) 
44

>  <SMILES>  (47) 
CS(=O)(=O)c1cc(C(=O)Nc2cccc(-n3ccnc3)c2)ccc1F

>  <Energy>  (47) 
79.56972329902231

>  <Genealogy>  (47) 
CS(=O)(=O)c1cc(C(=O)Nc2cccc(-n3ccnc3)c2)ccc1F (3D coordinates assigned)
CS(=O)(=O)c1cc(C(=O)Nc2cccc(-n3ccnc3)c2)ccc1F (optimized conformer: 79.56972329902231 kcal/mol)

>  <smiles>  (47) 
CS(=O)(=O)c1cc(C(=O)Nc2cccc(-n3ccnc3)c2)ccc1F

>  <score_type>  (47) 
oracle

>  <origin>  (47) 
adgpu

>  <m_score__min__energy>  (47) 
-8.0099999999999998

>  <m_primary>  (47) 
energy

$$$$
47:0
     RDKit          3D

 32 33  0  0  0  0  0  0  0  0999 V2000
   -5.3174   19.4126  -34.0172 H   0  0  0  0  0  0  0  0  0  0  0  0
   -6.2520   19.4460  -33.4380 C   0  0  0  0  0  0  0  0  0  0  0  0
   -6.8050   20.6780  -33.0760 C   0  0  0  0  0  0  0  0  0  0  0  0
   -6.3077   21.6115  -33.3782 H   0  0  0  0  0  0  0  0  0  0  0  0
   -7.9930   20.7290  -32.3280 C   0  0  0  0  0  0  0  0  0  0  0  0
   -8.6100   22.0520  -31.9730 C   0  0  0  0  0  0  0  0  0  0  0  0
   -9.6307   21.8888  -31.5968 H   0  0  0  0  0  0  0  0  0  0  0  0
   -8.6405   22.6887  -32.8695 H   0  0  0  0  0  0  0  0  0  0  0  0
   -7.7950   22.7290  -30.9170 C   0  0  0  0  0  0  0  0  0  0  0  0
   -7.8650   22.3190  -29.7260 O   0  0  0  0  0  0  0  0  0  0  0  0
   -6.9140   23.8000  -31.2920 N   0  0  0  0  0  0  0  0  0  0  0  0
   -5.7570   24.0920  -30.7730 C   0  0  0  0  0  0  0  0  0  0  0  0
   -5.0170   25.1310  -31.2180 N   0  0  0  0  0  0  0  0  0  0  0  0
   -3.8610   25.2690  -30.5710 N   0  0  0  0  0  0  0  0  0  0  0  0
   -3.6750   24.3440  -29.6030 C   0  0  0  0  0  0  0  0  0  0  0  0
   -2.4390   24.2640  -28.7610 C   0  0  0  0  0  0  0  0  0  0  0  0
   -1.9275   25.2375  -28.7858 H   0  0  0  0  0  0  0  0  0  0  0  0
   -1.7970   23.4700  -29.1701 H   0  0  0  0  0  0  0  0  0  0  0  0
   -2.7650   23.9110  -27.3040 C   0  0  0  0  0  0  0  0  0  0  0  0
   -1.8276   23.8830  -26.7291 H   0  0  0  0  0  0  0  0  0  0  0  0
   -3.2694   22.9334  -27.3006 H   0  0  0  0  0  0  0  0  0  0  0  0
   -3.7080   24.9240  -26.6560 C   0  0  0  0  0  0  0  0  0  0  0  0
   -3.6346   24.8452  -25.5613 H   0  0  0  0  0  0  0  0  0  0  0  0
   -3.4267   25.9400  -26.9701 H   0  0  0  0  0  0  0  0  0  0  0  0
   -4.7415   24.7160  -26.9701 H   0  0  0  0  0  0  0  0  0  0  0  0
   -4.9750   23.2750  -29.5160 S   0  0  0  0  0  0  0  0  0  0  0  0
   -8.6300   19.5290  -31.9670 C   0  0  0  0  0  0  0  0  0  0  0  0
   -9.5697   19.5581  -31.3959 H   0  0  0  0  0  0  0  0  0  0  0  0
   -8.0740   18.2980  -32.3310 C   0  0  0  0  0  0  0  0  0  0  0  0
   -8.5729   17.3621  -32.0393 H   0  0  0  0  0  0  0  0  0  0  0  0
   -6.8850   18.2560  -33.0650 C   0  0  0  0  0  0  0  0  0  0  0  0
   -6.1280   16.5750  -33.5630 Br  0  0  0  0  0  0  0  0  0  0  0  0
  1  2  1  0
  2  3  2  0
  3  4  1  0
  3  5  1  0
  5  6  1  0
  6  7  1  0
  6  8  1  0
  6  9  1  0
  9 10  2  0
  9 11  1  0
 11 12  2  0
 12 13  1  0
 13 14  1  0
 14 15  2  0
 15 16  1  0
 16 17  1  0
 16 18  1  0
 16 19  1  0
 19 20  1  0
 19 21  1  0
 19 22  1  0
 22 23  1  0
 22 24  1  0
 22 25  1  0
 15 26  1  0
  5 27  2  0
 27 28  1  0
 27 29  1  0
 29 30  1  0
 29 31  2  0
 31 32  1  0
 31  2  1  0
 26 12  1  0
M  CHG  1  13  -1
M  END
>  <UniqueID>  (48) 
45

>  <SMILES>  (48) 
CCCc1n[n-]/c(=N/C(=O)Cc2ccc(Br)cc2)s1

>  <Energy>  (48) 
61.690722768711346

>  <Genealogy>  (48) 
CCCc1n[n-]c(=NC(=O)Cc2ccc(Br)cc2)s1 (protonated)
CCCc1n[n-]/c(=N/C(=O)Cc2ccc(Br)cc2)s1 (cis-trans isomerization)
CCCc1n[n-]/c(=N/C(=O)Cc2ccc(Br)cc2)s1 (3D coordinates assigned)
CCCc1n[n-]/c(=N/C(=O)Cc2ccc(Br)cc2)s1 (optimized conformer: 61.690722768711346 kcal/mol)

>  <smiles>  (48) 
CCCc1n[nH]c(=NC(=O)Cc2ccc(Br)cc2)s1

>  <score_type>  (48) 
oracle

>  <origin>  (48) 
adgpu

>  <m_score__min__energy>  (48) 
-9.3000000000000007

>  <m_primary>  (48) 
energy

$$$$
48:0
     RDKit          3D

 47 49  0  0  0  0  0  0  0  0999 V2000
   -8.9840   22.8100  -31.9510 C   0  0  0  0  0  0  0  0  0  0  0  0
   -7.5110   22.5720  -31.8210 C   0  0  0  0  0  0  0  0  0  0  0  0
   -6.7700   21.4580  -32.2220 C   0  0  0  0  0  0  0  0  0  0  0  0
   -7.2710   20.2970  -32.9050 N   0  0  0  0  0  0  0  0  0  0  0  0
   -8.4180   19.5980  -32.3240 C   0  0  0  0  0  0  0  0  0  0  0  0
   -6.4870   19.6670  -33.9760 C   0  0  0  0  0  0  0  0  0  0  0  0
   -6.1300   18.2560  -33.5900 C   0  0  0  0  0  0  0  0  0  0  0  0
   -6.0400   17.2540  -34.5700 C   0  0  0  0  0  0  0  0  0  0  0  0
   -5.6620   15.9560  -34.2160 C   0  0  0  0  0  0  0  0  0  0  0  0
   -5.3620   15.6520  -32.8840 C   0  0  0  0  0  0  0  0  0  0  0  0
   -5.4350   16.6480  -31.9070 C   0  0  0  0  0  0  0  0  0  0  0  0
   -5.8140   17.9480  -32.2570 C   0  0  0  0  0  0  0  0  0  0  0  0
   -5.4990   21.6000  -31.8880 O   0  0  0  0  0  0  0  0  0  0  0  0
   -5.3730   22.7690  -31.3090 C   0  0  0  0  0  0  0  0  0  0  0  0
   -4.2100   23.3410  -30.8020 C   0  0  0  0  0  0  0  0  0  0  0  0
   -4.2910   24.6230  -30.2250 C   0  0  0  0  0  0  0  0  0  0  0  0
   -3.1180   25.1930  -29.7070 O   0  0  0  0  0  0  0  0  0  0  0  0
   -2.1680   24.5240  -28.9210 C   0  0  0  0  0  0  0  0  0  0  0  0
   -1.0020   24.3250  -29.3610 O   0  0  0  0  0  0  0  0  0  0  0  0
   -2.5440   24.0130  -27.6320 N   0  0  0  0  0  0  0  0  0  0  0  0
   -1.5620   23.2920  -26.8180 C   0  0  0  0  0  0  0  0  0  0  0  0
   -3.9100   24.2280  -27.1460 C   0  0  0  0  0  0  0  0  0  0  0  0
   -5.5490   25.2810  -30.1480 C   0  0  0  0  0  0  0  0  0  0  0  0
   -6.7080   24.6760  -30.6670 C   0  0  0  0  0  0  0  0  0  0  0  0
   -6.5800   23.4150  -31.2470 C   0  0  0  0  0  0  0  0  0  0  0  0
   -9.4335   22.8826  -30.9496 H   0  0  0  0  0  0  0  0  0  0  0  0
   -9.1569   23.7477  -32.4994 H   0  0  0  0  0  0  0  0  0  0  0  0
   -9.4434   21.9744  -32.4994 H   0  0  0  0  0  0  0  0  0  0  0  0
   -8.3538   19.6371  -31.2266 H   0  0  0  0  0  0  0  0  0  0  0  0
   -9.3486   20.0827  -32.6544 H   0  0  0  0  0  0  0  0  0  0  0  0
   -8.4138   18.5488  -32.6544 H   0  0  0  0  0  0  0  0  0  0  0  0
   -7.0807   19.6524  -34.9019 H   0  0  0  0  0  0  0  0  0  0  0  0
   -5.5634   20.2430  -34.1346 H   0  0  0  0  0  0  0  0  0  0  0  0
   -6.2678   17.4917  -35.6196 H   0  0  0  0  0  0  0  0  0  0  0  0
   -5.6003   15.1725  -34.9857 H   0  0  0  0  0  0  0  0  0  0  0  0
   -5.0687   14.6290  -32.6058 H   0  0  0  0  0  0  0  0  0  0  0  0
   -5.1940   16.4093  -30.8606 H   0  0  0  0  0  0  0  0  0  0  0  0
   -5.8646   18.7311  -31.4861 H   0  0  0  0  0  0  0  0  0  0  0  0
   -3.2508   22.8047  -30.8508 H   0  0  0  0  0  0  0  0  0  0  0  0
   -1.7807   23.4526  -25.7520 H   0  0  0  0  0  0  0  0  0  0  0  0
   -1.6156   22.2171  -27.0455 H   0  0  0  0  0  0  0  0  0  0  0  0
   -0.5525   23.6650  -27.0455 H   0  0  0  0  0  0  0  0  0  0  0  0
   -3.9120   24.2283  -26.0460 H   0  0  0  0  0  0  0  0  0  0  0  0
   -4.2819   25.1957  -27.5136 H   0  0  0  0  0  0  0  0  0  0  0  0
   -4.5612   23.4213  -27.5136 H   0  0  0  0  0  0  0  0  0  0  0  0
   -5.6166   26.2732  -29.6778 H   0  0  0  0  0  0  0  0  0  0  0  0
   -7.6836   25.1816  -30.6168 H   0  0  0  0  0  0  0  0  0  0  0  0
  1  2  1  0
  2  3  2  0
  3  4  1  0
  4  5  1  0
  4  6  1  0
  6  7  1  0
  7  8  2  0
  8  9  1  0
  9 10  2  0
 10 11  1  0
 11 12  2  0
  3 13  1  0
 13 14  1  0
 14 15  2  0
 15 16  1  0
 16 17  1  0
 17 18  1  0
 18 19  2  0
 18 20  1  0
 20 21  1  0
 20 22  1  0
 16 23  2  0
 23 24  1  0
 24 25  2  0
 25  2  1  0
 12  7  1  0
 25 14  1  0
  1 26  1  0
  1 27  1  0
  1 28  1  0
  5 29  1  0
  5 30  1  0
  5 31  1  0
  6 32  1  0
  6 33  1  0
  8 34  1  0
  9 35  1  0
 10 36  1  0
 11 37  1  0
 12 38  1  0
 15 39  1  0
 21 40  1  0
 21 41  1  0
 21 42  1  0
 22 43  1  0
 22 44  1  0
 22 45  1  0
 23 46  1  0
 24 47  1  0
M  END
>  <UniqueID>  (49) 
46

>  <SMILES>  (49) 
Cc1c(N(C)Cc2ccccc2)oc2cc(OC(=O)N(C)C)ccc12

>  <Energy>  (49) 
84.08467282226772

>  <Genealogy>  (49) 
Cc1c(N(C)Cc2ccccc2)oc2cc(OC(=O)N(C)C)ccc12 (3D coordinates assigned)
Cc1c(N(C)Cc2ccccc2)oc2cc(OC(=O)N(C)C)ccc12 (optimized conformer: 84.08467282226772 kcal/mol)

>  <smiles>  (49) 
Cc1c(N(C)Cc2ccccc2)oc2cc(OC(=O)N(C)C)ccc12

>  <score_type>  (49) 
oracle

>  <origin>  (49) 
adgpu

>  <m_score__min__energy>  (49) 
-8.7699999999999996

>  <m_primary>  (49) 
energy

$$$$
