0:0
     RDKit          3D

 41 44  0  0  0  0  0  0  0  0999 V2000
   -2.6570   19.7160  -27.1840 C   0  0  0  0  0  0  0  0  0  0  0  0
   -3.1260   21.0360  -27.5880 N   0  0  0  0  0  0  0  0  0  0  0  0
   -2.5350   21.7410  -28.6860 C   0  0  0  0  0  0  0  0  0  0  0  0
   -1.5140   21.2750  -29.2600 O   0  0  0  0  0  0  0  0  0  0  0  0
   -3.1070   23.0210  -29.1480 C   0  0  0  0  0  0  0  0  0  0  0  0
   -2.5330   24.2980  -29.0770 C   0  0  0  0  0  0  0  0  0  0  0  0
   -1.2750   24.6860  -28.4060 C   0  0  0  0  0  0  0  0  0  0  0  0
   -0.1330   23.8670  -28.4660 C   0  0  0  0  0  0  0  0  0  0  0  0
    1.0400   24.2440  -27.8050 C   0  0  0  0  0  0  0  0  0  0  0  0
    1.0800   25.4300  -27.0670 C   0  0  0  0  0  0  0  0  0  0  0  0
    2.2170   25.7920  -26.4250 F   0  0  0  0  0  0  0  0  0  0  0  0
   -0.0570   26.2370  -26.9830 C   0  0  0  0  0  0  0  0  0  0  0  0
   -1.2330   25.8640  -27.6430 C   0  0  0  0  0  0  0  0  0  0  0  0
   -3.2980   25.1710  -29.7100 O   0  0  0  0  0  0  0  0  0  0  0  0
   -4.3380   24.5290  -30.1830 C   0  0  0  0  0  0  0  0  0  0  0  0
   -5.3860   25.0570  -30.9290 C   0  0  0  0  0  0  0  0  0  0  0  0
   -6.3860   24.1780  -31.3760 C   0  0  0  0  0  0  0  0  0  0  0  0
   -6.3190   22.7890  -31.0830 C   0  0  0  0  0  0  0  0  0  0  0  0
   -7.3710   21.8640  -31.5770 C   0  0  0  0  0  0  0  0  0  0  0  0
   -7.0330   20.6160  -32.1260 C   0  0  0  0  0  0  0  0  0  0  0  0
   -8.0320   19.7570  -32.5860 C   0  0  0  0  0  0  0  0  0  0  0  0
   -9.3680   20.1490  -32.4930 C   0  0  0  0  0  0  0  0  0  0  0  0
   -9.6860   21.3580  -31.9630 N   0  0  0  0  0  0  0  0  0  0  0  0
   -8.7320   22.2140  -31.5060 C   0  0  0  0  0  0  0  0  0  0  0  0
   -5.2340   22.2930  -30.3220 C   0  0  0  0  0  0  0  0  0  0  0  0
   -4.2740   23.1990  -29.8670 C   0  0  0  0  0  0  0  0  0  0  0  0
   -2.6353   19.6548  -26.0859 H   0  0  0  0  0  0  0  0  0  0  0  0
   -3.3373   18.9479  -27.5806 H   0  0  0  0  0  0  0  0  0  0  0  0
   -1.6446   19.5493  -27.5806 H   0  0  0  0  0  0  0  0  0  0  0  0
   -3.8860   21.4880  -27.0310 H   0  0  0  0  0  0  0  0  0  0  0  0
   -0.1629   22.9262  -29.0352 H   0  0  0  0  0  0  0  0  0  0  0  0
    1.9336   23.6054  -27.8660 H   0  0  0  0  0  0  0  0  0  0  0  0
   -0.0278   27.1674  -26.3969 H   0  0  0  0  0  0  0  0  0  0  0  0
   -2.1292   26.4968  -27.5637 H   0  0  0  0  0  0  0  0  0  0  0  0
   -5.4305   26.1311  -31.1621 H   0  0  0  0  0  0  0  0  0  0  0  0
   -7.2318   24.5696  -31.9603 H   0  0  0  0  0  0  0  0  0  0  0  0
   -5.9772   20.3148  -32.1936 H   0  0  0  0  0  0  0  0  0  0  0  0
   -7.7688   18.7801  -33.0178 H   0  0  0  0  0  0  0  0  0  0  0  0
  -10.1638   19.4783  -32.8492 H   0  0  0  0  0  0  0  0  0  0  0  0
   -9.0262   23.1841  -31.0791 H   0  0  0  0  0  0  0  0  0  0  0  0
   -5.1490   21.2201  -30.0945 H   0  0  0  0  0  0  0  0  0  0  0  0
  1  2  1  0
  2  3  1  0
  3  4  2  0
  3  5  1  0
  5  6  2  0
  6  7  1  0
  7  8  2  0
  8  9  1  0
  9 10  2  0
 10 11  1  0
 10 12  1  0
 12 13  2  0
  6 14  1  0
 14 15  1  0
 15 16  2  0
 16 17  1  0
 17 18  2  0
 18 19  1  0
 19 20  2  0
 20 21  1  0
 21 22  2  0
 22 23  1  0
 23 24  2  0
 18 25  1  0
 25 26  2  0
 26  5  1  0
 13  7  1  0
 26 15  1  0
 24 19  1  0
  1 27  1  0
  1 28  1  0
  1 29  1  0
  2 30  1  0
  8 31  1  0
  9 32  1  0
 12 33  1  0
 13 34  1  0
 16 35  1  0
 17 36  1  0
 20 37  1  0
 21 38  1  0
 22 39  1  0
 24 40  1  0
 25 41  1  0
M  END
>  <UniqueID>  (1) 
1

>  <SMILES>  (1) 
CNC(=O)c1c(-c2ccc(F)cc2)oc2ccc(-c3cccnc3)cc12

>  <Energy>  (1) 
90.08515731433987

>  <Genealogy>  (1) 
CNC(=O)c1c(-c2ccc(F)cc2)oc2ccc(-c3cccnc3)cc12 (3D coordinates assigned)
CNC(=O)c1c(-c2ccc(F)cc2)oc2ccc(-c3cccnc3)cc12 (optimized conformer: 90.08515731433987 kcal/mol)

>  <smiles>  (1) 
CNC(=O)c1c(-c2ccc(F)cc2)oc2ccc(-c3cccnc3)cc12

>  <score_type>  (1) 
oracle

>  <origin>  (1) 
adgpu

>  <m_score__min__energy>  (1) 
-8.6300000000000008

>  <m_primary>  (1) 
energy

$$$$
1:0
     RDKit          3D

 33 34  0  0  0  0  0  0  0  0999 V2000
   -2.7570   20.0720  -27.4240 C   0  0  0  0  0  0  0  0  0  0  0  0
   -2.6130   21.5600  -27.5570 C   0  0  0  0  0  0  0  0  0  0  0  0
   -1.3610   22.1650  -27.3850 C   0  0  0  0  0  0  0  0  0  0  0  0
   -1.2130   23.5490  -27.5490 C   0  0  0  0  0  0  0  0  0  0  0  0
    0.1190   24.2000  -27.3150 C   0  0  0  0  0  0  0  0  0  0  0  0
   -2.3310   24.3320  -27.8700 C   0  0  0  0  0  0  0  0  0  0  0  0
   -3.5880   23.7330  -28.0780 C   0  0  0  0  0  0  0  0  0  0  0  0
   -4.7450   24.5070  -28.4440 N   0  0  0  0  0  0  0  0  0  0  0  0
   -5.1740   24.8900  -30.0820 S   0  0  0  0  0  0  0  0  0  0  0  0
   -6.1220   26.0560  -30.0870 O   0  0  0  0  0  0  0  0  0  0  0  0
   -3.9320   25.2670  -30.8400 O   0  0  0  0  0  0  0  0  0  0  0  0
   -5.9690   23.5100  -30.8330 C   0  0  0  0  0  0  0  0  0  0  0  0
   -5.3120   22.7580  -31.8170 C   0  0  0  0  0  0  0  0  0  0  0  0
   -5.9440   21.6510  -32.3930 C   0  0  0  0  0  0  0  0  0  0  0  0
   -7.2350   21.2920  -31.9920 C   0  0  0  0  0  0  0  0  0  0  0  0
   -8.0250   19.9030  -32.7130 Cl  0  0  0  0  0  0  0  0  0  0  0  0
   -7.8960   22.0440  -31.0140 C   0  0  0  0  0  0  0  0  0  0  0  0
   -7.2660   23.1520  -30.4370 C   0  0  0  0  0  0  0  0  0  0  0  0
   -3.7160   22.3450  -27.9190 C   0  0  0  0  0  0  0  0  0  0  0  0
   -2.7833   19.8000  -26.3585 H   0  0  0  0  0  0  0  0  0  0  0  0
   -3.6906   19.7492  -27.9080 H   0  0  0  0  0  0  0  0  0  0  0  0
   -1.9026   19.5762  -27.9080 H   0  0  0  0  0  0  0  0  0  0  0  0
   -0.4886   21.5498  -27.1195 H   0  0  0  0  0  0  0  0  0  0  0  0
    0.2991   24.2880  -26.2334 H   0  0  0  0  0  0  0  0  0  0  0  0
    0.9114   23.5876  -27.7700 H   0  0  0  0  0  0  0  0  0  0  0  0
    0.1227   25.2015  -27.7700 H   0  0  0  0  0  0  0  0  0  0  0  0
   -2.2251   25.4232  -27.9600 H   0  0  0  0  0  0  0  0  0  0  0  0
   -5.4260   24.7830  -27.7010 H   0  0  0  0  0  0  0  0  0  0  0  0
   -4.2977   23.0390  -32.1367 H   0  0  0  0  0  0  0  0  0  0  0  0
   -5.4246   21.0616  -33.1629 H   0  0  0  0  0  0  0  0  0  0  0  0
   -8.9119   21.7636  -30.6987 H   0  0  0  0  0  0  0  0  0  0  0  0
   -7.7890   23.7436  -29.6712 H   0  0  0  0  0  0  0  0  0  0  0  0
   -4.6936   21.8673  -28.0804 H   0  0  0  0  0  0  0  0  0  0  0  0
  1  2  1  0
  2  3  2  0
  3  4  1  0
  4  5  1  0
  4  6  2  0
  6  7  1  0
  7  8  1  0
  8  9  1  0
  9 10  2  0
  9 11  2  0
  9 12  1  0
 12 13  2  0
 13 14  1  0
 14 15  2  0
 15 16  1  0
 15 17  1  0
 17 18  2  0
  7 19  2  0
 19  2  1  0
 18 12  1  0
  1 20  1  0
  1 21  1  0
  1 22  1  0
  3 23  1  0
  5 24  1  0
  5 25  1  0
  5 26  1  0
  6 27  1  0
  8 28  1  0
 13 29  1  0
 14 30  1  0
 17 31  1  0
 18 32  1  0
 19 33  1  0
M  END
>  <UniqueID>  (2) 
2

>  <SMILES>  (2) 
Cc1cc(C)cc(NS(=O)(=O)c2ccc(Cl)cc2)c1

>  <Energy>  (2) 
33.99628115263016

>  <Genealogy>  (2) 
Cc1cc(C)cc(NS(=O)(=O)c2ccc(Cl)cc2)c1 (3D coordinates assigned)
Cc1cc(C)cc(NS(=O)(=O)c2ccc(Cl)cc2)c1 (optimized conformer: 33.99628115263016 kcal/mol)

>  <smiles>  (2) 
Cc1cc(C)cc(NS(=O)(=O)c2ccc(Cl)cc2)c1

>  <score_type>  (2) 
oracle

>  <origin>  (2) 
adgpu

>  <m_score__min__energy>  (2) 
-8.3900000000000006

>  <m_primary>  (2) 
energy

$$$$
2:0
     RDKit          3D

 56 59  0  0  0  0  0  0  0  0999 V2000
   -9.8160   21.9860  -32.0420 C   0  0  0  0  0  0  0  0  0  0  0  0
   -8.4450   22.3940  -31.5890 C   0  0  0  0  0  0  0  0  0  0  0  0
   -7.6850   23.2830  -32.3630 C   0  0  0  0  0  0  0  0  0  0  0  0
   -6.4200   23.6910  -31.9280 C   0  0  0  0  0  0  0  0  0  0  0  0
   -5.9100   23.2320  -30.7060 C   0  0  0  0  0  0  0  0  0  0  0  0
   -4.3140   23.7500  -30.1560 S   0  0  0  0  0  0  0  0  0  0  0  0
   -4.3640   23.9870  -28.6720 O   0  0  0  0  0  0  0  0  0  0  0  0
   -3.9770   25.0620  -30.8100 O   0  0  0  0  0  0  0  0  0  0  0  0
   -3.0700   22.5640  -30.5230 N   0  0  0  0  0  0  0  0  0  0  0  0
   -3.3370   21.2900  -29.8250 C   0  0  0  0  0  0  0  0  0  0  0  0
   -2.6160   21.2340  -28.5030 C   0  0  0  0  0  0  0  0  0  0  0  0
   -2.6600   20.0690  -27.7160 C   0  0  0  0  0  0  0  0  0  0  0  0
   -1.9770   20.0160  -26.4980 C   0  0  0  0  0  0  0  0  0  0  0  0
   -1.2350   21.1170  -26.0620 C   0  0  0  0  0  0  0  0  0  0  0  0
   -1.1700   22.2720  -26.8470 C   0  0  0  0  0  0  0  0  0  0  0  0
   -1.8520   22.3290  -28.0670 C   0  0  0  0  0  0  0  0  0  0  0  0
   -2.9690   22.3450  -31.9810 C   0  0  0  0  0  0  0  0  0  0  0  0
   -3.5160   20.9940  -32.3620 C   0  0  0  0  0  0  0  0  0  0  0  0
   -4.8940   20.8200  -32.5600 C   0  0  0  0  0  0  0  0  0  0  0  0
   -5.4050   19.5710  -32.9200 C   0  0  0  0  0  0  0  0  0  0  0  0
   -4.5450   18.4720  -33.0980 C   0  0  0  0  0  0  0  0  0  0  0  0
   -5.0880   17.1410  -33.4730 C   0  0  0  0  0  0  0  0  0  0  0  0
   -4.2700   15.9970  -33.4340 C   0  0  0  0  0  0  0  0  0  0  0  0
   -4.7840   14.7450  -33.7890 C   0  0  0  0  0  0  0  0  0  0  0  0
   -6.1170   14.6220  -34.1850 C   0  0  0  0  0  0  0  0  0  0  0  0
   -6.9390   15.7500  -34.2290 C   0  0  0  0  0  0  0  0  0  0  0  0
   -6.4310   17.0030  -33.8750 C   0  0  0  0  0  0  0  0  0  0  0  0
   -3.1630   18.6540  -32.9160 C   0  0  0  0  0  0  0  0  0  0  0  0
   -2.6520   19.9040  -32.5580 C   0  0  0  0  0  0  0  0  0  0  0  0
   -6.6720   22.3470  -29.9300 C   0  0  0  0  0  0  0  0  0  0  0  0
   -7.9360   21.9390  -30.3630 C   0  0  0  0  0  0  0  0  0  0  0  0
  -10.4511   21.7970  -31.1640 H   0  0  0  0  0  0  0  0  0  0  0  0
  -10.2572   22.7918  -32.6470 H   0  0  0  0  0  0  0  0  0  0  0  0
   -9.7448   21.0701  -32.6470 H   0  0  0  0  0  0  0  0  0  0  0  0
   -8.0853   23.6606  -33.3155 H   0  0  0  0  0  0  0  0  0  0  0  0
   -5.8224   24.3755  -32.5480 H   0  0  0  0  0  0  0  0  0  0  0  0
   -4.4187   21.1970  -29.6484 H   0  0  0  0  0  0  0  0  0  0  0  0
   -2.9756   20.4640  -30.4552 H   0  0  0  0  0  0  0  0  0  0  0  0
   -3.2342   19.1963  -28.0606 H   0  0  0  0  0  0  0  0  0  0  0  0
   -2.0235   19.1062  -25.8815 H   0  0  0  0  0  0  0  0  0  0  0  0
   -0.7019   21.0749  -25.1008 H   0  0  0  0  0  0  0  0  0  0  0  0
   -0.5821   23.1366  -26.5051 H   0  0  0  0  0  0  0  0  0  0  0  0
   -1.7897   23.2352  -28.6875 H   0  0  0  0  0  0  0  0  0  0  0  0
   -3.5421   23.1256  -32.5028 H   0  0  0  0  0  0  0  0  0  0  0  0
   -1.9085   22.3884  -32.2698 H   0  0  0  0  0  0  0  0  0  0  0  0
   -5.5765   21.6729  -32.4309 H   0  0  0  0  0  0  0  0  0  0  0  0
   -6.4881   19.4457  -33.0654 H   0  0  0  0  0  0  0  0  0  0  0  0
   -3.2190   16.0875  -33.1222 H   0  0  0  0  0  0  0  0  0  0  0  0
   -4.1367   13.8562  -33.7560 H   0  0  0  0  0  0  0  0  0  0  0  0
   -6.5198   13.6367  -34.4623 H   0  0  0  0  0  0  0  0  0  0  0  0
   -7.9887   15.6522  -34.5430 H   0  0  0  0  0  0  0  0  0  0  0  0
   -7.0843   17.8873  -33.9105 H   0  0  0  0  0  0  0  0  0  0  0  0
   -2.4780   17.8049  -33.0567 H   0  0  0  0  0  0  0  0  0  0  0  0
   -1.5675   20.0353  -32.4290 H   0  0  0  0  0  0  0  0  0  0  0  0
   -6.2727   21.9723  -28.9760 H   0  0  0  0  0  0  0  0  0  0  0  0
   -8.5348   21.2582  -29.7402 H   0  0  0  0  0  0  0  0  0  0  0  0
  1  2  1  0
  2  3  2  0
  3  4  1  0
  4  5  2  0
  5  6  1  0
  6  7  2  0
  6  8  2  0
  6  9  1  0
  9 10  1  0
 10 11  1  0
 11 12  2  0
 12 13  1  0
 13 14  2  0
 14 15  1  0
 15 16  2  0
  9 17  1  0
 17 18  1  0
 18 19  2  0
 19 20  1  0
 20 21  2  0
 21 22  1  0
 22 23  2  0
 23 24  1  0
 24 25  2  0
 25 26  1  0
 26 27  2  0
 21 28  1  0
 28 29  2  0
  5 30  1  0
 30 31  2  0
 31  2  1  0
 16 11  1  0
 29 18  1  0
 27 22  1  0
  1 32  1  0
  1 33  1  0
  1 34  1  0
  3 35  1  0
  4 36  1  0
 10 37  1  0
 10 38  1  0
 12 39  1  0
 13 40  1  0
 14 41  1  0
 15 42  1  0
 16 43  1  0
 17 44  1  0
 17 45  1  0
 19 46  1  0
 20 47  1  0
 23 48  1  0
 24 49  1  0
 25 50  1  0
 26 51  1  0
 27 52  1  0
 28 53  1  0
 29 54  1  0
 30 55  1  0
 31 56  1  0
M  END
>  <UniqueID>  (3) 
3

>  <SMILES>  (3) 
Cc1ccc(S(=O)(=O)N(Cc2ccccc2)Cc2ccc(-c3ccccc3)cc2)cc1

>  <Energy>  (3) 
64.15347035955183

>  <Genealogy>  (3) 
Cc1ccc(S(=O)(=O)N(Cc2ccccc2)Cc2ccc(-c3ccccc3)cc2)cc1 (3D coordinates assigned)
Cc1ccc(S(=O)(=O)N(Cc2ccccc2)Cc2ccc(-c3ccccc3)cc2)cc1 (optimized conformer: 64.15347035955183 kcal/mol)

>  <smiles>  (3) 
Cc1ccc(S(=O)(=O)N(Cc2ccccc2)Cc2ccc(-c3ccccc3)cc2)cc1

>  <score_type>  (3) 
oracle

>  <origin>  (3) 
adgpu

>  <m_score__min__energy>  (3) 
-10.25

>  <m_primary>  (3) 
energy

$$$$
3:0
     RDKit          3D

 33 34  0  0  0  0  0  0  0  0999 V2000
   -6.4690   24.7630  -30.1930 O   0  0  0  0  0  0  0  0  0  0  0  0
   -5.7450   24.3590  -31.1450 C   0  0  0  0  0  0  0  0  0  0  0  0
   -6.3340   23.6860  -32.2630 N   0  0  0  0  0  0  0  0  0  0  0  0
   -7.7320   23.2600  -32.2730 C   0  0  0  0  0  0  0  0  0  0  0  0
   -7.8140   21.7570  -32.2730 C   0  0  0  0  0  0  0  0  0  0  0  0
   -9.0190   21.1200  -31.9350 C   0  0  0  0  0  0  0  0  0  0  0  0
   -9.1130   19.7260  -31.9730 C   0  0  0  0  0  0  0  0  0  0  0  0
   -8.0080   18.9590  -32.3540 C   0  0  0  0  0  0  0  0  0  0  0  0
   -6.8080   19.5860  -32.6970 C   0  0  0  0  0  0  0  0  0  0  0  0
   -6.7090   20.9800  -32.6600 C   0  0  0  0  0  0  0  0  0  0  0  0
   -4.3600   24.5510  -31.1130 O   0  0  0  0  0  0  0  0  0  0  0  0
   -3.4650   23.6630  -30.4490 C   0  0  0  0  0  0  0  0  0  0  0  0
   -3.1930   24.1470  -29.0500 C   0  0  0  0  0  0  0  0  0  0  0  0
   -4.2010   24.0710  -28.0750 C   0  0  0  0  0  0  0  0  0  0  0  0
   -3.9690   24.5560  -26.7840 C   0  0  0  0  0  0  0  0  0  0  0  0
   -2.7340   25.1220  -26.4590 C   0  0  0  0  0  0  0  0  0  0  0  0
   -1.7280   25.2050  -27.4260 C   0  0  0  0  0  0  0  0  0  0  0  0
   -1.9540   24.7230  -28.7190 C   0  0  0  0  0  0  0  0  0  0  0  0
   -5.7250   23.4400  -33.0750 H   0  0  0  0  0  0  0  0  0  0  0  0
   -8.2384   23.6521  -31.3787 H   0  0  0  0  0  0  0  0  0  0  0  0
   -8.2203   23.6475  -33.1793 H   0  0  0  0  0  0  0  0  0  0  0  0
   -9.8920   21.7203  -31.6393 H   0  0  0  0  0  0  0  0  0  0  0  0
  -10.0578   19.2317  -31.7027 H   0  0  0  0  0  0  0  0  0  0  0  0
   -8.0836   17.8620  -32.3836 H   0  0  0  0  0  0  0  0  0  0  0  0
   -5.9391   18.9818  -32.9968 H   0  0  0  0  0  0  0  0  0  0  0  0
   -5.7633   21.4701  -32.9347 H   0  0  0  0  0  0  0  0  0  0  0  0
   -3.9145   22.6600  -30.4053 H   0  0  0  0  0  0  0  0  0  0  0  0
   -2.5173   23.6265  -31.0062 H   0  0  0  0  0  0  0  0  0  0  0  0
   -5.1759   23.6286  -28.3276 H   0  0  0  0  0  0  0  0  0  0  0  0
   -4.7606   24.4916  -26.0230 H   0  0  0  0  0  0  0  0  0  0  0  0
   -2.5532   25.5022  -25.4427 H   0  0  0  0  0  0  0  0  0  0  0  0
   -0.7558   25.6508  -27.1690 H   0  0  0  0  0  0  0  0  0  0  0  0
   -1.1613   24.7946  -29.4782 H   0  0  0  0  0  0  0  0  0  0  0  0
  1  2  2  0
  2  3  1  0
  3  4  1  0
  4  5  1  0
  5  6  2  0
  6  7  1  0
  7  8  2  0
  8  9  1  0
  9 10  2  0
  2 11  1  0
 11 12  1  0
 12 13  1  0
 13 14  2  0
 14 15  1  0
 15 16  2  0
 16 17  1  0
 17 18  2  0
 10  5  1  0
 18 13  1  0
  3 19  1  0
  4 20  1  0
  4 21  1  0
  6 22  1  0
  7 23  1  0
  8 24  1  0
  9 25  1  0
 10 26  1  0
 12 27  1  0
 12 28  1  0
 14 29  1  0
 15 30  1  0
 16 31  1  0
 17 32  1  0
 18 33  1  0
M  END
>  <UniqueID>  (4) 
4

>  <SMILES>  (4) 
O=C(NCc1ccccc1)OCc1ccccc1

>  <Energy>  (4) 
28.167752947480512

>  <Genealogy>  (4) 
O=C(NCc1ccccc1)OCc1ccccc1 (3D coordinates assigned)
O=C(NCc1ccccc1)OCc1ccccc1 (optimized conformer: 28.167752947480512 kcal/mol)

>  <smiles>  (4) 
O=C(NCc1ccccc1)OCc1ccccc1

>  <score_type>  (4) 
oracle

>  <origin>  (4) 
adgpu

>  <m_score__min__energy>  (4) 
-7.3799999999999999

>  <m_primary>  (4) 
energy

$$$$
4:0
     RDKit          3D

 32 32  0  0  0  0  0  0  0  0999 V2000
   -6.4720   25.3650  -29.6650 C   0  0  0  0  0  0  0  0  0  0  0  0
   -5.1710   25.3410  -30.4620 C   0  0  0  0  0  0  0  0  0  0  0  0
   -4.5390   23.9430  -30.4490 C   0  0  0  0  0  0  0  0  0  0  0  0
   -5.0490   23.0540  -31.5920 C   0  0  0  0  0  0  0  0  0  0  0  0
   -5.9730   23.7990  -32.4570 N   0  0  0  0  0  0  0  0  0  0  0  0
   -7.3360   23.2650  -32.3350 C   0  0  0  0  0  0  0  0  0  0  0  0
   -7.4300   22.2950  -31.1520 C   0  0  0  0  0  0  0  0  0  0  0  0
   -7.6480   20.8780  -31.6200 C   0  0  0  0  0  0  0  0  0  0  0  0
   -6.5670   19.9810  -31.6630 C   0  0  0  0  0  0  0  0  0  0  0  0
   -6.7630   18.6560  -32.0650 C   0  0  0  0  0  0  0  0  0  0  0  0
   -8.0390   18.2140  -32.4190 C   0  0  0  0  0  0  0  0  0  0  0  0
   -9.1230   19.0930  -32.3710 C   0  0  0  0  0  0  0  0  0  0  0  0
   -8.9340   20.4210  -31.9710 C   0  0  0  0  0  0  0  0  0  0  0  0
  -10.0030   21.2550  -31.9210 F   0  0  0  0  0  0  0  0  0  0  0  0
   -6.2430   25.3608  -28.5891 H   0  0  0  0  0  0  0  0  0  0  0  0
   -7.0389   26.2738  -29.9157 H   0  0  0  0  0  0  0  0  0  0  0  0
   -7.0720   24.4778  -29.9157 H   0  0  0  0  0  0  0  0  0  0  0  0
   -5.3819   25.6299  -31.5022 H   0  0  0  0  0  0  0  0  0  0  0  0
   -4.4656   26.0469  -29.9992 H   0  0  0  0  0  0  0  0  0  0  0  0
   -3.4483   24.0485  -30.5446 H   0  0  0  0  0  0  0  0  0  0  0  0
   -4.8183   23.4599  -29.5011 H   0  0  0  0  0  0  0  0  0  0  0  0
   -4.1930   22.7091  -32.1905 H   0  0  0  0  0  0  0  0  0  0  0  0
   -5.5838   22.1952  -31.1602 H   0  0  0  0  0  0  0  0  0  0  0  0
   -5.6710   23.6550  -33.4490 H   0  0  0  0  0  0  0  0  0  0  0  0
   -8.0378   24.0972  -32.1771 H   0  0  0  0  0  0  0  0  0  0  0  0
   -7.5897   22.7243  -33.2587 H   0  0  0  0  0  0  0  0  0  0  0  0
   -6.4945   22.3418  -30.5753 H   0  0  0  0  0  0  0  0  0  0  0  0
   -8.2871   22.5901  -30.5288 H   0  0  0  0  0  0  0  0  0  0  0  0
   -5.5609   20.3231  -31.3788 H   0  0  0  0  0  0  0  0  0  0  0  0
   -5.9109   17.9614  -32.1023 H   0  0  0  0  0  0  0  0  0  0  0  0
   -8.1908   17.1717  -32.7362 H   0  0  0  0  0  0  0  0  0  0  0  0
  -10.1276   18.7410  -32.6481 H   0  0  0  0  0  0  0  0  0  0  0  0
  1  2  1  0
  2  3  1  0
  3  4  1  0
  4  5  1  0
  5  6  1  0
  6  7  1  0
  7  8  1  0
  8  9  2  0
  9 10  1  0
 10 11  2  0
 11 12  1  0
 12 13  2  0
 13 14  1  0
 13  8  1  0
  1 15  1  0
  1 16  1  0
  1 17  1  0
  2 18  1  0
  2 19  1  0
  3 20  1  0
  3 21  1  0
  4 22  1  0
  4 23  1  0
  5 24  1  0
  6 25  1  0
  6 26  1  0
  7 27  1  0
  7 28  1  0
  9 29  1  0
 10 30  1  0
 11 31  1  0
 12 32  1  0
M  END
>  <UniqueID>  (5) 
5

>  <SMILES>  (5) 
CCCCNCCc1ccccc1F

>  <Energy>  (5) 
19.696582263541252

>  <Genealogy>  (5) 
CCCCNCCc1ccccc1F (3D coordinates assigned)
CCCCNCCc1ccccc1F (optimized conformer: 19.696582263541252 kcal/mol)

>  <smiles>  (5) 
CCCCNCCc1ccccc1F

>  <score_type>  (5) 
oracle

>  <origin>  (5) 
adgpu

>  <m_score__min__energy>  (5) 
-6.0300000000000002

>  <m_primary>  (5) 
energy

$$$$
5:0
     RDKit          3D

 40 42  0  0  0  0  0  0  0  0999 V2000
   -3.9950   17.0450  -34.4630 C   0  0  0  0  0  0  0  0  0  0  0  0
   -3.8880   18.3480  -33.7390 C   0  0  0  0  0  0  0  0  0  0  0  0
   -4.6630   18.5920  -32.6000 C   0  0  0  0  0  0  0  0  0  0  0  0
   -4.5650   19.8270  -31.9570 C   0  0  0  0  0  0  0  0  0  0  0  0
   -3.7010   20.8190  -32.4470 C   0  0  0  0  0  0  0  0  0  0  0  0
   -3.6220   22.1450  -31.7750 C   0  0  0  0  0  0  0  0  0  0  0  0
   -2.4970   22.6890  -31.6030 O   0  0  0  0  0  0  0  0  0  0  0  0
   -4.8260   22.8730  -31.3180 C   0  0  0  0  0  0  0  0  0  0  0  0
   -6.0920   22.3170  -31.5740 C   0  0  0  0  0  0  0  0  0  0  0  0
   -7.2570   23.0220  -31.2560 C   0  0  0  0  0  0  0  0  0  0  0  0
   -8.8280   22.3090  -31.5730 Cl  0  0  0  0  0  0  0  0  0  0  0  0
   -7.1690   24.3030  -30.7080 C   0  0  0  0  0  0  0  0  0  0  0  0
   -5.9180   24.8740  -30.4660 C   0  0  0  0  0  0  0  0  0  0  0  0
   -4.7420   24.1650  -30.7440 C   0  0  0  0  0  0  0  0  0  0  0  0
   -3.4920   24.7960  -30.4360 N   0  0  0  0  0  0  0  0  0  0  0  0
   -2.5830   24.5570  -28.9760 S   0  0  0  0  0  0  0  0  0  0  0  0
   -1.3790   25.4560  -28.9890 O   0  0  0  0  0  0  0  0  0  0  0  0
   -3.4480   24.9190  -27.8020 O   0  0  0  0  0  0  0  0  0  0  0  0
   -2.0820   22.8780  -28.7880 C   0  0  0  0  0  0  0  0  0  0  0  0
   -2.9790   21.9230  -28.2850 C   0  0  0  0  0  0  0  0  0  0  0  0
   -2.5850   20.5880  -28.1510 C   0  0  0  0  0  0  0  0  0  0  0  0
   -1.2940   20.1990  -28.5230 C   0  0  0  0  0  0  0  0  0  0  0  0
   -0.9100   18.9070  -28.3840 F   0  0  0  0  0  0  0  0  0  0  0  0
   -0.4010   21.1430  -29.0380 C   0  0  0  0  0  0  0  0  0  0  0  0
   -0.7960   22.4770  -29.1810 C   0  0  0  0  0  0  0  0  0  0  0  0
   -2.9550   20.5320  -33.6070 C   0  0  0  0  0  0  0  0  0  0  0  0
   -3.0670   19.3220  -34.2150 N   0  0  0  0  0  0  0  0  0  0  0  0
   -4.0624   16.2246  -33.7334 H   0  0  0  0  0  0  0  0  0  0  0  0
   -4.8958   17.0492  -35.0943 H   0  0  0  0  0  0  0  0  0  0  0  0
   -3.1056   16.9022  -35.0943 H   0  0  0  0  0  0  0  0  0  0  0  0
   -5.3431   17.8179  -32.2149 H   0  0  0  0  0  0  0  0  0  0  0  0
   -5.1694   20.0245  -31.0594 H   0  0  0  0  0  0  0  0  0  0  0  0
   -6.1666   21.3181  -32.0287 H   0  0  0  0  0  0  0  0  0  0  0  0
   -8.0850   24.8624  -30.4669 H   0  0  0  0  0  0  0  0  0  0  0  0
   -5.8551   25.8914  -30.0526 H   0  0  0  0  0  0  0  0  0  0  0  0
   -3.9960   22.2258  -27.9950 H   0  0  0  0  0  0  0  0  0  0  0  0
   -3.2904   19.8437  -27.7530 H   0  0  0  0  0  0  0  0  0  0  0  0
    0.6139   20.8363  -29.3312 H   0  0  0  0  0  0  0  0  0  0  0  0
   -0.0966   23.2139  -29.6027 H   0  0  0  0  0  0  0  0  0  0  0  0
   -2.2776   21.2922  -34.0232 H   0  0  0  0  0  0  0  0  0  0  0  0
  1  2  1  0
  2  3  2  0
  3  4  1  0
  4  5  2  0
  5  6  1  0
  6  7  2  0
  6  8  1  0
  8  9  2  0
  9 10  1  0
 10 11  1  0
 10 12  2  0
 12 13  1  0
 13 14  2  0
 14 15  1  0
 15 16  1  0
 16 17  2  0
 16 18  2  0
 16 19  1  0
 19 20  2  0
 20 21  1  0
 21 22  2  0
 22 23  1  0
 22 24  1  0
 24 25  2  0
  5 26  1  0
 26 27  2  0
 27  2  1  0
 14  8  1  0
 25 19  1  0
  1 28  1  0
  1 29  1  0
  1 30  1  0
  3 31  1  0
  4 32  1  0
  9 33  1  0
 12 34  1  0
 13 35  1  0
 20 36  1  0
 21 37  1  0
 24 38  1  0
 25 39  1  0
 26 40  1  0
M  CHG  1  15  -1
M  END
>  <UniqueID>  (6) 
6

>  <SMILES>  (6) 
Cc1ccc(C(=O)c2cc(Cl)ccc2[N-]S(=O)(=O)c2ccc(F)cc2)cn1

>  <Energy>  (6) 
55.00620739690836

>  <Genealogy>  (6) 
Cc1ccc(C(=O)c2cc(Cl)ccc2[N-]S(=O)(=O)c2ccc(F)cc2)cn1 (protonated)
Cc1ccc(C(=O)c2cc(Cl)ccc2[N-]S(=O)(=O)c2ccc(F)cc2)cn1 (3D coordinates assigned)
Cc1ccc(C(=O)c2cc(Cl)ccc2[N-]S(=O)(=O)c2ccc(F)cc2)cn1 (optimized conformer: 55.00620739690836 kcal/mol)

>  <smiles>  (6) 
Cc1ccc(C(=O)c2cc(Cl)ccc2NS(=O)(=O)c2ccc(F)cc2)cn1

>  <score_type>  (6) 
oracle

>  <origin>  (6) 
adgpu

>  <m_score__min__energy>  (6) 
-10.35

>  <m_primary>  (6) 
energy

$$$$
6:0
     RDKit          3D

 22 23  0  0  0  0  0  0  0  0999 V2000
   -2.2530   25.2840  -28.9660 O   0  0  0  0  0  0  0  0  0  0  0  0
   -3.0010   24.6070  -29.7240 C   0  0  0  0  0  0  0  0  0  0  0  0
   -3.8640   25.2650  -30.6550 N   0  0  0  0  0  0  0  0  0  0  0  0
   -5.2870   25.4550  -30.4120 C   0  0  0  0  0  0  0  0  0  0  0  0
   -6.0280   24.2290  -30.8340 C   0  0  0  0  0  0  0  0  0  0  0  0
   -6.9220   23.5110  -30.0540 C   0  0  0  0  0  0  0  0  0  0  0  0
   -7.4040   22.3590  -30.6870 C   0  0  0  0  0  0  0  0  0  0  0  0
   -6.8780   22.1620  -31.9580 C   0  0  0  0  0  0  0  0  0  0  0  0
   -5.8120   23.4190  -32.2910 S   0  0  0  0  0  0  0  0  0  0  0  0
   -2.9860   23.1410  -29.6530 C   0  0  0  0  0  0  0  0  0  0  0  0
   -3.1340   22.3750  -28.5020 C   0  0  0  0  0  0  0  0  0  0  0  0
   -3.0770   20.9970  -28.7450 C   0  0  0  0  0  0  0  0  0  0  0  0
   -2.8830   20.6740  -30.0820 C   0  0  0  0  0  0  0  0  0  0  0  0
   -2.7820   22.1040  -30.9620 S   0  0  0  0  0  0  0  0  0  0  0  0
   -5.4558   25.6356  -29.3401 H   0  0  0  0  0  0  0  0  0  0  0  0
   -5.6470   26.3198  -30.9887 H   0  0  0  0  0  0  0  0  0  0  0  0
   -7.2221   23.8157  -29.0405 H   0  0  0  0  0  0  0  0  0  0  0  0
   -8.1297   21.6752  -30.2226 H   0  0  0  0  0  0  0  0  0  0  0  0
   -7.1181   21.3261  -32.6315 H   0  0  0  0  0  0  0  0  0  0  0  0
   -3.2810   22.8078  -27.5015 H   0  0  0  0  0  0  0  0  0  0  0  0
   -3.1765   20.2415  -27.9517 H   0  0  0  0  0  0  0  0  0  0  0  0
   -2.8082   19.6571  -30.4947 H   0  0  0  0  0  0  0  0  0  0  0  0
  1  2  2  0
  2  3  1  0
  3  4  1  0
  4  5  1  0
  5  6  2  0
  6  7  1  0
  7  8  2  0
  8  9  1  0
  2 10  1  0
 10 11  2  0
 11 12  1  0
 12 13  2  0
 13 14  1  0
  9  5  1  0
 14 10  1  0
  4 15  1  0
  4 16  1  0
  6 17  1  0
  7 18  1  0
  8 19  1  0
 11 20  1  0
 12 21  1  0
 13 22  1  0
M  CHG  1   3  -1
M  END
>  <UniqueID>  (7) 
7

>  <SMILES>  (7) 
O=C([N-]Cc1cccs1)c1cccs1

>  <Energy>  (7) 
69.68267328484613

>  <Genealogy>  (7) 
O=C([N-]Cc1cccs1)c1cccs1 (protonated)
O=C([N-]Cc1cccs1)c1cccs1 (3D coordinates assigned)
O=C([N-]Cc1cccs1)c1cccs1 (optimized conformer: 69.68267328484613 kcal/mol)

>  <smiles>  (7) 
O=C(NCc1cccs1)c1cccs1

>  <score_type>  (7) 
oracle

>  <origin>  (7) 
adgpu

>  <m_score__min__energy>  (7) 
-7.5999999999999996

>  <m_primary>  (7) 
energy

$$$$
7:0
     RDKit          3D

 31 32  0  0  0  0  0  0  0  0999 V2000
   -2.0920   19.4200  -27.0120 C   0  0  0  0  0  0  0  0  0  0  0  0
   -2.2290   20.7710  -27.6490 C   0  0  0  0  0  0  0  0  0  0  0  0
   -3.4430   21.4670  -27.5750 C   0  0  0  0  0  0  0  0  0  0  0  0
   -3.5620   22.7420  -28.1370 C   0  0  0  0  0  0  0  0  0  0  0  0
   -2.4620   23.3480  -28.7720 C   0  0  0  0  0  0  0  0  0  0  0  0
   -2.5880   24.6990  -29.3670 C   0  0  0  0  0  0  0  0  0  0  0  0
   -1.8460   25.6360  -28.9640 O   0  0  0  0  0  0  0  0  0  0  0  0
   -3.5160   24.9270  -30.4370 N   0  0  0  0  0  0  0  0  0  0  0  0
   -4.6450   24.1090  -30.7860 C   0  0  0  0  0  0  0  0  0  0  0  0
   -4.5030   22.9810  -31.6160 C   0  0  0  0  0  0  0  0  0  0  0  0
   -5.6160   22.2110  -31.9590 C   0  0  0  0  0  0  0  0  0  0  0  0
   -6.8840   22.5620  -31.4910 C   0  0  0  0  0  0  0  0  0  0  0  0
   -8.4020   21.5050  -31.9640 Br  0  0  0  0  0  0  0  0  0  0  0  0
   -7.0410   23.6940  -30.6870 C   0  0  0  0  0  0  0  0  0  0  0  0
   -5.9300   24.4800  -30.3380 C   0  0  0  0  0  0  0  0  0  0  0  0
   -6.1150   25.6960  -29.4720 C   0  0  0  0  0  0  0  0  0  0  0  0
   -1.2400   22.6520  -28.8270 C   0  0  0  0  0  0  0  0  0  0  0  0
   -1.1250   21.3780  -28.2640 C   0  0  0  0  0  0  0  0  0  0  0  0
   -2.1029   19.5279  -25.9174 H   0  0  0  0  0  0  0  0  0  0  0  0
   -2.9299   18.7800  -27.3257 H   0  0  0  0  0  0  0  0  0  0  0  0
   -1.1427   18.9612  -27.3257 H   0  0  0  0  0  0  0  0  0  0  0  0
   -4.3070   21.0080  -27.0722 H   0  0  0  0  0  0  0  0  0  0  0  0
   -4.5226   23.2752  -28.0823 H   0  0  0  0  0  0  0  0  0  0  0  0
   -3.5088   22.7044  -31.9968 H   0  0  0  0  0  0  0  0  0  0  0  0
   -5.4937   21.3253  -32.5997 H   0  0  0  0  0  0  0  0  0  0  0  0
   -8.0418   23.9718  -30.3247 H   0  0  0  0  0  0  0  0  0  0  0  0
   -6.0703   25.4021  -28.4129 H   0  0  0  0  0  0  0  0  0  0  0  0
   -5.3171   26.4226  -29.6849 H   0  0  0  0  0  0  0  0  0  0  0  0
   -7.0929   26.1524  -29.6849 H   0  0  0  0  0  0  0  0  0  0  0  0
   -0.3697   23.1137  -29.3163 H   0  0  0  0  0  0  0  0  0  0  0  0
   -0.1619   20.8480  -28.3037 H   0  0  0  0  0  0  0  0  0  0  0  0
  1  2  1  0
  2  3  2  0
  3  4  1  0
  4  5  2  0
  5  6  1  0
  6  7  2  0
  6  8  1  0
  8  9  1  0
  9 10  2  0
 10 11  1  0
 11 12  2  0
 12 13  1  0
 12 14  1  0
 14 15  2  0
 15 16  1  0
  5 17  1  0
 17 18  2  0
 18  2  1  0
 15  9  1  0
  1 19  1  0
  1 20  1  0
  1 21  1  0
  3 22  1  0
  4 23  1  0
 10 24  1  0
 11 25  1  0
 14 26  1  0
 16 27  1  0
 16 28  1  0
 16 29  1  0
 17 30  1  0
 18 31  1  0
M  CHG  1   8  -1
M  END
>  <UniqueID>  (8) 
8

>  <SMILES>  (8) 
Cc1ccc(C(=O)[N-]c2ccc(Br)cc2C)cc1

>  <Energy>  (8) 
34.88282994747266

>  <Genealogy>  (8) 
Cc1ccc(C(=O)[N-]c2ccc(Br)cc2C)cc1 (protonated)
Cc1ccc(C(=O)[N-]c2ccc(Br)cc2C)cc1 (3D coordinates assigned)
Cc1ccc(C(=O)[N-]c2ccc(Br)cc2C)cc1 (optimized conformer: 34.88282994747266 kcal/mol)

>  <smiles>  (8) 
Cc1ccc(C(=O)Nc2ccc(Br)cc2C)cc1

>  <score_type>  (8) 
oracle

>  <origin>  (8) 
adgpu

>  <m_score__min__energy>  (8) 
-9.4800000000000004

>  <m_primary>  (8) 
energy

$$$$
8:0
     RDKit          3D

 33 35  0  0  0  0  0  0  0  0999 V2000
   -6.7870   15.7130  -34.1870 C   0  0  0  0  0  0  0  0  0  0  0  0
   -6.7610   17.1170  -33.6410 C   0  0  0  0  0  0  0  0  0  0  0  0
   -7.5870   17.4480  -32.5540 C   0  0  0  0  0  0  0  0  0  0  0  0
   -7.5820   18.7380  -32.0230 C   0  0  0  0  0  0  0  0  0  0  0  0
   -6.7550   19.7290  -32.5740 C   0  0  0  0  0  0  0  0  0  0  0  0
   -6.7280   21.0590  -32.0200 N   0  0  0  0  0  0  0  0  0  0  0  0
   -7.8900   21.7060  -31.8910 N   0  0  0  0  0  0  0  0  0  0  0  0
   -7.9720   22.9620  -31.3850 C   0  0  0  0  0  0  0  0  0  0  0  0
   -6.8120   23.6190  -30.9780 C   0  0  0  0  0  0  0  0  0  0  0  0
   -6.8640   24.9200  -30.4570 C   0  0  0  0  0  0  0  0  0  0  0  0
   -5.6910   25.5580  -30.0480 C   0  0  0  0  0  0  0  0  0  0  0  0
   -4.4610   24.9020  -30.1570 C   0  0  0  0  0  0  0  0  0  0  0  0
   -4.3990   23.6060  -30.6760 C   0  0  0  0  0  0  0  0  0  0  0  0
   -5.5750   22.9510  -31.0930 C   0  0  0  0  0  0  0  0  0  0  0  0
   -5.5540   21.6460  -31.6180 C   0  0  0  0  0  0  0  0  0  0  0  0
   -4.4630   21.0140  -31.6950 O   0  0  0  0  0  0  0  0  0  0  0  0
   -5.9110   19.3990  -33.6440 C   0  0  0  0  0  0  0  0  0  0  0  0
   -5.9020   18.1020  -34.1840 C   0  0  0  0  0  0  0  0  0  0  0  0
   -4.9930   17.7910  -35.3440 C   0  0  0  0  0  0  0  0  0  0  0  0
   -6.8003   14.9955  -33.3533 H   0  0  0  0  0  0  0  0  0  0  0  0
   -7.6878   15.5758  -34.8032 H   0  0  0  0  0  0  0  0  0  0  0  0
   -5.8919   15.5426  -34.8032 H   0  0  0  0  0  0  0  0  0  0  0  0
   -8.2446   16.6821  -32.1170 H   0  0  0  0  0  0  0  0  0  0  0  0
   -8.2299   18.9798  -31.1676 H   0  0  0  0  0  0  0  0  0  0  0  0
   -8.9491   23.4595  -31.2963 H   0  0  0  0  0  0  0  0  0  0  0  0
   -7.8302   25.4387  -30.3704 H   0  0  0  0  0  0  0  0  0  0  0  0
   -5.7348   26.5784  -29.6394 H   0  0  0  0  0  0  0  0  0  0  0  0
   -3.5393   25.4076  -29.8332 H   0  0  0  0  0  0  0  0  0  0  0  0
   -3.4284   23.0951  -30.7594 H   0  0  0  0  0  0  0  0  0  0  0  0
   -5.2463   20.1667  -34.0668 H   0  0  0  0  0  0  0  0  0  0  0  0
   -4.0160   17.4567  -34.9649 H   0  0  0  0  0  0  0  0  0  0  0  0
   -5.4403   16.9948  -35.9572 H   0  0  0  0  0  0  0  0  0  0  0  0
   -4.8588   18.6944  -35.9572 H   0  0  0  0  0  0  0  0  0  0  0  0
  1  2  1  0
  2  3  2  0
  3  4  1  0
  4  5  2  0
  5  6  1  0
  6  7  1  0
  7  8  2  0
  8  9  1  0
  9 10  2  0
 10 11  1  0
 11 12  2  0
 12 13  1  0
 13 14  2  0
 14 15  1  0
 15 16  2  0
  5 17  1  0
 17 18  2  0
 18 19  1  0
 18  2  1  0
 15  6  1  0
 14  9  1  0
  1 20  1  0
  1 21  1  0
  1 22  1  0
  3 23  1  0
  4 24  1  0
  8 25  1  0
 10 26  1  0
 11 27  1  0
 12 28  1  0
 13 29  1  0
 17 30  1  0
 19 31  1  0
 19 32  1  0
 19 33  1  0
M  END
>  <UniqueID>  (9) 
9

>  <SMILES>  (9) 
Cc1ccc(-n2ncc3ccccc3c2=O)cc1C

>  <Energy>  (9) 
48.15404476351254

>  <Genealogy>  (9) 
Cc1ccc(-n2ncc3ccccc3c2=O)cc1C (3D coordinates assigned)
Cc1ccc(-n2ncc3ccccc3c2=O)cc1C (optimized conformer: 48.15404476351254 kcal/mol)

>  <smiles>  (9) 
Cc1ccc(-n2ncc3ccccc3c2=O)cc1C

>  <score_type>  (9) 
oracle

>  <origin>  (9) 
adgpu

>  <m_score__min__energy>  (9) 
-7.6500000000000004

>  <m_primary>  (9) 
energy

$$$$
9:0
     RDKit          3D

 34 36  0  0  1  0  0  0  0  0999 V2000
   -2.1380   21.1440  -27.4980 C   0  0  0  0  0  0  0  0  0  0  0  0
   -2.7180   22.2850  -28.2760 C   0  0  0  0  0  0  0  0  0  0  0  0
   -2.1790   23.5450  -28.1520 C   0  0  0  0  0  0  0  0  0  0  0  0
   -2.6810   24.6430  -28.8550 C   0  0  0  0  0  0  0  0  0  0  0  0
   -3.7560   24.4290  -29.6970 C   0  0  0  0  0  0  0  0  0  0  0  0
   -4.2660   25.4850  -30.3960 N   0  0  0  0  0  0  0  0  0  0  0  0
   -5.3120   25.2540  -31.2090 C   0  0  0  0  0  0  0  0  0  0  0  0
   -5.8770   24.0440  -31.3690 N   0  0  0  0  0  0  0  0  0  0  0  0
   -5.3640   23.0130  -30.6750 C   0  0  0  0  0  0  0  0  0  0  0  0
   -5.8940   21.8630  -30.8200 N   0  0  0  0  0  0  0  0  0  0  0  0
   -7.0180   21.5450  -31.6770 C   0  0  0  0  0  0  0  0  0  0  0  0
   -6.9800   20.1970  -32.2500 C   0  0  0  0  0  0  0  0  0  0  0  0
   -6.1250   19.9550  -33.3220 C   0  0  0  0  0  0  0  0  0  0  0  0
   -6.0380   18.7140  -33.9090 C   0  0  0  0  0  0  0  0  0  0  0  0
   -6.8180   17.6520  -33.4380 C   0  0  0  0  0  0  0  0  0  0  0  0
   -6.6900   16.0830  -34.2020 Cl  0  0  0  0  0  0  0  0  0  0  0  0
   -7.6810   17.8800  -32.3630 C   0  0  0  0  0  0  0  0  0  0  0  0
   -7.7600   19.1370  -31.7770 C   0  0  0  0  0  0  0  0  0  0  0  0
   -4.2920   23.1630  -29.8180 C   0  0  0  0  0  0  0  0  0  0  0  0
   -3.7940   22.0780  -29.1220 C   0  0  0  0  0  0  0  0  0  0  0  0
   -2.2401   21.3449  -26.4213 H   0  0  0  0  0  0  0  0  0  0  0  0
   -2.6746   20.2176  -27.7507 H   0  0  0  0  0  0  0  0  0  0  0  0
   -1.0733   21.0316  -27.7507 H   0  0  0  0  0  0  0  0  0  0  0  0
   -1.3237   23.6928  -27.4763 H   0  0  0  0  0  0  0  0  0  0  0  0
   -2.2363   25.6428  -28.7424 H   0  0  0  0  0  0  0  0  0  0  0  0
   -3.8610   26.4360  -30.3030 H   0  0  0  0  0  0  0  0  0  0  0  0
   -5.7283   26.1010  -31.7741 H   0  0  0  0  0  0  0  0  0  0  0  0
   -7.9401   21.6413  -31.0850 H   0  0  0  0  0  0  0  0  0  0  0  0
   -6.9762   22.2469  -32.5229 H   0  0  0  0  0  0  0  0  0  0  0  0
   -5.5039   20.7763  -33.7089 H   0  0  0  0  0  0  0  0  0  0  0  0
   -5.3513   18.5555  -34.7536 H   0  0  0  0  0  0  0  0  0  0  0  0
   -8.3024   17.0581  -31.9779 H   0  0  0  0  0  0  0  0  0  0  0  0
   -8.4440   19.3005  -30.9312 H   0  0  0  0  0  0  0  0  0  0  0  0
   -4.2396   21.0789  -29.2369 H   0  0  0  0  0  0  0  0  0  0  0  0
  1  2  1  0
  2  3  2  0
  3  4  1  0
  4  5  2  0
  5  6  1  0
  6  7  1  0
  7  8  2  0
  8  9  1  0
  9 10  2  0
 10 11  1  0
 11 12  1  0
 12 13  2  0
 13 14  1  0
 14 15  2  0
 15 16  1  0
 15 17  1  0
 17 18  2  0
  9 19  1  0
 19 20  2  0
 20  2  1  0
 19  5  1  0
 18 12  1  0
  1 21  1  0
  1 22  1  0
  1 23  1  0
  3 24  1  0
  4 25  1  0
  6 26  1  0
  7 27  1  0
 11 28  1  0
 11 29  1  0
 13 30  1  0
 14 31  1  0
 17 32  1  0
 18 33  1  0
 20 34  1  0
M  END
>  <smiles>  (10) 
Cc1ccc2[nH]cnc(=NCc3ccc(Cl)cc3)c2c1

>  <score_type>  (10) 
oracle

>  <origin>  (10) 
adgpu

>  <m_score__min__energy>  (10) 
-7.8600000000000003

>  <m_primary>  (10) 
energy

$$$$
10:0
     RDKit          3D

 33 35  0  0  0  0  0  0  0  0999 V2000
   -4.2870   25.8370  -29.4490 H   0  0  0  0  0  0  0  0  0  0  0  0
   -3.6260   25.1890  -29.9340 N   0  0  0  0  0  0  0  0  0  0  0  0
   -3.9960   24.1390  -30.6030 C   0  0  0  0  0  0  0  0  0  0  0  0
   -3.0360   23.3760  -31.1870 N   0  0  0  0  0  0  0  0  0  0  0  0
   -3.3160   22.2640  -31.9180 C   0  0  0  0  0  0  0  0  0  0  0  0
   -2.2000   21.4910  -32.5210 C   0  0  0  0  0  0  0  0  0  0  0  0
   -0.9040   21.5220  -31.9700 C   0  0  0  0  0  0  0  0  0  0  0  0
   -0.7038   22.1345  -31.0785 H   0  0  0  0  0  0  0  0  0  0  0  0
    0.1300   20.7790  -32.5490 C   0  0  0  0  0  0  0  0  0  0  0  0
    1.1397   20.8124  -32.1138 H   0  0  0  0  0  0  0  0  0  0  0  0
   -0.1160   19.9950  -33.6780 C   0  0  0  0  0  0  0  0  0  0  0  0
    0.7002   19.4156  -34.1342 H   0  0  0  0  0  0  0  0  0  0  0  0
   -1.4000   19.9470  -34.2280 C   0  0  0  0  0  0  0  0  0  0  0  0
   -1.5945   19.3263  -35.1151 H   0  0  0  0  0  0  0  0  0  0  0  0
   -2.4370   20.6860  -33.6530 C   0  0  0  0  0  0  0  0  0  0  0  0
   -3.4465   20.6390  -34.0874 H   0  0  0  0  0  0  0  0  0  0  0  0
   -4.6520   21.8640  -32.0630 C   0  0  0  0  0  0  0  0  0  0  0  0
   -4.8936   20.9605  -32.6420 H   0  0  0  0  0  0  0  0  0  0  0  0
   -5.6810   22.6110  -31.4730 C   0  0  0  0  0  0  0  0  0  0  0  0
   -7.0810   22.1490  -31.6380 C   0  0  0  0  0  0  0  0  0  0  0  0
   -8.1190   23.0740  -31.8470 C   0  0  0  0  0  0  0  0  0  0  0  0
   -7.8921   24.1490  -31.9006 H   0  0  0  0  0  0  0  0  0  0  0  0
   -9.4390   22.6330  -31.9870 C   0  0  0  0  0  0  0  0  0  0  0  0
  -10.2463   23.3605  -32.1571 H   0  0  0  0  0  0  0  0  0  0  0  0
   -9.7330   21.2690  -31.9110 C   0  0  0  0  0  0  0  0  0  0  0  0
  -10.7715   20.9240  -32.0228 H   0  0  0  0  0  0  0  0  0  0  0  0
   -8.7090   20.3420  -31.6930 C   0  0  0  0  0  0  0  0  0  0  0  0
   -9.0810   18.6310  -31.5930 Cl  0  0  0  0  0  0  0  0  0  0  0  0
   -7.3870   20.7800  -31.5530 C   0  0  0  0  0  0  0  0  0  0  0  0
   -6.5840   20.0494  -31.3757 H   0  0  0  0  0  0  0  0  0  0  0  0
   -5.3570   23.7760  -30.7400 C   0  0  0  0  0  0  0  0  0  0  0  0
   -6.4050   24.6050  -30.1800 C   0  0  0  0  0  0  0  0  0  0  0  0
   -7.2430   25.2670  -29.7340 N   0  0  0  0  0  0  0  0  0  0  0  0
  1  2  1  0
  2  3  2  0
  3  4  1  0
  4  5  1  0
  5  6  1  0
  6  7  2  0
  7  8  1  0
  7  9  1  0
  9 10  1  0
  9 11  2  0
 11 12  1  0
 11 13  1  0
 13 14  1  0
 13 15  2  0
 15 16  1  0
  5 17  2  0
 17 18  1  0
 17 19  1  0
 19 20  1  0
 20 21  2  0
 21 22  1  0
 21 23  1  0
 23 24  1  0
 23 25  2  0
 25 26  1  0
 25 27  1  0
 27 28  1  0
 27 29  2  0
 29 30  1  0
 19 31  2  0
 31 32  1  0
 32 33  3  0
 31  3  1  0
 15  6  1  0
 29 20  1  0
M  CHG  1   4  -1
M  END
>  <UniqueID>  (11) 
10

>  <SMILES>  (11) 
[H]/N=c1/[n-]c(-c2ccccc2)cc(-c2cccc(Cl)c2)c1C#N

>  <Energy>  (11) 
49.899945413896894

>  <Genealogy>  (11) 
N#Cc1c(-c2cccc(Cl)c2)cc(-c2ccccc2)[n-]c1=N (protonated)
[H]/N=c1/[n-]c(-c2ccccc2)cc(-c2cccc(Cl)c2)c1C#N (cis-trans isomerization)
[H]/N=c1/[n-]c(-c2ccccc2)cc(-c2cccc(Cl)c2)c1C#N (3D coordinates assigned)
[H]/N=c1/[n-]c(-c2ccccc2)cc(-c2cccc(Cl)c2)c1C#N (optimized conformer: 49.899945413896894 kcal/mol)

>  <smiles>  (11) 
N#Cc1c(-c2cccc(Cl)c2)cc(-c2ccccc2)[nH]c1=N

>  <score_type>  (11) 
oracle

>  <origin>  (11) 
adgpu

>  <m_score__min__energy>  (11) 
-10.6

>  <m_primary>  (11) 
energy

$$$$
11:0
     RDKit          3D

 32 34  0  0  0  0  0  0  0  0999 V2000
   -0.8560   24.9480  -28.9640 H   0  0  0  0  0  0  0  0  0  0  0  0
   -1.7700   25.2910  -29.3310 N   0  0  0  0  0  0  0  0  0  0  0  0
   -2.7410   24.5200  -29.7110 C   0  0  0  0  0  0  0  0  0  0  0  0
   -3.8670   25.0950  -30.2110 N   0  0  0  0  0  0  0  0  0  0  0  0
   -4.9160   24.3690  -30.6750 C   0  0  0  0  0  0  0  0  0  0  0  0
   -5.8073   24.8826  -31.0647 H   0  0  0  0  0  0  0  0  0  0  0  0
   -4.8690   22.9680  -30.6600 C   0  0  0  0  0  0  0  0  0  0  0  0
   -6.0080   22.1630  -31.1710 C   0  0  0  0  0  0  0  0  0  0  0  0
   -5.7800   21.0360  -31.9840 C   0  0  0  0  0  0  0  0  0  0  0  0
   -4.7503   20.7483  -32.2425 H   0  0  0  0  0  0  0  0  0  0  0  0
   -6.8540   20.2800  -32.4650 C   0  0  0  0  0  0  0  0  0  0  0  0
   -6.6661   19.4013  -33.0994 H   0  0  0  0  0  0  0  0  0  0  0  0
   -8.1660   20.6390  -32.1410 C   0  0  0  0  0  0  0  0  0  0  0  0
   -9.5110   19.6900  -32.7450 Cl  0  0  0  0  0  0  0  0  0  0  0  0
   -8.4030   21.7560  -31.3350 C   0  0  0  0  0  0  0  0  0  0  0  0
   -9.4349   22.0393  -31.0801 H   0  0  0  0  0  0  0  0  0  0  0  0
   -7.3330   22.5140  -30.8520 C   0  0  0  0  0  0  0  0  0  0  0  0
   -7.5278   23.3914  -30.2178 H   0  0  0  0  0  0  0  0  0  0  0  0
   -3.7210   22.3450  -30.1450 C   0  0  0  0  0  0  0  0  0  0  0  0
   -3.6600   21.2468  -30.1271 H   0  0  0  0  0  0  0  0  0  0  0  0
   -2.6510   23.1070  -29.6530 C   0  0  0  0  0  0  0  0  0  0  0  0
   -1.4800   22.4020  -29.0830 C   0  0  0  0  0  0  0  0  0  0  0  0
   -0.8590   21.3680  -29.8020 C   0  0  0  0  0  0  0  0  0  0  0  0
   -1.2306   21.0951  -30.8007 H   0  0  0  0  0  0  0  0  0  0  0  0
    0.2300   20.6840  -29.2530 C   0  0  0  0  0  0  0  0  0  0  0  0
    0.7169   19.8792  -29.8233 H   0  0  0  0  0  0  0  0  0  0  0  0
    0.7010   21.0210  -27.9810 C   0  0  0  0  0  0  0  0  0  0  0  0
    1.7560   20.3560  -27.4500 F   0  0  0  0  0  0  0  0  0  0  0  0
    0.0790   22.0390  -27.2530 C   0  0  0  0  0  0  0  0  0  0  0  0
    0.4471   22.3005  -26.2499 H   0  0  0  0  0  0  0  0  0  0  0  0
   -1.0110   22.7260  -27.7980 C   0  0  0  0  0  0  0  0  0  0  0  0
   -1.5025   23.5220  -27.2194 H   0  0  0  0  0  0  0  0  0  0  0  0
  1  2  1  0
  2  3  2  0
  3  4  1  0
  4  5  1  0
  5  6  1  0
  5  7  2  0
  7  8  1  0
  8  9  2  0
  9 10  1  0
  9 11  1  0
 11 12  1  0
 11 13  2  0
 13 14  1  0
 13 15  1  0
 15 16  1  0
 15 17  2  0
 17 18  1  0
  7 19  1  0
 19 20  1  0
 19 21  2  0
 21 22  1  0
 22 23  2  0
 23 24  1  0
 23 25  1  0
 25 26  1  0
 25 27  2  0
 27 28  1  0
 27 29  1  0
 29 30  1  0
 29 31  2  0
 31 32  1  0
 21  3  1  0
 31 22  1  0
 17  8  1  0
M  CHG  1   4  -1
M  END
>  <UniqueID>  (12) 
11

>  <SMILES>  (12) 
[H]/N=c1/[n-]cc(-c2ccc(Cl)cc2)cc1-c1ccc(F)cc1

>  <Energy>  (12) 
50.02694562234777

>  <Genealogy>  (12) 
N=c1[n-]cc(-c2ccc(Cl)cc2)cc1-c1ccc(F)cc1 (protonated)
[H]/N=c1/[n-]cc(-c2ccc(Cl)cc2)cc1-c1ccc(F)cc1 (cis-trans isomerization)
[H]/N=c1/[n-]cc(-c2ccc(Cl)cc2)cc1-c1ccc(F)cc1 (3D coordinates assigned)
[H]/N=c1/[n-]cc(-c2ccc(Cl)cc2)cc1-c1ccc(F)cc1 (optimized conformer: 50.02694562234777 kcal/mol)

>  <smiles>  (12) 
N=c1[nH]cc(-c2ccc(Cl)cc2)cc1-c1ccc(F)cc1

>  <score_type>  (12) 
oracle

>  <origin>  (12) 
adgpu

>  <m_score__min__energy>  (12) 
-9.5600000000000005

>  <m_primary>  (12) 
energy

$$$$
12:0
     RDKit          3D

 27 28  0  0  0  0  0  0  0  0999 V2000
   -4.3040   21.2470  -33.4500 O   0  0  0  0  0  0  0  0  0  0  0  0
   -5.2680   21.7010  -32.3900 S   0  0  0  0  0  0  0  0  0  0  0  0
   -5.6580   23.1140  -32.7230 O   0  0  0  0  0  0  0  0  0  0  0  0
   -4.4660   21.6710  -30.8480 N   0  0  0  0  0  0  0  0  0  0  0  0
   -3.6840   22.8960  -30.6730 C   0  0  0  0  0  0  0  0  0  0  0  0
   -4.6030   24.0470  -30.4230 C   0  0  0  0  0  0  0  0  0  0  0  0
   -5.7710   24.0040  -29.6880 C   0  0  0  0  0  0  0  0  0  0  0  0
   -6.2630   25.2920  -29.7010 C   0  0  0  0  0  0  0  0  0  0  0  0
   -5.3650   26.0380  -30.4360 C   0  0  0  0  0  0  0  0  0  0  0  0
   -4.3840   25.2690  -30.8510 O   0  0  0  0  0  0  0  0  0  0  0  0
   -6.6820   20.6130  -32.3710 C   0  0  0  0  0  0  0  0  0  0  0  0
   -7.9890   21.0940  -32.0920 C   0  0  0  0  0  0  0  0  0  0  0  0
   -8.3330   22.7710  -31.6820 Cl  0  0  0  0  0  0  0  0  0  0  0  0
   -9.0760   20.2140  -32.0980 C   0  0  0  0  0  0  0  0  0  0  0  0
   -8.8900   18.8580  -32.3570 C   0  0  0  0  0  0  0  0  0  0  0  0
   -7.6110   18.3650  -32.5970 C   0  0  0  0  0  0  0  0  0  0  0  0
   -6.5070   19.2250  -32.5970 C   0  0  0  0  0  0  0  0  0  0  0  0
   -4.9230   18.4960  -32.8500 Cl  0  0  0  0  0  0  0  0  0  0  0  0
   -5.2140   21.6540  -30.1170 H   0  0  0  0  0  0  0  0  0  0  0  0
   -3.0048   22.7772  -29.8159 H   0  0  0  0  0  0  0  0  0  0  0  0
   -3.0981   23.0881  -31.5839 H   0  0  0  0  0  0  0  0  0  0  0  0
   -6.2156   23.1266  -29.1955 H   0  0  0  0  0  0  0  0  0  0  0  0
   -7.1854   25.6521  -29.2220 H   0  0  0  0  0  0  0  0  0  0  0  0
   -5.4565   27.1144  -30.6433 H   0  0  0  0  0  0  0  0  0  0  0  0
  -10.0875   20.5963  -31.8963 H   0  0  0  0  0  0  0  0  0  0  0  0
   -9.7538   18.1771  -32.3718 H   0  0  0  0  0  0  0  0  0  0  0  0
   -7.4667   17.2914  -32.7881 H   0  0  0  0  0  0  0  0  0  0  0  0
  1  2  2  0
  2  3  2  0
  2  4  1  0
  4  5  1  0
  5  6  1  0
  6  7  2  0
  7  8  1  0
  8  9  2  0
  9 10  1  0
  2 11  1  0
 11 12  2  0
 12 13  1  0
 12 14  1  0
 14 15  2  0
 15 16  1  0
 16 17  2  0
 17 18  1  0
 10  6  1  0
 17 11  1  0
  4 19  1  0
  5 20  1  0
  5 21  1  0
  7 22  1  0
  8 23  1  0
  9 24  1  0
 14 25  1  0
 15 26  1  0
 16 27  1  0
M  END
>  <UniqueID>  (13) 
12

>  <SMILES>  (13) 
O=S(=O)(NCc1ccco1)c1c(Cl)cccc1Cl

>  <Energy>  (13) 
55.250488920924425

>  <Genealogy>  (13) 
O=S(=O)(NCc1ccco1)c1c(Cl)cccc1Cl (3D coordinates assigned)
O=S(=O)(NCc1ccco1)c1c(Cl)cccc1Cl (optimized conformer: 55.250488920924425 kcal/mol)

>  <smiles>  (13) 
O=S(=O)(NCc1ccco1)c1c(Cl)cccc1Cl

>  <score_type>  (13) 
oracle

>  <origin>  (13) 
adgpu

>  <m_score__min__energy>  (13) 
-8.0099999999999998

>  <m_primary>  (13) 
energy

$$$$
13:0
     RDKit          3D

 24 26  0  0  0  0  0  0  0  0999 V2000
   -5.7060   19.0800  -31.5910 O   0  0  0  0  0  0  0  0  0  0  0  0
   -6.8740   19.5050  -31.7960 C   0  0  0  0  0  0  0  0  0  0  0  0
   -7.8390   18.6250  -32.1760 N   0  0  0  0  0  0  0  0  0  0  0  0
   -9.1100   19.0200  -32.4440 C   0  0  0  0  0  0  0  0  0  0  0  0
   -9.4580   20.3660  -32.3390 C   0  0  0  0  0  0  0  0  0  0  0  0
   -8.4920   21.2930  -31.9500 C   0  0  0  0  0  0  0  0  0  0  0  0
   -7.1820   20.8760  -31.6610 C   0  0  0  0  0  0  0  0  0  0  0  0
   -6.1660   21.8720  -31.2370 C   0  0  0  0  0  0  0  0  0  0  0  0
   -6.3470   23.2570  -31.2500 C   0  0  0  0  0  0  0  0  0  0  0  0
   -5.1690   23.7760  -30.7590 C   0  0  0  0  0  0  0  0  0  0  0  0
   -4.7550   25.0870  -30.5350 C   0  0  0  0  0  0  0  0  0  0  0  0
   -5.5060   26.0630  -30.8000 O   0  0  0  0  0  0  0  0  0  0  0  0
   -3.5090   25.2930  -30.0190 N   0  0  0  0  0  0  0  0  0  0  0  0
   -2.6680   24.2530  -29.7170 C   0  0  0  0  0  0  0  0  0  0  0  0
   -3.0730   22.9240  -29.9370 C   0  0  0  0  0  0  0  0  0  0  0  0
   -4.3450   22.7250  -30.4670 C   0  0  0  0  0  0  0  0  0  0  0  0
   -4.9400   21.5550  -30.7520 N   0  0  0  0  0  0  0  0  0  0  0  0
   -9.8650   18.2783  -32.7439 H   0  0  0  0  0  0  0  0  0  0  0  0
  -10.4845   20.6933  -32.5609 H   0  0  0  0  0  0  0  0  0  0  0  0
   -8.7572   22.3575  -31.8689 H   0  0  0  0  0  0  0  0  0  0  0  0
   -7.2369   23.8127  -31.5805 H   0  0  0  0  0  0  0  0  0  0  0  0
   -1.6710   24.4591  -29.3004 H   0  0  0  0  0  0  0  0  0  0  0  0
   -2.4122   22.0771  -29.7001 H   0  0  0  0  0  0  0  0  0  0  0  0
   -4.5410   20.6030  -30.5910 H   0  0  0  0  0  0  0  0  0  0  0  0
  1  2  2  0
  2  3  1  0
  3  4  1  0
  4  5  2  0
  5  6  1  0
  6  7  2  0
  7  8  1  0
  8  9  2  0
  9 10  1  0
 10 11  1  0
 11 12  2  0
 11 13  1  0
 13 14  1  0
 14 15  2  0
 15 16  1  0
 16 17  1  0
  7  2  1  0
 17  8  1  0
 16 10  2  0
  4 18  1  0
  5 19  1  0
  6 20  1  0
  9 21  1  0
 14 22  1  0
 15 23  1  0
 17 24  1  0
M  CHG  2   3  -1  13  -1
M  END
>  <UniqueID>  (14) 
13

>  <SMILES>  (14) 
O=c1[n-]cccc1-c1cc2c(=O)[n-]ccc2[nH]1

>  <Energy>  (14) 
67.08274852546312

>  <Genealogy>  (14) 
O=c1[n-]cccc1-c1cc2c(=O)[n-]ccc2[nH]1 (protonated)
O=c1[n-]cccc1-c1cc2c(=O)[n-]ccc2[nH]1 (3D coordinates assigned)
O=c1[n-]cccc1-c1cc2c(=O)[n-]ccc2[nH]1 (optimized conformer: 67.08274852546312 kcal/mol)

>  <smiles>  (14) 
O=c1[nH]cccc1-c1cc2c(=O)[nH]ccc2[nH]1

>  <score_type>  (14) 
oracle

>  <origin>  (14) 
adgpu

>  <m_score__min__energy>  (14) 
-7.9900000000000002

>  <m_primary>  (14) 
energy

$$$$
14:0
     RDKit          3D

 34 36  0  0  0  0  0  0  0  0999 V2000
   -4.9750   24.5020  -31.3010 O   0  0  0  0  0  0  0  0  0  0  0  0
   -5.6090   23.6880  -30.5750 C   0  0  0  0  0  0  0  0  0  0  0  0
   -5.3630   23.6560  -29.1590 N   0  0  0  0  0  0  0  0  0  0  0  0
   -4.1550   24.1440  -28.5470 C   0  0  0  0  0  0  0  0  0  0  0  0
   -4.1630   24.4880  -27.1860 C   0  0  0  0  0  0  0  0  0  0  0  0
   -2.9960   24.9430  -26.5640 C   0  0  0  0  0  0  0  0  0  0  0  0
   -1.8070   25.0470  -27.2930 C   0  0  0  0  0  0  0  0  0  0  0  0
   -0.3440   25.6160  -26.5120 Cl  0  0  0  0  0  0  0  0  0  0  0  0
   -1.7850   24.6860  -28.6440 C   0  0  0  0  0  0  0  0  0  0  0  0
   -2.9510   24.2310  -29.2690 C   0  0  0  0  0  0  0  0  0  0  0  0
   -6.6360   22.8100  -31.1880 C   0  0  0  0  0  0  0  0  0  0  0  0
   -7.9830   23.2070  -31.2390 C   0  0  0  0  0  0  0  0  0  0  0  0
   -8.9440   22.3740  -31.8150 C   0  0  0  0  0  0  0  0  0  0  0  0
   -8.5770   21.1350  -32.3420 C   0  0  0  0  0  0  0  0  0  0  0  0
   -7.2380   20.7090  -32.2930 C   0  0  0  0  0  0  0  0  0  0  0  0
   -6.8580   19.4250  -32.8310 N   0  0  0  0  0  0  0  0  0  0  0  0
   -7.2140   18.2140  -32.3530 C   0  0  0  0  0  0  0  0  0  0  0  0
   -6.6600   17.2180  -33.1310 C   0  0  0  0  0  0  0  0  0  0  0  0
   -5.9370   17.8490  -34.1230 C   0  0  0  0  0  0  0  0  0  0  0  0
   -6.0800   19.2050  -33.9120 C   0  0  0  0  0  0  0  0  0  0  0  0
   -6.2750   21.5540  -31.7100 C   0  0  0  0  0  0  0  0  0  0  0  0
   -6.1470   23.3690  -28.5300 H   0  0  0  0  0  0  0  0  0  0  0  0
   -5.0929   24.3991  -26.6052 H   0  0  0  0  0  0  0  0  0  0  0  0
   -3.0133   25.2196  -25.4995 H   0  0  0  0  0  0  0  0  0  0  0  0
   -0.8487   24.7600  -29.2165 H   0  0  0  0  0  0  0  0  0  0  0  0
   -2.9261   23.9401  -30.3295 H   0  0  0  0  0  0  0  0  0  0  0  0
   -8.2821   24.1802  -30.8225 H   0  0  0  0  0  0  0  0  0  0  0  0
   -9.9952   22.6957  -31.8536 H   0  0  0  0  0  0  0  0  0  0  0  0
   -9.3401   20.4876  -32.7986 H   0  0  0  0  0  0  0  0  0  0  0  0
   -7.8519   18.0458  -31.4728 H   0  0  0  0  0  0  0  0  0  0  0  0
   -6.7726   16.1331  -32.9884 H   0  0  0  0  0  0  0  0  0  0  0  0
   -5.3598   17.3655  -34.9249 H   0  0  0  0  0  0  0  0  0  0  0  0
   -5.6266   19.9913  -34.5334 H   0  0  0  0  0  0  0  0  0  0  0  0
   -5.2255   21.2280  -31.6617 H   0  0  0  0  0  0  0  0  0  0  0  0
  1  2  2  0
  2  3  1  0
  3  4  1  0
  4  5  2  0
  5  6  1  0
  6  7  2  0
  7  8  1  0
  7  9  1  0
  9 10  2  0
  2 11  1  0
 11 12  2  0
 12 13  1  0
 13 14  2  0
 14 15  1  0
 15 16  1  0
 16 17  1  0
 17 18  2  0
 18 19  1  0
 19 20  2  0
 15 21  2  0
 10  4  1  0
 21 11  1  0
 20 16  1  0
  3 22  1  0
  5 23  1  0
  6 24  1  0
  9 25  1  0
 10 26  1  0
 12 27  1  0
 13 28  1  0
 14 29  1  0
 17 30  1  0
 18 31  1  0
 19 32  1  0
 20 33  1  0
 21 34  1  0
M  END
>  <UniqueID>  (15) 
14

>  <SMILES>  (15) 
O=C(Nc1ccc(Cl)cc1)c1cccc(-n2cccc2)c1

>  <Energy>  (15) 
71.367903735653

>  <Genealogy>  (15) 
O=C(Nc1ccc(Cl)cc1)c1cccc(-n2cccc2)c1 (3D coordinates assigned)
O=C(Nc1ccc(Cl)cc1)c1cccc(-n2cccc2)c1 (optimized conformer: 71.367903735653 kcal/mol)

>  <smiles>  (15) 
O=C(Nc1ccc(Cl)cc1)c1cccc(-n2cccc2)c1

>  <score_type>  (15) 
oracle

>  <origin>  (15) 
adgpu

>  <m_score__min__energy>  (15) 
-8.6400000000000006

>  <m_primary>  (15) 
energy

$$$$
15:0
     RDKit          3D

 40 41  0  0  0  0  0  0  0  0999 V2000
   -0.8480   24.0200  -28.9390 C   0  0  0  0  0  0  0  0  0  0  0  0
   -2.2850   23.9390  -29.2460 N   0  0  0  0  0  0  0  0  0  0  0  0
   -3.0000   23.3460  -28.1020 C   0  0  0  0  0  0  0  0  0  0  0  0
   -2.4960   23.1410  -30.4710 C   0  0  0  0  0  0  0  0  0  0  0  0
   -3.8890   23.3550  -31.0140 C   0  0  0  0  0  0  0  0  0  0  0  0
   -4.5100   22.3190  -31.7340 C   0  0  0  0  0  0  0  0  0  0  0  0
   -5.8180   22.4660  -32.2260 C   0  0  0  0  0  0  0  0  0  0  0  0
   -6.4570   21.4150  -32.9710 N   0  0  0  0  0  0  0  0  0  0  0  0
   -6.1440   20.0200  -32.8310 C   0  0  0  0  0  0  0  0  0  0  0  0
   -5.7620   19.4140  -31.3490 S   0  0  0  0  0  0  0  0  0  0  0  0
   -6.5010   19.1240  -33.8960 N   0  0  0  0  0  0  0  0  0  0  0  0
   -5.8900   17.8400  -34.1150 C   0  0  0  0  0  0  0  0  0  0  0  0
   -4.5080   17.7660  -34.3520 C   0  0  0  0  0  0  0  0  0  0  0  0
   -3.8890   16.5280  -34.5420 C   0  0  0  0  0  0  0  0  0  0  0  0
   -4.6410   15.3520  -34.4800 C   0  0  0  0  0  0  0  0  0  0  0  0
   -6.0120   15.4120  -34.2210 C   0  0  0  0  0  0  0  0  0  0  0  0
   -6.7380   14.2700  -34.1440 F   0  0  0  0  0  0  0  0  0  0  0  0
   -6.6360   16.6500  -34.0310 C   0  0  0  0  0  0  0  0  0  0  0  0
   -6.4880   23.6790  -32.0320 C   0  0  0  0  0  0  0  0  0  0  0  0
   -5.8840   24.7140  -31.3160 C   0  0  0  0  0  0  0  0  0  0  0  0
   -4.5950   24.5610  -30.7950 C   0  0  0  0  0  0  0  0  0  0  0  0
   -4.0480   25.6220  -30.0700 O   0  0  0  0  0  0  0  0  0  0  0  0
   -0.7060   24.0280  -27.8482 H   0  0  0  0  0  0  0  0  0  0  0  0
   -0.3314   23.1495  -29.3696 H   0  0  0  0  0  0  0  0  0  0  0  0
   -0.4325   24.9430  -29.3696 H   0  0  0  0  0  0  0  0  0  0  0  0
   -2.5582   23.7124  -27.1636 H   0  0  0  0  0  0  0  0  0  0  0  0
   -4.0611   23.6328  -28.1442 H   0  0  0  0  0  0  0  0  0  0  0  0
   -2.9144   22.2501  -28.1442 H   0  0  0  0  0  0  0  0  0  0  0  0
   -1.7614   23.4452  -31.2312 H   0  0  0  0  0  0  0  0  0  0  0  0
   -2.3719   22.0760  -30.2251 H   0  0  0  0  0  0  0  0  0  0  0  0
   -3.9646   21.3810  -31.9145 H   0  0  0  0  0  0  0  0  0  0  0  0
   -7.2010   21.6830  -33.6540 H   0  0  0  0  0  0  0  0  0  0  0  0
   -7.2500   19.4280  -34.5570 H   0  0  0  0  0  0  0  0  0  0  0  0
   -3.9093   18.6881  -34.3883 H   0  0  0  0  0  0  0  0  0  0  0  0
   -2.8082   16.4790  -34.7407 H   0  0  0  0  0  0  0  0  0  0  0  0
   -4.1529   14.3785  -34.6353 H   0  0  0  0  0  0  0  0  0  0  0  0
   -7.7138   16.6930  -33.8152 H   0  0  0  0  0  0  0  0  0  0  0  0
   -7.4974   23.8179  -32.4465 H   0  0  0  0  0  0  0  0  0  0  0  0
   -6.4265   25.6581  -31.1602 H   0  0  0  0  0  0  0  0  0  0  0  0
   -3.0680   25.6780  -29.8220 H   0  0  0  0  0  0  0  0  0  0  0  0
  1  2  1  0
  2  3  1  0
  2  4  1  0
  4  5  1  0
  5  6  2  0
  6  7  1  0
  7  8  1  0
  8  9  1  0
  9 10  2  0
  9 11  1  0
 11 12  1  0
 12 13  2  0
 13 14  1  0
 14 15  2  0
 15 16  1  0
 16 17  1  0
 16 18  2  0
  7 19  2  0
 19 20  1  0
 20 21  2  0
 21 22  1  0
 21  5  1  0
 18 12  1  0
  1 23  1  0
  1 24  1  0
  1 25  1  0
  3 26  1  0
  3 27  1  0
  3 28  1  0
  4 29  1  0
  4 30  1  0
  6 31  1  0
  8 32  1  0
 11 33  1  0
 13 34  1  0
 14 35  1  0
 15 36  1  0
 18 37  1  0
 19 38  1  0
 20 39  1  0
 22 40  1  0
M  END
>  <UniqueID>  (16) 
15

>  <SMILES>  (16) 
CN(C)Cc1cc(NC(=S)Nc2cccc(F)c2)ccc1O

>  <Energy>  (16) 
50.22811190855249

>  <Genealogy>  (16) 
CN(C)Cc1cc(NC(=S)Nc2cccc(F)c2)ccc1O (3D coordinates assigned)
CN(C)Cc1cc(NC(=S)Nc2cccc(F)c2)ccc1O (optimized conformer: 50.22811190855249 kcal/mol)

>  <smiles>  (16) 
CN(C)Cc1cc(NC(=S)Nc2cccc(F)c2)ccc1O

>  <score_type>  (16) 
oracle

>  <origin>  (16) 
adgpu

>  <m_score__min__energy>  (16) 
-7.46

>  <m_primary>  (16) 
energy

$$$$
16:0
     RDKit          3D

 39 41  0  0  1  0  0  0  0  0999 V2000
   -5.1340   25.2310  -30.4400 C   0  0  0  0  0  0  0  0  0  0  0  0
   -4.6250   24.1730  -31.2630 O   0  0  0  0  0  0  0  0  0  0  0  0
   -5.4760   23.1330  -31.5930 C   0  0  0  0  0  0  0  0  0  0  0  0
   -6.8230   23.3430  -31.4190 C   0  0  0  0  0  0  0  0  0  0  0  0
   -7.6670   22.3200  -31.7420 C   0  0  0  0  0  0  0  0  0  0  0  0
   -8.9820   22.5150  -31.5760 N   0  0  0  0  0  0  0  0  0  0  0  0
   -9.8580   21.5450  -31.8780 C   0  0  0  0  0  0  0  0  0  0  0  0
   -9.3540   20.3920  -32.3450 N   0  0  0  0  0  0  0  0  0  0  0  0
   -8.0420   20.1610  -32.5240 C   0  0  0  0  0  0  0  0  0  0  0  0
   -7.6730   19.0600  -32.9630 N   0  0  0  0  0  0  0  0  0  0  0  0
   -6.4600   18.4990  -33.2580 C   0  0  0  0  0  0  0  0  0  0  0  0
   -5.7130   17.6960  -32.3550 C   0  0  0  0  0  0  0  0  0  0  0  0
   -4.5620   17.0700  -32.7590 C   0  0  0  0  0  0  0  0  0  0  0  0
   -4.1230   17.2210  -34.0560 C   0  0  0  0  0  0  0  0  0  0  0  0
   -2.8710   16.5540  -34.5350 C   0  0  0  0  0  0  0  0  0  0  0  0
   -4.8130   17.9890  -34.9690 C   0  0  0  0  0  0  0  0  0  0  0  0
   -5.9790   18.6330  -34.5880 C   0  0  0  0  0  0  0  0  0  0  0  0
   -7.1300   21.1290  -32.2270 C   0  0  0  0  0  0  0  0  0  0  0  0
   -5.7860   20.9490  -32.3890 C   0  0  0  0  0  0  0  0  0  0  0  0
   -4.9040   21.9930  -32.0600 C   0  0  0  0  0  0  0  0  0  0  0  0
   -3.5310   21.8700  -32.2040 O   0  0  0  0  0  0  0  0  0  0  0  0
   -3.0080   21.0340  -33.2410 C   0  0  0  0  0  0  0  0  0  0  0  0
   -5.0061   24.9651  -29.3803 H   0  0  0  0  0  0  0  0  0  0  0  0
   -4.5839   26.1592  -30.6541 H   0  0  0  0  0  0  0  0  0  0  0  0
   -6.2026   25.3804  -30.6541 H   0  0  0  0  0  0  0  0  0  0  0  0
   -7.2065   24.2994  -31.0340 H   0  0  0  0  0  0  0  0  0  0  0  0
  -10.9410   21.6881  -31.7487 H   0  0  0  0  0  0  0  0  0  0  0  0
  -10.0490   19.6470  -32.5750 H   0  0  0  0  0  0  0  0  0  0  0  0
   -6.0623   17.5750  -31.3190 H   0  0  0  0  0  0  0  0  0  0  0  0
   -3.9920   16.4504  -32.0511 H   0  0  0  0  0  0  0  0  0  0  0  0
   -2.2716   16.2347  -33.6697 H   0  0  0  0  0  0  0  0  0  0  0  0
   -3.1331   15.6760  -35.1436 H   0  0  0  0  0  0  0  0  0  0  0  0
   -2.2885   17.2613  -35.1436 H   0  0  0  0  0  0  0  0  0  0  0  0
   -4.4386   18.0905  -35.9983 H   0  0  0  0  0  0  0  0  0  0  0  0
   -6.5315   19.2472  -35.3143 H   0  0  0  0  0  0  0  0  0  0  0  0
   -5.3968   19.9948  -32.7738 H   0  0  0  0  0  0  0  0  0  0  0  0
   -2.4754   20.1827  -32.7920 H   0  0  0  0  0  0  0  0  0  0  0  0
   -3.8347   20.6620  -33.8640 H   0  0  0  0  0  0  0  0  0  0  0  0
   -2.3119   21.6147  -33.8640 H   0  0  0  0  0  0  0  0  0  0  0  0
  1  2  1  0
  2  3  1  0
  3  4  2  0
  4  5  1  0
  5  6  1  0
  6  7  2  0
  7  8  1  0
  8  9  1  0
  9 10  2  0
 10 11  1  0
 11 12  2  0
 12 13  1  0
 13 14  2  0
 14 15  1  0
 14 16  1  0
 16 17  2  0
  9 18  1  0
 18 19  1  0
 19 20  2  0
 20 21  1  0
 21 22  1  0
 20  3  1  0
 18  5  2  0
 17 11  1  0
  1 23  1  0
  1 24  1  0
  1 25  1  0
  4 26  1  0
  7 27  1  0
  8 28  1  0
 12 29  1  0
 13 30  1  0
 15 31  1  0
 15 32  1  0
 15 33  1  0
 16 34  1  0
 17 35  1  0
 19 36  1  0
 22 37  1  0
 22 38  1  0
 22 39  1  0
M  END
>  <smiles>  (17) 
COc1cc2nc[nH]c(=Nc3ccc(C)cc3)c2cc1OC

>  <score_type>  (17) 
oracle

>  <origin>  (17) 
adgpu

>  <m_score__min__energy>  (17) 
-7.4500000000000002

>  <m_primary>  (17) 
energy

$$$$
17:0
     RDKit          3D

 37 39  0  0  0  0  0  0  0  0999 V2000
   -4.6960   12.5440  -32.9510 C   0  0  0  0  0  0  0  0  0  0  0  0
   -4.8940   13.5430  -33.9470 O   0  0  0  0  0  0  0  0  0  0  0  0
   -5.2380   14.8770  -33.6780 C   0  0  0  0  0  0  0  0  0  0  0  0
   -6.5210   15.3860  -33.9540 C   0  0  0  0  0  0  0  0  0  0  0  0
   -6.8280   16.7180  -33.6720 C   0  0  0  0  0  0  0  0  0  0  0  0
   -5.8640   17.5650  -33.1110 C   0  0  0  0  0  0  0  0  0  0  0  0
   -6.1980   18.9740  -32.8150 C   0  0  0  0  0  0  0  0  0  0  0  0
   -5.3190   19.8820  -32.3480 N   0  0  0  0  0  0  0  0  0  0  0  0
   -6.0920   20.9840  -32.2470 C   0  0  0  0  0  0  0  0  0  0  0  0
   -5.6000   22.2940  -31.7690 C   0  0  0  0  0  0  0  0  0  0  0  0
   -6.3680   23.4520  -31.9610 C   0  0  0  0  0  0  0  0  0  0  0  0
   -5.9050   24.6880  -31.5110 C   0  0  0  0  0  0  0  0  0  0  0  0
   -4.6720   24.7910  -30.8620 C   0  0  0  0  0  0  0  0  0  0  0  0
   -4.2500   26.0430  -30.4290 O   0  0  0  0  0  0  0  0  0  0  0  0
   -3.8800   23.6390  -30.6560 C   0  0  0  0  0  0  0  0  0  0  0  0
   -2.5630   23.7110  -29.9710 C   0  0  0  0  0  0  0  0  0  0  0  0
   -1.8450   22.6820  -29.8630 O   0  0  0  0  0  0  0  0  0  0  0  0
   -2.0980   24.9070  -29.4350 O   0  0  0  0  0  0  0  0  0  0  0  0
   -4.3590   22.3960  -31.1170 C   0  0  0  0  0  0  0  0  0  0  0  0
   -7.3630   20.7510  -32.6310 N   0  0  0  0  0  0  0  0  0  0  0  0
   -7.3880   19.5000  -32.9750 O   0  0  0  0  0  0  0  0  0  0  0  0
   -4.5840   17.0600  -32.8330 C   0  0  0  0  0  0  0  0  0  0  0  0
   -4.2660   15.7170  -33.1150 C   0  0  0  0  0  0  0  0  0  0  0  0
   -2.9960   15.1800  -32.8510 O   0  0  0  0  0  0  0  0  0  0  0  0
   -1.7710   15.8920  -32.9990 C   0  0  0  0  0  0  0  0  0  0  0  0
   -4.7860   12.9981  -31.9532 H   0  0  0  0  0  0  0  0  0  0  0  0
   -5.4556   11.7566  -33.0654 H   0  0  0  0  0  0  0  0  0  0  0  0
   -3.6935   12.1058  -33.0654 H   0  0  0  0  0  0  0  0  0  0  0  0
   -7.2863   14.7300  -34.3946 H   0  0  0  0  0  0  0  0  0  0  0  0
   -7.8339   17.1051  -33.8919 H   0  0  0  0  0  0  0  0  0  0  0  0
   -7.3411   23.3847  -32.4695 H   0  0  0  0  0  0  0  0  0  0  0  0
   -6.5156   25.5894  -31.6683 H   0  0  0  0  0  0  0  0  0  0  0  0
   -3.7520   21.4915  -30.9641 H   0  0  0  0  0  0  0  0  0  0  0  0
   -3.8223   17.7191  -32.3909 H   0  0  0  0  0  0  0  0  0  0  0  0
   -1.3626   16.1294  -32.0056 H   0  0  0  0  0  0  0  0  0  0  0  0
   -1.0510   15.2717  -33.5528 H   0  0  0  0  0  0  0  0  0  0  0  0
   -1.9536   16.8247  -33.5528 H   0  0  0  0  0  0  0  0  0  0  0  0
  1  2  1  0
  2  3  1  0
  3  4  2  0
  4  5  1  0
  5  6  2  0
  6  7  1  0
  7  8  2  0
  8  9  1  0
  9 10  1  0
 10 11  2  0
 11 12  1  0
 12 13  2  0
 13 14  1  0
 13 15  1  0
 15 16  1  0
 16 17  2  0
 16 18  1  0
 15 19  2  0
  9 20  2  0
 20 21  1  0
  6 22  1  0
 22 23  2  0
 23 24  1  0
 24 25  1  0
 23  3  1  0
 21  7  1  0
 19 10  1  0
  1 26  1  0
  1 27  1  0
  1 28  1  0
  4 29  1  0
  5 30  1  0
 11 31  1  0
 12 32  1  0
 19 33  1  0
 22 34  1  0
 25 35  1  0
 25 36  1  0
 25 37  1  0
M  CHG  2  14  -1  18  -1
M  END
>  <UniqueID>  (18) 
16

>  <SMILES>  (18) 
COc1ccc(-c2nc(-c3ccc([O-])c(C(=O)[O-])c3)no2)cc1OC

>  <Energy>  (18) 
74.90648998760963

>  <Genealogy>  (18) 
COc1ccc(-c2nc(-c3ccc([O-])c(C(=O)[O-])c3)no2)cc1OC (protonated)
COc1ccc(-c2nc(-c3ccc([O-])c(C(=O)[O-])c3)no2)cc1OC (3D coordinates assigned)
COc1ccc(-c2nc(-c3ccc([O-])c(C(=O)[O-])c3)no2)cc1OC (optimized conformer: 74.90648998760963 kcal/mol)

>  <smiles>  (18) 
COc1ccc(-c2nc(-c3ccc(O)c(C(=O)O)c3)no2)cc1OC

>  <score_type>  (18) 
oracle

>  <origin>  (18) 
adgpu

>  <m_score__min__energy>  (18) 
-10.6

>  <m_primary>  (18) 
energy

$$$$
18:0
     RDKit          3D

 41 43  0  0  0  0  0  0  0  0999 V2000
   -7.9100   18.7140  -32.5770 C   0  0  0  0  0  0  0  0  0  0  0  0
   -6.6280   19.4650  -32.7840 C   0  0  0  0  0  0  0  0  0  0  0  0
   -5.6510   18.9750  -33.6610 C   0  0  0  0  0  0  0  0  0  0  0  0
   -4.4720   19.6370  -33.8070 N   0  0  0  0  0  0  0  0  0  0  0  0
   -4.2010   20.7780  -33.1220 C   0  0  0  0  0  0  0  0  0  0  0  0
   -5.1480   21.3120  -32.2350 C   0  0  0  0  0  0  0  0  0  0  0  0
   -4.8600   22.5300  -31.4480 C   0  0  0  0  0  0  0  0  0  0  0  0
   -3.8030   22.5060  -30.5920 N   0  0  0  0  0  0  0  0  0  0  0  0
   -3.4630   23.5830  -29.8410 C   0  0  0  0  0  0  0  0  0  0  0  0
   -2.4240   23.5080  -29.0610 N   0  0  0  0  0  0  0  0  0  0  0  0
   -1.9430   24.5240  -28.1630 C   0  0  0  0  0  0  0  0  0  0  0  0
   -1.2020   25.6320  -28.6180 C   0  0  0  0  0  0  0  0  0  0  0  0
   -0.7830   26.6150  -27.7170 C   0  0  0  0  0  0  0  0  0  0  0  0
   -1.1180   26.5200  -26.3610 C   0  0  0  0  0  0  0  0  0  0  0  0
   -0.5750   27.7520  -25.2250 S   0  0  0  0  0  0  0  0  0  0  0  0
   -0.9580   27.2630  -23.6110 N   0  0  0  0  0  0  0  0  0  0  0  0
   -1.2570   29.0580  -25.5270 O   0  0  0  0  0  0  0  0  0  0  0  0
    0.9100   27.9440  -25.3530 O   0  0  0  0  0  0  0  0  0  0  0  0
   -1.8750   25.4310  -25.9110 C   0  0  0  0  0  0  0  0  0  0  0  0
   -2.2960   24.4470  -26.8100 C   0  0  0  0  0  0  0  0  0  0  0  0
   -4.1810   24.7320  -29.9550 N   0  0  0  0  0  0  0  0  0  0  0  0
   -5.2540   24.8120  -30.7800 C   0  0  0  0  0  0  0  0  0  0  0  0
   -5.6470   23.7020  -31.5390 C   0  0  0  0  0  0  0  0  0  0  0  0
   -6.8670   23.8000  -32.4140 C   0  0  0  0  0  0  0  0  0  0  0  0
   -6.3580   20.6290  -32.0520 C   0  0  0  0  0  0  0  0  0  0  0  0
   -8.0999   18.6028  -31.4992 H   0  0  0  0  0  0  0  0  0  0  0  0
   -8.7391   19.2692  -33.0400 H   0  0  0  0  0  0  0  0  0  0  0  0
   -7.8311   17.7193  -33.0400 H   0  0  0  0  0  0  0  0  0  0  0  0
   -5.8380   18.0537  -34.2321 H   0  0  0  0  0  0  0  0  0  0  0  0
   -3.2353   21.2855  -33.2631 H   0  0  0  0  0  0  0  0  0  0  0  0
   -0.9524   25.7240  -29.6853 H   0  0  0  0  0  0  0  0  0  0  0  0
   -0.1871   27.4674  -28.0751 H   0  0  0  0  0  0  0  0  0  0  0  0
   -1.9860   27.4010  -23.4870 H   0  0  0  0  0  0  0  0  0  0  0  0
   -0.4840   27.9350  -22.9680 H   0  0  0  0  0  0  0  0  0  0  0  0
   -2.1392   25.3498  -24.8463 H   0  0  0  0  0  0  0  0  0  0  0  0
   -2.9088   23.6064  -26.4523 H   0  0  0  0  0  0  0  0  0  0  0  0
   -5.8187   25.7531  -30.8537 H   0  0  0  0  0  0  0  0  0  0  0  0
   -7.7655   23.8722  -31.7836 H   0  0  0  0  0  0  0  0  0  0  0  0
   -6.7918   24.6950  -33.0491 H   0  0  0  0  0  0  0  0  0  0  0  0
   -6.9356   22.9045  -33.0491 H   0  0  0  0  0  0  0  0  0  0  0  0
   -7.0980   21.0078  -31.3316 H   0  0  0  0  0  0  0  0  0  0  0  0
  1  2  1  0
  2  3  2  0
  3  4  1  0
  4  5  2  0
  5  6  1  0
  6  7  1  0
  7  8  2  0
  8  9  1  0
  9 10  2  3
 10 11  1  0
 11 12  2  0
 12 13  1  0
 13 14  2  0
 14 15  1  0
 15 16  1  0
 15 17  2  0
 15 18  2  0
 14 19  1  0
 19 20  2  0
  9 21  1  0
 21 22  1  0
 22 23  2  0
 23 24  1  0
  6 25  2  0
 25  2  1  0
 23  7  1  0
 20 11  1  0
  1 26  1  0
  1 27  1  0
  1 28  1  0
  3 29  1  0
  5 30  1  0
 12 31  1  0
 13 32  1  0
 16 33  1  0
 16 34  1  0
 19 35  1  0
 20 36  1  0
 22 37  1  0
 24 38  1  0
 24 39  1  0
 24 40  1  0
 25 41  1  0
M  CHG  1  21  -1
M  END
>  <UniqueID>  (19) 
17

>  <SMILES>  (19) 
Cc1cncc(-c2nc(=Nc3ccc(S(N)(=O)=O)cc3)[n-]cc2C)c1

>  <Energy>  (19) 
55.97667933681613

>  <Genealogy>  (19) 
Cc1cncc(-c2nc(=Nc3ccc(S(N)(=O)=O)cc3)[n-]cc2C)c1 (protonated)
Cc1cncc(-c2nc(=Nc3ccc(S(N)(=O)=O)cc3)[n-]cc2C)c1 (3D coordinates assigned)
Cc1cncc(-c2nc(=Nc3ccc(S(N)(=O)=O)cc3)[n-]cc2C)c1 (optimized conformer: 55.97667933681613 kcal/mol)

>  <smiles>  (19) 
Cc1cncc(-c2nc(=Nc3ccc(S(N)(=O)=O)cc3)[nH]cc2C)c1

>  <score_type>  (19) 
oracle

>  <origin>  (19) 
adgpu

>  <m_score__min__energy>  (19) 
-9.5099999999999998

>  <m_primary>  (19) 
energy

$$$$
19:0
     RDKit          3D

 36 37  0  0  0  0  0  0  0  0999 V2000
   -5.1510   15.5320  -33.1530 C   0  0  0  0  0  0  0  0  0  0  0  0
   -5.2430   16.5910  -32.2050 O   0  0  0  0  0  0  0  0  0  0  0  0
   -6.0570   17.7220  -32.3580 C   0  0  0  0  0  0  0  0  0  0  0  0
   -5.7850   18.7270  -33.3030 C   0  0  0  0  0  0  0  0  0  0  0  0
   -6.6290   19.8350  -33.4180 C   0  0  0  0  0  0  0  0  0  0  0  0
   -7.7570   19.9610  -32.5960 C   0  0  0  0  0  0  0  0  0  0  0  0
   -8.5710   21.0900  -32.7610 O   0  0  0  0  0  0  0  0  0  0  0  0
   -8.7780   22.3240  -31.5920 S   0  0  0  0  0  0  0  0  0  0  0  0
   -9.7540   23.3390  -32.1190 O   0  0  0  0  0  0  0  0  0  0  0  0
   -9.3260   21.7200  -30.3310 O   0  0  0  0  0  0  0  0  0  0  0  0
   -7.2330   23.0890  -31.2400 C   0  0  0  0  0  0  0  0  0  0  0  0
   -6.0750   22.6730  -31.9100 C   0  0  0  0  0  0  0  0  0  0  0  0
   -4.8490   23.2860  -31.6410 C   0  0  0  0  0  0  0  0  0  0  0  0
   -4.7600   24.3040  -30.6840 C   0  0  0  0  0  0  0  0  0  0  0  0
   -3.4890   24.9300  -30.4540 N   0  0  0  0  0  0  0  0  0  0  0  0
   -2.6260   24.7300  -29.3270 C   0  0  0  0  0  0  0  0  0  0  0  0
   -2.5750   23.4290  -28.5850 C   0  0  0  0  0  0  0  0  0  0  0  0
   -1.8630   25.6640  -28.9710 O   0  0  0  0  0  0  0  0  0  0  0  0
   -5.9250   24.7370  -30.0290 C   0  0  0  0  0  0  0  0  0  0  0  0
   -7.1530   24.1250  -30.2990 C   0  0  0  0  0  0  0  0  0  0  0  0
   -8.0270   18.9560  -31.6480 C   0  0  0  0  0  0  0  0  0  0  0  0
   -7.1820   17.8480  -31.5350 C   0  0  0  0  0  0  0  0  0  0  0  0
   -5.0676   14.5717  -32.6230 H   0  0  0  0  0  0  0  0  0  0  0  0
   -6.0520   15.5255  -33.7841 H   0  0  0  0  0  0  0  0  0  0  0  0
   -4.2624   15.6809  -33.7841 H   0  0  0  0  0  0  0  0  0  0  0  0
   -4.9034   18.6407  -33.9551 H   0  0  0  0  0  0  0  0  0  0  0  0
   -6.4059   20.6153  -34.1605 H   0  0  0  0  0  0  0  0  0  0  0  0
   -6.1314   21.8612  -32.6501 H   0  0  0  0  0  0  0  0  0  0  0  0
   -3.9476   22.9668  -32.1846 H   0  0  0  0  0  0  0  0  0  0  0  0
   -2.5826   23.6238  -27.5024 H   0  0  0  0  0  0  0  0  0  0  0  0
   -3.4499   22.8189  -28.8540 H   0  0  0  0  0  0  0  0  0  0  0  0
   -1.6550   22.8893  -28.8540 H   0  0  0  0  0  0  0  0  0  0  0  0
   -5.8710   25.5602  -29.3013 H   0  0  0  0  0  0  0  0  0  0  0  0
   -8.0591   24.4576  -29.7713 H   0  0  0  0  0  0  0  0  0  0  0  0
   -8.9067   19.0429  -30.9933 H   0  0  0  0  0  0  0  0  0  0  0  0
   -7.4035   17.0676  -30.7920 H   0  0  0  0  0  0  0  0  0  0  0  0
  1  2  1  0
  2  3  1  0
  3  4  2  0
  4  5  1  0
  5  6  2  0
  6  7  1  0
  7  8  1  0
  8  9  2  0
  8 10  2  0
  8 11  1  0
 11 12  2  0
 12 13  1  0
 13 14  2  0
 14 15  1  0
 15 16  1  0
 16 17  1  0
 16 18  2  0
 14 19  1  0
 19 20  2  0
  6 21  1  0
 21 22  2  0
 22  3  1  0
 20 11  1  0
  1 23  1  0
  1 24  1  0
  1 25  1  0
  4 26  1  0
  5 27  1  0
 12 28  1  0
 13 29  1  0
 17 30  1  0
 17 31  1  0
 17 32  1  0
 19 33  1  0
 20 34  1  0
 21 35  1  0
 22 36  1  0
M  CHG  1  15  -1
M  END
>  <UniqueID>  (20) 
18

>  <SMILES>  (20) 
COc1ccc(OS(=O)(=O)c2ccc([N-]C(C)=O)cc2)cc1

>  <Energy>  (20) 
38.71335610683217

>  <Genealogy>  (20) 
COc1ccc(OS(=O)(=O)c2ccc([N-]C(C)=O)cc2)cc1 (protonated)
COc1ccc(OS(=O)(=O)c2ccc([N-]C(C)=O)cc2)cc1 (3D coordinates assigned)
COc1ccc(OS(=O)(=O)c2ccc([N-]C(C)=O)cc2)cc1 (optimized conformer: 38.71335610683217 kcal/mol)

>  <smiles>  (20) 
COc1ccc(OS(=O)(=O)c2ccc(NC(C)=O)cc2)cc1

>  <score_type>  (20) 
oracle

>  <origin>  (20) 
adgpu

>  <m_score__min__energy>  (20) 
-9.8699999999999992

>  <m_primary>  (20) 
energy

$$$$
20:0
     RDKit          3D

 41 43  0  0  0  0  0  0  0  0999 V2000
   -2.7010   19.2930  -26.6190 C   0  0  0  0  0  0  0  0  0  0  0  0
   -1.9560   20.5050  -26.6730 O   0  0  0  0  0  0  0  0  0  0  0  0
   -1.7300   21.2480  -27.8420 C   0  0  0  0  0  0  0  0  0  0  0  0
   -0.9800   20.6630  -28.8650 C   0  0  0  0  0  0  0  0  0  0  0  0
   -0.7270   21.3610  -30.0470 C   0  0  0  0  0  0  0  0  0  0  0  0
   -1.2240   22.6550  -30.2180 C   0  0  0  0  0  0  0  0  0  0  0  0
   -1.9820   23.2660  -29.2040 C   0  0  0  0  0  0  0  0  0  0  0  0
   -2.5060   24.6410  -29.3860 C   0  0  0  0  0  0  0  0  0  0  0  0
   -2.0580   25.5830  -28.6760 O   0  0  0  0  0  0  0  0  0  0  0  0
   -3.4820   24.9100  -30.4020 N   0  0  0  0  0  0  0  0  0  0  0  0
   -4.6210   24.0990  -30.7310 C   0  0  0  0  0  0  0  0  0  0  0  0
   -5.8840   24.5030  -30.2800 C   0  0  0  0  0  0  0  0  0  0  0  0
   -7.0210   23.7530  -30.5920 C   0  0  0  0  0  0  0  0  0  0  0  0
   -6.9080   22.5960  -31.3750 C   0  0  0  0  0  0  0  0  0  0  0  0
   -8.3340   21.6400  -31.7670 S   0  0  0  0  0  0  0  0  0  0  0  0
   -8.8590   20.9460  -30.5420 O   0  0  0  0  0  0  0  0  0  0  0  0
   -9.4000   22.5510  -32.3080 O   0  0  0  0  0  0  0  0  0  0  0  0
   -7.9400   20.4490  -32.9650 N   0  0  0  0  0  0  0  0  0  0  0  0
   -7.2710   19.3660  -32.7130 C   0  0  0  0  0  0  0  0  0  0  0  0
   -6.8280   19.0930  -31.4530 N   0  0  0  0  0  0  0  0  0  0  0  0
   -6.1230   17.9640  -31.1880 C   0  0  0  0  0  0  0  0  0  0  0  0
   -5.8430   17.0620  -32.2130 C   0  0  0  0  0  0  0  0  0  0  0  0
   -6.3040   17.3540  -33.4970 C   0  0  0  0  0  0  0  0  0  0  0  0
   -7.0060   18.4950  -33.7220 N   0  0  0  0  0  0  0  0  0  0  0  0
   -5.6520   22.2060  -31.8550 C   0  0  0  0  0  0  0  0  0  0  0  0
   -4.5140   22.9550  -31.5420 C   0  0  0  0  0  0  0  0  0  0  0  0
   -2.2300   22.5550  -28.0140 C   0  0  0  0  0  0  0  0  0  0  0  0
   -2.8723   19.0144  -25.5687 H   0  0  0  0  0  0  0  0  0  0  0  0
   -3.6683   19.4344  -27.1233 H   0  0  0  0  0  0  0  0  0  0  0  0
   -2.1380   18.4938  -27.1233 H   0  0  0  0  0  0  0  0  0  0  0  0
   -0.5856   19.6440  -28.7381 H   0  0  0  0  0  0  0  0  0  0  0  0
   -0.1347   20.8908  -30.8458 H   0  0  0  0  0  0  0  0  0  0  0  0
   -1.0210   23.1994  -31.1520 H   0  0  0  0  0  0  0  0  0  0  0  0
   -5.9815   25.4171  -29.6759 H   0  0  0  0  0  0  0  0  0  0  0  0
   -8.0069   24.0713  -30.2223 H   0  0  0  0  0  0  0  0  0  0  0  0
   -5.7729   17.7610  -30.1652 H   0  0  0  0  0  0  0  0  0  0  0  0
   -5.2726   16.1426  -32.0145 H   0  0  0  0  0  0  0  0  0  0  0  0
   -6.0992   16.6610  -34.3263 H   0  0  0  0  0  0  0  0  0  0  0  0
   -5.5603   21.3063  -32.4812 H   0  0  0  0  0  0  0  0  0  0  0  0
   -3.5318   22.6487  -31.9312 H   0  0  0  0  0  0  0  0  0  0  0  0
   -2.8189   23.0234  -27.2117 H   0  0  0  0  0  0  0  0  0  0  0  0
  1  2  1  0
  2  3  1  0
  3  4  2  0
  4  5  1  0
  5  6  2  0
  6  7  1  0
  7  8  1  0
  8  9  2  0
  8 10  1  0
 10 11  1  0
 11 12  2  0
 12 13  1  0
 13 14  2  0
 14 15  1  0
 15 16  2  0
 15 17  2  0
 15 18  1  0
 18 19  2  3
 19 20  1  0
 20 21  2  0
 21 22  1  0
 22 23  2  0
 23 24  1  0
 14 25  1  0
 25 26  2  0
  7 27  2  0
 27  3  1  0
 26 11  1  0
 24 19  1  0
  1 28  1  0
  1 29  1  0
  1 30  1  0
  4 31  1  0
  5 32  1  0
  6 33  1  0
 12 34  1  0
 13 35  1  0
 21 36  1  0
 22 37  1  0
 23 38  1  0
 25 39  1  0
 26 40  1  0
 27 41  1  0
M  CHG  2  10  -1  24  -1
M  END
>  <UniqueID>  (21) 
19

>  <SMILES>  (21) 
COc1cccc(C(=O)[N-]c2ccc(S(=O)(=O)N=c3nccc[n-]3)cc2)c1

>  <Energy>  (21) 
51.558136437451004

>  <Genealogy>  (21) 
COc1cccc(C(=O)[N-]c2ccc(S(=O)(=O)N=c3nccc[n-]3)cc2)c1 (protonated)
COc1cccc(C(=O)[N-]c2ccc(S(=O)(=O)N=c3nccc[n-]3)cc2)c1 (3D coordinates assigned)
COc1cccc(C(=O)[N-]c2ccc(S(=O)(=O)N=c3nccc[n-]3)cc2)c1 (optimized conformer: 51.558136437451004 kcal/mol)

>  <smiles>  (21) 
COc1cccc(C(=O)Nc2ccc(S(=O)(=O)N=c3nccc[nH]3)cc2)c1

>  <score_type>  (21) 
oracle

>  <origin>  (21) 
adgpu

>  <m_score__min__energy>  (21) 
-10.43

>  <m_primary>  (21) 
energy

$$$$
21:0
     RDKit          3D

 32 34  0  0  0  0  0  0  0  0999 V2000
   -3.2880   22.3100  -29.2310 C   0  0  0  0  0  0  0  0  0  0  0  0
   -3.3250   21.9890  -30.7000 C   0  0  0  0  0  0  0  0  0  0  0  0
   -2.4260   21.0360  -31.2110 C   0  0  0  0  0  0  0  0  0  0  0  0
   -2.4180   20.7270  -32.5730 C   0  0  0  0  0  0  0  0  0  0  0  0
   -3.3090   21.3610  -33.4390 C   0  0  0  0  0  0  0  0  0  0  0  0
   -4.2220   22.2940  -32.9440 C   0  0  0  0  0  0  0  0  0  0  0  0
   -4.2540   22.6000  -31.5750 C   0  0  0  0  0  0  0  0  0  0  0  0
   -5.2320   23.5380  -31.0960 N   0  0  0  0  0  0  0  0  0  0  0  0
   -6.5740   23.3990  -30.9490 C   0  0  0  0  0  0  0  0  0  0  0  0
   -7.3760   22.2260  -31.3630 C   0  0  0  0  0  0  0  0  0  0  0  0
   -6.7830   20.9630  -31.5490 C   0  0  0  0  0  0  0  0  0  0  0  0
   -7.5610   19.8680  -31.9360 C   0  0  0  0  0  0  0  0  0  0  0  0
   -8.9320   20.0240  -32.1520 C   0  0  0  0  0  0  0  0  0  0  0  0
   -9.5260   21.2780  -31.9900 C   0  0  0  0  0  0  0  0  0  0  0  0
   -8.7520   22.3760  -31.6030 C   0  0  0  0  0  0  0  0  0  0  0  0
   -7.1200   24.4930  -30.3710 N   0  0  0  0  0  0  0  0  0  0  0  0
   -6.1270   25.3430  -30.1580 N   0  0  0  0  0  0  0  0  0  0  0  0
   -4.9990   24.7640  -30.5950 C   0  0  0  0  0  0  0  0  0  0  0  0
   -3.8600   25.2980  -30.5200 O   0  0  0  0  0  0  0  0  0  0  0  0
   -3.3950   21.3820  -28.6501 H   0  0  0  0  0  0  0  0  0  0  0  0
   -2.3288   22.7885  -28.9843 H   0  0  0  0  0  0  0  0  0  0  0  0
   -4.1132   22.9942  -28.9843 H   0  0  0  0  0  0  0  0  0  0  0  0
   -1.7235   20.5299  -30.5326 H   0  0  0  0  0  0  0  0  0  0  0  0
   -1.7082   19.9828  -32.9633 H   0  0  0  0  0  0  0  0  0  0  0  0
   -3.2922   21.1255  -34.5134 H   0  0  0  0  0  0  0  0  0  0  0  0
   -4.9209   22.7925  -33.6318 H   0  0  0  0  0  0  0  0  0  0  0  0
   -5.7020   20.8371  -31.3890 H   0  0  0  0  0  0  0  0  0  0  0  0
   -7.0926   18.8818  -32.0706 H   0  0  0  0  0  0  0  0  0  0  0  0
   -9.5439   19.1597  -32.4496 H   0  0  0  0  0  0  0  0  0  0  0  0
  -10.6046   21.4017  -32.1672 H   0  0  0  0  0  0  0  0  0  0  0  0
   -9.2231   23.3631  -31.4858 H   0  0  0  0  0  0  0  0  0  0  0  0
   -6.2280   26.2840  -29.7180 H   0  0  0  0  0  0  0  0  0  0  0  0
  1  2  1  0
  2  3  2  0
  3  4  1  0
  4  5  2  0
  5  6  1  0
  6  7  2  0
  7  8  1  0
  8  9  1  0
  9 10  1  0
 10 11  2  0
 11 12  1  0
 12 13  2  0
 13 14  1  0
 14 15  2  0
  9 16  2  0
 16 17  1  0
 17 18  1  0
 18 19  2  0
  7  2  1  0
 18  8  1  0
 15 10  1  0
  1 20  1  0
  1 21  1  0
  1 22  1  0
  3 23  1  0
  4 24  1  0
  5 25  1  0
  6 26  1  0
 11 27  1  0
 12 28  1  0
 13 29  1  0
 14 30  1  0
 15 31  1  0
 17 32  1  0
M  END
>  <UniqueID>  (22) 
20

>  <SMILES>  (22) 
Cc1ccccc1-n1c(-c2ccccc2)n[nH]c1=O

>  <Energy>  (22) 
81.3651850013831

>  <Genealogy>  (22) 
Cc1ccccc1-n1c(-c2ccccc2)n[nH]c1=O (3D coordinates assigned)
Cc1ccccc1-n1c(-c2ccccc2)n[nH]c1=O (optimized conformer: 81.3651850013831 kcal/mol)

>  <smiles>  (22) 
Cc1ccccc1-n1c(-c2ccccc2)n[nH]c1=O

>  <score_type>  (22) 
oracle

>  <origin>  (22) 
adgpu

>  <m_score__min__energy>  (22) 
-8

>  <m_primary>  (22) 
energy

$$$$
22:0
     RDKit          3D

 31 32  0  0  0  0  0  0  0  0999 V2000
   -1.8210   24.9160  -28.5830 C   0  0  0  0  0  0  0  0  0  0  0  0
   -2.8450   25.2660  -29.5090 O   0  0  0  0  0  0  0  0  0  0  0  0
   -4.0760   24.6010  -29.6200 C   0  0  0  0  0  0  0  0  0  0  0  0
   -4.2380   23.2520  -29.2530 C   0  0  0  0  0  0  0  0  0  0  0  0
   -5.4830   22.6320  -29.3850 C   0  0  0  0  0  0  0  0  0  0  0  0
   -6.5860   23.3390  -29.8870 C   0  0  0  0  0  0  0  0  0  0  0  0
   -7.8490   22.6660  -30.0200 N   0  0  0  0  0  0  0  0  0  0  0  0
   -8.5160   22.1550  -31.5400 S   0  0  0  0  0  0  0  0  0  0  0  0
   -9.8670   21.5410  -31.3110 O   0  0  0  0  0  0  0  0  0  0  0  0
   -8.6700   23.3480  -32.4410 O   0  0  0  0  0  0  0  0  0  0  0  0
   -7.4690   20.9570  -32.2900 C   0  0  0  0  0  0  0  0  0  0  0  0
   -5.8680   21.2290  -32.7180 S   0  0  0  0  0  0  0  0  0  0  0  0
   -5.5640   19.6780  -33.2900 C   0  0  0  0  0  0  0  0  0  0  0  0
   -6.7220   18.9230  -33.1470 C   0  0  0  0  0  0  0  0  0  0  0  0
   -7.7980   19.6380  -32.5980 C   0  0  0  0  0  0  0  0  0  0  0  0
   -9.1250   19.0090  -32.3090 C   0  0  0  0  0  0  0  0  0  0  0  0
   -6.4220   24.6890  -30.2430 C   0  0  0  0  0  0  0  0  0  0  0  0
   -5.1770   25.3110  -30.1130 C   0  0  0  0  0  0  0  0  0  0  0  0
   -5.0390   26.6140  -30.4660 F   0  0  0  0  0  0  0  0  0  0  0  0
   -2.1954   25.0440  -27.5566 H   0  0  0  0  0  0  0  0  0  0  0  0
   -1.5288   23.8670  -28.7386 H   0  0  0  0  0  0  0  0  0  0  0  0
   -0.9479   25.5667  -28.7386 H   0  0  0  0  0  0  0  0  0  0  0  0
   -3.3815   22.6839  -28.8609 H   0  0  0  0  0  0  0  0  0  0  0  0
   -5.5997   21.5781  -29.0922 H   0  0  0  0  0  0  0  0  0  0  0  0
   -8.3560   22.3630  -29.1590 H   0  0  0  0  0  0  0  0  0  0  0  0
   -4.6106   19.3212  -33.7067 H   0  0  0  0  0  0  0  0  0  0  0  0
   -6.7891   17.8640  -33.4369 H   0  0  0  0  0  0  0  0  0  0  0  0
   -9.2691   18.9407  -31.2206 H   0  0  0  0  0  0  0  0  0  0  0  0
   -9.9253   19.6236  -32.7470 H   0  0  0  0  0  0  0  0  0  0  0  0
   -9.1559   18.0004  -32.7470 H   0  0  0  0  0  0  0  0  0  0  0  0
   -7.2801   25.2603  -30.6268 H   0  0  0  0  0  0  0  0  0  0  0  0
  1  2  1  0
  2  3  1  0
  3  4  2  0
  4  5  1  0
  5  6  2  0
  6  7  1  0
  7  8  1  0
  8  9  2  0
  8 10  2  0
  8 11  1  0
 11 12  1  0
 12 13  1  0
 13 14  2  0
 14 15  1  0
 15 16  1  0
  6 17  1  0
 17 18  2  0
 18 19  1  0
 18  3  1  0
 15 11  2  0
  1 20  1  0
  1 21  1  0
  1 22  1  0
  4 23  1  0
  5 24  1  0
  7 25  1  0
 13 26  1  0
 14 27  1  0
 16 28  1  0
 16 29  1  0
 16 30  1  0
 17 31  1  0
M  END
>  <UniqueID>  (23) 
21

>  <SMILES>  (23) 
COc1ccc(NS(=O)(=O)c2sccc2C)cc1F

>  <Energy>  (23) 
57.78508914220621

>  <Genealogy>  (23) 
COc1ccc(NS(=O)(=O)c2sccc2C)cc1F (3D coordinates assigned)
COc1ccc(NS(=O)(=O)c2sccc2C)cc1F (optimized conformer: 57.78508914220621 kcal/mol)

>  <smiles>  (23) 
COc1ccc(NS(=O)(=O)c2sccc2C)cc1F

>  <score_type>  (23) 
oracle

>  <origin>  (23) 
adgpu

>  <m_score__min__energy>  (23) 
-7.8600000000000003

>  <m_primary>  (23) 
energy

$$$$
23:0
     RDKit          3D

 36 38  0  0  0  0  0  0  0  0999 V2000
   -8.3490   22.8750  -31.6790 F   0  0  0  0  0  0  0  0  0  0  0  0
   -7.1690   23.4160  -31.2840 C   0  0  0  0  0  0  0  0  0  0  0  0
   -7.1610   24.5510  -30.4670 C   0  0  0  0  0  0  0  0  0  0  0  0
   -5.9480   25.1130  -30.0590 C   0  0  0  0  0  0  0  0  0  0  0  0
   -4.7290   24.5330  -30.4570 C   0  0  0  0  0  0  0  0  0  0  0  0
   -3.4900   25.0730  -30.0810 O   0  0  0  0  0  0  0  0  0  0  0  0
   -2.4750   24.3840  -29.4020 C   0  0  0  0  0  0  0  0  0  0  0  0
   -2.1610   24.6610  -28.0620 C   0  0  0  0  0  0  0  0  0  0  0  0
   -1.1370   23.9320  -27.4420 C   0  0  0  0  0  0  0  0  0  0  0  0
   -0.7770   24.1750  -26.0690 N   0  0  0  0  0  0  0  0  0  0  0  0
   -0.1880   23.1190  -25.2340 C   0  0  0  0  0  0  0  0  0  0  0  0
    0.9760   23.6740  -24.3880 C   0  0  0  0  0  0  0  0  0  0  0  0
    0.8660   25.1230  -24.1090 N   0  0  0  0  0  0  0  0  0  0  0  0
   -0.5260   25.5880  -24.0560 C   0  0  0  0  0  0  0  0  0  0  0  0
   -1.1880   25.4320  -25.4320 C   0  0  0  0  0  0  0  0  0  0  0  0
   -0.5090   22.9460  -28.1400 N   0  0  0  0  0  0  0  0  0  0  0  0
   -0.8380   22.6750  -29.4290 C   0  0  0  0  0  0  0  0  0  0  0  0
   -1.8130   23.3900  -30.0470 N   0  0  0  0  0  0  0  0  0  0  0  0
   -4.7460   23.4080  -31.2930 C   0  0  0  0  0  0  0  0  0  0  0  0
   -5.9610   22.8480  -31.7000 C   0  0  0  0  0  0  0  0  0  0  0  0
   -5.9650   21.7520  -32.5000 F   0  0  0  0  0  0  0  0  0  0  0  0
   -8.1110   25.0023  -30.1449 H   0  0  0  0  0  0  0  0  0  0  0  0
   -5.9461   26.0117  -29.4247 H   0  0  0  0  0  0  0  0  0  0  0  0
   -2.7094   25.4371  -27.5080 H   0  0  0  0  0  0  0  0  0  0  0  0
   -0.9613   22.7165  -24.5632 H   0  0  0  0  0  0  0  0  0  0  0  0
    0.2003   22.3264  -25.8904 H   0  0  0  0  0  0  0  0  0  0  0  0
    0.9967   23.1356  -23.4290 H   0  0  0  0  0  0  0  0  0  0  0  0
    1.8975   23.5262  -24.9702 H   0  0  0  0  0  0  0  0  0  0  0  0
    1.3260   25.3290  -23.1920 H   0  0  0  0  0  0  0  0  0  0  0  0
    1.3800   25.6600  -24.8490 H   0  0  0  0  0  0  0  0  0  0  0  0
   -1.0805   24.9922  -23.3160 H   0  0  0  0  0  0  0  0  0  0  0  0
   -0.5398   26.6497  -23.7686 H   0  0  0  0  0  0  0  0  0  0  0  0
   -2.2810   25.4331  -25.3085 H   0  0  0  0  0  0  0  0  0  0  0  0
   -0.8739   26.2703  -26.0713 H   0  0  0  0  0  0  0  0  0  0  0  0
   -0.3142   21.8754  -29.9733 H   0  0  0  0  0  0  0  0  0  0  0  0
   -3.7983   22.9632  -31.6308 H   0  0  0  0  0  0  0  0  0  0  0  0
  1  2  1  0
  2  3  2  0
  3  4  1  0
  4  5  2  0
  5  6  1  0
  6  7  1  0
  7  8  2  0
  8  9  1  0
  9 10  1  0
 10 11  1  0
 11 12  1  0
 12 13  1  0
 13 14  1  0
 14 15  1  0
  9 16  2  0
 16 17  1  0
 17 18  2  0
  5 19  1  0
 19 20  2  0
 20 21  1  0
 20  2  1  0
 18  7  1  0
 15 10  1  0
  3 22  1  0
  4 23  1  0
  8 24  1  0
 11 25  1  0
 11 26  1  0
 12 27  1  0
 12 28  1  0
 13 29  1  0
 13 30  1  0
 14 31  1  0
 14 32  1  0
 15 33  1  0
 15 34  1  0
 17 35  1  0
 19 36  1  0
M  CHG  1  13   1
M  END
>  <UniqueID>  (24) 
22

>  <SMILES>  (24) 
Fc1ccc(Oc2cc(N3CC[NH2+]CC3)ncn2)cc1F

>  <Energy>  (24) 
52.24005069297764

>  <Genealogy>  (24) 
Fc1ccc(Oc2cc(N3CC[NH2+]CC3)ncn2)cc1F (protonated)
Fc1ccc(Oc2cc(N3CC[NH2+]CC3)ncn2)cc1F (3D coordinates assigned)
Fc1ccc(Oc2cc(N3CC[NH2+]CC3)ncn2)cc1F (nonaromatic ring conformer: 52.24005069297764 kcal/mol)

>  <smiles>  (24) 
Fc1ccc(Oc2cc(N3CCNCC3)ncn2)cc1F

>  <score_type>  (24) 
oracle

>  <origin>  (24) 
adgpu

>  <m_score__min__energy>  (24) 
-7.25

>  <m_primary>  (24) 
energy

$$$$
24:0
     RDKit          3D

 27 28  0  0  0  0  0  0  0  0999 V2000
   -2.5910   23.3610  -28.9000 O   0  0  0  0  0  0  0  0  0  0  0  0
   -2.5650   24.5360  -29.3570 C   0  0  0  0  0  0  0  0  0  0  0  0
   -1.5350   25.4260  -28.9130 N   0  0  0  0  0  0  0  0  0  0  0  0
   -1.3600   25.9090  -27.5730 C   0  0  0  0  0  0  0  0  0  0  0  0
   -0.5180   26.9980  -27.2830 C   0  0  0  0  0  0  0  0  0  0  0  0
   -0.3930   27.4590  -25.9680 C   0  0  0  0  0  0  0  0  0  0  0  0
   -1.1170   26.8490  -24.9400 C   0  0  0  0  0  0  0  0  0  0  0  0
   -1.9740   25.7840  -25.2260 C   0  0  0  0  0  0  0  0  0  0  0  0
   -2.1020   25.3200  -26.5400 C   0  0  0  0  0  0  0  0  0  0  0  0
   -3.4890   24.9330  -30.3820 N   0  0  0  0  0  0  0  0  0  0  0  0
   -4.7370   24.2670  -30.6420 C   0  0  0  0  0  0  0  0  0  0  0  0
   -5.9600   24.7990  -30.1940 C   0  0  0  0  0  0  0  0  0  0  0  0
   -7.1610   24.1450  -30.4810 C   0  0  0  0  0  0  0  0  0  0  0  0
   -7.1600   22.9610  -31.2270 C   0  0  0  0  0  0  0  0  0  0  0  0
   -8.6920   22.1690  -31.5670 Cl  0  0  0  0  0  0  0  0  0  0  0  0
   -5.9460   22.4340  -31.6960 C   0  0  0  0  0  0  0  0  0  0  0  0
   -5.9010   20.9560  -32.6480 Cl  0  0  0  0  0  0  0  0  0  0  0  0
   -4.7440   23.0920  -31.4080 C   0  0  0  0  0  0  0  0  0  0  0  0
    0.0434   27.4882  -28.0920 H   0  0  0  0  0  0  0  0  0  0  0  0
    0.2760   28.3027  -25.7430 H   0  0  0  0  0  0  0  0  0  0  0  0
   -1.0119   27.2077  -23.9055 H   0  0  0  0  0  0  0  0  0  0  0  0
   -2.5491   25.3093  -24.4174 H   0  0  0  0  0  0  0  0  0  0  0  0
   -2.7879   24.4895  -26.7631 H   0  0  0  0  0  0  0  0  0  0  0  0
   -3.1940   25.6970  -31.0310 H   0  0  0  0  0  0  0  0  0  0  0  0
   -5.9708   25.7342  -29.6150 H   0  0  0  0  0  0  0  0  0  0  0  0
   -8.1119   24.5629  -30.1188 H   0  0  0  0  0  0  0  0  0  0  0  0
   -3.7955   22.6832  -31.7864 H   0  0  0  0  0  0  0  0  0  0  0  0
  1  2  2  0
  2  3  1  0
  3  4  1  0
  4  5  2  0
  5  6  1  0
  6  7  2  0
  7  8  1  0
  8  9  2  0
  2 10  1  0
 10 11  1  0
 11 12  2  0
 12 13  1  0
 13 14  2  0
 14 15  1  0
 14 16  1  0
 16 17  1  0
 16 18  2  0
  9  4  1  0
 18 11  1  0
  5 19  1  0
  6 20  1  0
  7 21  1  0
  8 22  1  0
  9 23  1  0
 10 24  1  0
 12 25  1  0
 13 26  1  0
 18 27  1  0
M  CHG  1   3  -1
M  END
>  <UniqueID>  (25) 
23

>  <SMILES>  (25) 
O=C([N-]c1ccccc1)Nc1ccc(Cl)c(Cl)c1

>  <Energy>  (25) 
35.47623383794067

>  <Genealogy>  (25) 
O=C([N-]c1ccccc1)Nc1ccc(Cl)c(Cl)c1 (protonated)
O=C([N-]c1ccccc1)Nc1ccc(Cl)c(Cl)c1 (3D coordinates assigned)
O=C([N-]c1ccccc1)Nc1ccc(Cl)c(Cl)c1 (optimized conformer: 35.47623383794067 kcal/mol)

>  <smiles>  (25) 
O=C(Nc1ccccc1)Nc1ccc(Cl)c(Cl)c1

>  <score_type>  (25) 
oracle

>  <origin>  (25) 
adgpu

>  <m_score__min__energy>  (25) 
-8.9000000000000004

>  <m_primary>  (25) 
energy

$$$$
25:0
     RDKit          3D

 51 55  0  0  0  0  0  0  0  0999 V2000
    0.2297   25.6013  -24.9229 H   0  0  0  0  0  0  0  0  0  0  0  0
   -0.4050   25.4590  -25.8100 C   0  0  0  0  0  0  0  0  0  0  0  0
    0.1130   25.7010  -27.0860 C   0  0  0  0  0  0  0  0  0  0  0  0
    1.1530   26.0403  -27.2015 H   0  0  0  0  0  0  0  0  0  0  0  0
   -0.6900   25.5120  -28.2160 C   0  0  0  0  0  0  0  0  0  0  0  0
   -0.2869   25.7236  -29.2174 H   0  0  0  0  0  0  0  0  0  0  0  0
   -2.0060   25.0540  -28.0750 C   0  0  0  0  0  0  0  0  0  0  0  0
   -2.8380   24.9270  -29.2310 N   0  0  0  0  0  0  0  0  0  0  0  0
   -3.1160   23.8540  -29.9190 C   0  0  0  0  0  0  0  0  0  0  0  0
   -4.1070   23.9240  -30.8490 N   0  0  0  0  0  0  0  0  0  0  0  0
   -4.5020   22.8420  -31.5850 C   0  0  0  0  0  0  0  0  0  0  0  0
   -5.6550   23.0140  -32.5430 C   0  0  0  0  0  0  0  0  0  0  0  0
   -5.9099   24.0821  -32.6082 H   0  0  0  0  0  0  0  0  0  0  0  0
   -5.3499   22.6250  -33.5257 H   0  0  0  0  0  0  0  0  0  0  0  0
   -6.8690   22.2470  -32.0850 C   0  0  0  0  0  0  0  0  0  0  0  0
   -7.3100   21.1160  -32.7950 C   0  0  0  0  0  0  0  0  0  0  0  0
   -6.7803   20.8003  -33.7059 H   0  0  0  0  0  0  0  0  0  0  0  0
   -8.4190   20.3910  -32.3480 C   0  0  0  0  0  0  0  0  0  0  0  0
   -8.7540   19.5021  -32.9027 H   0  0  0  0  0  0  0  0  0  0  0  0
   -9.1020   20.7940  -31.1980 C   0  0  0  0  0  0  0  0  0  0  0  0
   -9.9725   20.2208  -30.8464 H   0  0  0  0  0  0  0  0  0  0  0  0
   -8.6800   21.9250  -30.4940 C   0  0  0  0  0  0  0  0  0  0  0  0
   -9.2215   22.2438  -29.5912 H   0  0  0  0  0  0  0  0  0  0  0  0
   -7.5700   22.6520  -30.9360 C   0  0  0  0  0  0  0  0  0  0  0  0
   -7.2441   23.5447  -30.3820 H   0  0  0  0  0  0  0  0  0  0  0  0
   -3.8600   21.5940  -31.3910 C   0  0  0  0  0  0  0  0  0  0  0  0
   -4.2340   20.3760  -32.1360 C   0  0  0  0  0  0  0  0  0  0  0  0
   -5.0900   19.4260  -31.5630 C   0  0  0  0  0  0  0  0  0  0  0  0
   -5.5076   19.5988  -30.5601 H   0  0  0  0  0  0  0  0  0  0  0  0
   -5.4150   18.2600  -32.2610 C   0  0  0  0  0  0  0  0  0  0  0  0
   -6.0862   17.5187  -31.8027 H   0  0  0  0  0  0  0  0  0  0  0  0
   -4.8930   18.0280  -33.5390 C   0  0  0  0  0  0  0  0  0  0  0  0
   -5.2380   16.8360  -34.1930 O   0  0  0  0  0  0  0  0  0  0  0  0
   -6.4740   16.1510  -34.0150 C   0  0  0  0  0  0  0  0  0  0  0  0
   -6.6788   16.0375  -32.9402 H   0  0  0  0  0  0  0  0  0  0  0  0
   -7.2842   16.7288  -34.4837 H   0  0  0  0  0  0  0  0  0  0  0  0
   -6.4135   15.1577  -34.4837 H   0  0  0  0  0  0  0  0  0  0  0  0
   -4.0450   18.9900  -34.1200 C   0  0  0  0  0  0  0  0  0  0  0  0
   -3.6341   18.8214  -35.1263 H   0  0  0  0  0  0  0  0  0  0  0  0
   -3.7230   20.1580  -33.4240 C   0  0  0  0  0  0  0  0  0  0  0  0
   -3.0666   20.9091  -33.8877 H   0  0  0  0  0  0  0  0  0  0  0  0
   -2.8320   21.5610  -30.4490 C   0  0  0  0  0  0  0  0  0  0  0  0
   -2.0320   20.5110  -30.1840 N   0  0  0  0  0  0  0  0  0  0  0  0
   -1.1260   20.9450  -29.3180 N   0  0  0  0  0  0  0  0  0  0  0  0
   -1.3880   22.2470  -29.0710 C   0  0  0  0  0  0  0  0  0  0  0  0
   -0.7951   22.8879  -28.4018 H   0  0  0  0  0  0  0  0  0  0  0  0
   -2.4760   22.6540  -29.7570 N   0  0  0  0  0  0  0  0  0  0  0  0
   -2.5340   24.8460  -26.7890 C   0  0  0  0  0  0  0  0  0  0  0  0
   -3.5818   24.5331  -26.6698 H   0  0  0  0  0  0  0  0  0  0  0  0
   -1.7300   25.0360  -25.6610 C   0  0  0  0  0  0  0  0  0  0  0  0
   -2.1393   24.8529  -24.6566 H   0  0  0  0  0  0  0  0  0  0  0  0
  1  2  1  0
  2  3  2  0
  3  4  1  0
  3  5  1  0
  5  6  1  0
  5  7  2  0
  7  8  1  0
  8  9  2  0
  9 10  1  0
 10 11  1  0
 11 12  1  0
 12 13  1  0
 12 14  1  0
 12 15  1  0
 15 16  2  0
 16 17  1  0
 16 18  1  0
 18 19  1  0
 18 20  2  0
 20 21  1  0
 20 22  1  0
 22 23  1  0
 22 24  2  0
 24 25  1  0
 11 26  2  0
 26 27  1  0
 27 28  2  0
 28 29  1  0
 28 30  1  0
 30 31  1  0
 30 32  2  0
 32 33  1  0
 33 34  1  0
 34 35  1  0
 34 36  1  0
 34 37  1  0
 32 38  1  0
 38 39  1  0
 38 40  2  0
 40 41  1  0
 26 42  1  0
 42 43  2  0
 43 44  1  0
 44 45  2  0
 45 46  1  0
 45 47  1  0
  7 48  1  0
 48 49  1  0
 48 50  2  0
 50 51  1  0
 50  2  1  0
 47  9  1  0
 24 15  1  0
 40 27  1  0
 47 42  1  0
M  CHG  1  10  -1
M  END
>  <UniqueID>  (26) 
24

>  <SMILES>  (26) 
COc1ccc(-c2c(Cc3ccccc3)[n-]/c(=N/c3ccccc3)n3cnnc23)cc1

>  <Energy>  (26) 
117.35678924200707

>  <Genealogy>  (26) 
COc1ccc(-c2c(Cc3ccccc3)[n-]c(=Nc3ccccc3)n3cnnc23)cc1 (protonated)
COc1ccc(-c2c(Cc3ccccc3)[n-]/c(=N/c3ccccc3)n3cnnc23)cc1 (cis-trans isomerization)
COc1ccc(-c2c(Cc3ccccc3)[n-]/c(=N/c3ccccc3)n3cnnc23)cc1 (3D coordinates assigned)
COc1ccc(-c2c(Cc3ccccc3)[n-]/c(=N/c3ccccc3)n3cnnc23)cc1 (optimized conformer: 117.35678924200707 kcal/mol)

>  <smiles>  (26) 
COc1ccc(-c2c(Cc3ccccc3)[nH]c(=Nc3ccccc3)n3cnnc23)cc1

>  <score_type>  (26) 
oracle

>  <origin>  (26) 
adgpu

>  <m_score__min__energy>  (26) 
-10.09

>  <m_primary>  (26) 
energy

$$$$
26:0
     RDKit          3D

 37 39  0  0  1  0  0  0  0  0999 V2000
   -0.7480   26.8180  -23.9160 C   0  0  0  0  0  0  0  0  0  0  0  0
   -0.3220   26.1600  -25.1960 C   0  0  0  0  0  0  0  0  0  0  0  0
    0.9000   25.4950  -25.2900 C   0  0  0  0  0  0  0  0  0  0  0  0
    1.2970   24.8830  -26.4790 C   0  0  0  0  0  0  0  0  0  0  0  0
    0.4590   24.9400  -27.5800 C   0  0  0  0  0  0  0  0  0  0  0  0
   -0.7790   25.6030  -27.5160 C   0  0  0  0  0  0  0  0  0  0  0  0
   -1.6290   25.6210  -28.6530 N   0  0  0  0  0  0  0  0  0  0  0  0
   -2.5110   24.7360  -28.9190 C   0  0  0  0  0  0  0  0  0  0  0  0
   -3.2620   24.8590  -30.0340 N   0  0  0  0  0  0  0  0  0  0  0  0
   -4.2160   23.9350  -30.3550 C   0  0  0  0  0  0  0  0  0  0  0  0
   -4.8980   24.1170  -31.4370 N   0  0  0  0  0  0  0  0  0  0  0  0
   -5.8900   23.1310  -31.7450 C   0  0  0  0  0  0  0  0  0  0  0  0
   -5.5460   21.9060  -32.2870 C   0  0  0  0  0  0  0  0  0  0  0  0
   -6.4820   20.9360  -32.5930 C   0  0  0  0  0  0  0  0  0  0  0  0
   -7.8260   21.2110  -32.3430 C   0  0  0  0  0  0  0  0  0  0  0  0
   -8.1990   22.4330  -31.7980 C   0  0  0  0  0  0  0  0  0  0  0  0
   -9.5150   22.6250  -31.5850 F   0  0  0  0  0  0  0  0  0  0  0  0
   -7.2340   23.3900  -31.5000 C   0  0  0  0  0  0  0  0  0  0  0  0
   -4.4290   22.8570  -29.5430 N   0  0  0  0  0  0  0  0  0  0  0  0
   -3.6670   22.7510  -28.4350 C   0  0  0  0  0  0  0  0  0  0  0  0
   -2.7010   23.6690  -28.0910 C   0  0  0  0  0  0  0  0  0  0  0  0
   -1.7950   23.4180  -26.6430 Cl  0  0  0  0  0  0  0  0  0  0  0  0
   -1.1660   26.2150  -26.3120 C   0  0  0  0  0  0  0  0  0  0  0  0
   -0.3714   26.2363  -23.0617 H   0  0  0  0  0  0  0  0  0  0  0  0
   -0.3385   27.8381  -23.8741 H   0  0  0  0  0  0  0  0  0  0  0  0
   -1.8463   26.8618  -23.8741 H   0  0  0  0  0  0  0  0  0  0  0  0
    1.5617   25.4523  -24.4123 H   0  0  0  0  0  0  0  0  0  0  0  0
    2.2636   24.3617  -26.5413 H   0  0  0  0  0  0  0  0  0  0  0  0
    0.7670   24.4587  -28.5199 H   0  0  0  0  0  0  0  0  0  0  0  0
   -3.1050   25.6770  -30.6540 H   0  0  0  0  0  0  0  0  0  0  0  0
   -4.4843   21.6950  -32.4825 H   0  0  0  0  0  0  0  0  0  0  0  0
   -6.1744   19.9714  -33.0229 H   0  0  0  0  0  0  0  0  0  0  0  0
   -8.5929   20.4582  -32.5780 H   0  0  0  0  0  0  0  0  0  0  0  0
   -7.5357   24.3559  -31.0686 H   0  0  0  0  0  0  0  0  0  0  0  0
   -5.1500   22.1580  -29.7870 H   0  0  0  0  0  0  0  0  0  0  0  0
   -3.8257   21.8871  -27.7728 H   0  0  0  0  0  0  0  0  0  0  0  0
   -2.1319   26.7373  -26.2460 H   0  0  0  0  0  0  0  0  0  0  0  0
  1  2  1  0
  2  3  2  0
  3  4  1  0
  4  5  2  0
  5  6  1  0
  6  7  1  0
  7  8  2  0
  8  9  1  0
  9 10  1  0
 10 11  2  0
 11 12  1  0
 12 13  2  0
 13 14  1  0
 14 15  2  0
 15 16  1  0
 16 17  1  0
 16 18  2  0
 10 19  1  0
 19 20  1  0
 20 21  2  0
 21 22  1  0
  6 23  2  0
 23  2  1  0
 21  8  1  0
 18 12  1  0
  1 24  1  0
  1 25  1  0
  1 26  1  0
  3 27  1  0
  4 28  1  0
  5 29  1  0
  9 30  1  0
 13 31  1  0
 14 32  1  0
 15 33  1  0
 18 34  1  0
 19 35  1  0
 20 36  1  0
 23 37  1  0
M  END
>  <smiles>  (27) 
Cc1cccc(N=c2[nH]c(=Nc3cccc(F)c3)[nH]cc2Cl)c1

>  <score_type>  (27) 
oracle

>  <origin>  (27) 
adgpu

>  <m_score__min__energy>  (27) 
-8.3399999999999999

>  <m_primary>  (27) 
energy

$$$$
27:0
     RDKit          3D

 38 40  0  0  0  0  0  0  0  0999 V2000
   -0.1790   23.0734  -27.7827 H   0  0  0  0  0  0  0  0  0  0  0  0
   -1.2690   23.2160  -27.7440 C   0  0  0  0  0  0  0  0  0  0  0  0
   -1.8160   24.5820  -27.8680 C   0  0  0  0  0  0  0  0  0  0  0  0
   -1.8010   25.3350  -26.8590 O   0  0  0  0  0  0  0  0  0  0  0  0
   -2.3270   25.0960  -29.1070 N   0  0  0  0  0  0  0  0  0  0  0  0
   -3.4360   24.7220  -29.6710 C   0  0  0  0  0  0  0  0  0  0  0  0
   -3.8640   25.2500  -30.8360 N   0  0  0  0  0  0  0  0  0  0  0  0
   -5.0590   24.7950  -31.2080 N   0  0  0  0  0  0  0  0  0  0  0  0
   -5.5810   23.8990  -30.3420 C   0  0  0  0  0  0  0  0  0  0  0  0
   -7.2080   23.1760  -30.5240 S   0  0  0  0  0  0  0  0  0  0  0  0
   -6.9060   22.5260  -32.2040 C   0  0  0  0  0  0  0  0  0  0  0  0
   -7.4959   23.1116  -32.9245 H   0  0  0  0  0  0  0  0  0  0  0  0
   -5.8299   22.6095  -32.4164 H   0  0  0  0  0  0  0  0  0  0  0  0
   -7.2960   21.0780  -32.3170 C   0  0  0  0  0  0  0  0  0  0  0  0
   -6.4080   20.1520  -32.8880 C   0  0  0  0  0  0  0  0  0  0  0  0
   -5.4370   20.4932  -33.2761 H   0  0  0  0  0  0  0  0  0  0  0  0
   -6.7510   18.7990  -32.9660 C   0  0  0  0  0  0  0  0  0  0  0  0
   -6.0508   18.0787  -33.4144 H   0  0  0  0  0  0  0  0  0  0  0  0
   -7.9840   18.3620  -32.4740 C   0  0  0  0  0  0  0  0  0  0  0  0
   -8.2481   17.2953  -32.5236 H   0  0  0  0  0  0  0  0  0  0  0  0
   -8.8820   19.2780  -31.9190 C   0  0  0  0  0  0  0  0  0  0  0  0
   -9.8569   18.9338  -31.5435 H   0  0  0  0  0  0  0  0  0  0  0  0
   -8.5410   20.6330  -31.8410 C   0  0  0  0  0  0  0  0  0  0  0  0
   -9.2501   21.3524  -31.4055 H   0  0  0  0  0  0  0  0  0  0  0  0
   -4.5610   23.6310  -29.0290 S   0  0  0  0  0  0  0  0  0  0  0  0
   -2.0570   22.1460  -27.5860 C   0  0  0  0  0  0  0  0  0  0  0  0
   -3.1431   22.2971  -27.4996 H   0  0  0  0  0  0  0  0  0  0  0  0
   -1.5230   20.7670  -27.5230 C   0  0  0  0  0  0  0  0  0  0  0  0
   -2.1370   19.7660  -26.7430 C   0  0  0  0  0  0  0  0  0  0  0  0
   -3.0302   20.0064  -26.1476 H   0  0  0  0  0  0  0  0  0  0  0  0
   -1.6150   18.4680  -26.7230 C   0  0  0  0  0  0  0  0  0  0  0  0
   -2.0971   17.6922  -26.1100 H   0  0  0  0  0  0  0  0  0  0  0  0
   -0.4840   18.1550  -27.4790 C   0  0  0  0  0  0  0  0  0  0  0  0
    0.0210   16.8970  -27.4580 F   0  0  0  0  0  0  0  0  0  0  0  0
    0.1230   19.1380  -28.2670 C   0  0  0  0  0  0  0  0  0  0  0  0
    1.0108   18.8899  -28.8673 H   0  0  0  0  0  0  0  0  0  0  0  0
   -0.3970   20.4360  -28.2930 C   0  0  0  0  0  0  0  0  0  0  0  0
    0.0797   21.2029  -28.9212 H   0  0  0  0  0  0  0  0  0  0  0  0
  1  2  1  0
  2  3  1  0
  3  4  2  0
  3  5  1  0
  5  6  2  0
  6  7  1  0
  7  8  1  0
  8  9  2  0
  9 10  1  0
 10 11  1  0
 11 12  1  0
 11 13  1  0
 11 14  1  0
 14 15  2  0
 15 16  1  0
 15 17  1  0
 17 18  1  0
 17 19  2  0
 19 20  1  0
 19 21  1  0
 21 22  1  0
 21 23  2  0
 23 24  1  0
  9 25  1  0
  2 26  2  0
 26 27  1  0
 26 28  1  0
 28 29  2  0
 29 30  1  0
 29 31  1  0
 31 32  1  0
 31 33  2  0
 33 34  1  0
 33 35  1  0
 35 36  1  0
 35 37  2  0
 37 38  1  0
 25  6  1  0
 37 28  1  0
 23 14  1  0
M  CHG  1   7  -1
M  END
>  <UniqueID>  (28) 
25

>  <SMILES>  (28) 
O=C(/C=C/c1ccc(F)cc1)/N=c1/[n-]nc(SCc2ccccc2)s1

>  <Energy>  (28) 
76.61014203391392

>  <Genealogy>  (28) 
O=C(C=Cc1ccc(F)cc1)N=c1[n-]nc(SCc2ccccc2)s1 (protonated)
O=C(/C=C/c1ccc(F)cc1)/N=c1/[n-]nc(SCc2ccccc2)s1 (cis-trans isomerization)
O=C(/C=C/c1ccc(F)cc1)/N=c1/[n-]nc(SCc2ccccc2)s1 (3D coordinates assigned)
O=C(/C=C/c1ccc(F)cc1)/N=c1/[n-]nc(SCc2ccccc2)s1 (optimized conformer: 76.61014203391392 kcal/mol)

>  <smiles>  (28) 
O=C(C=Cc1ccc(F)cc1)N=c1[nH]nc(SCc2ccccc2)s1

>  <score_type>  (28) 
oracle

>  <origin>  (28) 
adgpu

>  <m_score__min__energy>  (28) 
-11.199999999999999

>  <m_primary>  (28) 
energy

$$$$
28:0
     RDKit          3D

 45 48  0  0  0  0  0  0  0  0999 V2000
   -0.8530   26.3740  -23.9990 C   0  0  0  0  0  0  0  0  0  0  0  0
   -1.9940   26.4230  -24.8490 O   0  0  0  0  0  0  0  0  0  0  0  0
   -2.1610   25.6350  -25.9980 C   0  0  0  0  0  0  0  0  0  0  0  0
   -3.3680   24.9770  -26.2940 C   0  0  0  0  0  0  0  0  0  0  0  0
   -3.4870   24.2030  -27.4520 C   0  0  0  0  0  0  0  0  0  0  0  0
   -2.4010   24.0730  -28.3380 C   0  0  0  0  0  0  0  0  0  0  0  0
   -2.5060   23.2540  -29.5700 C   0  0  0  0  0  0  0  0  0  0  0  0
   -1.4510   22.6730  -30.2800 C   0  0  0  0  0  0  0  0  0  0  0  0
   -2.0870   22.0450  -31.3230 C   0  0  0  0  0  0  0  0  0  0  0  0
   -1.5350   21.3000  -32.3100 N   0  0  0  0  0  0  0  0  0  0  0  0
   -2.3550   20.7390  -33.2440 C   0  0  0  0  0  0  0  0  0  0  0  0
   -3.7490   20.9310  -33.1800 C   0  0  0  0  0  0  0  0  0  0  0  0
   -4.2830   21.7200  -32.1440 C   0  0  0  0  0  0  0  0  0  0  0  0
   -5.7420   21.9510  -32.0370 C   0  0  0  0  0  0  0  0  0  0  0  0
   -6.6260   20.8770  -32.2360 C   0  0  0  0  0  0  0  0  0  0  0  0
   -8.0120   21.0630  -32.1320 C   0  0  0  0  0  0  0  0  0  0  0  0
   -8.9430   19.8990  -32.2990 C   0  0  0  0  0  0  0  0  0  0  0  0
   -8.5130   22.3260  -31.7970 C   0  0  0  0  0  0  0  0  0  0  0  0
   -7.6460   23.4040  -31.6100 C   0  0  0  0  0  0  0  0  0  0  0  0
   -6.2540   23.2320  -31.7380 C   0  0  0  0  0  0  0  0  0  0  0  0
   -5.3610   24.3070  -31.5940 O   0  0  0  0  0  0  0  0  0  0  0  0
   -5.4870   25.3400  -30.6220 C   0  0  0  0  0  0  0  0  0  0  0  0
   -3.4070   22.2440  -31.2440 N   0  0  0  0  0  0  0  0  0  0  0  0
   -3.6870   22.9710  -30.1760 N   0  0  0  0  0  0  0  0  0  0  0  0
   -1.1980   24.7330  -28.0360 C   0  0  0  0  0  0  0  0  0  0  0  0
   -1.0810   25.5060  -26.8780 C   0  0  0  0  0  0  0  0  0  0  0  0
   -1.1778   26.3879  -22.9481 H   0  0  0  0  0  0  0  0  0  0  0  0
   -0.2883   25.4508  -24.1961 H   0  0  0  0  0  0  0  0  0  0  0  0
   -0.2113   27.2454  -24.1961 H   0  0  0  0  0  0  0  0  0  0  0  0
   -4.2241   25.0719  -25.6099 H   0  0  0  0  0  0  0  0  0  0  0  0
   -4.4359   23.6920  -27.6723 H   0  0  0  0  0  0  0  0  0  0  0  0
   -0.3743   22.7098  -30.0576 H   0  0  0  0  0  0  0  0  0  0  0  0
   -1.9245   20.1317  -34.0538 H   0  0  0  0  0  0  0  0  0  0  0  0
   -4.4106   20.4710  -33.9288 H   0  0  0  0  0  0  0  0  0  0  0  0
   -6.2268   19.8804  -32.4758 H   0  0  0  0  0  0  0  0  0  0  0  0
   -9.2427   19.5243  -31.3092 H   0  0  0  0  0  0  0  0  0  0  0  0
   -9.8359   20.2205  -32.8551 H   0  0  0  0  0  0  0  0  0  0  0  0
   -8.4331   19.0985  -32.8551 H   0  0  0  0  0  0  0  0  0  0  0  0
   -9.5972   22.4703  -31.6803 H   0  0  0  0  0  0  0  0  0  0  0  0
   -8.0530   24.3951  -31.3608 H   0  0  0  0  0  0  0  0  0  0  0  0
   -5.4337   24.9033  -29.6138 H   0  0  0  0  0  0  0  0  0  0  0  0
   -4.6708   26.0661  -30.7507 H   0  0  0  0  0  0  0  0  0  0  0  0
   -6.4538   25.8486  -30.7507 H   0  0  0  0  0  0  0  0  0  0  0  0
   -0.3399   24.6402  -28.7179 H   0  0  0  0  0  0  0  0  0  0  0  0
   -0.1325   26.0171  -26.6565 H   0  0  0  0  0  0  0  0  0  0  0  0
  1  2  1  0
  2  3  1  0
  3  4  2  0
  4  5  1  0
  5  6  2  0
  6  7  1  0
  7  8  1  0
  8  9  2  0
  9 10  1  0
 10 11  2  0
 11 12  1  0
 12 13  2  0
 13 14  1  0
 14 15  2  0
 15 16  1  0
 16 17  1  0
 16 18  2  0
 18 19  1  0
 19 20  2  0
 20 21  1  0
 21 22  1  0
 13 23  1  0
 23 24  1  0
  6 25  1  0
 25 26  2  0
 26  3  1  0
 24  7  2  0
 23  9  1  0
 20 14  1  0
  1 27  1  0
  1 28  1  0
  1 29  1  0
  4 30  1  0
  5 31  1  0
  8 32  1  0
 11 33  1  0
 12 34  1  0
 15 35  1  0
 17 36  1  0
 17 37  1  0
 17 38  1  0
 18 39  1  0
 19 40  1  0
 22 41  1  0
 22 42  1  0
 22 43  1  0
 25 44  1  0
 26 45  1  0
M  END
>  <UniqueID>  (29) 
26

>  <SMILES>  (29) 
COc1ccc(-c2cc3nccc(-c4cc(C)ccc4OC)n3n2)cc1

>  <Energy>  (29) 
91.62412760589172

>  <Genealogy>  (29) 
COc1ccc(-c2cc3nccc(-c4cc(C)ccc4OC)n3n2)cc1 (3D coordinates assigned)
COc1ccc(-c2cc3nccc(-c4cc(C)ccc4OC)n3n2)cc1 (optimized conformer: 91.62412760589172 kcal/mol)

>  <smiles>  (29) 
COc1ccc(-c2cc3nccc(-c4cc(C)ccc4OC)n3n2)cc1

>  <score_type>  (29) 
oracle

>  <origin>  (29) 
adgpu

>  <m_score__min__energy>  (29) 
-8.4299999999999997

>  <m_primary>  (29) 
energy

$$$$
29:0
     RDKit          3D

 30 31  0  0  0  0  0  0  0  0999 V2000
   -6.3310   16.3800  -30.0270 H   0  0  0  0  0  0  0  0  0  0  0  0
   -5.7240   16.2590  -30.8690 N   0  0  0  0  0  0  0  0  0  0  0  0
   -5.8450   17.0240  -31.9060 C   0  0  0  0  0  0  0  0  0  0  0  0
   -6.7780   18.0130  -31.9170 N   0  0  0  0  0  0  0  0  0  0  0  0
   -6.9250   18.8250  -32.9940 C   0  0  0  0  0  0  0  0  0  0  0  0
   -8.1650   20.1180  -32.9690 S   0  0  0  0  0  0  0  0  0  0  0  0
   -7.0090   21.3390  -32.3330 C   0  0  0  0  0  0  0  0  0  0  0  0
   -5.6500   21.0130  -32.2610 C   0  0  0  0  0  0  0  0  0  0  0  0
   -5.3062   20.0233  -32.5959 H   0  0  0  0  0  0  0  0  0  0  0  0
   -4.7280   21.9380  -31.7660 C   0  0  0  0  0  0  0  0  0  0  0  0
   -3.6625   21.6702  -31.7110 H   0  0  0  0  0  0  0  0  0  0  0  0
   -5.1480   23.2010  -31.3400 C   0  0  0  0  0  0  0  0  0  0  0  0
   -4.1830   24.0940  -30.8490 O   0  0  0  0  0  0  0  0  0  0  0  0
   -3.7990   24.1920  -29.4820 C   0  0  0  0  0  0  0  0  0  0  0  0
   -4.6652   23.9709  -28.8411 H   0  0  0  0  0  0  0  0  0  0  0  0
   -2.9954   23.4701  -29.2742 H   0  0  0  0  0  0  0  0  0  0  0  0
   -3.4396   25.2107  -29.2742 H   0  0  0  0  0  0  0  0  0  0  0  0
   -6.5140   23.5340  -31.4170 C   0  0  0  0  0  0  0  0  0  0  0  0
   -6.8542   24.5263  -31.0858 H   0  0  0  0  0  0  0  0  0  0  0  0
   -7.4430   22.6090  -31.9130 C   0  0  0  0  0  0  0  0  0  0  0  0
   -9.1380   23.0730  -31.9930 Cl  0  0  0  0  0  0  0  0  0  0  0  0
   -6.1130   18.6500  -34.1130 C   0  0  0  0  0  0  0  0  0  0  0  0
   -6.2314   19.2915  -34.9987 H   0  0  0  0  0  0  0  0  0  0  0  0
   -5.1440   17.6410  -34.0860 C   0  0  0  0  0  0  0  0  0  0  0  0
   -4.2730   17.4020  -35.2840 C   0  0  0  0  0  0  0  0  0  0  0  0
   -3.2615   17.1245  -34.9524 H   0  0  0  0  0  0  0  0  0  0  0  0
   -4.6971   16.5870  -35.8889 H   0  0  0  0  0  0  0  0  0  0  0  0
   -4.2218   18.3193  -35.8889 H   0  0  0  0  0  0  0  0  0  0  0  0
   -5.0380   16.8380  -32.9880 N   0  0  0  0  0  0  0  0  0  0  0  0
   -4.3290   16.0700  -32.9750 H   0  0  0  0  0  0  0  0  0  0  0  0
  1  2  1  0
  2  3  2  0
  3  4  1  0
  4  5  2  0
  5  6  1  0
  6  7  1  0
  7  8  2  0
  8  9  1  0
  8 10  1  0
 10 11  1  0
 10 12  2  0
 12 13  1  0
 13 14  1  0
 14 15  1  0
 14 16  1  0
 14 17  1  0
 12 18  1  0
 18 19  1  0
 18 20  2  0
 20 21  1  0
  5 22  1  0
 22 23  1  0
 22 24  2  0
 24 25  1  0
 25 26  1  0
 25 27  1  0
 25 28  1  0
 24 29  1  0
 29 30  1  0
 29  3  1  0
 20  7  1  0
M  END
>  <UniqueID>  (30) 
27

>  <SMILES>  (30) 
[H]/N=c1\nc(Sc2ccc(OC)cc2Cl)cc(C)[nH]1

>  <Energy>  (30) 
25.37662644465285

>  <Genealogy>  (30) 
[H]/N=c1\nc(Sc2ccc(OC)cc2Cl)cc(C)[nH]1 (cis-trans isomerization)
[H]/N=c1\nc(Sc2ccc(OC)cc2Cl)cc(C)[nH]1 (3D coordinates assigned)
[H]/N=c1\nc(Sc2ccc(OC)cc2Cl)cc(C)[nH]1 (optimized conformer: 25.37662644465285 kcal/mol)

>  <smiles>  (30) 
COc1ccc(Sc2cc(C)[nH]c(=N)n2)c(Cl)c1

>  <score_type>  (30) 
oracle

>  <origin>  (30) 
adgpu

>  <m_score__min__energy>  (30) 
-7.0999999999999996

>  <m_primary>  (30) 
energy

$$$$
30:0
     RDKit          3D

 48 51  0  0  0  0  0  0  0  0999 V2000
   -6.1070   13.8670  -34.2210 C   0  0  0  0  0  0  0  0  0  0  0  0
   -5.3580   14.8180  -33.4720 O   0  0  0  0  0  0  0  0  0  0  0  0
   -5.6540   16.1870  -33.4080 C   0  0  0  0  0  0  0  0  0  0  0  0
   -6.1250   16.8050  -32.2350 C   0  0  0  0  0  0  0  0  0  0  0  0
   -6.4050   18.1740  -32.2210 C   0  0  0  0  0  0  0  0  0  0  0  0
   -6.2070   18.9520  -33.3740 C   0  0  0  0  0  0  0  0  0  0  0  0
   -6.5250   20.4280  -33.3640 C   0  0  0  0  0  0  0  0  0  0  0  0
   -5.4540   21.2000  -32.6990 N   0  0  0  0  0  0  0  0  0  0  0  0
   -4.1660   20.7760  -32.8880 C   0  0  0  0  0  0  0  0  0  0  0  0
   -3.0820   21.4240  -32.2850 C   0  0  0  0  0  0  0  0  0  0  0  0
   -1.7060   20.9220  -32.5230 C   0  0  0  0  0  0  0  0  0  0  0  0
   -1.1140   21.0260  -33.7950 C   0  0  0  0  0  0  0  0  0  0  0  0
    0.1790   20.5420  -34.0140 C   0  0  0  0  0  0  0  0  0  0  0  0
    0.8920   19.9480  -32.9700 C   0  0  0  0  0  0  0  0  0  0  0  0
    0.3120   19.8320  -31.7050 C   0  0  0  0  0  0  0  0  0  0  0  0
   -0.9820   20.3140  -31.4800 C   0  0  0  0  0  0  0  0  0  0  0  0
   -3.3270   22.5290  -31.4580 C   0  0  0  0  0  0  0  0  0  0  0  0
   -2.3650   23.1070  -30.8780 O   0  0  0  0  0  0  0  0  0  0  0  0
   -4.6450   22.9770  -31.2590 C   0  0  0  0  0  0  0  0  0  0  0  0
   -4.9100   24.0870  -30.4330 C   0  0  0  0  0  0  0  0  0  0  0  0
   -6.2200   24.5370  -30.2370 C   0  0  0  0  0  0  0  0  0  0  0  0
   -6.4930   25.6970  -29.3240 C   0  0  0  0  0  0  0  0  0  0  0  0
   -7.2780   23.8550  -30.8430 C   0  0  0  0  0  0  0  0  0  0  0  0
   -7.0350   22.7530  -31.6640 C   0  0  0  0  0  0  0  0  0  0  0  0
   -5.7170   22.2910  -31.8920 C   0  0  0  0  0  0  0  0  0  0  0  0
   -5.7560   18.3290  -34.5490 C   0  0  0  0  0  0  0  0  0  0  0  0
   -5.4770   16.9610  -34.5620 C   0  0  0  0  0  0  0  0  0  0  0  0
   -6.6376   13.1934  -33.5320 H   0  0  0  0  0  0  0  0  0  0  0  0
   -6.8367   14.3921  -34.8549 H   0  0  0  0  0  0  0  0  0  0  0  0
   -5.4255   13.2807  -34.8549 H   0  0  0  0  0  0  0  0  0  0  0  0
   -6.2737   16.2071  -31.3237 H   0  0  0  0  0  0  0  0  0  0  0  0
   -6.7827   18.6454  -31.3017 H   0  0  0  0  0  0  0  0  0  0  0  0
   -6.6301   20.7796  -34.4010 H   0  0  0  0  0  0  0  0  0  0  0  0
   -7.4614   20.5793  -32.8069 H   0  0  0  0  0  0  0  0  0  0  0  0
   -3.9783   19.9032  -33.5306 H   0  0  0  0  0  0  0  0  0  0  0  0
   -1.6715   21.4906  -34.6216 H   0  0  0  0  0  0  0  0  0  0  0  0
    0.6360   20.6291  -35.0108 H   0  0  0  0  0  0  0  0  0  0  0  0
    1.9107   19.5715  -33.1444 H   0  0  0  0  0  0  0  0  0  0  0  0
    0.8732   19.3611  -30.8845 H   0  0  0  0  0  0  0  0  0  0  0  0
   -1.4361   20.2174  -30.4828 H   0  0  0  0  0  0  0  0  0  0  0  0
   -4.0770   24.6060  -29.9363 H   0  0  0  0  0  0  0  0  0  0  0  0
   -6.4152   25.3664  -28.2778 H   0  0  0  0  0  0  0  0  0  0  0  0
   -5.7577   26.4931  -29.5126 H   0  0  0  0  0  0  0  0  0  0  0  0
   -7.5062   26.0815  -29.5126 H   0  0  0  0  0  0  0  0  0  0  0  0
   -8.3117   24.1896  -30.6715 H   0  0  0  0  0  0  0  0  0  0  0  0
   -7.8806   22.2358  -32.1410 H   0  0  0  0  0  0  0  0  0  0  0  0
   -5.6217   18.9227  -35.4652 H   0  0  0  0  0  0  0  0  0  0  0  0
   -5.1151   16.4870  -35.4863 H   0  0  0  0  0  0  0  0  0  0  0  0
  1  2  1  0
  2  3  1  0
  3  4  2  0
  4  5  1  0
  5  6  2  0
  6  7  1  0
  7  8  1  0
  8  9  1  0
  9 10  2  0
 10 11  1  0
 11 12  2  0
 12 13  1  0
 13 14  2  0
 14 15  1  0
 15 16  2  0
 10 17  1  0
 17 18  2  0
 17 19  1  0
 19 20  2  0
 20 21  1  0
 21 22  1  0
 21 23  2  0
 23 24  1  0
 24 25  2  0
  6 26  1  0
 26 27  2  0
 27  3  1  0
 25  8  1  0
 16 11  1  0
 25 19  1  0
  1 28  1  0
  1 29  1  0
  1 30  1  0
  4 31  1  0
  5 32  1  0
  7 33  1  0
  7 34  1  0
  9 35  1  0
 12 36  1  0
 13 37  1  0
 14 38  1  0
 15 39  1  0
 16 40  1  0
 20 41  1  0
 22 42  1  0
 22 43  1  0
 22 44  1  0
 23 45  1  0
 24 46  1  0
 26 47  1  0
 27 48  1  0
M  END
>  <UniqueID>  (31) 
28

>  <SMILES>  (31) 
COc1ccc(Cn2cc(-c3ccccc3)c(=O)c3cc(C)ccc32)cc1

>  <Energy>  (31) 
66.99447652267028

>  <Genealogy>  (31) 
COc1ccc(Cn2cc(-c3ccccc3)c(=O)c3cc(C)ccc32)cc1 (3D coordinates assigned)
COc1ccc(Cn2cc(-c3ccccc3)c(=O)c3cc(C)ccc32)cc1 (optimized conformer: 66.99447652267028 kcal/mol)

>  <smiles>  (31) 
COc1ccc(Cn2cc(-c3ccccc3)c(=O)c3cc(C)ccc32)cc1

>  <score_type>  (31) 
oracle

>  <origin>  (31) 
adgpu

>  <m_score__min__energy>  (31) 
-8.4299999999999997

>  <m_primary>  (31) 
energy

$$$$
31:0
     RDKit          3D

 42 44  0  0  0  0  0  0  0  0999 V2000
   -7.1440   16.7040  -33.5010 C   0  0  0  0  0  0  0  0  0  0  0  0
   -6.9080   17.4650  -32.2630 N   0  0  0  0  0  0  0  0  0  0  0  0
   -5.5070   17.9070  -32.0770 C   0  0  0  0  0  0  0  0  0  0  0  0
   -4.9990   18.8980  -33.1390 C   0  0  0  0  0  0  0  0  0  0  0  0
   -5.3830   20.3110  -32.8040 C   0  0  0  0  0  0  0  0  0  0  0  0
   -4.3680   21.2710  -32.6500 C   0  0  0  0  0  0  0  0  0  0  0  0
   -4.6790   22.5920  -32.3350 C   0  0  0  0  0  0  0  0  0  0  0  0
   -6.0090   22.9890  -32.1620 C   0  0  0  0  0  0  0  0  0  0  0  0
   -6.2930   24.3550  -31.8100 N   0  0  0  0  0  0  0  0  0  0  0  0
   -5.8340   25.0800  -30.3020 S   0  0  0  0  0  0  0  0  0  0  0  0
   -5.3320   26.4740  -30.5530 O   0  0  0  0  0  0  0  0  0  0  0  0
   -7.0370   25.1470  -29.4030 O   0  0  0  0  0  0  0  0  0  0  0  0
   -4.5450   24.1420  -29.5520 C   0  0  0  0  0  0  0  0  0  0  0  0
   -4.8620   23.0340  -28.7560 C   0  0  0  0  0  0  0  0  0  0  0  0
   -3.8460   22.2980  -28.1380 C   0  0  0  0  0  0  0  0  0  0  0  0
   -2.5080   22.6670  -28.3140 C   0  0  0  0  0  0  0  0  0  0  0  0
   -1.2340   21.7460  -27.5350 Cl  0  0  0  0  0  0  0  0  0  0  0  0
   -2.1870   23.7700  -29.1130 C   0  0  0  0  0  0  0  0  0  0  0  0
   -3.2030   24.5070  -29.7320 C   0  0  0  0  0  0  0  0  0  0  0  0
   -7.0310   22.0400  -32.3420 C   0  0  0  0  0  0  0  0  0  0  0  0
   -6.7380   20.7040  -32.6780 C   0  0  0  0  0  0  0  0  0  0  0  0
   -7.9130   19.7490  -32.8300 C   0  0  0  0  0  0  0  0  0  0  0  0
   -7.9420   18.4720  -31.9510 C   0  0  0  0  0  0  0  0  0  0  0  0
   -7.4611   15.6815  -33.2481 H   0  0  0  0  0  0  0  0  0  0  0  0
   -7.9315   17.1970  -34.0900 H   0  0  0  0  0  0  0  0  0  0  0  0
   -6.2158   16.6649  -34.0900 H   0  0  0  0  0  0  0  0  0  0  0  0
   -5.4281   18.3901  -31.0919 H   0  0  0  0  0  0  0  0  0  0  0  0
   -4.8823   17.0062  -32.1686 H   0  0  0  0  0  0  0  0  0  0  0  0
   -3.9026   18.8297  -33.1957 H   0  0  0  0  0  0  0  0  0  0  0  0
   -5.4589   18.6354  -34.1031 H   0  0  0  0  0  0  0  0  0  0  0  0
   -3.3163   20.9760  -32.7796 H   0  0  0  0  0  0  0  0  0  0  0  0
   -3.8710   23.3297  -32.2213 H   0  0  0  0  0  0  0  0  0  0  0  0
   -6.7130   24.9860  -32.5290 H   0  0  0  0  0  0  0  0  0  0  0  0
   -5.9133   22.7418  -28.6165 H   0  0  0  0  0  0  0  0  0  0  0  0
   -4.0990   21.4287  -27.5133 H   0  0  0  0  0  0  0  0  0  0  0  0
   -1.1349   24.0581  -29.2547 H   0  0  0  0  0  0  0  0  0  0  0  0
   -2.9487   25.3734  -30.3603 H   0  0  0  0  0  0  0  0  0  0  0  0
   -8.0799   22.3472  -32.2179 H   0  0  0  0  0  0  0  0  0  0  0  0
   -8.8268   20.3190  -32.6062 H   0  0  0  0  0  0  0  0  0  0  0  0
   -7.8217   19.3684  -33.8580 H   0  0  0  0  0  0  0  0  0  0  0  0
   -7.8118   18.7786  -30.9026 H   0  0  0  0  0  0  0  0  0  0  0  0
   -8.9084   17.9869  -32.1529 H   0  0  0  0  0  0  0  0  0  0  0  0
  1  2  1  0
  2  3  1  0
  3  4  1  0
  4  5  1  0
  5  6  2  0
  6  7  1  0
  7  8  2  0
  8  9  1  0
  9 10  1  0
 10 11  2  0
 10 12  2  0
 10 13  1  0
 13 14  2  0
 14 15  1  0
 15 16  2  0
 16 17  1  0
 16 18  1  0
 18 19  2  0
  8 20  1  0
 20 21  2  0
 21 22  1  0
 22 23  1  0
 23  2  1  0
 21  5  1  0
 19 13  1  0
  1 24  1  0
  1 25  1  0
  1 26  1  0
  3 27  1  0
  3 28  1  0
  4 29  1  0
  4 30  1  0
  6 31  1  0
  7 32  1  0
  9 33  1  0
 14 34  1  0
 15 35  1  0
 18 36  1  0
 19 37  1  0
 20 38  1  0
 22 39  1  0
 22 40  1  0
 23 41  1  0
 23 42  1  0
M  END
>  <UniqueID>  (32) 
29

>  <SMILES>  (32) 
CN1CCc2ccc(NS(=O)(=O)c3ccc(Cl)cc3)cc2CC1

>  <Energy>  (32) 
62.6859336033819

>  <Genealogy>  (32) 
CN1CCc2ccc(NS(=O)(=O)c3ccc(Cl)cc3)cc2CC1 (3D coordinates assigned)
CN1CCc2ccc(NS(=O)(=O)c3ccc(Cl)cc3)cc2CC1 (nonaromatic ring conformer: 62.6859336033819 kcal/mol)

>  <smiles>  (32) 
CN1CCc2ccc(NS(=O)(=O)c3ccc(Cl)cc3)cc2CC1

>  <score_type>  (32) 
oracle

>  <origin>  (32) 
adgpu

>  <m_score__min__energy>  (32) 
-7.6500000000000004

>  <m_primary>  (32) 
energy

$$$$
32:0
     RDKit          3D

 37 39  0  0  0  0  0  0  0  0999 V2000
   -0.2460   26.5090  -27.1700 Br  0  0  0  0  0  0  0  0  0  0  0  0
   -1.4790   25.0640  -27.3240 C   0  0  0  0  0  0  0  0  0  0  0  0
   -1.3110   23.8050  -26.7850 C   0  0  0  0  0  0  0  0  0  0  0  0
   -2.4350   23.0900  -27.1430 C   0  0  0  0  0  0  0  0  0  0  0  0
   -3.2140   23.9650  -27.8770 C   0  0  0  0  0  0  0  0  0  0  0  0
   -4.5370   23.6440  -28.5090 C   0  0  0  0  0  0  0  0  0  0  0  0
   -4.9680   24.7120  -29.4460 N   0  0  0  0  0  0  0  0  0  0  0  0
   -6.4210   24.9370  -29.3990 C   0  0  0  0  0  0  0  0  0  0  0  0
   -7.2320   23.7270  -29.8870 C   0  0  0  0  0  0  0  0  0  0  0  0
   -6.6190   22.9770  -31.0050 N   0  0  0  0  0  0  0  0  0  0  0  0
   -7.3520   21.8500  -31.5840 C   0  0  0  0  0  0  0  0  0  0  0  0
   -8.7590   21.7390  -31.4460 C   0  0  0  0  0  0  0  0  0  0  0  0
   -9.4550   20.6620  -32.0010 C   0  0  0  0  0  0  0  0  0  0  0  0
   -8.7730   19.6690  -32.7020 C   0  0  0  0  0  0  0  0  0  0  0  0
   -7.3900   19.7490  -32.8460 C   0  0  0  0  0  0  0  0  0  0  0  0
   -6.6850   20.8230  -32.2950 C   0  0  0  0  0  0  0  0  0  0  0  0
   -5.2320   23.2300  -31.4550 C   0  0  0  0  0  0  0  0  0  0  0  0
   -4.5710   24.4740  -30.8440 C   0  0  0  0  0  0  0  0  0  0  0  0
   -2.6190   25.1310  -27.9710 O   0  0  0  0  0  0  0  0  0  0  0  0
   -0.4570   23.4456  -26.1921 H   0  0  0  0  0  0  0  0  0  0  0  0
   -2.6637   22.0427  -26.8961 H   0  0  0  0  0  0  0  0  0  0  0  0
   -4.4480   22.6977  -29.0627 H   0  0  0  0  0  0  0  0  0  0  0  0
   -5.2892   23.5624  -27.7105 H   0  0  0  0  0  0  0  0  0  0  0  0
   -4.5160   25.6070  -29.1400 H   0  0  0  0  0  0  0  0  0  0  0  0
   -6.7084   25.1556  -28.3600 H   0  0  0  0  0  0  0  0  0  0  0  0
   -6.6458   25.7770  -30.0727 H   0  0  0  0  0  0  0  0  0  0  0  0
   -7.3581   23.0361  -29.0404 H   0  0  0  0  0  0  0  0  0  0  0  0
   -8.1834   24.1264  -30.2681 H   0  0  0  0  0  0  0  0  0  0  0  0
   -9.3113   22.5132  -30.8932 H   0  0  0  0  0  0  0  0  0  0  0  0
  -10.5469   20.5975  -31.8841 H   0  0  0  0  0  0  0  0  0  0  0  0
   -9.3254   18.8247  -33.1402 H   0  0  0  0  0  0  0  0  0  0  0  0
   -6.8502   18.9638  -33.3956 H   0  0  0  0  0  0  0  0  0  0  0  0
   -5.5927   20.8712  -32.4159 H   0  0  0  0  0  0  0  0  0  0  0  0
   -4.6217   22.3539  -31.1903 H   0  0  0  0  0  0  0  0  0  0  0  0
   -5.2873   23.4108  -32.5386 H   0  0  0  0  0  0  0  0  0  0  0  0
   -3.4793   24.3439  -30.8805 H   0  0  0  0  0  0  0  0  0  0  0  0
   -4.9023   25.3431  -31.4313 H   0  0  0  0  0  0  0  0  0  0  0  0
  1  2  1  0
  2  3  2  0
  3  4  1  0
  4  5  2  0
  5  6  1  0
  6  7  1  0
  7  8  1  0
  8  9  1  0
  9 10  1  0
 10 11  1  0
 11 12  2  0
 12 13  1  0
 13 14  2  0
 14 15  1  0
 15 16  2  0
 10 17  1  0
 17 18  1  0
  5 19  1  0
 19  2  1  0
 18  7  1  0
 16 11  1  0
  3 20  1  0
  4 21  1  0
  6 22  1  0
  6 23  1  0
  7 24  1  0
  8 25  1  0
  8 26  1  0
  9 27  1  0
  9 28  1  0
 12 29  1  0
 13 30  1  0
 14 31  1  0
 15 32  1  0
 16 33  1  0
 17 34  1  0
 17 35  1  0
 18 36  1  0
 18 37  1  0
M  CHG  1   7   1
M  END
>  <UniqueID>  (33) 
30

>  <SMILES>  (33) 
Brc1ccc(C[NH+]2CCN(c3ccccc3)CC2)o1

>  <Energy>  (33) 
75.10355833906426

>  <Genealogy>  (33) 
Brc1ccc(C[NH+]2CCN(c3ccccc3)CC2)o1 (protonated)
Brc1ccc(C[NH+]2CCN(c3ccccc3)CC2)o1 (3D coordinates assigned)
Brc1ccc(C[NH+]2CCN(c3ccccc3)CC2)o1 (nonaromatic ring conformer: 75.10355833906426 kcal/mol)

>  <smiles>  (33) 
Brc1ccc(CN2CCN(c3ccccc3)CC2)o1

>  <score_type>  (33) 
oracle

>  <origin>  (33) 
adgpu

>  <m_score__min__energy>  (33) 
-6.3399999999999999

>  <m_primary>  (33) 
energy

$$$$
33:0
     RDKit          3D

 28 29  0  0  0  0  0  0  0  0999 V2000
   -2.7980   24.4840  -29.3490 C   0  0  0  0  0  0  0  0  0  0  0  0
   -3.5940   24.8600  -30.4670 O   0  0  0  0  0  0  0  0  0  0  0  0
   -4.8080   24.2480  -30.8160 C   0  0  0  0  0  0  0  0  0  0  0  0
   -6.0540   24.7930  -30.4650 C   0  0  0  0  0  0  0  0  0  0  0  0
   -7.2340   24.1450  -30.8320 C   0  0  0  0  0  0  0  0  0  0  0  0
   -7.1970   22.9390  -31.5580 C   0  0  0  0  0  0  0  0  0  0  0  0
   -8.3740   22.2540  -31.9000 O   0  0  0  0  0  0  0  0  0  0  0  0
   -9.1810   21.5210  -30.9830 C   0  0  0  0  0  0  0  0  0  0  0  0
   -5.9460   22.3970  -31.9300 C   0  0  0  0  0  0  0  0  0  0  0  0
   -5.8490   21.1410  -32.7160 C   0  0  0  0  0  0  0  0  0  0  0  0
   -4.7020   20.3980  -32.9340 C   0  0  0  0  0  0  0  0  0  0  0  0
   -5.0700   19.3400  -33.7410 C   0  0  0  0  0  0  0  0  0  0  0  0
   -6.3830   19.4130  -34.0270 N   0  0  0  0  0  0  0  0  0  0  0  0
   -6.8650   20.5070  -33.4120 C   0  0  0  0  0  0  0  0  0  0  0  0
   -4.7650   23.0550  -31.5420 C   0  0  0  0  0  0  0  0  0  0  0  0
   -3.3296   24.7351  -28.4193 H   0  0  0  0  0  0  0  0  0  0  0  0
   -2.6081   23.4010  -29.3817 H   0  0  0  0  0  0  0  0  0  0  0  0
   -1.8409   25.0252  -29.3817 H   0  0  0  0  0  0  0  0  0  0  0  0
   -6.0998   25.7347  -29.8984 H   0  0  0  0  0  0  0  0  0  0  0  0
   -8.2040   24.5811  -30.5511 H   0  0  0  0  0  0  0  0  0  0  0  0
   -8.8945   21.7812  -29.9533 H   0  0  0  0  0  0  0  0  0  0  0  0
  -10.2397   21.7727  -31.1438 H   0  0  0  0  0  0  0  0  0  0  0  0
   -9.0319   20.4431  -31.1438 H   0  0  0  0  0  0  0  0  0  0  0  0
   -3.6961   20.6087  -32.5419 H   0  0  0  0  0  0  0  0  0  0  0  0
   -4.3897   18.5527  -34.0979 H   0  0  0  0  0  0  0  0  0  0  0  0
   -6.9220   18.7510  -34.6260 H   0  0  0  0  0  0  0  0  0  0  0  0
   -7.9100   20.8477  -33.4551 H   0  0  0  0  0  0  0  0  0  0  0  0
   -3.7909   22.6230  -31.8148 H   0  0  0  0  0  0  0  0  0  0  0  0
  1  2  1  0
  2  3  1  0
  3  4  2  0
  4  5  1  0
  5  6  2  0
  6  7  1  0
  7  8  1  0
  6  9  1  0
  9 10  1  0
 10 11  1  0
 11 12  2  0
 12 13  1  0
 13 14  1  0
  9 15  2  0
 15  3  1  0
 14 10  2  0
  1 16  1  0
  1 17  1  0
  1 18  1  0
  4 19  1  0
  5 20  1  0
  8 21  1  0
  8 22  1  0
  8 23  1  0
 11 24  1  0
 12 25  1  0
 13 26  1  0
 14 27  1  0
 15 28  1  0
M  END
>  <UniqueID>  (34) 
31

>  <SMILES>  (34) 
COc1ccc(OC)c(-c2cc[nH]c2)c1

>  <Energy>  (34) 
56.842260689832216

>  <Genealogy>  (34) 
COc1ccc(OC)c(-c2cc[nH]c2)c1 (3D coordinates assigned)
COc1ccc(OC)c(-c2cc[nH]c2)c1 (optimized conformer: 56.842260689832216 kcal/mol)

>  <smiles>  (34) 
COc1ccc(OC)c(-c2cc[nH]c2)c1

>  <score_type>  (34) 
oracle

>  <origin>  (34) 
adgpu

>  <m_score__min__energy>  (34) 
-5.8700000000000001

>  <m_primary>  (34) 
energy

$$$$
34:0
     RDKit          3D

 34 36  0  0  0  0  0  0  0  0999 V2000
   -8.0889   17.2519  -32.4280 H   0  0  0  0  0  0  0  0  0  0  0  0
   -8.1770   18.3450  -32.3420 C   0  0  0  0  0  0  0  0  0  0  0  0
   -9.4030   18.9280  -32.3410 N   0  0  0  0  0  0  0  0  0  0  0  0
   -9.5310   20.2760  -32.2370 C   0  0  0  0  0  0  0  0  0  0  0  0
  -10.5306   20.7352  -32.2388 H   0  0  0  0  0  0  0  0  0  0  0  0
   -8.3960   21.0780  -32.1280 C   0  0  0  0  0  0  0  0  0  0  0  0
   -8.4883   22.1713  -32.0489 H   0  0  0  0  0  0  0  0  0  0  0  0
   -7.1330   20.4650  -32.1210 C   0  0  0  0  0  0  0  0  0  0  0  0
   -5.8760   21.2510  -32.0150 C   0  0  0  0  0  0  0  0  0  0  0  0
   -5.8720   22.5360  -31.4450 C   0  0  0  0  0  0  0  0  0  0  0  0
   -6.8086   22.9763  -31.0723 H   0  0  0  0  0  0  0  0  0  0  0  0
   -4.6680   23.2580  -31.3520 C   0  0  0  0  0  0  0  0  0  0  0  0
   -4.6050   24.4520  -30.8330 N   0  0  0  0  0  0  0  0  0  0  0  0
   -5.7240   25.2160  -30.2880 C   0  0  0  0  0  0  0  0  0  0  0  0
   -5.6853   25.1896  -29.1890 H   0  0  0  0  0  0  0  0  0  0  0  0
   -5.6583   26.2587  -30.6323 H   0  0  0  0  0  0  0  0  0  0  0  0
   -6.6712   24.7752  -30.6323 H   0  0  0  0  0  0  0  0  0  0  0  0
   -3.4900   22.6720  -31.8250 C   0  0  0  0  0  0  0  0  0  0  0  0
   -2.5400   23.2231  -31.7641 H   0  0  0  0  0  0  0  0  0  0  0  0
   -3.5170   21.3830  -32.3770 C   0  0  0  0  0  0  0  0  0  0  0  0
   -2.2640   20.7530  -32.8670 C   0  0  0  0  0  0  0  0  0  0  0  0
   -1.0130   21.2380  -32.4430 C   0  0  0  0  0  0  0  0  0  0  0  0
   -0.9643   22.0883  -31.7469 H   0  0  0  0  0  0  0  0  0  0  0  0
    0.1680   20.6470  -32.9000 C   0  0  0  0  0  0  0  0  0  0  0  0
    1.1413   21.0342  -32.5641 H   0  0  0  0  0  0  0  0  0  0  0  0
    0.1150   19.5650  -33.7830 C   0  0  0  0  0  0  0  0  0  0  0  0
    1.5990   18.8240  -34.3560 Cl  0  0  0  0  0  0  0  0  0  0  0  0
   -1.1230   19.0750  -34.2110 C   0  0  0  0  0  0  0  0  0  0  0  0
   -1.1655   18.2247  -34.9075 H   0  0  0  0  0  0  0  0  0  0  0  0
   -2.3060   19.6630  -33.7560 C   0  0  0  0  0  0  0  0  0  0  0  0
   -3.2764   19.2713  -34.0949 H   0  0  0  0  0  0  0  0  0  0  0  0
   -4.7020   20.7080  -32.4540 N   0  0  0  0  0  0  0  0  0  0  0  0
   -4.7160   19.7610  -32.8950 H   0  0  0  0  0  0  0  0  0  0  0  0
   -7.0590   19.1090  -32.2370 N   0  0  0  0  0  0  0  0  0  0  0  0
  1  2  1  0
  2  3  2  0
  3  4  1  0
  4  5  1  0
  4  6  2  0
  6  7  1  0
  6  8  1  0
  8  9  1  0
  9 10  2  0
 10 11  1  0
 10 12  1  0
 12 13  2  0
 13 14  1  0
 14 15  1  0
 14 16  1  0
 14 17  1  0
 12 18  1  0
 18 19  1  0
 18 20  2  0
 20 21  1  0
 21 22  2  0
 22 23  1  0
 22 24  1  0
 24 25  1  0
 24 26  2  0
 26 27  1  0
 26 28  1  0
 28 29  1  0
 28 30  2  0
 30 31  1  0
 20 32  1  0
 32 33  1  0
  8 34  2  0
 34  2  1  0
 32  9  1  0
 30 21  1  0
M  END
>  <UniqueID>  (35) 
32

>  <SMILES>  (35) 
C/N=c1/cc(-c2ccc(Cl)cc2)[nH]c(-c2ccncn2)c1

>  <Energy>  (35) 
47.915999177716884

>  <Genealogy>  (35) 
C/N=c1/cc(-c2ccc(Cl)cc2)[nH]c(-c2ccncn2)c1 (cis-trans isomerization)
C/N=c1/cc(-c2ccc(Cl)cc2)[nH]c(-c2ccncn2)c1 (3D coordinates assigned)
C/N=c1/cc(-c2ccc(Cl)cc2)[nH]c(-c2ccncn2)c1 (optimized conformer: 47.915999177716884 kcal/mol)

>  <smiles>  (35) 
CN=c1cc(-c2ccc(Cl)cc2)[nH]c(-c2ccncn2)c1

>  <score_type>  (35) 
oracle

>  <origin>  (35) 
adgpu

>  <m_score__min__energy>  (35) 
-7.1699999999999999

>  <m_primary>  (35) 
energy

$$$$
35:0
     RDKit          3D

 35 37  0  0  0  0  0  0  0  0999 V2000
   -3.5580   21.9230  -28.1770 C   0  0  0  0  0  0  0  0  0  0  0  0
   -3.8960   21.9540  -29.6620 C   0  0  0  0  0  0  0  0  0  0  0  0
   -4.3180   23.3010  -30.0620 N   0  0  0  0  0  0  0  0  0  0  0  0
   -5.3700   23.6590  -30.8420 C   0  0  0  0  0  0  0  0  0  0  0  0
   -6.4280   22.7530  -31.3240 C   0  0  0  0  0  0  0  0  0  0  0  0
   -7.7780   23.1160  -31.2320 C   0  0  0  0  0  0  0  0  0  0  0  0
   -8.7710   22.2540  -31.7030 C   0  0  0  0  0  0  0  0  0  0  0  0
   -8.4230   21.0300  -32.2800 C   0  0  0  0  0  0  0  0  0  0  0  0
   -7.0720   20.6590  -32.4020 C   0  0  0  0  0  0  0  0  0  0  0  0
   -6.7000   19.3620  -33.0240 C   0  0  0  0  0  0  0  0  0  0  0  0
   -7.1820   18.1500  -32.4940 C   0  0  0  0  0  0  0  0  0  0  0  0
   -6.8280   16.9300  -33.0820 C   0  0  0  0  0  0  0  0  0  0  0  0
   -5.9950   16.9080  -34.2020 C   0  0  0  0  0  0  0  0  0  0  0  0
   -5.5120   18.1030  -34.7370 C   0  0  0  0  0  0  0  0  0  0  0  0
   -5.8600   19.3250  -34.1540 C   0  0  0  0  0  0  0  0  0  0  0  0
   -6.0790   21.5340  -31.9250 C   0  0  0  0  0  0  0  0  0  0  0  0
   -5.3040   24.9590  -31.2000 N   0  0  0  0  0  0  0  0  0  0  0  0
   -4.2070   25.4450  -30.6410 N   0  0  0  0  0  0  0  0  0  0  0  0
   -3.6100   24.4480  -29.9690 C   0  0  0  0  0  0  0  0  0  0  0  0
   -2.1630   24.6060  -29.2140 S   0  0  0  0  0  0  0  0  0  0  0  0
   -4.4834   22.0079  -27.5885 H   0  0  0  0  0  0  0  0  0  0  0  0
   -3.0553   20.9750  -27.9351 H   0  0  0  0  0  0  0  0  0  0  0  0
   -2.8912   22.7638  -27.9351 H   0  0  0  0  0  0  0  0  0  0  0  0
   -3.0072   21.6653  -30.2422 H   0  0  0  0  0  0  0  0  0  0  0  0
   -4.7186   21.2499  -29.8557 H   0  0  0  0  0  0  0  0  0  0  0  0
   -8.0568   24.0828  -30.7875 H   0  0  0  0  0  0  0  0  0  0  0  0
   -9.8300   22.5396  -31.6194 H   0  0  0  0  0  0  0  0  0  0  0  0
   -9.2107   20.3523  -32.6411 H   0  0  0  0  0  0  0  0  0  0  0  0
   -7.8405   18.1618  -31.6129 H   0  0  0  0  0  0  0  0  0  0  0  0
   -7.2068   15.9871  -32.6608 H   0  0  0  0  0  0  0  0  0  0  0  0
   -5.7192   15.9482  -34.6631 H   0  0  0  0  0  0  0  0  0  0  0  0
   -4.8558   18.0833  -35.6196 H   0  0  0  0  0  0  0  0  0  0  0  0
   -5.4755   20.2633  -34.5803 H   0  0  0  0  0  0  0  0  0  0  0  0
   -5.0183   21.2598  -32.0242 H   0  0  0  0  0  0  0  0  0  0  0  0
   -3.8700   26.4270  -30.7480 H   0  0  0  0  0  0  0  0  0  0  0  0
  1  2  1  0
  2  3  1  0
  3  4  1  0
  4  5  1  0
  5  6  2  0
  6  7  1  0
  7  8  2  0
  8  9  1  0
  9 10  1  0
 10 11  2  0
 11 12  1  0
 12 13  2  0
 13 14  1  0
 14 15  2  0
  9 16  2  0
  4 17  2  0
 17 18  1  0
 18 19  1  0
 19 20  2  0
 19  3  1  0
 16  5  1  0
 15 10  1  0
  1 21  1  0
  1 22  1  0
  1 23  1  0
  2 24  1  0
  2 25  1  0
  6 26  1  0
  7 27  1  0
  8 28  1  0
 11 29  1  0
 12 30  1  0
 13 31  1  0
 14 32  1  0
 15 33  1  0
 16 34  1  0
 18 35  1  0
M  END
>  <UniqueID>  (36) 
33

>  <SMILES>  (36) 
CCn1c(-c2cccc(-c3ccccc3)c2)n[nH]c1=S

>  <Energy>  (36) 
81.56374951250388

>  <Genealogy>  (36) 
CCn1c(-c2cccc(-c3ccccc3)c2)n[nH]c1=S (3D coordinates assigned)
CCn1c(-c2cccc(-c3ccccc3)c2)n[nH]c1=S (optimized conformer: 81.56374951250388 kcal/mol)

>  <smiles>  (36) 
CCn1c(-c2cccc(-c3ccccc3)c2)n[nH]c1=S

>  <score_type>  (36) 
oracle

>  <origin>  (36) 
adgpu

>  <m_score__min__energy>  (36) 
-8.9900000000000002

>  <m_primary>  (36) 
energy

$$$$
36:0
     RDKit          3D

 30 32  0  0  0  0  0  0  0  0999 V2000
   -5.5310   26.4240  -30.4690 O   0  0  0  0  0  0  0  0  0  0  0  0
   -4.9920   25.2990  -30.6470 C   0  0  0  0  0  0  0  0  0  0  0  0
   -3.5750   25.1790  -30.4630 N   0  0  0  0  0  0  0  0  0  0  0  0
   -2.9120   24.5290  -29.3680 C   0  0  0  0  0  0  0  0  0  0  0  0
   -1.6350   24.9310  -28.9320 C   0  0  0  0  0  0  0  0  0  0  0  0
   -1.0240   24.2800  -27.8560 C   0  0  0  0  0  0  0  0  0  0  0  0
   -1.6850   23.2380  -27.1990 C   0  0  0  0  0  0  0  0  0  0  0  0
   -1.0910   22.6100  -26.1550 F   0  0  0  0  0  0  0  0  0  0  0  0
   -2.9630   22.8520  -27.6130 C   0  0  0  0  0  0  0  0  0  0  0  0
   -3.5770   23.5000  -28.6890 C   0  0  0  0  0  0  0  0  0  0  0  0
   -5.8440   24.1380  -31.0020 C   0  0  0  0  0  0  0  0  0  0  0  0
   -7.1910   24.1220  -30.6070 C   0  0  0  0  0  0  0  0  0  0  0  0
   -7.9820   23.1030  -30.9240 O   0  0  0  0  0  0  0  0  0  0  0  0
   -7.5570   22.0520  -31.6160 C   0  0  0  0  0  0  0  0  0  0  0  0
   -8.4470   21.0160  -31.9210 C   0  0  0  0  0  0  0  0  0  0  0  0
   -8.0090   19.9040  -32.6450 C   0  0  0  0  0  0  0  0  0  0  0  0
   -6.6790   19.8200  -33.0660 C   0  0  0  0  0  0  0  0  0  0  0  0
   -5.7790   20.8470  -32.7670 C   0  0  0  0  0  0  0  0  0  0  0  0
   -6.2110   21.9740  -32.0400 C   0  0  0  0  0  0  0  0  0  0  0  0
   -5.3440   23.0310  -31.7130 C   0  0  0  0  0  0  0  0  0  0  0  0
   -4.1240   22.9780  -32.0360 O   0  0  0  0  0  0  0  0  0  0  0  0
   -1.1171   25.7587  -29.4388 H   0  0  0  0  0  0  0  0  0  0  0  0
   -0.0211   24.5884  -27.5257 H   0  0  0  0  0  0  0  0  0  0  0  0
   -3.4865   22.0372  -27.0914 H   0  0  0  0  0  0  0  0  0  0  0  0
   -4.5874   23.2003  -29.0040 H   0  0  0  0  0  0  0  0  0  0  0  0
   -7.5968   24.9643  -30.0274 H   0  0  0  0  0  0  0  0  0  0  0  0
   -9.4942   21.0772  -31.5899 H   0  0  0  0  0  0  0  0  0  0  0  0
   -8.7126   19.0929  -32.8841 H   0  0  0  0  0  0  0  0  0  0  0  0
   -6.3390   18.9421  -33.6350 H   0  0  0  0  0  0  0  0  0  0  0  0
   -4.7329   20.7753  -33.0995 H   0  0  0  0  0  0  0  0  0  0  0  0
  1  2  2  0
  2  3  1  0
  3  4  1  0
  4  5  2  0
  5  6  1  0
  6  7  2  0
  7  8  1  0
  7  9  1  0
  9 10  2  0
  2 11  1  0
 11 12  2  0
 12 13  1  0
 13 14  1  0
 14 15  2  0
 15 16  1  0
 16 17  2  0
 17 18  1  0
 18 19  2  0
 19 20  1  0
 20 21  2  0
 10  4  1  0
 20 11  1  0
 19 14  1  0
  5 22  1  0
  6 23  1  0
  9 24  1  0
 10 25  1  0
 12 26  1  0
 15 27  1  0
 16 28  1  0
 17 29  1  0
 18 30  1  0
M  CHG  1   3  -1
M  END
>  <UniqueID>  (37) 
34

>  <SMILES>  (37) 
O=C([N-]c1ccc(F)cc1)c1coc2ccccc2c1=O

>  <Energy>  (37) 
46.88903999164834

>  <Genealogy>  (37) 
O=C([N-]c1ccc(F)cc1)c1coc2ccccc2c1=O (protonated)
O=C([N-]c1ccc(F)cc1)c1coc2ccccc2c1=O (3D coordinates assigned)
O=C([N-]c1ccc(F)cc1)c1coc2ccccc2c1=O (optimized conformer: 46.88903999164834 kcal/mol)

>  <smiles>  (37) 
O=C(Nc1ccc(F)cc1)c1coc2ccccc2c1=O

>  <score_type>  (37) 
oracle

>  <origin>  (37) 
adgpu

>  <m_score__min__energy>  (37) 
-9.2599999999999998

>  <m_primary>  (37) 
energy

$$$$
37:0
     RDKit          3D

 32 33  0  0  0  0  0  0  0  0999 V2000
   -6.3830   25.6780  -29.4350 C   0  0  0  0  0  0  0  0  0  0  0  0
   -6.0310   24.5350  -30.3290 C   0  0  0  0  0  0  0  0  0  0  0  0
   -6.9110   23.6040  -30.7440 N   0  0  0  0  0  0  0  0  0  0  0  0
   -6.2430   22.7030  -31.4500 N   0  0  0  0  0  0  0  0  0  0  0  0
   -6.8830   21.5590  -32.0900 C   0  0  0  0  0  0  0  0  0  0  0  0
   -4.9310   23.0350  -31.5020 C   0  0  0  0  0  0  0  0  0  0  0  0
   -3.8890   22.2970  -32.2890 C   0  0  0  0  0  0  0  0  0  0  0  0
   -4.7660   24.1960  -30.7630 C   0  0  0  0  0  0  0  0  0  0  0  0
   -3.5710   24.9310  -30.4690 N   0  0  0  0  0  0  0  0  0  0  0  0
   -2.4540   24.5550  -29.1960 S   0  0  0  0  0  0  0  0  0  0  0  0
   -3.1230   24.8110  -27.8760 O   0  0  0  0  0  0  0  0  0  0  0  0
   -1.2440   25.4380  -29.3100 O   0  0  0  0  0  0  0  0  0  0  0  0
   -1.9980   22.8550  -29.2600 C   0  0  0  0  0  0  0  0  0  0  0  0
   -0.9450   22.4390  -30.0900 C   0  0  0  0  0  0  0  0  0  0  0  0
   -0.5780   21.0920  -30.1360 C   0  0  0  0  0  0  0  0  0  0  0  0
   -1.2640   20.1520  -29.3620 C   0  0  0  0  0  0  0  0  0  0  0  0
   -2.3220   20.5580  -28.5440 C   0  0  0  0  0  0  0  0  0  0  0  0
   -2.6920   21.9050  -28.4940 C   0  0  0  0  0  0  0  0  0  0  0  0
   -6.2867   25.3652  -28.3848 H   0  0  0  0  0  0  0  0  0  0  0  0
   -5.7025   26.5197  -29.6308 H   0  0  0  0  0  0  0  0  0  0  0  0
   -7.4192   25.9910  -29.6308 H   0  0  0  0  0  0  0  0  0  0  0  0
   -7.2660   20.8744  -31.3189 H   0  0  0  0  0  0  0  0  0  0  0  0
   -7.7166   21.9085  -32.7168 H   0  0  0  0  0  0  0  0  0  0  0  0
   -6.1490   21.0315  -32.7168 H   0  0  0  0  0  0  0  0  0  0  0  0
   -3.1902   21.8021  -31.5985 H   0  0  0  0  0  0  0  0  0  0  0  0
   -4.3754   21.5409  -32.9228 H   0  0  0  0  0  0  0  0  0  0  0  0
   -3.3372   23.0068  -32.9228 H   0  0  0  0  0  0  0  0  0  0  0  0
   -0.4077   23.1755  -30.7055 H   0  0  0  0  0  0  0  0  0  0  0  0
    0.2521   20.7707  -30.7823 H   0  0  0  0  0  0  0  0  0  0  0  0
   -0.9711   19.0923  -29.3966 H   0  0  0  0  0  0  0  0  0  0  0  0
   -2.8642   19.8166  -27.9388 H   0  0  0  0  0  0  0  0  0  0  0  0
   -3.5284   22.2212  -27.8533 H   0  0  0  0  0  0  0  0  0  0  0  0
  1  2  1  0
  2  3  2  0
  3  4  1  0
  4  5  1  0
  4  6  1  0
  6  7  1  0
  6  8  2  0
  8  9  1  0
  9 10  1  0
 10 11  2  0
 10 12  2  0
 10 13  1  0
 13 14  2  0
 14 15  1  0
 15 16  2  0
 16 17  1  0
 17 18  2  0
  8  2  1  0
 18 13  1  0
  1 19  1  0
  1 20  1  0
  1 21  1  0
  5 22  1  0
  5 23  1  0
  5 24  1  0
  7 25  1  0
  7 26  1  0
  7 27  1  0
 14 28  1  0
 15 29  1  0
 16 30  1  0
 17 31  1  0
 18 32  1  0
M  CHG  1   9  -1
M  END
>  <UniqueID>  (38) 
35

>  <SMILES>  (38) 
Cc1nn(C)c(C)c1[N-]S(=O)(=O)c1ccccc1

>  <Energy>  (38) 
66.86979502492997

>  <Genealogy>  (38) 
Cc1nn(C)c(C)c1[N-]S(=O)(=O)c1ccccc1 (protonated)
Cc1nn(C)c(C)c1[N-]S(=O)(=O)c1ccccc1 (3D coordinates assigned)
Cc1nn(C)c(C)c1[N-]S(=O)(=O)c1ccccc1 (optimized conformer: 66.86979502492997 kcal/mol)

>  <smiles>  (38) 
Cc1nn(C)c(C)c1NS(=O)(=O)c1ccccc1

>  <score_type>  (38) 
oracle

>  <origin>  (38) 
adgpu

>  <m_score__min__energy>  (38) 
-8

>  <m_primary>  (38) 
energy

$$$$
38:0
     RDKit          3D

 19 19  0  0  0  0  0  0  0  0999 V2000
   -7.2620   23.3680  -31.5660 C   0  0  0  0  0  0  0  0  0  0  0  0
   -6.2860   23.8010  -30.4720 C   0  0  0  0  0  0  0  0  0  0  0  0
   -5.0900   22.8480  -30.3460 C   0  0  0  0  0  0  0  0  0  0  0  0
   -3.9330   23.4990  -29.6520 C   0  0  0  0  0  0  0  0  0  0  0  0
   -3.2190   22.9220  -28.7040 O   0  0  0  0  0  0  0  0  0  0  0  0
   -2.2720   23.7570  -28.3330 C   0  0  0  0  0  0  0  0  0  0  0  0
   -1.3310   23.4770  -27.3480 O   0  0  0  0  0  0  0  0  0  0  0  0
   -2.3590   24.9240  -29.0620 C   0  0  0  0  0  0  0  0  0  0  0  0
   -1.5370   26.0390  -28.9610 O   0  0  0  0  0  0  0  0  0  0  0  0
   -3.4240   24.7580  -29.9100 C   0  0  0  0  0  0  0  0  0  0  0  0
   -3.8920   25.6740  -30.8440 O   0  0  0  0  0  0  0  0  0  0  0  0
   -8.1745   22.9632  -31.1040 H   0  0  0  0  0  0  0  0  0  0  0  0
   -7.5211   24.2356  -32.1906 H   0  0  0  0  0  0  0  0  0  0  0  0
   -6.7927   22.5937  -32.1906 H   0  0  0  0  0  0  0  0  0  0  0  0
   -5.9122   24.8078  -30.7101 H   0  0  0  0  0  0  0  0  0  0  0  0
   -6.8276   23.7887  -29.5146 H   0  0  0  0  0  0  0  0  0  0  0  0
   -5.3987   21.9629  -29.7704 H   0  0  0  0  0  0  0  0  0  0  0  0
   -4.7676   22.5668  -31.3594 H   0  0  0  0  0  0  0  0  0  0  0  0
   -0.6390   24.1650  -27.0770 H   0  0  0  0  0  0  0  0  0  0  0  0
  1  2  1  0
  2  3  1  0
  3  4  1  0
  4  5  1  0
  5  6  1  0
  6  7  1  0
  6  8  2  0
  8  9  1  0
  8 10  1  0
 10 11  1  0
 10  4  2  0
  1 12  1  0
  1 13  1  0
  1 14  1  0
  2 15  1  0
  2 16  1  0
  3 17  1  0
  3 18  1  0
  7 19  1  0
M  CHG  2   9  -1  11  -1
M  END
>  <UniqueID>  (39) 
36

>  <SMILES>  (39) 
CCCc1oc(O)c([O-])c1[O-]

>  <Energy>  (39) 
42.24444928410257

>  <Genealogy>  (39) 
CCCc1oc(O)c([O-])c1[O-] (protonated)
CCCc1oc(O)c([O-])c1[O-] (3D coordinates assigned)
CCCc1oc(O)c([O-])c1[O-] (optimized conformer: 42.24444928410257 kcal/mol)

>  <smiles>  (39) 
CCCc1oc(O)c(O)c1O

>  <score_type>  (39) 
oracle

>  <origin>  (39) 
adgpu

>  <m_score__min__energy>  (39) 
-9.1999999999999993

>  <m_primary>  (39) 
energy

$$$$
39:0
     RDKit          3D

 30 32  0  0  0  0  0  0  0  0999 V2000
   -4.6590   18.9200  -34.1830 O   0  0  0  0  0  0  0  0  0  0  0  0
   -5.3910   19.7110  -33.5310 C   0  0  0  0  0  0  0  0  0  0  0  0
   -4.8290   20.8330  -32.9170 C   0  0  0  0  0  0  0  0  0  0  0  0
   -5.6530   21.7070  -32.2010 C   0  0  0  0  0  0  0  0  0  0  0  0
   -5.0920   22.8770  -31.5860 N   0  0  0  0  0  0  0  0  0  0  0  0
   -3.6960   22.8640  -31.1460 C   0  0  0  0  0  0  0  0  0  0  0  0
   -3.4970   23.9100  -30.0460 C   0  0  0  0  0  0  0  0  0  0  0  0
   -3.9730   25.1760  -30.4650 O   0  0  0  0  0  0  0  0  0  0  0  0
   -5.3750   25.1240  -30.6580 C   0  0  0  0  0  0  0  0  0  0  0  0
   -5.7310   24.1750  -31.8070 C   0  0  0  0  0  0  0  0  0  0  0  0
   -7.0300   21.4240  -32.1090 C   0  0  0  0  0  0  0  0  0  0  0  0
   -7.9200   22.2370  -31.3820 C   0  0  0  0  0  0  0  0  0  0  0  0
   -9.2780   21.9090  -31.3220 C   0  0  0  0  0  0  0  0  0  0  0  0
   -9.7580   20.7730  -31.9780 C   0  0  0  0  0  0  0  0  0  0  0  0
   -8.8830   19.9520  -32.6930 C   0  0  0  0  0  0  0  0  0  0  0  0
   -7.5200   20.2670  -32.7600 C   0  0  0  0  0  0  0  0  0  0  0  0
   -6.6940   19.4720  -33.4340 O   0  0  0  0  0  0  0  0  0  0  0  0
   -3.7491   21.0270  -32.9960 H   0  0  0  0  0  0  0  0  0  0  0  0
   -3.4445   21.8675  -30.7540 H   0  0  0  0  0  0  0  0  0  0  0  0
   -3.0412   23.0993  -31.9980 H   0  0  0  0  0  0  0  0  0  0  0  0
   -4.0477   23.5971  -29.1467 H   0  0  0  0  0  0  0  0  0  0  0  0
   -2.4221   23.9919  -29.8271 H   0  0  0  0  0  0  0  0  0  0  0  0
   -5.8533   24.7670  -29.7340 H   0  0  0  0  0  0  0  0  0  0  0  0
   -5.7340   26.1328  -30.9097 H   0  0  0  0  0  0  0  0  0  0  0  0
   -6.8223   24.0436  -31.8488 H   0  0  0  0  0  0  0  0  0  0  0  0
   -5.3753   24.6009  -32.7568 H   0  0  0  0  0  0  0  0  0  0  0  0
   -7.5469   23.1309  -30.8607 H   0  0  0  0  0  0  0  0  0  0  0  0
   -9.9713   22.5483  -30.7558 H   0  0  0  0  0  0  0  0  0  0  0  0
  -10.8285   20.5242  -31.9313 H   0  0  0  0  0  0  0  0  0  0  0  0
   -9.2652   19.0563  -33.2045 H   0  0  0  0  0  0  0  0  0  0  0  0
  1  2  2  0
  2  3  1  0
  3  4  2  0
  4  5  1  0
  5  6  1  0
  6  7  1  0
  7  8  1  0
  8  9  1  0
  9 10  1  0
  4 11  1  0
 11 12  2  0
 12 13  1  0
 13 14  2  0
 14 15  1  0
 15 16  2  0
 16 17  1  0
 17  2  1  0
 10  5  1  0
 16 11  1  0
  3 18  1  0
  6 19  1  0
  6 20  1  0
  7 21  1  0
  7 22  1  0
  9 23  1  0
  9 24  1  0
 10 25  1  0
 10 26  1  0
 12 27  1  0
 13 28  1  0
 14 29  1  0
 15 30  1  0
M  END
>  <UniqueID>  (40) 
37

>  <SMILES>  (40) 
O=c1cc(N2CCOCC2)c2ccccc2o1

>  <Energy>  (40) 
42.253605405698416

>  <Genealogy>  (40) 
O=c1cc(N2CCOCC2)c2ccccc2o1 (3D coordinates assigned)
O=c1cc(N2CCOCC2)c2ccccc2o1 (nonaromatic ring conformer: 42.253605405698416 kcal/mol)

>  <smiles>  (40) 
O=c1cc(N2CCOCC2)c2ccccc2o1

>  <score_type>  (40) 
oracle

>  <origin>  (40) 
adgpu

>  <m_score__min__energy>  (40) 
-7.3899999999999997

>  <m_primary>  (40) 
energy

$$$$
40:0
     RDKit          3D

 32 34  0  0  1  0  0  0  0  0999 V2000
   -9.3550   17.9250  -31.3230 O   0  0  0  0  0  0  0  0  0  0  0  0
   -8.8020   18.7090  -32.1650 C   0  0  0  0  0  0  0  0  0  0  0  0
   -9.4810   19.9520  -32.4140 N   0  0  0  0  0  0  0  0  0  0  0  0
   -8.9190   21.0720  -32.1160 C   0  0  0  0  0  0  0  0  0  0  0  0
   -7.7130   21.3090  -31.5660 N   0  0  0  0  0  0  0  0  0  0  0  0
   -7.5620   22.6560  -31.4610 C   0  0  0  0  0  0  0  0  0  0  0  0
   -6.4160   23.3820  -30.9310 C   0  0  0  0  0  0  0  0  0  0  0  0
   -5.1520   22.8810  -31.2180 C   0  0  0  0  0  0  0  0  0  0  0  0
   -4.0120   23.5060  -30.7630 C   0  0  0  0  0  0  0  0  0  0  0  0
   -4.1530   24.6590  -30.0020 C   0  0  0  0  0  0  0  0  0  0  0  0
   -3.0350   25.2970  -29.5370 F   0  0  0  0  0  0  0  0  0  0  0  0
   -5.4230   25.1510  -29.7220 C   0  0  0  0  0  0  0  0  0  0  0  0
   -6.5760   24.5430  -30.1660 C   0  0  0  0  0  0  0  0  0  0  0  0
   -8.6710   23.2230  -31.9450 N   0  0  0  0  0  0  0  0  0  0  0  0
   -9.4940   22.2650  -32.3420 N   0  0  0  0  0  0  0  0  0  0  0  0
   -7.5550   18.3620  -32.8290 C   0  0  0  0  0  0  0  0  0  0  0  0
   -6.8760   19.3600  -33.4810 C   0  0  0  0  0  0  0  0  0  0  0  0
   -5.6900   18.9930  -34.1140 C   0  0  0  0  0  0  0  0  0  0  0  0
   -5.2400   17.6900  -34.0710 C   0  0  0  0  0  0  0  0  0  0  0  0
   -5.9750   16.7190  -33.3910 C   0  0  0  0  0  0  0  0  0  0  0  0
   -7.1420   17.0590  -32.7630 C   0  0  0  0  0  0  0  0  0  0  0  0
   -5.0599   21.9659  -31.8214 H   0  0  0  0  0  0  0  0  0  0  0  0
   -3.0157   23.1023  -30.9964 H   0  0  0  0  0  0  0  0  0  0  0  0
   -5.5106   26.0668  -29.1189 H   0  0  0  0  0  0  0  0  0  0  0  0
   -7.5712   24.9488  -29.9316 H   0  0  0  0  0  0  0  0  0  0  0  0
   -8.9000   24.2240  -32.0190 H   0  0  0  0  0  0  0  0  0  0  0  0
  -10.4430   22.4290  -32.7640 H   0  0  0  0  0  0  0  0  0  0  0  0
   -7.2480   20.3950  -33.5029 H   0  0  0  0  0  0  0  0  0  0  0  0
   -5.1055   19.7520  -34.6547 H   0  0  0  0  0  0  0  0  0  0  0  0
   -4.3005   17.4163  -34.5735 H   0  0  0  0  0  0  0  0  0  0  0  0
   -5.6163   15.6796  -33.3596 H   0  0  0  0  0  0  0  0  0  0  0  0
   -7.7319   16.3059  -32.2201 H   0  0  0  0  0  0  0  0  0  0  0  0
  1  2  2  0
  2  3  1  0
  3  4  2  0
  4  5  1  0
  5  6  2  0
  6  7  1  0
  7  8  2  0
  8  9  1  0
  9 10  2  0
 10 11  1  0
 10 12  1  0
 12 13  2  0
  6 14  1  0
 14 15  1  0
  2 16  1  0
 16 17  2  0
 17 18  1  0
 18 19  2  0
 19 20  1  0
 20 21  2  0
 15  4  1  0
 21 16  1  0
 13  7  1  0
  8 22  1  0
  9 23  1  0
 12 24  1  0
 13 25  1  0
 14 26  1  0
 15 27  1  0
 17 28  1  0
 18 29  1  0
 19 30  1  0
 20 31  1  0
 21 32  1  0
M  END
>  <smiles>  (41) 
O=C(N=c1nc(-c2ccc(F)cc2)[nH][nH]1)c1ccccc1

>  <score_type>  (41) 
oracle

>  <origin>  (41) 
adgpu

>  <m_score__min__energy>  (41) 
-7.9400000000000004

>  <m_primary>  (41) 
energy

$$$$
41:0
     RDKit          3D

 35 37  0  0  0  0  0  0  0  0999 V2000
   -3.1900   23.5880  -28.3510 O   0  0  0  0  0  0  0  0  0  0  0  0
   -2.9290   24.4740  -29.2090 C   0  0  0  0  0  0  0  0  0  0  0  0
   -3.4920   24.3960  -30.5240 N   0  0  0  0  0  0  0  0  0  0  0  0
   -4.8000   23.9110  -30.8640 C   0  0  0  0  0  0  0  0  0  0  0  0
   -5.9570   24.6090  -30.4660 C   0  0  0  0  0  0  0  0  0  0  0  0
   -7.2210   24.1720  -30.8660 C   0  0  0  0  0  0  0  0  0  0  0  0
   -7.3470   23.0480  -31.6800 C   0  0  0  0  0  0  0  0  0  0  0  0
   -6.2090   22.3570  -32.1010 C   0  0  0  0  0  0  0  0  0  0  0  0
   -4.9280   22.7760  -31.6980 C   0  0  0  0  0  0  0  0  0  0  0  0
   -3.7720   22.0400  -32.1370 N   0  0  0  0  0  0  0  0  0  0  0  0
   -2.7110   21.7000  -31.3760 C   0  0  0  0  0  0  0  0  0  0  0  0
   -1.7760   21.0360  -32.1450 C   0  0  0  0  0  0  0  0  0  0  0  0
   -2.2860   20.9820  -33.4260 C   0  0  0  0  0  0  0  0  0  0  0  0
   -3.5120   21.6120  -33.3900 C   0  0  0  0  0  0  0  0  0  0  0  0
   -1.9920   25.5170  -28.9130 N   0  0  0  0  0  0  0  0  0  0  0  0
   -1.4960   25.8120  -27.5960 C   0  0  0  0  0  0  0  0  0  0  0  0
   -0.1980   26.3260  -27.4470 C   0  0  0  0  0  0  0  0  0  0  0  0
    0.2990   26.6400  -26.1800 C   0  0  0  0  0  0  0  0  0  0  0  0
   -0.5010   26.4590  -25.0480 C   0  0  0  0  0  0  0  0  0  0  0  0
    0.1220   26.8560  -23.4570 Cl  0  0  0  0  0  0  0  0  0  0  0  0
   -1.8040   25.9690  -25.1870 C   0  0  0  0  0  0  0  0  0  0  0  0
   -2.3040   25.6520  -26.4530 C   0  0  0  0  0  0  0  0  0  0  0  0
   -5.8638   25.5053  -29.8352 H   0  0  0  0  0  0  0  0  0  0  0  0
   -8.1191   24.7159  -30.5381 H   0  0  0  0  0  0  0  0  0  0  0  0
   -8.3445   22.7045  -31.9914 H   0  0  0  0  0  0  0  0  0  0  0  0
   -6.3151   21.4776  -32.7533 H   0  0  0  0  0  0  0  0  0  0  0  0
   -2.6065   21.9191  -30.3031 H   0  0  0  0  0  0  0  0  0  0  0  0
   -0.8127   20.6295  -31.8032 H   0  0  0  0  0  0  0  0  0  0  0  0
   -1.8076   20.5252  -34.3049 H   0  0  0  0  0  0  0  0  0  0  0  0
   -4.1790   21.7458  -34.2544 H   0  0  0  0  0  0  0  0  0  0  0  0
   -1.5870   26.0430  -29.7210 H   0  0  0  0  0  0  0  0  0  0  0  0
    0.4323   26.4826  -28.3348 H   0  0  0  0  0  0  0  0  0  0  0  0
    1.3218   27.0304  -26.0727 H   0  0  0  0  0  0  0  0  0  0  0  0
   -2.4367   25.8329  -24.2975 H   0  0  0  0  0  0  0  0  0  0  0  0
   -3.3325   25.2761  -26.5574 H   0  0  0  0  0  0  0  0  0  0  0  0
  1  2  2  0
  2  3  1  0
  3  4  1  0
  4  5  2  0
  5  6  1  0
  6  7  2  0
  7  8  1  0
  8  9  2  0
  9 10  1  0
 10 11  1  0
 11 12  2  0
 12 13  1  0
 13 14  2  0
  2 15  1  0
 15 16  1  0
 16 17  2  0
 17 18  1  0
 18 19  2  0
 19 20  1  0
 19 21  1  0
 21 22  2  0
  9  4  1  0
 14 10  1  0
 22 16  1  0
  5 23  1  0
  6 24  1  0
  7 25  1  0
  8 26  1  0
 11 27  1  0
 12 28  1  0
 13 29  1  0
 14 30  1  0
 15 31  1  0
 17 32  1  0
 18 33  1  0
 21 34  1  0
 22 35  1  0
M  CHG  1   3  -1
M  END
>  <UniqueID>  (42) 
38

>  <SMILES>  (42) 
O=C([N-]c1ccccc1-n1cccc1)Nc1ccc(Cl)cc1

>  <Energy>  (42) 
75.05344765893155

>  <Genealogy>  (42) 
O=C([N-]c1ccccc1-n1cccc1)Nc1ccc(Cl)cc1 (protonated)
O=C([N-]c1ccccc1-n1cccc1)Nc1ccc(Cl)cc1 (3D coordinates assigned)
O=C([N-]c1ccccc1-n1cccc1)Nc1ccc(Cl)cc1 (optimized conformer: 75.05344765893155 kcal/mol)

>  <smiles>  (42) 
O=C(Nc1ccc(Cl)cc1)Nc1ccccc1-n1cccc1

>  <score_type>  (42) 
oracle

>  <origin>  (42) 
adgpu

>  <m_score__min__energy>  (42) 
-9.2699999999999996

>  <m_primary>  (42) 
energy

$$$$
42:0
     RDKit          3D

 41 43  0  0  0  0  0  0  0  0999 V2000
   -5.2140   19.1980  -34.6430 O   0  0  0  0  0  0  0  0  0  0  0  0
   -5.3040   19.3920  -33.4000 C   0  0  0  0  0  0  0  0  0  0  0  0
   -4.1140   19.5730  -32.6150 N   0  0  0  0  0  0  0  0  0  0  0  0
   -2.8270   19.8950  -33.1680 C   0  0  0  0  0  0  0  0  0  0  0  0
   -2.3090   21.1880  -33.0050 C   0  0  0  0  0  0  0  0  0  0  0  0
   -1.0690   21.5320  -33.5510 C   0  0  0  0  0  0  0  0  0  0  0  0
   -0.3380   20.5890  -34.2840 C   0  0  0  0  0  0  0  0  0  0  0  0
    1.2240   21.0120  -34.9720 S   0  0  0  0  0  0  0  0  0  0  0  0
    1.3950   22.5040  -34.9520 O   0  0  0  0  0  0  0  0  0  0  0  0
    2.3200   20.3660  -34.1730 O   0  0  0  0  0  0  0  0  0  0  0  0
    1.3220   20.4680  -36.5540 F   0  0  0  0  0  0  0  0  0  0  0  0
   -0.8580   19.3010  -34.4690 C   0  0  0  0  0  0  0  0  0  0  0  0
   -2.0970   18.9570  -33.9220 C   0  0  0  0  0  0  0  0  0  0  0  0
   -6.6380   19.4130  -32.7510 C   0  0  0  0  0  0  0  0  0  0  0  0
   -7.3150   18.1980  -32.5430 C   0  0  0  0  0  0  0  0  0  0  0  0
   -8.5510   18.1740  -31.8930 C   0  0  0  0  0  0  0  0  0  0  0  0
   -9.1300   19.3610  -31.4470 C   0  0  0  0  0  0  0  0  0  0  0  0
   -8.4760   20.5770  -31.6500 C   0  0  0  0  0  0  0  0  0  0  0  0
   -7.2250   20.6190  -32.2920 C   0  0  0  0  0  0  0  0  0  0  0  0
   -6.6100   21.8900  -32.5630 N   0  0  0  0  0  0  0  0  0  0  0  0
   -5.6900   22.5430  -31.6700 C   0  0  0  0  0  0  0  0  0  0  0  0
   -4.7990   21.7700  -30.9100 C   0  0  0  0  0  0  0  0  0  0  0  0
   -3.9110   22.3820  -30.0210 C   0  0  0  0  0  0  0  0  0  0  0  0
   -3.9130   23.7720  -29.8740 C   0  0  0  0  0  0  0  0  0  0  0  0
   -2.7990   24.5400  -28.7560 Cl  0  0  0  0  0  0  0  0  0  0  0  0
   -4.8090   24.5500  -30.6120 C   0  0  0  0  0  0  0  0  0  0  0  0
   -5.6980   23.9410  -31.5030 C   0  0  0  0  0  0  0  0  0  0  0  0
   -4.1670   19.3600  -31.5920 H   0  0  0  0  0  0  0  0  0  0  0  0
   -2.8837   21.9384  -32.4423 H   0  0  0  0  0  0  0  0  0  0  0  0
   -0.6667   22.5453  -33.4046 H   0  0  0  0  0  0  0  0  0  0  0  0
   -0.2888   18.5580  -35.0469 H   0  0  0  0  0  0  0  0  0  0  0  0
   -2.5041   17.9476  -34.0815 H   0  0  0  0  0  0  0  0  0  0  0  0
   -6.8667   17.2574  -32.8957 H   0  0  0  0  0  0  0  0  0  0  0  0
   -9.0685   17.2167  -31.7327 H   0  0  0  0  0  0  0  0  0  0  0  0
  -10.1031   19.3392  -30.9346 H   0  0  0  0  0  0  0  0  0  0  0  0
   -8.9430   21.5112  -31.3048 H   0  0  0  0  0  0  0  0  0  0  0  0
   -6.8790   22.3830  -33.4440 H   0  0  0  0  0  0  0  0  0  0  0  0
   -4.7994   20.6750  -31.0146 H   0  0  0  0  0  0  0  0  0  0  0  0
   -3.2095   21.7689  -29.4362 H   0  0  0  0  0  0  0  0  0  0  0  0
   -4.8149   25.6434  -30.4918 H   0  0  0  0  0  0  0  0  0  0  0  0
   -6.4068   24.5569  -32.0760 H   0  0  0  0  0  0  0  0  0  0  0  0
  1  2  2  0
  2  3  1  0
  3  4  1  0
  4  5  2  0
  5  6  1  0
  6  7  2  0
  7  8  1  0
  8  9  2  0
  8 10  2  0
  8 11  1  0
  7 12  1  0
 12 13  2  0
  2 14  1  0
 14 15  2  0
 15 16  1  0
 16 17  2  0
 17 18  1  0
 18 19  2  0
 19 20  1  0
 20 21  1  0
 21 22  2  0
 22 23  1  0
 23 24  2  0
 24 25  1  0
 24 26  1  0
 26 27  2  0
 13  4  1  0
 19 14  1  0
 27 21  1  0
  3 28  1  0
  5 29  1  0
  6 30  1  0
 12 31  1  0
 13 32  1  0
 15 33  1  0
 16 34  1  0
 17 35  1  0
 18 36  1  0
 20 37  1  0
 22 38  1  0
 23 39  1  0
 26 40  1  0
 27 41  1  0
M  END
>  <UniqueID>  (43) 
39

>  <SMILES>  (43) 
O=C(Nc1ccc(S(=O)(=O)F)cc1)c1ccccc1Nc1ccc(Cl)cc1

>  <Energy>  (43) 
57.896317228510526

>  <Genealogy>  (43) 
O=C(Nc1ccc(S(=O)(=O)F)cc1)c1ccccc1Nc1ccc(Cl)cc1 (3D coordinates assigned)
O=C(Nc1ccc(S(=O)(=O)F)cc1)c1ccccc1Nc1ccc(Cl)cc1 (optimized conformer: 57.896317228510526 kcal/mol)

>  <smiles>  (43) 
O=C(Nc1ccc(S(=O)(=O)F)cc1)c1ccccc1Nc1ccc(Cl)cc1

>  <score_type>  (43) 
oracle

>  <origin>  (43) 
adgpu

>  <m_score__min__energy>  (43) 
-8.8100000000000005

>  <m_primary>  (43) 
energy

$$$$
43:0
     RDKit          3D

 28 30  0  0  0  0  0  0  0  0999 V2000
   -5.2437   25.9639  -31.1339 H   0  0  0  0  0  0  0  0  0  0  0  0
   -4.6320   25.1020  -30.8290 C   0  0  0  0  0  0  0  0  0  0  0  0
   -3.5080   25.2980  -30.0950 N   0  0  0  0  0  0  0  0  0  0  0  0
   -2.7200   24.2640  -29.7020 C   0  0  0  0  0  0  0  0  0  0  0  0
   -1.5650   24.5200  -28.9530 C   0  0  0  0  0  0  0  0  0  0  0  0
   -1.3037   25.5541  -28.6841 H   0  0  0  0  0  0  0  0  0  0  0  0
   -0.7430   23.4650  -28.5460 C   0  0  0  0  0  0  0  0  0  0  0  0
    0.7030   23.7930  -27.6080 Cl  0  0  0  0  0  0  0  0  0  0  0  0
   -1.0730   22.1500  -28.8860 C   0  0  0  0  0  0  0  0  0  0  0  0
   -0.4239   21.3222  -28.5645 H   0  0  0  0  0  0  0  0  0  0  0  0
   -2.2230   21.8820  -29.6320 C   0  0  0  0  0  0  0  0  0  0  0  0
   -2.4743   20.8439  -29.8951 H   0  0  0  0  0  0  0  0  0  0  0  0
   -3.0640   22.9340  -30.0500 C   0  0  0  0  0  0  0  0  0  0  0  0
   -4.2410   22.7040  -30.8000 C   0  0  0  0  0  0  0  0  0  0  0  0
   -4.5610   21.4810  -31.1350 N   0  0  0  0  0  0  0  0  0  0  0  0
   -5.7480   21.0350  -31.8090 C   0  0  0  0  0  0  0  0  0  0  0  0
   -7.0190   21.4690  -31.3900 C   0  0  0  0  0  0  0  0  0  0  0  0
   -7.1065   22.1921  -30.5657 H   0  0  0  0  0  0  0  0  0  0  0  0
   -8.1720   20.9850  -32.0170 C   0  0  0  0  0  0  0  0  0  0  0  0
   -9.7520   21.5440  -31.5010 Cl  0  0  0  0  0  0  0  0  0  0  0  0
   -8.0650   20.0480  -33.0490 C   0  0  0  0  0  0  0  0  0  0  0  0
   -8.9712   19.6742  -33.5480 H   0  0  0  0  0  0  0  0  0  0  0  0
   -6.8080   19.5860  -33.4470 C   0  0  0  0  0  0  0  0  0  0  0  0
   -6.7273   18.8420  -34.2532 H   0  0  0  0  0  0  0  0  0  0  0  0
   -5.6510   20.0670  -32.8230 C   0  0  0  0  0  0  0  0  0  0  0  0
   -4.0840   19.4600  -33.3380 Cl  0  0  0  0  0  0  0  0  0  0  0  0
   -5.0160   23.8130  -31.1990 C   0  0  0  0  0  0  0  0  0  0  0  0
   -5.9234   23.6613  -31.8021 H   0  0  0  0  0  0  0  0  0  0  0  0
  1  2  1  0
  2  3  1  0
  3  4  1  0
  4  5  2  0
  5  6  1  0
  5  7  1  0
  7  8  1  0
  7  9  2  0
  9 10  1  0
  9 11  1  0
 11 12  1  0
 11 13  2  0
 13 14  1  0
 14 15  2  0
 15 16  1  0
 16 17  2  0
 17 18  1  0
 17 19  1  0
 19 20  1  0
 19 21  2  0
 21 22  1  0
 21 23  1  0
 23 24  1  0
 23 25  2  0
 25 26  1  0
 14 27  1  0
 27 28  1  0
 27  2  2  0
 13  4  1  0
 25 16  1  0
M  CHG  1   3  -1
M  END
>  <UniqueID>  (44) 
40

>  <SMILES>  (44) 
Clc1ccc(Cl)c(/N=c2\cc[n-]c3cc(Cl)ccc23)c1

>  <Energy>  (44) 
45.66339133272364

>  <Genealogy>  (44) 
Clc1ccc(Cl)c(N=c2cc[n-]c3cc(Cl)ccc23)c1 (protonated)
Clc1ccc(Cl)c(/N=c2\cc[n-]c3cc(Cl)ccc23)c1 (cis-trans isomerization)
Clc1ccc(Cl)c(/N=c2\cc[n-]c3cc(Cl)ccc23)c1 (3D coordinates assigned)
Clc1ccc(Cl)c(/N=c2\cc[n-]c3cc(Cl)ccc23)c1 (optimized conformer: 45.66339133272364 kcal/mol)

>  <smiles>  (44) 
Clc1ccc(Cl)c(N=c2cc[nH]c3cc(Cl)ccc23)c1

>  <score_type>  (44) 
oracle

>  <origin>  (44) 
adgpu

>  <m_score__min__energy>  (44) 
-9.6999999999999993

>  <m_primary>  (44) 
energy

$$$$
44:0
     RDKit          3D

 30 31  0  0  0  0  0  0  0  0999 V2000
   -3.8720   25.4160  -30.4880 N   0  0  0  0  0  0  0  0  0  0  0  0
   -3.8570   24.0010  -30.6760 C   0  0  0  0  0  0  0  0  0  0  0  0
   -2.7810   23.3710  -30.4940 O   0  0  0  0  0  0  0  0  0  0  0  0
   -5.0870   23.2820  -31.0800 C   0  0  0  0  0  0  0  0  0  0  0  0
   -5.2440   21.9160  -30.7860 C   0  0  0  0  0  0  0  0  0  0  0  0
   -6.4030   21.2360  -31.1700 C   0  0  0  0  0  0  0  0  0  0  0  0
   -7.4290   21.9010  -31.8560 C   0  0  0  0  0  0  0  0  0  0  0  0
   -8.6050   21.1670  -32.2430 N   0  0  0  0  0  0  0  0  0  0  0  0
   -8.7000   19.4340  -32.2700 S   0  0  0  0  0  0  0  0  0  0  0  0
   -8.8880   18.9270  -30.8680 O   0  0  0  0  0  0  0  0  0  0  0  0
   -9.8810   19.0200  -33.1020 O   0  0  0  0  0  0  0  0  0  0  0  0
   -7.2110   18.7560  -32.9210 C   0  0  0  0  0  0  0  0  0  0  0  0
   -6.4850   19.4500  -33.8990 C   0  0  0  0  0  0  0  0  0  0  0  0
   -5.2960   18.9140  -34.4030 C   0  0  0  0  0  0  0  0  0  0  0  0
   -4.8290   17.6810  -33.9350 C   0  0  0  0  0  0  0  0  0  0  0  0
   -5.5530   16.9830  -32.9620 C   0  0  0  0  0  0  0  0  0  0  0  0
   -4.9670   15.4380  -32.3740 Cl  0  0  0  0  0  0  0  0  0  0  0  0
   -6.7430   17.5180  -32.4590 C   0  0  0  0  0  0  0  0  0  0  0  0
   -7.2780   23.2700  -32.1440 C   0  0  0  0  0  0  0  0  0  0  0  0
   -6.1180   23.9510  -31.7620 C   0  0  0  0  0  0  0  0  0  0  0  0
   -3.5390   26.0610  -31.2380 H   0  0  0  0  0  0  0  0  0  0  0  0
   -4.4483   21.3783  -30.2495 H   0  0  0  0  0  0  0  0  0  0  0  0
   -6.5114   20.1677  -30.9315 H   0  0  0  0  0  0  0  0  0  0  0  0
   -9.4840   21.6900  -32.4490 H   0  0  0  0  0  0  0  0  0  0  0  0
   -6.8515   20.4183  -34.2707 H   0  0  0  0  0  0  0  0  0  0  0  0
   -4.7271   19.4624  -35.1683 H   0  0  0  0  0  0  0  0  0  0  0  0
   -3.8932   17.2605  -34.3317 H   0  0  0  0  0  0  0  0  0  0  0  0
   -7.3138   16.9655  -31.6982 H   0  0  0  0  0  0  0  0  0  0  0  0
   -8.0781   23.8083  -32.6733 H   0  0  0  0  0  0  0  0  0  0  0  0
   -6.0113   25.0202  -31.9974 H   0  0  0  0  0  0  0  0  0  0  0  0
  1  2  1  0
  2  3  2  0
  2  4  1  0
  4  5  2  0
  5  6  1  0
  6  7  2  0
  7  8  1  0
  8  9  1  0
  9 10  2  0
  9 11  2  0
  9 12  1  0
 12 13  2  0
 13 14  1  0
 14 15  2  0
 15 16  1  0
 16 17  1  0
 16 18  2  0
  7 19  1  0
 19 20  2  0
 20  4  1  0
 18 12  1  0
  1 21  1  0
  5 22  1  0
  6 23  1  0
  8 24  1  0
 13 25  1  0
 14 26  1  0
 15 27  1  0
 18 28  1  0
 19 29  1  0
 20 30  1  0
M  CHG  1   1  -1
M  END
>  <UniqueID>  (45) 
41

>  <SMILES>  (45) 
[NH-]C(=O)c1ccc(NS(=O)(=O)c2cccc(Cl)c2)cc1

>  <Energy>  (45) 
33.38968323691968

>  <Genealogy>  (45) 
[NH-]C(=O)c1ccc(NS(=O)(=O)c2cccc(Cl)c2)cc1 (protonated)
[NH-]C(=O)c1ccc(NS(=O)(=O)c2cccc(Cl)c2)cc1 (3D coordinates assigned)
[NH-]C(=O)c1ccc(NS(=O)(=O)c2cccc(Cl)c2)cc1 (optimized conformer: 33.38968323691968 kcal/mol)

>  <smiles>  (45) 
NC(=O)c1ccc(NS(=O)(=O)c2cccc(Cl)c2)cc1

>  <score_type>  (45) 
oracle

>  <origin>  (45) 
adgpu

>  <m_score__min__energy>  (45) 
-11.06

>  <m_primary>  (45) 
energy

$$$$
45:0
     RDKit          3D

 33 34  0  0  0  0  0  0  0  0999 V2000
   -2.7270   23.5370  -29.8050 C   0  0  0  0  0  0  0  0  0  0  0  0
   -3.8050   24.5490  -29.4030 C   0  0  0  0  0  0  0  0  0  0  0  0
   -4.1460   25.4760  -30.4930 N   0  0  0  0  0  0  0  0  0  0  0  0
   -5.5760   25.4450  -30.8240 C   0  0  0  0  0  0  0  0  0  0  0  0
   -5.9870   24.0330  -31.1370 C   0  0  0  0  0  0  0  0  0  0  0  0
   -7.0760   23.4480  -30.4750 C   0  0  0  0  0  0  0  0  0  0  0  0
   -7.4810   22.1480  -30.7910 C   0  0  0  0  0  0  0  0  0  0  0  0
   -6.8100   21.4100  -31.7840 C   0  0  0  0  0  0  0  0  0  0  0  0
   -7.2400   20.0280  -32.1210 C   0  0  0  0  0  0  0  0  0  0  0  0
   -8.4560   19.4220  -31.8320 C   0  0  0  0  0  0  0  0  0  0  0  0
   -8.4500   18.1580  -32.2940 N   0  0  0  0  0  0  0  0  0  0  0  0
   -7.2800   17.9510  -32.8760 N   0  0  0  0  0  0  0  0  0  0  0  0
   -6.8690   16.6740  -33.4440 C   0  0  0  0  0  0  0  0  0  0  0  0
   -6.5130   19.0520  -32.7810 C   0  0  0  0  0  0  0  0  0  0  0  0
   -5.7290   22.0100  -32.4560 C   0  0  0  0  0  0  0  0  0  0  0  0
   -5.3260   23.3100  -32.1390 C   0  0  0  0  0  0  0  0  0  0  0  0
   -2.2707   23.1086  -28.9004 H   0  0  0  0  0  0  0  0  0  0  0  0
   -3.1829   22.7331  -30.4016 H   0  0  0  0  0  0  0  0  0  0  0  0
   -1.9535   24.0428  -30.4016 H   0  0  0  0  0  0  0  0  0  0  0  0
   -4.7122   23.9998  -29.1109 H   0  0  0  0  0  0  0  0  0  0  0  0
   -3.4064   25.1468  -28.5700 H   0  0  0  0  0  0  0  0  0  0  0  0
   -3.8800   26.4500  -30.2170 H   0  0  0  0  0  0  0  0  0  0  0  0
   -6.1588   25.8153  -29.9677 H   0  0  0  0  0  0  0  0  0  0  0  0
   -5.7639   26.0844  -31.6992 H   0  0  0  0  0  0  0  0  0  0  0  0
   -7.6149   24.0157  -29.7022 H   0  0  0  0  0  0  0  0  0  0  0  0
   -8.3318   21.6977  -30.2588 H   0  0  0  0  0  0  0  0  0  0  0  0
   -9.2949   19.9015  -31.3063 H   0  0  0  0  0  0  0  0  0  0  0  0
   -6.6417   15.9677  -32.6319 H   0  0  0  0  0  0  0  0  0  0  0  0
   -7.6825   16.2699  -34.0645 H   0  0  0  0  0  0  0  0  0  0  0  0
   -5.9725   16.8202  -34.0645 H   0  0  0  0  0  0  0  0  0  0  0  0
   -5.4864   19.1584  -33.1616 H   0  0  0  0  0  0  0  0  0  0  0  0
   -5.1959   21.4502  -33.2386 H   0  0  0  0  0  0  0  0  0  0  0  0
   -4.4847   23.7686  -32.6794 H   0  0  0  0  0  0  0  0  0  0  0  0
  1  2  1  0
  2  3  1  0
  3  4  1  0
  4  5  1  0
  5  6  2  0
  6  7  1  0
  7  8  2  0
  8  9  1  0
  9 10  1  0
 10 11  2  0
 11 12  1  0
 12 13  1  0
 12 14  1  0
  8 15  1  0
 15 16  2  0
 16  5  1  0
 14  9  2  0
  1 17  1  0
  1 18  1  0
  1 19  1  0
  2 20  1  0
  2 21  1  0
  3 22  1  0
  4 23  1  0
  4 24  1  0
  6 25  1  0
  7 26  1  0
 10 27  1  0
 13 28  1  0
 13 29  1  0
 13 30  1  0
 14 31  1  0
 15 32  1  0
 16 33  1  0
M  END
>  <UniqueID>  (46) 
42

>  <SMILES>  (46) 
CCNCc1ccc(-c2cnn(C)c2)cc1

>  <Energy>  (46) 
61.16240372344379

>  <Genealogy>  (46) 
CCNCc1ccc(-c2cnn(C)c2)cc1 (3D coordinates assigned)
CCNCc1ccc(-c2cnn(C)c2)cc1 (optimized conformer: 61.16240372344379 kcal/mol)

>  <smiles>  (46) 
CCNCc1ccc(-c2cnn(C)c2)cc1

>  <score_type>  (46) 
oracle

>  <origin>  (46) 
adgpu

>  <m_score__min__energy>  (46) 
-7.2199999999999998

>  <m_primary>  (46) 
energy

$$$$
46:0
     RDKit          3D

 63 67  0  0  0  0  0  0  0  0999 V2000
   -5.5704   25.7168  -31.5722 H   0  0  0  0  0  0  0  0  0  0  0  0
   -4.9910   24.9500  -31.0370 C   0  0  0  0  0  0  0  0  0  0  0  0
   -4.0050   25.3270  -30.1880 N   0  0  0  0  0  0  0  0  0  0  0  0
   -3.2660   24.4240  -29.4990 C   0  0  0  0  0  0  0  0  0  0  0  0
   -2.2690   24.8760  -28.6280 C   0  0  0  0  0  0  0  0  0  0  0  0
   -2.0977   25.9562  -28.5102 H   0  0  0  0  0  0  0  0  0  0  0  0
   -1.4840   23.9640  -27.9020 C   0  0  0  0  0  0  0  0  0  0  0  0
   -0.4250   24.4460  -26.9780 C   0  0  0  0  0  0  0  0  0  0  0  0
    0.5760   25.3210  -27.4330 C   0  0  0  0  0  0  0  0  0  0  0  0
    0.5813   25.6448  -28.4842 H   0  0  0  0  0  0  0  0  0  0  0  0
    1.5650   25.7830  -26.5600 C   0  0  0  0  0  0  0  0  0  0  0  0
    2.3483   26.4604  -26.9309 H   0  0  0  0  0  0  0  0  0  0  0  0
    1.5650   25.3880  -25.2130 C   0  0  0  0  0  0  0  0  0  0  0  0
    2.6210   25.9010  -24.2610 C   0  0  0  0  0  0  0  0  0  0  0  0
    2.7327   25.1759  -23.4414 H   0  0  0  0  0  0  0  0  0  0  0  0
    3.5481   26.0215  -24.8407 H   0  0  0  0  0  0  0  0  0  0  0  0
    2.2980   27.2220  -23.6770 N   0  0  0  0  0  0  0  0  0  0  0  0
    0.9470   27.3660  -23.1000 C   0  0  0  0  0  0  0  0  0  0  0  0
    0.5952   26.3717  -22.7877 H   0  0  0  0  0  0  0  0  0  0  0  0
    1.0315   28.0662  -22.2559 H   0  0  0  0  0  0  0  0  0  0  0  0
   -0.0900   27.9650  -24.0820 C   0  0  0  0  0  0  0  0  0  0  0  0
   -0.6726   27.1400  -24.5178 H   0  0  0  0  0  0  0  0  0  0  0  0
   -0.7157   28.6609  -23.5039 H   0  0  0  0  0  0  0  0  0  0  0  0
    0.5170   28.7440  -25.1870 N   0  0  0  0  0  0  0  0  0  0  0  0
    0.7580   28.0930  -25.9710 H   0  0  0  0  0  0  0  0  0  0  0  0
   -0.4490   29.7170  -25.7230 C   0  0  0  0  0  0  0  0  0  0  0  0
   -0.9556   30.2273  -24.8906 H   0  0  0  0  0  0  0  0  0  0  0  0
    0.0808   30.4582  -26.3395 H   0  0  0  0  0  0  0  0  0  0  0  0
   -1.1940   29.1926  -26.3395 H   0  0  0  0  0  0  0  0  0  0  0  0
    1.7440   29.4280  -24.7470 C   0  0  0  0  0  0  0  0  0  0  0  0
    2.1063   30.0799  -25.5555 H   0  0  0  0  0  0  0  0  0  0  0  0
    1.5193   30.0279  -23.8528 H   0  0  0  0  0  0  0  0  0  0  0  0
    2.8300   28.3990  -24.4000 C   0  0  0  0  0  0  0  0  0  0  0  0
    3.2988   28.0550  -25.3337 H   0  0  0  0  0  0  0  0  0  0  0  0
    3.5544   28.8943  -23.7367 H   0  0  0  0  0  0  0  0  0  0  0  0
    0.5860   24.4880  -24.7650 C   0  0  0  0  0  0  0  0  0  0  0  0
    0.5994   24.1414  -23.7211 H   0  0  0  0  0  0  0  0  0  0  0  0
   -0.4060   24.0290  -25.6360 C   0  0  0  0  0  0  0  0  0  0  0  0
   -1.1775   23.3363  -25.2685 H   0  0  0  0  0  0  0  0  0  0  0  0
   -1.7150   22.5880  -28.0640 C   0  0  0  0  0  0  0  0  0  0  0  0
   -1.1077   21.8642  -27.5007 H   0  0  0  0  0  0  0  0  0  0  0  0
   -2.7080   22.1290  -28.9330 C   0  0  0  0  0  0  0  0  0  0  0  0
   -2.8735   21.0477  -29.0487 H   0  0  0  0  0  0  0  0  0  0  0  0
   -3.5010   23.0400  -29.6640 C   0  0  0  0  0  0  0  0  0  0  0  0
   -4.5040   22.6060  -30.5670 C   0  0  0  0  0  0  0  0  0  0  0  0
   -4.6740   21.3150  -30.7260 N   0  0  0  0  0  0  0  0  0  0  0  0
   -5.4900   20.6150  -31.6710 C   0  0  0  0  0  0  0  0  0  0  0  0
   -4.9710   20.2430  -32.9200 C   0  0  0  0  0  0  0  0  0  0  0  0
   -3.9431   20.5237  -33.1932 H   0  0  0  0  0  0  0  0  0  0  0  0
   -5.7570   19.5170  -33.8170 C   0  0  0  0  0  0  0  0  0  0  0  0
   -5.3550   19.2461  -34.8044 H   0  0  0  0  0  0  0  0  0  0  0  0
   -7.0530   19.1340  -33.4630 C   0  0  0  0  0  0  0  0  0  0  0  0
   -7.6750   18.5772  -34.1794 H   0  0  0  0  0  0  0  0  0  0  0  0
   -7.5640   19.4570  -32.1970 C   0  0  0  0  0  0  0  0  0  0  0  0
   -8.9640   19.0700  -31.8220 C   0  0  0  0  0  0  0  0  0  0  0  0
   -9.0563   19.0445  -30.7262 H   0  0  0  0  0  0  0  0  0  0  0  0
   -9.6704   19.8065  -32.2324 H   0  0  0  0  0  0  0  0  0  0  0  0
   -9.1918   18.0752  -32.2324 H   0  0  0  0  0  0  0  0  0  0  0  0
   -6.7760   20.2000  -31.3030 C   0  0  0  0  0  0  0  0  0  0  0  0
   -7.1707   20.4572  -30.3090 H   0  0  0  0  0  0  0  0  0  0  0  0
   -5.2810   23.5960  -31.2410 C   0  0  0  0  0  0  0  0  0  0  0  0
   -6.4370   23.2980  -32.0550 C   0  0  0  0  0  0  0  0  0  0  0  0
   -7.3670   23.0710  -32.7050 N   0  0  0  0  0  0  0  0  0  0  0  0
  1  2  1  0
  2  3  1  0
  3  4  1  0
  4  5  2  0
  5  6  1  0
  5  7  1  0
  7  8  1  0
  8  9  2  0
  9 10  1  0
  9 11  1  0
 11 12  1  0
 11 13  2  0
 13 14  1  0
 14 15  1  0
 14 16  1  0
 14 17  1  0
 17 18  1  0
 18 19  1  0
 18 20  1  0
 18 21  1  0
 21 22  1  0
 21 23  1  0
 21 24  1  0
 24 25  1  0
 24 26  1  0
 26 27  1  0
 26 28  1  0
 26 29  1  0
 24 30  1  0
 30 31  1  0
 30 32  1  0
 30 33  1  0
 33 34  1  0
 33 35  1  0
 13 36  1  0
 36 37  1  0
 36 38  2  0
 38 39  1  0
  7 40  2  0
 40 41  1  0
 40 42  1  0
 42 43  1  0
 42 44  2  0
 44 45  1  0
 45 46  2  0
 46 47  1  0
 47 48  2  0
 48 49  1  0
 48 50  1  0
 50 51  1  0
 50 52  2  0
 52 53  1  0
 52 54  1  0
 54 55  1  0
 55 56  1  0
 55 57  1  0
 55 58  1  0
 54 59  2  0
 59 60  1  0
 45 61  1  0
 61 62  1  0
 62 63  3  0
 61  2  2  0
 44  4  1  0
 59 47  1  0
 38  8  1  0
 33 17  1  0
M  CHG  2   3  -1  24   1
M  END
>  <UniqueID>  (47) 
43

>  <SMILES>  (47) 
Cc1cccc(/N=c2\c(C#N)c[n-]c3cc(-c4ccc(CN5CC[NH+](C)CC5)cc4)ccc23)c1

>  <Energy>  (47) 
108.30835393766077

>  <Genealogy>  (47) 
Cc1cccc(N=c2c(C#N)c[n-]c3cc(-c4ccc(CN5CC[NH+](C)CC5)cc4)ccc23)c1 (protonated)
Cc1cccc(/N=c2\c(C#N)c[n-]c3cc(-c4ccc(CN5CC[NH+](C)CC5)cc4)ccc23)c1 (cis-trans isomerization)
Cc1cccc(/N=c2\c(C#N)c[n-]c3cc(-c4ccc(CN5CC[NH+](C)CC5)cc4)ccc23)c1 (3D coordinates assigned)
Cc1cccc(/N=c2\c(C#N)c[n-]c3cc(-c4ccc(CN5CC[NH+](C)CC5)cc4)ccc23)c1 (nonaromatic ring conformer: 108.30835393766077 kcal/mol)

>  <smiles>  (47) 
Cc1cccc(N=c2c(C#N)c[nH]c3cc(-c4ccc(CN5CCN(C)CC5)cc4)ccc23)c1

>  <score_type>  (47) 
oracle

>  <origin>  (47) 
adgpu

>  <m_score__min__energy>  (47) 
-11.68

>  <m_primary>  (47) 
energy

$$$$
47:0
     RDKit          3D

 44 47  0  0  0  0  0  0  0  0999 V2000
   -8.2990   22.3620  -31.0640 O   0  0  0  0  0  0  0  0  0  0  0  0
   -7.4420   21.9240  -31.8790 C   0  0  0  0  0  0  0  0  0  0  0  0
   -6.4020   22.7950  -32.3520 N   0  0  0  0  0  0  0  0  0  0  0  0
   -6.0860   24.0650  -31.7000 C   0  0  0  0  0  0  0  0  0  0  0  0
   -4.8760   23.9410  -30.8090 C   0  0  0  0  0  0  0  0  0  0  0  0
   -4.5540   24.7870  -29.7690 C   0  0  0  0  0  0  0  0  0  0  0  0
   -3.4480   24.3110  -29.1550 N   0  0  0  0  0  0  0  0  0  0  0  0
   -2.7880   24.8790  -28.0060 C   0  0  0  0  0  0  0  0  0  0  0  0
   -3.3510   24.7580  -26.7210 C   0  0  0  0  0  0  0  0  0  0  0  0
   -2.7040   25.3010  -25.6070 C   0  0  0  0  0  0  0  0  0  0  0  0
   -1.4880   25.9690  -25.7600 C   0  0  0  0  0  0  0  0  0  0  0  0
   -0.9140   26.0930  -27.0270 C   0  0  0  0  0  0  0  0  0  0  0  0
   -1.5560   25.5530  -28.1460 C   0  0  0  0  0  0  0  0  0  0  0  0
   -0.9810   25.7090  -29.3660 F   0  0  0  0  0  0  0  0  0  0  0  0
   -3.0500   23.2020  -29.7620 N   0  0  0  0  0  0  0  0  0  0  0  0
   -3.8910   22.9600  -30.7850 C   0  0  0  0  0  0  0  0  0  0  0  0
   -3.7800   21.7740  -31.6550 C   0  0  0  0  0  0  0  0  0  0  0  0
   -4.2200   20.5140  -31.2170 C   0  0  0  0  0  0  0  0  0  0  0  0
   -4.0700   19.3920  -32.0380 C   0  0  0  0  0  0  0  0  0  0  0  0
   -3.4910   19.5220  -33.3030 C   0  0  0  0  0  0  0  0  0  0  0  0
   -3.0730   20.7770  -33.7540 C   0  0  0  0  0  0  0  0  0  0  0  0
   -3.2230   21.9010  -32.9370 C   0  0  0  0  0  0  0  0  0  0  0  0
   -7.4810   20.4970  -32.2750 C   0  0  0  0  0  0  0  0  0  0  0  0
   -8.2450   19.5550  -31.5710 C   0  0  0  0  0  0  0  0  0  0  0  0
   -8.2720   18.2310  -32.0050 C   0  0  0  0  0  0  0  0  0  0  0  0
   -7.5580   17.8700  -33.1010 N   0  0  0  0  0  0  0  0  0  0  0  0
   -6.8250   18.7560  -33.7750 N   0  0  0  0  0  0  0  0  0  0  0  0
   -6.7590   20.0590  -33.3930 C   0  0  0  0  0  0  0  0  0  0  0  0
   -5.7620   22.4790  -33.1150 H   0  0  0  0  0  0  0  0  0  0  0  0
   -5.8859   24.8231  -32.4715 H   0  0  0  0  0  0  0  0  0  0  0  0
   -6.9449   24.3575  -31.0781 H   0  0  0  0  0  0  0  0  0  0  0  0
   -5.1046   25.6964  -29.4865 H   0  0  0  0  0  0  0  0  0  0  0  0
   -4.3083   24.2316  -26.5926 H   0  0  0  0  0  0  0  0  0  0  0  0
   -3.1540   25.2016  -24.6082 H   0  0  0  0  0  0  0  0  0  0  0  0
   -0.9818   26.3978  -24.8825 H   0  0  0  0  0  0  0  0  0  0  0  0
    0.0459   26.6170  -27.1452 H   0  0  0  0  0  0  0  0  0  0  0  0
   -4.6840   20.4096  -30.2251 H   0  0  0  0  0  0  0  0  0  0  0  0
   -4.4083   18.4057  -31.6875 H   0  0  0  0  0  0  0  0  0  0  0  0
   -3.3642   18.6369  -33.9437 H   0  0  0  0  0  0  0  0  0  0  0  0
   -2.6253   20.8803  -34.7534 H   0  0  0  0  0  0  0  0  0  0  0  0
   -2.9033   22.8889  -33.3001 H   0  0  0  0  0  0  0  0  0  0  0  0
   -8.8186   19.8589  -30.6830 H   0  0  0  0  0  0  0  0  0  0  0  0
   -8.8686   17.4830  -31.4623 H   0  0  0  0  0  0  0  0  0  0  0  0
   -6.1395   20.7686  -33.9610 H   0  0  0  0  0  0  0  0  0  0  0  0
  1  2  2  0
  2  3  1  0
  3  4  1  0
  4  5  1  0
  5  6  2  0
  6  7  1  0
  7  8  1  0
  8  9  2  0
  9 10  1  0
 10 11  2  0
 11 12  1  0
 12 13  2  0
 13 14  1  0
  7 15  1  0
 15 16  2  0
 16 17  1  0
 17 18  2  0
 18 19  1  0
 19 20  2  0
 20 21  1  0
 21 22  2  0
  2 23  1  0
 23 24  2  0
 24 25  1  0
 25 26  2  0
 26 27  1  0
 27 28  2  0
 16  5  1  0
 22 17  1  0
 28 23  1  0
 13  8  1  0
  3 29  1  0
  4 30  1  0
  4 31  1  0
  6 32  1  0
  9 33  1  0
 10 34  1  0
 11 35  1  0
 12 36  1  0
 18 37  1  0
 19 38  1  0
 20 39  1  0
 21 40  1  0
 22 41  1  0
 24 42  1  0
 25 43  1  0
 28 44  1  0
M  END
>  <UniqueID>  (48) 
44

>  <SMILES>  (48) 
O=C(NCc1cn(-c2ccccc2F)nc1-c1ccccc1)c1ccnnc1

>  <Energy>  (48) 
87.21646120000536

>  <Genealogy>  (48) 
O=C(NCc1cn(-c2ccccc2F)nc1-c1ccccc1)c1ccnnc1 (3D coordinates assigned)
O=C(NCc1cn(-c2ccccc2F)nc1-c1ccccc1)c1ccnnc1 (optimized conformer: 87.21646120000536 kcal/mol)

>  <smiles>  (48) 
O=C(NCc1cn(-c2ccccc2F)nc1-c1ccccc1)c1ccnnc1

>  <score_type>  (48) 
oracle

>  <origin>  (48) 
adgpu

>  <m_score__min__energy>  (48) 
-9.1699999999999999

>  <m_primary>  (48) 
energy

$$$$
