0:0
     RDKit          3D

 50 52  0  0  0  0  0  0  0  0999 V2000
   -8.6220   22.2950  -31.8120 C   0  0  0  0  0  0  0  0  0  0  0  0
   -7.3300   22.9720  -31.4630 C   0  0  0  0  0  0  0  0  0  0  0  0
   -6.1580   22.6870  -32.1760 C   0  0  0  0  0  0  0  0  0  0  0  0
   -4.9650   23.3380  -31.8610 C   0  0  0  0  0  0  0  0  0  0  0  0
   -4.9230   24.2920  -30.8270 C   0  0  0  0  0  0  0  0  0  0  0  0
   -3.7040   24.9660  -30.4790 N   0  0  0  0  0  0  0  0  0  0  0  0
   -2.6470   24.5240  -29.1760 S   0  0  0  0  0  0  0  0  0  0  0  0
   -1.6170   25.6020  -28.9920 O   0  0  0  0  0  0  0  0  0  0  0  0
   -3.4480   24.4050  -27.9070 O   0  0  0  0  0  0  0  0  0  0  0  0
   -1.8280   23.0120  -29.5520 C   0  0  0  0  0  0  0  0  0  0  0  0
   -0.8650   22.4830  -28.6810 C   0  0  0  0  0  0  0  0  0  0  0  0
   -0.2370   21.2720  -28.9860 C   0  0  0  0  0  0  0  0  0  0  0  0
   -0.5550   20.5920  -30.1640 C   0  0  0  0  0  0  0  0  0  0  0  0
   -1.4950   21.1240  -31.0580 C   0  0  0  0  0  0  0  0  0  0  0  0
   -1.8050   20.4070  -32.2630 N   0  0  0  0  0  0  0  0  0  0  0  0
   -3.1470   20.1760  -32.7290 C   0  0  0  0  0  0  0  0  0  0  0  0
   -4.1320   20.5910  -32.0660 O   0  0  0  0  0  0  0  0  0  0  0  0
   -3.3940   19.5120  -33.9750 N   0  0  0  0  0  0  0  0  0  0  0  0
   -4.2090   18.3140  -34.1220 C   0  0  0  0  0  0  0  0  0  0  0  0
   -5.4970   18.4920  -33.3690 C   0  0  0  0  0  0  0  0  0  0  0  0
   -6.4280   19.4660  -33.7650 C   0  0  0  0  0  0  0  0  0  0  0  0
   -7.6300   19.6130  -33.0670 C   0  0  0  0  0  0  0  0  0  0  0  0
   -7.9160   18.7850  -31.9800 C   0  0  0  0  0  0  0  0  0  0  0  0
   -7.0010   17.8050  -31.5890 C   0  0  0  0  0  0  0  0  0  0  0  0
   -5.7960   17.6560  -32.2820 C   0  0  0  0  0  0  0  0  0  0  0  0
   -2.1470   22.3280  -30.7320 C   0  0  0  0  0  0  0  0  0  0  0  0
   -6.1060   24.6030  -30.1260 C   0  0  0  0  0  0  0  0  0  0  0  0
   -6.1020   25.6670  -29.0640 C   0  0  0  0  0  0  0  0  0  0  0  0
   -7.3010   23.9400  -30.4500 C   0  0  0  0  0  0  0  0  0  0  0  0
   -9.1516   22.0175  -30.8887 H   0  0  0  0  0  0  0  0  0  0  0  0
   -9.2478   22.9810  -32.4016 H   0  0  0  0  0  0  0  0  0  0  0  0
   -8.4141   21.3899  -32.4016 H   0  0  0  0  0  0  0  0  0  0  0  0
   -6.1787   21.9459  -32.9886 H   0  0  0  0  0  0  0  0  0  0  0  0
   -4.0501   23.1039  -32.4251 H   0  0  0  0  0  0  0  0  0  0  0  0
   -0.6037   23.0209  -27.7577 H   0  0  0  0  0  0  0  0  0  0  0  0
    0.5102   20.8531  -28.2960 H   0  0  0  0  0  0  0  0  0  0  0  0
   -0.0652   19.6337  -30.3916 H   0  0  0  0  0  0  0  0  0  0  0  0
   -1.0080   20.1840  -32.9020 H   0  0  0  0  0  0  0  0  0  0  0  0
   -4.4266   18.1464  -35.1872 H   0  0  0  0  0  0  0  0  0  0  0  0
   -3.6645   17.4471  -33.7195 H   0  0  0  0  0  0  0  0  0  0  0  0
   -6.2108   20.1147  -34.6264 H   0  0  0  0  0  0  0  0  0  0  0  0
   -8.3525   20.3831  -33.3750 H   0  0  0  0  0  0  0  0  0  0  0  0
   -8.8620   18.9045  -31.4315 H   0  0  0  0  0  0  0  0  0  0  0  0
   -7.2286   17.1499  -30.7352 H   0  0  0  0  0  0  0  0  0  0  0  0
   -5.0793   16.8804  -31.9741 H   0  0  0  0  0  0  0  0  0  0  0  0
   -2.9127   22.7348  -31.4089 H   0  0  0  0  0  0  0  0  0  0  0  0
   -6.1038   25.1939  -28.0709 H   0  0  0  0  0  0  0  0  0  0  0  0
   -5.2015   26.2895  -29.1720 H   0  0  0  0  0  0  0  0  0  0  0  0
   -6.9978   26.2962  -29.1720 H   0  0  0  0  0  0  0  0  0  0  0  0
   -8.2238   24.1831  -29.9029 H   0  0  0  0  0  0  0  0  0  0  0  0
  1  2  1  0
  2  3  2  0
  3  4  1  0
  4  5  2  0
  5  6  1  0
  6  7  1  0
  7  8  2  0
  7  9  2  0
  7 10  1  0
 10 11  2  0
 11 12  1  0
 12 13  2  0
 13 14  1  0
 14 15  1  0
 15 16  1  0
 16 17  2  0
 16 18  1  0
 18 19  1  0
 19 20  1  0
 20 21  2  0
 21 22  1  0
 22 23  2  0
 23 24  1  0
 24 25  2  0
 14 26  2  0
  5 27  1  0
 27 28  1  0
 27 29  2  0
 29  2  1  0
 26 10  1  0
 25 20  1  0
  1 30  1  0
  1 31  1  0
  1 32  1  0
  3 33  1  0
  4 34  1  0
 11 35  1  0
 12 36  1  0
 13 37  1  0
 15 38  1  0
 19 39  1  0
 19 40  1  0
 21 41  1  0
 22 42  1  0
 23 43  1  0
 24 44  1  0
 25 45  1  0
 26 46  1  0
 28 47  1  0
 28 48  1  0
 28 49  1  0
 29 50  1  0
M  CHG  2   6  -1  18  -1
M  END
>  <UniqueID>  (1) 
1

>  <SMILES>  (1) 
Cc1ccc([N-]S(=O)(=O)c2cccc(NC(=O)[N-]Cc3ccccc3)c2)c(C)c1

>  <Energy>  (1) 
56.23004172807961

>  <Genealogy>  (1) 
Cc1ccc([N-]S(=O)(=O)c2cccc(NC(=O)[N-]Cc3ccccc3)c2)c(C)c1 (protonated)
Cc1ccc([N-]S(=O)(=O)c2cccc(NC(=O)[N-]Cc3ccccc3)c2)c(C)c1 (3D coordinates assigned)
Cc1ccc([N-]S(=O)(=O)c2cccc(NC(=O)[N-]Cc3ccccc3)c2)c(C)c1 (optimized conformer: 56.23004172807961 kcal/mol)

>  <smiles>  (1) 
Cc1ccc(NS(=O)(=O)c2cccc(NC(=O)NCc3ccccc3)c2)c(C)c1

>  <score_type>  (1) 
oracle

>  <origin>  (1) 
adgpu

>  <m_score__min__energy>  (1) 
-11.34

>  <m_primary>  (1) 
energy

$$$$
1:0
     RDKit          3D

 30 32  0  0  0  0  0  0  0  0999 V2000
    1.9776   26.0190  -26.6197 H   0  0  0  0  0  0  0  0  0  0  0  0
    1.0260   25.7000  -27.0700 C   0  0  0  0  0  0  0  0  0  0  0  0
    0.9880   24.6020  -27.8720 N   0  0  0  0  0  0  0  0  0  0  0  0
   -0.1670   24.1770  -28.4490 C   0  0  0  0  0  0  0  0  0  0  0  0
   -0.1619   23.2859  -29.0939 H   0  0  0  0  0  0  0  0  0  0  0  0
   -1.3660   24.8710  -28.2250 C   0  0  0  0  0  0  0  0  0  0  0  0
   -2.6230   24.4150  -28.8480 C   0  0  0  0  0  0  0  0  0  0  0  0
   -3.3950   23.4160  -28.3650 N   0  0  0  0  0  0  0  0  0  0  0  0
   -4.4170   23.3180  -29.1990 N   0  0  0  0  0  0  0  0  0  0  0  0
   -5.1810   22.6130  -29.1130 H   0  0  0  0  0  0  0  0  0  0  0  0
   -4.2360   24.2510  -30.1520 C   0  0  0  0  0  0  0  0  0  0  0  0
   -5.0250   24.4590  -31.1670 N   0  0  0  0  0  0  0  0  0  0  0  0
   -6.2750   23.7960  -31.4020 C   0  0  0  0  0  0  0  0  0  0  0  0
   -7.3380   24.3770  -31.0550 O   0  0  0  0  0  0  0  0  0  0  0  0
   -6.3450   22.4260  -31.9670 C   0  0  0  0  0  0  0  0  0  0  0  0
   -5.2110   21.8280  -32.5480 C   0  0  0  0  0  0  0  0  0  0  0  0
   -4.2615   22.3818  -32.5900 H   0  0  0  0  0  0  0  0  0  0  0  0
   -5.2850   20.5340  -33.0720 C   0  0  0  0  0  0  0  0  0  0  0  0
   -4.3960   20.0763  -33.5305 H   0  0  0  0  0  0  0  0  0  0  0  0
   -6.4840   19.8210  -33.0150 C   0  0  0  0  0  0  0  0  0  0  0  0
   -6.5401   18.8048  -33.4324 H   0  0  0  0  0  0  0  0  0  0  0  0
   -7.6140   20.3990  -32.4270 C   0  0  0  0  0  0  0  0  0  0  0  0
   -9.1190   19.5000  -32.3510 Cl  0  0  0  0  0  0  0  0  0  0  0  0
   -7.5450   21.6930  -31.9020 C   0  0  0  0  0  0  0  0  0  0  0  0
   -8.4344   22.1413  -31.4350 H   0  0  0  0  0  0  0  0  0  0  0  0
   -3.1330   24.9280  -29.9490 O   0  0  0  0  0  0  0  0  0  0  0  0
   -1.3410   26.0050  -27.3980 C   0  0  0  0  0  0  0  0  0  0  0  0
   -2.2677   26.5658  -27.2066 H   0  0  0  0  0  0  0  0  0  0  0  0
   -0.1410   26.4220  -26.8180 C   0  0  0  0  0  0  0  0  0  0  0  0
   -0.1161   27.3101  -26.1695 H   0  0  0  0  0  0  0  0  0  0  0  0
  1  2  1  0
  2  3  2  0
  3  4  1  0
  4  5  1  0
  4  6  2  0
  6  7  1  0
  7  8  2  0
  8  9  1  0
  9 10  1  0
  9 11  1  0
 11 12  2  0
 12 13  1  0
 13 14  2  0
 13 15  1  0
 15 16  2  0
 16 17  1  0
 16 18  1  0
 18 19  1  0
 18 20  2  0
 20 21  1  0
 20 22  1  0
 22 23  1  0
 22 24  2  0
 24 25  1  0
 11 26  1  0
  6 27  1  0
 27 28  1  0
 27 29  2  0
 29 30  1  0
 29  2  1  0
 26  7  1  0
 24 15  1  0
M  END
>  <UniqueID>  (2) 
2

>  <SMILES>  (2) 
O=C(/N=c1\[nH]nc(-c2cccnc2)o1)c1cccc(Cl)c1

>  <Energy>  (2) 
78.43418982770534

>  <Genealogy>  (2) 
O=C(/N=c1\[nH]nc(-c2cccnc2)o1)c1cccc(Cl)c1 (cis-trans isomerization)
O=C(/N=c1\[nH]nc(-c2cccnc2)o1)c1cccc(Cl)c1 (3D coordinates assigned)
O=C(/N=c1\[nH]nc(-c2cccnc2)o1)c1cccc(Cl)c1 (optimized conformer: 78.43418982770534 kcal/mol)

>  <smiles>  (2) 
O=C(N=c1[nH]nc(-c2cccnc2)o1)c1cccc(Cl)c1

>  <score_type>  (2) 
oracle

>  <origin>  (2) 
adgpu

>  <m_score__min__energy>  (2) 
-8.5800000000000001

>  <m_primary>  (2) 
energy

$$$$
2:0
     RDKit          3D

 28 29  0  0  0  0  0  0  0  0999 V2000
   -3.8760   25.2940  -30.7910 O   0  0  0  0  0  0  0  0  0  0  0  0
   -4.6130   24.6350  -30.0080 C   0  0  0  0  0  0  0  0  0  0  0  0
   -6.0410   24.3830  -30.3790 C   0  0  0  0  0  0  0  0  0  0  0  0
   -6.1480   23.1080  -31.1670 C   0  0  0  0  0  0  0  0  0  0  0  0
   -5.0420   22.6250  -31.8830 C   0  0  0  0  0  0  0  0  0  0  0  0
   -5.1520   21.4600  -32.6480 C   0  0  0  0  0  0  0  0  0  0  0  0
   -6.3690   20.7720  -32.7150 C   0  0  0  0  0  0  0  0  0  0  0  0
   -6.4690   19.3110  -33.6900 Cl  0  0  0  0  0  0  0  0  0  0  0  0
   -7.4850   21.2560  -32.0120 C   0  0  0  0  0  0  0  0  0  0  0  0
   -9.0340   20.4290  -32.0780 Cl  0  0  0  0  0  0  0  0  0  0  0  0
   -7.3710   22.4230  -31.2450 C   0  0  0  0  0  0  0  0  0  0  0  0
   -4.0940   24.1280  -28.7680 N   0  0  0  0  0  0  0  0  0  0  0  0
   -2.8510   24.5500  -28.1800 C   0  0  0  0  0  0  0  0  0  0  0  0
   -2.7580   24.9110  -26.8250 C   0  0  0  0  0  0  0  0  0  0  0  0
   -1.5270   25.2880  -26.2860 C   0  0  0  0  0  0  0  0  0  0  0  0
   -0.3950   25.2890  -27.1010 C   0  0  0  0  0  0  0  0  0  0  0  0
   -0.4940   24.9150  -28.4040 N   0  0  0  0  0  0  0  0  0  0  0  0
   -1.6810   24.5440  -28.9530 C   0  0  0  0  0  0  0  0  0  0  0  0
   -6.6459   24.2981  -29.4642 H   0  0  0  0  0  0  0  0  0  0  0  0
   -6.4086   25.2192  -30.9919 H   0  0  0  0  0  0  0  0  0  0  0  0
   -4.0846   23.1652  -31.8422 H   0  0  0  0  0  0  0  0  0  0  0  0
   -4.2784   21.0825  -33.1996 H   0  0  0  0  0  0  0  0  0  0  0  0
   -8.2465   22.8054  -30.6998 H   0  0  0  0  0  0  0  0  0  0  0  0
   -4.6240   23.3610  -28.2950 H   0  0  0  0  0  0  0  0  0  0  0  0
   -3.6555   24.8964  -26.1891 H   0  0  0  0  0  0  0  0  0  0  0  0
   -1.4503   25.5815  -25.2287 H   0  0  0  0  0  0  0  0  0  0  0  0
    0.5786   25.5927  -26.6889 H   0  0  0  0  0  0  0  0  0  0  0  0
   -1.7239   24.2376  -30.0086 H   0  0  0  0  0  0  0  0  0  0  0  0
  1  2  2  0
  2  3  1  0
  3  4  1  0
  4  5  2  0
  5  6  1  0
  6  7  2  0
  7  8  1  0
  7  9  1  0
  9 10  1  0
  9 11  2  0
  2 12  1  0
 12 13  1  0
 13 14  2  0
 14 15  1  0
 15 16  2  0
 16 17  1  0
 17 18  2  0
 11  4  1  0
 18 13  1  0
  3 19  1  0
  3 20  1  0
  5 21  1  0
  6 22  1  0
 11 23  1  0
 12 24  1  0
 14 25  1  0
 15 26  1  0
 16 27  1  0
 18 28  1  0
M  END
>  <UniqueID>  (3) 
3

>  <SMILES>  (3) 
O=C(Cc1ccc(Cl)c(Cl)c1)Nc1cccnc1

>  <Energy>  (3) 
31.366959298345318

>  <Genealogy>  (3) 
O=C(Cc1ccc(Cl)c(Cl)c1)Nc1cccnc1 (3D coordinates assigned)
O=C(Cc1ccc(Cl)c(Cl)c1)Nc1cccnc1 (optimized conformer: 31.366959298345318 kcal/mol)

>  <smiles>  (3) 
O=C(Cc1ccc(Cl)c(Cl)c1)Nc1cccnc1

>  <score_type>  (3) 
oracle

>  <origin>  (3) 
adgpu

>  <m_score__min__energy>  (3) 
-8.1300000000000008

>  <m_primary>  (3) 
energy

$$$$
3:0
     RDKit          3D

 46 48  0  0  0  0  0  0  0  0999 V2000
    0.2990   25.1590  -36.3530 C   0  0  0  0  0  0  0  0  0  0  0  0
    1.1610   23.9120  -36.0790 C   0  0  0  0  0  0  0  0  0  0  0  0
    0.3880   22.9910  -35.3620 O   0  0  0  0  0  0  0  0  0  0  0  0
    0.5530   21.6430  -35.3240 C   0  0  0  0  0  0  0  0  0  0  0  0
    1.5350   21.0290  -36.0620 C   0  0  0  0  0  0  0  0  0  0  0  0
    1.6480   19.6270  -35.9850 C   0  0  0  0  0  0  0  0  0  0  0  0
    0.8140   18.8870  -35.2060 C   0  0  0  0  0  0  0  0  0  0  0  0
   -0.1830   19.4910  -34.4560 C   0  0  0  0  0  0  0  0  0  0  0  0
   -0.2900   20.8660  -34.5330 C   0  0  0  0  0  0  0  0  0  0  0  0
   -1.3190   21.5340  -33.8300 N   0  0  0  0  0  0  0  0  0  0  0  0
   -1.5400   21.2560  -32.4310 C   0  0  0  0  0  0  0  0  0  0  0  0
   -0.8020   20.3980  -31.8930 O   0  0  0  0  0  0  0  0  0  0  0  0
   -2.5640   21.9200  -31.6380 C   0  0  0  0  0  0  0  0  0  0  0  0
   -2.3790   22.2640  -30.3150 C   0  0  0  0  0  0  0  0  0  0  0  0
   -3.4050   22.8880  -29.6890 N   0  0  0  0  0  0  0  0  0  0  0  0
   -4.5480   23.1550  -30.3310 C   0  0  0  0  0  0  0  0  0  0  0  0
   -4.7750   22.8390  -31.6190 N   0  0  0  0  0  0  0  0  0  0  0  0
   -6.0310   23.1380  -32.2360 C   0  0  0  0  0  0  0  0  0  0  0  0
   -6.9820   22.0020  -32.1280 C   0  0  0  0  0  0  0  0  0  0  0  0
   -8.2260   22.0590  -31.5560 C   0  0  0  0  0  0  0  0  0  0  0  0
   -9.0800   20.9840  -31.5500 C   0  0  0  0  0  0  0  0  0  0  0  0
   -8.7010   19.7890  -32.1350 C   0  0  0  0  0  0  0  0  0  0  0  0
   -9.4830   18.6910  -32.1650 F   0  0  0  0  0  0  0  0  0  0  0  0
   -7.4560   19.6770  -32.7230 C   0  0  0  0  0  0  0  0  0  0  0  0
   -6.6430   20.7750  -32.7040 C   0  0  0  0  0  0  0  0  0  0  0  0
   -3.7560   22.2090  -32.2840 C   0  0  0  0  0  0  0  0  0  0  0  0
   -3.8760   21.8430  -33.5090 N   0  0  0  0  0  0  0  0  0  0  0  0
   -0.0111   25.6075  -35.3977 H   0  0  0  0  0  0  0  0  0  0  0  0
    0.8851   25.8907  -36.9285 H   0  0  0  0  0  0  0  0  0  0  0  0
   -0.5925   24.8692  -36.9285 H   0  0  0  0  0  0  0  0  0  0  0  0
    1.4825   23.4657  -37.0316 H   0  0  0  0  0  0  0  0  0  0  0  0
    2.0540   24.1890  -35.4996 H   0  0  0  0  0  0  0  0  0  0  0  0
    2.2152   21.6163  -36.6963 H   0  0  0  0  0  0  0  0  0  0  0  0
    2.4294   19.1185  -36.5688 H   0  0  0  0  0  0  0  0  0  0  0  0
    0.9324   17.7940  -35.1707 H   0  0  0  0  0  0  0  0  0  0  0  0
   -0.8619   18.8990  -33.8247 H   0  0  0  0  0  0  0  0  0  0  0  0
   -1.9260   22.2590  -34.3300 H   0  0  0  0  0  0  0  0  0  0  0  0
   -1.4380   22.0409  -29.7908 H   0  0  0  0  0  0  0  0  0  0  0  0
   -5.3489   23.6625  -29.7733 H   0  0  0  0  0  0  0  0  0  0  0  0
   -6.4697   24.0179  -31.7427 H   0  0  0  0  0  0  0  0  0  0  0  0
   -5.8502   23.3328  -33.3034 H   0  0  0  0  0  0  0  0  0  0  0  0
   -8.5516   22.9985  -31.0854 H   0  0  0  0  0  0  0  0  0  0  0  0
  -10.0696   21.0732  -31.0781 H   0  0  0  0  0  0  0  0  0  0  0  0
   -7.1303   18.7361  -33.1905 H   0  0  0  0  0  0  0  0  0  0  0  0
   -5.6528   20.6868  -33.1749 H   0  0  0  0  0  0  0  0  0  0  0  0
   -4.6420   21.9450  -34.1640 H   0  0  0  0  0  0  0  0  0  0  0  0
  1  2  1  0
  2  3  1  0
  3  4  1  0
  4  5  2  0
  5  6  1  0
  6  7  2  0
  7  8  1  0
  8  9  2  0
  9 10  1  0
 10 11  1  0
 11 12  2  0
 11 13  1  0
 13 14  2  0
 14 15  1  0
 15 16  2  0
 16 17  1  0
 17 18  1  0
 18 19  1  0
 19 20  2  0
 20 21  1  0
 21 22  2  0
 22 23  1  0
 22 24  1  0
 24 25  2  0
 17 26  1  0
 26 27  2  3
  9  4  1  0
 26 13  1  0
 25 19  1  0
  1 28  1  0
  1 29  1  0
  1 30  1  0
  2 31  1  0
  2 32  1  0
  5 33  1  0
  6 34  1  0
  7 35  1  0
  8 36  1  0
 10 37  1  0
 14 38  1  0
 16 39  1  0
 18 40  1  0
 18 41  1  0
 20 42  1  0
 21 43  1  0
 24 44  1  0
 25 45  1  0
 27 46  1  0
M  END
>  <smiles>  (4) 
CCOc1ccccc1NC(=O)c1cncn(Cc2ccc(F)cc2)c1=N

>  <score_type>  (4) 
oracle

>  <origin>  (4) 
adgpu

>  <m_score__min__energy>  (4) 
-8.0999999999999996

>  <m_primary>  (4) 
energy

$$$$
4:0
     RDKit          3D

 48 50  0  0  0  0  0  0  0  0999 V2000
    0.0400   18.1090  -27.8540 C   0  0  0  0  0  0  0  0  0  0  0  0
   -0.5040   18.9830  -26.8690 O   0  0  0  0  0  0  0  0  0  0  0  0
   -0.7540   20.3480  -27.0740 C   0  0  0  0  0  0  0  0  0  0  0  0
   -2.0330   20.9150  -26.9080 C   0  0  0  0  0  0  0  0  0  0  0  0
   -2.2300   22.2820  -27.1260 C   0  0  0  0  0  0  0  0  0  0  0  0
   -1.1590   23.0980  -27.5140 C   0  0  0  0  0  0  0  0  0  0  0  0
   -1.4220   24.8160  -27.7900 S   0  0  0  0  0  0  0  0  0  0  0  0
   -0.1140   25.5320  -27.9860 O   0  0  0  0  0  0  0  0  0  0  0  0
   -2.1230   25.4000  -26.5970 O   0  0  0  0  0  0  0  0  0  0  0  0
   -2.4090   25.0440  -29.1990 N   0  0  0  0  0  0  0  0  0  0  0  0
   -2.8640   23.9960  -30.0660 C   0  0  0  0  0  0  0  0  0  0  0  0
   -4.1900   23.9300  -30.5310 C   0  0  0  0  0  0  0  0  0  0  0  0
   -4.5900   22.8880  -31.3740 C   0  0  0  0  0  0  0  0  0  0  0  0
   -3.6750   21.8980  -31.7540 C   0  0  0  0  0  0  0  0  0  0  0  0
   -4.1760   20.5560  -32.7780 S   0  0  0  0  0  0  0  0  0  0  0  0
   -3.2800   20.4350  -33.9790 O   0  0  0  0  0  0  0  0  0  0  0  0
   -4.1010   19.2860  -31.9790 O   0  0  0  0  0  0  0  0  0  0  0  0
   -5.8100   20.8050  -33.3100 N   0  0  0  0  0  0  0  0  0  0  0  0
   -6.9270   20.0770  -32.7650 C   0  0  0  0  0  0  0  0  0  0  0  0
   -6.9780   18.6730  -32.8680 C   0  0  0  0  0  0  0  0  0  0  0  0
   -8.0560   17.9600  -32.3410 C   0  0  0  0  0  0  0  0  0  0  0  0
   -9.0930   18.6330  -31.6970 C   0  0  0  0  0  0  0  0  0  0  0  0
   -9.0570   20.0230  -31.5760 C   0  0  0  0  0  0  0  0  0  0  0  0
   -7.9840   20.7590  -32.1110 C   0  0  0  0  0  0  0  0  0  0  0  0
   -7.9840   22.2590  -31.9810 C   0  0  0  0  0  0  0  0  0  0  0  0
   -2.3540   21.9630  -31.2920 C   0  0  0  0  0  0  0  0  0  0  0  0
   -1.9520   23.0050  -30.4550 C   0  0  0  0  0  0  0  0  0  0  0  0
    0.1150   22.5370  -27.6740 C   0  0  0  0  0  0  0  0  0  0  0  0
    0.3130   21.1700  -27.4590 C   0  0  0  0  0  0  0  0  0  0  0  0
    0.5589   17.2754  -27.3581 H   0  0  0  0  0  0  0  0  0  0  0  0
   -0.7719   17.7138  -28.4822 H   0  0  0  0  0  0  0  0  0  0  0  0
    0.7531   18.6630  -28.4822 H   0  0  0  0  0  0  0  0  0  0  0  0
   -2.8792   20.2804  -26.6060 H   0  0  0  0  0  0  0  0  0  0  0  0
   -3.2306   22.7190  -26.9923 H   0  0  0  0  0  0  0  0  0  0  0  0
   -4.9150   24.7007  -30.2305 H   0  0  0  0  0  0  0  0  0  0  0  0
   -5.6266   22.8459  -31.7397 H   0  0  0  0  0  0  0  0  0  0  0  0
   -5.9410   21.4230  -34.1400 H   0  0  0  0  0  0  0  0  0  0  0  0
   -6.1605   18.1334  -33.3685 H   0  0  0  0  0  0  0  0  0  0  0  0
   -8.0873   16.8644  -32.4341 H   0  0  0  0  0  0  0  0  0  0  0  0
   -9.9411   18.0676  -31.2835 H   0  0  0  0  0  0  0  0  0  0  0  0
   -9.8739   20.5471  -31.0583 H   0  0  0  0  0  0  0  0  0  0  0  0
   -6.9469   22.6243  -31.9493 H   0  0  0  0  0  0  0  0  0  0  0  0
   -8.5025   22.7018  -32.8441 H   0  0  0  0  0  0  0  0  0  0  0  0
   -8.5025   22.5468  -31.0546 H   0  0  0  0  0  0  0  0  0  0  0  0
   -1.6307   21.1897  -31.5901 H   0  0  0  0  0  0  0  0  0  0  0  0
   -0.9124   23.0489  -30.0981 H   0  0  0  0  0  0  0  0  0  0  0  0
    0.9616   23.1740  -27.9696 H   0  0  0  0  0  0  0  0  0  0  0  0
    1.3149   20.7362  -27.5932 H   0  0  0  0  0  0  0  0  0  0  0  0
  1  2  1  0
  2  3  1  0
  3  4  2  0
  4  5  1  0
  5  6  2  0
  6  7  1  0
  7  8  2  0
  7  9  2  0
  7 10  1  0
 10 11  1  0
 11 12  2  0
 12 13  1  0
 13 14  2  0
 14 15  1  0
 15 16  2  0
 15 17  2  0
 15 18  1  0
 18 19  1  0
 19 20  2  0
 20 21  1  0
 21 22  2  0
 22 23  1  0
 23 24  2  0
 24 25  1  0
 14 26  1  0
 26 27  2  0
  6 28  1  0
 28 29  2  0
 29  3  1  0
 27 11  1  0
 24 19  1  0
  1 30  1  0
  1 31  1  0
  1 32  1  0
  4 33  1  0
  5 34  1  0
 12 35  1  0
 13 36  1  0
 18 37  1  0
 20 38  1  0
 21 39  1  0
 22 40  1  0
 23 41  1  0
 25 42  1  0
 25 43  1  0
 25 44  1  0
 26 45  1  0
 27 46  1  0
 28 47  1  0
 29 48  1  0
M  CHG  1  10  -1
M  END
>  <UniqueID>  (5) 
4

>  <SMILES>  (5) 
COc1ccc(S(=O)(=O)[N-]c2ccc(S(=O)(=O)Nc3ccccc3C)cc2)cc1

>  <Energy>  (5) 
56.47883929804603

>  <Genealogy>  (5) 
COc1ccc(S(=O)(=O)[N-]c2ccc(S(=O)(=O)Nc3ccccc3C)cc2)cc1 (protonated)
COc1ccc(S(=O)(=O)[N-]c2ccc(S(=O)(=O)Nc3ccccc3C)cc2)cc1 (3D coordinates assigned)
COc1ccc(S(=O)(=O)[N-]c2ccc(S(=O)(=O)Nc3ccccc3C)cc2)cc1 (optimized conformer: 56.47883929804603 kcal/mol)

>  <smiles>  (5) 
COc1ccc(S(=O)(=O)Nc2ccc(S(=O)(=O)Nc3ccccc3C)cc2)cc1

>  <score_type>  (5) 
oracle

>  <origin>  (5) 
adgpu

>  <m_score__min__energy>  (5) 
-11.43

>  <m_primary>  (5) 
energy

$$$$
5:0
     RDKit          3D

 48 51  0  0  0  0  0  0  0  0999 V2000
   -1.0020   19.0500  -26.9570 O   0  0  0  0  0  0  0  0  0  0  0  0
   -1.0090   19.9720  -27.8140 C   0  0  0  0  0  0  0  0  0  0  0  0
   -1.3100   21.3070  -27.3820 N   0  0  0  0  0  0  0  0  0  0  0  0
   -1.9670   22.3190  -28.1580 C   0  0  0  0  0  0  0  0  0  0  0  0
   -3.1850   22.0130  -28.7760 C   0  0  0  0  0  0  0  0  0  0  0  0
   -3.8470   22.9710  -29.5500 C   0  0  0  0  0  0  0  0  0  0  0  0
   -3.2850   24.2430  -29.7260 C   0  0  0  0  0  0  0  0  0  0  0  0
   -3.9400   25.2050  -30.4940 O   0  0  0  0  0  0  0  0  0  0  0  0
   -2.0550   24.5480  -29.1300 C   0  0  0  0  0  0  0  0  0  0  0  0
   -1.4840   25.8030  -29.3090 O   0  0  0  0  0  0  0  0  0  0  0  0
   -1.3940   23.5880  -28.3560 C   0  0  0  0  0  0  0  0  0  0  0  0
   -0.6540   19.6610  -29.2200 C   0  0  0  0  0  0  0  0  0  0  0  0
    0.4690   18.8720  -29.5210 C   0  0  0  0  0  0  0  0  0  0  0  0
    0.7900   18.5800  -30.8490 C   0  0  0  0  0  0  0  0  0  0  0  0
   -0.0090   19.0620  -31.8870 C   0  0  0  0  0  0  0  0  0  0  0  0
   -1.1410   19.8370  -31.6030 C   0  0  0  0  0  0  0  0  0  0  0  0
   -2.1640   20.4300  -32.9120 S   0  0  0  0  0  0  0  0  0  0  0  0
   -1.7450   21.8290  -33.2720 O   0  0  0  0  0  0  0  0  0  0  0  0
   -1.9750   19.5630  -34.1250 O   0  0  0  0  0  0  0  0  0  0  0  0
   -3.8510   20.4310  -32.4550 N   0  0  0  0  0  0  0  0  0  0  0  0
   -4.6060   19.5060  -33.3120 C   0  0  0  0  0  0  0  0  0  0  0  0
   -6.0200   19.3300  -32.7560 C   0  0  0  0  0  0  0  0  0  0  0  0
   -6.6590   20.6540  -32.4260 C   0  0  0  0  0  0  0  0  0  0  0  0
   -8.0410   20.7130  -32.1870 C   0  0  0  0  0  0  0  0  0  0  0  0
   -8.6460   21.9210  -31.8310 C   0  0  0  0  0  0  0  0  0  0  0  0
   -7.8750   23.0780  -31.7020 C   0  0  0  0  0  0  0  0  0  0  0  0
   -6.4960   23.0300  -31.9250 C   0  0  0  0  0  0  0  0  0  0  0  0
   -5.8760   21.8180  -32.2670 C   0  0  0  0  0  0  0  0  0  0  0  0
   -4.3980   21.7940  -32.5700 C   0  0  0  0  0  0  0  0  0  0  0  0
   -1.4630   20.1310  -30.2700 C   0  0  0  0  0  0  0  0  0  0  0  0
   -3.6243   21.0122  -28.6520 H   0  0  0  0  0  0  0  0  0  0  0  0
   -4.8102   22.7261  -30.0215 H   0  0  0  0  0  0  0  0  0  0  0  0
   -3.4670   26.0430  -30.8080 H   0  0  0  0  0  0  0  0  0  0  0  0
   -0.4218   23.8269  -27.9003 H   0  0  0  0  0  0  0  0  0  0  0  0
    1.0983   18.4824  -28.7073 H   0  0  0  0  0  0  0  0  0  0  0  0
    1.6753   17.9683  -31.0773 H   0  0  0  0  0  0  0  0  0  0  0  0
    0.2509   18.8327  -32.9310 H   0  0  0  0  0  0  0  0  0  0  0  0
   -4.6618   19.9146  -34.3318 H   0  0  0  0  0  0  0  0  0  0  0  0
   -4.0978   18.5306  -33.3335 H   0  0  0  0  0  0  0  0  0  0  0  0
   -6.6365   18.8142  -33.5069 H   0  0  0  0  0  0  0  0  0  0  0  0
   -5.9527   18.7417  -31.8290 H   0  0  0  0  0  0  0  0  0  0  0  0
   -8.6513   19.8026  -32.2806 H   0  0  0  0  0  0  0  0  0  0  0  0
   -9.7306   21.9607  -31.6522 H   0  0  0  0  0  0  0  0  0  0  0  0
   -8.3536   24.0287  -31.4244 H   0  0  0  0  0  0  0  0  0  0  0  0
   -5.8940   23.9460  -31.8321 H   0  0  0  0  0  0  0  0  0  0  0  0
   -4.2361   22.1600  -33.5946 H   0  0  0  0  0  0  0  0  0  0  0  0
   -3.8833   22.4377  -31.8415 H   0  0  0  0  0  0  0  0  0  0  0  0
   -2.3550   20.7337  -30.0441 H   0  0  0  0  0  0  0  0  0  0  0  0
  1  2  2  0
  2  3  1  0
  3  4  1  0
  4  5  2  0
  5  6  1  0
  6  7  2  0
  7  8  1  0
  7  9  1  0
  9 10  1  0
  9 11  2  0
  2 12  1  0
 12 13  2  0
 13 14  1  0
 14 15  2  0
 15 16  1  0
 16 17  1  0
 17 18  2  0
 17 19  2  0
 17 20  1  0
 20 21  1  0
 21 22  1  0
 22 23  1  0
 23 24  2  0
 24 25  1  0
 25 26  2  0
 26 27  1  0
 27 28  2  0
 28 29  1  0
 16 30  2  0
 11  4  1  0
 30 12  1  0
 29 20  1  0
 28 23  1  0
  5 31  1  0
  6 32  1  0
  8 33  1  0
 11 34  1  0
 13 35  1  0
 14 36  1  0
 15 37  1  0
 21 38  1  0
 21 39  1  0
 22 40  1  0
 22 41  1  0
 24 42  1  0
 25 43  1  0
 26 44  1  0
 27 45  1  0
 29 46  1  0
 29 47  1  0
 30 48  1  0
M  CHG  2   3  -1  10  -1
M  END
>  <UniqueID>  (6) 
5

>  <SMILES>  (6) 
O=C([N-]c1ccc(O)c([O-])c1)c1cccc(S(=O)(=O)N2CCc3ccccc3C2)c1

>  <Energy>  (6) 
59.276247110359826

>  <Genealogy>  (6) 
O=C([N-]c1ccc(O)c([O-])c1)c1cccc(S(=O)(=O)N2CCc3ccccc3C2)c1 (protonated)
O=C([N-]c1ccc(O)c([O-])c1)c1cccc(S(=O)(=O)N2CCc3ccccc3C2)c1 (3D coordinates assigned)
O=C([N-]c1ccc(O)c([O-])c1)c1cccc(S(=O)(=O)N2CCc3ccccc3C2)c1 (nonaromatic ring conformer: 59.276247110359826 kcal/mol)

>  <smiles>  (6) 
O=C(Nc1ccc(O)c(O)c1)c1cccc(S(=O)(=O)N2CCc3ccccc3C2)c1

>  <score_type>  (6) 
oracle

>  <origin>  (6) 
adgpu

>  <m_score__min__energy>  (6) 
-13.220000000000001

>  <m_primary>  (6) 
energy

$$$$
6:0
     RDKit          3D

 56 59  0  0  0  0  0  0  0  0999 V2000
   -3.9860   17.2460  -35.3390 C   0  0  0  0  0  0  0  0  0  0  0  0
   -2.9280   16.6610  -34.4630 C   0  0  0  0  0  0  0  0  0  0  0  0
   -1.9630   17.3860  -33.8620 N   0  0  0  0  0  0  0  0  0  0  0  0
   -1.2950   16.5770  -33.0510 N   0  0  0  0  0  0  0  0  0  0  0  0
   -0.1800   17.0140  -32.2180 C   0  0  0  0  0  0  0  0  0  0  0  0
   -1.8180   15.3330  -33.1070 C   0  0  0  0  0  0  0  0  0  0  0  0
   -1.3600   14.1650  -32.2890 C   0  0  0  0  0  0  0  0  0  0  0  0
   -2.8760   15.3630  -33.9940 C   0  0  0  0  0  0  0  0  0  0  0  0
   -3.8200   14.3240  -34.2630 N   0  0  0  0  0  0  0  0  0  0  0  0
   -5.3000   14.2470  -33.3680 S   0  0  0  0  0  0  0  0  0  0  0  0
   -5.1080   13.4460  -32.1110 O   0  0  0  0  0  0  0  0  0  0  0  0
   -6.3500   13.5720  -34.2050 O   0  0  0  0  0  0  0  0  0  0  0  0
   -5.8260   15.8820  -32.9790 C   0  0  0  0  0  0  0  0  0  0  0  0
   -6.7330   16.5460  -33.8140 C   0  0  0  0  0  0  0  0  0  0  0  0
   -7.1990   17.8200  -33.4760 C   0  0  0  0  0  0  0  0  0  0  0  0
   -6.7610   18.4480  -32.2950 C   0  0  0  0  0  0  0  0  0  0  0  0
   -7.2640   19.7960  -31.9280 C   0  0  0  0  0  0  0  0  0  0  0  0
   -8.6390   20.0730  -31.9500 C   0  0  0  0  0  0  0  0  0  0  0  0
   -9.0930   21.3420  -31.5930 C   0  0  0  0  0  0  0  0  0  0  0  0
   -8.2080   22.3040  -31.2260 N   0  0  0  0  0  0  0  0  0  0  0  0
   -6.8630   22.0840  -31.1900 C   0  0  0  0  0  0  0  0  0  0  0  0
   -5.9710   23.1540  -30.7900 N   0  0  0  0  0  0  0  0  0  0  0  0
   -4.5150   23.0100  -30.9340 C   0  0  0  0  0  0  0  0  0  0  0  0
   -3.7730   24.1330  -30.2010 C   0  0  0  0  0  0  0  0  0  0  0  0
   -4.2810   25.4520  -30.6040 N   0  0  0  0  0  0  0  0  0  0  0  0
   -5.7490   25.6000  -30.4940 C   0  0  0  0  0  0  0  0  0  0  0  0
   -6.4930   24.3220  -30.0660 C   0  0  0  0  0  0  0  0  0  0  0  0
   -6.3720   20.8130  -31.5460 C   0  0  0  0  0  0  0  0  0  0  0  0
   -5.8500   17.7750  -31.4620 C   0  0  0  0  0  0  0  0  0  0  0  0
   -5.3920   16.4990  -31.7990 C   0  0  0  0  0  0  0  0  0  0  0  0
   -4.7784   17.6841  -34.7143 H   0  0  0  0  0  0  0  0  0  0  0  0
   -3.5450   18.0284  -35.9740 H   0  0  0  0  0  0  0  0  0  0  0  0
   -4.4142   16.4565  -35.9740 H   0  0  0  0  0  0  0  0  0  0  0  0
   -0.4511   16.9077  -31.1572 H   0  0  0  0  0  0  0  0  0  0  0  0
    0.7037   16.3957  -32.4343 H   0  0  0  0  0  0  0  0  0  0  0  0
    0.0482   18.0681  -32.4343 H   0  0  0  0  0  0  0  0  0  0  0  0
   -1.4547   14.4064  -31.2200 H   0  0  0  0  0  0  0  0  0  0  0  0
   -1.9806   13.2875  -32.5231 H   0  0  0  0  0  0  0  0  0  0  0  0
   -0.3083   13.9433  -32.5231 H   0  0  0  0  0  0  0  0  0  0  0  0
   -3.8210   13.8970  -35.2150 H   0  0  0  0  0  0  0  0  0  0  0  0
   -7.0802   16.0633  -34.7395 H   0  0  0  0  0  0  0  0  0  0  0  0
   -7.9121   18.3346  -34.1369 H   0  0  0  0  0  0  0  0  0  0  0  0
   -9.3554   19.2930  -32.2474 H   0  0  0  0  0  0  0  0  0  0  0  0
  -10.1702   21.5642  -31.6087 H   0  0  0  0  0  0  0  0  0  0  0  0
   -4.2066   22.0416  -30.5132 H   0  0  0  0  0  0  0  0  0  0  0  0
   -4.2631   23.0654  -32.0033 H   0  0  0  0  0  0  0  0  0  0  0  0
   -3.9139   24.0093  -29.1171 H   0  0  0  0  0  0  0  0  0  0  0  0
   -2.7056   24.0748  -30.4605 H   0  0  0  0  0  0  0  0  0  0  0  0
   -3.9960   25.6200  -31.5980 H   0  0  0  0  0  0  0  0  0  0  0  0
   -5.9599   26.3842  -29.7520 H   0  0  0  0  0  0  0  0  0  0  0  0
   -6.1130   25.8493  -31.5017 H   0  0  0  0  0  0  0  0  0  0  0  0
   -6.3563   24.1685  -28.9854 H   0  0  0  0  0  0  0  0  0  0  0  0
   -7.5614   24.4373  -30.3011 H   0  0  0  0  0  0  0  0  0  0  0  0
   -5.2900   20.6160  -31.5251 H   0  0  0  0  0  0  0  0  0  0  0  0
   -5.4955   18.2565  -30.5387 H   0  0  0  0  0  0  0  0  0  0  0  0
   -4.6876   15.9767  -31.1349 H   0  0  0  0  0  0  0  0  0  0  0  0
  1  2  1  0
  2  3  2  0
  3  4  1  0
  4  5  1  0
  4  6  1  0
  6  7  1  0
  6  8  2  0
  8  9  1  0
  9 10  1  0
 10 11  2  0
 10 12  2  0
 10 13  1  0
 13 14  2  0
 14 15  1  0
 15 16  2  0
 16 17  1  0
 17 18  2  0
 18 19  1  0
 19 20  2  0
 20 21  1  0
 21 22  1  0
 22 23  1  0
 23 24  1  0
 24 25  1  0
 25 26  1  0
 26 27  1  0
 21 28  2  0
 16 29  1  0
 29 30  2  0
  8  2  1  0
 30 13  1  0
 28 17  1  0
 27 22  1  0
  1 31  1  0
  1 32  1  0
  1 33  1  0
  5 34  1  0
  5 35  1  0
  5 36  1  0
  7 37  1  0
  7 38  1  0
  7 39  1  0
  9 40  1  0
 14 41  1  0
 15 42  1  0
 18 43  1  0
 19 44  1  0
 23 45  1  0
 23 46  1  0
 24 47  1  0
 24 48  1  0
 25 49  1  0
 26 50  1  0
 26 51  1  0
 27 52  1  0
 27 53  1  0
 28 54  1  0
 29 55  1  0
 30 56  1  0
M  END
>  <UniqueID>  (7) 
6

>  <SMILES>  (7) 
Cc1nn(C)c(C)c1NS(=O)(=O)c1ccc(-c2ccnc(N3CCNCC3)c2)cc1

>  <Energy>  (7) 
105.02309085494993

>  <Genealogy>  (7) 
Cc1nn(C)c(C)c1NS(=O)(=O)c1ccc(-c2ccnc(N3CCNCC3)c2)cc1 (3D coordinates assigned)
Cc1nn(C)c(C)c1NS(=O)(=O)c1ccc(-c2ccnc(N3CCNCC3)c2)cc1 (nonaromatic ring conformer: 105.02309085494993 kcal/mol)

>  <smiles>  (7) 
Cc1nn(C)c(C)c1NS(=O)(=O)c1ccc(-c2ccnc(N3CCNCC3)c2)cc1

>  <score_type>  (7) 
oracle

>  <origin>  (7) 
adgpu

>  <m_score__min__energy>  (7) 
-9.6600000000000001

>  <m_primary>  (7) 
energy

$$$$
7:0
     RDKit          3D

 28 29  0  0  0  0  0  0  0  0999 V2000
   -3.5298   22.6586  -30.8321 H   0  0  0  0  0  0  0  0  0  0  0  0
   -4.5550   23.0560  -30.8630 C   0  0  0  0  0  0  0  0  0  0  0  0
   -5.6100   22.2320  -31.2660 C   0  0  0  0  0  0  0  0  0  0  0  0
   -5.4117   21.1889  -31.5535 H   0  0  0  0  0  0  0  0  0  0  0  0
   -6.9190   22.7300  -31.3050 C   0  0  0  0  0  0  0  0  0  0  0  0
   -8.2460   21.6850  -31.8040 S   0  0  0  0  0  0  0  0  0  0  0  0
   -9.3600   22.5390  -32.3360 O   0  0  0  0  0  0  0  0  0  0  0  0
   -8.7590   20.8830  -30.6400 O   0  0  0  0  0  0  0  0  0  0  0  0
   -7.7190   20.6000  -33.0550 N   0  0  0  0  0  0  0  0  0  0  0  0
   -7.0930   19.4680  -32.8920 C   0  0  0  0  0  0  0  0  0  0  0  0
   -6.7620   18.9660  -31.6160 C   0  0  0  0  0  0  0  0  0  0  0  0
   -7.0370   19.5286  -30.7116 H   0  0  0  0  0  0  0  0  0  0  0  0
   -6.0840   17.7520  -31.5080 C   0  0  0  0  0  0  0  0  0  0  0  0
   -5.8199   17.3554  -30.5165 H   0  0  0  0  0  0  0  0  0  0  0  0
   -5.7410   17.0410  -32.6580 C   0  0  0  0  0  0  0  0  0  0  0  0
   -4.8130   15.3770  -32.5240 Br  0  0  0  0  0  0  0  0  0  0  0  0
   -6.0840   17.5600  -33.9060 C   0  0  0  0  0  0  0  0  0  0  0  0
   -5.8201   17.0078  -34.8201 H   0  0  0  0  0  0  0  0  0  0  0  0
   -6.7440   18.7470  -33.9980 N   0  0  0  0  0  0  0  0  0  0  0  0
   -6.9850   19.1090  -34.9490 H   0  0  0  0  0  0  0  0  0  0  0  0
   -7.1640   24.0630  -30.9440 C   0  0  0  0  0  0  0  0  0  0  0  0
   -8.1889   24.4611  -30.9781 H   0  0  0  0  0  0  0  0  0  0  0  0
   -6.1090   24.8870  -30.5410 C   0  0  0  0  0  0  0  0  0  0  0  0
   -6.3070   25.9310  -30.2566 H   0  0  0  0  0  0  0  0  0  0  0  0
   -4.8000   24.3880  -30.4980 C   0  0  0  0  0  0  0  0  0  0  0  0
   -3.7210   25.2290  -30.0840 N   0  0  0  0  0  0  0  0  0  0  0  0
   -3.0930   25.6790  -30.7860 H   0  0  0  0  0  0  0  0  0  0  0  0
   -3.5420   25.4100  -29.0700 H   0  0  0  0  0  0  0  0  0  0  0  0
  1  2  1  0
  2  3  2  0
  3  4  1  0
  3  5  1  0
  5  6  1  0
  6  7  2  0
  6  8  2  0
  6  9  1  0
  9 10  2  0
 10 11  1  0
 11 12  1  0
 11 13  2  0
 13 14  1  0
 13 15  1  0
 15 16  1  0
 15 17  2  0
 17 18  1  0
 17 19  1  0
 19 20  1  0
  5 21  2  0
 21 22  1  0
 21 23  1  0
 23 24  1  0
 23 25  2  0
 25 26  1  0
 26 27  1  0
 26 28  1  0
 25  2  1  0
 19 10  1  0
M  END
>  <UniqueID>  (8) 
7

>  <SMILES>  (8) 
Nc1ccc(S(=O)(=O)/N=c2\ccc(Br)c[nH]2)cc1

>  <Energy>  (8) 
33.18317826006648

>  <Genealogy>  (8) 
Nc1ccc(S(=O)(=O)/N=c2\ccc(Br)c[nH]2)cc1 (cis-trans isomerization)
Nc1ccc(S(=O)(=O)/N=c2\ccc(Br)c[nH]2)cc1 (3D coordinates assigned)
Nc1ccc(S(=O)(=O)/N=c2\ccc(Br)c[nH]2)cc1 (optimized conformer: 33.18317826006648 kcal/mol)

>  <smiles>  (8) 
Nc1ccc(S(=O)(=O)N=c2ccc(Br)c[nH]2)cc1

>  <score_type>  (8) 
oracle

>  <origin>  (8) 
adgpu

>  <m_score__min__energy>  (8) 
-8.5099999999999998

>  <m_primary>  (8) 
energy

$$$$
8:0
     RDKit          3D

 58 61  0  0  0  0  0  0  0  0999 V2000
   -3.0980   18.7100  -25.9920 C   0  0  0  0  0  0  0  0  0  0  0  0
   -2.3300   19.4070  -27.1110 C   0  0  0  0  0  0  0  0  0  0  0  0
   -0.9460   18.7730  -27.3110 C   0  0  0  0  0  0  0  0  0  0  0  0
    0.0050   19.6840  -28.0980 C   0  0  0  0  0  0  0  0  0  0  0  0
   -0.2040   21.1360  -27.7640 C   0  0  0  0  0  0  0  0  0  0  0  0
   -0.2290   21.5760  -26.4900 N   0  0  0  0  0  0  0  0  0  0  0  0
   -0.3880   22.9090  -26.5980 C   0  0  0  0  0  0  0  0  0  0  0  0
   -0.5020   23.8130  -25.4050 C   0  0  0  0  0  0  0  0  0  0  0  0
   -0.1380   23.0670  -24.1270 C   0  0  0  0  0  0  0  0  0  0  0  0
   -0.4580   23.2640  -27.9350 C   0  0  0  0  0  0  0  0  0  0  0  0
   -0.6310   24.6360  -28.4580 C   0  0  0  0  0  0  0  0  0  0  0  0
   -1.7100   24.9500  -29.3330 N   0  0  0  0  0  0  0  0  0  0  0  0
    0.2010   25.5330  -28.1580 O   0  0  0  0  0  0  0  0  0  0  0  0
   -0.3330   22.1350  -28.6750 N   0  0  0  0  0  0  0  0  0  0  0  0
   -0.5040   21.9750  -30.1270 C   0  0  0  0  0  0  0  0  0  0  0  0
   -1.9670   21.9480  -30.4960 C   0  0  0  0  0  0  0  0  0  0  0  0
   -2.3580   21.7870  -31.8340 C   0  0  0  0  0  0  0  0  0  0  0  0
   -3.7120   21.7630  -32.1770 C   0  0  0  0  0  0  0  0  0  0  0  0
   -4.6970   21.8810  -31.1850 C   0  0  0  0  0  0  0  0  0  0  0  0
   -6.1300   21.8740  -31.5520 C   0  0  0  0  0  0  0  0  0  0  0  0
   -6.6580   20.7090  -32.1350 C   0  0  0  0  0  0  0  0  0  0  0  0
   -8.0200   20.6100  -32.4180 C   0  0  0  0  0  0  0  0  0  0  0  0
   -8.8730   21.6700  -32.1230 C   0  0  0  0  0  0  0  0  0  0  0  0
   -8.3670   22.8420  -31.5580 C   0  0  0  0  0  0  0  0  0  0  0  0
   -6.9930   22.9710  -31.2790 C   0  0  0  0  0  0  0  0  0  0  0  0
   -6.4980   24.2670  -30.7550 C   0  0  0  0  0  0  0  0  0  0  0  0
   -5.4220   24.9310  -31.2260 N   0  0  0  0  0  0  0  0  0  0  0  0
   -5.3660   26.0450  -30.5150 N   0  0  0  0  0  0  0  0  0  0  0  0
   -6.3680   26.0590  -29.6540 N   0  0  0  0  0  0  0  0  0  0  0  0
   -7.1050   24.9690  -29.7760 N   0  0  0  0  0  0  0  0  0  0  0  0
   -4.3090   22.0420  -29.8470 C   0  0  0  0  0  0  0  0  0  0  0  0
   -2.9550   22.0670  -29.5030 C   0  0  0  0  0  0  0  0  0  0  0  0
   -2.7193   19.0537  -25.0181 H   0  0  0  0  0  0  0  0  0  0  0  0
   -4.1678   18.9520  -26.0756 H   0  0  0  0  0  0  0  0  0  0  0  0
   -2.9606   17.6218  -26.0756 H   0  0  0  0  0  0  0  0  0  0  0  0
   -2.9025   19.3220  -28.0464 H   0  0  0  0  0  0  0  0  0  0  0  0
   -2.1935   20.4631  -26.8353 H   0  0  0  0  0  0  0  0  0  0  0  0
   -0.5046   18.5693  -26.3243 H   0  0  0  0  0  0  0  0  0  0  0  0
   -1.0809   17.8477  -27.8903 H   0  0  0  0  0  0  0  0  0  0  0  0
    1.0422   19.4092  -27.8559 H   0  0  0  0  0  0  0  0  0  0  0  0
   -0.2016   19.5477  -29.1698 H   0  0  0  0  0  0  0  0  0  0  0  0
    0.1806   24.6662  -25.5319 H   0  0  0  0  0  0  0  0  0  0  0  0
   -1.5414   24.1643  -25.3256 H   0  0  0  0  0  0  0  0  0  0  0  0
   -0.4318   23.6692  -23.2546 H   0  0  0  0  0  0  0  0  0  0  0  0
   -0.6669   22.1028  -24.1020 H   0  0  0  0  0  0  0  0  0  0  0  0
    0.9475   22.8905  -24.1020 H   0  0  0  0  0  0  0  0  0  0  0  0
   -1.6020   25.6730  -30.0800 H   0  0  0  0  0  0  0  0  0  0  0  0
   -0.0179   22.8167  -30.6420 H   0  0  0  0  0  0  0  0  0  0  0  0
   -0.0463   21.0225  -30.4324 H   0  0  0  0  0  0  0  0  0  0  0  0
   -1.5936   21.6790  -32.6176 H   0  0  0  0  0  0  0  0  0  0  0  0
   -4.0075   21.6510  -33.2306 H   0  0  0  0  0  0  0  0  0  0  0  0
   -5.9903   19.8671  -32.3703 H   0  0  0  0  0  0  0  0  0  0  0  0
   -8.4208   19.6932  -32.8749 H   0  0  0  0  0  0  0  0  0  0  0  0
   -9.9488   21.5838  -32.3357 H   0  0  0  0  0  0  0  0  0  0  0  0
   -9.0492   23.6738  -31.3283 H   0  0  0  0  0  0  0  0  0  0  0  0
   -6.5570   26.8290  -28.9760 H   0  0  0  0  0  0  0  0  0  0  0  0
   -5.0745   22.1491  -29.0644 H   0  0  0  0  0  0  0  0  0  0  0  0
   -2.6604   22.1804  -28.4493 H   0  0  0  0  0  0  0  0  0  0  0  0
  1  2  1  0
  2  3  1  0
  3  4  1  0
  4  5  1  0
  5  6  2  0
  6  7  1  0
  7  8  1  0
  8  9  1  0
  7 10  2  0
 10 11  1  0
 11 12  1  0
 11 13  2  0
 10 14  1  0
 14 15  1  0
 15 16  1  0
 16 17  2  0
 17 18  1  0
 18 19  2  0
 19 20  1  0
 20 21  2  0
 21 22  1  0
 22 23  2  0
 23 24  1  0
 24 25  2  0
 25 26  1  0
 26 27  1  0
 27 28  2  0
 28 29  1  0
 29 30  1  0
 19 31  1  0
 31 32  2  0
 14  5  1  0
 32 16  1  0
 25 20  1  0
 30 26  2  0
  1 33  1  0
  1 34  1  0
  1 35  1  0
  2 36  1  0
  2 37  1  0
  3 38  1  0
  3 39  1  0
  4 40  1  0
  4 41  1  0
  8 42  1  0
  8 43  1  0
  9 44  1  0
  9 45  1  0
  9 46  1  0
 12 47  1  0
 15 48  1  0
 15 49  1  0
 17 50  1  0
 18 51  1  0
 21 52  1  0
 22 53  1  0
 23 54  1  0
 24 55  1  0
 29 56  1  0
 31 57  1  0
 32 58  1  0
M  CHG  1  12  -1
M  END
>  <UniqueID>  (9) 
8

>  <SMILES>  (9) 
CCCCc1nc(CC)c(C([NH-])=O)n1Cc1ccc(-c2ccccc2-c2nn[nH]n2)cc1

>  <Energy>  (9) 
131.92883743183003

>  <Genealogy>  (9) 
CCCCc1nc(CC)c(C([NH-])=O)n1Cc1ccc(-c2ccccc2-c2nn[nH]n2)cc1 (protonated)
CCCCc1nc(CC)c(C([NH-])=O)n1Cc1ccc(-c2ccccc2-c2nn[nH]n2)cc1 (3D coordinates assigned)
CCCCc1nc(CC)c(C([NH-])=O)n1Cc1ccc(-c2ccccc2-c2nn[nH]n2)cc1 (optimized conformer: 131.92883743183003 kcal/mol)

>  <smiles>  (9) 
CCCCc1nc(CC)c(C(N)=O)n1Cc1ccc(-c2ccccc2-c2nn[nH]n2)cc1

>  <score_type>  (9) 
oracle

>  <origin>  (9) 
adgpu

>  <m_score__min__energy>  (9) 
-13.199999999999999

>  <m_primary>  (9) 
energy

$$$$
9:0
     RDKit          3D

 56 58  0  0  0  0  0  0  0  0999 V2000
   -5.7320   18.0920  -34.8970 C   0  0  0  0  0  0  0  0  0  0  0  0
   -5.3610   19.1380  -33.9510 N   0  0  0  0  0  0  0  0  0  0  0  0
   -6.4690   19.1400  -32.6140 S   0  0  0  0  0  0  0  0  0  0  0  0
   -5.7980   18.5290  -31.4170 O   0  0  0  0  0  0  0  0  0  0  0  0
   -7.6780   18.3150  -32.9550 O   0  0  0  0  0  0  0  0  0  0  0  0
   -6.9480   20.7900  -32.2220 C   0  0  0  0  0  0  0  0  0  0  0  0
   -8.2920   21.1020  -31.9710 C   0  0  0  0  0  0  0  0  0  0  0  0
   -8.6640   22.4190  -31.6850 C   0  0  0  0  0  0  0  0  0  0  0  0
   -7.6970   23.4270  -31.6420 C   0  0  0  0  0  0  0  0  0  0  0  0
   -6.3450   23.1200  -31.8720 C   0  0  0  0  0  0  0  0  0  0  0  0
   -5.3360   24.1360  -31.8650 N   0  0  0  0  0  0  0  0  0  0  0  0
   -4.9530   24.9420  -30.7430 C   0  0  0  0  0  0  0  0  0  0  0  0
   -3.9330   25.6740  -30.8400 O   0  0  0  0  0  0  0  0  0  0  0  0
   -5.6830   24.8800  -29.4290 C   0  0  0  0  0  0  0  0  0  0  0  0
   -5.3300   23.6530  -28.7130 N   0  0  0  0  0  0  0  0  0  0  0  0
   -3.9820   23.1640  -28.5540 C   0  0  0  0  0  0  0  0  0  0  0  0
   -3.5800   21.9200  -29.0650 C   0  0  0  0  0  0  0  0  0  0  0  0
   -2.2670   21.4790  -28.8990 C   0  0  0  0  0  0  0  0  0  0  0  0
   -1.3270   22.2720  -28.2140 C   0  0  0  0  0  0  0  0  0  0  0  0
    0.0020   21.8500  -28.0400 O   0  0  0  0  0  0  0  0  0  0  0  0
    0.4510   20.5070  -28.1810 C   0  0  0  0  0  0  0  0  0  0  0  0
   -1.7220   23.5180  -27.6890 C   0  0  0  0  0  0  0  0  0  0  0  0
   -0.5190   24.5080  -26.8270 S   0  0  0  0  0  0  0  0  0  0  0  0
    0.3230   23.5860  -25.9900 O   0  0  0  0  0  0  0  0  0  0  0  0
    0.3640   25.1610  -27.8540 O   0  0  0  0  0  0  0  0  0  0  0  0
   -1.1460   25.7570  -25.7750 N   0  0  0  0  0  0  0  0  0  0  0  0
   -0.7980   25.5430  -24.3700 C   0  0  0  0  0  0  0  0  0  0  0  0
   -0.6420   26.9150  -23.7410 C   0  0  0  0  0  0  0  0  0  0  0  0
   -0.3080   27.8470  -24.8910 C   0  0  0  0  0  0  0  0  0  0  0  0
   -0.7200   27.1060  -26.1580 C   0  0  0  0  0  0  0  0  0  0  0  0
   -3.0470   23.9510  -27.8680 C   0  0  0  0  0  0  0  0  0  0  0  0
   -5.9830   21.8050  -32.1860 C   0  0  0  0  0  0  0  0  0  0  0  0
   -6.0502   17.1949  -34.3456 H   0  0  0  0  0  0  0  0  0  0  0  0
   -6.5593   18.4463  -35.5295 H   0  0  0  0  0  0  0  0  0  0  0  0
   -4.8664   17.8458  -35.5295 H   0  0  0  0  0  0  0  0  0  0  0  0
   -9.0544   20.3096  -31.9992 H   0  0  0  0  0  0  0  0  0  0  0  0
   -9.7196   22.6622  -31.4935 H   0  0  0  0  0  0  0  0  0  0  0  0
   -7.9950   24.4639  -31.4275 H   0  0  0  0  0  0  0  0  0  0  0  0
   -5.4048   25.7508  -28.8171 H   0  0  0  0  0  0  0  0  0  0  0  0
   -6.7664   24.8860  -29.6192 H   0  0  0  0  0  0  0  0  0  0  0  0
   -6.1120   23.1170  -28.2720 H   0  0  0  0  0  0  0  0  0  0  0  0
   -4.3050   21.2888  -29.5998 H   0  0  0  0  0  0  0  0  0  0  0  0
   -1.9636   20.5035  -29.3068 H   0  0  0  0  0  0  0  0  0  0  0  0
    0.5993   20.0635  -27.1853 H   0  0  0  0  0  0  0  0  0  0  0  0
   -0.3014   19.9249  -28.7333 H   0  0  0  0  0  0  0  0  0  0  0  0
    1.4022   20.4945  -28.7333 H   0  0  0  0  0  0  0  0  0  0  0  0
   -1.5978   24.9832  -23.8632 H   0  0  0  0  0  0  0  0  0  0  0  0
    0.1303   24.9599  -24.2786 H   0  0  0  0  0  0  0  0  0  0  0  0
   -1.5785   27.2243  -23.2539 H   0  0  0  0  0  0  0  0  0  0  0  0
    0.1382   26.9244  -22.9656 H   0  0  0  0  0  0  0  0  0  0  0  0
   -0.8701   28.7879  -24.7974 H   0  0  0  0  0  0  0  0  0  0  0  0
    0.7604   28.1083  -24.9037 H   0  0  0  0  0  0  0  0  0  0  0  0
   -1.5513   27.6354  -26.6466 H   0  0  0  0  0  0  0  0  0  0  0  0
    0.1233   27.0550  -26.8624 H   0  0  0  0  0  0  0  0  0  0  0  0
   -3.3559   24.9256  -27.4622 H   0  0  0  0  0  0  0  0  0  0  0  0
   -4.9320   21.5664  -32.4064 H   0  0  0  0  0  0  0  0  0  0  0  0
  1  2  1  0
  2  3  1  0
  3  4  2  0
  3  5  2  0
  3  6  1  0
  6  7  2  0
  7  8  1  0
  8  9  2  0
  9 10  1  0
 10 11  1  0
 11 12  1  0
 12 13  2  0
 12 14  1  0
 14 15  1  0
 15 16  1  0
 16 17  2  0
 17 18  1  0
 18 19  2  0
 19 20  1  0
 20 21  1  0
 19 22  1  0
 22 23  1  0
 23 24  2  0
 23 25  2  0
 23 26  1  0
 26 27  1  0
 27 28  1  0
 28 29  1  0
 29 30  1  0
 22 31  2  0
 10 32  2  0
 32  6  1  0
 31 16  1  0
 30 26  1  0
  1 33  1  0
  1 34  1  0
  1 35  1  0
  7 36  1  0
  8 37  1  0
  9 38  1  0
 14 39  1  0
 14 40  1  0
 15 41  1  0
 17 42  1  0
 18 43  1  0
 21 44  1  0
 21 45  1  0
 21 46  1  0
 27 47  1  0
 27 48  1  0
 28 49  1  0
 28 50  1  0
 29 51  1  0
 29 52  1  0
 30 53  1  0
 30 54  1  0
 31 55  1  0
 32 56  1  0
M  CHG  2   2  -1  11  -1
M  END
>  <UniqueID>  (10) 
9

>  <SMILES>  (10) 
C[N-]S(=O)(=O)c1cccc([N-]C(=O)CNc2ccc(OC)c(S(=O)(=O)N3CCCC3)c2)c1

>  <Energy>  (10) 
62.5221348607979

>  <Genealogy>  (10) 
C[N-]S(=O)(=O)c1cccc([N-]C(=O)CNc2ccc(OC)c(S(=O)(=O)N3CCCC3)c2)c1 (protonated)
C[N-]S(=O)(=O)c1cccc([N-]C(=O)CNc2ccc(OC)c(S(=O)(=O)N3CCCC3)c2)c1 (3D coordinates assigned)
C[N-]S(=O)(=O)c1cccc([N-]C(=O)CNc2ccc(OC)c(S(=O)(=O)N3CCCC3)c2)c1 (nonaromatic ring conformer: 62.5221348607979 kcal/mol)

>  <smiles>  (10) 
CNS(=O)(=O)c1cccc(NC(=O)CNc2ccc(OC)c(S(=O)(=O)N3CCCC3)c2)c1

>  <score_type>  (10) 
oracle

>  <origin>  (10) 
adgpu

>  <m_score__min__energy>  (10) 
-11.33

>  <m_primary>  (10) 
energy

$$$$
10:0
     RDKit          3D

 67 71  0  0  0  0  0  0  0  0999 V2000
    2.3410   23.8710  -36.6810 O   0  0  0  0  0  0  0  0  0  0  0  0
    1.1860   23.4890  -36.3490 C   0  0  0  0  0  0  0  0  0  0  0  0
    0.0710   24.3890  -36.4720 N   0  0  0  0  0  0  0  0  0  0  0  0
    0.2140   25.7550  -36.9720 C   0  0  0  0  0  0  0  0  0  0  0  0
   -1.1370   26.4820  -36.9530 C   0  0  0  0  0  0  0  0  0  0  0  0
   -1.2490   27.3570  -35.7620 N   0  0  0  0  0  0  0  0  0  0  0  0
    0.0720   27.6490  -35.1780 C   0  0  0  0  0  0  0  0  0  0  0  0
    0.5420   29.0010  -35.7050 C   0  0  0  0  0  0  0  0  0  0  0  0
   -0.6440   29.5880  -36.4460 C   0  0  0  0  0  0  0  0  0  0  0  0
   -1.8060   28.6720  -36.1120 C   0  0  0  0  0  0  0  0  0  0  0  0
    0.9990   22.1190  -35.8200 C   0  0  0  0  0  0  0  0  0  0  0  0
    1.9380   21.1100  -36.0870 C   0  0  0  0  0  0  0  0  0  0  0  0
    1.7530   19.8220  -35.5800 C   0  0  0  0  0  0  0  0  0  0  0  0
    0.6310   19.5240  -34.8060 C   0  0  0  0  0  0  0  0  0  0  0  0
   -0.3220   20.5190  -34.5230 C   0  0  0  0  0  0  0  0  0  0  0  0
   -1.5200   20.2000  -33.7050 C   0  0  0  0  0  0  0  0  0  0  0  0
   -1.8540   20.9780  -32.5810 C   0  0  0  0  0  0  0  0  0  0  0  0
   -2.9720   20.6590  -31.8060 C   0  0  0  0  0  0  0  0  0  0  0  0
   -3.7590   19.5500  -32.1320 C   0  0  0  0  0  0  0  0  0  0  0  0
   -3.4310   18.7500  -33.2340 C   0  0  0  0  0  0  0  0  0  0  0  0
   -4.2330   17.5980  -33.5500 N   0  0  0  0  0  0  0  0  0  0  0  0
   -3.7170   16.4740  -34.0230 N   0  0  0  0  0  0  0  0  0  0  0  0
   -4.7190   15.5790  -34.1360 C   0  0  0  0  0  0  0  0  0  0  0  0
   -4.5380   14.1690  -34.5980 C   0  0  0  0  0  0  0  0  0  0  0  0
   -5.7730   13.5850  -34.8130 F   0  0  0  0  0  0  0  0  0  0  0  0
   -3.8570   13.4510  -33.6330 F   0  0  0  0  0  0  0  0  0  0  0  0
   -3.8160   14.1420  -35.7770 F   0  0  0  0  0  0  0  0  0  0  0  0
   -5.9060   16.1430  -33.7090 C   0  0  0  0  0  0  0  0  0  0  0  0
   -5.5660   17.4340  -33.3580 C   0  0  0  0  0  0  0  0  0  0  0  0
   -6.5180   18.4720  -32.9090 C   0  0  0  0  0  0  0  0  0  0  0  0
   -7.4730   18.1880  -31.9200 C   0  0  0  0  0  0  0  0  0  0  0  0
   -8.4020   19.1580  -31.5350 C   0  0  0  0  0  0  0  0  0  0  0  0
   -8.3760   20.4390  -32.1120 C   0  0  0  0  0  0  0  0  0  0  0  0
   -9.4280   21.4550  -31.7500 C   0  0  0  0  0  0  0  0  0  0  0  0
   -9.0230   22.7040  -32.1860 F   0  0  0  0  0  0  0  0  0  0  0  0
   -9.6210   21.4970  -30.3800 F   0  0  0  0  0  0  0  0  0  0  0  0
  -10.6360   21.1390  -32.3470 F   0  0  0  0  0  0  0  0  0  0  0  0
   -7.4150   20.7220  -33.0980 C   0  0  0  0  0  0  0  0  0  0  0  0
   -6.4840   19.7530  -33.4810 C   0  0  0  0  0  0  0  0  0  0  0  0
   -2.3330   19.1010  -34.0360 C   0  0  0  0  0  0  0  0  0  0  0  0
   -0.1240   21.8180  -35.0280 C   0  0  0  0  0  0  0  0  0  0  0  0
   -0.8440   24.1310  -36.0360 H   0  0  0  0  0  0  0  0  0  0  0  0
    0.9267   26.3000  -36.3356 H   0  0  0  0  0  0  0  0  0  0  0  0
    0.5810   25.7164  -38.0082 H   0  0  0  0  0  0  0  0  0  0  0  0
   -1.2286   27.0960  -37.8611 H   0  0  0  0  0  0  0  0  0  0  0  0
   -1.9401   25.7312  -36.9148 H   0  0  0  0  0  0  0  0  0  0  0  0
   -0.0060   27.6843  -34.0813 H   0  0  0  0  0  0  0  0  0  0  0  0
    0.7906   26.8639  -35.4561 H   0  0  0  0  0  0  0  0  0  0  0  0
    0.8360   29.6562  -34.8718 H   0  0  0  0  0  0  0  0  0  0  0  0
    1.4195   28.8983  -36.3603 H   0  0  0  0  0  0  0  0  0  0  0  0
   -0.8473   30.6125  -36.1009 H   0  0  0  0  0  0  0  0  0  0  0  0
   -0.4650   29.6511  -37.5295 H   0  0  0  0  0  0  0  0  0  0  0  0
   -2.3714   29.0786  -35.2605 H   0  0  0  0  0  0  0  0  0  0  0  0
   -2.4893   28.5863  -36.9697 H   0  0  0  0  0  0  0  0  0  0  0  0
    2.8240   21.3352  -36.6987 H   0  0  0  0  0  0  0  0  0  0  0  0
    2.4955   19.0385  -35.7919 H   0  0  0  0  0  0  0  0  0  0  0  0
    0.4910   18.5054  -34.4150 H   0  0  0  0  0  0  0  0  0  0  0  0
   -1.2307   21.8431  -32.3107 H   0  0  0  0  0  0  0  0  0  0  0  0
   -3.2336   21.2815  -30.9376 H   0  0  0  0  0  0  0  0  0  0  0  0
   -4.6397   19.3048  -31.5202 H   0  0  0  0  0  0  0  0  0  0  0  0
   -6.8979   15.6700  -33.6599 H   0  0  0  0  0  0  0  0  0  0  0  0
   -7.4900   17.1958  -31.4453 H   0  0  0  0  0  0  0  0  0  0  0  0
   -9.1594   18.9171  -30.7745 H   0  0  0  0  0  0  0  0  0  0  0  0
   -7.3957   21.7145  -33.5720 H   0  0  0  0  0  0  0  0  0  0  0  0
   -5.7205   19.9955  -34.2348 H   0  0  0  0  0  0  0  0  0  0  0  0
   -2.1058   18.5088  -34.9347 H   0  0  0  0  0  0  0  0  0  0  0  0
   -0.8560   22.6070  -34.8006 H   0  0  0  0  0  0  0  0  0  0  0  0
  1  2  2  0
  2  3  1  0
  3  4  1  0
  4  5  1  0
  5  6  1  0
  6  7  1  0
  7  8  1  0
  8  9  1  0
  9 10  1  0
  2 11  1  0
 11 12  2  0
 12 13  1  0
 13 14  2  0
 14 15  1  0
 15 16  1  0
 16 17  2  0
 17 18  1  0
 18 19  2  0
 19 20  1  0
 20 21  1  0
 21 22  1  0
 22 23  2  0
 23 24  1  0
 24 25  1  0
 24 26  1  0
 24 27  1  0
 23 28  1  0
 28 29  2  0
 29 30  1  0
 30 31  2  0
 31 32  1  0
 32 33  2  0
 33 34  1  0
 34 35  1  0
 34 36  1  0
 34 37  1  0
 33 38  1  0
 38 39  2  0
 20 40  2  0
 15 41  2  0
 10  6  1  0
 41 11  1  0
 40 16  1  0
 29 21  1  0
 39 30  1  0
  3 42  1  0
  4 43  1  0
  4 44  1  0
  5 45  1  0
  5 46  1  0
  7 47  1  0
  7 48  1  0
  8 49  1  0
  8 50  1  0
  9 51  1  0
  9 52  1  0
 10 53  1  0
 10 54  1  0
 12 55  1  0
 13 56  1  0
 14 57  1  0
 17 58  1  0
 18 59  1  0
 19 60  1  0
 28 61  1  0
 31 62  1  0
 32 63  1  0
 38 64  1  0
 39 65  1  0
 40 66  1  0
 41 67  1  0
M  END
>  <UniqueID>  (11) 
10

>  <SMILES>  (11) 
O=C(NCCN1CCCC1)c1cccc(-c2cccc(-n3nc(C(F)(F)F)cc3-c3ccc(C(F)(F)F)cc3)c2)c1

>  <Energy>  (11) 
116.74735928349267

>  <Genealogy>  (11) 
O=C(NCCN1CCCC1)c1cccc(-c2cccc(-n3nc(C(F)(F)F)cc3-c3ccc(C(F)(F)F)cc3)c2)c1 (3D coordinates assigned)
O=C(NCCN1CCCC1)c1cccc(-c2cccc(-n3nc(C(F)(F)F)cc3-c3ccc(C(F)(F)F)cc3)c2)c1 (nonaromatic ring conformer: 116.74735928349267 kcal/mol)

>  <smiles>  (11) 
O=C(NCCN1CCCC1)c1cccc(-c2cccc(-n3nc(C(F)(F)F)cc3-c3ccc(C(F)(F)F)cc3)c2)c1

>  <score_type>  (11) 
oracle

>  <origin>  (11) 
adgpu

>  <m_score__min__energy>  (11) 
-10.41

>  <m_primary>  (11) 
energy

$$$$
11:0
     RDKit          3D

 50 52  0  0  0  0  0  0  0  0999 V2000
   -3.1357   22.5172  -31.9506 H   0  0  0  0  0  0  0  0  0  0  0  0
   -4.1930   22.6440  -31.6750 C   0  0  0  0  0  0  0  0  0  0  0  0
   -5.1400   21.7070  -32.0970 C   0  0  0  0  0  0  0  0  0  0  0  0
   -4.8252   20.8456  -32.7043 H   0  0  0  0  0  0  0  0  0  0  0  0
   -6.4880   21.8600  -31.7500 C   0  0  0  0  0  0  0  0  0  0  0  0
   -7.6720   20.6680  -32.2740 S   0  0  0  0  0  0  0  0  0  0  0  0
   -9.0390   21.2040  -31.9580 O   0  0  0  0  0  0  0  0  0  0  0  0
   -7.5870   20.4330  -33.7560 O   0  0  0  0  0  0  0  0  0  0  0  0
   -7.4700   19.1680  -31.4240 N   0  0  0  0  0  0  0  0  0  0  0  0
   -6.6350   18.1910  -31.6390 C   0  0  0  0  0  0  0  0  0  0  0  0
   -6.6120   17.1290  -30.8660 O   0  0  0  0  0  0  0  0  0  0  0  0
   -5.7110   16.2860  -31.2670 N   0  0  0  0  0  0  0  0  0  0  0  0
   -5.5090   15.3680  -30.8120 H   0  0  0  0  0  0  0  0  0  0  0  0
   -5.1080   16.7980  -32.3550 C   0  0  0  0  0  0  0  0  0  0  0  0
   -4.0140   16.1070  -33.1080 C   0  0  0  0  0  0  0  0  0  0  0  0
   -3.3050   15.6592  -32.3961 H   0  0  0  0  0  0  0  0  0  0  0  0
   -4.4462   15.3177  -33.7406 H   0  0  0  0  0  0  0  0  0  0  0  0
   -3.4869   16.8364  -33.7406 H   0  0  0  0  0  0  0  0  0  0  0  0
   -5.6620   18.0410  -32.6370 C   0  0  0  0  0  0  0  0  0  0  0  0
   -5.3100   18.9030  -33.8130 C   0  0  0  0  0  0  0  0  0  0  0  0
   -4.9166   19.8665  -33.4567 H   0  0  0  0  0  0  0  0  0  0  0  0
   -4.5462   18.3978  -34.4224 H   0  0  0  0  0  0  0  0  0  0  0  0
   -6.2091   19.0769  -34.4224 H   0  0  0  0  0  0  0  0  0  0  0  0
   -6.8820   22.9590  -30.9770 C   0  0  0  0  0  0  0  0  0  0  0  0
   -7.9397   23.0845  -30.7024 H   0  0  0  0  0  0  0  0  0  0  0  0
   -5.9370   23.8970  -30.5530 C   0  0  0  0  0  0  0  0  0  0  0  0
   -6.2549   24.7563  -29.9443 H   0  0  0  0  0  0  0  0  0  0  0  0
   -4.5880   23.7500  -30.8980 C   0  0  0  0  0  0  0  0  0  0  0  0
   -3.6500   24.7340  -30.4390 N   0  0  0  0  0  0  0  0  0  0  0  0
   -2.7220   24.6250  -28.9790 S   0  0  0  0  0  0  0  0  0  0  0  0
   -3.6110   24.9100  -27.8010 O   0  0  0  0  0  0  0  0  0  0  0  0
   -1.6240   25.6500  -29.0130 O   0  0  0  0  0  0  0  0  0  0  0  0
   -2.0000   23.0240  -28.8550 C   0  0  0  0  0  0  0  0  0  0  0  0
   -0.6120   22.8530  -28.9490 C   0  0  0  0  0  0  0  0  0  0  0  0
    0.0379   23.7259  -29.1091 H   0  0  0  0  0  0  0  0  0  0  0  0
   -0.0500   21.5770  -28.8400 C   0  0  0  0  0  0  0  0  0  0  0  0
    1.0403   21.4503  -28.9114 H   0  0  0  0  0  0  0  0  0  0  0  0
   -0.8760   20.4530  -28.6390 C   0  0  0  0  0  0  0  0  0  0  0  0
   -0.3690   19.1470  -28.5270 O   0  0  0  0  0  0  0  0  0  0  0  0
    0.8690   18.7870  -27.9140 C   0  0  0  0  0  0  0  0  0  0  0  0
    0.9863   19.3528  -26.9780 H   0  0  0  0  0  0  0  0  0  0  0  0
    1.6888   19.0230  -28.6084 H   0  0  0  0  0  0  0  0  0  0  0  0
    0.9040   17.2940  -27.6040 C   0  0  0  0  0  0  0  0  0  0  0  0
    0.9075   17.1458  -26.5140 H   0  0  0  0  0  0  0  0  0  0  0  0
    0.0170   16.8087  -28.0372 H   0  0  0  0  0  0  0  0  0  0  0  0
    1.8128   16.8508  -28.0372 H   0  0  0  0  0  0  0  0  0  0  0  0
   -2.2610   20.6340  -28.5410 C   0  0  0  0  0  0  0  0  0  0  0  0
   -2.9142   19.7641  -28.3775 H   0  0  0  0  0  0  0  0  0  0  0  0
   -2.8210   21.9100  -28.6490 C   0  0  0  0  0  0  0  0  0  0  0  0
   -3.9107   22.0388  -28.5718 H   0  0  0  0  0  0  0  0  0  0  0  0
  1  2  1  0
  2  3  2  0
  3  4  1  0
  3  5  1  0
  5  6  1  0
  6  7  2  0
  6  8  2  0
  6  9  1  0
  9 10  2  0
 10 11  1  0
 11 12  1  0
 12 13  1  0
 12 14  1  0
 14 15  1  0
 15 16  1  0
 15 17  1  0
 15 18  1  0
 14 19  2  0
 19 20  1  0
 20 21  1  0
 20 22  1  0
 20 23  1  0
  5 24  2  0
 24 25  1  0
 24 26  1  0
 26 27  1  0
 26 28  2  0
 28 29  1  0
 29 30  1  0
 30 31  2  0
 30 32  2  0
 30 33  1  0
 33 34  2  0
 34 35  1  0
 34 36  1  0
 36 37  1  0
 36 38  2  0
 38 39  1  0
 39 40  1  0
 40 41  1  0
 40 42  1  0
 40 43  1  0
 43 44  1  0
 43 45  1  0
 43 46  1  0
 38 47  1  0
 47 48  1  0
 47 49  2  0
 49 50  1  0
 28  2  1  0
 49 33  1  0
 19 10  1  0
M  CHG  1  29  -1
M  END
>  <UniqueID>  (12) 
11

>  <SMILES>  (12) 
CCOc1ccc(S(=O)(=O)[N-]c2ccc(S(=O)(=O)/N=c3/o[nH]c(C)c3C)cc2)cc1

>  <Energy>  (12) 
92.98464968894591

>  <Genealogy>  (12) 
CCOc1ccc(S(=O)(=O)[N-]c2ccc(S(=O)(=O)N=c3o[nH]c(C)c3C)cc2)cc1 (protonated)
CCOc1ccc(S(=O)(=O)[N-]c2ccc(S(=O)(=O)/N=c3/o[nH]c(C)c3C)cc2)cc1 (cis-trans isomerization)
CCOc1ccc(S(=O)(=O)[N-]c2ccc(S(=O)(=O)/N=c3/o[nH]c(C)c3C)cc2)cc1 (3D coordinates assigned)
CCOc1ccc(S(=O)(=O)[N-]c2ccc(S(=O)(=O)/N=c3/o[nH]c(C)c3C)cc2)cc1 (optimized conformer: 92.98464968894591 kcal/mol)

>  <smiles>  (12) 
CCOc1ccc(S(=O)(=O)Nc2ccc(S(=O)(=O)N=c3o[nH]c(C)c3C)cc2)cc1

>  <score_type>  (12) 
oracle

>  <origin>  (12) 
adgpu

>  <m_score__min__energy>  (12) 
-10.460000000000001

>  <m_primary>  (12) 
energy

$$$$
12:0
     RDKit          3D

 33 35  0  0  0  0  0  0  0  0999 V2000
   -2.2450   23.1700  -29.6690 O   0  0  0  0  0  0  0  0  0  0  0  0
   -2.5640   24.3840  -29.5680 C   0  0  0  0  0  0  0  0  0  0  0  0
   -3.5660   24.9130  -30.4440 N   0  0  0  0  0  0  0  0  0  0  0  0
   -4.7740   24.2510  -30.8410 C   0  0  0  0  0  0  0  0  0  0  0  0
   -6.0030   24.7790  -30.4290 C   0  0  0  0  0  0  0  0  0  0  0  0
   -7.1990   24.1790  -30.8320 C   0  0  0  0  0  0  0  0  0  0  0  0
   -7.1750   23.0510  -31.6550 C   0  0  0  0  0  0  0  0  0  0  0  0
   -5.9540   22.5090  -32.0820 C   0  0  0  0  0  0  0  0  0  0  0  0
   -5.9550   21.3670  -32.9580 N   0  0  0  0  0  0  0  0  0  0  0  0
   -6.7580   20.1950  -32.7420 C   0  0  0  0  0  0  0  0  0  0  0  0
   -7.7400   20.2360  -31.9530 O   0  0  0  0  0  0  0  0  0  0  0  0
   -6.4780   18.9430  -33.4620 C   0  0  0  0  0  0  0  0  0  0  0  0
   -6.9100   17.6760  -33.1180 C   0  0  0  0  0  0  0  0  0  0  0  0
   -6.4080   16.8350  -34.0880 C   0  0  0  0  0  0  0  0  0  0  0  0
   -5.7060   17.6360  -34.9640 C   0  0  0  0  0  0  0  0  0  0  0  0
   -5.7660   18.8870  -34.5650 O   0  0  0  0  0  0  0  0  0  0  0  0
   -4.7540   23.1330  -31.6950 C   0  0  0  0  0  0  0  0  0  0  0  0
   -1.8500   25.2410  -28.6030 C   0  0  0  0  0  0  0  0  0  0  0  0
   -1.7050   24.9890  -27.2520 C   0  0  0  0  0  0  0  0  0  0  0  0
   -0.9650   26.0410  -26.7550 C   0  0  0  0  0  0  0  0  0  0  0  0
   -0.7000   26.8650  -27.8310 C   0  0  0  0  0  0  0  0  0  0  0  0
   -1.2390   26.3600  -28.9170 O   0  0  0  0  0  0  0  0  0  0  0  0
   -6.0276   25.6704  -29.7850 H   0  0  0  0  0  0  0  0  0  0  0  0
   -8.1613   24.5961  -30.5003 H   0  0  0  0  0  0  0  0  0  0  0  0
   -8.1200   22.5846  -31.9704 H   0  0  0  0  0  0  0  0  0  0  0  0
   -5.4170   21.4410  -33.8500 H   0  0  0  0  0  0  0  0  0  0  0  0
   -7.5262   17.3968  -32.2506 H   0  0  0  0  0  0  0  0  0  0  0  0
   -6.5406   15.7448  -34.1507 H   0  0  0  0  0  0  0  0  0  0  0  0
   -5.1762   17.2818  -35.8606 H   0  0  0  0  0  0  0  0  0  0  0  0
   -3.7930   22.7440  -32.0628 H   0  0  0  0  0  0  0  0  0  0  0  0
   -2.0979   24.1287  -26.6903 H   0  0  0  0  0  0  0  0  0  0  0  0
   -0.6495   26.1931  -25.7122 H   0  0  0  0  0  0  0  0  0  0  0  0
   -0.1250   27.8017  -27.7855 H   0  0  0  0  0  0  0  0  0  0  0  0
  1  2  2  0
  2  3  1  0
  3  4  1  0
  4  5  2  0
  5  6  1  0
  6  7  2  0
  7  8  1  0
  8  9  1  0
  9 10  1  0
 10 11  2  0
 10 12  1  0
 12 13  2  0
 13 14  1  0
 14 15  2  0
 15 16  1  0
  8 17  2  0
  2 18  1  0
 18 19  2  0
 19 20  1  0
 20 21  2  0
 21 22  1  0
 17  4  1  0
 22 18  1  0
 16 12  1  0
  5 23  1  0
  6 24  1  0
  7 25  1  0
  9 26  1  0
 13 27  1  0
 14 28  1  0
 15 29  1  0
 17 30  1  0
 19 31  1  0
 20 32  1  0
 21 33  1  0
M  CHG  1   3  -1
M  END
>  <UniqueID>  (13) 
12

>  <SMILES>  (13) 
O=C([N-]c1cccc(NC(=O)c2ccco2)c1)c1ccco1

>  <Energy>  (13) 
93.73757517250193

>  <Genealogy>  (13) 
O=C([N-]c1cccc(NC(=O)c2ccco2)c1)c1ccco1 (protonated)
O=C([N-]c1cccc(NC(=O)c2ccco2)c1)c1ccco1 (3D coordinates assigned)
O=C([N-]c1cccc(NC(=O)c2ccco2)c1)c1ccco1 (optimized conformer: 93.73757517250193 kcal/mol)

>  <smiles>  (13) 
O=C(Nc1cccc(NC(=O)c2ccco2)c1)c1ccco1

>  <score_type>  (13) 
oracle

>  <origin>  (13) 
adgpu

>  <m_score__min__energy>  (13) 
-9.2699999999999996

>  <m_primary>  (13) 
energy

$$$$
13:0
     RDKit          3D

 39 41  0  0  0  0  0  0  0  0999 V2000
   -8.7210   18.6040  -31.7170 C   0  0  0  0  0  0  0  0  0  0  0  0
   -8.7940   19.7190  -32.6510 N   0  0  0  0  0  0  0  0  0  0  0  0
   -8.5910   21.0930  -32.3020 C   0  0  0  0  0  0  0  0  0  0  0  0
   -9.5960   21.8420  -32.1780 O   0  0  0  0  0  0  0  0  0  0  0  0
   -7.2480   21.6510  -32.0430 C   0  0  0  0  0  0  0  0  0  0  0  0
   -7.0950   22.9200  -31.4680 C   0  0  0  0  0  0  0  0  0  0  0  0
   -5.8190   23.4330  -31.2160 C   0  0  0  0  0  0  0  0  0  0  0  0
   -4.6740   22.6820  -31.5260 C   0  0  0  0  0  0  0  0  0  0  0  0
   -3.3740   23.2450  -31.2660 N   0  0  0  0  0  0  0  0  0  0  0  0
   -2.2650   22.5050  -30.6610 C   0  0  0  0  0  0  0  0  0  0  0  0
   -1.8980   23.0990  -29.3740 N   0  0  0  0  0  0  0  0  0  0  0  0
   -1.1660   22.5240  -28.3960 C   0  0  0  0  0  0  0  0  0  0  0  0
   -0.6590   21.2300  -28.4540 O   0  0  0  0  0  0  0  0  0  0  0  0
   -0.9880   23.4030  -27.3470 C   0  0  0  0  0  0  0  0  0  0  0  0
   -1.6230   24.5670  -27.7010 C   0  0  0  0  0  0  0  0  0  0  0  0
   -2.1640   24.3550  -28.9530 C   0  0  0  0  0  0  0  0  0  0  0  0
   -2.8760   25.2960  -29.6900 O   0  0  0  0  0  0  0  0  0  0  0  0
   -1.6510   25.7980  -26.8550 C   0  0  0  0  0  0  0  0  0  0  0  0
   -0.9560   25.5800  -25.5260 C   0  0  0  0  0  0  0  0  0  0  0  0
   -0.3300   24.4340  -25.1770 C   0  0  0  0  0  0  0  0  0  0  0  0
   -0.2390   23.2110  -26.0680 C   0  0  0  0  0  0  0  0  0  0  0  0
   -4.8310   21.3960  -32.0740 C   0  0  0  0  0  0  0  0  0  0  0  0
   -6.1070   20.8850  -32.3250 C   0  0  0  0  0  0  0  0  0  0  0  0
   -8.7461   18.9870  -30.6861 H   0  0  0  0  0  0  0  0  0  0  0  0
   -9.5771   17.9327  -31.8797 H   0  0  0  0  0  0  0  0  0  0  0  0
   -7.7847   18.0501  -31.8797 H   0  0  0  0  0  0  0  0  0  0  0  0
   -7.9840   23.5158  -31.2135 H   0  0  0  0  0  0  0  0  0  0  0  0
   -5.7113   24.4333  -30.7712 H   0  0  0  0  0  0  0  0  0  0  0  0
   -3.1810   24.2250  -31.5760 H   0  0  0  0  0  0  0  0  0  0  0  0
   -2.5694   21.4596  -30.5043 H   0  0  0  0  0  0  0  0  0  0  0  0
   -1.3968   22.5485  -31.3350 H   0  0  0  0  0  0  0  0  0  0  0  0
   -1.1438   26.6122  -27.3933 H   0  0  0  0  0  0  0  0  0  0  0  0
   -2.7021   26.0530  -26.6548 H   0  0  0  0  0  0  0  0  0  0  0  0
   -0.9613   26.4062  -24.7998 H   0  0  0  0  0  0  0  0  0  0  0  0
    0.1427   24.3859  -24.1849 H   0  0  0  0  0  0  0  0  0  0  0  0
    0.8186   23.0165  -26.2998 H   0  0  0  0  0  0  0  0  0  0  0  0
   -0.6873   22.3615  -25.5319 H   0  0  0  0  0  0  0  0  0  0  0  0
   -3.9437   20.7889  -32.3064 H   0  0  0  0  0  0  0  0  0  0  0  0
   -6.2177   19.8751  -32.7467 H   0  0  0  0  0  0  0  0  0  0  0  0
  1  2  1  0
  2  3  1  0
  3  4  2  0
  3  5  1  0
  5  6  2  0
  6  7  1  0
  7  8  2  0
  8  9  1  0
  9 10  1  0
 10 11  1  0
 11 12  1  0
 12 13  1  0
 12 14  2  0
 14 15  1  0
 15 16  2  0
 16 17  1  0
 15 18  1  0
 18 19  1  0
 19 20  2  0
 20 21  1  0
  8 22  1  0
 22 23  2  0
 23  5  1  0
 16 11  1  0
 21 14  1  0
  1 24  1  0
  1 25  1  0
  1 26  1  0
  6 27  1  0
  7 28  1  0
  9 29  1  0
 10 30  1  0
 10 31  1  0
 18 32  1  0
 18 33  1  0
 19 34  1  0
 20 35  1  0
 21 36  1  0
 21 37  1  0
 22 38  1  0
 23 39  1  0
M  CHG  3   2  -1  13  -1  17  -1
M  END
>  <UniqueID>  (14) 
13

>  <SMILES>  (14) 
C[N-]C(=O)c1ccc(NCn2c([O-])c3c(c2[O-])CC=CC3)cc1

>  <Energy>  (14) 
75.71583667159229

>  <Genealogy>  (14) 
C[N-]C(=O)c1ccc(NCn2c([O-])c3c(c2[O-])CC=CC3)cc1 (protonated)
C[N-]C(=O)c1ccc(NCn2c([O-])c3c(c2[O-])CC=CC3)cc1 (3D coordinates assigned)
C[N-]C(=O)c1ccc(NCn2c([O-])c3c(c2[O-])CC=CC3)cc1 (nonaromatic ring conformer: 75.71583667159229 kcal/mol)

>  <smiles>  (14) 
CNC(=O)c1ccc(NCn2c(O)c3c(c2O)CC=CC3)cc1

>  <score_type>  (14) 
oracle

>  <origin>  (14) 
adgpu

>  <m_score__min__energy>  (14) 
-9.9600000000000009

>  <m_primary>  (14) 
energy

$$$$
14:0
     RDKit          3D

 47 50  0  0  0  0  0  0  0  0999 V2000
   -2.3130   23.1380  -29.2420 O   0  0  0  0  0  0  0  0  0  0  0  0
   -3.0760   23.1180  -30.2520 C   0  0  0  0  0  0  0  0  0  0  0  0
   -4.2310   24.0450  -30.2770 C   0  0  0  0  0  0  0  0  0  0  0  0
   -5.4990   23.7580  -29.7980 C   0  0  0  0  0  0  0  0  0  0  0  0
   -6.2250   24.9220  -29.9640 C   0  0  0  0  0  0  0  0  0  0  0  0
   -5.3680   25.8330  -30.5530 C   0  0  0  0  0  0  0  0  0  0  0  0
   -4.1850   25.2850  -30.7210 O   0  0  0  0  0  0  0  0  0  0  0  0
   -2.7540   22.2590  -31.3770 N   0  0  0  0  0  0  0  0  0  0  0  0
   -3.8910   22.2830  -32.3310 C   0  0  0  0  0  0  0  0  0  0  0  0
   -3.6790   21.3080  -33.4820 C   0  0  0  0  0  0  0  0  0  0  0  0
   -3.4070   19.9710  -32.9610 N   0  0  0  0  0  0  0  0  0  0  0  0
   -3.5600   18.8440  -33.8210 C   0  0  0  0  0  0  0  0  0  0  0  0
   -4.6390   18.1960  -34.4020 C   0  0  0  0  0  0  0  0  0  0  0  0
   -6.0600   18.3250  -34.3520 N   0  0  0  0  0  0  0  0  0  0  0  0
   -6.7960   18.1350  -33.1020 C   0  0  0  0  0  0  0  0  0  0  0  0
   -7.4580   19.4180  -32.6870 C   0  0  0  0  0  0  0  0  0  0  0  0
   -8.8410   19.4540  -32.4470 C   0  0  0  0  0  0  0  0  0  0  0  0
   -9.4590   20.6500  -32.0720 C   0  0  0  0  0  0  0  0  0  0  0  0
   -8.7010   21.8190  -31.9430 C   0  0  0  0  0  0  0  0  0  0  0  0
   -9.2970   22.9740  -31.5650 F   0  0  0  0  0  0  0  0  0  0  0  0
   -7.3270   21.7940  -32.1990 C   0  0  0  0  0  0  0  0  0  0  0  0
   -6.7070   20.6010  -32.5780 C   0  0  0  0  0  0  0  0  0  0  0  0
   -3.7690   17.3340  -35.0440 C   0  0  0  0  0  0  0  0  0  0  0  0
   -3.9010   16.3520  -35.8250 O   0  0  0  0  0  0  0  0  0  0  0  0
   -2.6960   17.9870  -34.4730 C   0  0  0  0  0  0  0  0  0  0  0  0
   -1.4450   17.8640  -34.5420 O   0  0  0  0  0  0  0  0  0  0  0  0
   -3.1730   19.7580  -31.5290 C   0  0  0  0  0  0  0  0  0  0  0  0
   -2.3170   20.8970  -30.9430 C   0  0  0  0  0  0  0  0  0  0  0  0
   -5.8526   22.8060  -29.3754 H   0  0  0  0  0  0  0  0  0  0  0  0
   -7.2752   25.0902  -29.6835 H   0  0  0  0  0  0  0  0  0  0  0  0
   -5.6356   26.8612  -30.8380 H   0  0  0  0  0  0  0  0  0  0  0  0
   -1.9420   22.6960  -31.8800 H   0  0  0  0  0  0  0  0  0  0  0  0
   -4.8118   22.0083  -31.7957 H   0  0  0  0  0  0  0  0  0  0  0  0
   -3.9672   23.2974  -32.7495 H   0  0  0  0  0  0  0  0  0  0  0  0
   -4.5845   21.2785  -34.1058 H   0  0  0  0  0  0  0  0  0  0  0  0
   -2.8214   21.6419  -34.0845 H   0  0  0  0  0  0  0  0  0  0  0  0
   -6.5850   18.3300  -35.2520 H   0  0  0  0  0  0  0  0  0  0  0  0
   -7.5638   17.3608  -33.2470 H   0  0  0  0  0  0  0  0  0  0  0  0
   -6.0921   17.8248  -32.3157 H   0  0  0  0  0  0  0  0  0  0  0  0
   -9.4400   18.5377  -32.5545 H   0  0  0  0  0  0  0  0  0  0  0  0
  -10.5416   20.6724  -31.8782 H   0  0  0  0  0  0  0  0  0  0  0  0
   -6.7333   22.7149  -32.1019 H   0  0  0  0  0  0  0  0  0  0  0  0
   -5.6280   20.5874  -32.7917 H   0  0  0  0  0  0  0  0  0  0  0  0
   -4.1400   19.7268  -31.0056 H   0  0  0  0  0  0  0  0  0  0  0  0
   -2.6365   18.8070  -31.3954 H   0  0  0  0  0  0  0  0  0  0  0  0
   -2.3753   20.8464  -29.8457 H   0  0  0  0  0  0  0  0  0  0  0  0
   -1.2917   20.7537  -31.3149 H   0  0  0  0  0  0  0  0  0  0  0  0
  1  2  2  0
  2  3  1  0
  3  4  2  0
  4  5  1  0
  5  6  2  0
  6  7  1  0
  2  8  1  0
  8  9  1  0
  9 10  1  0
 10 11  1  0
 11 12  1  0
 12 13  2  0
 13 14  1  0
 14 15  1  0
 15 16  1  0
 16 17  2  0
 17 18  1  0
 18 19  2  0
 19 20  1  0
 19 21  1  0
 21 22  2  0
 13 23  1  0
 23 24  2  0
 23 25  1  0
 25 26  2  0
 11 27  1  0
 27 28  1  0
  7  3  1  0
 28  8  1  0
 25 12  1  0
 22 16  1  0
  4 29  1  0
  5 30  1  0
  6 31  1  0
  8 32  1  0
  9 33  1  0
  9 34  1  0
 10 35  1  0
 10 36  1  0
 14 37  1  0
 15 38  1  0
 15 39  1  0
 17 40  1  0
 18 41  1  0
 21 42  1  0
 22 43  1  0
 27 44  1  0
 27 45  1  0
 28 46  1  0
 28 47  1  0
M  CHG  1   8   1
M  END
>  <UniqueID>  (15) 
14

>  <SMILES>  (15) 
O=C(c1ccco1)[NH+]1CCN(c2c(NCc3ccc(F)cc3)c(=O)c2=O)CC1

>  <Energy>  (15) 
78.65495474167842

>  <Genealogy>  (15) 
O=C(c1ccco1)[NH+]1CCN(c2c(NCc3ccc(F)cc3)c(=O)c2=O)CC1 (protonated)
O=C(c1ccco1)[NH+]1CCN(c2c(NCc3ccc(F)cc3)c(=O)c2=O)CC1 (3D coordinates assigned)
O=C(c1ccco1)[NH+]1CCN(c2c(NCc3ccc(F)cc3)c(=O)c2=O)CC1 (nonaromatic ring conformer: 78.65495474167842 kcal/mol)

>  <smiles>  (15) 
O=C(c1ccco1)N1CCN(c2c(NCc3ccc(F)cc3)c(=O)c2=O)CC1

>  <score_type>  (15) 
oracle

>  <origin>  (15) 
adgpu

>  <m_score__min__energy>  (15) 
-8.2400000000000002

>  <m_primary>  (15) 
energy

$$$$
15:0
     RDKit          3D

 41 43  0  0  1  0  0  0  0  0999 V2000
   -2.4390   24.2520  -28.4670 C   0  0  0  0  0  0  0  0  0  0  0  0
   -3.1660   23.3760  -29.4140 C   0  0  0  0  0  0  0  0  0  0  0  0
   -3.1920   22.0090  -29.2640 C   0  0  0  0  0  0  0  0  0  0  0  0
   -3.8590   21.1730  -30.1290 C   0  0  0  0  0  0  0  0  0  0  0  0
   -4.5220   21.7410  -31.1850 C   0  0  0  0  0  0  0  0  0  0  0  0
   -5.2440   20.9790  -32.1440 N   0  0  0  0  0  0  0  0  0  0  0  0
   -6.5170   21.0380  -32.1370 C   0  0  0  0  0  0  0  0  0  0  0  0
   -7.2040   21.8140  -31.2370 C   0  0  0  0  0  0  0  0  0  0  0  0
   -8.5990   21.8570  -31.2580 C   0  0  0  0  0  0  0  0  0  0  0  0
   -9.2300   21.1230  -32.1780 N   0  0  0  0  0  0  0  0  0  0  0  0
   -8.5650   20.3890  -33.0280 N   0  0  0  0  0  0  0  0  0  0  0  0
   -7.2190   20.3170  -33.0450 C   0  0  0  0  0  0  0  0  0  0  0  0
   -6.6340   19.5940  -33.8870 N   0  0  0  0  0  0  0  0  0  0  0  0
   -5.2630   19.3600  -34.0990 C   0  0  0  0  0  0  0  0  0  0  0  0
   -4.8090   18.0110  -33.6400 C   0  0  0  0  0  0  0  0  0  0  0  0
   -3.6250   17.4440  -34.0440 C   0  0  0  0  0  0  0  0  0  0  0  0
   -3.2150   16.1780  -33.6120 C   0  0  0  0  0  0  0  0  0  0  0  0
   -3.9990   15.4410  -32.7540 C   0  0  0  0  0  0  0  0  0  0  0  0
   -5.1910   15.9910  -32.3360 C   0  0  0  0  0  0  0  0  0  0  0  0
   -5.5820   17.2370  -32.7670 C   0  0  0  0  0  0  0  0  0  0  0  0
   -4.5010   23.1140  -31.3450 C   0  0  0  0  0  0  0  0  0  0  0  0
   -3.8320   23.9540  -30.4780 C   0  0  0  0  0  0  0  0  0  0  0  0
   -3.8450   25.3360  -30.6870 O   0  0  0  0  0  0  0  0  0  0  0  0
   -2.6826   23.9585  -27.4352 H   0  0  0  0  0  0  0  0  0  0  0  0
   -1.3561   24.1505  -28.6311 H   0  0  0  0  0  0  0  0  0  0  0  0
   -2.7383   25.2977  -28.6311 H   0  0  0  0  0  0  0  0  0  0  0  0
   -2.6549   21.5640  -28.4134 H   0  0  0  0  0  0  0  0  0  0  0  0
   -3.8601   20.0834  -29.9778 H   0  0  0  0  0  0  0  0  0  0  0  0
   -6.6509   22.4066  -30.4934 H   0  0  0  0  0  0  0  0  0  0  0  0
   -9.1597   22.4746  -30.5409 H   0  0  0  0  0  0  0  0  0  0  0  0
  -10.2780   21.1200  -32.2350 H   0  0  0  0  0  0  0  0  0  0  0  0
   -9.1110   19.8200  -33.7430 H   0  0  0  0  0  0  0  0  0  0  0  0
   -5.0573   19.4485  -35.1760 H   0  0  0  0  0  0  0  0  0  0  0  0
   -4.7126   20.1052  -33.5059 H   0  0  0  0  0  0  0  0  0  0  0  0
   -2.9758   18.0055  -34.7319 H   0  0  0  0  0  0  0  0  0  0  0  0
   -2.2562   15.7675  -33.9617 H   0  0  0  0  0  0  0  0  0  0  0  0
   -3.6838   14.4440  -32.4126 H   0  0  0  0  0  0  0  0  0  0  0  0
   -5.8382   15.4263  -31.6488 H   0  0  0  0  0  0  0  0  0  0  0  0
   -6.5410   17.6416  -32.4112 H   0  0  0  0  0  0  0  0  0  0  0  0
   -5.0390   23.5546  -32.1973 H   0  0  0  0  0  0  0  0  0  0  0  0
   -4.1890   25.6740  -31.5930 H   0  0  0  0  0  0  0  0  0  0  0  0
  1  2  1  0
  2  3  2  0
  3  4  1  0
  4  5  2  0
  5  6  1  0
  6  7  2  0
  7  8  1  0
  8  9  2  0
  9 10  1  0
 10 11  1  0
 11 12  1  0
 12 13  2  0
 13 14  1  0
 14 15  1  0
 15 16  2  0
 16 17  1  0
 17 18  2  0
 18 19  1  0
 19 20  2  0
  5 21  1  0
 21 22  2  0
 22 23  1  0
 22  2  1  0
 12  7  1  0
 20 15  1  0
  1 24  1  0
  1 25  1  0
  1 26  1  0
  3 27  1  0
  4 28  1  0
  8 29  1  0
  9 30  1  0
 10 31  1  0
 11 32  1  0
 14 33  1  0
 14 34  1  0
 16 35  1  0
 17 36  1  0
 18 37  1  0
 19 38  1  0
 20 39  1  0
 21 40  1  0
 23 41  1  0
M  END
>  <smiles>  (16) 
Cc1ccc(N=c2cc[nH][nH]c2=NCc2ccccc2)cc1O

>  <score_type>  (16) 
oracle

>  <origin>  (16) 
adgpu

>  <m_score__min__energy>  (16) 
-9.0299999999999994

>  <m_primary>  (16) 
energy

$$$$
16:0
     RDKit          3D

 42 45  0  0  0  0  0  0  0  0999 V2000
   -3.9940   23.0380  -27.5650 H   0  0  0  0  0  0  0  0  0  0  0  0
   -4.5820   22.9730  -28.4260 N   0  0  0  0  0  0  0  0  0  0  0  0
   -4.4910   23.8570  -29.3670 C   0  0  0  0  0  0  0  0  0  0  0  0
   -5.2020   23.8900  -30.5450 C   0  0  0  0  0  0  0  0  0  0  0  0
   -6.2440   22.9360  -30.9970 C   0  0  0  0  0  0  0  0  0  0  0  0
   -7.5280   23.3380  -31.1770 N   0  0  0  0  0  0  0  0  0  0  0  0
   -8.1440   22.2290  -31.6040 C   0  0  0  0  0  0  0  0  0  0  0  0
   -9.4840   22.0980  -31.9450 C   0  0  0  0  0  0  0  0  0  0  0  0
  -10.1711   22.9540  -31.8731 H   0  0  0  0  0  0  0  0  0  0  0  0
   -9.9250   20.8810  -32.3710 N   0  0  0  0  0  0  0  0  0  0  0  0
   -9.0900   19.8030  -32.4700 C   0  0  0  0  0  0  0  0  0  0  0  0
   -9.4872   18.8383  -32.8187 H   0  0  0  0  0  0  0  0  0  0  0  0
   -7.7240   19.9130  -32.1300 C   0  0  0  0  0  0  0  0  0  0  0  0
   -6.8710   18.7240  -32.2530 C   0  0  0  0  0  0  0  0  0  0  0  0
   -6.8260   17.7740  -31.2240 C   0  0  0  0  0  0  0  0  0  0  0  0
   -7.4306   17.9175  -30.3163 H   0  0  0  0  0  0  0  0  0  0  0  0
   -6.0360   16.6760  -31.3470 N   0  0  0  0  0  0  0  0  0  0  0  0
   -5.2850   16.4540  -32.4590 C   0  0  0  0  0  0  0  0  0  0  0  0
   -4.6474   15.5598  -32.5214 H   0  0  0  0  0  0  0  0  0  0  0  0
   -5.3220   17.3620  -33.5250 C   0  0  0  0  0  0  0  0  0  0  0  0
   -4.3430   17.1070  -34.9650 S   0  0  0  0  0  0  0  0  0  0  0  0
   -4.2360   15.6380  -35.2640 O   0  0  0  0  0  0  0  0  0  0  0  0
   -4.9870   17.7940  -36.1370 O   0  0  0  0  0  0  0  0  0  0  0  0
   -2.7170   17.7740  -34.6970 C   0  0  0  0  0  0  0  0  0  0  0  0
   -2.5263   17.8522  -33.6165 H   0  0  0  0  0  0  0  0  0  0  0  0
   -1.9685   17.1103  -35.1543 H   0  0  0  0  0  0  0  0  0  0  0  0
   -2.6502   18.7722  -35.1543 H   0  0  0  0  0  0  0  0  0  0  0  0
   -6.1310   18.4990  -33.4190 C   0  0  0  0  0  0  0  0  0  0  0  0
   -6.1851   19.2155  -34.2519 H   0  0  0  0  0  0  0  0  0  0  0  0
   -7.2740   21.1790  -31.6860 C   0  0  0  0  0  0  0  0  0  0  0  0
   -6.0500   21.6120  -31.2870 N   0  0  0  0  0  0  0  0  0  0  0  0
   -4.7830   20.8690  -31.2360 C   0  0  0  0  0  0  0  0  0  0  0  0
   -4.1944   21.2170  -30.3743 H   0  0  0  0  0  0  0  0  0  0  0  0
   -5.0050   19.7962  -31.1372 H   0  0  0  0  0  0  0  0  0  0  0  0
   -3.9790   21.0890  -32.5140 C   0  0  0  0  0  0  0  0  0  0  0  0
   -2.9479   21.3711  -32.2545 H   0  0  0  0  0  0  0  0  0  0  0  0
   -3.9677   20.1609  -33.1044 H   0  0  0  0  0  0  0  0  0  0  0  0
   -4.4418   21.8935  -33.1044 H   0  0  0  0  0  0  0  0  0  0  0  0
   -4.7830   24.9860  -31.2130 N   0  0  0  0  0  0  0  0  0  0  0  0
   -3.8760   25.5500  -30.4610 O   0  0  0  0  0  0  0  0  0  0  0  0
   -3.6660   24.9130  -29.3460 N   0  0  0  0  0  0  0  0  0  0  0  0
   -2.9880   25.1890  -28.6020 H   0  0  0  0  0  0  0  0  0  0  0  0
  1  2  1  0
  2  3  2  0
  3  4  1  0
  4  5  1  0
  5  6  2  0
  6  7  1  0
  7  8  2  0
  8  9  1  0
  8 10  1  0
 10 11  2  0
 11 12  1  0
 11 13  1  0
 13 14  1  0
 14 15  2  0
 15 16  1  0
 15 17  1  0
 17 18  2  0
 18 19  1  0
 18 20  1  0
 20 21  1  0
 21 22  2  0
 21 23  2  0
 21 24  1  0
 24 25  1  0
 24 26  1  0
 24 27  1  0
 20 28  2  0
 28 29  1  0
 13 30  2  0
 30 31  1  0
 31 32  1  0
 32 33  1  0
 32 34  1  0
 32 35  1  0
 35 36  1  0
 35 37  1  0
 35 38  1  0
  4 39  2  0
 39 40  1  0
 40 41  1  0
 41 42  1  0
 41  3  1  0
 31  5  1  0
 30  7  1  0
 28 14  1  0
M  END
>  <UniqueID>  (17) 
15

>  <SMILES>  (17) 
[H]/N=c1\[nH]onc1-c1nc2cncc(-c3cncc(S(C)(=O)=O)c3)c2n1CC

>  <Energy>  (17) 
129.38840568082034

>  <Genealogy>  (17) 
[H]/N=c1\[nH]onc1-c1nc2cncc(-c3cncc(S(C)(=O)=O)c3)c2n1CC (cis-trans isomerization)
[H]/N=c1\[nH]onc1-c1nc2cncc(-c3cncc(S(C)(=O)=O)c3)c2n1CC (3D coordinates assigned)
[H]/N=c1\[nH]onc1-c1nc2cncc(-c3cncc(S(C)(=O)=O)c3)c2n1CC (optimized conformer: 129.38840568082034 kcal/mol)

>  <smiles>  (17) 
CCn1c(-c2no[nH]c2=N)nc2cncc(-c3cncc(S(C)(=O)=O)c3)c21

>  <score_type>  (17) 
oracle

>  <origin>  (17) 
adgpu

>  <m_score__min__energy>  (17) 
-10.220000000000001

>  <m_primary>  (17) 
energy

$$$$
17:0
     RDKit          3D

 44 46  0  0  0  0  0  0  0  0999 V2000
   -0.5230   27.2620  -27.5000 C   0  0  0  0  0  0  0  0  0  0  0  0
   -0.8690   26.3670  -28.5510 O   0  0  0  0  0  0  0  0  0  0  0  0
   -0.8630   24.9670  -28.4370 C   0  0  0  0  0  0  0  0  0  0  0  0
    0.2540   24.2620  -27.9430 C   0  0  0  0  0  0  0  0  0  0  0  0
    0.2040   22.8730  -27.8000 C   0  0  0  0  0  0  0  0  0  0  0  0
   -0.9560   22.1740  -28.1380 C   0  0  0  0  0  0  0  0  0  0  0  0
   -2.0650   22.8610  -28.6350 C   0  0  0  0  0  0  0  0  0  0  0  0
   -2.0170   24.2490  -28.8130 C   0  0  0  0  0  0  0  0  0  0  0  0
   -3.1710   24.9240  -29.3250 N   0  0  0  0  0  0  0  0  0  0  0  0
   -3.8680   24.5570  -30.5230 C   0  0  0  0  0  0  0  0  0  0  0  0
   -4.6820   25.3740  -31.0270 O   0  0  0  0  0  0  0  0  0  0  0  0
   -3.7260   23.1940  -31.1340 C   0  0  0  0  0  0  0  0  0  0  0  0
   -4.7560   22.0040  -30.2110 S   0  0  0  0  0  0  0  0  0  0  0  0
   -6.2860   22.5490  -30.9720 C   0  0  0  0  0  0  0  0  0  0  0  0
   -6.8430   23.7550  -30.7590 N   0  0  0  0  0  0  0  0  0  0  0  0
   -7.9040   23.7900  -31.5550 N   0  0  0  0  0  0  0  0  0  0  0  0
   -7.9930   22.6600  -32.2420 N   0  0  0  0  0  0  0  0  0  0  0  0
   -6.9940   21.8710  -31.8940 N   0  0  0  0  0  0  0  0  0  0  0  0
   -6.7130   20.5880  -32.4810 C   0  0  0  0  0  0  0  0  0  0  0  0
   -5.5270   20.4010  -33.2060 C   0  0  0  0  0  0  0  0  0  0  0  0
   -5.2220   19.1590  -33.7640 C   0  0  0  0  0  0  0  0  0  0  0  0
   -6.0890   18.0740  -33.5900 C   0  0  0  0  0  0  0  0  0  0  0  0
   -5.7750   16.7480  -34.2160 C   0  0  0  0  0  0  0  0  0  0  0  0
   -7.2860   18.2550  -32.8810 C   0  0  0  0  0  0  0  0  0  0  0  0
   -7.6110   19.5050  -32.3270 C   0  0  0  0  0  0  0  0  0  0  0  0
   -8.9060   19.6630  -31.5780 C   0  0  0  0  0  0  0  0  0  0  0  0
   -0.7100   26.7782  -26.5300 H   0  0  0  0  0  0  0  0  0  0  0  0
    0.5420   27.5259  -27.5788 H   0  0  0  0  0  0  0  0  0  0  0  0
   -1.1335   28.1736  -27.5788 H   0  0  0  0  0  0  0  0  0  0  0  0
    1.1687   24.8081  -27.6690 H   0  0  0  0  0  0  0  0  0  0  0  0
    1.0812   22.3288  -27.4200 H   0  0  0  0  0  0  0  0  0  0  0  0
   -0.9963   21.0819  -28.0128 H   0  0  0  0  0  0  0  0  0  0  0  0
   -2.9819   22.3087  -28.8883 H   0  0  0  0  0  0  0  0  0  0  0  0
   -4.0543   23.2265  -32.1834 H   0  0  0  0  0  0  0  0  0  0  0  0
   -2.6728   22.8797  -31.0890 H   0  0  0  0  0  0  0  0  0  0  0  0
   -4.8301   21.2421  -33.3360 H   0  0  0  0  0  0  0  0  0  0  0  0
   -4.2957   19.0319  -34.3435 H   0  0  0  0  0  0  0  0  0  0  0  0
   -5.5985   16.0025  -33.4267 H   0  0  0  0  0  0  0  0  0  0  0  0
   -6.6221   16.4275  -34.8403 H   0  0  0  0  0  0  0  0  0  0  0  0
   -4.8741   16.8414  -34.8403 H   0  0  0  0  0  0  0  0  0  0  0  0
   -7.9780   17.4089  -32.7573 H   0  0  0  0  0  0  0  0  0  0  0  0
   -8.7091   19.6390  -30.4960 H   0  0  0  0  0  0  0  0  0  0  0  0
   -9.3692   20.6243  -31.8451 H   0  0  0  0  0  0  0  0  0  0  0  0
   -9.5867   18.8412  -31.8451 H   0  0  0  0  0  0  0  0  0  0  0  0
  1  2  1  0
  2  3  1  0
  3  4  2  0
  4  5  1  0
  5  6  2  0
  6  7  1  0
  7  8  2  0
  8  9  1  0
  9 10  1  0
 10 11  2  0
 10 12  1  0
 12 13  1  0
 13 14  1  0
 14 15  2  0
 15 16  1  0
 16 17  2  0
 17 18  1  0
 18 19  1  0
 19 20  2  0
 20 21  1  0
 21 22  2  0
 22 23  1  0
 22 24  1  0
 24 25  2  0
 25 26  1  0
  8  3  1  0
 18 14  1  0
 25 19  1  0
  1 27  1  0
  1 28  1  0
  1 29  1  0
  4 30  1  0
  5 31  1  0
  6 32  1  0
  7 33  1  0
 12 34  1  0
 12 35  1  0
 20 36  1  0
 21 37  1  0
 23 38  1  0
 23 39  1  0
 23 40  1  0
 24 41  1  0
 26 42  1  0
 26 43  1  0
 26 44  1  0
M  CHG  1   9  -1
M  END
>  <UniqueID>  (18) 
16

>  <SMILES>  (18) 
COc1ccccc1[N-]C(=O)CSc1nnnn1-c1ccc(C)cc1C

>  <Energy>  (18) 
93.18694926288492

>  <Genealogy>  (18) 
COc1ccccc1[N-]C(=O)CSc1nnnn1-c1ccc(C)cc1C (protonated)
COc1ccccc1[N-]C(=O)CSc1nnnn1-c1ccc(C)cc1C (3D coordinates assigned)
COc1ccccc1[N-]C(=O)CSc1nnnn1-c1ccc(C)cc1C (optimized conformer: 93.18694926288492 kcal/mol)

>  <smiles>  (18) 
COc1ccccc1NC(=O)CSc1nnnn1-c1ccc(C)cc1C

>  <score_type>  (18) 
oracle

>  <origin>  (18) 
adgpu

>  <m_score__min__energy>  (18) 
-12.539999999999999

>  <m_primary>  (18) 
energy

$$$$
18:0
     RDKit          3D

 37 39  0  0  0  0  0  0  0  0999 V2000
   -2.6110   20.3870  -33.5900 C   0  0  0  0  0  0  0  0  0  0  0  0
   -3.4740   21.1700  -32.7720 O   0  0  0  0  0  0  0  0  0  0  0  0
   -4.7960   20.8260  -32.4460 C   0  0  0  0  0  0  0  0  0  0  0  0
   -5.3880   19.6360  -32.9150 C   0  0  0  0  0  0  0  0  0  0  0  0
   -6.7120   19.3300  -32.5950 C   0  0  0  0  0  0  0  0  0  0  0  0
   -7.4600   20.2000  -31.8040 C   0  0  0  0  0  0  0  0  0  0  0  0
   -6.8870   21.3790  -31.3270 C   0  0  0  0  0  0  0  0  0  0  0  0
   -5.5570   21.7060  -31.6450 C   0  0  0  0  0  0  0  0  0  0  0  0
   -4.9660   22.9570  -31.1190 C   0  0  0  0  0  0  0  0  0  0  0  0
   -5.3570   24.2420  -31.4570 C   0  0  0  0  0  0  0  0  0  0  0  0
   -4.5660   25.1150  -30.8750 O   0  0  0  0  0  0  0  0  0  0  0  0
   -3.6700   24.4620  -30.1730 C   0  0  0  0  0  0  0  0  0  0  0  0
   -2.6880   25.0790  -29.4080 O   0  0  0  0  0  0  0  0  0  0  0  0
   -3.8620   23.0970  -30.2850 C   0  0  0  0  0  0  0  0  0  0  0  0
   -3.0930   22.0370  -29.5960 C   0  0  0  0  0  0  0  0  0  0  0  0
   -3.4220   21.6550  -28.2840 C   0  0  0  0  0  0  0  0  0  0  0  0
   -2.6960   20.6520  -27.6370 C   0  0  0  0  0  0  0  0  0  0  0  0
   -1.6190   20.0280  -28.2830 C   0  0  0  0  0  0  0  0  0  0  0  0
   -0.8660   18.9230  -27.6030 C   0  0  0  0  0  0  0  0  0  0  0  0
   -1.2950   20.4010  -29.5950 C   0  0  0  0  0  0  0  0  0  0  0  0
   -2.0200   21.4040  -30.2450 C   0  0  0  0  0  0  0  0  0  0  0  0
   -1.9474   19.7850  -32.9518 H   0  0  0  0  0  0  0  0  0  0  0  0
   -3.2129   19.7204  -34.2251 H   0  0  0  0  0  0  0  0  0  0  0  0
   -2.0059   21.0507  -34.2251 H   0  0  0  0  0  0  0  0  0  0  0  0
   -4.8026   18.9434  -33.5376 H   0  0  0  0  0  0  0  0  0  0  0  0
   -7.1658   18.4000  -32.9681 H   0  0  0  0  0  0  0  0  0  0  0  0
   -8.5036   19.9567  -31.5555 H   0  0  0  0  0  0  0  0  0  0  0  0
   -7.4803   22.0582  -30.6972 H   0  0  0  0  0  0  0  0  0  0  0  0
   -6.2026   24.4938  -32.1139 H   0  0  0  0  0  0  0  0  0  0  0  0
   -2.0080   25.6900  -29.8420 H   0  0  0  0  0  0  0  0  0  0  0  0
   -4.2560   22.1487  -27.7636 H   0  0  0  0  0  0  0  0  0  0  0  0
   -2.9706   20.3501  -26.6155 H   0  0  0  0  0  0  0  0  0  0  0  0
   -0.9467   19.0414  -26.5124 H   0  0  0  0  0  0  0  0  0  0  0  0
   -1.2918   17.9529  -27.8990 H   0  0  0  0  0  0  0  0  0  0  0  0
    0.1926   18.9644  -27.8990 H   0  0  0  0  0  0  0  0  0  0  0  0
   -0.4651   19.9013  -30.1162 H   0  0  0  0  0  0  0  0  0  0  0  0
   -1.7490   21.6989  -31.2695 H   0  0  0  0  0  0  0  0  0  0  0  0
  1  2  1  0
  2  3  1  0
  3  4  2  0
  4  5  1  0
  5  6  2  0
  6  7  1  0
  7  8  2  0
  8  9  1  0
  9 10  2  0
 10 11  1  0
 11 12  1  0
 12 13  1  0
 12 14  2  0
 14 15  1  0
 15 16  2  0
 16 17  1  0
 17 18  2  0
 18 19  1  0
 18 20  1  0
 20 21  2  0
  8  3  1  0
 14  9  1  0
 21 15  1  0
  1 22  1  0
  1 23  1  0
  1 24  1  0
  4 25  1  0
  5 26  1  0
  6 27  1  0
  7 28  1  0
 10 29  1  0
 13 30  1  0
 16 31  1  0
 17 32  1  0
 19 33  1  0
 19 34  1  0
 19 35  1  0
 20 36  1  0
 21 37  1  0
M  END
>  <UniqueID>  (19) 
17

>  <SMILES>  (19) 
COc1ccccc1-c1coc(O)c1-c1ccc(C)cc1

>  <Energy>  (19) 
74.34476411442452

>  <Genealogy>  (19) 
COc1ccccc1-c1coc(O)c1-c1ccc(C)cc1 (3D coordinates assigned)
COc1ccccc1-c1coc(O)c1-c1ccc(C)cc1 (optimized conformer: 74.34476411442452 kcal/mol)

>  <smiles>  (19) 
COc1ccccc1-c1coc(O)c1-c1ccc(C)cc1

>  <score_type>  (19) 
oracle

>  <origin>  (19) 
adgpu

>  <m_score__min__energy>  (19) 
-8.4000000000000004

>  <m_primary>  (19) 
energy

$$$$
19:0
     RDKit          3D

 44 46  0  0  0  0  0  0  0  0999 V2000
   -1.2530   22.5960  -26.9980 C   0  0  0  0  0  0  0  0  0  0  0  0
   -2.3990   23.0630  -27.8590 C   0  0  0  0  0  0  0  0  0  0  0  0
   -3.5810   22.3030  -27.8680 C   0  0  0  0  0  0  0  0  0  0  0  0
   -4.6820   22.7070  -28.6210 C   0  0  0  0  0  0  0  0  0  0  0  0
   -4.6230   23.8720  -29.3870 C   0  0  0  0  0  0  0  0  0  0  0  0
   -6.0250   24.3650  -30.3290 S   0  0  0  0  0  0  0  0  0  0  0  0
   -7.2930   23.8120  -29.7400 O   0  0  0  0  0  0  0  0  0  0  0  0
   -6.1050   25.8660  -30.3320 O   0  0  0  0  0  0  0  0  0  0  0  0
   -5.8600   23.8000  -31.9590 N   0  0  0  0  0  0  0  0  0  0  0  0
   -5.8360   22.4240  -32.3580 C   0  0  0  0  0  0  0  0  0  0  0  0
   -7.0100   21.6580  -32.4730 C   0  0  0  0  0  0  0  0  0  0  0  0
   -6.9430   20.3230  -32.8850 C   0  0  0  0  0  0  0  0  0  0  0  0
   -5.7050   19.7320  -33.1870 C   0  0  0  0  0  0  0  0  0  0  0  0
   -5.6460   18.3600  -33.6190 N   0  0  0  0  0  0  0  0  0  0  0  0
   -5.1660   18.0310  -34.9620 C   0  0  0  0  0  0  0  0  0  0  0  0
   -4.5910   16.6100  -34.9710 C   0  0  0  0  0  0  0  0  0  0  0  0
   -5.5260   15.6890  -34.4440 O   0  0  0  0  0  0  0  0  0  0  0  0
   -5.7590   15.9710  -33.0760 C   0  0  0  0  0  0  0  0  0  0  0  0
   -6.4240   17.3410  -32.9050 C   0  0  0  0  0  0  0  0  0  0  0  0
   -4.5350   20.4990  -33.0660 C   0  0  0  0  0  0  0  0  0  0  0  0
   -4.6030   21.8340  -32.6580 C   0  0  0  0  0  0  0  0  0  0  0  0
   -3.4480   24.6330  -29.4010 C   0  0  0  0  0  0  0  0  0  0  0  0
   -2.3230   24.2420  -28.6500 C   0  0  0  0  0  0  0  0  0  0  0  0
   -1.1030   25.0880  -28.7130 C   0  0  0  0  0  0  0  0  0  0  0  0
    0.0290   24.5830  -28.4830 O   0  0  0  0  0  0  0  0  0  0  0  0
   -1.1850   26.4470  -28.9860 O   0  0  0  0  0  0  0  0  0  0  0  0
   -1.5228   22.7059  -25.9373 H   0  0  0  0  0  0  0  0  0  0  0  0
   -1.0389   21.5389  -27.2142 H   0  0  0  0  0  0  0  0  0  0  0  0
   -0.3611   23.2024  -27.2142 H   0  0  0  0  0  0  0  0  0  0  0  0
   -3.6379   21.3789  -27.2741 H   0  0  0  0  0  0  0  0  0  0  0  0
   -5.6022   22.1044  -28.6115 H   0  0  0  0  0  0  0  0  0  0  0  0
   -7.9847   22.1106  -32.2380 H   0  0  0  0  0  0  0  0  0  0  0  0
   -7.8664   19.7317  -32.9731 H   0  0  0  0  0  0  0  0  0  0  0  0
   -6.0020   18.0917  -35.6743 H   0  0  0  0  0  0  0  0  0  0  0  0
   -4.3805   18.7439  -35.2531 H   0  0  0  0  0  0  0  0  0  0  0  0
   -4.3476   16.3255  -36.0053 H   0  0  0  0  0  0  0  0  0  0  0  0
   -3.6855   16.5910  -34.3468 H   0  0  0  0  0  0  0  0  0  0  0  0
   -6.4172   15.1963  -32.6557 H   0  0  0  0  0  0  0  0  0  0  0  0
   -4.7929   15.9815  -32.5501 H   0  0  0  0  0  0  0  0  0  0  0  0
   -7.4443   17.3061  -33.3147 H   0  0  0  0  0  0  0  0  0  0  0  0
   -6.4643   17.5959  -31.8357 H   0  0  0  0  0  0  0  0  0  0  0  0
   -3.5587   20.0462  -33.2938 H   0  0  0  0  0  0  0  0  0  0  0  0
   -3.6798   22.4258  -32.5720 H   0  0  0  0  0  0  0  0  0  0  0  0
   -3.4030   25.5496  -30.0075 H   0  0  0  0  0  0  0  0  0  0  0  0
  1  2  1  0
  2  3  2  0
  3  4  1  0
  4  5  2  0
  5  6  1  0
  6  7  2  0
  6  8  2  0
  6  9  1  0
  9 10  1  0
 10 11  2  0
 11 12  1  0
 12 13  2  0
 13 14  1  0
 14 15  1  0
 15 16  1  0
 16 17  1  0
 17 18  1  0
 18 19  1  0
 13 20  1  0
 20 21  2  0
  5 22  1  0
 22 23  2  0
 23 24  1  0
 24 25  2  0
 24 26  1  0
 23  2  1  0
 21 10  1  0
 19 14  1  0
  1 27  1  0
  1 28  1  0
  1 29  1  0
  3 30  1  0
  4 31  1  0
 11 32  1  0
 12 33  1  0
 15 34  1  0
 15 35  1  0
 16 36  1  0
 16 37  1  0
 18 38  1  0
 18 39  1  0
 19 40  1  0
 19 41  1  0
 20 42  1  0
 21 43  1  0
 22 44  1  0
M  CHG  2   9  -1  26  -1
M  END
>  <UniqueID>  (20) 
18

>  <SMILES>  (20) 
Cc1ccc(S(=O)(=O)[N-]c2ccc(N3CCOCC3)cc2)cc1C(=O)[O-]

>  <Energy>  (20) 
58.28931189716336

>  <Genealogy>  (20) 
Cc1ccc(S(=O)(=O)[N-]c2ccc(N3CCOCC3)cc2)cc1C(=O)[O-] (protonated)
Cc1ccc(S(=O)(=O)[N-]c2ccc(N3CCOCC3)cc2)cc1C(=O)[O-] (3D coordinates assigned)
Cc1ccc(S(=O)(=O)[N-]c2ccc(N3CCOCC3)cc2)cc1C(=O)[O-] (nonaromatic ring conformer: 58.28931189716336 kcal/mol)

>  <smiles>  (20) 
Cc1ccc(S(=O)(=O)Nc2ccc(N3CCOCC3)cc2)cc1C(=O)O

>  <score_type>  (20) 
oracle

>  <origin>  (20) 
adgpu

>  <m_score__min__energy>  (20) 
-10.57

>  <m_primary>  (20) 
energy

$$$$
20:0
     RDKit          3D

 42 44  0  0  1  0  0  0  0  0999 V2000
   -2.3340   21.3110  -30.9900 C   0  0  0  0  0  0  0  0  0  0  0  0
   -2.4330   21.5810  -32.4730 C   0  0  0  0  0  0  0  0  0  0  0  0
   -3.3150   20.7300  -33.0650 O   0  0  0  0  0  0  0  0  0  0  0  0
   -4.6510   20.5490  -33.0150 C   0  0  0  0  0  0  0  0  0  0  0  0
   -5.5350   21.3040  -32.2190 C   0  0  0  0  0  0  0  0  0  0  0  0
   -6.8690   21.0190  -32.2610 C   0  0  0  0  0  0  0  0  0  0  0  0
   -7.7620   21.7310  -31.5050 C   0  0  0  0  0  0  0  0  0  0  0  0
   -7.4030   22.6720  -30.8060 N   0  0  0  0  0  0  0  0  0  0  0  0
   -6.2230   23.2920  -30.5340 C   0  0  0  0  0  0  0  0  0  0  0  0
   -5.7810   24.4640  -31.1980 C   0  0  0  0  0  0  0  0  0  0  0  0
   -4.6280   25.1070  -30.7780 C   0  0  0  0  0  0  0  0  0  0  0  0
   -3.9010   24.5990  -29.6990 C   0  0  0  0  0  0  0  0  0  0  0  0
   -2.7740   25.2930  -29.3460 F   0  0  0  0  0  0  0  0  0  0  0  0
   -4.3190   23.4750  -29.0580 C   0  0  0  0  0  0  0  0  0  0  0  0
   -3.5150   22.9630  -27.9070 C   0  0  0  0  0  0  0  0  0  0  0  0
   -5.4540   22.8110  -29.4430 C   0  0  0  0  0  0  0  0  0  0  0  0
   -9.0750   21.4200  -31.5680 N   0  0  0  0  0  0  0  0  0  0  0  0
   -9.5640   20.4450  -32.3390 C   0  0  0  0  0  0  0  0  0  0  0  0
   -8.7170   19.7310  -33.0940 N   0  0  0  0  0  0  0  0  0  0  0  0
   -7.4110   20.0240  -33.0450 C   0  0  0  0  0  0  0  0  0  0  0  0
   -6.5650   19.2800  -33.8250 C   0  0  0  0  0  0  0  0  0  0  0  0
   -5.2320   19.5780  -33.7730 C   0  0  0  0  0  0  0  0  0  0  0  0
   -4.3850   18.8180  -34.5720 O   0  0  0  0  0  0  0  0  0  0  0  0
   -4.7900   17.4970  -34.9470 C   0  0  0  0  0  0  0  0  0  0  0  0
   -2.6605   22.2014  -30.4326 H   0  0  0  0  0  0  0  0  0  0  0  0
   -2.9780   20.4583  -30.7288 H   0  0  0  0  0  0  0  0  0  0  0  0
   -1.2915   21.0767  -30.7288 H   0  0  0  0  0  0  0  0  0  0  0  0
   -2.7717   22.6159  -32.6286 H   0  0  0  0  0  0  0  0  0  0  0  0
   -1.4415   21.4286  -32.9244 H   0  0  0  0  0  0  0  0  0  0  0  0
   -5.1560   22.1104  -31.5739 H   0  0  0  0  0  0  0  0  0  0  0  0
   -6.3542   24.8633  -32.0477 H   0  0  0  0  0  0  0  0  0  0  0  0
   -4.2855   26.0163  -31.2936 H   0  0  0  0  0  0  0  0  0  0  0  0
   -3.9915   23.2664  -26.9631 H   0  0  0  0  0  0  0  0  0  0  0  0
   -3.4633   21.8653  -27.9553 H   0  0  0  0  0  0  0  0  0  0  0  0
   -2.4984   23.3804  -27.9553 H   0  0  0  0  0  0  0  0  0  0  0  0
   -5.7692   21.9043  -28.9058 H   0  0  0  0  0  0  0  0  0  0  0  0
  -10.6430   20.2316  -32.3542 H   0  0  0  0  0  0  0  0  0  0  0  0
   -9.1030   18.9640  -33.7010 H   0  0  0  0  0  0  0  0  0  0  0  0
   -6.9445   18.4730  -34.4690 H   0  0  0  0  0  0  0  0  0  0  0  0
   -4.9733   16.8990  -34.0422 H   0  0  0  0  0  0  0  0  0  0  0  0
   -5.7126   17.5518  -35.5435 H   0  0  0  0  0  0  0  0  0  0  0  0
   -3.9952   17.0253  -35.5435 H   0  0  0  0  0  0  0  0  0  0  0  0
  1  2  1  0
  2  3  1  0
  3  4  1  0
  4  5  2  0
  5  6  1  0
  6  7  1  0
  7  8  2  0
  8  9  1  0
  9 10  2  0
 10 11  1  0
 11 12  2  0
 12 13  1  0
 12 14  1  0
 14 15  1  0
 14 16  2  0
  7 17  1  0
 17 18  2  0
 18 19  1  0
 19 20  1  0
 20 21  1  0
 21 22  2  0
 22 23  1  0
 23 24  1  0
 22  4  1  0
 20  6  2  0
 16  9  1  0
  1 25  1  0
  1 26  1  0
  1 27  1  0
  2 28  1  0
  2 29  1  0
  5 30  1  0
 10 31  1  0
 11 32  1  0
 15 33  1  0
 15 34  1  0
 15 35  1  0
 16 36  1  0
 18 37  1  0
 19 38  1  0
 21 39  1  0
 24 40  1  0
 24 41  1  0
 24 42  1  0
M  END
>  <smiles>  (21) 
CCOc1cc2c(=Nc3ccc(F)c(C)c3)nc[nH]c2cc1OC

>  <score_type>  (21) 
oracle

>  <origin>  (21) 
adgpu

>  <m_score__min__energy>  (21) 
-7.6600000000000001

>  <m_primary>  (21) 
energy

$$$$
21:0
     RDKit          3D

 44 47  0  0  0  0  0  0  0  0999 V2000
   -4.2470   25.6720  -30.7080 O   0  0  0  0  0  0  0  0  0  0  0  0
   -4.5300   24.6300  -30.0580 C   0  0  0  0  0  0  0  0  0  0  0  0
   -4.0800   24.5340  -28.6220 C   0  0  0  0  0  0  0  0  0  0  0  0
   -3.0730   23.4630  -28.4670 N   0  0  0  0  0  0  0  0  0  0  0  0
   -1.7730   23.6980  -28.8440 C   0  0  0  0  0  0  0  0  0  0  0  0
   -1.4430   24.8090  -29.3460 O   0  0  0  0  0  0  0  0  0  0  0  0
   -0.8190   22.7420  -28.6820 N   0  0  0  0  0  0  0  0  0  0  0  0
   -1.1200   21.5310  -28.1440 C   0  0  0  0  0  0  0  0  0  0  0  0
   -0.1210   20.5570  -27.9800 C   0  0  0  0  0  0  0  0  0  0  0  0
   -0.4360   19.3130  -27.4270 C   0  0  0  0  0  0  0  0  0  0  0  0
   -1.7460   19.0310  -27.0360 C   0  0  0  0  0  0  0  0  0  0  0  0
   -2.7490   19.9920  -27.1960 C   0  0  0  0  0  0  0  0  0  0  0  0
   -2.4430   21.2500  -27.7500 C   0  0  0  0  0  0  0  0  0  0  0  0
   -3.4170   22.2470  -27.9280 C   0  0  0  0  0  0  0  0  0  0  0  0
   -4.6120   22.0100  -27.5940 O   0  0  0  0  0  0  0  0  0  0  0  0
   -5.3560   23.5780  -30.7000 C   0  0  0  0  0  0  0  0  0  0  0  0
   -4.7770   22.3370  -31.0160 C   0  0  0  0  0  0  0  0  0  0  0  0
   -5.5360   21.3360  -31.6300 C   0  0  0  0  0  0  0  0  0  0  0  0
   -6.8880   21.5460  -31.9170 C   0  0  0  0  0  0  0  0  0  0  0  0
   -7.6090   20.5230  -32.5490 O   0  0  0  0  0  0  0  0  0  0  0  0
   -7.0560   19.3560  -33.0990 C   0  0  0  0  0  0  0  0  0  0  0  0
   -7.4240   18.1170  -32.5570 C   0  0  0  0  0  0  0  0  0  0  0  0
   -6.9050   16.9320  -33.0870 C   0  0  0  0  0  0  0  0  0  0  0  0
   -6.0250   16.9760  -34.1720 C   0  0  0  0  0  0  0  0  0  0  0  0
   -5.6690   18.2060  -34.7320 C   0  0  0  0  0  0  0  0  0  0  0  0
   -6.1850   19.3940  -34.2030 C   0  0  0  0  0  0  0  0  0  0  0  0
   -7.4710   22.7860  -31.6060 C   0  0  0  0  0  0  0  0  0  0  0  0
   -6.7150   23.7880  -30.9930 C   0  0  0  0  0  0  0  0  0  0  0  0
   -3.6382   25.4937  -28.3159 H   0  0  0  0  0  0  0  0  0  0  0  0
   -4.9498   24.2994  -27.9909 H   0  0  0  0  0  0  0  0  0  0  0  0
    0.1620   22.9510  -28.9770 H   0  0  0  0  0  0  0  0  0  0  0  0
    0.9124   20.7743  -28.2879 H   0  0  0  0  0  0  0  0  0  0  0  0
    0.3501   18.5542  -27.2995 H   0  0  0  0  0  0  0  0  0  0  0  0
   -1.9898   18.0505  -26.6010 H   0  0  0  0  0  0  0  0  0  0  0  0
   -3.7803   19.7647  -26.8882 H   0  0  0  0  0  0  0  0  0  0  0  0
   -3.7190   22.1518  -30.7786 H   0  0  0  0  0  0  0  0  0  0  0  0
   -5.0657   20.3760  -31.8892 H   0  0  0  0  0  0  0  0  0  0  0  0
   -8.1249   18.0767  -31.7101 H   0  0  0  0  0  0  0  0  0  0  0  0
   -7.1896   15.9637  -32.6495 H   0  0  0  0  0  0  0  0  0  0  0  0
   -5.6130   16.0433  -34.5848 H   0  0  0  0  0  0  0  0  0  0  0  0
   -4.9818   18.2401  -35.5903 H   0  0  0  0  0  0  0  0  0  0  0  0
   -5.9090   20.3598  -34.6513 H   0  0  0  0  0  0  0  0  0  0  0  0
   -8.5287   22.9688  -31.8466 H   0  0  0  0  0  0  0  0  0  0  0  0
   -7.1864   24.7485  -30.7376 H   0  0  0  0  0  0  0  0  0  0  0  0
  1  2  2  0
  2  3  1  0
  3  4  1  0
  4  5  1  0
  5  6  2  0
  5  7  1  0
  7  8  1  0
  8  9  2  0
  9 10  1  0
 10 11  2  0
 11 12  1  0
 12 13  2  0
 13 14  1  0
 14 15  2  0
  2 16  1  0
 16 17  2  0
 17 18  1  0
 18 19  2  0
 19 20  1  0
 20 21  1  0
 21 22  2  0
 22 23  1  0
 23 24  2  0
 24 25  1  0
 25 26  2  0
 19 27  1  0
 27 28  2  0
 14  4  1  0
 28 16  1  0
 13  8  1  0
 26 21  1  0
  3 29  1  0
  3 30  1  0
  7 31  1  0
  9 32  1  0
 10 33  1  0
 11 34  1  0
 12 35  1  0
 17 36  1  0
 18 37  1  0
 22 38  1  0
 23 39  1  0
 24 40  1  0
 25 41  1  0
 26 42  1  0
 27 43  1  0
 28 44  1  0
M  END
>  <UniqueID>  (22) 
19

>  <SMILES>  (22) 
O=C(Cn1c(=O)[nH]c2ccccc2c1=O)c1ccc(Oc2ccccc2)cc1

>  <Energy>  (22) 
66.29123579990659

>  <Genealogy>  (22) 
O=C(Cn1c(=O)[nH]c2ccccc2c1=O)c1ccc(Oc2ccccc2)cc1 (3D coordinates assigned)
O=C(Cn1c(=O)[nH]c2ccccc2c1=O)c1ccc(Oc2ccccc2)cc1 (optimized conformer: 66.29123579990659 kcal/mol)

>  <smiles>  (22) 
O=C(Cn1c(=O)[nH]c2ccccc2c1=O)c1ccc(Oc2ccccc2)cc1

>  <score_type>  (22) 
oracle

>  <origin>  (22) 
adgpu

>  <m_score__min__energy>  (22) 
-9.5899999999999999

>  <m_primary>  (22) 
energy

$$$$
22:0
     RDKit          3D

 43 45  0  0  0  0  0  0  0  0999 V2000
   -0.4720   18.9000  -28.7490 C   0  0  0  0  0  0  0  0  0  0  0  0
   -1.0250   20.2900  -28.8450 C   0  0  0  0  0  0  0  0  0  0  0  0
   -2.0480   20.7020  -27.9780 C   0  0  0  0  0  0  0  0  0  0  0  0
   -2.5370   22.0100  -28.0360 C   0  0  0  0  0  0  0  0  0  0  0  0
   -1.9980   22.9250  -28.9510 C   0  0  0  0  0  0  0  0  0  0  0  0
   -2.5900   24.5830  -29.0030 S   0  0  0  0  0  0  0  0  0  0  0  0
   -1.4480   25.5600  -28.9580 O   0  0  0  0  0  0  0  0  0  0  0  0
   -3.4840   24.8150  -27.8170 O   0  0  0  0  0  0  0  0  0  0  0  0
   -3.5010   24.8470  -30.4540 N   0  0  0  0  0  0  0  0  0  0  0  0
   -4.5420   23.9830  -30.9270 C   0  0  0  0  0  0  0  0  0  0  0  0
   -5.9000   24.1670  -30.7290 C   0  0  0  0  0  0  0  0  0  0  0  0
   -6.5280   25.2860  -29.9520 C   0  0  0  0  0  0  0  0  0  0  0  0
   -6.5590   23.0900  -31.2240 N   0  0  0  0  0  0  0  0  0  0  0  0
   -8.0070   22.8700  -31.1640 C   0  0  0  0  0  0  0  0  0  0  0  0
   -5.6680   22.2350  -31.7230 N   0  0  0  0  0  0  0  0  0  0  0  0
   -5.9550   20.9330  -32.2630 C   0  0  0  0  0  0  0  0  0  0  0  0
   -6.8550   20.0760  -31.6100 C   0  0  0  0  0  0  0  0  0  0  0  0
   -7.1110   18.8000  -32.1230 C   0  0  0  0  0  0  0  0  0  0  0  0
   -6.4650   18.3700  -33.2850 C   0  0  0  0  0  0  0  0  0  0  0  0
   -5.5590   19.2140  -33.9340 C   0  0  0  0  0  0  0  0  0  0  0  0
   -5.3010   20.4900  -33.4230 C   0  0  0  0  0  0  0  0  0  0  0  0
   -4.4370   22.7610  -31.5640 C   0  0  0  0  0  0  0  0  0  0  0  0
   -3.3720   22.1920  -31.9200 O   0  0  0  0  0  0  0  0  0  0  0  0
   -0.9720   22.5190  -29.8130 C   0  0  0  0  0  0  0  0  0  0  0  0
   -0.4810   21.2110  -29.7560 C   0  0  0  0  0  0  0  0  0  0  0  0
   -0.3613   18.6217  -27.6906 H   0  0  0  0  0  0  0  0  0  0  0  0
   -1.1590   18.1971  -29.2430 H   0  0  0  0  0  0  0  0  0  0  0  0
    0.5101   18.8612  -29.2430 H   0  0  0  0  0  0  0  0  0  0  0  0
   -2.4671   19.9925  -27.2493 H   0  0  0  0  0  0  0  0  0  0  0  0
   -3.3476   22.3225  -27.3613 H   0  0  0  0  0  0  0  0  0  0  0  0
   -6.4186   25.0911  -28.8750 H   0  0  0  0  0  0  0  0  0  0  0  0
   -6.0297   26.2333  -30.2056 H   0  0  0  0  0  0  0  0  0  0  0  0
   -7.5962   25.3542  -30.2056 H   0  0  0  0  0  0  0  0  0  0  0  0
   -8.3272   22.8213  -30.1128 H   0  0  0  0  0  0  0  0  0  0  0  0
   -8.5251   23.6997  -31.6671 H   0  0  0  0  0  0  0  0  0  0  0  0
   -8.2553   21.9238  -31.6671 H   0  0  0  0  0  0  0  0  0  0  0  0
   -7.3607   20.4091  -30.6917 H   0  0  0  0  0  0  0  0  0  0  0  0
   -7.8216   18.1344  -31.6111 H   0  0  0  0  0  0  0  0  0  0  0  0
   -6.6693   17.3675  -33.6891 H   0  0  0  0  0  0  0  0  0  0  0  0
   -5.0487   18.8742  -34.8473 H   0  0  0  0  0  0  0  0  0  0  0  0
   -4.5825   21.1491  -33.9324 H   0  0  0  0  0  0  0  0  0  0  0  0
   -0.5508   23.2315  -30.5375 H   0  0  0  0  0  0  0  0  0  0  0  0
    0.3341   20.9019  -30.4268 H   0  0  0  0  0  0  0  0  0  0  0  0
  1  2  1  0
  2  3  2  0
  3  4  1  0
  4  5  2  0
  5  6  1  0
  6  7  2  0
  6  8  2  0
  6  9  1  0
  9 10  1  0
 10 11  2  0
 11 12  1  0
 11 13  1  0
 13 14  1  0
 13 15  1  0
 15 16  1  0
 16 17  2  0
 17 18  1  0
 18 19  2  0
 19 20  1  0
 20 21  2  0
 15 22  1  0
 22 23  2  0
  5 24  1  0
 24 25  2  0
 25  2  1  0
 22 10  1  0
 21 16  1  0
  1 26  1  0
  1 27  1  0
  1 28  1  0
  3 29  1  0
  4 30  1  0
 12 31  1  0
 12 32  1  0
 12 33  1  0
 14 34  1  0
 14 35  1  0
 14 36  1  0
 17 37  1  0
 18 38  1  0
 19 39  1  0
 20 40  1  0
 21 41  1  0
 24 42  1  0
 25 43  1  0
M  CHG  1   9  -1
M  END
>  <UniqueID>  (23) 
20

>  <SMILES>  (23) 
Cc1ccc(S(=O)(=O)[N-]c2c(C)n(C)n(-c3ccccc3)c2=O)cc1

>  <Energy>  (23) 
88.23128991266852

>  <Genealogy>  (23) 
Cc1ccc(S(=O)(=O)[N-]c2c(C)n(C)n(-c3ccccc3)c2=O)cc1 (protonated)
Cc1ccc(S(=O)(=O)[N-]c2c(C)n(C)n(-c3ccccc3)c2=O)cc1 (3D coordinates assigned)
Cc1ccc(S(=O)(=O)[N-]c2c(C)n(C)n(-c3ccccc3)c2=O)cc1 (optimized conformer: 88.23128991266852 kcal/mol)

>  <smiles>  (23) 
Cc1ccc(S(=O)(=O)Nc2c(C)n(C)n(-c3ccccc3)c2=O)cc1

>  <score_type>  (23) 
oracle

>  <origin>  (23) 
adgpu

>  <m_score__min__energy>  (23) 
-10.029999999999999

>  <m_primary>  (23) 
energy

$$$$
23:0
     RDKit          3D

 43 45  0  0  0  0  0  0  0  0999 V2000
   -4.4170   21.5000  -31.1930 O   0  0  0  0  0  0  0  0  0  0  0  0
   -4.5900   22.5050  -30.4490 C   0  0  0  0  0  0  0  0  0  0  0  0
   -5.9240   22.8920  -30.0770 N   0  0  0  0  0  0  0  0  0  0  0  0
   -7.0980   22.5220  -30.8210 C   0  0  0  0  0  0  0  0  0  0  0  0
   -7.9690   23.5220  -31.2800 C   0  0  0  0  0  0  0  0  0  0  0  0
   -9.1090   23.1840  -32.0130 C   0  0  0  0  0  0  0  0  0  0  0  0
   -9.3850   21.8460  -32.3050 C   0  0  0  0  0  0  0  0  0  0  0  0
   -8.5140   20.8390  -31.8700 C   0  0  0  0  0  0  0  0  0  0  0  0
   -8.8400   19.1450  -32.2340 S   0  0  0  0  0  0  0  0  0  0  0  0
   -9.0830   18.3800  -30.9630 O   0  0  0  0  0  0  0  0  0  0  0  0
  -10.0740   19.0720  -33.0910 O   0  0  0  0  0  0  0  0  0  0  0  0
   -7.4850   18.4470  -33.0890 N   0  0  0  0  0  0  0  0  0  0  0  0
   -6.7580   19.5030  -33.8290 C   0  0  0  0  0  0  0  0  0  0  0  0
   -5.3410   19.0540  -34.2000 C   0  0  0  0  0  0  0  0  0  0  0  0
   -4.5030   18.7690  -32.9420 C   0  0  0  0  0  0  0  0  0  0  0  0
   -5.3650   18.3720  -31.7320 C   0  0  0  0  0  0  0  0  0  0  0  0
   -6.6390   17.6380  -32.1750 C   0  0  0  0  0  0  0  0  0  0  0  0
   -7.3670   21.1790  -31.1400 C   0  0  0  0  0  0  0  0  0  0  0  0
   -3.4110   23.2370  -29.9290 C   0  0  0  0  0  0  0  0  0  0  0  0
   -2.2400   22.5450  -29.5750 C   0  0  0  0  0  0  0  0  0  0  0  0
   -1.1310   23.2410  -29.0910 C   0  0  0  0  0  0  0  0  0  0  0  0
   -1.1940   24.6300  -28.9710 C   0  0  0  0  0  0  0  0  0  0  0  0
   -0.2040   25.2740  -28.5350 O   0  0  0  0  0  0  0  0  0  0  0  0
   -2.3260   25.2910  -29.3250 N   0  0  0  0  0  0  0  0  0  0  0  0
   -3.4220   24.6380  -29.7970 C   0  0  0  0  0  0  0  0  0  0  0  0
   -6.0590   23.3670  -29.1560 H   0  0  0  0  0  0  0  0  0  0  0  0
   -7.7527   24.5781  -31.0613 H   0  0  0  0  0  0  0  0  0  0  0  0
   -9.7913   23.9735  -32.3613 H   0  0  0  0  0  0  0  0  0  0  0  0
  -10.2871   21.5831  -32.8770 H   0  0  0  0  0  0  0  0  0  0  0  0
   -7.3109   19.7392  -34.7502 H   0  0  0  0  0  0  0  0  0  0  0  0
   -6.6811   20.3883  -33.1807 H   0  0  0  0  0  0  0  0  0  0  0  0
   -5.4016   18.1382  -34.8064 H   0  0  0  0  0  0  0  0  0  0  0  0
   -4.8558   19.8620  -34.7672 H   0  0  0  0  0  0  0  0  0  0  0  0
   -3.8059   17.9471  -33.1623 H   0  0  0  0  0  0  0  0  0  0  0  0
   -3.9703   19.6953  -32.6808 H   0  0  0  0  0  0  0  0  0  0  0  0
   -4.7797   17.7109  -31.0759 H   0  0  0  0  0  0  0  0  0  0  0  0
   -5.6584   19.2877  -31.1977 H   0  0  0  0  0  0  0  0  0  0  0  0
   -6.3483   16.7124  -32.6934 H   0  0  0  0  0  0  0  0  0  0  0  0
   -7.2323   17.4329  -31.2717 H   0  0  0  0  0  0  0  0  0  0  0  0
   -6.6727   20.3904  -30.8145 H   0  0  0  0  0  0  0  0  0  0  0  0
   -2.1973   21.4508  -29.6797 H   0  0  0  0  0  0  0  0  0  0  0  0
   -0.2164   22.6999  -28.8070 H   0  0  0  0  0  0  0  0  0  0  0  0
   -4.3206   25.2074  -30.0767 H   0  0  0  0  0  0  0  0  0  0  0  0
  1  2  2  0
  2  3  1  0
  3  4  1  0
  4  5  2  0
  5  6  1  0
  6  7  2  0
  7  8  1  0
  8  9  1  0
  9 10  2  0
  9 11  2  0
  9 12  1  0
 12 13  1  0
 13 14  1  0
 14 15  1  0
 15 16  1  0
 16 17  1  0
  8 18  2  0
  2 19  1  0
 19 20  1  0
 20 21  2  0
 21 22  1  0
 22 23  2  0
 22 24  1  0
 24 25  1  0
 18  4  1  0
 25 19  2  0
 17 12  1  0
  3 26  1  0
  5 27  1  0
  6 28  1  0
  7 29  1  0
 13 30  1  0
 13 31  1  0
 14 32  1  0
 14 33  1  0
 15 34  1  0
 15 35  1  0
 16 36  1  0
 16 37  1  0
 17 38  1  0
 17 39  1  0
 18 40  1  0
 20 41  1  0
 21 42  1  0
 25 43  1  0
M  CHG  1  24  -1
M  END
>  <UniqueID>  (24) 
21

>  <SMILES>  (24) 
O=C(Nc1cccc(S(=O)(=O)N2CCCCC2)c1)c1ccc(=O)[n-]c1

>  <Energy>  (24) 
55.69095319101478

>  <Genealogy>  (24) 
O=C(Nc1cccc(S(=O)(=O)N2CCCCC2)c1)c1ccc(=O)[n-]c1 (protonated)
O=C(Nc1cccc(S(=O)(=O)N2CCCCC2)c1)c1ccc(=O)[n-]c1 (3D coordinates assigned)
O=C(Nc1cccc(S(=O)(=O)N2CCCCC2)c1)c1ccc(=O)[n-]c1 (nonaromatic ring conformer: 55.69095319101478 kcal/mol)

>  <smiles>  (24) 
O=C(Nc1cccc(S(=O)(=O)N2CCCCC2)c1)c1ccc(=O)[nH]c1

>  <score_type>  (24) 
oracle

>  <origin>  (24) 
adgpu

>  <m_score__min__energy>  (24) 
-10.82

>  <m_primary>  (24) 
energy

$$$$
24:0
     RDKit          3D

 50 53  0  0  0  0  0  0  0  0999 V2000
    1.1650   17.5970  -34.7630 C   0  0  0  0  0  0  0  0  0  0  0  0
    1.0530   19.3710  -34.7390 S   0  0  0  0  0  0  0  0  0  0  0  0
    1.1390   19.8990  -36.1440 O   0  0  0  0  0  0  0  0  0  0  0  0
    2.1930   19.9370  -33.9400 O   0  0  0  0  0  0  0  0  0  0  0  0
   -0.4770   19.8520  -34.0140 C   0  0  0  0  0  0  0  0  0  0  0  0
   -0.8900   21.1890  -34.0650 C   0  0  0  0  0  0  0  0  0  0  0  0
   -2.1000   21.5750  -33.4790 C   0  0  0  0  0  0  0  0  0  0  0  0
   -2.9160   20.6260  -32.8430 C   0  0  0  0  0  0  0  0  0  0  0  0
   -4.1830   21.0540  -32.2150 C   0  0  0  0  0  0  0  0  0  0  0  0
   -4.2930   22.1910  -31.5000 N   0  0  0  0  0  0  0  0  0  0  0  0
   -5.5250   22.2530  -31.0200 N   0  0  0  0  0  0  0  0  0  0  0  0
   -6.0240   23.3130  -30.1340 C   0  0  0  0  0  0  0  0  0  0  0  0
   -5.0350   23.5530  -28.9820 C   0  0  0  0  0  0  0  0  0  0  0  0
   -3.7240   24.2210  -29.4560 C   0  0  0  0  0  0  0  0  0  0  0  0
   -3.8700   24.9480  -30.7300 N   0  0  0  0  0  0  0  0  0  0  0  0
   -5.1600   25.6400  -30.8130 C   0  0  0  0  0  0  0  0  0  0  0  0
   -6.3090   24.6210  -30.9140 C   0  0  0  0  0  0  0  0  0  0  0  0
   -6.2180   21.1620  -31.3960 C   0  0  0  0  0  0  0  0  0  0  0  0
   -5.3980   20.3730  -32.1790 C   0  0  0  0  0  0  0  0  0  0  0  0
   -5.8040   19.1390  -32.8870 C   0  0  0  0  0  0  0  0  0  0  0  0
   -5.4050   18.9260  -34.2170 C   0  0  0  0  0  0  0  0  0  0  0  0
   -5.7740   17.7550  -34.8860 C   0  0  0  0  0  0  0  0  0  0  0  0
   -6.5330   16.7830  -34.2300 C   0  0  0  0  0  0  0  0  0  0  0  0
   -6.9200   16.9770  -32.9020 C   0  0  0  0  0  0  0  0  0  0  0  0
   -6.5520   18.1460  -32.2290 C   0  0  0  0  0  0  0  0  0  0  0  0
   -2.4810   19.2920  -32.7650 C   0  0  0  0  0  0  0  0  0  0  0  0
   -1.2730   18.9070  -33.3510 C   0  0  0  0  0  0  0  0  0  0  0  0
    1.1890   17.2171  -33.7310 H   0  0  0  0  0  0  0  0  0  0  0  0
    0.2913   17.1815  -35.2864 H   0  0  0  0  0  0  0  0  0  0  0  0
    2.0840   17.2947  -35.2864 H   0  0  0  0  0  0  0  0  0  0  0  0
   -0.2607   21.9383  -34.5676 H   0  0  0  0  0  0  0  0  0  0  0  0
   -2.4141   22.6285  -33.5167 H   0  0  0  0  0  0  0  0  0  0  0  0
   -6.9809   22.9793  -29.7063 H   0  0  0  0  0  0  0  0  0  0  0  0
   -5.5135   24.2051  -28.2365 H   0  0  0  0  0  0  0  0  0  0  0  0
   -4.7752   22.5730  -28.5553 H   0  0  0  0  0  0  0  0  0  0  0  0
   -3.3948   24.9317  -28.6837 H   0  0  0  0  0  0  0  0  0  0  0  0
   -2.9893   23.4189  -29.6198 H   0  0  0  0  0  0  0  0  0  0  0  0
   -3.1090   25.6660  -30.7850 H   0  0  0  0  0  0  0  0  0  0  0  0
   -5.2997   26.2559  -29.9124 H   0  0  0  0  0  0  0  0  0  0  0  0
   -5.1669   26.2762  -31.7103 H   0  0  0  0  0  0  0  0  0  0  0  0
   -7.2223   25.0802  -30.5078 H   0  0  0  0  0  0  0  0  0  0  0  0
   -6.4224   24.3549  -31.9753 H   0  0  0  0  0  0  0  0  0  0  0  0
   -7.2602   20.9370  -31.1257 H   0  0  0  0  0  0  0  0  0  0  0  0
   -4.7992   19.6843  -34.7347 H   0  0  0  0  0  0  0  0  0  0  0  0
   -5.4661   17.5989  -35.9305 H   0  0  0  0  0  0  0  0  0  0  0  0
   -6.8260   15.8644  -34.7595 H   0  0  0  0  0  0  0  0  0  0  0  0
   -7.5148   16.2094  -32.3852 H   0  0  0  0  0  0  0  0  0  0  0  0
   -6.8489   18.2899  -31.1797 H   0  0  0  0  0  0  0  0  0  0  0  0
   -3.0956   18.5465  -32.2392 H   0  0  0  0  0  0  0  0  0  0  0  0
   -0.9449   17.8587  -33.2922 H   0  0  0  0  0  0  0  0  0  0  0  0
  1  2  1  0
  2  3  2  0
  2  4  2  0
  2  5  1  0
  5  6  2  0
  6  7  1  0
  7  8  2  0
  8  9  1  0
  9 10  2  0
 10 11  1  0
 11 12  1  0
 12 13  1  0
 13 14  1  0
 14 15  1  0
 15 16  1  0
 16 17  1  0
 11 18  1  0
 18 19  2  0
 19 20  1  0
 20 21  2  0
 21 22  1  0
 22 23  2  0
 23 24  1  0
 24 25  2  0
  8 26  1  0
 26 27  2  0
 27  5  1  0
 19  9  1  0
 25 20  1  0
 17 12  1  0
  1 28  1  0
  1 29  1  0
  1 30  1  0
  6 31  1  0
  7 32  1  0
 12 33  1  0
 13 34  1  0
 13 35  1  0
 14 36  1  0
 14 37  1  0
 15 38  1  0
 16 39  1  0
 16 40  1  0
 17 41  1  0
 17 42  1  0
 18 43  1  0
 21 44  1  0
 22 45  1  0
 23 46  1  0
 24 47  1  0
 25 48  1  0
 26 49  1  0
 27 50  1  0
M  END
>  <UniqueID>  (25) 
22

>  <SMILES>  (25) 
CS(=O)(=O)c1ccc(-c2nn(C3CCNCC3)cc2-c2ccccc2)cc1

>  <Energy>  (25) 
92.14098524720798

>  <Genealogy>  (25) 
CS(=O)(=O)c1ccc(-c2nn(C3CCNCC3)cc2-c2ccccc2)cc1 (3D coordinates assigned)
CS(=O)(=O)c1ccc(-c2nn(C3CCNCC3)cc2-c2ccccc2)cc1 (nonaromatic ring conformer: 92.14098524720798 kcal/mol)

>  <smiles>  (25) 
CS(=O)(=O)c1ccc(-c2nn(C3CCNCC3)cc2-c2ccccc2)cc1

>  <score_type>  (25) 
oracle

>  <origin>  (25) 
adgpu

>  <m_score__min__energy>  (25) 
-9.4299999999999997

>  <m_primary>  (25) 
energy

$$$$
25:0
     RDKit          3D

 48 51  0  0  0  0  0  0  0  0999 V2000
    1.4451   21.5415  -26.2180 H   0  0  0  0  0  0  0  0  0  0  0  0
    0.8540   21.6240  -27.1420 C   0  0  0  0  0  0  0  0  0  0  0  0
    0.1390   22.7470  -27.3860 N   0  0  0  0  0  0  0  0  0  0  0  0
   -0.6540   22.8730  -28.4790 C   0  0  0  0  0  0  0  0  0  0  0  0
   -1.4170   24.0340  -28.6340 C   0  0  0  0  0  0  0  0  0  0  0  0
   -1.2825   24.8737  -27.9363 H   0  0  0  0  0  0  0  0  0  0  0  0
   -2.3470   24.1340  -29.6670 C   0  0  0  0  0  0  0  0  0  0  0  0
   -3.0990   25.2950  -29.8050 O   0  0  0  0  0  0  0  0  0  0  0  0
   -2.5510   23.0510  -30.5310 C   0  0  0  0  0  0  0  0  0  0  0  0
   -3.5660   23.1200  -31.5370 N   0  0  0  0  0  0  0  0  0  0  0  0
   -3.4420   23.7950  -32.3250 H   0  0  0  0  0  0  0  0  0  0  0  0
   -5.1840   22.6040  -31.1940 S   0  0  0  0  0  0  0  0  0  0  0  0
   -5.3300   22.3760  -29.7150 O   0  0  0  0  0  0  0  0  0  0  0  0
   -6.1440   23.6860  -31.6020 O   0  0  0  0  0  0  0  0  0  0  0  0
   -5.5750   21.1320  -32.0740 C   0  0  0  0  0  0  0  0  0  0  0  0
   -4.5610   20.3870  -32.6920 C   0  0  0  0  0  0  0  0  0  0  0  0
   -3.5137   20.7130  -32.6090 H   0  0  0  0  0  0  0  0  0  0  0  0
   -4.8750   19.2320  -33.4130 C   0  0  0  0  0  0  0  0  0  0  0  0
   -4.0751   18.6573  -33.9027 H   0  0  0  0  0  0  0  0  0  0  0  0
   -6.2120   18.8010  -33.5150 C   0  0  0  0  0  0  0  0  0  0  0  0
   -6.5790   17.6480  -34.2230 O   0  0  0  0  0  0  0  0  0  0  0  0
   -6.1990   16.3250  -33.8550 C   0  0  0  0  0  0  0  0  0  0  0  0
   -6.1752   16.2420  -32.7584 H   0  0  0  0  0  0  0  0  0  0  0  0
   -6.9275   15.6079  -34.2613 H   0  0  0  0  0  0  0  0  0  0  0  0
   -5.2010   16.1038  -34.2613 H   0  0  0  0  0  0  0  0  0  0  0  0
   -7.2190   19.5490  -32.8920 C   0  0  0  0  0  0  0  0  0  0  0  0
   -8.2657   19.2178  -32.9608 H   0  0  0  0  0  0  0  0  0  0  0  0
   -6.9060   20.7120  -32.1840 C   0  0  0  0  0  0  0  0  0  0  0  0
   -7.7074   21.2992  -31.7118 H   0  0  0  0  0  0  0  0  0  0  0  0
   -1.7630   21.8980  -30.4000 C   0  0  0  0  0  0  0  0  0  0  0  0
   -1.9406   21.0423  -31.0680 H   0  0  0  0  0  0  0  0  0  0  0  0
   -0.7440   21.8180  -29.4230 C   0  0  0  0  0  0  0  0  0  0  0  0
    0.1220   20.6900  -29.2640 C   0  0  0  0  0  0  0  0  0  0  0  0
    0.3330   19.7750  -30.1800 N   0  0  0  0  0  0  0  0  0  0  0  0
    0.0550   19.7700  -31.5880 C   0  0  0  0  0  0  0  0  0  0  0  0
   -1.1440   19.2340  -32.0910 C   0  0  0  0  0  0  0  0  0  0  0  0
   -1.8564   18.7490  -31.4074 H   0  0  0  0  0  0  0  0  0  0  0  0
   -1.4340   19.3150  -33.4550 C   0  0  0  0  0  0  0  0  0  0  0  0
   -2.3529   18.8565  -33.8493 H   0  0  0  0  0  0  0  0  0  0  0  0
   -0.5580   19.9780  -34.3200 C   0  0  0  0  0  0  0  0  0  0  0  0
   -0.8580   20.0680  -35.6390 F   0  0  0  0  0  0  0  0  0  0  0  0
    0.6070   20.5690  -33.8160 C   0  0  0  0  0  0  0  0  0  0  0  0
    1.6720   21.4720  -34.8800 Cl  0  0  0  0  0  0  0  0  0  0  0  0
    0.9110   20.4640  -32.4540 C   0  0  0  0  0  0  0  0  0  0  0  0
    1.8271   20.9289  -32.0608 H   0  0  0  0  0  0  0  0  0  0  0  0
    0.8450   20.5690  -28.0580 C   0  0  0  0  0  0  0  0  0  0  0  0
    1.6670   19.4120  -27.7860 C   0  0  0  0  0  0  0  0  0  0  0  0
    2.3260   18.4850  -27.5680 N   0  0  0  0  0  0  0  0  0  0  0  0
  1  2  1  0
  2  3  1  0
  3  4  1  0
  4  5  2  0
  5  6  1  0
  5  7  1  0
  7  8  1  0
  7  9  2  0
  9 10  1  0
 10 11  1  0
 10 12  1  0
 12 13  2  0
 12 14  2  0
 12 15  1  0
 15 16  2  0
 16 17  1  0
 16 18  1  0
 18 19  1  0
 18 20  2  0
 20 21  1  0
 21 22  1  0
 22 23  1  0
 22 24  1  0
 22 25  1  0
 20 26  1  0
 26 27  1  0
 26 28  2  0
 28 29  1  0
  9 30  1  0
 30 31  1  0
 30 32  2  0
 32 33  1  0
 33 34  2  0
 34 35  1  0
 35 36  2  0
 36 37  1  0
 36 38  1  0
 38 39  1  0
 38 40  2  0
 40 41  1  0
 40 42  1  0
 42 43  1  0
 42 44  2  0
 44 45  1  0
 33 46  1  0
 46 47  1  0
 47 48  3  0
 46  2  2  0
 32  4  1  0
 44 35  1  0
 28 15  1  0
M  CHG  2   3  -1   8  -1
M  END
>  <UniqueID>  (26) 
23

>  <SMILES>  (26) 
COc1ccc(S(=O)(=O)Nc2cc3/c(=N\c4ccc(F)c(Cl)c4)c(C#N)c[n-]c3cc2[O-])cc1

>  <Energy>  (26) 
79.0232621393644

>  <Genealogy>  (26) 
COc1ccc(S(=O)(=O)Nc2cc3c(=Nc4ccc(F)c(Cl)c4)c(C#N)c[n-]c3cc2[O-])cc1 (protonated)
COc1ccc(S(=O)(=O)Nc2cc3/c(=N\c4ccc(F)c(Cl)c4)c(C#N)c[n-]c3cc2[O-])cc1 (cis-trans isomerization)
COc1ccc(S(=O)(=O)Nc2cc3/c(=N\c4ccc(F)c(Cl)c4)c(C#N)c[n-]c3cc2[O-])cc1 (3D coordinates assigned)
COc1ccc(S(=O)(=O)Nc2cc3/c(=N\c4ccc(F)c(Cl)c4)c(C#N)c[n-]c3cc2[O-])cc1 (optimized conformer: 79.0232621393644 kcal/mol)

>  <smiles>  (26) 
COc1ccc(S(=O)(=O)Nc2cc3c(=Nc4ccc(F)c(Cl)c4)c(C#N)c[nH]c3cc2O)cc1

>  <score_type>  (26) 
oracle

>  <origin>  (26) 
adgpu

>  <m_score__min__energy>  (26) 
-10.83

>  <m_primary>  (26) 
energy

$$$$
26:0
     RDKit          3D

 48 52  0  0  0  0  0  0  0  0999 V2000
    3.3010   21.5410  -37.5090 O   0  0  0  0  0  0  0  0  0  0  0  0
    2.7550   21.1740  -36.2860 C   0  0  0  0  0  0  0  0  0  0  0  0
    1.4290   21.3140  -35.9390 C   0  0  0  0  0  0  0  0  0  0  0  0
    1.3390   20.8240  -34.6470 C   0  0  0  0  0  0  0  0  0  0  0  0
    0.1450   20.7760  -33.8380 N   0  0  0  0  0  0  0  0  0  0  0  0
   -1.1420   20.3740  -34.4280 C   0  0  0  0  0  0  0  0  0  0  0  0
   -2.3000   21.1610  -33.8030 C   0  0  0  0  0  0  0  0  0  0  0  0
   -2.1840   21.2300  -32.3430 N   0  0  0  0  0  0  0  0  0  0  0  0
   -3.2920   21.7150  -31.5790 C   0  0  0  0  0  0  0  0  0  0  0  0
   -4.5470   21.3090  -31.9020 N   0  0  0  0  0  0  0  0  0  0  0  0
   -5.6410   21.7390  -31.2170 C   0  0  0  0  0  0  0  0  0  0  0  0
   -6.9970   21.2760  -31.6020 C   0  0  0  0  0  0  0  0  0  0  0  0
   -7.1650   20.0970  -32.3560 C   0  0  0  0  0  0  0  0  0  0  0  0
   -8.4440   19.6630  -32.7170 C   0  0  0  0  0  0  0  0  0  0  0  0
   -9.5690   20.3950  -32.3310 C   0  0  0  0  0  0  0  0  0  0  0  0
   -9.4170   21.5640  -31.5840 C   0  0  0  0  0  0  0  0  0  0  0  0
   -8.1410   22.0050  -31.2190 C   0  0  0  0  0  0  0  0  0  0  0  0
   -5.4800   22.6010  -30.1750 N   0  0  0  0  0  0  0  0  0  0  0  0
   -4.2490   23.0370  -29.8030 C   0  0  0  0  0  0  0  0  0  0  0  0
   -4.1160   23.9190  -28.7240 C   0  0  0  0  0  0  0  0  0  0  0  0
   -2.8480   24.3610  -28.3340 C   0  0  0  0  0  0  0  0  0  0  0  0
   -1.7110   23.9230  -29.0180 C   0  0  0  0  0  0  0  0  0  0  0  0
   -1.8340   23.0440  -30.0980 C   0  0  0  0  0  0  0  0  0  0  0  0
   -3.1060   22.5980  -30.5020 C   0  0  0  0  0  0  0  0  0  0  0  0
   -1.0340   20.6440  -31.6530 C   0  0  0  0  0  0  0  0  0  0  0  0
    0.2550   21.0120  -32.3890 C   0  0  0  0  0  0  0  0  0  0  0  0
    2.6120   20.4180  -34.2700 C   0  0  0  0  0  0  0  0  0  0  0  0
    3.4710   20.6350  -35.2840 N   0  0  0  0  0  0  0  0  0  0  0  0
    0.6167   21.7263  -36.5556 H   0  0  0  0  0  0  0  0  0  0  0  0
   -1.1180   20.5674  -35.5106 H   0  0  0  0  0  0  0  0  0  0  0  0
   -1.2990   19.3030  -34.2325 H   0  0  0  0  0  0  0  0  0  0  0  0
   -2.2966   22.1831  -34.2095 H   0  0  0  0  0  0  0  0  0  0  0  0
   -3.2385   20.6422  -34.0480 H   0  0  0  0  0  0  0  0  0  0  0  0
   -6.2837   19.5144  -32.6625 H   0  0  0  0  0  0  0  0  0  0  0  0
   -8.5646   18.7423  -33.3068 H   0  0  0  0  0  0  0  0  0  0  0  0
  -10.5741   20.0504  -32.6155 H   0  0  0  0  0  0  0  0  0  0  0  0
  -10.3037   22.1404  -31.2813 H   0  0  0  0  0  0  0  0  0  0  0  0
   -8.0294   22.9268  -30.6292 H   0  0  0  0  0  0  0  0  0  0  0  0
   -5.0092   24.2644  -28.1828 H   0  0  0  0  0  0  0  0  0  0  0  0
   -2.7454   25.0551  -27.4868 H   0  0  0  0  0  0  0  0  0  0  0  0
   -0.7155   24.2712  -28.7055 H   0  0  0  0  0  0  0  0  0  0  0  0
   -0.9359   22.7008  -30.6324 H   0  0  0  0  0  0  0  0  0  0  0  0
   -0.9899   21.0303  -30.6240 H   0  0  0  0  0  0  0  0  0  0  0  0
   -1.1413   19.5494  -31.6339 H   0  0  0  0  0  0  0  0  0  0  0  0
    0.4712   22.0768  -32.2173 H   0  0  0  0  0  0  0  0  0  0  0  0
    1.0638   20.3760  -31.9999 H   0  0  0  0  0  0  0  0  0  0  0  0
    2.8778   19.9859  -33.2940 H   0  0  0  0  0  0  0  0  0  0  0  0
    4.4940   20.4310  -35.2850 H   0  0  0  0  0  0  0  0  0  0  0  0
  1  2  1  0
  2  3  2  0
  3  4  1  0
  4  5  1  0
  5  6  1  0
  6  7  1  0
  7  8  1  0
  8  9  1  0
  9 10  2  0
 10 11  1  0
 11 12  1  0
 12 13  2  0
 13 14  1  0
 14 15  2  0
 15 16  1  0
 16 17  2  0
 11 18  2  0
 18 19  1  0
 19 20  2  0
 20 21  1  0
 21 22  2  0
 22 23  1  0
 23 24  2  0
  8 25  1  0
 25 26  1  0
  4 27  2  0
 27 28  1  0
 28  2  1  0
 26  5  1  0
 24  9  1  0
 17 12  1  0
 24 19  1  0
  3 29  1  0
  6 30  1  0
  6 31  1  0
  7 32  1  0
  7 33  1  0
 13 34  1  0
 14 35  1  0
 15 36  1  0
 16 37  1  0
 17 38  1  0
 20 39  1  0
 21 40  1  0
 22 41  1  0
 23 42  1  0
 25 43  1  0
 25 44  1  0
 26 45  1  0
 26 46  1  0
 27 47  1  0
 28 48  1  0
M  CHG  1   1  -1
M  END
>  <UniqueID>  (27) 
24

>  <SMILES>  (27) 
[O-]c1cc(N2CCN(c3nc(-c4ccccc4)nc4ccccc34)CC2)c[nH]1

>  <Energy>  (27) 
92.24398322273656

>  <Genealogy>  (27) 
[O-]c1cc(N2CCN(c3nc(-c4ccccc4)nc4ccccc34)CC2)c[nH]1 (protonated)
[O-]c1cc(N2CCN(c3nc(-c4ccccc4)nc4ccccc34)CC2)c[nH]1 (3D coordinates assigned)
[O-]c1cc(N2CCN(c3nc(-c4ccccc4)nc4ccccc34)CC2)c[nH]1 (nonaromatic ring conformer: 92.24398322273656 kcal/mol)

>  <smiles>  (27) 
Oc1cc(N2CCN(c3nc(-c4ccccc4)nc4ccccc34)CC2)c[nH]1

>  <score_type>  (27) 
oracle

>  <origin>  (27) 
adgpu

>  <m_score__min__energy>  (27) 
-9.5800000000000001

>  <m_primary>  (27) 
energy

$$$$
27:0
     RDKit          3D

 50 52  0  0  0  0  0  0  0  0999 V2000
    0.5850   17.4440  -31.7070 C   0  0  0  0  0  0  0  0  0  0  0  0
   -0.0860   18.0910  -30.6280 O   0  0  0  0  0  0  0  0  0  0  0  0
   -0.5660   19.4100  -30.6670 C   0  0  0  0  0  0  0  0  0  0  0  0
   -0.0490   20.4190  -29.8270 C   0  0  0  0  0  0  0  0  0  0  0  0
   -0.5470   21.7300  -29.9030 C   0  0  0  0  0  0  0  0  0  0  0  0
   -1.5580   22.0420  -30.8120 C   0  0  0  0  0  0  0  0  0  0  0  0
   -2.0840   21.0450  -31.6410 C   0  0  0  0  0  0  0  0  0  0  0  0
   -1.6010   19.7230  -31.5660 C   0  0  0  0  0  0  0  0  0  0  0  0
   -2.1710   18.6760  -32.3630 N   0  0  0  0  0  0  0  0  0  0  0  0
   -3.3580   18.9640  -33.6050 S   0  0  0  0  0  0  0  0  0  0  0  0
   -3.1370   20.3250  -34.2080 O   0  0  0  0  0  0  0  0  0  0  0  0
   -3.2230   17.9100  -34.6760 O   0  0  0  0  0  0  0  0  0  0  0  0
   -4.9640   18.8470  -32.8850 C   0  0  0  0  0  0  0  0  0  0  0  0
   -5.3560   17.6980  -32.1810 C   0  0  0  0  0  0  0  0  0  0  0  0
   -6.6640   17.5840  -31.7070 C   0  0  0  0  0  0  0  0  0  0  0  0
   -7.5800   18.6190  -31.9220 C   0  0  0  0  0  0  0  0  0  0  0  0
   -7.1950   19.7820  -32.5980 C   0  0  0  0  0  0  0  0  0  0  0  0
   -8.1650   20.8150  -32.8190 N   0  0  0  0  0  0  0  0  0  0  0  0
   -8.5250   22.0950  -31.6930 S   0  0  0  0  0  0  0  0  0  0  0  0
   -9.5900   22.9920  -32.2740 O   0  0  0  0  0  0  0  0  0  0  0  0
   -9.0340   21.5020  -30.4070 O   0  0  0  0  0  0  0  0  0  0  0  0
   -7.0610   23.0150  -31.3460 C   0  0  0  0  0  0  0  0  0  0  0  0
   -7.1260   24.1410  -30.5130 C   0  0  0  0  0  0  0  0  0  0  0  0
   -5.9610   24.8540  -30.1980 C   0  0  0  0  0  0  0  0  0  0  0  0
   -4.7200   24.4470  -30.7170 C   0  0  0  0  0  0  0  0  0  0  0  0
   -3.5050   25.1230  -30.3630 N   0  0  0  0  0  0  0  0  0  0  0  0
   -2.7080   24.8700  -29.2020 C   0  0  0  0  0  0  0  0  0  0  0  0
   -3.0270   23.7570  -28.2480 C   0  0  0  0  0  0  0  0  0  0  0  0
   -1.7210   25.6170  -28.9650 O   0  0  0  0  0  0  0  0  0  0  0  0
   -4.6560   23.3070  -31.5310 C   0  0  0  0  0  0  0  0  0  0  0  0
   -5.8210   22.6020  -31.8560 C   0  0  0  0  0  0  0  0  0  0  0  0
   -5.8840   19.8840  -33.0870 C   0  0  0  0  0  0  0  0  0  0  0  0
    1.3225   16.7329  -31.3065 H   0  0  0  0  0  0  0  0  0  0  0  0
   -0.1483   16.9035  -32.3235 H   0  0  0  0  0  0  0  0  0  0  0  0
    1.0985   18.1965  -32.3235 H   0  0  0  0  0  0  0  0  0  0  0  0
    0.7484   20.1775  -29.1088 H   0  0  0  0  0  0  0  0  0  0  0  0
   -0.1394   22.5116  -29.2450 H   0  0  0  0  0  0  0  0  0  0  0  0
   -1.9414   23.0710  -30.8771 H   0  0  0  0  0  0  0  0  0  0  0  0
   -2.8808   21.2950  -32.3570 H   0  0  0  0  0  0  0  0  0  0  0  0
   -4.6333   16.8881  -32.0029 H   0  0  0  0  0  0  0  0  0  0  0  0
   -6.9747   16.6793  -31.1639 H   0  0  0  0  0  0  0  0  0  0  0  0
   -8.6125   18.5177  -31.5563 H   0  0  0  0  0  0  0  0  0  0  0  0
   -8.0946   24.4660  -30.1053 H   0  0  0  0  0  0  0  0  0  0  0  0
   -6.0183   25.7353  -29.5422 H   0  0  0  0  0  0  0  0  0  0  0  0
   -2.9233   24.1189  -27.2144 H   0  0  0  0  0  0  0  0  0  0  0  0
   -4.0592   23.4154  -28.4150 H   0  0  0  0  0  0  0  0  0  0  0  0
   -2.3324   22.9205  -28.4150 H   0  0  0  0  0  0  0  0  0  0  0  0
   -3.6844   22.9645  -31.9166 H   0  0  0  0  0  0  0  0  0  0  0  0
   -5.7640   21.7217  -32.5131 H   0  0  0  0  0  0  0  0  0  0  0  0
   -5.5755   20.7869  -33.6343 H   0  0  0  0  0  0  0  0  0  0  0  0
  1  2  1  0
  2  3  1  0
  3  4  2  0
  4  5  1  0
  5  6  2  0
  6  7  1  0
  7  8  2  0
  8  9  1  0
  9 10  1  0
 10 11  2  0
 10 12  2  0
 10 13  1  0
 13 14  2  0
 14 15  1  0
 15 16  2  0
 16 17  1  0
 17 18  1  0
 18 19  1  0
 19 20  2  0
 19 21  2  0
 19 22  1  0
 22 23  2  0
 23 24  1  0
 24 25  2  0
 25 26  1  0
 26 27  1  0
 27 28  1  0
 27 29  2  0
 25 30  1  0
 30 31  2  0
 17 32  2  0
  8  3  1  0
 32 13  1  0
 31 22  1  0
  1 33  1  0
  1 34  1  0
  1 35  1  0
  4 36  1  0
  5 37  1  0
  6 38  1  0
  7 39  1  0
 14 40  1  0
 15 41  1  0
 16 42  1  0
 23 43  1  0
 24 44  1  0
 28 45  1  0
 28 46  1  0
 28 47  1  0
 30 48  1  0
 31 49  1  0
 32 50  1  0
M  CHG  3   9  -1  18  -1  26  -1
M  END
>  <UniqueID>  (28) 
25

>  <SMILES>  (28) 
COc1ccccc1[N-]S(=O)(=O)c1cccc([N-]S(=O)(=O)c2ccc([N-]C(C)=O)cc2)c1

>  <Energy>  (28) 
61.54423498202945

>  <Genealogy>  (28) 
COc1ccccc1[N-]S(=O)(=O)c1cccc([N-]S(=O)(=O)c2ccc([N-]C(C)=O)cc2)c1 (protonated)
COc1ccccc1[N-]S(=O)(=O)c1cccc([N-]S(=O)(=O)c2ccc([N-]C(C)=O)cc2)c1 (3D coordinates assigned)
COc1ccccc1[N-]S(=O)(=O)c1cccc([N-]S(=O)(=O)c2ccc([N-]C(C)=O)cc2)c1 (optimized conformer: 61.54423498202945 kcal/mol)

>  <smiles>  (28) 
COc1ccccc1NS(=O)(=O)c1cccc(NS(=O)(=O)c2ccc(NC(C)=O)cc2)c1

>  <score_type>  (28) 
oracle

>  <origin>  (28) 
adgpu

>  <m_score__min__energy>  (28) 
-11.99

>  <m_primary>  (28) 
energy

$$$$
28:0
     RDKit          3D

 45 47  0  0  0  0  0  0  0  0999 V2000
   -1.6740   19.8580  -28.6420 Cl  0  0  0  0  0  0  0  0  0  0  0  0
   -2.3140   21.4090  -29.1550 C   0  0  0  0  0  0  0  0  0  0  0  0
   -2.2370   21.7880  -30.4970 C   0  0  0  0  0  0  0  0  0  0  0  0
   -2.7450   23.0230  -30.9080 C   0  0  0  0  0  0  0  0  0  0  0  0
   -3.3340   23.8980  -29.9730 C   0  0  0  0  0  0  0  0  0  0  0  0
   -3.8500   25.1530  -30.3400 O   0  0  0  0  0  0  0  0  0  0  0  0
   -5.2300   25.4480  -30.5580 C   0  0  0  0  0  0  0  0  0  0  0  0
   -5.9990   24.1950  -30.8810 C   0  0  0  0  0  0  0  0  0  0  0  0
   -6.1450   23.7830  -32.2140 C   0  0  0  0  0  0  0  0  0  0  0  0
   -6.8480   22.6140  -32.5190 C   0  0  0  0  0  0  0  0  0  0  0  0
   -7.4220   21.8450  -31.4950 C   0  0  0  0  0  0  0  0  0  0  0  0
   -8.1510   20.5610  -31.8250 C   0  0  0  0  0  0  0  0  0  0  0  0
   -7.4880   19.7950  -32.9140 N   0  0  0  0  0  0  0  0  0  0  0  0
   -6.0080   19.9140  -32.8830 C   0  0  0  0  0  0  0  0  0  0  0  0
   -5.3770   19.2280  -31.6550 C   0  0  0  0  0  0  0  0  0  0  0  0
   -6.0980   17.9290  -31.2590 C   0  0  0  0  0  0  0  0  0  0  0  0
   -6.9010   17.3560  -32.4240 C   0  0  0  0  0  0  0  0  0  0  0  0
   -7.9440   18.3710  -32.9370 C   0  0  0  0  0  0  0  0  0  0  0  0
   -7.2940   22.2680  -30.1620 C   0  0  0  0  0  0  0  0  0  0  0  0
   -6.5910   23.4370  -29.8580 C   0  0  0  0  0  0  0  0  0  0  0  0
   -3.4110   23.5060  -28.6270 C   0  0  0  0  0  0  0  0  0  0  0  0
   -4.1390   24.5670  -27.4300 Cl  0  0  0  0  0  0  0  0  0  0  0  0
   -2.9020   22.2670  -28.2210 C   0  0  0  0  0  0  0  0  0  0  0  0
   -1.7753   21.1125  -31.2322 H   0  0  0  0  0  0  0  0  0  0  0  0
   -2.6849   23.3140  -31.9671 H   0  0  0  0  0  0  0  0  0  0  0  0
   -5.6493   25.9045  -29.6493 H   0  0  0  0  0  0  0  0  0  0  0  0
   -5.3127   26.1418  -31.4076 H   0  0  0  0  0  0  0  0  0  0  0  0
   -5.7039   24.3831  -33.0235 H   0  0  0  0  0  0  0  0  0  0  0  0
   -6.9518   22.2953  -33.5667 H   0  0  0  0  0  0  0  0  0  0  0  0
   -8.1862   19.9330  -30.9225 H   0  0  0  0  0  0  0  0  0  0  0  0
   -9.1606   20.8284  -32.1704 H   0  0  0  0  0  0  0  0  0  0  0  0
   -7.8010   20.2230  -33.8180 H   0  0  0  0  0  0  0  0  0  0  0  0
   -5.5994   19.4501  -33.7929 H   0  0  0  0  0  0  0  0  0  0  0  0
   -5.7639   20.9850  -32.8248 H   0  0  0  0  0  0  0  0  0  0  0  0
   -4.3280   18.9908  -31.8859 H   0  0  0  0  0  0  0  0  0  0  0  0
   -5.4623   19.9243  -30.8078 H   0  0  0  0  0  0  0  0  0  0  0  0
   -5.3498   17.1876  -30.9419 H   0  0  0  0  0  0  0  0  0  0  0  0
   -6.7951   18.1578  -30.4395 H   0  0  0  0  0  0  0  0  0  0  0  0
   -6.2128   17.1035  -33.2441 H   0  0  0  0  0  0  0  0  0  0  0  0
   -7.4321   16.4591  -32.0726 H   0  0  0  0  0  0  0  0  0  0  0  0
   -8.1974   18.1083  -33.9747 H   0  0  0  0  0  0  0  0  0  0  0  0
   -8.8042   18.3072  -32.2544 H   0  0  0  0  0  0  0  0  0  0  0  0
   -7.7490   21.6767  -29.3537 H   0  0  0  0  0  0  0  0  0  0  0  0
   -6.5010   23.7650  -28.8119 H   0  0  0  0  0  0  0  0  0  0  0  0
   -2.9648   21.9677  -27.1644 H   0  0  0  0  0  0  0  0  0  0  0  0
  1  2  1  0
  2  3  2  0
  3  4  1  0
  4  5  2  0
  5  6  1  0
  6  7  1  0
  7  8  1  0
  8  9  2  0
  9 10  1  0
 10 11  2  0
 11 12  1  0
 12 13  1  0
 13 14  1  0
 14 15  1  0
 15 16  1  0
 16 17  1  0
 17 18  1  0
 11 19  1  0
 19 20  2  0
  5 21  1  0
 21 22  1  0
 21 23  2  0
 23  2  1  0
 20  8  1  0
 18 13  1  0
  3 24  1  0
  4 25  1  0
  7 26  1  0
  7 27  1  0
  9 28  1  0
 10 29  1  0
 12 30  1  0
 12 31  1  0
 13 32  1  0
 14 33  1  0
 14 34  1  0
 15 35  1  0
 15 36  1  0
 16 37  1  0
 16 38  1  0
 17 39  1  0
 17 40  1  0
 18 41  1  0
 18 42  1  0
 19 43  1  0
 20 44  1  0
 23 45  1  0
M  CHG  1  13   1
M  END
>  <UniqueID>  (29) 
26

>  <SMILES>  (29) 
Clc1ccc(OCc2ccc(C[NH+]3CCCCC3)cc2)c(Cl)c1

>  <Energy>  (29) 
55.00670313820969

>  <Genealogy>  (29) 
Clc1ccc(OCc2ccc(C[NH+]3CCCCC3)cc2)c(Cl)c1 (protonated)
Clc1ccc(OCc2ccc(C[NH+]3CCCCC3)cc2)c(Cl)c1 (3D coordinates assigned)
Clc1ccc(OCc2ccc(C[NH+]3CCCCC3)cc2)c(Cl)c1 (nonaromatic ring conformer: 55.00670313820969 kcal/mol)

>  <smiles>  (29) 
Clc1ccc(OCc2ccc(CN3CCCCC3)cc2)c(Cl)c1

>  <score_type>  (29) 
oracle

>  <origin>  (29) 
adgpu

>  <m_score__min__energy>  (29) 
-8.6999999999999993

>  <m_primary>  (29) 
energy

$$$$
29:0
     RDKit          3D

 46 48  0  0  0  0  0  0  0  0999 V2000
   -0.8740   26.2480  -27.0480 C   0  0  0  0  0  0  0  0  0  0  0  0
   -0.1420   25.2890  -27.8060 O   0  0  0  0  0  0  0  0  0  0  0  0
   -0.6050   24.0010  -28.1260 C   0  0  0  0  0  0  0  0  0  0  0  0
   -0.7960   23.5940  -29.4580 C   0  0  0  0  0  0  0  0  0  0  0  0
   -1.2570   22.3060  -29.7470 C   0  0  0  0  0  0  0  0  0  0  0  0
   -1.4910   21.8790  -31.1730 C   0  0  0  0  0  0  0  0  0  0  0  0
   -2.9210   21.7120  -31.4200 N   0  0  0  0  0  0  0  0  0  0  0  0
   -3.8650   22.7770  -31.2230 C   0  0  0  0  0  0  0  0  0  0  0  0
   -3.4530   23.9260  -30.9010 O   0  0  0  0  0  0  0  0  0  0  0  0
   -5.3150   22.5380  -31.3950 C   0  0  0  0  0  0  0  0  0  0  0  0
   -6.2530   23.5500  -31.1220 C   0  0  0  0  0  0  0  0  0  0  0  0
   -7.6150   23.2940  -31.2890 C   0  0  0  0  0  0  0  0  0  0  0  0
   -8.0400   22.0330  -31.7250 C   0  0  0  0  0  0  0  0  0  0  0  0
   -9.4010   21.7430  -31.9020 C   0  0  0  0  0  0  0  0  0  0  0  0
   -9.7920   20.4730  -32.3400 C   0  0  0  0  0  0  0  0  0  0  0  0
   -8.8310   19.4900  -32.6000 C   0  0  0  0  0  0  0  0  0  0  0  0
   -7.4720   19.7730  -32.4250 C   0  0  0  0  0  0  0  0  0  0  0  0
   -7.0710   21.0400  -31.9890 C   0  0  0  0  0  0  0  0  0  0  0  0
   -5.7510   21.3190  -31.8170 N   0  0  0  0  0  0  0  0  0  0  0  0
   -1.5380   21.4220  -28.7000 C   0  0  0  0  0  0  0  0  0  0  0  0
   -1.3530   21.8060  -27.3580 C   0  0  0  0  0  0  0  0  0  0  0  0
   -1.6340   20.9160  -26.3100 O   0  0  0  0  0  0  0  0  0  0  0  0
   -2.1800   19.6100  -26.4700 C   0  0  0  0  0  0  0  0  0  0  0  0
   -0.8780   23.1130  -27.0720 C   0  0  0  0  0  0  0  0  0  0  0  0
   -0.6580   23.5960  -25.7670 O   0  0  0  0  0  0  0  0  0  0  0  0
   -0.1360   22.8600  -24.6660 C   0  0  0  0  0  0  0  0  0  0  0  0
   -0.7276   26.0562  -25.9748 H   0  0  0  0  0  0  0  0  0  0  0  0
   -0.5158   27.2590  -27.2920 H   0  0  0  0  0  0  0  0  0  0  0  0
   -1.9437   26.1691  -27.2920 H   0  0  0  0  0  0  0  0  0  0  0  0
   -0.5812   24.2940  -30.2789 H   0  0  0  0  0  0  0  0  0  0  0  0
   -1.0918   22.6464  -31.8525 H   0  0  0  0  0  0  0  0  0  0  0  0
   -0.9813   20.9203  -31.3495 H   0  0  0  0  0  0  0  0  0  0  0  0
   -3.2540   20.7780  -31.7490 H   0  0  0  0  0  0  0  0  0  0  0  0
   -5.9148   24.5387  -30.7784 H   0  0  0  0  0  0  0  0  0  0  0  0
   -8.3534   24.0817  -31.0784 H   0  0  0  0  0  0  0  0  0  0  0  0
  -10.1596   22.5127  -31.6968 H   0  0  0  0  0  0  0  0  0  0  0  0
  -10.8592   20.2465  -32.4805 H   0  0  0  0  0  0  0  0  0  0  0  0
   -9.1444   18.4928  -32.9426 H   0  0  0  0  0  0  0  0  0  0  0  0
   -6.7184   18.9985  -32.6305 H   0  0  0  0  0  0  0  0  0  0  0  0
   -1.9090   20.4119  -28.9284 H   0  0  0  0  0  0  0  0  0  0  0  0
   -2.3655   19.1664  -25.4807 H   0  0  0  0  0  0  0  0  0  0  0  0
   -3.1267   19.6740  -27.0264 H   0  0  0  0  0  0  0  0  0  0  0  0
   -1.4694   18.9811  -27.0264 H   0  0  0  0  0  0  0  0  0  0  0  0
   -0.4656   23.3247  -23.7250 H   0  0  0  0  0  0  0  0  0  0  0  0
   -0.5021   21.8237  -24.7111 H   0  0  0  0  0  0  0  0  0  0  0  0
    0.9631   22.8629  -24.7111 H   0  0  0  0  0  0  0  0  0  0  0  0
  1  2  1  0
  2  3  1  0
  3  4  2  0
  4  5  1  0
  5  6  1  0
  6  7  1  0
  7  8  1  0
  8  9  2  0
  8 10  1  0
 10 11  2  0
 11 12  1  0
 12 13  2  0
 13 14  1  0
 14 15  2  0
 15 16  1  0
 16 17  2  0
 17 18  1  0
 18 19  2  0
  5 20  2  0
 20 21  1  0
 21 22  1  0
 22 23  1  0
 21 24  2  0
 24 25  1  0
 25 26  1  0
 24  3  1  0
 19 10  1  0
 18 13  1  0
  1 27  1  0
  1 28  1  0
  1 29  1  0
  4 30  1  0
  6 31  1  0
  6 32  1  0
  7 33  1  0
 11 34  1  0
 12 35  1  0
 14 36  1  0
 15 37  1  0
 16 38  1  0
 17 39  1  0
 20 40  1  0
 23 41  1  0
 23 42  1  0
 23 43  1  0
 26 44  1  0
 26 45  1  0
 26 46  1  0
M  END
>  <UniqueID>  (30) 
27

>  <SMILES>  (30) 
COc1cc(CNC(=O)c2ccc3ccccc3n2)cc(OC)c1OC

>  <Energy>  (30) 
50.33939620446653

>  <Genealogy>  (30) 
COc1cc(CNC(=O)c2ccc3ccccc3n2)cc(OC)c1OC (3D coordinates assigned)
COc1cc(CNC(=O)c2ccc3ccccc3n2)cc(OC)c1OC (optimized conformer: 50.33939620446653 kcal/mol)

>  <smiles>  (30) 
COc1cc(CNC(=O)c2ccc3ccccc3n2)cc(OC)c1OC

>  <score_type>  (30) 
oracle

>  <origin>  (30) 
adgpu

>  <m_score__min__energy>  (30) 
-8.4900000000000002

>  <m_primary>  (30) 
energy

$$$$
30:0
     RDKit          3D

 48 50  0  0  0  0  0  0  0  0999 V2000
    1.6770   18.8920  -29.9160 C   0  0  0  0  0  0  0  0  0  0  0  0
    1.5230   19.4520  -31.2150 O   0  0  0  0  0  0  0  0  0  0  0  0
    0.2920   19.8380  -31.7690 C   0  0  0  0  0  0  0  0  0  0  0  0
   -0.1580   21.1710  -31.7490 C   0  0  0  0  0  0  0  0  0  0  0  0
   -1.3870   21.5060  -32.3230 C   0  0  0  0  0  0  0  0  0  0  0  0
   -2.1930   20.5230  -32.9210 C   0  0  0  0  0  0  0  0  0  0  0  0
   -3.4490   20.9090  -33.5080 N   0  0  0  0  0  0  0  0  0  0  0  0
   -5.0020   20.3530  -32.9640 S   0  0  0  0  0  0  0  0  0  0  0  0
   -5.7830   19.8480  -34.1450 O   0  0  0  0  0  0  0  0  0  0  0  0
   -4.8300   19.2150  -31.9970 O   0  0  0  0  0  0  0  0  0  0  0  0
   -5.8850   21.6910  -32.2360 C   0  0  0  0  0  0  0  0  0  0  0  0
   -7.2790   21.7800  -32.3390 C   0  0  0  0  0  0  0  0  0  0  0  0
   -7.9510   22.8820  -31.8020 C   0  0  0  0  0  0  0  0  0  0  0  0
   -7.2360   23.8970  -31.1590 C   0  0  0  0  0  0  0  0  0  0  0  0
   -5.8400   23.8090  -31.0340 C   0  0  0  0  0  0  0  0  0  0  0  0
   -5.0740   24.8960  -30.3810 C   0  0  0  0  0  0  0  0  0  0  0  0
   -5.6850   25.8180  -29.7820 O   0  0  0  0  0  0  0  0  0  0  0  0
   -3.6440   24.9500  -30.4630 N   0  0  0  0  0  0  0  0  0  0  0  0
   -2.7610   24.2330  -29.5910 C   0  0  0  0  0  0  0  0  0  0  0  0
   -1.9950   24.9360  -28.6530 C   0  0  0  0  0  0  0  0  0  0  0  0
   -1.1220   24.2530  -27.7990 C   0  0  0  0  0  0  0  0  0  0  0  0
   -1.0310   22.8600  -27.8610 C   0  0  0  0  0  0  0  0  0  0  0  0
   -1.8160   22.1450  -28.7750 C   0  0  0  0  0  0  0  0  0  0  0  0
   -1.7450   20.3530  -28.8200 S   0  0  0  0  0  0  0  0  0  0  0  0
   -2.7590   20.1580  -27.3210 C   0  0  0  0  0  0  0  0  0  0  0  0
   -2.6770   22.8310  -29.6400 C   0  0  0  0  0  0  0  0  0  0  0  0
   -5.1720   22.7000  -31.5800 C   0  0  0  0  0  0  0  0  0  0  0  0
   -1.7510   19.1860  -32.9150 C   0  0  0  0  0  0  0  0  0  0  0  0
   -0.5130   18.8540  -32.3560 C   0  0  0  0  0  0  0  0  0  0  0  0
    1.4656   19.6606  -29.1580 H   0  0  0  0  0  0  0  0  0  0  0  0
    0.9762   18.0531  -29.7929 H   0  0  0  0  0  0  0  0  0  0  0  0
    2.7082   18.5294  -29.7929 H   0  0  0  0  0  0  0  0  0  0  0  0
    0.4594   21.9514  -31.2802 H   0  0  0  0  0  0  0  0  0  0  0  0
   -1.7275   22.5518  -32.3065 H   0  0  0  0  0  0  0  0  0  0  0  0
   -3.4440   21.5290  -34.3490 H   0  0  0  0  0  0  0  0  0  0  0  0
   -7.8452   20.9826  -32.8426 H   0  0  0  0  0  0  0  0  0  0  0  0
   -9.0457   22.9508  -31.8856 H   0  0  0  0  0  0  0  0  0  0  0  0
   -7.7690   24.7678  -30.7495 H   0  0  0  0  0  0  0  0  0  0  0  0
   -2.0800   26.0307  -28.5872 H   0  0  0  0  0  0  0  0  0  0  0  0
   -0.5073   24.8127  -27.0787 H   0  0  0  0  0  0  0  0  0  0  0  0
   -0.3422   22.3241  -27.1914 H   0  0  0  0  0  0  0  0  0  0  0  0
   -2.1246   20.2800  -26.4307 H   0  0  0  0  0  0  0  0  0  0  0  0
   -3.5522   20.9201  -27.3132 H   0  0  0  0  0  0  0  0  0  0  0  0
   -3.2130   19.1561  -27.3132 H   0  0  0  0  0  0  0  0  0  0  0  0
   -3.2902   22.2704  -30.3609 H   0  0  0  0  0  0  0  0  0  0  0  0
   -4.0782   22.6245  -31.4908 H   0  0  0  0  0  0  0  0  0  0  0  0
   -2.3828   18.3988  -33.3523 H   0  0  0  0  0  0  0  0  0  0  0  0
   -0.1681   17.8097  -32.3776 H   0  0  0  0  0  0  0  0  0  0  0  0
  1  2  1  0
  2  3  1  0
  3  4  2  0
  4  5  1  0
  5  6  2  0
  6  7  1  0
  7  8  1  0
  8  9  2  0
  8 10  2  0
  8 11  1  0
 11 12  2  0
 12 13  1  0
 13 14  2  0
 14 15  1  0
 15 16  1  0
 16 17  2  0
 16 18  1  0
 18 19  1  0
 19 20  2  0
 20 21  1  0
 21 22  2  0
 22 23  1  0
 23 24  1  0
 24 25  1  0
 23 26  2  0
 15 27  2  0
  6 28  1  0
 28 29  2  0
 29  3  1  0
 27 11  1  0
 26 19  1  0
  1 30  1  0
  1 31  1  0
  1 32  1  0
  4 33  1  0
  5 34  1  0
  7 35  1  0
 12 36  1  0
 13 37  1  0
 14 38  1  0
 20 39  1  0
 21 40  1  0
 22 41  1  0
 25 42  1  0
 25 43  1  0
 25 44  1  0
 26 45  1  0
 27 46  1  0
 28 47  1  0
 29 48  1  0
M  CHG  1  18  -1
M  END
>  <UniqueID>  (31) 
28

>  <SMILES>  (31) 
COc1ccc(NS(=O)(=O)c2cccc(C(=O)[N-]c3cccc(SC)c3)c2)cc1

>  <Energy>  (31) 
52.07394089852912

>  <Genealogy>  (31) 
COc1ccc(NS(=O)(=O)c2cccc(C(=O)[N-]c3cccc(SC)c3)c2)cc1 (protonated)
COc1ccc(NS(=O)(=O)c2cccc(C(=O)[N-]c3cccc(SC)c3)c2)cc1 (3D coordinates assigned)
COc1ccc(NS(=O)(=O)c2cccc(C(=O)[N-]c3cccc(SC)c3)c2)cc1 (optimized conformer: 52.07394089852912 kcal/mol)

>  <smiles>  (31) 
COc1ccc(NS(=O)(=O)c2cccc(C(=O)Nc3cccc(SC)c3)c2)cc1

>  <score_type>  (31) 
oracle

>  <origin>  (31) 
adgpu

>  <m_score__min__energy>  (31) 
-10.460000000000001

>  <m_primary>  (31) 
energy

$$$$
31:0
     RDKit          3D

 63 65  0  0  0  0  0  0  0  0999 V2000
   -2.9270   19.6210  -27.0090 C   0  0  0  0  0  0  0  0  0  0  0  0
   -2.1330   20.7310  -27.6860 C   0  0  0  0  0  0  0  0  0  0  0  0
   -2.9520   21.3890  -28.8150 C   0  0  0  0  0  0  0  0  0  0  0  0
   -3.6800   22.6630  -28.3530 C   0  0  0  0  0  0  0  0  0  0  0  0
   -2.7080   23.7640  -27.9790 C   0  0  0  0  0  0  0  0  0  0  0  0
   -2.0700   23.7100  -26.7240 C   0  0  0  0  0  0  0  0  0  0  0  0
   -1.1110   24.6690  -26.3680 C   0  0  0  0  0  0  0  0  0  0  0  0
   -0.4830   24.6460  -25.0050 C   0  0  0  0  0  0  0  0  0  0  0  0
   -0.7840   25.6860  -27.2760 C   0  0  0  0  0  0  0  0  0  0  0  0
   -1.4130   25.7530  -28.5250 C   0  0  0  0  0  0  0  0  0  0  0  0
   -2.4060   24.8190  -28.8720 C   0  0  0  0  0  0  0  0  0  0  0  0
   -3.1220   24.9170  -30.1140 N   0  0  0  0  0  0  0  0  0  0  0  0
   -4.8450   24.8320  -30.3200 S   0  0  0  0  0  0  0  0  0  0  0  0
   -5.5040   24.9390  -28.9730 O   0  0  0  0  0  0  0  0  0  0  0  0
   -5.3470   25.9730  -31.1640 O   0  0  0  0  0  0  0  0  0  0  0  0
   -5.2740   23.2880  -31.0430 C   0  0  0  0  0  0  0  0  0  0  0  0
   -4.4100   22.7100  -31.9780 C   0  0  0  0  0  0  0  0  0  0  0  0
   -4.6930   21.4540  -32.5200 C   0  0  0  0  0  0  0  0  0  0  0  0
   -5.8520   20.7560  -32.1410 C   0  0  0  0  0  0  0  0  0  0  0  0
   -6.1320   19.4070  -32.7040 C   0  0  0  0  0  0  0  0  0  0  0  0
   -6.9790   18.5140  -32.0200 C   0  0  0  0  0  0  0  0  0  0  0  0
   -7.2080   17.2290  -32.5200 C   0  0  0  0  0  0  0  0  0  0  0  0
   -6.5890   16.8110  -33.7080 C   0  0  0  0  0  0  0  0  0  0  0  0
   -6.8270   15.4240  -34.2410 C   0  0  0  0  0  0  0  0  0  0  0  0
   -5.5640   14.6850  -34.3680 N   0  0  0  0  0  0  0  0  0  0  0  0
   -5.4850   13.5380  -33.4420 C   0  0  0  0  0  0  0  0  0  0  0  0
   -4.6130   13.9030  -32.2430 C   0  0  0  0  0  0  0  0  0  0  0  0
   -4.0620   15.1800  -32.4160 O   0  0  0  0  0  0  0  0  0  0  0  0
   -5.7620   17.7050  -34.4090 C   0  0  0  0  0  0  0  0  0  0  0  0
   -5.5390   18.9940  -33.9130 C   0  0  0  0  0  0  0  0  0  0  0  0
   -6.7350   21.3570  -31.2240 C   0  0  0  0  0  0  0  0  0  0  0  0
   -6.4460   22.6160  -30.6790 C   0  0  0  0  0  0  0  0  0  0  0  0
   -2.8500   19.7287  -25.9170 H   0  0  0  0  0  0  0  0  0  0  0  0
   -3.9827   19.6890  -27.3106 H   0  0  0  0  0  0  0  0  0  0  0  0
   -2.5217   18.6439  -27.3106 H   0  0  0  0  0  0  0  0  0  0  0  0
   -1.8735   21.4948  -26.9381 H   0  0  0  0  0  0  0  0  0  0  0  0
   -1.2232   20.2937  -28.1231 H   0  0  0  0  0  0  0  0  0  0  0  0
   -2.2705   21.6514  -29.6376 H   0  0  0  0  0  0  0  0  0  0  0  0
   -3.7167   20.6665  -29.1363 H   0  0  0  0  0  0  0  0  0  0  0  0
   -4.3251   23.0200  -29.1693 H   0  0  0  0  0  0  0  0  0  0  0  0
   -4.2724   22.4130  -27.4605 H   0  0  0  0  0  0  0  0  0  0  0  0
   -2.3267   22.9077  -26.0166 H   0  0  0  0  0  0  0  0  0  0  0  0
   -1.2708   24.6749  -24.2378 H   0  0  0  0  0  0  0  0  0  0  0  0
    0.1081   23.7256  -24.8891 H   0  0  0  0  0  0  0  0  0  0  0  0
    0.1739   25.5207  -24.8891 H   0  0  0  0  0  0  0  0  0  0  0  0
   -0.0274   26.4371  -27.0050 H   0  0  0  0  0  0  0  0  0  0  0  0
   -1.1292   26.5403  -29.2389 H   0  0  0  0  0  0  0  0  0  0  0  0
   -3.5019   23.2475  -32.2887 H   0  0  0  0  0  0  0  0  0  0  0  0
   -4.0021   21.0073  -33.2502 H   0  0  0  0  0  0  0  0  0  0  0  0
   -7.4643   18.8301  -31.0848 H   0  0  0  0  0  0  0  0  0  0  0  0
   -7.8764   16.5423  -31.9799 H   0  0  0  0  0  0  0  0  0  0  0  0
   -7.4925   14.8832  -33.5521 H   0  0  0  0  0  0  0  0  0  0  0  0
   -7.2871   15.5054  -35.2368 H   0  0  0  0  0  0  0  0  0  0  0  0
   -4.7930   15.3500  -34.1260 H   0  0  0  0  0  0  0  0  0  0  0  0
   -6.4958   13.2792  -33.0936 H   0  0  0  0  0  0  0  0  0  0  0  0
   -5.0427   12.6774  -33.9653 H   0  0  0  0  0  0  0  0  0  0  0  0
   -5.2272   13.8929  -31.3305 H   0  0  0  0  0  0  0  0  0  0  0  0
   -3.7981   13.1694  -32.1553 H   0  0  0  0  0  0  0  0  0  0  0  0
   -4.8130   15.7820  -32.6630 H   0  0  0  0  0  0  0  0  0  0  0  0
   -5.2885   17.3904  -35.3507 H   0  0  0  0  0  0  0  0  0  0  0  0
   -4.8958   19.6901  -34.4713 H   0  0  0  0  0  0  0  0  0  0  0  0
   -7.6585   20.8350  -30.9329 H   0  0  0  0  0  0  0  0  0  0  0  0
   -7.1426   23.0768  -29.9632 H   0  0  0  0  0  0  0  0  0  0  0  0
  1  2  1  0
  2  3  1  0
  3  4  1  0
  4  5  1  0
  5  6  2  0
  6  7  1  0
  7  8  1  0
  7  9  2  0
  9 10  1  0
 10 11  2  0
 11 12  1  0
 12 13  1  0
 13 14  2  0
 13 15  2  0
 13 16  1  0
 16 17  2  0
 17 18  1  0
 18 19  2  0
 19 20  1  0
 20 21  2  0
 21 22  1  0
 22 23  2  0
 23 24  1  0
 24 25  1  0
 25 26  1  0
 26 27  1  0
 27 28  1  0
 23 29  1  0
 29 30  2  0
 19 31  1  0
 31 32  2  0
 11  5  1  0
 32 16  1  0
 30 20  1  0
  1 33  1  0
  1 34  1  0
  1 35  1  0
  2 36  1  0
  2 37  1  0
  3 38  1  0
  3 39  1  0
  4 40  1  0
  4 41  1  0
  6 42  1  0
  8 43  1  0
  8 44  1  0
  8 45  1  0
  9 46  1  0
 10 47  1  0
 17 48  1  0
 18 49  1  0
 21 50  1  0
 22 51  1  0
 24 52  1  0
 24 53  1  0
 25 54  1  0
 26 55  1  0
 26 56  1  0
 27 57  1  0
 27 58  1  0
 28 59  1  0
 29 60  1  0
 30 61  1  0
 31 62  1  0
 32 63  1  0
M  CHG  1  12  -1
M  END
>  <UniqueID>  (32) 
29

>  <SMILES>  (32) 
CCCCc1cc(C)ccc1[N-]S(=O)(=O)c1ccc(-c2ccc(CNCCO)cc2)cc1

>  <Energy>  (32) 
67.44481225711453

>  <Genealogy>  (32) 
CCCCc1cc(C)ccc1[N-]S(=O)(=O)c1ccc(-c2ccc(CNCCO)cc2)cc1 (protonated)
CCCCc1cc(C)ccc1[N-]S(=O)(=O)c1ccc(-c2ccc(CNCCO)cc2)cc1 (3D coordinates assigned)
CCCCc1cc(C)ccc1[N-]S(=O)(=O)c1ccc(-c2ccc(CNCCO)cc2)cc1 (optimized conformer: 67.44481225711453 kcal/mol)

>  <smiles>  (32) 
CCCCc1cc(C)ccc1NS(=O)(=O)c1ccc(-c2ccc(CNCCO)cc2)cc1

>  <score_type>  (32) 
oracle

>  <origin>  (32) 
adgpu

>  <m_score__min__energy>  (32) 
-10.26

>  <m_primary>  (32) 
energy

$$$$
32:0
     RDKit          3D

 59 63  0  0  0  0  0  0  0  0999 V2000
    0.9210   27.2110  -21.8990 H   0  0  0  0  0  0  0  0  0  0  0  0
    1.3630   28.0640  -22.9270 S   0  0  0  0  0  0  0  0  0  0  0  0
    2.0580   26.7010  -23.8550 C   0  0  0  0  0  0  0  0  0  0  0  0
    3.4000   26.3430  -23.6730 C   0  0  0  0  0  0  0  0  0  0  0  0
    4.0298   26.9083  -22.9704 H   0  0  0  0  0  0  0  0  0  0  0  0
    3.9380   25.2680  -24.3840 C   0  0  0  0  0  0  0  0  0  0  0  0
    4.9891   24.9809  -24.2335 H   0  0  0  0  0  0  0  0  0  0  0  0
    3.1430   24.5570  -25.2860 C   0  0  0  0  0  0  0  0  0  0  0  0
    3.5651   23.6993  -25.8302 H   0  0  0  0  0  0  0  0  0  0  0  0
    1.8060   24.9330  -25.5010 C   0  0  0  0  0  0  0  0  0  0  0  0
    0.9520   24.1820  -26.3780 N   0  0  0  0  0  0  0  0  0  0  0  0
    0.1470   24.6420  -27.3010 C   0  0  0  0  0  0  0  0  0  0  0  0
   -0.0910   26.0230  -27.4610 C   0  0  0  0  0  0  0  0  0  0  0  0
    0.4138   26.7480  -26.8056 H   0  0  0  0  0  0  0  0  0  0  0  0
   -0.9670   26.4690  -28.4510 C   0  0  0  0  0  0  0  0  0  0  0  0
   -1.1432   27.5470  -28.5807 H   0  0  0  0  0  0  0  0  0  0  0  0
   -1.6030   25.5790  -29.2550 N   0  0  0  0  0  0  0  0  0  0  0  0
   -1.4190   24.2390  -29.1270 C   0  0  0  0  0  0  0  0  0  0  0  0
   -2.1060   23.3660  -29.9760 C   0  0  0  0  0  0  0  0  0  0  0  0
   -2.7840   23.7712  -30.7416 H   0  0  0  0  0  0  0  0  0  0  0  0
   -1.9380   21.9750  -29.8600 C   0  0  0  0  0  0  0  0  0  0  0  0
   -2.6690   21.0480  -30.7630 C   0  0  0  0  0  0  0  0  0  0  0  0
   -3.9190   20.5240  -30.3890 C   0  0  0  0  0  0  0  0  0  0  0  0
   -4.3574   20.7964  -29.4176 H   0  0  0  0  0  0  0  0  0  0  0  0
   -4.6080   19.6590  -31.2440 C   0  0  0  0  0  0  0  0  0  0  0  0
   -5.5842   19.2531  -30.9403 H   0  0  0  0  0  0  0  0  0  0  0  0
   -4.0630   19.3060  -32.4850 C   0  0  0  0  0  0  0  0  0  0  0  0
   -4.9510   18.2420  -33.5780 S   0  0  0  0  0  0  0  0  0  0  0  0
   -4.9260   16.8400  -33.0350 O   0  0  0  0  0  0  0  0  0  0  0  0
   -4.2720   18.2320  -34.9200 O   0  0  0  0  0  0  0  0  0  0  0  0
   -6.6080   18.7620  -33.7750 N   0  0  0  0  0  0  0  0  0  0  0  0
   -7.4460   18.2310  -32.6790 C   0  0  0  0  0  0  0  0  0  0  0  0
   -6.8899   18.3060  -31.7329 H   0  0  0  0  0  0  0  0  0  0  0  0
   -7.6895   17.1817  -32.9021 H   0  0  0  0  0  0  0  0  0  0  0  0
   -8.7570   19.0200  -32.5540 C   0  0  0  0  0  0  0  0  0  0  0  0
   -9.3560   18.5846  -31.7406 H   0  0  0  0  0  0  0  0  0  0  0  0
   -9.2826   18.9553  -33.5181 H   0  0  0  0  0  0  0  0  0  0  0  0
   -8.5230   20.4560  -32.2590 N   0  0  0  0  0  0  0  0  0  0  0  0
   -8.7570   20.7560  -30.8380 C   0  0  0  0  0  0  0  0  0  0  0  0
   -8.1992   20.0409  -30.2156 H   0  0  0  0  0  0  0  0  0  0  0  0
   -8.4152   21.7781  -30.6179 H   0  0  0  0  0  0  0  0  0  0  0  0
   -9.8316   20.6734  -30.6179 H   0  0  0  0  0  0  0  0  0  0  0  0
   -7.1850   20.9390  -32.6720 C   0  0  0  0  0  0  0  0  0  0  0  0
   -6.4676   20.7433  -31.8614 H   0  0  0  0  0  0  0  0  0  0  0  0
   -7.2541   22.0171  -32.8792 H   0  0  0  0  0  0  0  0  0  0  0  0
   -6.7040   20.2300  -33.9480 C   0  0  0  0  0  0  0  0  0  0  0  0
   -5.7110   20.6200  -34.2161 H   0  0  0  0  0  0  0  0  0  0  0  0
   -7.4413   20.4273  -34.7401 H   0  0  0  0  0  0  0  0  0  0  0  0
   -2.8110   19.8150  -32.8560 C   0  0  0  0  0  0  0  0  0  0  0  0
   -2.3692   19.5304  -33.8224 H   0  0  0  0  0  0  0  0  0  0  0  0
   -2.1210   20.6820  -32.0050 C   0  0  0  0  0  0  0  0  0  0  0  0
   -1.1420   21.0811  -32.3089 H   0  0  0  0  0  0  0  0  0  0  0  0
   -1.0690   21.4730  -28.8770 C   0  0  0  0  0  0  0  0  0  0  0  0
   -0.9320   20.3863  -28.7755 H   0  0  0  0  0  0  0  0  0  0  0  0
   -0.3770   22.3390  -28.0270 C   0  0  0  0  0  0  0  0  0  0  0  0
    0.3017   21.9290  -27.2646 H   0  0  0  0  0  0  0  0  0  0  0  0
   -0.5420   23.7340  -28.1390 C   0  0  0  0  0  0  0  0  0  0  0  0
    1.2620   25.9890  -24.7580 C   0  0  0  0  0  0  0  0  0  0  0  0
    0.2034   26.2594  -24.8856 H   0  0  0  0  0  0  0  0  0  0  0  0
  1  2  1  0
  2  3  1  0
  3  4  2  0
  4  5  1  0
  4  6  1  0
  6  7  1  0
  6  8  2  0
  8  9  1  0
  8 10  1  0
 10 11  1  0
 11 12  2  0
 12 13  1  0
 13 14  1  0
 13 15  2  0
 15 16  1  0
 15 17  1  0
 17 18  1  0
 18 19  2  0
 19 20  1  0
 19 21  1  0
 21 22  1  0
 22 23  2  0
 23 24  1  0
 23 25  1  0
 25 26  1  0
 25 27  2  0
 27 28  1  0
 28 29  2  0
 28 30  2  0
 28 31  1  0
 31 32  1  0
 32 33  1  0
 32 34  1  0
 32 35  1  0
 35 36  1  0
 35 37  1  0
 35 38  1  0
 38 39  1  0
 39 40  1  0
 39 41  1  0
 39 42  1  0
 38 43  1  0
 43 44  1  0
 43 45  1  0
 43 46  1  0
 46 47  1  0
 46 48  1  0
 27 49  1  0
 49 50  1  0
 49 51  2  0
 51 52  1  0
 21 53  2  0
 53 54  1  0
 53 55  1  0
 55 56  1  0
 55 57  2  0
 10 58  2  0
 58 59  1  0
 58  3  1  0
 57 12  1  0
 57 18  1  0
 51 22  1  0
 46 31  1  0
M  CHG  1  17  -1
M  END
>  <UniqueID>  (33) 
30

>  <SMILES>  (33) 
CN1CCN(S(=O)(=O)c2ccc(-c3ccc4/c(=N/c5cccc(S)c5)cc[n-]c4c3)cc2)CC1

>  <Energy>  (33) 
92.4593087910142

>  <Genealogy>  (33) 
CN1CCN(S(=O)(=O)c2ccc(-c3ccc4c(=Nc5cccc(S)c5)cc[n-]c4c3)cc2)CC1 (protonated)
CN1CCN(S(=O)(=O)c2ccc(-c3ccc4/c(=N/c5cccc(S)c5)cc[n-]c4c3)cc2)CC1 (cis-trans isomerization)
CN1CCN(S(=O)(=O)c2ccc(-c3ccc4/c(=N/c5cccc(S)c5)cc[n-]c4c3)cc2)CC1 (3D coordinates assigned)
CN1CCN(S(=O)(=O)c2ccc(-c3ccc4/c(=N/c5cccc(S)c5)cc[n-]c4c3)cc2)CC1 (nonaromatic ring conformer: 92.4593087910142 kcal/mol)

>  <smiles>  (33) 
CN1CCN(S(=O)(=O)c2ccc(-c3ccc4c(=Nc5cccc(S)c5)cc[nH]c4c3)cc2)CC1

>  <score_type>  (33) 
oracle

>  <origin>  (33) 
adgpu

>  <m_score__min__energy>  (33) 
-10.43

>  <m_primary>  (33) 
energy

$$$$
33:0
     RDKit          3D

 54 58  0  0  0  0  0  0  0  0999 V2000
   -5.9984   17.7718  -36.0740 H   0  0  0  0  0  0  0  0  0  0  0  0
   -5.3850   17.8680  -35.1660 C   0  0  0  0  0  0  0  0  0  0  0  0
   -4.0910   17.5180  -35.2580 C   0  0  0  0  0  0  0  0  0  0  0  0
   -3.7582   17.0423  -36.1923 H   0  0  0  0  0  0  0  0  0  0  0  0
   -3.0850   17.7230  -34.2030 C   0  0  0  0  0  0  0  0  0  0  0  0
   -2.2100   16.7670  -33.8060 N   0  0  0  0  0  0  0  0  0  0  0  0
   -1.4190   17.2660  -32.8620 N   0  0  0  0  0  0  0  0  0  0  0  0
   -1.7800   18.5490  -32.6740 C   0  0  0  0  0  0  0  0  0  0  0  0
   -1.2310   19.4660  -31.7850 C   0  0  0  0  0  0  0  0  0  0  0  0
   -0.4186   19.1756  -31.1026 H   0  0  0  0  0  0  0  0  0  0  0  0
   -1.7460   20.7810  -31.7830 C   0  0  0  0  0  0  0  0  0  0  0  0
   -1.2400   21.7330  -30.8380 N   0  0  0  0  0  0  0  0  0  0  0  0
   -0.7300   22.5770  -31.1860 H   0  0  0  0  0  0  0  0  0  0  0  0
   -1.4240   21.5940  -29.4250 C   0  0  0  0  0  0  0  0  0  0  0  0
   -1.5650   20.3140  -28.8620 C   0  0  0  0  0  0  0  0  0  0  0  0
   -1.4837   19.4221  -29.5007 H   0  0  0  0  0  0  0  0  0  0  0  0
   -1.8080   20.1710  -27.4940 C   0  0  0  0  0  0  0  0  0  0  0  0
   -1.9168   19.1673  -27.0573 H   0  0  0  0  0  0  0  0  0  0  0  0
   -1.9130   21.3010  -26.6800 C   0  0  0  0  0  0  0  0  0  0  0  0
   -2.1108   21.1862  -25.6040 H   0  0  0  0  0  0  0  0  0  0  0  0
   -1.7670   22.5790  -27.2310 C   0  0  0  0  0  0  0  0  0  0  0  0
   -1.8455   23.4664  -26.5858 H   0  0  0  0  0  0  0  0  0  0  0  0
   -1.5210   22.7320  -28.6030 C   0  0  0  0  0  0  0  0  0  0  0  0
   -1.2720   24.0760  -29.1400 C   0  0  0  0  0  0  0  0  0  0  0  0
   -0.0910   24.5180  -29.1840 O   0  0  0  0  0  0  0  0  0  0  0  0
   -2.3880   24.8900  -29.5440 N   0  0  0  0  0  0  0  0  0  0  0  0
   -3.5020   24.5030  -30.1030 C   0  0  0  0  0  0  0  0  0  0  0  0
   -4.4070   25.4540  -30.4700 N   0  0  0  0  0  0  0  0  0  0  0  0
   -5.6090   25.1490  -31.0250 C   0  0  0  0  0  0  0  0  0  0  0  0
   -6.3010   25.9539  -31.3136 H   0  0  0  0  0  0  0  0  0  0  0  0
   -5.9680   23.8110  -31.2300 C   0  0  0  0  0  0  0  0  0  0  0  0
   -7.3220   23.4570  -31.7760 C   0  0  0  0  0  0  0  0  0  0  0  0
   -8.0172   23.2753  -30.9431 H   0  0  0  0  0  0  0  0  0  0  0  0
   -7.6973   24.2872  -32.3923 H   0  0  0  0  0  0  0  0  0  0  0  0
   -7.2430   22.5493  -32.3923 H   0  0  0  0  0  0  0  0  0  0  0  0
   -5.0790   22.8060  -30.8270 C   0  0  0  0  0  0  0  0  0  0  0  0
   -5.3544   21.7483  -30.9512 H   0  0  0  0  0  0  0  0  0  0  0  0
   -3.8440   23.1430  -30.2680 C   0  0  0  0  0  0  0  0  0  0  0  0
   -3.1426   22.3542  -29.9584 H   0  0  0  0  0  0  0  0  0  0  0  0
   -2.7970   21.1300  -32.6790 C   0  0  0  0  0  0  0  0  0  0  0  0
   -3.1919   22.1567  -32.6821 H   0  0  0  0  0  0  0  0  0  0  0  0
   -3.3340   20.1750  -33.5590 C   0  0  0  0  0  0  0  0  0  0  0  0
   -4.1401   20.4356  -34.2606 H   0  0  0  0  0  0  0  0  0  0  0  0
   -2.8070   18.8840  -33.5100 C   0  0  0  0  0  0  0  0  0  0  0  0
   -6.0560   18.3730  -33.9440 C   0  0  0  0  0  0  0  0  0  0  0  0
   -6.5080   19.6580  -33.8720 N   0  0  0  0  0  0  0  0  0  0  0  0
   -7.1060   20.1510  -32.7560 C   0  0  0  0  0  0  0  0  0  0  0  0
   -7.4711   21.1885  -32.7401 H   0  0  0  0  0  0  0  0  0  0  0  0
   -7.2570   19.3400  -31.6290 C   0  0  0  0  0  0  0  0  0  0  0  0
   -7.7428   19.7320  -30.7233 H   0  0  0  0  0  0  0  0  0  0  0  0
   -6.7850   18.0270  -31.6640 C   0  0  0  0  0  0  0  0  0  0  0  0
   -6.8934   17.3784  -30.7822 H   0  0  0  0  0  0  0  0  0  0  0  0
   -6.1750   17.5390  -32.8210 C   0  0  0  0  0  0  0  0  0  0  0  0
   -5.7905   16.5089  -32.8525 H   0  0  0  0  0  0  0  0  0  0  0  0
  1  2  1  0
  2  3  2  3
  3  4  1  0
  3  5  1  0
  5  6  1  0
  6  7  1  0
  7  8  2  0
  8  9  1  0
  9 10  1  0
  9 11  2  0
 11 12  1  0
 12 13  1  0
 12 14  1  0
 14 15  2  0
 15 16  1  0
 15 17  1  0
 17 18  1  0
 17 19  2  0
 19 20  1  0
 19 21  1  0
 21 22  1  0
 21 23  2  0
 23 24  1  0
 24 25  2  0
 24 26  1  0
 26 27  2  0
 27 28  1  0
 28 29  1  0
 29 30  1  0
 29 31  2  0
 31 32  1  0
 32 33  1  0
 32 34  1  0
 32 35  1  0
 31 36  1  0
 36 37  1  0
 36 38  2  0
 38 39  1  0
 11 40  1  0
 40 41  1  0
 40 42  2  0
 42 43  1  0
 42 44  1  0
  2 45  1  0
 45 46  2  0
 46 47  1  0
 47 48  1  0
 47 49  2  0
 49 50  1  0
 49 51  1  0
 51 52  1  0
 51 53  2  0
 53 54  1  0
 44  5  2  0
 53 45  1  0
 44  8  1  0
 23 14  1  0
 38 27  1  0
M  CHG  2   6  -1  28  -1
M  END
>  <UniqueID>  (34) 
31

>  <SMILES>  (34) 
Cc1cc/c(=N\C(=O)c2ccccc2Nc2ccc3c(C=Cc4ccccn4)[n-]nc3c2)[n-]c1

>  <Energy>  (34) 
128.25662188671393

>  <Genealogy>  (34) 
Cc1ccc(=NC(=O)c2ccccc2Nc2ccc3c(C=Cc4ccccn4)[n-]nc3c2)[n-]c1 (protonated)
Cc1cc/c(=N\C(=O)c2ccccc2Nc2ccc3c(C=Cc4ccccn4)[n-]nc3c2)[n-]c1 (cis-trans isomerization)
Cc1cc/c(=N\C(=O)c2ccccc2Nc2ccc3c(C=Cc4ccccn4)[n-]nc3c2)[n-]c1 (3D coordinates assigned)
Cc1cc/c(=N\C(=O)c2ccccc2Nc2ccc3c(C=Cc4ccccn4)[n-]nc3c2)[n-]c1 (optimized conformer: 128.25662188671393 kcal/mol)

>  <smiles>  (34) 
Cc1ccc(=NC(=O)c2ccccc2Nc2ccc3c(C=Cc4ccccn4)[nH]nc3c2)[nH]c1

>  <score_type>  (34) 
oracle

>  <origin>  (34) 
adgpu

>  <m_score__min__energy>  (34) 
-12.19

>  <m_primary>  (34) 
energy

$$$$
34:0
     RDKit          3D

 55 58  0  0  0  0  0  0  0  0999 V2000
   -0.8150   19.1680  -32.4380 O   0  0  0  0  0  0  0  0  0  0  0  0
   -2.0770   19.1750  -32.3670 C   0  0  0  0  0  0  0  0  0  0  0  0
   -2.8150   18.0110  -32.7770 N   0  0  0  0  0  0  0  0  0  0  0  0
   -2.1660   16.8500  -33.3840 C   0  0  0  0  0  0  0  0  0  0  0  0
   -2.9630   15.6090  -33.1070 C   0  0  0  0  0  0  0  0  0  0  0  0
   -2.4640   14.3400  -33.4430 C   0  0  0  0  0  0  0  0  0  0  0  0
   -3.2360   13.2070  -33.1700 C   0  0  0  0  0  0  0  0  0  0  0  0
   -4.4850   13.3470  -32.5630 C   0  0  0  0  0  0  0  0  0  0  0  0
   -4.9480   14.6240  -32.2380 C   0  0  0  0  0  0  0  0  0  0  0  0
   -4.1860   15.7160  -32.5140 N   0  0  0  0  0  0  0  0  0  0  0  0
   -2.7670   20.3800  -31.8460 C   0  0  0  0  0  0  0  0  0  0  0  0
   -3.0480   21.4770  -32.6810 C   0  0  0  0  0  0  0  0  0  0  0  0
   -3.7000   22.6060  -32.1720 C   0  0  0  0  0  0  0  0  0  0  0  0
   -4.0730   22.6590  -30.8240 C   0  0  0  0  0  0  0  0  0  0  0  0
   -4.8910   24.0890  -30.1960 S   0  0  0  0  0  0  0  0  0  0  0  0
   -4.6120   24.1910  -28.7210 O   0  0  0  0  0  0  0  0  0  0  0  0
   -4.3540   25.3200  -30.8770 O   0  0  0  0  0  0  0  0  0  0  0  0
   -6.6140   23.9390  -30.4850 N   0  0  0  0  0  0  0  0  0  0  0  0
   -7.2020   22.8370  -29.6800 C   0  0  0  0  0  0  0  0  0  0  0  0
   -7.9640   21.7880  -30.5090 C   0  0  0  0  0  0  0  0  0  0  0  0
   -7.1920   21.4340  -31.7050 N   0  0  0  0  0  0  0  0  0  0  0  0
   -7.1440   20.0680  -32.1690 C   0  0  0  0  0  0  0  0  0  0  0  0
   -7.9790   19.0900  -31.5950 C   0  0  0  0  0  0  0  0  0  0  0  0
   -7.9340   17.7660  -32.0470 C   0  0  0  0  0  0  0  0  0  0  0  0
   -7.0510   17.4020  -33.0670 C   0  0  0  0  0  0  0  0  0  0  0  0
   -6.2190   18.3650  -33.6490 C   0  0  0  0  0  0  0  0  0  0  0  0
   -5.1210   17.9100  -34.9430 Cl  0  0  0  0  0  0  0  0  0  0  0  0
   -6.2610   19.6920  -33.2010 C   0  0  0  0  0  0  0  0  0  0  0  0
   -6.6320   22.5070  -32.5370 C   0  0  0  0  0  0  0  0  0  0  0  0
   -6.9210   23.8870  -31.9290 C   0  0  0  0  0  0  0  0  0  0  0  0
   -3.7810   21.5770  -29.9830 C   0  0  0  0  0  0  0  0  0  0  0  0
   -3.1300   20.4490  -30.4880 C   0  0  0  0  0  0  0  0  0  0  0  0
   -3.8420   17.9540  -32.6020 H   0  0  0  0  0  0  0  0  0  0  0  0
   -2.0939   17.0008  -34.4712 H   0  0  0  0  0  0  0  0  0  0  0  0
   -1.1600   16.7347  -32.9541 H   0  0  0  0  0  0  0  0  0  0  0  0
   -1.4761   14.2386  -33.9160 H   0  0  0  0  0  0  0  0  0  0  0  0
   -2.8599   12.2073  -33.4330 H   0  0  0  0  0  0  0  0  0  0  0  0
   -5.0983   12.4608  -32.3429 H   0  0  0  0  0  0  0  0  0  0  0  0
   -5.9302   14.7466  -31.7582 H   0  0  0  0  0  0  0  0  0  0  0  0
   -2.7534   21.4471  -33.7404 H   0  0  0  0  0  0  0  0  0  0  0  0
   -3.9204   23.4559  -32.8346 H   0  0  0  0  0  0  0  0  0  0  0  0
   -6.3870   22.3280  -29.1445 H   0  0  0  0  0  0  0  0  0  0  0  0
   -7.9352   23.2974  -29.0015 H   0  0  0  0  0  0  0  0  0  0  0  0
   -8.1228   20.8869  -29.8984 H   0  0  0  0  0  0  0  0  0  0  0  0
   -8.9335   22.2068  -30.8168 H   0  0  0  0  0  0  0  0  0  0  0  0
   -8.6709   19.3683  -30.7864 H   0  0  0  0  0  0  0  0  0  0  0  0
   -8.5953   17.0102  -31.5982 H   0  0  0  0  0  0  0  0  0  0  0  0
   -7.0099   16.3585  -33.4125 H   0  0  0  0  0  0  0  0  0  0  0  0
   -5.6011   20.4445  -33.6574 H   0  0  0  0  0  0  0  0  0  0  0  0
   -5.5434   22.3698  -32.6151 H   0  0  0  0  0  0  0  0  0  0  0  0
   -7.1005   22.4585  -33.5311 H   0  0  0  0  0  0  0  0  0  0  0  0
   -6.3074   24.6379  -32.4483 H   0  0  0  0  0  0  0  0  0  0  0  0
   -7.9949   24.0907  -32.0522 H   0  0  0  0  0  0  0  0  0  0  0  0
   -4.0655   21.6160  -28.9211 H   0  0  0  0  0  0  0  0  0  0  0  0
   -2.8991   19.6073  -29.8185 H   0  0  0  0  0  0  0  0  0  0  0  0
  1  2  2  0
  2  3  1  0
  3  4  1  0
  4  5  1  0
  5  6  2  0
  6  7  1  0
  7  8  2  0
  8  9  1  0
  9 10  2  0
  2 11  1  0
 11 12  2  0
 12 13  1  0
 13 14  2  0
 14 15  1  0
 15 16  2  0
 15 17  2  0
 15 18  1  0
 18 19  1  0
 19 20  1  0
 20 21  1  0
 21 22  1  0
 22 23  2  0
 23 24  1  0
 24 25  2  0
 25 26  1  0
 26 27  1  0
 26 28  2  0
 21 29  1  0
 29 30  1  0
 14 31  1  0
 31 32  2  0
 10  5  1  0
 32 11  1  0
 30 18  1  0
 28 22  1  0
  3 33  1  0
  4 34  1  0
  4 35  1  0
  6 36  1  0
  7 37  1  0
  8 38  1  0
  9 39  1  0
 12 40  1  0
 13 41  1  0
 19 42  1  0
 19 43  1  0
 20 44  1  0
 20 45  1  0
 23 46  1  0
 24 47  1  0
 25 48  1  0
 28 49  1  0
 29 50  1  0
 29 51  1  0
 30 52  1  0
 30 53  1  0
 31 54  1  0
 32 55  1  0
M  END
>  <UniqueID>  (35) 
32

>  <SMILES>  (35) 
O=C(NCc1ccccn1)c1ccc(S(=O)(=O)N2CCN(c3cccc(Cl)c3)CC2)cc1

>  <Energy>  (35) 
69.76283783389064

>  <Genealogy>  (35) 
O=C(NCc1ccccn1)c1ccc(S(=O)(=O)N2CCN(c3cccc(Cl)c3)CC2)cc1 (3D coordinates assigned)
O=C(NCc1ccccn1)c1ccc(S(=O)(=O)N2CCN(c3cccc(Cl)c3)CC2)cc1 (nonaromatic ring conformer: 69.76283783389064 kcal/mol)

>  <smiles>  (35) 
O=C(NCc1ccccn1)c1ccc(S(=O)(=O)N2CCN(c3cccc(Cl)c3)CC2)cc1

>  <score_type>  (35) 
oracle

>  <origin>  (35) 
adgpu

>  <m_score__min__energy>  (35) 
-9.4499999999999993

>  <m_primary>  (35) 
energy

$$$$
35:0
     RDKit          3D

 48 50  0  0  0  0  0  0  0  0999 V2000
   -7.3390   17.6670  -32.3430 C   0  0  0  0  0  0  0  0  0  0  0  0
   -7.0080   19.0850  -32.2280 N   0  0  0  0  0  0  0  0  0  0  0  0
   -5.6470   19.5080  -32.3980 C   0  0  0  0  0  0  0  0  0  0  0  0
   -5.0060   19.3580  -33.6390 C   0  0  0  0  0  0  0  0  0  0  0  0
   -3.6790   19.7740  -33.8020 C   0  0  0  0  0  0  0  0  0  0  0  0
   -2.9790   20.3260  -32.7220 C   0  0  0  0  0  0  0  0  0  0  0  0
   -3.6120   20.4810  -31.4830 C   0  0  0  0  0  0  0  0  0  0  0  0
   -4.9420   20.0760  -31.3220 C   0  0  0  0  0  0  0  0  0  0  0  0
   -8.2390   20.2760  -31.9200 S   0  0  0  0  0  0  0  0  0  0  0  0
   -9.1010   19.8500  -30.7620 O   0  0  0  0  0  0  0  0  0  0  0  0
   -9.1130   20.4380  -33.1330 O   0  0  0  0  0  0  0  0  0  0  0  0
   -7.4670   21.8100  -31.5260 C   0  0  0  0  0  0  0  0  0  0  0  0
   -7.5290   22.3280  -30.2250 C   0  0  0  0  0  0  0  0  0  0  0  0
   -6.8450   23.5040  -29.9010 C   0  0  0  0  0  0  0  0  0  0  0  0
   -6.0660   24.1570  -30.8690 C   0  0  0  0  0  0  0  0  0  0  0  0
   -5.2620   25.3430  -30.5050 C   0  0  0  0  0  0  0  0  0  0  0  0
   -5.8380   26.4320  -30.2330 O   0  0  0  0  0  0  0  0  0  0  0  0
   -3.8300   25.2820  -30.4690 N   0  0  0  0  0  0  0  0  0  0  0  0
   -3.0760   24.4280  -29.5950 C   0  0  0  0  0  0  0  0  0  0  0  0
   -3.5030   23.1190  -29.3080 C   0  0  0  0  0  0  0  0  0  0  0  0
   -2.7590   22.3090  -28.4500 C   0  0  0  0  0  0  0  0  0  0  0  0
   -1.5850   22.7950  -27.8710 C   0  0  0  0  0  0  0  0  0  0  0  0
   -1.1560   24.1020  -28.1410 C   0  0  0  0  0  0  0  0  0  0  0  0
    0.3130   24.7190  -27.3930 S   0  0  0  0  0  0  0  0  0  0  0  0
    0.4540   24.1140  -25.7760 N   0  0  0  0  0  0  0  0  0  0  0  0
    1.5040   24.2800  -28.1990 O   0  0  0  0  0  0  0  0  0  0  0  0
    0.2640   26.2220  -27.3470 O   0  0  0  0  0  0  0  0  0  0  0  0
   -1.9140   24.9210  -28.9910 C   0  0  0  0  0  0  0  0  0  0  0  0
   -6.0250   23.6480  -32.1770 C   0  0  0  0  0  0  0  0  0  0  0  0
   -6.7270   22.4870  -32.5040 C   0  0  0  0  0  0  0  0  0  0  0  0
   -7.4407   17.2315  -31.3380 H   0  0  0  0  0  0  0  0  0  0  0  0
   -8.2874   17.5550  -32.8888 H   0  0  0  0  0  0  0  0  0  0  0  0
   -6.5382   17.1466  -32.8888 H   0  0  0  0  0  0  0  0  0  0  0  0
   -5.5485   18.9121  -34.4857 H   0  0  0  0  0  0  0  0  0  0  0  0
   -3.1858   19.6671  -34.7794 H   0  0  0  0  0  0  0  0  0  0  0  0
   -1.9316   20.6379  -32.8472 H   0  0  0  0  0  0  0  0  0  0  0  0
   -3.0644   20.9209  -30.6365 H   0  0  0  0  0  0  0  0  0  0  0  0
   -5.4385   20.2027  -30.3486 H   0  0  0  0  0  0  0  0  0  0  0  0
   -8.1181   21.8073  -29.4557 H   0  0  0  0  0  0  0  0  0  0  0  0
   -6.9177   23.9184  -28.8847 H   0  0  0  0  0  0  0  0  0  0  0  0
   -4.4274   22.7324  -29.7620 H   0  0  0  0  0  0  0  0  0  0  0  0
   -3.0976   21.2860  -28.2292 H   0  0  0  0  0  0  0  0  0  0  0  0
   -0.9956   22.1510  -27.2017 H   0  0  0  0  0  0  0  0  0  0  0  0
    0.4020   23.0720  -25.8310 H   0  0  0  0  0  0  0  0  0  0  0  0
   -0.3930   24.4350  -25.2560 H   0  0  0  0  0  0  0  0  0  0  0  0
   -1.5935   25.9555  -29.1836 H   0  0  0  0  0  0  0  0  0  0  0  0
   -5.4365   24.1670  -32.9479 H   0  0  0  0  0  0  0  0  0  0  0  0
   -6.6991   22.1019  -33.5340 H   0  0  0  0  0  0  0  0  0  0  0  0
  1  2  1  0
  2  3  1  0
  3  4  2  0
  4  5  1  0
  5  6  2  0
  6  7  1  0
  7  8  2  0
  2  9  1  0
  9 10  2  0
  9 11  2  0
  9 12  1  0
 12 13  2  0
 13 14  1  0
 14 15  2  0
 15 16  1  0
 16 17  2  0
 16 18  1  0
 18 19  1  0
 19 20  2  0
 20 21  1  0
 21 22  2  0
 22 23  1  0
 23 24  1  0
 24 25  1  0
 24 26  2  0
 24 27  2  0
 23 28  2  0
 15 29  1  0
 29 30  2  0
  8  3  1  0
 30 12  1  0
 28 19  1  0
  1 31  1  0
  1 32  1  0
  1 33  1  0
  4 34  1  0
  5 35  1  0
  6 36  1  0
  7 37  1  0
  8 38  1  0
 13 39  1  0
 14 40  1  0
 20 41  1  0
 21 42  1  0
 22 43  1  0
 25 44  1  0
 25 45  1  0
 28 46  1  0
 29 47  1  0
 30 48  1  0
M  CHG  1  18  -1
M  END
>  <UniqueID>  (36) 
33

>  <SMILES>  (36) 
CN(c1ccccc1)S(=O)(=O)c1ccc(C(=O)[N-]c2cccc(S(N)(=O)=O)c2)cc1

>  <Energy>  (36) 
59.66742669310353

>  <Genealogy>  (36) 
CN(c1ccccc1)S(=O)(=O)c1ccc(C(=O)[N-]c2cccc(S(N)(=O)=O)c2)cc1 (protonated)
CN(c1ccccc1)S(=O)(=O)c1ccc(C(=O)[N-]c2cccc(S(N)(=O)=O)c2)cc1 (3D coordinates assigned)
CN(c1ccccc1)S(=O)(=O)c1ccc(C(=O)[N-]c2cccc(S(N)(=O)=O)c2)cc1 (optimized conformer: 59.66742669310353 kcal/mol)

>  <smiles>  (36) 
CN(c1ccccc1)S(=O)(=O)c1ccc(C(=O)Nc2cccc(S(N)(=O)=O)c2)cc1

>  <score_type>  (36) 
oracle

>  <origin>  (36) 
adgpu

>  <m_score__min__energy>  (36) 
-11.19

>  <m_primary>  (36) 
energy

$$$$
36:0
     RDKit          3D

 61 63  0  0  0  0  0  0  0  0999 V2000
    0.4640   20.5200  -36.1870 C   0  0  0  0  0  0  0  0  0  0  0  0
    0.3920   21.4400  -34.9570 C   0  0  0  0  0  0  0  0  0  0  0  0
   -0.1100   22.6640  -35.3670 F   0  0  0  0  0  0  0  0  0  0  0  0
    1.6730   21.6400  -34.4620 F   0  0  0  0  0  0  0  0  0  0  0  0
   -0.4720   20.8380  -33.8610 C   0  0  0  0  0  0  0  0  0  0  0  0
   -0.2300   21.1680  -32.5110 C   0  0  0  0  0  0  0  0  0  0  0  0
   -1.0120   20.6160  -31.4920 C   0  0  0  0  0  0  0  0  0  0  0  0
   -2.0640   19.7520  -31.8060 C   0  0  0  0  0  0  0  0  0  0  0  0
   -2.3590   19.4530  -33.1490 C   0  0  0  0  0  0  0  0  0  0  0  0
   -3.5410   18.5870  -33.5010 C   0  0  0  0  0  0  0  0  0  0  0  0
   -4.6660   19.3920  -33.8580 O   0  0  0  0  0  0  0  0  0  0  0  0
   -5.1900   20.4450  -33.0900 C   0  0  0  0  0  0  0  0  0  0  0  0
   -4.5460   21.6900  -32.9730 C   0  0  0  0  0  0  0  0  0  0  0  0
   -5.1290   22.7180  -32.2300 C   0  0  0  0  0  0  0  0  0  0  0  0
   -6.3540   22.5180  -31.5770 C   0  0  0  0  0  0  0  0  0  0  0  0
   -6.9760   23.6340  -30.7770 C   0  0  0  0  0  0  0  0  0  0  0  0
   -6.1490   24.9250  -30.8540 C   0  0  0  0  0  0  0  0  0  0  0  0
   -4.9240   24.8640  -29.9870 C   0  0  0  0  0  0  0  0  0  0  0  0
   -3.7980   25.1340  -30.4840 O   0  0  0  0  0  0  0  0  0  0  0  0
   -5.0290   24.4500  -28.6220 N   0  0  0  0  0  0  0  0  0  0  0  0
   -3.8890   24.4670  -27.7060 C   0  0  0  0  0  0  0  0  0  0  0  0
   -2.8900   23.3630  -28.0690 C   0  0  0  0  0  0  0  0  0  0  0  0
   -3.5790   21.9990  -28.2030 C   0  0  0  0  0  0  0  0  0  0  0  0
   -2.6410   20.8770  -27.8410 C   0  0  0  0  0  0  0  0  0  0  0  0
   -3.1030   19.7840  -27.0850 C   0  0  0  0  0  0  0  0  0  0  0  0
   -2.2310   18.7460  -26.7410 C   0  0  0  0  0  0  0  0  0  0  0  0
   -0.8940   18.7890  -27.1500 C   0  0  0  0  0  0  0  0  0  0  0  0
   -0.4300   19.8690  -27.9030 C   0  0  0  0  0  0  0  0  0  0  0  0
   -1.2970   20.9110  -28.2480 C   0  0  0  0  0  0  0  0  0  0  0  0
   -6.9750   21.2620  -31.6550 C   0  0  0  0  0  0  0  0  0  0  0  0
   -6.3980   20.2370  -32.4110 C   0  0  0  0  0  0  0  0  0  0  0  0
   -1.5530   19.9850  -34.1700 C   0  0  0  0  0  0  0  0  0  0  0  0
    0.5459   19.4736  -35.8579 H   0  0  0  0  0  0  0  0  0  0  0  0
   -0.4466   20.6441  -36.7915 H   0  0  0  0  0  0  0  0  0  0  0  0
    1.3442   20.7842  -36.7915 H   0  0  0  0  0  0  0  0  0  0  0  0
    0.5815   21.8661  -32.2577 H   0  0  0  0  0  0  0  0  0  0  0  0
   -0.7986   20.8623  -30.4414 H   0  0  0  0  0  0  0  0  0  0  0  0
   -2.6640   19.3038  -31.0003 H   0  0  0  0  0  0  0  0  0  0  0  0
   -3.2752   17.9404  -34.3503 H   0  0  0  0  0  0  0  0  0  0  0  0
   -3.8059   17.9759  -32.6256 H   0  0  0  0  0  0  0  0  0  0  0  0
   -3.5782   21.8544  -33.4694 H   0  0  0  0  0  0  0  0  0  0  0  0
   -4.6238   23.6923  -32.1561 H   0  0  0  0  0  0  0  0  0  0  0  0
   -7.9840   23.8337  -31.1696 H   0  0  0  0  0  0  0  0  0  0  0  0
   -7.0153   23.3172  -29.7243 H   0  0  0  0  0  0  0  0  0  0  0  0
   -5.8378   25.0852  -31.8968 H   0  0  0  0  0  0  0  0  0  0  0  0
   -6.7781   25.7522  -30.4936 H   0  0  0  0  0  0  0  0  0  0  0  0
   -5.9470   24.1000  -28.2550 H   0  0  0  0  0  0  0  0  0  0  0  0
   -3.3876   25.4440  -27.7706 H   0  0  0  0  0  0  0  0  0  0  0  0
   -4.2533   24.2937  -26.6826 H   0  0  0  0  0  0  0  0  0  0  0  0
   -2.4105   23.6162  -29.0261 H   0  0  0  0  0  0  0  0  0  0  0  0
   -2.1453   23.2943  -27.2623 H   0  0  0  0  0  0  0  0  0  0  0  0
   -4.4498   21.9694  -27.5316 H   0  0  0  0  0  0  0  0  0  0  0  0
   -3.8915   21.8679  -29.2495 H   0  0  0  0  0  0  0  0  0  0  0  0
   -4.1542   19.7457  -26.7632 H   0  0  0  0  0  0  0  0  0  0  0  0
   -2.5970   17.8948  -26.1481 H   0  0  0  0  0  0  0  0  0  0  0  0
   -0.2088   17.9724  -26.8785 H   0  0  0  0  0  0  0  0  0  0  0  0
    0.6210   19.9007  -28.2261 H   0  0  0  0  0  0  0  0  0  0  0  0
   -0.9250   21.7601  -28.8401 H   0  0  0  0  0  0  0  0  0  0  0  0
   -7.9191   21.0832  -31.1195 H   0  0  0  0  0  0  0  0  0  0  0  0
   -6.8968   19.2586  -32.4733 H   0  0  0  0  0  0  0  0  0  0  0  0
   -1.7667   19.7343  -35.2195 H   0  0  0  0  0  0  0  0  0  0  0  0
  1  2  1  0
  2  3  1  0
  2  4  1  0
  2  5  1  0
  5  6  2  0
  6  7  1  0
  7  8  2  0
  8  9  1  0
  9 10  1  0
 10 11  1  0
 11 12  1  0
 12 13  2  0
 13 14  1  0
 14 15  2  0
 15 16  1  0
 16 17  1  0
 17 18  1  0
 18 19  2  0
 18 20  1  0
 20 21  1  0
 21 22  1  0
 22 23  1  0
 23 24  1  0
 24 25  2  0
 25 26  1  0
 26 27  2  0
 27 28  1  0
 28 29  2  0
 15 30  1  0
 30 31  2  0
  9 32  2  0
 32  5  1  0
 31 12  1  0
 29 24  1  0
  1 33  1  0
  1 34  1  0
  1 35  1  0
  6 36  1  0
  7 37  1  0
  8 38  1  0
 10 39  1  0
 10 40  1  0
 13 41  1  0
 14 42  1  0
 16 43  1  0
 16 44  1  0
 17 45  1  0
 17 46  1  0
 20 47  1  0
 21 48  1  0
 21 49  1  0
 22 50  1  0
 22 51  1  0
 23 52  1  0
 23 53  1  0
 25 54  1  0
 26 55  1  0
 27 56  1  0
 28 57  1  0
 29 58  1  0
 30 59  1  0
 31 60  1  0
 32 61  1  0
M  END
>  <UniqueID>  (37) 
34

>  <SMILES>  (37) 
CC(F)(F)c1cccc(COc2ccc(CCC(=O)NCCCc3ccccc3)cc2)c1

>  <Energy>  (37) 
49.22122001805018

>  <Genealogy>  (37) 
CC(F)(F)c1cccc(COc2ccc(CCC(=O)NCCCc3ccccc3)cc2)c1 (3D coordinates assigned)
CC(F)(F)c1cccc(COc2ccc(CCC(=O)NCCCc3ccccc3)cc2)c1 (optimized conformer: 49.22122001805018 kcal/mol)

>  <smiles>  (37) 
CC(F)(F)c1cccc(COc2ccc(CCC(=O)NCCCc3ccccc3)cc2)c1

>  <score_type>  (37) 
oracle

>  <origin>  (37) 
adgpu

>  <m_score__min__energy>  (37) 
-9.6600000000000001

>  <m_primary>  (37) 
energy

$$$$
37:0
     RDKit          3D

 59 62  0  0  0  0  0  0  0  0999 V2000
   -8.8250   18.1690  -31.2870 C   0  0  0  0  0  0  0  0  0  0  0  0
   -7.4840   18.3480  -31.9470 C   0  0  0  0  0  0  0  0  0  0  0  0
   -6.4810   17.3860  -31.7270 C   0  0  0  0  0  0  0  0  0  0  0  0
   -5.2290   17.5160  -32.3290 C   0  0  0  0  0  0  0  0  0  0  0  0
   -4.9600   18.6070  -33.1520 C   0  0  0  0  0  0  0  0  0  0  0  0
   -5.9410   19.5750  -33.3770 C   0  0  0  0  0  0  0  0  0  0  0  0
   -7.2130   19.4630  -32.7800 C   0  0  0  0  0  0  0  0  0  0  0  0
   -8.2140   20.4770  -33.0010 N   0  0  0  0  0  0  0  0  0  0  0  0
   -8.6350   21.6700  -31.8160 S   0  0  0  0  0  0  0  0  0  0  0  0
   -9.1060   20.9950  -30.5580 O   0  0  0  0  0  0  0  0  0  0  0  0
   -9.7310   22.5550  -32.3420 O   0  0  0  0  0  0  0  0  0  0  0  0
   -7.2170   22.6460  -31.4460 C   0  0  0  0  0  0  0  0  0  0  0  0
   -6.0610   22.5320  -32.2320 C   0  0  0  0  0  0  0  0  0  0  0  0
   -4.9230   23.2860  -31.9230 C   0  0  0  0  0  0  0  0  0  0  0  0
   -4.9270   24.1520  -30.8210 C   0  0  0  0  0  0  0  0  0  0  0  0
   -3.7350   24.8840  -30.5000 N   0  0  0  0  0  0  0  0  0  0  0  0
   -2.7830   24.4970  -29.4990 C   0  0  0  0  0  0  0  0  0  0  0  0
   -2.0130   25.3700  -29.0180 O   0  0  0  0  0  0  0  0  0  0  0  0
   -2.6660   23.0920  -29.0510 C   0  0  0  0  0  0  0  0  0  0  0  0
   -3.4070   22.6340  -27.9500 C   0  0  0  0  0  0  0  0  0  0  0  0
   -3.2430   21.3290  -27.4870 C   0  0  0  0  0  0  0  0  0  0  0  0
   -2.3370   20.4680  -28.1100 C   0  0  0  0  0  0  0  0  0  0  0  0
   -2.1650   19.2210  -27.6020 F   0  0  0  0  0  0  0  0  0  0  0  0
   -1.6020   20.9070  -29.2260 C   0  0  0  0  0  0  0  0  0  0  0  0
   -0.3700   19.8890  -29.9760 S   0  0  0  0  0  0  0  0  0  0  0  0
    1.0080   20.3860  -29.6300 O   0  0  0  0  0  0  0  0  0  0  0  0
   -0.5170   18.4870  -29.4530 O   0  0  0  0  0  0  0  0  0  0  0  0
   -0.5950   19.8950  -31.7070 N   0  0  0  0  0  0  0  0  0  0  0  0
   -2.0110   20.1430  -32.0270 C   0  0  0  0  0  0  0  0  0  0  0  0
   -2.1860   20.2420  -33.5470 C   0  0  0  0  0  0  0  0  0  0  0  0
   -1.3810   21.2770  -34.0790 O   0  0  0  0  0  0  0  0  0  0  0  0
   -0.0150   21.0020  -33.8210 C   0  0  0  0  0  0  0  0  0  0  0  0
    0.2490   20.9370  -32.3120 C   0  0  0  0  0  0  0  0  0  0  0  0
   -1.7800   22.2150  -29.6970 C   0  0  0  0  0  0  0  0  0  0  0  0
   -6.1060   24.3040  -30.0680 C   0  0  0  0  0  0  0  0  0  0  0  0
   -7.2410   23.5500  -30.3760 C   0  0  0  0  0  0  0  0  0  0  0  0
   -8.7009   18.1856  -30.1941 H   0  0  0  0  0  0  0  0  0  0  0  0
   -9.4958   18.9856  -31.5923 H   0  0  0  0  0  0  0  0  0  0  0  0
   -9.2582   17.2051  -31.5923 H   0  0  0  0  0  0  0  0  0  0  0  0
   -6.6857   16.5241  -31.0749 H   0  0  0  0  0  0  0  0  0  0  0  0
   -4.4535   16.7559  -32.1534 H   0  0  0  0  0  0  0  0  0  0  0  0
   -3.9723   18.7064  -33.6259 H   0  0  0  0  0  0  0  0  0  0  0  0
   -5.7188   20.4341  -34.0271 H   0  0  0  0  0  0  0  0  0  0  0  0
   -8.6770   20.5690  -33.9340 H   0  0  0  0  0  0  0  0  0  0  0  0
   -6.0487   21.8482  -33.0936 H   0  0  0  0  0  0  0  0  0  0  0  0
   -4.0218   23.1985  -32.5476 H   0  0  0  0  0  0  0  0  0  0  0  0
   -4.1196   23.3071  -27.4508 H   0  0  0  0  0  0  0  0  0  0  0  0
   -3.8303   20.9759  -26.6266 H   0  0  0  0  0  0  0  0  0  0  0  0
   -2.6238   19.3149  -31.6413 H   0  0  0  0  0  0  0  0  0  0  0  0
   -2.3307   21.0865  -31.5606 H   0  0  0  0  0  0  0  0  0  0  0  0
   -1.8946   19.2860  -34.0066 H   0  0  0  0  0  0  0  0  0  0  0  0
   -3.2401   20.4668  -33.7667 H   0  0  0  0  0  0  0  0  0  0  0  0
    0.2512   20.0366  -34.2761 H   0  0  0  0  0  0  0  0  0  0  0  0
    0.5958   21.8086  -34.2525 H   0  0  0  0  0  0  0  0  0  0  0  0
    1.3082   20.6980  -32.1358 H   0  0  0  0  0  0  0  0  0  0  0  0
    0.0100   21.9098  -31.8574 H   0  0  0  0  0  0  0  0  0  0  0  0
   -1.2208   22.5574  -30.5802 H   0  0  0  0  0  0  0  0  0  0  0  0
   -6.1341   25.0197  -29.2331 H   0  0  0  0  0  0  0  0  0  0  0  0
   -8.1561   23.6664  -29.7767 H   0  0  0  0  0  0  0  0  0  0  0  0
  1  2  1  0
  2  3  2  0
  3  4  1  0
  4  5  2  0
  5  6  1  0
  6  7  2  0
  7  8  1  0
  8  9  1  0
  9 10  2  0
  9 11  2  0
  9 12  1  0
 12 13  2  0
 13 14  1  0
 14 15  2  0
 15 16  1  0
 16 17  1  0
 17 18  2  0
 17 19  1  0
 19 20  2  0
 20 21  1  0
 21 22  2  0
 22 23  1  0
 22 24  1  0
 24 25  1  0
 25 26  2  0
 25 27  2  0
 25 28  1  0
 28 29  1  0
 29 30  1  0
 30 31  1  0
 31 32  1  0
 32 33  1  0
 24 34  2  0
 15 35  1  0
 35 36  2  0
  7  2  1  0
 36 12  1  0
 34 19  1  0
 33 28  1  0
  1 37  1  0
  1 38  1  0
  1 39  1  0
  3 40  1  0
  4 41  1  0
  5 42  1  0
  6 43  1  0
  8 44  1  0
 13 45  1  0
 14 46  1  0
 20 47  1  0
 21 48  1  0
 29 49  1  0
 29 50  1  0
 30 51  1  0
 30 52  1  0
 32 53  1  0
 32 54  1  0
 33 55  1  0
 33 56  1  0
 34 57  1  0
 35 58  1  0
 36 59  1  0
M  CHG  1  16  -1
M  END
>  <UniqueID>  (38) 
35

>  <SMILES>  (38) 
Cc1ccccc1NS(=O)(=O)c1ccc([N-]C(=O)c2ccc(F)c(S(=O)(=O)N3CCOCC3)c2)cc1

>  <Energy>  (38) 
75.57175475929293

>  <Genealogy>  (38) 
Cc1ccccc1NS(=O)(=O)c1ccc([N-]C(=O)c2ccc(F)c(S(=O)(=O)N3CCOCC3)c2)cc1 (protonated)
Cc1ccccc1NS(=O)(=O)c1ccc([N-]C(=O)c2ccc(F)c(S(=O)(=O)N3CCOCC3)c2)cc1 (3D coordinates assigned)
Cc1ccccc1NS(=O)(=O)c1ccc([N-]C(=O)c2ccc(F)c(S(=O)(=O)N3CCOCC3)c2)cc1 (nonaromatic ring conformer: 75.57175475929293 kcal/mol)

>  <smiles>  (38) 
Cc1ccccc1NS(=O)(=O)c1ccc(NC(=O)c2ccc(F)c(S(=O)(=O)N3CCOCC3)c2)cc1

>  <score_type>  (38) 
oracle

>  <origin>  (38) 
adgpu

>  <m_score__min__energy>  (38) 
-12.26

>  <m_primary>  (38) 
energy

$$$$
38:0
     RDKit          3D

 40 43  0  0  0  0  0  0  0  0999 V2000
   -9.5420   21.1300  -31.9670 Br  0  0  0  0  0  0  0  0  0  0  0  0
   -7.9990   20.0320  -32.2150 C   0  0  0  0  0  0  0  0  0  0  0  0
   -8.1120   18.6400  -32.1460 C   0  0  0  0  0  0  0  0  0  0  0  0
   -6.9850   17.8370  -32.3360 C   0  0  0  0  0  0  0  0  0  0  0  0
   -5.7420   18.4220  -32.5890 C   0  0  0  0  0  0  0  0  0  0  0  0
   -5.6130   19.8210  -32.6370 C   0  0  0  0  0  0  0  0  0  0  0  0
   -4.3450   20.4370  -32.9160 N   0  0  0  0  0  0  0  0  0  0  0  0
   -3.4350   19.8880  -33.7000 N   0  0  0  0  0  0  0  0  0  0  0  0
   -2.3580   20.6950  -33.6350 C   0  0  0  0  0  0  0  0  0  0  0  0
   -1.1340   20.4490  -34.3500 N   0  0  0  0  0  0  0  0  0  0  0  0
   -0.1930   21.5510  -34.5790 C   0  0  0  0  0  0  0  0  0  0  0  0
    0.6990   21.2460  -35.7870 C   0  0  0  0  0  0  0  0  0  0  0  0
    1.2850   19.9640  -35.6680 O   0  0  0  0  0  0  0  0  0  0  0  0
    0.2760   18.9750  -35.7280 C   0  0  0  0  0  0  0  0  0  0  0  0
   -0.6540   19.0720  -34.5160 C   0  0  0  0  0  0  0  0  0  0  0  0
   -2.5500   21.7590  -32.8250 N   0  0  0  0  0  0  0  0  0  0  0  0
   -3.8140   21.5680  -32.3950 C   0  0  0  0  0  0  0  0  0  0  0  0
   -4.5150   22.5460  -31.5350 C   0  0  0  0  0  0  0  0  0  0  0  0
   -4.1790   22.6470  -30.1780 C   0  0  0  0  0  0  0  0  0  0  0  0
   -4.8300   23.5850  -29.3730 C   0  0  0  0  0  0  0  0  0  0  0  0
   -5.7730   24.4050  -29.9080 N   0  0  0  0  0  0  0  0  0  0  0  0
   -6.1070   24.3430  -31.2250 C   0  0  0  0  0  0  0  0  0  0  0  0
   -5.4790   23.4190  -32.0640 C   0  0  0  0  0  0  0  0  0  0  0  0
   -6.7540   20.6210  -32.4680 C   0  0  0  0  0  0  0  0  0  0  0  0
   -9.0888   18.1771  -31.9420 H   0  0  0  0  0  0  0  0  0  0  0  0
   -7.0765   16.7419  -32.2863 H   0  0  0  0  0  0  0  0  0  0  0  0
   -4.8600   17.7850  -32.7514 H   0  0  0  0  0  0  0  0  0  0  0  0
   -0.7569   22.4762  -34.7686 H   0  0  0  0  0  0  0  0  0  0  0  0
    0.4404   21.6718  -33.6878 H   0  0  0  0  0  0  0  0  0  0  0  0
    0.0903   21.2807  -36.7026 H   0  0  0  0  0  0  0  0  0  0  0  0
    1.5011   21.9975  -35.8316 H   0  0  0  0  0  0  0  0  0  0  0  0
   -0.3128   19.1160  -36.6464 H   0  0  0  0  0  0  0  0  0  0  0  0
    0.7535   17.9841  -35.7272 H   0  0  0  0  0  0  0  0  0  0  0  0
   -1.5147   18.4033  -34.6648 H   0  0  0  0  0  0  0  0  0  0  0  0
   -0.0979   18.7762  -33.6142 H   0  0  0  0  0  0  0  0  0  0  0  0
   -3.4069   21.9913  -29.7492 H   0  0  0  0  0  0  0  0  0  0  0  0
   -4.5791   23.6601  -28.3046 H   0  0  0  0  0  0  0  0  0  0  0  0
   -6.8725   25.0212  -31.6301 H   0  0  0  0  0  0  0  0  0  0  0  0
   -5.7382   23.3758  -33.1322 H   0  0  0  0  0  0  0  0  0  0  0  0
   -6.6697   21.7157  -32.5346 H   0  0  0  0  0  0  0  0  0  0  0  0
  1  2  1  0
  2  3  2  0
  3  4  1  0
  4  5  2  0
  5  6  1  0
  6  7  1  0
  7  8  1  0
  8  9  2  0
  9 10  1  0
 10 11  1  0
 11 12  1  0
 12 13  1  0
 13 14  1  0
 14 15  1  0
  9 16  1  0
 16 17  2  0
 17 18  1  0
 18 19  2  0
 19 20  1  0
 20 21  2  0
 21 22  1  0
 22 23  2  0
  6 24  2  0
 24  2  1  0
 17  7  1  0
 23 18  1  0
 15 10  1  0
  3 25  1  0
  4 26  1  0
  5 27  1  0
 11 28  1  0
 11 29  1  0
 12 30  1  0
 12 31  1  0
 14 32  1  0
 14 33  1  0
 15 34  1  0
 15 35  1  0
 19 36  1  0
 20 37  1  0
 22 38  1  0
 23 39  1  0
 24 40  1  0
M  END
>  <UniqueID>  (39) 
36

>  <SMILES>  (39) 
Brc1cccc(-n2nc(N3CCOCC3)nc2-c2ccncc2)c1

>  <Energy>  (39) 
87.0931317612143

>  <Genealogy>  (39) 
Brc1cccc(-n2nc(N3CCOCC3)nc2-c2ccncc2)c1 (3D coordinates assigned)
Brc1cccc(-n2nc(N3CCOCC3)nc2-c2ccncc2)c1 (nonaromatic ring conformer: 87.0931317612143 kcal/mol)

>  <smiles>  (39) 
Brc1cccc(-n2nc(N3CCOCC3)nc2-c2ccncc2)c1

>  <score_type>  (39) 
oracle

>  <origin>  (39) 
adgpu

>  <m_score__min__energy>  (39) 
-7.7599999999999998

>  <m_primary>  (39) 
energy

$$$$
39:0
     RDKit          3D

 34 36  0  0  0  0  0  0  0  0999 V2000
    0.5250   22.7547  -27.5513 H   0  0  0  0  0  0  0  0  0  0  0  0
   -0.1860   23.4850  -27.9650 C   0  0  0  0  0  0  0  0  0  0  0  0
    0.0490   24.8510  -27.8160 C   0  0  0  0  0  0  0  0  0  0  0  0
    1.6010   25.4680  -26.8910 Br  0  0  0  0  0  0  0  0  0  0  0  0
   -0.8710   25.7610  -28.3390 C   0  0  0  0  0  0  0  0  0  0  0  0
   -0.6993   26.8409  -28.2198 H   0  0  0  0  0  0  0  0  0  0  0  0
   -1.9800   25.3210  -28.9960 N   0  0  0  0  0  0  0  0  0  0  0  0
   -2.6540   26.0480  -29.3150 H   0  0  0  0  0  0  0  0  0  0  0  0
   -2.2200   23.9820  -29.1770 C   0  0  0  0  0  0  0  0  0  0  0  0
   -3.2770   23.5380  -29.7990 N   0  0  0  0  0  0  0  0  0  0  0  0
   -4.2770   24.2820  -30.5100 C   0  0  0  0  0  0  0  0  0  0  0  0
   -4.0360   25.4540  -30.9050 O   0  0  0  0  0  0  0  0  0  0  0  0
   -5.5660   23.6340  -30.8520 C   0  0  0  0  0  0  0  0  0  0  0  0
   -6.8420   24.0810  -30.5080 C   0  0  0  0  0  0  0  0  0  0  0  0
   -7.1840   25.3040  -29.7180 C   0  0  0  0  0  0  0  0  0  0  0  0
   -7.1203   25.0763  -28.6437 H   0  0  0  0  0  0  0  0  0  0  0  0
   -6.4766   26.1095  -29.9646 H   0  0  0  0  0  0  0  0  0  0  0  0
   -8.2066   25.6257  -29.9646 H   0  0  0  0  0  0  0  0  0  0  0  0
   -7.7820   23.2460  -31.0070 N   0  0  0  0  0  0  0  0  0  0  0  0
   -7.0590   22.3060  -31.6470 C   0  0  0  0  0  0  0  0  0  0  0  0
   -7.5900   21.2140  -32.3300 C   0  0  0  0  0  0  0  0  0  0  0  0
   -8.6771   21.0583  -32.3933 H   0  0  0  0  0  0  0  0  0  0  0  0
   -6.6950   20.3200  -32.9340 C   0  0  0  0  0  0  0  0  0  0  0  0
   -7.0805   19.4548  -33.4933 H   0  0  0  0  0  0  0  0  0  0  0  0
   -5.3030   20.5230  -32.8290 C   0  0  0  0  0  0  0  0  0  0  0  0
   -4.3460   19.5840  -33.5000 C   0  0  0  0  0  0  0  0  0  0  0  0
   -3.7807   19.0293  -32.7367 H   0  0  0  0  0  0  0  0  0  0  0  0
   -4.9066   18.8758  -34.1278 H   0  0  0  0  0  0  0  0  0  0  0  0
   -3.6486   20.1580  -34.1278 H   0  0  0  0  0  0  0  0  0  0  0  0
   -4.8260   21.6530  -32.1380 C   0  0  0  0  0  0  0  0  0  0  0  0
   -3.7461   21.8444  -32.0534 H   0  0  0  0  0  0  0  0  0  0  0  0
   -5.7290   22.5050  -31.5760 N   0  0  0  0  0  0  0  0  0  0  0  0
   -1.3250   23.0470  -28.6400 C   0  0  0  0  0  0  0  0  0  0  0  0
   -1.5204   21.9702  -28.7506 H   0  0  0  0  0  0  0  0  0  0  0  0
  1  2  1  0
  2  3  1  0
  3  4  1  0
  3  5  2  0
  5  6  1  0
  5  7  1  0
  7  8  1  0
  7  9  1  0
  9 10  2  0
 10 11  1  0
 11 12  2  0
 11 13  1  0
 13 14  2  0
 14 15  1  0
 15 16  1  0
 15 17  1  0
 15 18  1  0
 14 19  1  0
 19 20  2  0
 20 21  1  0
 21 22  1  0
 21 23  2  0
 23 24  1  0
 23 25  1  0
 25 26  1  0
 26 27  1  0
 26 28  1  0
 26 29  1  0
 25 30  2  0
 30 31  1  0
 30 32  1  0
  9 33  1  0
 33 34  1  0
 33  2  2  0
 32 13  1  0
 32 20  1  0
M  END
>  <UniqueID>  (40) 
37

>  <SMILES>  (40) 
Cc1ccc2nc(C)c(C(=O)/N=c3/ccc(Br)c[nH]3)n2c1

>  <Energy>  (40) 
79.17429263117293

>  <Genealogy>  (40) 
Cc1ccc2nc(C)c(C(=O)/N=c3/ccc(Br)c[nH]3)n2c1 (cis-trans isomerization)
Cc1ccc2nc(C)c(C(=O)/N=c3/ccc(Br)c[nH]3)n2c1 (3D coordinates assigned)
Cc1ccc2nc(C)c(C(=O)/N=c3/ccc(Br)c[nH]3)n2c1 (optimized conformer: 79.17429263117293 kcal/mol)

>  <smiles>  (40) 
Cc1ccc2nc(C)c(C(=O)N=c3ccc(Br)c[nH]3)n2c1

>  <score_type>  (40) 
oracle

>  <origin>  (40) 
adgpu

>  <m_score__min__energy>  (40) 
-8.3100000000000005

>  <m_primary>  (40) 
energy

$$$$
40:0
     RDKit          3D

 38 41  0  0  0  0  0  0  0  0999 V2000
   -6.0830   19.4230  -34.5210 O   0  0  0  0  0  0  0  0  0  0  0  0
   -6.4330   18.5120  -33.7240 C   0  0  0  0  0  0  0  0  0  0  0  0
   -7.3830   18.7860  -32.6800 N   0  0  0  0  0  0  0  0  0  0  0  0
   -7.7220   20.1110  -32.2360 C   0  0  0  0  0  0  0  0  0  0  0  0
   -9.0450   20.5840  -32.2840 C   0  0  0  0  0  0  0  0  0  0  0  0
   -9.3450   21.8840  -31.8700 C   0  0  0  0  0  0  0  0  0  0  0  0
   -8.3290   22.7280  -31.4160 C   0  0  0  0  0  0  0  0  0  0  0  0
   -6.9990   22.2810  -31.3810 C   0  0  0  0  0  0  0  0  0  0  0  0
   -5.9190   23.1720  -30.9130 C   0  0  0  0  0  0  0  0  0  0  0  0
   -5.2910   23.0470  -29.7260 N   0  0  0  0  0  0  0  0  0  0  0  0
   -4.4140   24.0720  -29.7750 C   0  0  0  0  0  0  0  0  0  0  0  0
   -3.4580   24.3890  -28.6920 C   0  0  0  0  0  0  0  0  0  0  0  0
   -2.0880   24.5400  -28.9710 C   0  0  0  0  0  0  0  0  0  0  0  0
   -1.1860   24.8390  -27.9450 C   0  0  0  0  0  0  0  0  0  0  0  0
   -1.6420   24.9880  -26.6330 C   0  0  0  0  0  0  0  0  0  0  0  0
   -3.0000   24.8390  -26.3440 C   0  0  0  0  0  0  0  0  0  0  0  0
   -3.9060   24.5400  -27.3660 C   0  0  0  0  0  0  0  0  0  0  0  0
   -4.5080   24.7720  -30.9230 N   0  0  0  0  0  0  0  0  0  0  0  0
   -5.4470   24.1850  -31.5990 O   0  0  0  0  0  0  0  0  0  0  0  0
   -6.7030   20.9720  -31.8000 C   0  0  0  0  0  0  0  0  0  0  0  0
   -5.8830   17.1590  -33.9100 C   0  0  0  0  0  0  0  0  0  0  0  0
   -4.6700   16.8310  -34.4900 C   0  0  0  0  0  0  0  0  0  0  0  0
   -4.5980   15.4550  -34.4480 C   0  0  0  0  0  0  0  0  0  0  0  0
   -5.7660   15.0280  -33.8490 C   0  0  0  0  0  0  0  0  0  0  0  0
   -6.5100   16.0650  -33.5410 O   0  0  0  0  0  0  0  0  0  0  0  0
   -7.9340   17.9880  -32.2920 H   0  0  0  0  0  0  0  0  0  0  0  0
   -9.8481   19.9271  -32.6494 H   0  0  0  0  0  0  0  0  0  0  0  0
  -10.3840   22.2439  -31.9016 H   0  0  0  0  0  0  0  0  0  0  0  0
   -8.5724   23.7481  -31.0842 H   0  0  0  0  0  0  0  0  0  0  0  0
   -1.7237   24.4222  -30.0022 H   0  0  0  0  0  0  0  0  0  0  0  0
   -0.1160   24.9570  -28.1714 H   0  0  0  0  0  0  0  0  0  0  0  0
   -0.9310   25.2228  -25.8272 H   0  0  0  0  0  0  0  0  0  0  0  0
   -3.3576   24.9571  -25.3105 H   0  0  0  0  0  0  0  0  0  0  0  0
   -4.9745   24.4221  -27.1327 H   0  0  0  0  0  0  0  0  0  0  0  0
   -5.6613   20.6188  -31.7859 H   0  0  0  0  0  0  0  0  0  0  0  0
   -3.9199   17.5237  -34.8991 H   0  0  0  0  0  0  0  0  0  0  0  0
   -3.7757   14.8245  -34.8173 H   0  0  0  0  0  0  0  0  0  0  0  0
   -6.0330   13.9780  -33.6586 H   0  0  0  0  0  0  0  0  0  0  0  0
  1  2  2  0
  2  3  1  0
  3  4  1  0
  4  5  2  0
  5  6  1  0
  6  7  2  0
  7  8  1  0
  8  9  1  0
  9 10  2  0
 10 11  1  0
 11 12  1  0
 12 13  2  0
 13 14  1  0
 14 15  2  0
 15 16  1  0
 16 17  2  0
 11 18  2  0
 18 19  1  0
  8 20  2  0
  2 21  1  0
 21 22  2  0
 22 23  1  0
 23 24  2  0
 24 25  1  0
 20  4  1  0
 25 21  1  0
 19  9  1  0
 17 12  1  0
  3 26  1  0
  5 27  1  0
  6 28  1  0
  7 29  1  0
 13 30  1  0
 14 31  1  0
 15 32  1  0
 16 33  1  0
 17 34  1  0
 20 35  1  0
 22 36  1  0
 23 37  1  0
 24 38  1  0
M  END
>  <UniqueID>  (41) 
38

>  <SMILES>  (41) 
O=C(Nc1cccc(-c2nc(-c3ccccc3)no2)c1)c1ccco1

>  <Energy>  (41) 
105.34063844119517

>  <Genealogy>  (41) 
O=C(Nc1cccc(-c2nc(-c3ccccc3)no2)c1)c1ccco1 (3D coordinates assigned)
O=C(Nc1cccc(-c2nc(-c3ccccc3)no2)c1)c1ccco1 (optimized conformer: 105.34063844119517 kcal/mol)

>  <smiles>  (41) 
O=C(Nc1cccc(-c2nc(-c3ccccc3)no2)c1)c1ccco1

>  <score_type>  (41) 
oracle

>  <origin>  (41) 
adgpu

>  <m_score__min__energy>  (41) 
-9.0700000000000003

>  <m_primary>  (41) 
energy

$$$$
41:0
     RDKit          3D

 54 56  0  0  0  0  0  0  0  0999 V2000
   -0.4990   27.5800  -27.4760 C   0  0  0  0  0  0  0  0  0  0  0  0
   -0.9830   26.5290  -28.3060 O   0  0  0  0  0  0  0  0  0  0  0  0
   -1.1160   25.1910  -27.9010 C   0  0  0  0  0  0  0  0  0  0  0  0
   -0.3980   24.6680  -26.8090 C   0  0  0  0  0  0  0  0  0  0  0  0
   -0.5590   23.3340  -26.4300 C   0  0  0  0  0  0  0  0  0  0  0  0
   -1.4230   22.4960  -27.1460 C   0  0  0  0  0  0  0  0  0  0  0  0
   -1.6180   21.0660  -26.7340 C   0  0  0  0  0  0  0  0  0  0  0  0
   -2.1470   23.0140  -28.2280 C   0  0  0  0  0  0  0  0  0  0  0  0
   -2.0010   24.3620  -28.6080 C   0  0  0  0  0  0  0  0  0  0  0  0
   -2.7470   24.9210  -29.7000 N   0  0  0  0  0  0  0  0  0  0  0  0
   -4.2360   24.2860  -30.3210 S   0  0  0  0  0  0  0  0  0  0  0  0
   -5.1210   23.8890  -29.1750 O   0  0  0  0  0  0  0  0  0  0  0  0
   -4.9270   25.3500  -31.1290 O   0  0  0  0  0  0  0  0  0  0  0  0
   -3.9070   22.8630  -31.3040 C   0  0  0  0  0  0  0  0  0  0  0  0
   -2.8680   21.9870  -30.9670 C   0  0  0  0  0  0  0  0  0  0  0  0
   -2.6410   20.8370  -31.7300 C   0  0  0  0  0  0  0  0  0  0  0  0
   -3.4590   20.5510  -32.8420 C   0  0  0  0  0  0  0  0  0  0  0  0
   -3.2890   19.3990  -33.6280 O   0  0  0  0  0  0  0  0  0  0  0  0
   -3.8370   18.1160  -33.3270 C   0  0  0  0  0  0  0  0  0  0  0  0
   -4.9990   17.8130  -34.2360 C   0  0  0  0  0  0  0  0  0  0  0  0
   -4.8250   17.9000  -35.4830 O   0  0  0  0  0  0  0  0  0  0  0  0
   -6.2830   17.3960  -33.7250 N   0  0  0  0  0  0  0  0  0  0  0  0
   -6.7210   16.0000  -33.8330 C   0  0  0  0  0  0  0  0  0  0  0  0
   -7.1060   18.3380  -33.0120 C   0  0  0  0  0  0  0  0  0  0  0  0
   -7.0400   19.7080  -33.3120 C   0  0  0  0  0  0  0  0  0  0  0  0
   -7.8390   20.6210  -32.6170 C   0  0  0  0  0  0  0  0  0  0  0  0
   -8.7090   20.1720  -31.6180 C   0  0  0  0  0  0  0  0  0  0  0  0
   -8.7800   18.8100  -31.3140 C   0  0  0  0  0  0  0  0  0  0  0  0
   -7.9790   17.8950  -32.0030 C   0  0  0  0  0  0  0  0  0  0  0  0
   -4.4840   21.4400  -33.1810 C   0  0  0  0  0  0  0  0  0  0  0  0
   -4.7100   22.5890  -32.4180 C   0  0  0  0  0  0  0  0  0  0  0  0
   -0.6272   27.3016  -26.4196 H   0  0  0  0  0  0  0  0  0  0  0  0
    0.5678   27.7495  -27.6836 H   0  0  0  0  0  0  0  0  0  0  0  0
   -1.0637   28.5008  -27.6836 H   0  0  0  0  0  0  0  0  0  0  0  0
    0.2946   25.3148  -26.2505 H   0  0  0  0  0  0  0  0  0  0  0  0
   -0.0050   22.9395  -25.5655 H   0  0  0  0  0  0  0  0  0  0  0  0
   -1.6272   20.9987  -25.6361 H   0  0  0  0  0  0  0  0  0  0  0  0
   -2.5748   20.6970  -27.1320 H   0  0  0  0  0  0  0  0  0  0  0  0
   -0.7950   20.4543  -27.1320 H   0  0  0  0  0  0  0  0  0  0  0  0
   -2.8355   22.3619  -28.7855 H   0  0  0  0  0  0  0  0  0  0  0  0
   -2.2280   22.2040  -30.0991 H   0  0  0  0  0  0  0  0  0  0  0  0
   -1.8218   20.1537  -31.4616 H   0  0  0  0  0  0  0  0  0  0  0  0
   -3.0603   17.3492  -33.4643 H   0  0  0  0  0  0  0  0  0  0  0  0
   -4.1903   18.1152  -32.2853 H   0  0  0  0  0  0  0  0  0  0  0  0
   -6.8533   15.5783  -32.8257 H   0  0  0  0  0  0  0  0  0  0  0  0
   -7.6760   15.9564  -34.3771 H   0  0  0  0  0  0  0  0  0  0  0  0
   -5.9621   15.4186  -34.3771 H   0  0  0  0  0  0  0  0  0  0  0  0
   -6.3569   20.0645  -34.0970 H   0  0  0  0  0  0  0  0  0  0  0  0
   -7.7834   21.6933  -32.8561 H   0  0  0  0  0  0  0  0  0  0  0  0
   -9.3372   20.8910  -31.0718 H   0  0  0  0  0  0  0  0  0  0  0  0
   -9.4675   18.4573  -30.5311 H   0  0  0  0  0  0  0  0  0  0  0  0
   -8.0318   16.8246  -31.7549 H   0  0  0  0  0  0  0  0  0  0  0  0
   -5.1179   21.2331  -34.0558 H   0  0  0  0  0  0  0  0  0  0  0  0
   -5.5206   23.2797  -32.6933 H   0  0  0  0  0  0  0  0  0  0  0  0
  1  2  1  0
  2  3  1  0
  3  4  2  0
  4  5  1  0
  5  6  2  0
  6  7  1  0
  6  8  1  0
  8  9  2  0
  9 10  1  0
 10 11  1  0
 11 12  2  0
 11 13  2  0
 11 14  1  0
 14 15  2  0
 15 16  1  0
 16 17  2  0
 17 18  1  0
 18 19  1  0
 19 20  1  0
 20 21  2  0
 20 22  1  0
 22 23  1  0
 22 24  1  0
 24 25  2  0
 25 26  1  0
 26 27  2  0
 27 28  1  0
 28 29  2  0
 17 30  1  0
 30 31  2  0
  9  3  1  0
 31 14  1  0
 29 24  1  0
  1 32  1  0
  1 33  1  0
  1 34  1  0
  4 35  1  0
  5 36  1  0
  7 37  1  0
  7 38  1  0
  7 39  1  0
  8 40  1  0
 15 41  1  0
 16 42  1  0
 19 43  1  0
 19 44  1  0
 23 45  1  0
 23 46  1  0
 23 47  1  0
 25 48  1  0
 26 49  1  0
 27 50  1  0
 28 51  1  0
 29 52  1  0
 30 53  1  0
 31 54  1  0
M  CHG  1  10  -1
M  END
>  <UniqueID>  (42) 
39

>  <SMILES>  (42) 
COc1ccc(C)cc1[N-]S(=O)(=O)c1ccc(OCC(=O)N(C)c2ccccc2)cc1

>  <Energy>  (42) 
61.78381660303911

>  <Genealogy>  (42) 
COc1ccc(C)cc1[N-]S(=O)(=O)c1ccc(OCC(=O)N(C)c2ccccc2)cc1 (protonated)
COc1ccc(C)cc1[N-]S(=O)(=O)c1ccc(OCC(=O)N(C)c2ccccc2)cc1 (3D coordinates assigned)
COc1ccc(C)cc1[N-]S(=O)(=O)c1ccc(OCC(=O)N(C)c2ccccc2)cc1 (optimized conformer: 61.78381660303911 kcal/mol)

>  <smiles>  (42) 
COc1ccc(C)cc1NS(=O)(=O)c1ccc(OCC(=O)N(C)c2ccccc2)cc1

>  <score_type>  (42) 
oracle

>  <origin>  (42) 
adgpu

>  <m_score__min__energy>  (42) 
-11.109999999999999

>  <m_primary>  (42) 
energy

$$$$
42:0
     RDKit          3D

 43 45  0  0  0  0  0  0  0  0999 V2000
   -5.8280   25.3090  -28.9540 N   0  0  0  0  0  0  0  0  0  0  0  0
   -5.6280   24.2220  -29.9200 C   0  0  1  0  0  0  0  0  0  0  0  0
   -6.7140   24.2220  -31.0250 C   0  0  0  0  0  0  0  0  0  0  0  0
   -7.1210   22.8390  -31.4770 C   0  0  0  0  0  0  0  0  0  0  0  0
   -8.3410   22.2840  -31.0570 C   0  0  0  0  0  0  0  0  0  0  0  0
   -8.7140   21.0020  -31.4670 C   0  0  0  0  0  0  0  0  0  0  0  0
   -7.8750   20.2590  -32.3040 C   0  0  0  0  0  0  0  0  0  0  0  0
   -8.2590   18.9820  -32.7040 O   0  0  0  0  0  0  0  0  0  0  0  0
   -6.6590   20.8090  -32.7320 C   0  0  0  0  0  0  0  0  0  0  0  0
   -6.2850   22.0920  -32.3220 C   0  0  0  0  0  0  0  0  0  0  0  0
   -4.2330   24.2520  -30.4930 C   0  0  0  0  0  0  0  0  0  0  0  0
   -3.9730   23.6540  -31.5740 O   0  0  0  0  0  0  0  0  0  0  0  0
   -3.1970   24.9220  -29.7670 N   0  0  0  0  0  0  0  0  0  0  0  0
   -2.5050   24.4140  -28.6170 C   0  0  0  0  0  0  0  0  0  0  0  0
   -2.3070   25.2190  -27.4820 C   0  0  0  0  0  0  0  0  0  0  0  0
   -1.6200   24.7200  -26.3730 C   0  0  0  0  0  0  0  0  0  0  0  0
   -1.1270   23.4150  -26.3850 C   0  0  0  0  0  0  0  0  0  0  0  0
   -1.3290   22.6000  -27.5000 C   0  0  0  0  0  0  0  0  0  0  0  0
   -2.0290   23.0840  -28.6190 C   0  0  0  0  0  0  0  0  0  0  0  0
   -2.2090   22.2040  -29.8000 C   0  0  0  0  0  0  0  0  0  0  0  0
   -1.2970   22.2390  -30.8670 C   0  0  0  0  0  0  0  0  0  0  0  0
   -1.4730   21.3780  -31.9530 C   0  0  0  0  0  0  0  0  0  0  0  0
   -2.5250   20.5160  -31.9770 N   0  0  0  0  0  0  0  0  0  0  0  0
   -3.4290   20.4680  -30.9640 C   0  0  0  0  0  0  0  0  0  0  0  0
   -3.2910   21.3110  -29.8590 C   0  0  0  0  0  0  0  0  0  0  0  0
   -5.9000   24.9180  -27.9870 H   0  0  0  0  0  0  0  0  0  0  0  0
   -4.9960   25.9430  -28.9780 H   0  0  0  0  0  0  0  0  0  0  0  0
   -5.7375   23.2719  -29.3765 H   0  0  0  0  0  0  0  0  0  0  0  0
   -7.6051   24.7364  -30.6360 H   0  0  0  0  0  0  0  0  0  0  0  0
   -6.2829   24.7319  -31.8992 H   0  0  0  0  0  0  0  0  0  0  0  0
   -9.0073   22.8630  -30.4006 H   0  0  0  0  0  0  0  0  0  0  0  0
   -9.6705   20.5753  -31.1307 H   0  0  0  0  0  0  0  0  0  0  0  0
   -8.7240   18.8230  -33.5910 H   0  0  0  0  0  0  0  0  0  0  0  0
   -5.9971   20.2295  -33.3924 H   0  0  0  0  0  0  0  0  0  0  0  0
   -5.3303   22.5187  -32.6634 H   0  0  0  0  0  0  0  0  0  0  0  0
   -2.6954   26.2481  -27.4670 H   0  0  0  0  0  0  0  0  0  0  0  0
   -1.4675   25.3567  -25.4891 H   0  0  0  0  0  0  0  0  0  0  0  0
   -0.5780   23.0276  -25.5141 H   0  0  0  0  0  0  0  0  0  0  0  0
   -0.9378   21.5719  -27.5032 H   0  0  0  0  0  0  0  0  0  0  0  0
   -0.4494   22.9398  -30.8479 H   0  0  0  0  0  0  0  0  0  0  0  0
   -0.7596   21.3972  -32.7901 H   0  0  0  0  0  0  0  0  0  0  0  0
   -4.2720   19.7632  -31.0142 H   0  0  0  0  0  0  0  0  0  0  0  0
   -4.0250   21.2756  -29.0405 H   0  0  0  0  0  0  0  0  0  0  0  0
  1  2  1  0
  2  3  1  0
  3  4  1  0
  4  5  2  0
  5  6  1  0
  6  7  2  0
  7  8  1  0
  7  9  1  0
  9 10  2  0
  2 11  1  0
 11 12  2  0
 11 13  1  0
 13 14  1  0
 14 15  2  0
 15 16  1  0
 16 17  2  0
 17 18  1  0
 18 19  2  0
 19 20  1  0
 20 21  2  0
 21 22  1  0
 22 23  2  0
 23 24  1  0
 24 25  2  0
 10  4  1  0
 19 14  1  0
 25 20  1  0
  1 26  1  0
  1 27  1  0
  2 28  1  1
  3 29  1  0
  3 30  1  0
  5 31  1  0
  6 32  1  0
  8 33  1  0
  9 34  1  0
 10 35  1  0
 15 36  1  0
 16 37  1  0
 17 38  1  0
 18 39  1  0
 21 40  1  0
 22 41  1  0
 24 42  1  0
 25 43  1  0
M  CHG  1  13  -1
M  END
>  <UniqueID>  (43) 
40

>  <SMILES>  (43) 
N[C@@H](Cc1ccc(O)cc1)C(=O)[N-]c1ccccc1-c1ccncc1

>  <Energy>  (43) 
53.18127843154112

>  <Genealogy>  (43) 
NC(Cc1ccc(O)cc1)C(=O)[N-]c1ccccc1-c1ccncc1 (protonated)
N[C@@H](Cc1ccc(O)cc1)C(=O)[N-]c1ccccc1-c1ccncc1 (chirality)
N[C@@H](Cc1ccc(O)cc1)C(=O)[N-]c1ccccc1-c1ccncc1 (3D coordinates assigned)
N[C@@H](Cc1ccc(O)cc1)C(=O)[N-]c1ccccc1-c1ccncc1 (optimized conformer: 53.18127843154112 kcal/mol)

>  <smiles>  (43) 
NC(Cc1ccc(O)cc1)C(=O)Nc1ccccc1-c1ccncc1

>  <score_type>  (43) 
oracle

>  <origin>  (43) 
adgpu

>  <m_score__min__energy>  (43) 
-9.5999999999999996

>  <m_primary>  (43) 
energy

$$$$
43:0
     RDKit          3D

 58 62  0  0  0  0  0  0  0  0999 V2000
    1.1100   19.2470  -28.1830 O   0  0  0  0  0  0  0  0  0  0  0  0
   -0.2970   19.2790  -28.7140 S   0  0  0  0  0  0  0  0  0  0  0  0
   -1.1440   18.4020  -27.8360 O   0  0  0  0  0  0  0  0  0  0  0  0
   -0.9050   20.9350  -28.6440 C   0  0  0  0  0  0  0  0  0  0  0  0
   -2.1300   21.2110  -28.0200 C   0  0  0  0  0  0  0  0  0  0  0  0
   -2.6210   22.5190  -27.9790 C   0  0  0  0  0  0  0  0  0  0  0  0
   -1.8860   23.5700  -28.5500 C   0  0  0  0  0  0  0  0  0  0  0  0
   -2.4120   24.9800  -28.5160 C   0  0  0  0  0  0  0  0  0  0  0  0
   -3.1240   25.2850  -29.7150 O   0  0  0  0  0  0  0  0  0  0  0  0
   -4.3510   24.7170  -30.1000 C   0  0  0  0  0  0  0  0  0  0  0  0
   -5.5880   25.3030  -29.7710 C   0  0  0  0  0  0  0  0  0  0  0  0
   -6.7800   24.7110  -30.1900 C   0  0  0  0  0  0  0  0  0  0  0  0
   -6.7540   23.5280  -30.9290 C   0  0  0  0  0  0  0  0  0  0  0  0
   -5.5320   22.9140  -31.2540 C   0  0  0  0  0  0  0  0  0  0  0  0
   -5.5320   21.6500  -32.0260 C   0  0  0  0  0  0  0  0  0  0  0  0
   -6.6440   20.8270  -32.2180 C   0  0  0  0  0  0  0  0  0  0  0  0
   -6.1810   19.7660  -32.9650 C   0  0  0  0  0  0  0  0  0  0  0  0
   -6.8440   18.6410  -33.4500 C   0  0  0  0  0  0  0  0  0  0  0  0
   -6.0940   17.7040  -34.1840 C   0  0  0  0  0  0  0  0  0  0  0  0
   -4.7140   17.9120  -34.4100 C   0  0  0  0  0  0  0  0  0  0  0  0
   -4.0740   19.0590  -33.9060 C   0  0  0  0  0  0  0  0  0  0  0  0
   -4.8450   19.9710  -33.1860 C   0  0  0  0  0  0  0  0  0  0  0  0
   -4.4330   21.1150  -32.6160 N   0  0  0  0  0  0  0  0  0  0  0  0
   -4.3290   23.5270  -30.8430 C   0  0  0  0  0  0  0  0  0  0  0  0
   -3.1000   22.9770  -31.1950 O   0  0  0  0  0  0  0  0  0  0  0  0
   -0.6620   23.2910  -29.1770 C   0  0  0  0  0  0  0  0  0  0  0  0
   -0.1730   21.9820  -29.2180 C   0  0  0  0  0  0  0  0  0  0  0  0
   -0.3110   18.6580  -30.3490 N   0  0  0  0  0  0  0  0  0  0  0  0
   -1.2350   19.4490  -31.1900 C   0  0  0  0  0  0  0  0  0  0  0  0
   -0.9700   19.2180  -32.6810 C   0  0  0  0  0  0  0  0  0  0  0  0
    0.4490   19.6740  -33.0670 C   0  0  0  0  0  0  0  0  0  0  0  0
    1.4300   19.6370  -31.8830 C   0  0  0  0  0  0  0  0  0  0  0  0
    1.0630   18.5210  -30.8940 C   0  0  0  0  0  0  0  0  0  0  0  0
   -2.7070   20.3947  -27.5608 H   0  0  0  0  0  0  0  0  0  0  0  0
   -3.5879   22.7259  -27.4970 H   0  0  0  0  0  0  0  0  0  0  0  0
   -3.0891   25.0916  -27.6563 H   0  0  0  0  0  0  0  0  0  0  0  0
   -1.5612   25.6714  -28.4259 H   0  0  0  0  0  0  0  0  0  0  0  0
   -5.6150   26.2312  -29.1813 H   0  0  0  0  0  0  0  0  0  0  0  0
   -7.7430   25.1784  -29.9369 H   0  0  0  0  0  0  0  0  0  0  0  0
   -7.6984   23.0716  -31.2604 H   0  0  0  0  0  0  0  0  0  0  0  0
   -7.6683   20.9906  -31.8518 H   0  0  0  0  0  0  0  0  0  0  0  0
   -7.9179   18.4903  -33.2653 H   0  0  0  0  0  0  0  0  0  0  0  0
   -6.5842   16.8043  -34.5844 H   0  0  0  0  0  0  0  0  0  0  0  0
   -4.1368   17.1720  -34.9838 H   0  0  0  0  0  0  0  0  0  0  0  0
   -3.0006   19.2308  -34.0744 H   0  0  0  0  0  0  0  0  0  0  0  0
   -3.4580   21.4860  -32.6030 H   0  0  0  0  0  0  0  0  0  0  0  0
   -0.0848   24.1059  -29.6383 H   0  0  0  0  0  0  0  0  0  0  0  0
    0.7917   21.7732  -29.7036 H   0  0  0  0  0  0  0  0  0  0  0  0
   -2.2695   19.1538  -30.9604 H   0  0  0  0  0  0  0  0  0  0  0  0
   -1.0756   20.5152  -30.9711 H   0  0  0  0  0  0  0  0  0  0  0  0
   -1.0761   18.1459  -32.9032 H   0  0  0  0  0  0  0  0  0  0  0  0
   -1.6966   19.8059  -33.2610 H   0  0  0  0  0  0  0  0  0  0  0  0
    0.8282   19.0107  -33.8584 H   0  0  0  0  0  0  0  0  0  0  0  0
    0.3802   20.7177  -33.4074 H   0  0  0  0  0  0  0  0  0  0  0  0
    2.4463   19.4589  -32.2643 H   0  0  0  0  0  0  0  0  0  0  0  0
    1.3774   20.6012  -31.3562 H   0  0  0  0  0  0  0  0  0  0  0  0
    1.1397   17.5539  -31.4125 H   0  0  0  0  0  0  0  0  0  0  0  0
    1.7614   18.5891  -30.0469 H   0  0  0  0  0  0  0  0  0  0  0  0
  1  2  2  0
  2  3  2  0
  2  4  1  0
  4  5  2  0
  5  6  1  0
  6  7  2  0
  7  8  1  0
  8  9  1  0
  9 10  1  0
 10 11  2  0
 11 12  1  0
 12 13  2  0
 13 14  1  0
 14 15  1  0
 15 16  2  0
 16 17  1  0
 17 18  2  0
 18 19  1  0
 19 20  2  0
 20 21  1  0
 21 22  2  0
 22 23  1  0
 14 24  2  0
 24 25  1  0
  7 26  1  0
 26 27  2  0
  2 28  1  0
 28 29  1  0
 29 30  1  0
 30 31  1  0
 31 32  1  0
 32 33  1  0
 27  4  1  0
 33 28  1  0
 24 10  1  0
 23 15  1  0
 22 17  1  0
  5 34  1  0
  6 35  1  0
  8 36  1  0
  8 37  1  0
 11 38  1  0
 12 39  1  0
 13 40  1  0
 16 41  1  0
 18 42  1  0
 19 43  1  0
 20 44  1  0
 21 45  1  0
 23 46  1  0
 26 47  1  0
 27 48  1  0
 29 49  1  0
 29 50  1  0
 30 51  1  0
 30 52  1  0
 31 53  1  0
 31 54  1  0
 32 55  1  0
 32 56  1  0
 33 57  1  0
 33 58  1  0
M  CHG  1  25  -1
M  END
>  <UniqueID>  (44) 
41

>  <SMILES>  (44) 
O=S(=O)(c1ccc(COc2cccc(-c3cc4ccccc4[nH]3)c2[O-])cc1)N1CCCCC1

>  <Energy>  (44) 
105.00970551235265

>  <Genealogy>  (44) 
O=S(=O)(c1ccc(COc2cccc(-c3cc4ccccc4[nH]3)c2[O-])cc1)N1CCCCC1 (protonated)
O=S(=O)(c1ccc(COc2cccc(-c3cc4ccccc4[nH]3)c2[O-])cc1)N1CCCCC1 (3D coordinates assigned)
O=S(=O)(c1ccc(COc2cccc(-c3cc4ccccc4[nH]3)c2[O-])cc1)N1CCCCC1 (nonaromatic ring conformer: 105.00970551235265 kcal/mol)

>  <smiles>  (44) 
O=S(=O)(c1ccc(COc2cccc(-c3cc4ccccc4[nH]3)c2O)cc1)N1CCCCC1

>  <score_type>  (44) 
oracle

>  <origin>  (44) 
adgpu

>  <m_score__min__energy>  (44) 
-14.67

>  <m_primary>  (44) 
energy

$$$$
44:0
     RDKit          3D

 51 53  0  0  0  0  0  0  0  0999 V2000
   -7.1180   18.2390  -31.8840 C   0  0  0  0  0  0  0  0  0  0  0  0
   -8.6180   18.4240  -31.6660 C   0  0  0  0  0  0  0  0  0  0  0  0
   -9.1720   19.6240  -32.4440 C   0  0  0  0  0  0  0  0  0  0  0  0
   -8.1560   20.6720  -32.5850 N   0  0  0  0  0  0  0  0  0  0  0  0
   -8.5180   22.0480  -31.5870 S   0  0  0  0  0  0  0  0  0  0  0  0
   -9.5000   22.9420  -32.2940 O   0  0  0  0  0  0  0  0  0  0  0  0
   -9.1460   21.5760  -30.3060 O   0  0  0  0  0  0  0  0  0  0  0  0
   -7.0470   22.9400  -31.2090 C   0  0  0  0  0  0  0  0  0  0  0  0
   -7.1270   24.1480  -30.5060 C   0  0  0  0  0  0  0  0  0  0  0  0
   -5.9630   24.8450  -30.1670 C   0  0  0  0  0  0  0  0  0  0  0  0
   -4.7020   24.3300  -30.5170 C   0  0  0  0  0  0  0  0  0  0  0  0
   -3.4920   25.0360  -30.1990 N   0  0  0  0  0  0  0  0  0  0  0  0
   -2.7640   24.8680  -28.9690 C   0  0  0  0  0  0  0  0  0  0  0  0
   -3.1210   24.0000  -28.1300 O   0  0  0  0  0  0  0  0  0  0  0  0
   -1.6450   25.7050  -28.6580 N   0  0  0  0  0  0  0  0  0  0  0  0
   -0.9110   25.6880  -27.4270 C   0  0  0  0  0  0  0  0  0  0  0  0
   -1.2340   26.5810  -26.3930 C   0  0  0  0  0  0  0  0  0  0  0  0
   -0.4530   26.6330  -25.2350 C   0  0  0  0  0  0  0  0  0  0  0  0
    0.6680   25.8110  -25.1110 C   0  0  0  0  0  0  0  0  0  0  0  0
    1.0060   24.9290  -26.1400 C   0  0  0  0  0  0  0  0  0  0  0  0
    0.2140   24.8460  -27.2920 C   0  0  0  0  0  0  0  0  0  0  0  0
    0.5810   23.9350  -28.2930 O   0  0  0  0  0  0  0  0  0  0  0  0
   -0.1590   22.7970  -28.6530 C   0  0  0  0  0  0  0  0  0  0  0  0
   -0.4810   21.7910  -27.7210 C   0  0  0  0  0  0  0  0  0  0  0  0
   -1.2260   20.6770  -28.1170 C   0  0  0  0  0  0  0  0  0  0  0  0
   -1.6380   20.5480  -29.4460 C   0  0  0  0  0  0  0  0  0  0  0  0
   -1.3020   21.5310  -30.3810 C   0  0  0  0  0  0  0  0  0  0  0  0
   -0.5600   22.6490  -29.9860 C   0  0  0  0  0  0  0  0  0  0  0  0
   -4.6290   23.1330  -31.2430 C   0  0  0  0  0  0  0  0  0  0  0  0
   -5.7930   22.4350  -31.5780 C   0  0  0  0  0  0  0  0  0  0  0  0
   -6.6109   18.1765  -30.9099 H   0  0  0  0  0  0  0  0  0  0  0  0
   -6.9412   17.3122  -32.4496 H   0  0  0  0  0  0  0  0  0  0  0  0
   -6.7214   19.0950  -32.4496 H   0  0  0  0  0  0  0  0  0  0  0  0
   -9.1394   17.5144  -31.9990 H   0  0  0  0  0  0  0  0  0  0  0  0
   -8.7835   18.6102  -30.5946 H   0  0  0  0  0  0  0  0  0  0  0  0
   -9.4863   19.2905  -33.4440 H   0  0  0  0  0  0  0  0  0  0  0  0
  -10.0275   20.0370  -31.8895 H   0  0  0  0  0  0  0  0  0  0  0  0
   -8.1096   24.5506  -30.2191 H   0  0  0  0  0  0  0  0  0  0  0  0
   -6.0340   25.7994  -29.6247 H   0  0  0  0  0  0  0  0  0  0  0  0
   -3.1040   25.6720  -30.9300 H   0  0  0  0  0  0  0  0  0  0  0  0
   -2.1064   27.2433  -26.4947 H   0  0  0  0  0  0  0  0  0  0  0  0
   -0.7221   27.3222  -24.4210 H   0  0  0  0  0  0  0  0  0  0  0  0
    1.2859   25.8577  -24.2021 H   0  0  0  0  0  0  0  0  0  0  0  0
    1.9002   24.2954  -26.0449 H   0  0  0  0  0  0  0  0  0  0  0  0
   -0.1448   21.8827  -26.6777 H   0  0  0  0  0  0  0  0  0  0  0  0
   -1.4882   19.9014  -27.3823 H   0  0  0  0  0  0  0  0  0  0  0  0
   -2.2270   19.6724  -29.7564 H   0  0  0  0  0  0  0  0  0  0  0  0
   -1.6213   21.4254  -31.4283 H   0  0  0  0  0  0  0  0  0  0  0  0
   -0.2901   23.4160  -30.7268 H   0  0  0  0  0  0  0  0  0  0  0  0
   -3.6489   22.7402  -31.5513 H   0  0  0  0  0  0  0  0  0  0  0  0
   -5.7244   21.4874  -32.1324 H   0  0  0  0  0  0  0  0  0  0  0  0
  1  2  1  0
  2  3  1  0
  3  4  1  0
  4  5  1  0
  5  6  2  0
  5  7  2  0
  5  8  1  0
  8  9  2  0
  9 10  1  0
 10 11  2  0
 11 12  1  0
 12 13  1  0
 13 14  2  0
 13 15  1  0
 15 16  1  0
 16 17  2  0
 17 18  1  0
 18 19  2  0
 19 20  1  0
 20 21  2  0
 21 22  1  0
 22 23  1  0
 23 24  2  0
 24 25  1  0
 25 26  2  0
 26 27  1  0
 27 28  2  0
 11 29  1  0
 29 30  2  0
 30  8  1  0
 21 16  1  0
 28 23  1  0
  1 31  1  0
  1 32  1  0
  1 33  1  0
  2 34  1  0
  2 35  1  0
  3 36  1  0
  3 37  1  0
  9 38  1  0
 10 39  1  0
 12 40  1  0
 17 41  1  0
 18 42  1  0
 19 43  1  0
 20 44  1  0
 24 45  1  0
 25 46  1  0
 26 47  1  0
 27 48  1  0
 28 49  1  0
 29 50  1  0
 30 51  1  0
M  CHG  2   4  -1  15  -1
M  END
>  <UniqueID>  (45) 
42

>  <SMILES>  (45) 
CCC[N-]S(=O)(=O)c1ccc(NC(=O)[N-]c2ccccc2Oc2ccccc2)cc1

>  <Energy>  (45) 
63.30824011656441

>  <Genealogy>  (45) 
CCC[N-]S(=O)(=O)c1ccc(NC(=O)[N-]c2ccccc2Oc2ccccc2)cc1 (protonated)
CCC[N-]S(=O)(=O)c1ccc(NC(=O)[N-]c2ccccc2Oc2ccccc2)cc1 (3D coordinates assigned)
CCC[N-]S(=O)(=O)c1ccc(NC(=O)[N-]c2ccccc2Oc2ccccc2)cc1 (optimized conformer: 63.30824011656441 kcal/mol)

>  <smiles>  (45) 
CCCNS(=O)(=O)c1ccc(NC(=O)Nc2ccccc2Oc2ccccc2)cc1

>  <score_type>  (45) 
oracle

>  <origin>  (45) 
adgpu

>  <m_score__min__energy>  (45) 
-10.609999999999999

>  <m_primary>  (45) 
energy

$$$$
45:0
     RDKit          3D

 53 56  0  0  0  0  0  0  0  0999 V2000
   -4.8530   23.6280  -31.6600 O   0  0  0  0  0  0  0  0  0  0  0  0
   -5.7070   23.2410  -30.8130 C   0  0  0  0  0  0  0  0  0  0  0  0
   -5.5630   23.6190  -29.4340 N   0  0  0  0  0  0  0  0  0  0  0  0
   -4.3180   24.0280  -28.8430 C   0  0  0  0  0  0  0  0  0  0  0  0
   -3.1510   24.1720  -29.6150 C   0  0  0  0  0  0  0  0  0  0  0  0
   -1.9470   24.5520  -29.0140 C   0  0  0  0  0  0  0  0  0  0  0  0
   -1.8870   24.7940  -27.6380 C   0  0  0  0  0  0  0  0  0  0  0  0
   -0.6580   25.1630  -27.0700 O   0  0  0  0  0  0  0  0  0  0  0  0
   -0.4970   25.9770  -25.9390 C   0  0  0  0  0  0  0  0  0  0  0  0
   -0.6390   25.4740  -24.6320 C   0  0  0  0  0  0  0  0  0  0  0  0
   -0.4840   26.3220  -23.5310 C   0  0  0  0  0  0  0  0  0  0  0  0
   -0.2000   27.6760  -23.7240 C   0  0  0  0  0  0  0  0  0  0  0  0
   -0.0800   28.1870  -25.0210 C   0  0  0  0  0  0  0  0  0  0  0  0
   -0.2330   27.3400  -26.1230 C   0  0  0  0  0  0  0  0  0  0  0  0
   -3.0410   24.6100  -26.8560 C   0  0  0  0  0  0  0  0  0  0  0  0
   -4.2450   24.2290  -27.4570 C   0  0  0  0  0  0  0  0  0  0  0  0
   -6.8740   22.4450  -31.2670 C   0  0  0  0  0  0  0  0  0  0  0  0
   -8.1030   23.0660  -31.5540 C   0  0  0  0  0  0  0  0  0  0  0  0
   -9.1980   22.3070  -31.9700 C   0  0  0  0  0  0  0  0  0  0  0  0
   -9.0870   20.9210  -32.1060 C   0  0  0  0  0  0  0  0  0  0  0  0
  -10.1720   20.2090  -32.4980 F   0  0  0  0  0  0  0  0  0  0  0  0
   -7.8670   20.2840  -31.8220 C   0  0  0  0  0  0  0  0  0  0  0  0
   -7.6970   18.5300  -31.9550 S   0  0  0  0  0  0  0  0  0  0  0  0
   -9.0540   17.9030  -31.7950 O   0  0  0  0  0  0  0  0  0  0  0  0
   -6.8010   18.0060  -30.8670 O   0  0  0  0  0  0  0  0  0  0  0  0
   -7.0460   18.1130  -33.5230 N   0  0  0  0  0  0  0  0  0  0  0  0
   -5.8070   18.8750  -33.7730 C   0  0  0  0  0  0  0  0  0  0  0  0
   -4.9720   18.1990  -34.8720 C   0  0  0  0  0  0  0  0  0  0  0  0
   -4.5800   16.8640  -34.5750 O   0  0  0  0  0  0  0  0  0  0  0  0
   -5.3780   16.2410  -33.5790 C   0  0  0  0  0  0  0  0  0  0  0  0
   -6.8600   16.6500  -33.6510 C   0  0  0  0  0  0  0  0  0  0  0  0
   -6.7720   21.0480  -31.3950 C   0  0  0  0  0  0  0  0  0  0  0  0
   -6.4300   23.7180  -28.8590 H   0  0  0  0  0  0  0  0  0  0  0  0
   -3.1858   23.9845  -30.6983 H   0  0  0  0  0  0  0  0  0  0  0  0
   -1.0408   24.6613  -29.6278 H   0  0  0  0  0  0  0  0  0  0  0  0
   -0.8726   24.4104  -24.4762 H   0  0  0  0  0  0  0  0  0  0  0  0
   -0.5859   25.9222  -22.5113 H   0  0  0  0  0  0  0  0  0  0  0  0
   -0.0708   28.3402  -22.8567 H   0  0  0  0  0  0  0  0  0  0  0  0
    0.1347   29.2550  -25.1737 H   0  0  0  0  0  0  0  0  0  0  0  0
   -0.1454   27.7470  -27.1412 H   0  0  0  0  0  0  0  0  0  0  0  0
   -2.9967   24.7662  -25.7681 H   0  0  0  0  0  0  0  0  0  0  0  0
   -5.1424   24.0858  -26.8372 H   0  0  0  0  0  0  0  0  0  0  0  0
   -8.2018   24.1566  -31.4500 H   0  0  0  0  0  0  0  0  0  0  0  0
  -10.1543   22.8032  -32.1921 H   0  0  0  0  0  0  0  0  0  0  0  0
   -6.0674   19.8950  -34.0920 H   0  0  0  0  0  0  0  0  0  0  0  0
   -5.2158   18.9070  -32.8459 H   0  0  0  0  0  0  0  0  0  0  0  0
   -5.5674   18.1850  -35.7969 H   0  0  0  0  0  0  0  0  0  0  0  0
   -4.0456   18.7844  -34.9671 H   0  0  0  0  0  0  0  0  0  0  0  0
   -5.3090   15.1506  -33.7063 H   0  0  0  0  0  0  0  0  0  0  0  0
   -4.9948   16.5660  -32.6004 H   0  0  0  0  0  0  0  0  0  0  0  0
   -7.2702   16.3246  -34.6184 H   0  0  0  0  0  0  0  0  0  0  0  0
   -7.3828   16.1696  -32.8109 H   0  0  0  0  0  0  0  0  0  0  0  0
   -5.8211   20.5488  -31.1571 H   0  0  0  0  0  0  0  0  0  0  0  0
  1  2  2  0
  2  3  1  0
  3  4  1  0
  4  5  2  0
  5  6  1  0
  6  7  2  0
  7  8  1  0
  8  9  1  0
  9 10  2  0
 10 11  1  0
 11 12  2  0
 12 13  1  0
 13 14  2  0
  7 15  1  0
 15 16  2  0
  2 17  1  0
 17 18  2  0
 18 19  1  0
 19 20  2  0
 20 21  1  0
 20 22  1  0
 22 23  1  0
 23 24  2  0
 23 25  2  0
 23 26  1  0
 26 27  1  0
 27 28  1  0
 28 29  1  0
 29 30  1  0
 30 31  1  0
 22 32  2  0
 16  4  1  0
 32 17  1  0
 14  9  1  0
 31 26  1  0
  3 33  1  0
  5 34  1  0
  6 35  1  0
 10 36  1  0
 11 37  1  0
 12 38  1  0
 13 39  1  0
 14 40  1  0
 15 41  1  0
 16 42  1  0
 18 43  1  0
 19 44  1  0
 27 45  1  0
 27 46  1  0
 28 47  1  0
 28 48  1  0
 30 49  1  0
 30 50  1  0
 31 51  1  0
 31 52  1  0
 32 53  1  0
M  END
>  <UniqueID>  (46) 
43

>  <SMILES>  (46) 
O=C(Nc1ccc(Oc2ccccc2)cc1)c1ccc(F)c(S(=O)(=O)N2CCOCC2)c1

>  <Energy>  (46) 
81.77959582984631

>  <Genealogy>  (46) 
O=C(Nc1ccc(Oc2ccccc2)cc1)c1ccc(F)c(S(=O)(=O)N2CCOCC2)c1 (3D coordinates assigned)
O=C(Nc1ccc(Oc2ccccc2)cc1)c1ccc(F)c(S(=O)(=O)N2CCOCC2)c1 (nonaromatic ring conformer: 81.77959582984631 kcal/mol)

>  <smiles>  (46) 
O=C(Nc1ccc(Oc2ccccc2)cc1)c1ccc(F)c(S(=O)(=O)N2CCOCC2)c1

>  <score_type>  (46) 
oracle

>  <origin>  (46) 
adgpu

>  <m_score__min__energy>  (46) 
-10.32

>  <m_primary>  (46) 
energy

$$$$
