0:0
     RDKit          3D

 44 46  0  0  0  0  0  0  0  0999 V2000
   -2.8260   23.6840  -28.3950 C   0  0  0  0  0  0  0  0  0  0  0  0
   -2.5990   24.8390  -29.3220 C   0  0  0  0  0  0  0  0  0  0  0  0
   -1.6150   25.5980  -29.1200 O   0  0  0  0  0  0  0  0  0  0  0  0
   -3.4900   25.1350  -30.4060 N   0  0  0  0  0  0  0  0  0  0  0  0
   -4.8540   24.7100  -30.5400 C   0  0  0  0  0  0  0  0  0  0  0  0
   -5.8240   25.2810  -29.7090 C   0  0  0  0  0  0  0  0  0  0  0  0
   -7.1680   24.9280  -29.8450 C   0  0  0  0  0  0  0  0  0  0  0  0
   -7.5550   24.0070  -30.8220 C   0  0  0  0  0  0  0  0  0  0  0  0
   -6.6000   23.4290  -31.6690 C   0  0  0  0  0  0  0  0  0  0  0  0
   -7.0280   22.5360  -32.7080 N   0  0  0  0  0  0  0  0  0  0  0  0
   -7.6690   21.2840  -32.4510 C   0  0  0  0  0  0  0  0  0  0  0  0
   -7.5330   19.9980  -32.9450 C   0  0  0  0  0  0  0  0  0  0  0  0
   -6.6610   19.3450  -33.8730 N   0  0  0  0  0  0  0  0  0  0  0  0
   -5.3840   18.7560  -33.4560 C   0  0  2  0  0  0  0  0  0  0  0  0
   -5.6210   17.5630  -32.5260 C   0  0  0  0  0  0  0  0  0  0  0  0
   -4.5130   19.7870  -32.7660 C   0  0  0  0  0  0  0  0  0  0  0  0
   -3.5730   20.5440  -33.4910 C   0  0  0  0  0  0  0  0  0  0  0  0
   -2.7500   21.4650  -32.8360 C   0  0  0  0  0  0  0  0  0  0  0  0
   -2.8660   21.6510  -31.4570 C   0  0  0  0  0  0  0  0  0  0  0  0
   -3.8160   20.9270  -30.7320 C   0  0  0  0  0  0  0  0  0  0  0  0
   -4.6440   20.0080  -31.3830 C   0  0  0  0  0  0  0  0  0  0  0  0
   -8.5580   19.5760  -32.1210 C   0  0  0  0  0  0  0  0  0  0  0  0
   -9.1290   18.4750  -31.9070 O   0  0  0  0  0  0  0  0  0  0  0  0
   -8.6880   20.8550  -31.6210 C   0  0  0  0  0  0  0  0  0  0  0  0
   -9.4360   21.4040  -30.7710 O   0  0  0  0  0  0  0  0  0  0  0  0
   -5.2510   23.8040  -31.5390 C   0  0  0  0  0  0  0  0  0  0  0  0
   -2.7578   24.0310  -27.3534 H   0  0  0  0  0  0  0  0  0  0  0  0
   -3.8247   23.2597  -28.5755 H   0  0  0  0  0  0  0  0  0  0  0  0
   -2.0621   22.9133  -28.5755 H   0  0  0  0  0  0  0  0  0  0  0  0
   -5.5259   26.0127  -28.9436 H   0  0  0  0  0  0  0  0  0  0  0  0
   -7.9232   25.3755  -29.1821 H   0  0  0  0  0  0  0  0  0  0  0  0
   -8.6155   23.7341  -30.9268 H   0  0  0  0  0  0  0  0  0  0  0  0
   -6.8600   22.8010  -33.7040 H   0  0  0  0  0  0  0  0  0  0  0  0
   -6.9950   19.2370  -34.8580 H   0  0  0  0  0  0  0  0  0  0  0  0
   -4.8615   18.4053  -34.3582 H   0  0  0  0  0  0  0  0  0  0  0  0
   -5.5550   17.8952  -31.4794 H   0  0  0  0  0  0  0  0  0  0  0  0
   -6.6201   17.1434  -32.7152 H   0  0  0  0  0  0  0  0  0  0  0  0
   -4.8582   16.7934  -32.7152 H   0  0  0  0  0  0  0  0  0  0  0  0
   -3.4856   20.4100  -34.5793 H   0  0  0  0  0  0  0  0  0  0  0  0
   -2.0099   22.0440  -33.4079 H   0  0  0  0  0  0  0  0  0  0  0  0
   -2.2095   22.3674  -30.9415 H   0  0  0  0  0  0  0  0  0  0  0  0
   -3.9125   21.0805  -29.6470 H   0  0  0  0  0  0  0  0  0  0  0  0
   -5.4026   19.4543  -30.8103 H   0  0  0  0  0  0  0  0  0  0  0  0
   -4.5000   23.3849  -32.2248 H   0  0  0  0  0  0  0  0  0  0  0  0
  1  2  1  0
  2  3  2  0
  2  4  1  0
  4  5  1  0
  5  6  2  0
  6  7  1  0
  7  8  2  0
  8  9  1  0
  9 10  1  0
 10 11  1  0
 11 12  2  0
 12 13  1  0
 13 14  1  0
 14 15  1  0
 14 16  1  0
 16 17  2  0
 17 18  1  0
 18 19  2  0
 19 20  1  0
 20 21  2  0
 12 22  1  0
 22 23  2  0
 22 24  1  0
 24 25  2  0
  9 26  2  0
 26  5  1  0
 24 11  1  0
 21 16  1  0
  1 27  1  0
  1 28  1  0
  1 29  1  0
  6 30  1  0
  7 31  1  0
  8 32  1  0
 10 33  1  0
 13 34  1  0
 14 35  1  6
 15 36  1  0
 15 37  1  0
 15 38  1  0
 17 39  1  0
 18 40  1  0
 19 41  1  0
 20 42  1  0
 21 43  1  0
 26 44  1  0
M  CHG  1   4  -1
M  END
>  <UniqueID>  (1) 
1

>  <SMILES>  (1) 
CC(=O)[N-]c1cccc(Nc2c(N[C@H](C)c3ccccc3)c(=O)c2=O)c1

>  <Energy>  (1) 
37.14015229105848

>  <Genealogy>  (1) 
CC(=O)[N-]c1cccc(Nc2c(NC(C)c3ccccc3)c(=O)c2=O)c1 (protonated)
CC(=O)[N-]c1cccc(Nc2c(N[C@H](C)c3ccccc3)c(=O)c2=O)c1 (chirality)
CC(=O)[N-]c1cccc(Nc2c(N[C@H](C)c3ccccc3)c(=O)c2=O)c1 (3D coordinates assigned)
CC(=O)[N-]c1cccc(Nc2c(N[C@H](C)c3ccccc3)c(=O)c2=O)c1 (optimized conformer: 37.14015229105848 kcal/mol)

>  <smiles>  (1) 
CC(=O)Nc1cccc(Nc2c(NC(C)c3ccccc3)c(=O)c2=O)c1

>  <score_type>  (1) 
oracle

>  <origin>  (1) 
adgpu

>  <m_score__min__energy>  (1) 
-11.380000000000001

>  <m_primary>  (1) 
energy

$$$$
1:0
     RDKit          3D

 56 60  0  0  0  0  0  0  0  0999 V2000
    3.7954   20.9562  -35.8302 H   0  0  0  0  0  0  0  0  0  0  0  0
    2.7820   21.3720  -35.7300 C   0  0  0  0  0  0  0  0  0  0  0  0
    2.5290   22.6440  -36.1310 N   0  0  0  0  0  0  0  0  0  0  0  0
    1.2910   23.2020  -36.0290 C   0  0  0  0  0  0  0  0  0  0  0  0
    1.0870   24.5920  -36.4940 C   0  0  0  0  0  0  0  0  0  0  0  0
    1.3940   24.8930  -37.6780 O   0  0  0  0  0  0  0  0  0  0  0  0
    0.4860   25.5960  -35.6620 N   0  0  0  0  0  0  0  0  0  0  0  0
   -0.2310   26.5990  -36.0770 C   0  0  0  0  0  0  0  0  0  0  0  0
   -0.8290   27.7910  -35.0580 S   0  0  0  0  0  0  0  0  0  0  0  0
   -1.5960   28.6190  -36.3080 C   0  0  0  0  0  0  0  0  0  0  0  0
   -2.1775   29.5471  -36.2055 H   0  0  0  0  0  0  0  0  0  0  0  0
   -1.3670   27.9260  -37.4930 C   0  0  0  0  0  0  0  0  0  0  0  0
   -1.7654   28.2606  -38.4622 H   0  0  0  0  0  0  0  0  0  0  0  0
   -0.6130   26.8040  -37.3590 N   0  0  0  0  0  0  0  0  0  0  0  0
   -0.3930   26.1750  -38.1620 H   0  0  0  0  0  0  0  0  0  0  0  0
    0.2330   22.4380  -35.5120 C   0  0  0  0  0  0  0  0  0  0  0  0
   -0.7779   22.8675  -35.4520 H   0  0  0  0  0  0  0  0  0  0  0  0
    0.4660   21.1240  -35.0710 C   0  0  0  0  0  0  0  0  0  0  0  0
   -0.6250   20.3030  -34.4920 C   0  0  0  0  0  0  0  0  0  0  0  0
   -0.4870   19.0050  -34.1480 N   0  0  0  0  0  0  0  0  0  0  0  0
   -1.6910   18.6580  -33.6510 C   0  0  0  0  0  0  0  0  0  0  0  0
   -1.9270   17.6540  -33.2686 H   0  0  0  0  0  0  0  0  0  0  0  0
   -2.5750   19.6770  -33.6740 N   0  0  0  0  0  0  0  0  0  0  0  0
   -3.9300   19.6620  -33.1850 C   0  0  0  0  0  0  0  0  0  0  0  0
   -4.7650   18.5770  -33.4870 C   0  0  0  0  0  0  0  0  0  0  0  0
   -4.3794   17.7550  -34.1080 H   0  0  0  0  0  0  0  0  0  0  0  0
   -6.0870   18.5210  -33.0100 C   0  0  0  0  0  0  0  0  0  0  0  0
   -6.9500   17.4710  -33.3680 O   0  0  0  0  0  0  0  0  0  0  0  0
   -6.5270   16.2010  -33.8560 C   0  0  0  0  0  0  0  0  0  0  0  0
   -6.3059   15.5372  -33.0072 H   0  0  0  0  0  0  0  0  0  0  0  0
   -7.3264   15.7589  -34.4688 H   0  0  0  0  0  0  0  0  0  0  0  0
   -5.6221   16.3265  -34.4688 H   0  0  0  0  0  0  0  0  0  0  0  0
   -6.5660   19.5460  -32.1650 C   0  0  0  0  0  0  0  0  0  0  0  0
   -8.0050   19.5240  -31.6600 C   0  0  0  0  0  0  0  0  0  0  0  0
   -7.8838   18.6758  -30.9702 H   0  0  0  0  0  0  0  0  0  0  0  0
   -8.5460   20.8750  -31.1770 C   0  0  0  0  0  0  0  0  0  0  0  0
   -8.8854   20.8727  -30.1307 H   0  0  0  0  0  0  0  0  0  0  0  0
   -7.8872   21.7553  -31.1466 H   0  0  0  0  0  0  0  0  0  0  0  0
   -9.6730   20.8000  -32.1920 C   0  0  0  0  0  0  0  0  0  0  0  0
  -10.6733   20.7021  -31.7451 H   0  0  0  0  0  0  0  0  0  0  0  0
   -9.8673   21.6444  -32.8697 H   0  0  0  0  0  0  0  0  0  0  0  0
   -9.1050   19.4970  -32.7320 C   0  0  0  0  0  0  0  0  0  0  0  0
   -9.7906   18.6409  -32.6489 H   0  0  0  0  0  0  0  0  0  0  0  0
   -8.8403   19.4063  -33.7958 H   0  0  0  0  0  0  0  0  0  0  0  0
   -5.7550   20.6750  -31.9410 C   0  0  0  0  0  0  0  0  0  0  0  0
   -6.1596   21.5252  -31.3723 H   0  0  0  0  0  0  0  0  0  0  0  0
   -4.4380   20.7370  -32.4300 C   0  0  0  0  0  0  0  0  0  0  0  0
   -3.6200   21.8580  -32.2090 O   0  0  0  0  0  0  0  0  0  0  0  0
   -2.7260   22.0080  -31.1120 C   0  0  0  0  0  0  0  0  0  0  0  0
   -3.2841   21.9144  -30.1687 H   0  0  0  0  0  0  0  0  0  0  0  0
   -1.9528   21.2270  -31.1597 H   0  0  0  0  0  0  0  0  0  0  0  0
   -2.2501   22.9986  -31.1597 H   0  0  0  0  0  0  0  0  0  0  0  0
   -1.9080   20.7220  -34.1950 C   0  0  0  0  0  0  0  0  0  0  0  0
   -2.3123   21.7322  -34.3563 H   0  0  0  0  0  0  0  0  0  0  0  0
    1.7590   20.5910  -35.1910 C   0  0  0  0  0  0  0  0  0  0  0  0
    1.9649   19.5619  -34.8615 H   0  0  0  0  0  0  0  0  0  0  0  0
  1  2  1  0
  2  3  2  0
  3  4  1  0
  4  5  1  0
  5  6  2  0
  5  7  1  0
  7  8  2  0
  8  9  1  0
  9 10  1  0
 10 11  1  0
 10 12  2  0
 12 13  1  0
 12 14  1  0
 14 15  1  0
  4 16  2  0
 16 17  1  0
 16 18  1  0
 18 19  1  0
 19 20  1  0
 20 21  2  0
 21 22  1  0
 21 23  1  0
 23 24  1  0
 24 25  2  0
 25 26  1  0
 25 27  1  0
 27 28  1  0
 28 29  1  0
 29 30  1  0
 29 31  1  0
 29 32  1  0
 27 33  2  0
 33 34  1  0
 34 35  1  0
 34 36  1  0
 36 37  1  0
 36 38  1  0
 36 39  1  0
 39 40  1  0
 39 41  1  0
 39 42  1  0
 42 43  1  0
 42 44  1  0
 33 45  1  0
 45 46  1  0
 45 47  2  0
 47 48  1  0
 48 49  1  0
 49 50  1  0
 49 51  1  0
 49 52  1  0
 23 53  1  0
 53 54  1  0
 18 55  2  0
 55 56  1  0
 55  2  1  0
 14  8  1  0
 53 19  2  0
 47 24  1  0
 42 34  1  0
M  END
>  <UniqueID>  (2) 
2

>  <SMILES>  (2) 
COc1cc(-n2cnc(-c3ccnc(C(=O)/N=c4\[nH]ccs4)c3)c2)c(OC)cc1C1CCC1

>  <Energy>  (2) 
197.4196917573288

>  <Genealogy>  (2) 
COc1cc(-n2cnc(-c3ccnc(C(=O)/N=c4\[nH]ccs4)c3)c2)c(OC)cc1C1CCC1 (cis-trans isomerization)
COc1cc(-n2cnc(-c3ccnc(C(=O)/N=c4\[nH]ccs4)c3)c2)c(OC)cc1C1CCC1 (3D coordinates assigned)
COc1cc(-n2cnc(-c3ccnc(C(=O)/N=c4\[nH]ccs4)c3)c2)c(OC)cc1C1CCC1 (nonaromatic ring conformer: 197.4196917573288 kcal/mol)

>  <smiles>  (2) 
COc1cc(-n2cnc(-c3ccnc(C(=O)N=c4[nH]ccs4)c3)c2)c(OC)cc1C1CCC1

>  <score_type>  (2) 
oracle

>  <origin>  (2) 
adgpu

>  <m_score__min__energy>  (2) 
-9.4199999999999999

>  <m_primary>  (2) 
energy

$$$$
2:0
     RDKit          3D

 35 36  0  0  0  0  0  0  0  0999 V2000
   -9.3280   19.6540  -32.7170 C   0  0  0  0  0  0  0  0  0  0  0  0
   -7.9430   19.4290  -32.0970 C   0  0  0  0  0  0  0  0  0  0  0  0
   -6.9990   18.7420  -33.0910 C   0  0  0  0  0  0  0  0  0  0  0  0
   -7.3520   20.7320  -31.5940 C   0  0  0  0  0  0  0  0  0  0  0  0
   -5.9750   20.9820  -31.7400 C   0  0  0  0  0  0  0  0  0  0  0  0
   -5.4200   22.1800  -31.2830 C   0  0  0  0  0  0  0  0  0  0  0  0
   -6.2300   23.1480  -30.6770 C   0  0  0  0  0  0  0  0  0  0  0  0
   -5.5370   24.6650  -30.1130 S   0  0  0  0  0  0  0  0  0  0  0  0
   -6.6170   25.6720  -29.8310 O   0  0  0  0  0  0  0  0  0  0  0  0
   -4.6300   25.2090  -31.1800 O   0  0  0  0  0  0  0  0  0  0  0  0
   -4.6120   24.4020  -28.6650 N   0  0  0  0  0  0  0  0  0  0  0  0
   -3.4030   23.9220  -28.5940 C   0  0  0  0  0  0  0  0  0  0  0  0
   -2.6680   23.5350  -29.7320 C   0  0  0  0  0  0  0  0  0  0  0  0
   -1.3710   23.0360  -29.5780 C   0  0  0  0  0  0  0  0  0  0  0  0
   -0.8220   22.9230  -28.3390 N   0  0  0  0  0  0  0  0  0  0  0  0
   -1.5110   23.2860  -27.2240 C   0  0  0  0  0  0  0  0  0  0  0  0
   -2.8090   23.7910  -27.3330 C   0  0  0  0  0  0  0  0  0  0  0  0
   -7.6000   22.9040  -30.5210 C   0  0  0  0  0  0  0  0  0  0  0  0
   -8.1590   21.7060  -30.9770 C   0  0  0  0  0  0  0  0  0  0  0  0
  -10.0728   19.7750  -31.9166 H   0  0  0  0  0  0  0  0  0  0  0  0
   -9.3082   20.5607  -33.3395 H   0  0  0  0  0  0  0  0  0  0  0  0
   -9.5962   18.7877  -33.3395 H   0  0  0  0  0  0  0  0  0  0  0  0
   -8.0659   18.7600  -31.2325 H   0  0  0  0  0  0  0  0  0  0  0  0
   -6.2297   18.1821  -32.5390 H   0  0  0  0  0  0  0  0  0  0  0  0
   -7.5735   18.0493  -33.7235 H   0  0  0  0  0  0  0  0  0  0  0  0
   -6.5166   19.5017  -33.7235 H   0  0  0  0  0  0  0  0  0  0  0  0
   -5.3309   20.2288  -32.2174 H   0  0  0  0  0  0  0  0  0  0  0  0
   -4.3417   22.3635  -31.3998 H   0  0  0  0  0  0  0  0  0  0  0  0
   -3.1114   23.6248  -30.7346 H   0  0  0  0  0  0  0  0  0  0  0  0
   -0.7921   22.7335  -30.4631 H   0  0  0  0  0  0  0  0  0  0  0  0
    0.1480   22.5480  -28.2420 H   0  0  0  0  0  0  0  0  0  0  0  0
   -1.0447   23.1816  -26.2332 H   0  0  0  0  0  0  0  0  0  0  0  0
   -3.3634   24.0852  -26.4296 H   0  0  0  0  0  0  0  0  0  0  0  0
   -8.2391   23.6577  -30.0378 H   0  0  0  0  0  0  0  0  0  0  0  0
   -9.2366   21.5237  -30.8526 H   0  0  0  0  0  0  0  0  0  0  0  0
  1  2  1  0
  2  3  1  0
  2  4  1  0
  4  5  2  0
  5  6  1  0
  6  7  2  0
  7  8  1  0
  8  9  2  0
  8 10  2  0
  8 11  1  0
 11 12  2  3
 12 13  1  0
 13 14  2  0
 14 15  1  0
 15 16  1  0
 16 17  2  0
  7 18  1  0
 18 19  2  0
 19  4  1  0
 17 12  1  0
  1 20  1  0
  1 21  1  0
  1 22  1  0
  2 23  1  0
  3 24  1  0
  3 25  1  0
  3 26  1  0
  5 27  1  0
  6 28  1  0
 13 29  1  0
 14 30  1  0
 15 31  1  0
 16 32  1  0
 17 33  1  0
 18 34  1  0
 19 35  1  0
M  END
>  <UniqueID>  (3) 
3

>  <SMILES>  (3) 
CC(C)c1ccc(S(=O)(=O)N=c2cc[nH]cc2)cc1

>  <Energy>  (3) 
36.873861014312794

>  <Genealogy>  (3) 
CC(C)c1ccc(S(=O)(=O)N=c2cc[nH]cc2)cc1 (3D coordinates assigned)
CC(C)c1ccc(S(=O)(=O)N=c2cc[nH]cc2)cc1 (optimized conformer: 36.873861014312794 kcal/mol)

>  <smiles>  (3) 
CC(C)c1ccc(S(=O)(=O)N=c2cc[nH]cc2)cc1

>  <score_type>  (3) 
oracle

>  <origin>  (3) 
adgpu

>  <m_score__min__energy>  (3) 
-7.8600000000000003

>  <m_primary>  (3) 
energy

$$$$
3:0
     RDKit          3D

 36 37  0  0  0  0  0  0  0  0999 V2000
   -3.3540   21.3450  -33.8200 N   0  0  0  0  0  0  0  0  0  0  0  0
   -4.7660   20.6350  -33.1210 S   0  0  0  0  0  0  0  0  0  0  0  0
   -5.6040   20.0340  -34.2160 O   0  0  0  0  0  0  0  0  0  0  0  0
   -4.3670   19.5450  -32.1670 O   0  0  0  0  0  0  0  0  0  0  0  0
   -5.6810   21.8730  -32.2530 C   0  0  0  0  0  0  0  0  0  0  0  0
   -5.0340   23.0460  -31.8340 C   0  0  0  0  0  0  0  0  0  0  0  0
   -5.7320   24.0320  -31.1210 C   0  0  0  0  0  0  0  0  0  0  0  0
   -5.0350   25.2600  -30.6910 C   0  0  0  0  0  0  0  0  0  0  0  0
   -5.7020   26.3160  -30.5290 O   0  0  0  0  0  0  0  0  0  0  0  0
   -3.6190   25.2960  -30.4670 N   0  0  0  0  0  0  0  0  0  0  0  0
   -2.8950   24.5340  -29.4470 C   0  0  0  0  0  0  0  0  0  0  0  0
   -2.3230   23.2470  -30.0820 C   0  0  0  0  0  0  0  0  0  0  0  0
   -2.1110   22.1000  -29.0710 C   0  0  0  0  0  0  0  0  0  0  0  0
   -1.8730   22.6260  -27.6530 C   0  0  0  0  0  0  0  0  0  0  0  0
   -3.0690   23.4540  -27.1450 C   0  0  0  0  0  0  0  0  0  0  0  0
   -3.8240   24.1950  -28.2680 C   0  0  0  0  0  0  0  0  0  0  0  0
   -7.0980   23.8580  -30.8630 C   0  0  0  0  0  0  0  0  0  0  0  0
   -7.7490   22.6950  -31.2770 C   0  0  0  0  0  0  0  0  0  0  0  0
   -7.0500   21.6980  -31.9640 C   0  0  0  0  0  0  0  0  0  0  0  0
   -7.9280   20.2530  -32.4540 Cl  0  0  0  0  0  0  0  0  0  0  0  0
   -3.6370   22.2730  -34.2050 H   0  0  0  0  0  0  0  0  0  0  0  0
   -3.0810   20.7500  -34.6330 H   0  0  0  0  0  0  0  0  0  0  0  0
   -3.9691   23.1935  -32.0670 H   0  0  0  0  0  0  0  0  0  0  0  0
   -2.0650   25.1420  -29.0578 H   0  0  0  0  0  0  0  0  0  0  0  0
   -3.0221   22.9018  -30.8579 H   0  0  0  0  0  0  0  0  0  0  0  0
   -1.3347   23.5018  -30.4924 H   0  0  0  0  0  0  0  0  0  0  0  0
   -3.0052   21.4593  -29.0673 H   0  0  0  0  0  0  0  0  0  0  0  0
   -1.2193   21.5343  -29.3791 H   0  0  0  0  0  0  0  0  0  0  0  0
   -1.7177   21.7721  -26.9772 H   0  0  0  0  0  0  0  0  0  0  0  0
   -0.9876   23.2784  -27.6730 H   0  0  0  0  0  0  0  0  0  0  0  0
   -3.7730   22.7759  -26.6404 H   0  0  0  0  0  0  0  0  0  0  0  0
   -2.6677   24.2194  -26.4644 H   0  0  0  0  0  0  0  0  0  0  0  0
   -4.6421   23.5552  -28.6306 H   0  0  0  0  0  0  0  0  0  0  0  0
   -4.2151   25.1371  -27.8562 H   0  0  0  0  0  0  0  0  0  0  0  0
   -7.6595   24.6409  -30.3322 H   0  0  0  0  0  0  0  0  0  0  0  0
   -8.8194   22.5619  -31.0613 H   0  0  0  0  0  0  0  0  0  0  0  0
  1  2  1  0
  2  3  2  0
  2  4  2  0
  2  5  1  0
  5  6  2  0
  6  7  1  0
  7  8  1  0
  8  9  2  0
  8 10  1  0
 10 11  1  0
 11 12  1  0
 12 13  1  0
 13 14  1  0
 14 15  1  0
 15 16  1  0
  7 17  2  0
 17 18  1  0
 18 19  2  0
 19 20  1  0
 19  5  1  0
 16 11  1  0
  1 21  1  0
  1 22  1  0
  6 23  1  0
 11 24  1  0
 12 25  1  0
 12 26  1  0
 13 27  1  0
 13 28  1  0
 14 29  1  0
 14 30  1  0
 15 31  1  0
 15 32  1  0
 16 33  1  0
 16 34  1  0
 17 35  1  0
 18 36  1  0
M  CHG  1  10  -1
M  END
>  <UniqueID>  (4) 
4

>  <SMILES>  (4) 
NS(=O)(=O)c1cc(C(=O)[N-]C2CCCCC2)ccc1Cl

>  <Energy>  (4) 
40.68767847599322

>  <Genealogy>  (4) 
NS(=O)(=O)c1cc(C(=O)[N-]C2CCCCC2)ccc1Cl (protonated)
NS(=O)(=O)c1cc(C(=O)[N-]C2CCCCC2)ccc1Cl (3D coordinates assigned)
NS(=O)(=O)c1cc(C(=O)[N-]C2CCCCC2)ccc1Cl (nonaromatic ring conformer: 40.68767847599322 kcal/mol)

>  <smiles>  (4) 
NS(=O)(=O)c1cc(C(=O)NC2CCCCC2)ccc1Cl

>  <score_type>  (4) 
oracle

>  <origin>  (4) 
adgpu

>  <m_score__min__energy>  (4) 
-9.8200000000000003

>  <m_primary>  (4) 
energy

$$$$
4:0
     RDKit          3D

 36 38  0  0  0  0  0  0  0  0999 V2000
   -3.1870   19.9250  -31.2270 O   0  0  0  0  0  0  0  0  0  0  0  0
   -4.1060   20.7870  -31.2680 C   0  0  0  0  0  0  0  0  0  0  0  0
   -5.3880   20.4440  -31.8190 N   0  0  0  0  0  0  0  0  0  0  0  0
   -5.6220   19.2380  -32.5650 C   0  0  0  0  0  0  0  0  0  0  0  0
   -4.6020   18.7160  -33.3810 C   0  0  0  0  0  0  0  0  0  0  0  0
   -4.8360   17.6000  -34.1860 C   0  0  0  0  0  0  0  0  0  0  0  0
   -6.0940   16.9990  -34.1970 C   0  0  0  0  0  0  0  0  0  0  0  0
   -7.1200   17.5070  -33.3980 C   0  0  0  0  0  0  0  0  0  0  0  0
   -6.8990   18.6220  -32.5690 C   0  0  0  0  0  0  0  0  0  0  0  0
   -7.9650   19.0880  -31.7230 N   0  0  0  0  0  0  0  0  0  0  0  0
   -8.7590   18.2820  -31.1940 O   0  0  0  0  0  0  0  0  0  0  0  0
   -8.2260   20.4360  -31.6200 O   0  0  0  0  0  0  0  0  0  0  0  0
   -3.8520   22.1320  -30.7180 C   0  0  0  0  0  0  0  0  0  0  0  0
   -4.2210   23.3470  -31.2730 C   0  0  0  0  0  0  0  0  0  0  0  0
   -3.7520   24.3090  -30.4040 C   0  0  0  0  0  0  0  0  0  0  0  0
   -3.8740   25.6780  -30.6080 O   0  0  0  0  0  0  0  0  0  0  0  0
   -3.1220   23.7470  -29.3500 N   0  0  0  0  0  0  0  0  0  0  0  0
   -2.4990   24.4200  -28.2400 C   0  0  0  0  0  0  0  0  0  0  0  0
   -3.1980   24.6230  -27.0370 C   0  0  0  0  0  0  0  0  0  0  0  0
   -2.5830   25.2720  -25.9610 C   0  0  0  0  0  0  0  0  0  0  0  0
   -1.2640   25.7210  -26.0740 C   0  0  0  0  0  0  0  0  0  0  0  0
   -0.5580   25.5180  -27.2610 C   0  0  0  0  0  0  0  0  0  0  0  0
   -1.1680   24.8690  -28.3390 C   0  0  0  0  0  0  0  0  0  0  0  0
   -3.1750   22.4120  -29.5430 C   0  0  0  0  0  0  0  0  0  0  0  0
   -6.2010   21.0730  -31.6380 H   0  0  0  0  0  0  0  0  0  0  0  0
   -3.6103   19.1919  -33.3847 H   0  0  0  0  0  0  0  0  0  0  0  0
   -4.0275   17.1945  -34.8120 H   0  0  0  0  0  0  0  0  0  0  0  0
   -6.2784   16.1231  -34.8363 H   0  0  0  0  0  0  0  0  0  0  0  0
   -8.1113   17.0306  -33.4168 H   0  0  0  0  0  0  0  0  0  0  0  0
   -4.7726   23.5098  -32.2107 H   0  0  0  0  0  0  0  0  0  0  0  0
   -4.2351   24.2692  -26.9413 H   0  0  0  0  0  0  0  0  0  0  0  0
   -3.1383   25.4292  -25.0245 H   0  0  0  0  0  0  0  0  0  0  0  0
   -0.7828   26.2339  -25.2282 H   0  0  0  0  0  0  0  0  0  0  0  0
    0.4807   25.8694  -27.3486 H   0  0  0  0  0  0  0  0  0  0  0  0
   -0.6047   24.7082  -29.2700 H   0  0  0  0  0  0  0  0  0  0  0  0
   -2.7443   21.6585  -28.8672 H   0  0  0  0  0  0  0  0  0  0  0  0
  1  2  2  0
  2  3  1  0
  3  4  1  0
  4  5  2  0
  5  6  1  0
  6  7  2  0
  7  8  1  0
  8  9  2  0
  9 10  1  0
 10 11  2  0
 10 12  1  0
  2 13  1  0
 13 14  1  0
 14 15  2  0
 15 16  1  0
 15 17  1  0
 17 18  1  0
 18 19  2  0
 19 20  1  0
 20 21  2  0
 21 22  1  0
 22 23  2  0
 17 24  1  0
  9  4  1  0
 24 13  2  0
 23 18  1  0
  3 25  1  0
  5 26  1  0
  6 27  1  0
  7 28  1  0
  8 29  1  0
 14 30  1  0
 19 31  1  0
 20 32  1  0
 21 33  1  0
 22 34  1  0
 23 35  1  0
 24 36  1  0
M  CHG  3  10   1  12  -1  16  -1
M  END
>  <UniqueID>  (5) 
5

>  <SMILES>  (5) 
O=C(Nc1ccccc1[N+](=O)[O-])c1cc([O-])n(-c2ccccc2)c1

>  <Energy>  (5) 
78.77453892958879

>  <Genealogy>  (5) 
O=C(Nc1ccccc1[N+](=O)[O-])c1cc([O-])n(-c2ccccc2)c1 (protonated)
O=C(Nc1ccccc1[N+](=O)[O-])c1cc([O-])n(-c2ccccc2)c1 (3D coordinates assigned)
O=C(Nc1ccccc1[N+](=O)[O-])c1cc([O-])n(-c2ccccc2)c1 (optimized conformer: 78.77453892958879 kcal/mol)

>  <smiles>  (5) 
O=C(Nc1ccccc1[N+](=O)[O-])c1cc(O)n(-c2ccccc2)c1

>  <score_type>  (5) 
oracle

>  <origin>  (5) 
adgpu

>  <m_score__min__energy>  (5) 
-10.49

>  <m_primary>  (5) 
energy

$$$$
5:0
     RDKit          3D

 48 52  0  0  0  0  0  0  0  0999 V2000
   -2.0400   23.5980  -28.2030 O   0  0  0  0  0  0  0  0  0  0  0  0
   -2.2880   24.5990  -28.9250 C   0  0  0  0  0  0  0  0  0  0  0  0
   -1.8200   25.8850  -28.5010 N   0  0  0  0  0  0  0  0  0  0  0  0
   -0.9230   26.1350  -27.4100 C   0  0  0  0  0  0  0  0  0  0  0  0
   -1.4120   26.7700  -26.2610 C   0  0  0  0  0  0  0  0  0  0  0  0
   -0.5700   26.9980  -25.1680 C   0  0  0  0  0  0  0  0  0  0  0  0
    0.7630   26.5770  -25.2100 C   0  0  0  0  0  0  0  0  0  0  0  0
    1.8180   26.8620  -23.8380 Cl  0  0  0  0  0  0  0  0  0  0  0  0
    1.2510   25.9170  -26.3440 C   0  0  0  0  0  0  0  0  0  0  0  0
    0.4100   25.6880  -27.4360 C   0  0  0  0  0  0  0  0  0  0  0  0
   -3.0550   24.4560  -30.1340 N   0  0  0  0  0  0  0  0  0  0  0  0
   -3.5320   23.2000  -30.6420 C   0  0  0  0  0  0  0  0  0  0  0  0
   -2.6990   22.0740  -30.5760 C   0  0  0  0  0  0  0  0  0  0  0  0
   -3.1270   20.8430  -31.0810 C   0  0  0  0  0  0  0  0  0  0  0  0
   -4.3930   20.7200  -31.6810 C   0  0  0  0  0  0  0  0  0  0  0  0
   -4.8480   19.4120  -32.2200 C   0  0  0  0  0  0  0  0  0  0  0  0
   -5.7630   18.6230  -31.5020 C   0  0  0  0  0  0  0  0  0  0  0  0
   -6.1920   17.3930  -32.0090 C   0  0  0  0  0  0  0  0  0  0  0  0
   -5.7140   16.9240  -33.2440 C   0  0  0  0  0  0  0  0  0  0  0  0
   -6.1670   15.6220  -33.7810 C   0  0  0  0  0  0  0  0  0  0  0  0
   -5.5600   14.4430  -33.4730 N   0  0  0  0  0  0  0  0  0  0  0  0
   -6.2850   13.5510  -34.1630 C   0  0  0  0  0  0  0  0  0  0  0  0
   -6.1130   12.1720  -34.2230 C   0  0  0  0  0  0  0  0  0  0  0  0
   -7.0180   11.4530  -35.0290 C   0  0  0  0  0  0  0  0  0  0  0  0
   -8.0120   12.1090  -35.7100 N   0  0  0  0  0  0  0  0  0  0  0  0
   -8.1640   13.4650  -35.6370 C   0  0  0  0  0  0  0  0  0  0  0  0
   -7.2730   14.1790  -34.8440 C   0  0  0  0  0  0  0  0  0  0  0  0
   -7.2290   15.5000  -34.6240 N   0  0  0  0  0  0  0  0  0  0  0  0
   -4.7990   17.7120  -33.9620 C   0  0  0  0  0  0  0  0  0  0  0  0
   -4.3710   18.9430  -33.4570 C   0  0  0  0  0  0  0  0  0  0  0  0
   -5.2160   21.8560  -31.7690 C   0  0  0  0  0  0  0  0  0  0  0  0
   -4.7880   23.0850  -31.2610 C   0  0  0  0  0  0  0  0  0  0  0  0
   -2.4633   27.0908  -26.2183 H   0  0  0  0  0  0  0  0  0  0  0  0
   -0.9567   27.5092  -24.2740 H   0  0  0  0  0  0  0  0  0  0  0  0
    2.2971   25.5785  -26.3754 H   0  0  0  0  0  0  0  0  0  0  0  0
    0.7922   25.1559  -28.3196 H   0  0  0  0  0  0  0  0  0  0  0  0
   -3.2210   25.3040  -30.7230 H   0  0  0  0  0  0  0  0  0  0  0  0
   -1.7003   22.1602  -30.1230 H   0  0  0  0  0  0  0  0  0  0  0  0
   -2.4691   19.9644  -31.0086 H   0  0  0  0  0  0  0  0  0  0  0  0
   -6.1448   18.9764  -30.5328 H   0  0  0  0  0  0  0  0  0  0  0  0
   -6.9097   16.7873  -31.4363 H   0  0  0  0  0  0  0  0  0  0  0  0
   -5.3089   11.6669  -33.6678 H   0  0  0  0  0  0  0  0  0  0  0  0
   -6.9270   10.3600  -35.1126 H   0  0  0  0  0  0  0  0  0  0  0  0
   -8.9668   13.9760  -36.1888 H   0  0  0  0  0  0  0  0  0  0  0  0
   -4.4160   17.3571  -34.9302 H   0  0  0  0  0  0  0  0  0  0  0  0
   -3.6555   19.5496  -34.0316 H   0  0  0  0  0  0  0  0  0  0  0  0
   -6.2059   21.7766  -32.2421 H   0  0  0  0  0  0  0  0  0  0  0  0
   -5.4383   23.9681  -31.3462 H   0  0  0  0  0  0  0  0  0  0  0  0
  1  2  2  0
  2  3  1  0
  3  4  1  0
  4  5  2  0
  5  6  1  0
  6  7  2  0
  7  8  1  0
  7  9  1  0
  9 10  2  0
  2 11  1  0
 11 12  1  0
 12 13  2  0
 13 14  1  0
 14 15  2  0
 15 16  1  0
 16 17  2  0
 17 18  1  0
 18 19  2  0
 19 20  1  0
 20 21  2  0
 21 22  1  0
 22 23  2  0
 23 24  1  0
 24 25  2  0
 25 26  1  0
 26 27  2  0
 27 28  1  0
 19 29  1  0
 29 30  2  0
 15 31  1  0
 31 32  2  0
 10  4  1  0
 32 12  1  0
 30 16  1  0
 28 20  1  0
 27 22  1  0
  5 33  1  0
  6 34  1  0
  9 35  1  0
 10 36  1  0
 11 37  1  0
 13 38  1  0
 14 39  1  0
 17 40  1  0
 18 41  1  0
 23 42  1  0
 24 43  1  0
 26 44  1  0
 29 45  1  0
 30 46  1  0
 31 47  1  0
 32 48  1  0
M  CHG  2   3  -1  28  -1
M  END
>  <UniqueID>  (6) 
6

>  <SMILES>  (6) 
O=C([N-]c1ccc(Cl)cc1)Nc1ccc(-c2ccc(-c3nc4ccncc4[n-]3)cc2)cc1

>  <Energy>  (6) 
105.88603913082962

>  <Genealogy>  (6) 
O=C([N-]c1ccc(Cl)cc1)Nc1ccc(-c2ccc(-c3nc4ccncc4[n-]3)cc2)cc1 (protonated)
O=C([N-]c1ccc(Cl)cc1)Nc1ccc(-c2ccc(-c3nc4ccncc4[n-]3)cc2)cc1 (3D coordinates assigned)
O=C([N-]c1ccc(Cl)cc1)Nc1ccc(-c2ccc(-c3nc4ccncc4[n-]3)cc2)cc1 (optimized conformer: 105.88603913082962 kcal/mol)

>  <smiles>  (6) 
O=C(Nc1ccc(Cl)cc1)Nc1ccc(-c2ccc(-c3nc4ccncc4[nH]3)cc2)cc1

>  <score_type>  (6) 
oracle

>  <origin>  (6) 
adgpu

>  <m_score__min__energy>  (6) 
-9.4199999999999999

>  <m_primary>  (6) 
energy

$$$$
6:0
     RDKit          3D

 60 65  0  0  0  0  0  0  0  0999 V2000
   -4.2120   25.6750  -31.6810 H   0  0  0  0  0  0  0  0  0  0  0  0
   -3.9940   25.5380  -30.7230 O   0  0  0  0  0  0  0  0  0  0  0  0
   -4.3550   24.2170  -30.4300 C   0  0  0  0  0  0  0  0  0  0  0  0
   -5.0053   23.8286  -31.2277 H   0  0  0  0  0  0  0  0  0  0  0  0
   -4.8943   24.1872  -29.4717 H   0  0  0  0  0  0  0  0  0  0  0  0
   -3.1170   23.3710  -30.3360 C   0  0  0  0  0  0  0  0  0  0  0  0
   -2.0570   23.7480  -29.4990 C   0  0  0  0  0  0  0  0  0  0  0  0
   -2.1345   24.6647  -28.8960 H   0  0  0  0  0  0  0  0  0  0  0  0
   -0.9030   22.9640  -29.4280 C   0  0  0  0  0  0  0  0  0  0  0  0
   -0.0778   23.2624  -28.7646 H   0  0  0  0  0  0  0  0  0  0  0  0
   -0.7930   21.8030  -30.1960 C   0  0  0  0  0  0  0  0  0  0  0  0
    0.1169   21.1884  -30.1301 H   0  0  0  0  0  0  0  0  0  0  0  0
   -1.8390   21.4140  -31.0540 C   0  0  0  0  0  0  0  0  0  0  0  0
   -1.7280   20.1780  -31.8750 C   0  0  0  0  0  0  0  0  0  0  0  0
   -2.8610   19.3900  -32.1400 C   0  0  0  0  0  0  0  0  0  0  0  0
   -3.8321   19.6637  -31.7018 H   0  0  0  0  0  0  0  0  0  0  0  0
   -2.7640   18.2940  -32.9330 N   0  0  0  0  0  0  0  0  0  0  0  0
   -1.5840   17.8950  -33.4840 C   0  0  0  0  0  0  0  0  0  0  0  0
   -1.5570   16.7520  -34.3570 N   0  0  0  0  0  0  0  0  0  0  0  0
   -2.8120   16.2740  -34.9270 C   0  0  0  0  0  0  0  0  0  0  0  0
   -2.6177   15.7860  -35.8935 H   0  0  0  0  0  0  0  0  0  0  0  0
   -3.4981   17.1191  -35.0855 H   0  0  0  0  0  0  0  0  0  0  0  0
   -3.4310   15.2790  -33.9690 C   0  0  0  0  0  0  0  0  0  0  0  0
   -4.8400   15.1240  -33.8090 C   0  0  0  0  0  0  0  0  0  0  0  0
   -5.8390   16.1450  -34.2240 C   0  0  0  0  0  0  0  0  0  0  0  0
   -7.0230   15.7930  -34.4850 O   0  0  0  0  0  0  0  0  0  0  0  0
   -5.4980   17.5360  -34.2500 N   0  0  0  0  0  0  0  0  0  0  0  0
   -6.1790   18.4960  -33.7020 C   0  0  0  0  0  0  0  0  0  0  0  0
   -5.7210   20.1210  -33.8120 S   0  0  0  0  0  0  0  0  0  0  0  0
   -6.9630   20.6100  -32.7910 C   0  0  0  0  0  0  0  0  0  0  0  0
   -7.2580   21.8920  -32.3400 C   0  0  0  0  0  0  0  0  0  0  0  0
   -6.6647   22.7578  -32.6692 H   0  0  0  0  0  0  0  0  0  0  0  0
   -8.3340   22.0500  -31.4530 C   0  0  0  0  0  0  0  0  0  0  0  0
   -8.5926   23.0520  -31.0799 H   0  0  0  0  0  0  0  0  0  0  0  0
   -9.0860   20.9310  -31.0370 C   0  0  0  0  0  0  0  0  0  0  0  0
   -9.9262   21.0656  -30.3399 H   0  0  0  0  0  0  0  0  0  0  0  0
   -8.7680   19.6450  -31.5080 C   0  0  0  0  0  0  0  0  0  0  0  0
   -9.3519   18.7701  -31.1860 H   0  0  0  0  0  0  0  0  0  0  0  0
   -7.6960   19.4990  -32.3930 C   0  0  0  0  0  0  0  0  0  0  0  0
   -7.2650   18.3160  -32.9040 N   0  0  0  0  0  0  0  0  0  0  0  0
   -7.6950   17.3940  -32.6670 H   0  0  0  0  0  0  0  0  0  0  0  0
   -5.3200   14.0000  -33.1120 C   0  0  0  0  0  0  0  0  0  0  0  0
   -6.4048   13.8397  -33.0253 H   0  0  0  0  0  0  0  0  0  0  0  0
   -4.4440   13.0870  -32.5300 C   0  0  0  0  0  0  0  0  0  0  0  0
   -4.8402   12.2006  -32.0131 H   0  0  0  0  0  0  0  0  0  0  0  0
   -3.0690   13.2920  -32.6000 C   0  0  0  0  0  0  0  0  0  0  0  0
   -2.3866   12.5942  -32.0925 H   0  0  0  0  0  0  0  0  0  0  0  0
   -2.5480   14.3790  -33.3110 C   0  0  0  0  0  0  0  0  0  0  0  0
   -1.0520   14.6420  -33.2140 C   0  0  0  0  0  0  0  0  0  0  0  0
   -0.5223   13.7030  -33.4323 H   0  0  0  0  0  0  0  0  0  0  0  0
   -0.8629   15.0130  -32.1958 H   0  0  0  0  0  0  0  0  0  0  0  0
   -0.5350   15.7220  -34.1790 C   0  0  0  0  0  0  0  0  0  0  0  0
   -0.3045   15.2633  -35.1519 H   0  0  0  0  0  0  0  0  0  0  0  0
    0.3746   16.1788  -33.7619 H   0  0  0  0  0  0  0  0  0  0  0  0
   -0.4210   18.6280  -33.2220 C   0  0  0  0  0  0  0  0  0  0  0  0
    0.5440   18.3064  -33.6407 H   0  0  0  0  0  0  0  0  0  0  0  0
   -0.4970   19.7730  -32.4230 C   0  0  0  0  0  0  0  0  0  0  0  0
    0.4109   20.3605  -32.2217 H   0  0  0  0  0  0  0  0  0  0  0  0
   -2.9980   22.2140  -31.1210 C   0  0  0  0  0  0  0  0  0  0  0  0
   -3.8180   21.9280  -31.7961 H   0  0  0  0  0  0  0  0  0  0  0  0
  1  2  1  0
  2  3  1  0
  3  4  1  0
  3  5  1  0
  3  6  1  0
  6  7  2  0
  7  8  1  0
  7  9  1  0
  9 10  1  0
  9 11  2  0
 11 12  1  0
 11 13  1  0
 13 14  1  0
 14 15  2  0
 15 16  1  0
 15 17  1  0
 17 18  2  0
 18 19  1  0
 19 20  1  0
 20 21  1  0
 20 22  1  0
 20 23  1  0
 23 24  2  0
 24 25  1  0
 25 26  2  0
 25 27  1  0
 27 28  2  0
 28 29  1  0
 29 30  1  0
 30 31  2  0
 31 32  1  0
 31 33  1  0
 33 34  1  0
 33 35  2  0
 35 36  1  0
 35 37  1  0
 37 38  1  0
 37 39  2  0
 39 40  1  0
 40 41  1  0
 24 42  1  0
 42 43  1  0
 42 44  2  0
 44 45  1  0
 44 46  1  0
 46 47  1  0
 46 48  2  0
 48 49  1  0
 49 50  1  0
 49 51  1  0
 49 52  1  0
 52 53  1  0
 52 54  1  0
 18 55  1  0
 55 56  1  0
 55 57  2  0
 57 58  1  0
 13 59  2  0
 59 60  1  0
 59  6  1  0
 57 14  1  0
 52 19  1  0
 48 23  1  0
 40 28  1  0
 39 30  1  0
M  END
>  <UniqueID>  (7) 
7

>  <SMILES>  (7) 
O=C(/N=c1\[nH]c2ccccc2s1)c1cccc2c1CN(c1ccc(-c3cccc(CO)c3)cn1)CC2

>  <Energy>  (7) 
128.50725893754907

>  <Genealogy>  (7) 
O=C(/N=c1\[nH]c2ccccc2s1)c1cccc2c1CN(c1ccc(-c3cccc(CO)c3)cn1)CC2 (cis-trans isomerization)
O=C(/N=c1\[nH]c2ccccc2s1)c1cccc2c1CN(c1ccc(-c3cccc(CO)c3)cn1)CC2 (3D coordinates assigned)
O=C(/N=c1\[nH]c2ccccc2s1)c1cccc2c1CN(c1ccc(-c3cccc(CO)c3)cn1)CC2 (nonaromatic ring conformer: 128.50725893754907 kcal/mol)

>  <smiles>  (7) 
O=C(N=c1[nH]c2ccccc2s1)c1cccc2c1CN(c1ccc(-c3cccc(CO)c3)cn1)CC2

>  <score_type>  (7) 
oracle

>  <origin>  (7) 
adgpu

>  <m_score__min__energy>  (7) 
-10.859999999999999

>  <m_primary>  (7) 
energy

$$$$
7:0
     RDKit          3D

 33 34  0  0  0  0  0  0  0  0999 V2000
   -0.8670   26.8270  -27.8810 C   0  0  0  0  0  0  0  0  0  0  0  0
   -1.4340   26.0590  -28.9380 O   0  0  0  0  0  0  0  0  0  0  0  0
   -1.4740   24.6560  -28.9710 C   0  0  0  0  0  0  0  0  0  0  0  0
   -0.5260   23.8670  -28.2870 C   0  0  0  0  0  0  0  0  0  0  0  0
   -0.5980   22.4730  -28.3430 C   0  0  0  0  0  0  0  0  0  0  0  0
   -1.6100   21.8540  -29.0780 C   0  0  0  0  0  0  0  0  0  0  0  0
   -2.5540   22.6250  -29.7590 C   0  0  0  0  0  0  0  0  0  0  0  0
   -2.4920   24.0300  -29.7100 C   0  0  0  0  0  0  0  0  0  0  0  0
   -3.4450   24.8520  -30.3990 N   0  0  0  0  0  0  0  0  0  0  0  0
   -5.1420   24.5190  -30.5420 S   0  0  0  0  0  0  0  0  0  0  0  0
   -5.8200   25.6860  -31.2050 O   0  0  0  0  0  0  0  0  0  0  0  0
   -5.7110   24.2990  -29.1690 O   0  0  0  0  0  0  0  0  0  0  0  0
   -5.3950   23.0670  -31.5250 C   0  0  0  0  0  0  0  0  0  0  0  0
   -4.3170   22.5490  -32.2610 C   0  0  0  0  0  0  0  0  0  0  0  0
   -4.4760   21.4030  -33.0430 C   0  0  0  0  0  0  0  0  0  0  0  0
   -5.7110   20.7600  -33.1000 C   0  0  0  0  0  0  0  0  0  0  0  0
   -6.7950   21.2640  -32.3790 C   0  0  0  0  0  0  0  0  0  0  0  0
   -6.6560   22.4230  -31.5940 C   0  0  0  0  0  0  0  0  0  0  0  0
   -7.8480   22.9250  -30.8220 C   0  0  0  0  0  0  0  0  0  0  0  0
   -1.1782   26.4055  -26.9138 H   0  0  0  0  0  0  0  0  0  0  0  0
    0.2301   26.8009  -27.9564 H   0  0  0  0  0  0  0  0  0  0  0  0
   -1.2150   27.8678  -27.9564 H   0  0  0  0  0  0  0  0  0  0  0  0
    0.2734   24.3513  -27.7070 H   0  0  0  0  0  0  0  0  0  0  0  0
    0.1438   21.8626  -27.8072 H   0  0  0  0  0  0  0  0  0  0  0  0
   -1.6641   20.7562  -29.1209 H   0  0  0  0  0  0  0  0  0  0  0  0
   -3.3499   22.1319  -30.3365 H   0  0  0  0  0  0  0  0  0  0  0  0
   -3.3387   23.0504  -32.2212 H   0  0  0  0  0  0  0  0  0  0  0  0
   -3.6243   21.0069  -33.6154 H   0  0  0  0  0  0  0  0  0  0  0  0
   -5.8318   19.8549  -33.7134 H   0  0  0  0  0  0  0  0  0  0  0  0
   -7.7665   20.7502  -32.4252 H   0  0  0  0  0  0  0  0  0  0  0  0
   -7.6483   22.8409  -29.7436 H   0  0  0  0  0  0  0  0  0  0  0  0
   -8.0345   23.9781  -31.0793 H   0  0  0  0  0  0  0  0  0  0  0  0
   -8.7317   22.3226  -31.0793 H   0  0  0  0  0  0  0  0  0  0  0  0
  1  2  1  0
  2  3  1  0
  3  4  2  0
  4  5  1  0
  5  6  2  0
  6  7  1  0
  7  8  2  0
  8  9  1  0
  9 10  1  0
 10 11  2  0
 10 12  2  0
 10 13  1  0
 13 14  2  0
 14 15  1  0
 15 16  2  0
 16 17  1  0
 17 18  2  0
 18 19  1  0
  8  3  1  0
 18 13  1  0
  1 20  1  0
  1 21  1  0
  1 22  1  0
  4 23  1  0
  5 24  1  0
  6 25  1  0
  7 26  1  0
 14 27  1  0
 15 28  1  0
 16 29  1  0
 17 30  1  0
 19 31  1  0
 19 32  1  0
 19 33  1  0
M  CHG  1   9  -1
M  END
>  <UniqueID>  (8) 
8

>  <SMILES>  (8) 
COc1ccccc1[N-]S(=O)(=O)c1ccccc1C

>  <Energy>  (8) 
38.65446332990936

>  <Genealogy>  (8) 
COc1ccccc1[N-]S(=O)(=O)c1ccccc1C (protonated)
COc1ccccc1[N-]S(=O)(=O)c1ccccc1C (3D coordinates assigned)
COc1ccccc1[N-]S(=O)(=O)c1ccccc1C (optimized conformer: 38.65446332990936 kcal/mol)

>  <smiles>  (8) 
COc1ccccc1NS(=O)(=O)c1ccccc1C

>  <score_type>  (8) 
oracle

>  <origin>  (8) 
adgpu

>  <m_score__min__energy>  (8) 
-8.8399999999999999

>  <m_primary>  (8) 
energy

$$$$
8:0
     RDKit          3D

 30 32  0  0  0  0  0  0  0  0999 V2000
   -5.5930   20.6940  -32.1280 C   0  0  0  0  0  0  0  0  0  0  0  0
   -6.7740   21.3880  -32.6830 N   0  0  0  0  0  0  0  0  0  0  0  0
   -7.9240   20.4710  -32.7240 C   0  0  0  0  0  0  0  0  0  0  0  0
   -8.7320   20.6620  -31.4410 C   0  0  0  0  0  0  0  0  0  0  0  0
   -8.1760   21.9160  -30.7880 C   0  0  0  0  0  0  0  0  0  0  0  0
   -7.2450   22.5060  -31.8400 C   0  0  1  0  0  0  0  0  0  0  0  0
   -6.1420   23.3700  -31.2770 C   0  0  0  0  0  0  0  0  0  0  0  0
   -5.5990   23.2210  -30.0510 N   0  0  0  0  0  0  0  0  0  0  0  0
   -4.6600   24.1910  -30.0570 C   0  0  0  0  0  0  0  0  0  0  0  0
   -3.7560   24.4690  -28.9290 C   0  0  0  0  0  0  0  0  0  0  0  0
   -4.1660   24.2790  -27.6000 C   0  0  0  0  0  0  0  0  0  0  0  0
   -3.2990   24.5480  -26.5890 N   0  0  0  0  0  0  0  0  0  0  0  0
   -2.0420   24.9980  -26.8380 C   0  0  0  0  0  0  0  0  0  0  0  0
   -1.6310   25.1880  -28.1580 C   0  0  0  0  0  0  0  0  0  0  0  0
   -2.4950   24.9200  -29.1720 N   0  0  0  0  0  0  0  0  0  0  0  0
   -4.6350   24.8780  -31.2160 N   0  0  0  0  0  0  0  0  0  0  0  0
   -5.5630   24.3380  -31.9440 O   0  0  0  0  0  0  0  0  0  0  0  0
   -5.6358   20.7191  -31.0291 H   0  0  0  0  0  0  0  0  0  0  0  0
   -5.5872   19.6488  -32.4709 H   0  0  0  0  0  0  0  0  0  0  0  0
   -4.6771   21.1975  -32.4709 H   0  0  0  0  0  0  0  0  0  0  0  0
   -8.5522   20.7001  -33.5974 H   0  0  0  0  0  0  0  0  0  0  0  0
   -7.5776   19.4300  -32.8039 H   0  0  0  0  0  0  0  0  0  0  0  0
   -9.7988   20.7924  -31.6754 H   0  0  0  0  0  0  0  0  0  0  0  0
   -8.6519   19.7887  -30.7769 H   0  0  0  0  0  0  0  0  0  0  0  0
   -8.9852   22.6203  -30.5445 H   0  0  0  0  0  0  0  0  0  0  0  0
   -7.6590   21.7031  -29.8407 H   0  0  0  0  0  0  0  0  0  0  0  0
   -7.7974   23.2267  -32.4609 H   0  0  0  0  0  0  0  0  0  0  0  0
   -5.1804   23.9155  -27.3790 H   0  0  0  0  0  0  0  0  0  0  0  0
   -1.3540   25.2108  -26.0065 H   0  0  0  0  0  0  0  0  0  0  0  0
   -0.6160   25.5517  -28.3759 H   0  0  0  0  0  0  0  0  0  0  0  0
  1  2  1  0
  2  3  1  0
  3  4  1  0
  4  5  1  0
  5  6  1  0
  6  7  1  0
  7  8  2  0
  8  9  1  0
  9 10  1  0
 10 11  2  0
 11 12  1  0
 12 13  2  0
 13 14  1  0
 14 15  2  0
  9 16  2  0
 16 17  1  0
  6  2  1  0
 17  7  1  0
 15 10  1  0
  1 18  1  0
  1 19  1  0
  1 20  1  0
  3 21  1  0
  3 22  1  0
  4 23  1  0
  4 24  1  0
  5 25  1  0
  5 26  1  0
  6 27  1  6
 11 28  1  0
 13 29  1  0
 14 30  1  0
M  END
>  <UniqueID>  (9) 
9

>  <SMILES>  (9) 
CN1CCC[C@H]1c1nc(-c2cnccn2)no1

>  <Energy>  (9) 
72.46661216598183

>  <Genealogy>  (9) 
CN1CCC[C@H]1c1nc(-c2cnccn2)no1 (chirality)
CN1CCC[C@H]1c1nc(-c2cnccn2)no1 (3D coordinates assigned)
CN1CCC[C@H]1c1nc(-c2cnccn2)no1 (nonaromatic ring conformer: 72.46661216598183 kcal/mol)

>  <smiles>  (9) 
CN1CCCC1c1nc(-c2cnccn2)no1

>  <score_type>  (9) 
oracle

>  <origin>  (9) 
adgpu

>  <m_score__min__energy>  (9) 
-6.7599999999999998

>  <m_primary>  (9) 
energy

$$$$
9:0
     RDKit          3D

 50 53  0  0  0  0  0  0  0  0999 V2000
   -6.3620   25.3260  -29.6850 C   0  0  0  0  0  0  0  0  0  0  0  0
   -4.7670   24.5450  -29.8330 S   0  0  0  0  0  0  0  0  0  0  0  0
   -3.9620   25.3150  -30.8420 O   0  0  0  0  0  0  0  0  0  0  0  0
   -4.9550   23.1400  -30.3380 O   0  0  0  0  0  0  0  0  0  0  0  0
   -3.9140   24.5500  -28.3010 N   0  0  2  0  0  0  0  0  0  0  0  0
   -2.4580   24.6980  -28.4960 C   0  0  0  0  0  0  0  0  0  0  0  0
   -1.7830   23.4140  -28.9050 C   0  0  0  0  0  0  0  0  0  0  0  0
   -2.2930   22.2070  -28.6110 C   0  0  0  0  0  0  0  0  0  0  0  0
   -1.5410   20.9740  -28.9490 C   0  0  0  0  0  0  0  0  0  0  0  0
   -0.6410   20.3390  -28.1150 C   0  0  0  0  0  0  0  0  0  0  0  0
   -0.2480   19.2160  -28.8170 C   0  0  0  0  0  0  0  0  0  0  0  0
   -0.8680   19.1880  -30.0130 N   0  0  0  0  0  0  0  0  0  0  0  0
   -1.6380   20.2600  -30.0950 N   0  0  0  0  0  0  0  0  0  0  0  0
   -2.4170   20.5620  -31.2600 C   0  0  0  0  0  0  0  0  0  0  0  0
   -3.7640   20.3940  -31.2130 N   0  0  0  0  0  0  0  0  0  0  0  0
   -4.5580   20.6740  -32.2830 C   0  0  0  0  0  0  0  0  0  0  0  0
   -5.9890   20.4950  -32.1970 N   0  0  0  0  0  0  0  0  0  0  0  0
   -6.8700   21.6700  -32.1430 C   0  0  0  0  0  0  0  0  0  0  0  0
   -8.2140   21.3050  -31.5080 C   0  0  0  0  0  0  0  0  0  0  0  0
   -8.7700   20.1640  -32.1300 O   0  0  0  0  0  0  0  0  0  0  0  0
   -7.9530   19.0410  -31.8690 C   0  0  0  0  0  0  0  0  0  0  0  0
   -6.5840   19.1960  -32.5360 C   0  0  0  0  0  0  0  0  0  0  0  0
   -3.9890   21.1230  -33.4340 N   0  0  0  0  0  0  0  0  0  0  0  0
   -2.6450   21.2910  -33.5370 C   0  0  0  0  0  0  0  0  0  0  0  0
   -1.8200   21.0070  -32.4510 C   0  0  0  0  0  0  0  0  0  0  0  0
   -0.0750   21.1430  -32.6340 Cl  0  0  0  0  0  0  0  0  0  0  0  0
   -3.6940   22.0690  -28.0720 C   0  0  0  0  0  0  0  0  0  0  0  0
   -4.2210   23.3750  -27.4620 C   0  0  0  0  0  0  0  0  0  0  0  0
   -6.6128   25.4488  -28.6210 H   0  0  0  0  0  0  0  0  0  0  0  0
   -6.3339   26.3123  -30.1713 H   0  0  0  0  0  0  0  0  0  0  0  0
   -7.1238   24.6990  -30.1713 H   0  0  0  0  0  0  0  0  0  0  0  0
   -4.2490   25.3980  -27.7840 H   0  0  0  0  0  0  0  0  0  0  0  0
   -2.2844   25.4500  -29.2798 H   0  0  0  0  0  0  0  0  0  0  0  0
   -2.0269   25.0023  -27.5308 H   0  0  0  0  0  0  0  0  0  0  0  0
   -0.8377   23.4675  -29.4650 H   0  0  0  0  0  0  0  0  0  0  0  0
   -0.3110   20.6568  -27.1150 H   0  0  0  0  0  0  0  0  0  0  0  0
    0.4633   18.4593  -28.4545 H   0  0  0  0  0  0  0  0  0  0  0  0
   -6.3881   22.4562  -31.5433 H   0  0  0  0  0  0  0  0  0  0  0  0
   -7.0470   22.0287  -33.1677 H   0  0  0  0  0  0  0  0  0  0  0  0
   -8.0625   21.0950  -30.4389 H   0  0  0  0  0  0  0  0  0  0  0  0
   -8.9063   22.1499  -31.6381 H   0  0  0  0  0  0  0  0  0  0  0  0
   -7.8151   18.9405  -30.7823 H   0  0  0  0  0  0  0  0  0  0  0  0
   -8.4443   18.1457  -32.2778 H   0  0  0  0  0  0  0  0  0  0  0  0
   -5.9190   18.3918  -32.1881 H   0  0  0  0  0  0  0  0  0  0  0  0
   -6.7120   19.1380  -33.6270 H   0  0  0  0  0  0  0  0  0  0  0  0
   -2.2074   21.6519  -34.4795 H   0  0  0  0  0  0  0  0  0  0  0  0
   -4.3604   21.7698  -28.8945 H   0  0  0  0  0  0  0  0  0  0  0  0
   -3.6717   21.3126  -27.2736 H   0  0  0  0  0  0  0  0  0  0  0  0
   -5.3123   23.2971  -27.3484 H   0  0  0  0  0  0  0  0  0  0  0  0
   -3.7246   23.5166  -26.4906 H   0  0  0  0  0  0  0  0  0  0  0  0
  1  2  1  0
  2  3  2  0
  2  4  2  0
  2  5  1  0
  5  6  1  0
  6  7  1  0
  7  8  2  0
  8  9  1  0
  9 10  2  0
 10 11  1  0
 11 12  2  0
 12 13  1  0
 13 14  1  0
 14 15  2  0
 15 16  1  0
 16 17  1  0
 17 18  1  0
 18 19  1  0
 19 20  1  0
 20 21  1  0
 21 22  1  0
 16 23  2  0
 23 24  1  0
 24 25  2  0
 25 26  1  0
  8 27  1  0
 27 28  1  0
 28  5  1  0
 13  9  1  0
 25 14  1  0
 22 17  1  0
  1 29  1  0
  1 30  1  0
  1 31  1  0
  5 32  1  1
  6 33  1  0
  6 34  1  0
  7 35  1  0
 10 36  1  0
 11 37  1  0
 18 38  1  0
 18 39  1  0
 19 40  1  0
 19 41  1  0
 21 42  1  0
 21 43  1  0
 22 44  1  0
 22 45  1  0
 24 46  1  0
 27 47  1  0
 27 48  1  0
 28 49  1  0
 28 50  1  0
M  CHG  1   5   1
M  END
>  <UniqueID>  (10) 
10

>  <SMILES>  (10) 
CS(=O)(=O)[N@@H+]1CC=C(c2ccnn2-c2nc(N3CCOCC3)ncc2Cl)CC1

>  <Energy>  (10) 
93.06188548163395

>  <Genealogy>  (10) 
CS(=O)(=O)[NH+]1CC=C(c2ccnn2-c2nc(N3CCOCC3)ncc2Cl)CC1 (protonated)
CS(=O)(=O)[N@@H+]1CC=C(c2ccnn2-c2nc(N3CCOCC3)ncc2Cl)CC1 (chirality)
CS(=O)(=O)[N@@H+]1CC=C(c2ccnn2-c2nc(N3CCOCC3)ncc2Cl)CC1 (3D coordinates assigned)
CS(=O)(=O)[N@@H+]1CC=C(c2ccnn2-c2nc(N3CCOCC3)ncc2Cl)CC1 (nonaromatic ring conformer: 93.06188548163395 kcal/mol)

>  <smiles>  (10) 
CS(=O)(=O)N1CC=C(c2ccnn2-c2nc(N3CCOCC3)ncc2Cl)CC1

>  <score_type>  (10) 
oracle

>  <origin>  (10) 
adgpu

>  <m_score__min__energy>  (10) 
-8.8900000000000006

>  <m_primary>  (10) 
energy

$$$$
10:0
     RDKit          3D

 56 60  0  0  0  0  0  0  0  0999 V2000
   -2.0910   13.7170  -31.9810 C   0  0  0  0  0  0  0  0  0  0  0  0
   -3.4450   13.6850  -32.6040 C   0  0  0  0  0  0  0  0  0  0  0  0
   -4.1360   12.5580  -32.8610 N   0  0  0  0  0  0  0  0  0  0  0  0
   -5.2800   12.9420  -33.4050 N   0  0  0  0  0  0  0  0  0  0  0  0
   -5.2390   14.2880  -33.4580 C   0  0  0  0  0  0  0  0  0  0  0  0
   -6.3400   15.1480  -34.0190 C   0  0  0  0  0  0  0  0  0  0  0  0
   -6.1820   16.5900  -33.7110 N   0  0  0  0  0  0  0  0  0  0  0  0
   -7.2310   17.0810  -32.7780 C   0  0  0  0  0  0  0  0  0  0  0  0
   -7.3810   18.6180  -32.7910 C   0  0  0  0  0  0  0  0  0  0  0  0
   -6.1580   19.2590  -33.2860 N   0  0  0  0  0  0  0  0  0  0  0  0
   -5.4690   20.2430  -32.4920 C   0  0  0  0  0  0  0  0  0  0  0  0
   -6.1380   21.4060  -32.0830 C   0  0  0  0  0  0  0  0  0  0  0  0
   -5.4860   22.3600  -31.2980 C   0  0  0  0  0  0  0  0  0  0  0  0
   -4.1520   22.1660  -30.8980 C   0  0  0  0  0  0  0  0  0  0  0  0
   -3.4680   23.1500  -30.0970 N   0  0  0  0  0  0  0  0  0  0  0  0
   -2.4950   22.8630  -29.0470 C   0  0  0  0  0  0  0  0  0  0  0  0
   -1.9230   24.2500  -28.6290 C   0  0  2  0  0  0  0  0  0  0  0  0
   -2.0080   24.5080  -27.1200 C   0  0  0  0  0  0  0  0  0  0  0  0
   -1.4280   25.8050  -26.7860 N   0  0  0  0  0  0  0  0  0  0  0  0
   -1.4720   26.4240  -25.5940 C   0  0  0  0  0  0  0  0  0  0  0  0
   -0.8380   27.6350  -25.7620 C   0  0  0  0  0  0  0  0  0  0  0  0
   -0.4340   27.7190  -27.0470 N   0  0  0  0  0  0  0  0  0  0  0  0
   -0.8070   26.5970  -27.6450 N   0  0  0  0  0  0  0  0  0  0  0  0
   -2.7100   25.2060  -29.3320 O   0  0  0  0  0  0  0  0  0  0  0  0
   -3.5770   24.5590  -30.1800 C   0  0  0  0  0  0  0  0  0  0  0  0
   -4.4190   25.1640  -30.8960 O   0  0  0  0  0  0  0  0  0  0  0  0
   -3.4800   21.0060  -31.3210 C   0  0  0  0  0  0  0  0  0  0  0  0
   -4.1320   20.0490  -32.1060 C   0  0  0  0  0  0  0  0  0  0  0  0
   -3.4470   18.9500  -32.5100 F   0  0  0  0  0  0  0  0  0  0  0  0
   -5.6040   18.8320  -34.5780 C   0  0  0  0  0  0  0  0  0  0  0  0
   -6.0920   17.4200  -34.9340 C   0  0  0  0  0  0  0  0  0  0  0  0
   -4.1150   14.7510  -32.9670 O   0  0  0  0  0  0  0  0  0  0  0  0
   -2.1913   13.7146  -30.8856 H   0  0  0  0  0  0  0  0  0  0  0  0
   -1.5201   12.8321  -32.2989 H   0  0  0  0  0  0  0  0  0  0  0  0
   -1.5626   14.6279  -32.2989 H   0  0  0  0  0  0  0  0  0  0  0  0
   -6.3544   15.0254  -35.1120 H   0  0  0  0  0  0  0  0  0  0  0  0
   -7.2782   14.8185  -33.5488 H   0  0  0  0  0  0  0  0  0  0  0  0
   -5.2620   16.6730  -33.2110 H   0  0  0  0  0  0  0  0  0  0  0  0
   -8.1934   16.6327  -33.0659 H   0  0  0  0  0  0  0  0  0  0  0  0
   -6.9289   16.7892  -31.7614 H   0  0  0  0  0  0  0  0  0  0  0  0
   -8.2216   18.8923  -33.4453 H   0  0  0  0  0  0  0  0  0  0  0  0
   -7.5666   18.9618  -31.7627 H   0  0  0  0  0  0  0  0  0  0  0  0
   -7.1839   21.5681  -32.3826 H   0  0  0  0  0  0  0  0  0  0  0  0
   -6.0207   23.2707  -30.9902 H   0  0  0  0  0  0  0  0  0  0  0  0
   -2.9838   22.3738  -28.1916 H   0  0  0  0  0  0  0  0  0  0  0  0
   -1.7052   22.1806  -29.3942 H   0  0  0  0  0  0  0  0  0  0  0  0
   -0.8518   24.3059  -28.8729 H   0  0  0  0  0  0  0  0  0  0  0  0
   -3.0633   24.4935  -26.8099 H   0  0  0  0  0  0  0  0  0  0  0  0
   -1.4454   23.7225  -26.5942 H   0  0  0  0  0  0  0  0  0  0  0  0
   -1.9246   26.0397  -24.6680 H   0  0  0  0  0  0  0  0  0  0  0  0
   -0.6874   28.3994  -24.9854 H   0  0  0  0  0  0  0  0  0  0  0  0
   -2.4304   20.8491  -31.0317 H   0  0  0  0  0  0  0  0  0  0  0  0
   -5.9276   19.5345  -35.3602 H   0  0  0  0  0  0  0  0  0  0  0  0
   -4.5063   18.8211  -34.5075 H   0  0  0  0  0  0  0  0  0  0  0  0
   -7.0847   17.4856  -35.4032 H   0  0  0  0  0  0  0  0  0  0  0  0
   -5.3784   16.9574  -35.6317 H   0  0  0  0  0  0  0  0  0  0  0  0
  1  2  1  0
  2  3  2  0
  3  4  1  0
  4  5  2  0
  5  6  1  0
  6  7  1  0
  7  8  1  0
  8  9  1  0
  9 10  1  0
 10 11  1  0
 11 12  2  0
 12 13  1  0
 13 14  2  0
 14 15  1  0
 15 16  1  0
 16 17  1  0
 17 18  1  0
 18 19  1  0
 19 20  1  0
 20 21  2  0
 21 22  1  0
 22 23  2  0
 17 24  1  0
 24 25  1  0
 25 26  2  0
 14 27  1  0
 27 28  2  0
 28 29  1  0
 10 30  1  0
 30 31  1  0
  5 32  1  0
 32  2  1  0
 31  7  1  0
 28 11  1  0
 25 15  1  0
 23 19  1  0
  1 33  1  0
  1 34  1  0
  1 35  1  0
  6 36  1  0
  6 37  1  0
  7 38  1  0
  8 39  1  0
  8 40  1  0
  9 41  1  0
  9 42  1  0
 12 43  1  0
 13 44  1  0
 16 45  1  0
 16 46  1  0
 17 47  1  6
 18 48  1  0
 18 49  1  0
 20 50  1  0
 21 51  1  0
 27 52  1  0
 30 53  1  0
 30 54  1  0
 31 55  1  0
 31 56  1  0
M  CHG  1   7   1
M  END
>  <UniqueID>  (11) 
11

>  <SMILES>  (11) 
Cc1nnc(C[NH+]2CCN(c3ccc(N4C[C@H](Cn5ccnn5)OC4=O)cc3F)CC2)o1

>  <Energy>  (11) 
157.00066232765985

>  <Genealogy>  (11) 
Cc1nnc(C[NH+]2CCN(c3ccc(N4CC(Cn5ccnn5)OC4=O)cc3F)CC2)o1 (protonated)
Cc1nnc(C[NH+]2CCN(c3ccc(N4C[C@H](Cn5ccnn5)OC4=O)cc3F)CC2)o1 (chirality)
Cc1nnc(C[NH+]2CCN(c3ccc(N4C[C@H](Cn5ccnn5)OC4=O)cc3F)CC2)o1 (3D coordinates assigned)
Cc1nnc(C[NH+]2CCN(c3ccc(N4C[C@H](Cn5ccnn5)OC4=O)cc3F)CC2)o1 (nonaromatic ring conformer: 157.00066232765985 kcal/mol)

>  <smiles>  (11) 
Cc1nnc(CN2CCN(c3ccc(N4CC(Cn5ccnn5)OC4=O)cc3F)CC2)o1

>  <score_type>  (11) 
oracle

>  <origin>  (11) 
adgpu

>  <m_score__min__energy>  (11) 
-7.9699999999999998

>  <m_primary>  (11) 
energy

$$$$
11:0
     RDKit          3D

 29 30  0  0  0  0  0  0  0  0999 V2000
   -6.0440   14.6250  -34.1810 C   0  0  0  0  0  0  0  0  0  0  0  0
   -6.9880   15.6880  -34.1020 O   0  0  0  0  0  0  0  0  0  0  0  0
   -6.6690   17.0080  -33.7530 C   0  0  0  0  0  0  0  0  0  0  0  0
   -7.2700   17.6670  -32.6640 C   0  0  0  0  0  0  0  0  0  0  0  0
   -6.9140   18.9840  -32.3530 C   0  0  0  0  0  0  0  0  0  0  0  0
   -5.9460   19.6600  -33.1160 C   0  0  0  0  0  0  0  0  0  0  0  0
   -5.5810   21.0210  -32.8310 N   0  0  0  0  0  0  0  0  0  0  0  0
   -4.9960   21.4470  -31.5890 C   0  0  0  0  0  0  0  0  0  0  0  0
   -4.3990   20.6090  -30.8590 O   0  0  0  0  0  0  0  0  0  0  0  0
   -5.0400   22.8720  -31.1780 C   0  0  0  0  0  0  0  0  0  0  0  0
   -6.2580   23.5650  -31.0760 C   0  0  0  0  0  0  0  0  0  0  0  0
   -6.2730   24.9030  -30.6790 C   0  0  0  0  0  0  0  0  0  0  0  0
   -5.0700   25.5420  -30.3810 C   0  0  0  0  0  0  0  0  0  0  0  0
   -3.8980   24.8630  -30.4740 N   0  0  0  0  0  0  0  0  0  0  0  0
   -3.8550   23.5590  -30.8570 C   0  0  0  0  0  0  0  0  0  0  0  0
   -5.3660   19.0060  -34.2130 C   0  0  0  0  0  0  0  0  0  0  0  0
   -5.7200   17.6890  -34.5230 C   0  0  0  0  0  0  0  0  0  0  0  0
   -5.7627   14.3082  -33.1658 H   0  0  0  0  0  0  0  0  0  0  0  0
   -6.4916   13.7764  -34.7191 H   0  0  0  0  0  0  0  0  0  0  0  0
   -5.1484   14.9692  -34.7191 H   0  0  0  0  0  0  0  0  0  0  0  0
   -8.0225   17.1446  -32.0551 H   0  0  0  0  0  0  0  0  0  0  0  0
   -7.3951   19.4940  -31.5054 H   0  0  0  0  0  0  0  0  0  0  0  0
   -5.6400   21.7150  -33.6100 H   0  0  0  0  0  0  0  0  0  0  0  0
   -7.2024   23.0516  -31.3097 H   0  0  0  0  0  0  0  0  0  0  0  0
   -7.2251   25.4484  -30.6019 H   0  0  0  0  0  0  0  0  0  0  0  0
   -5.0706   26.5972  -30.0703 H   0  0  0  0  0  0  0  0  0  0  0  0
   -2.8879   23.0382  -30.9162 H   0  0  0  0  0  0  0  0  0  0  0  0
   -4.6270   19.5331  -34.8343 H   0  0  0  0  0  0  0  0  0  0  0  0
   -5.2484   17.1845  -35.3792 H   0  0  0  0  0  0  0  0  0  0  0  0
  1  2  1  0
  2  3  1  0
  3  4  2  0
  4  5  1  0
  5  6  2  0
  6  7  1  0
  7  8  1  0
  8  9  2  0
  8 10  1  0
 10 11  2  0
 11 12  1  0
 12 13  2  0
 13 14  1  0
 14 15  2  0
  6 16  1  0
 16 17  2  0
 17  3  1  0
 15 10  1  0
  1 18  1  0
  1 19  1  0
  1 20  1  0
  4 21  1  0
  5 22  1  0
  7 23  1  0
 11 24  1  0
 12 25  1  0
 13 26  1  0
 15 27  1  0
 16 28  1  0
 17 29  1  0
M  END
>  <UniqueID>  (12) 
12

>  <SMILES>  (12) 
COc1ccc(NC(=O)c2cccnc2)cc1

>  <Energy>  (12) 
35.32536620291151

>  <Genealogy>  (12) 
COc1ccc(NC(=O)c2cccnc2)cc1 (3D coordinates assigned)
COc1ccc(NC(=O)c2cccnc2)cc1 (optimized conformer: 35.32536620291151 kcal/mol)

>  <smiles>  (12) 
COc1ccc(NC(=O)c2cccnc2)cc1

>  <score_type>  (12) 
oracle

>  <origin>  (12) 
adgpu

>  <m_score__min__energy>  (12) 
-6.2400000000000002

>  <m_primary>  (12) 
energy

$$$$
12:0
     RDKit          3D

 43 44  0  0  0  0  0  0  0  0999 V2000
   -9.1060   19.6740  -32.1690 C   0  0  0  0  0  0  0  0  0  0  0  0
   -8.4910   20.8000  -31.3450 C   0  0  0  0  0  0  0  0  0  0  0  0
   -7.6630   21.6300  -32.1610 O   0  0  0  0  0  0  0  0  0  0  0  0
   -6.6550   22.4940  -31.6980 C   0  0  0  0  0  0  0  0  0  0  0  0
   -6.9250   23.8070  -31.2680 C   0  0  0  0  0  0  0  0  0  0  0  0
   -5.8940   24.6270  -30.8120 C   0  0  0  0  0  0  0  0  0  0  0  0
   -4.5760   24.1470  -30.7600 C   0  0  0  0  0  0  0  0  0  0  0  0
   -3.4920   24.9710  -30.3090 N   0  0  0  0  0  0  0  0  0  0  0  0
   -2.4970   24.6030  -29.3430 C   0  0  0  0  0  0  0  0  0  0  0  0
   -1.6720   25.4770  -28.9660 O   0  0  0  0  0  0  0  0  0  0  0  0
   -2.3800   23.2210  -28.8210 C   0  0  0  0  0  0  0  0  0  0  0  0
   -3.3710   22.6800  -27.9830 C   0  0  0  0  0  0  0  0  0  0  0  0
   -3.2530   21.3760  -27.4950 C   0  0  0  0  0  0  0  0  0  0  0  0
   -2.1430   20.5840  -27.8470 C   0  0  0  0  0  0  0  0  0  0  0  0
   -1.9780   19.2710  -27.3810 O   0  0  0  0  0  0  0  0  0  0  0  0
   -2.7400   18.6900  -26.3280 C   0  0  0  0  0  0  0  0  0  0  0  0
   -1.1670   21.1170  -28.6930 C   0  0  0  0  0  0  0  0  0  0  0  0
   -1.2830   22.4210  -29.1820 C   0  0  0  0  0  0  0  0  0  0  0  0
   -4.3010   22.8510  -31.2070 C   0  0  0  0  0  0  0  0  0  0  0  0
   -5.3370   22.0120  -31.6650 C   0  0  0  0  0  0  0  0  0  0  0  0
   -5.1020   20.6970  -32.1040 O   0  0  0  0  0  0  0  0  0  0  0  0
   -5.0010   20.2780  -33.4660 C   0  0  0  0  0  0  0  0  0  0  0  0
   -6.1050   19.2850  -33.8100 C   0  0  0  0  0  0  0  0  0  0  0  0
   -9.5225   18.9114  -31.4945 H   0  0  0  0  0  0  0  0  0  0  0  0
   -9.9078   20.0797  -32.8035 H   0  0  0  0  0  0  0  0  0  0  0  0
   -8.3313   19.2186  -32.8035 H   0  0  0  0  0  0  0  0  0  0  0  0
   -9.2963   21.4101  -30.9098 H   0  0  0  0  0  0  0  0  0  0  0  0
   -7.8733   20.3585  -30.5491 H   0  0  0  0  0  0  0  0  0  0  0  0
   -7.9565   24.1885  -31.2920 H   0  0  0  0  0  0  0  0  0  0  0  0
   -6.1145   25.6558  -30.4912 H   0  0  0  0  0  0  0  0  0  0  0  0
   -4.2459   23.2880  -27.7095 H   0  0  0  0  0  0  0  0  0  0  0  0
   -4.0303   20.9664  -26.8332 H   0  0  0  0  0  0  0  0  0  0  0  0
   -2.3263   19.0054  -25.3588 H   0  0  0  0  0  0  0  0  0  0  0  0
   -3.7858   19.0221  -26.4058 H   0  0  0  0  0  0  0  0  0  0  0  0
   -2.6967   17.5936  -26.4058 H   0  0  0  0  0  0  0  0  0  0  0  0
   -0.2988   20.5041  -28.9769 H   0  0  0  0  0  0  0  0  0  0  0  0
   -0.5105   22.8235  -29.8538 H   0  0  0  0  0  0  0  0  0  0  0  0
   -3.2647   22.4821  -31.2012 H   0  0  0  0  0  0  0  0  0  0  0  0
   -5.0896   21.1571  -34.1213 H   0  0  0  0  0  0  0  0  0  0  0  0
   -4.0274   19.7876  -33.6128 H   0  0  0  0  0  0  0  0  0  0  0  0
   -6.5446   18.8896  -32.8824 H   0  0  0  0  0  0  0  0  0  0  0  0
   -6.8842   19.7922  -34.3979 H   0  0  0  0  0  0  0  0  0  0  0  0
   -5.6829   18.4566  -34.3979 H   0  0  0  0  0  0  0  0  0  0  0  0
  1  2  1  0
  2  3  1  0
  3  4  1  0
  4  5  2  0
  5  6  1  0
  6  7  2  0
  7  8  1  0
  8  9  1  0
  9 10  2  0
  9 11  1  0
 11 12  2  0
 12 13  1  0
 13 14  2  0
 14 15  1  0
 15 16  1  0
 14 17  1  0
 17 18  2  0
  7 19  1  0
 19 20  2  0
 20 21  1  0
 21 22  1  0
 22 23  1  0
 20  4  1  0
 18 11  1  0
  1 24  1  0
  1 25  1  0
  1 26  1  0
  2 27  1  0
  2 28  1  0
  5 29  1  0
  6 30  1  0
 12 31  1  0
 13 32  1  0
 16 33  1  0
 16 34  1  0
 16 35  1  0
 17 36  1  0
 18 37  1  0
 19 38  1  0
 22 39  1  0
 22 40  1  0
 23 41  1  0
 23 42  1  0
 23 43  1  0
M  CHG  1   8  -1
M  END
>  <UniqueID>  (13) 
13

>  <SMILES>  (13) 
CCOc1ccc([N-]C(=O)c2ccc(OC)cc2)cc1OCC

>  <Energy>  (13) 
45.22342400102967

>  <Genealogy>  (13) 
CCOc1ccc([N-]C(=O)c2ccc(OC)cc2)cc1OCC (protonated)
CCOc1ccc([N-]C(=O)c2ccc(OC)cc2)cc1OCC (3D coordinates assigned)
CCOc1ccc([N-]C(=O)c2ccc(OC)cc2)cc1OCC (optimized conformer: 45.22342400102967 kcal/mol)

>  <smiles>  (13) 
CCOc1ccc(NC(=O)c2ccc(OC)cc2)cc1OCC

>  <score_type>  (13) 
oracle

>  <origin>  (13) 
adgpu

>  <m_score__min__energy>  (13) 
-8.4700000000000006

>  <m_primary>  (13) 
energy

$$$$
13:0
     RDKit          3D

 48 51  0  0  0  0  0  0  0  0999 V2000
   -8.2480   22.1150  -31.3950 C   0  0  0  0  0  0  0  0  0  0  0  0
   -7.0560   22.4900  -32.0760 O   0  0  0  0  0  0  0  0  0  0  0  0
   -5.8230   22.7240  -31.4490 C   0  0  0  0  0  0  0  0  0  0  0  0
   -5.4300   24.0480  -31.2320 C   0  0  0  0  0  0  0  0  0  0  0  0
   -4.2120   24.3440  -30.6120 C   0  0  0  0  0  0  0  0  0  0  0  0
   -3.8690   25.6790  -30.4200 O   0  0  0  0  0  0  0  0  0  0  0  0
   -3.3600   23.2980  -30.1950 C   0  0  0  0  0  0  0  0  0  0  0  0
   -2.1170   23.5170  -29.5690 C   0  0  0  0  0  0  0  0  0  0  0  0
   -1.6890   24.6820  -29.3480 O   0  0  0  0  0  0  0  0  0  0  0  0
   -1.3360   22.4250  -29.1870 C   0  0  0  0  0  0  0  0  0  0  0  0
   -1.8040   21.1230  -29.4290 C   0  0  0  0  0  0  0  0  0  0  0  0
   -1.0160   19.9240  -29.0450 C   0  0  0  0  0  0  0  0  0  0  0  0
   -0.1630   19.3290  -29.9850 C   0  0  0  0  0  0  0  0  0  0  0  0
    0.5860   18.1960  -29.6570 C   0  0  0  0  0  0  0  0  0  0  0  0
    0.5050   17.6120  -28.3710 C   0  0  0  0  0  0  0  0  0  0  0  0
    1.2890   16.4260  -28.0230 N   0  0  0  0  0  0  0  0  0  0  0  0
    1.2800   15.2690  -28.9450 C   0  0  0  0  0  0  0  0  0  0  0  0
    2.1990   14.1080  -28.5390 C   0  0  0  0  0  0  0  0  0  0  0  0
    2.2740   13.9130  -27.0870 N   0  0  0  0  0  0  0  0  0  0  0  0
    0.9980   13.4710  -26.4990 C   0  0  0  0  0  0  0  0  0  0  0  0
    2.8090   15.1230  -26.4540 C   0  0  0  0  0  0  0  0  0  0  0  0
    1.9370   16.3640  -26.6940 C   0  0  0  0  0  0  0  0  0  0  0  0
   -0.3780   18.2080  -27.4410 C   0  0  0  0  0  0  0  0  0  0  0  0
   -1.1240   19.3430  -27.7740 C   0  0  0  0  0  0  0  0  0  0  0  0
   -2.9780   20.9510  -30.0310 O   0  0  0  0  0  0  0  0  0  0  0  0
   -3.7570   21.9580  -30.4140 C   0  0  0  0  0  0  0  0  0  0  0  0
   -4.9790   21.6790  -31.0360 C   0  0  0  0  0  0  0  0  0  0  0  0
   -8.0817   22.1673  -30.3089 H   0  0  0  0  0  0  0  0  0  0  0  0
   -9.0614   22.8007  -31.6749 H   0  0  0  0  0  0  0  0  0  0  0  0
   -8.5223   21.0872  -31.6749 H   0  0  0  0  0  0  0  0  0  0  0  0
   -6.0882   24.8686  -31.5535 H   0  0  0  0  0  0  0  0  0  0  0  0
   -0.3621   22.5828  -28.7005 H   0  0  0  0  0  0  0  0  0  0  0  0
   -0.0823   19.7597  -30.9939 H   0  0  0  0  0  0  0  0  0  0  0  0
    1.2503   17.7503  -30.4120 H   0  0  0  0  0  0  0  0  0  0  0  0
    0.2505   14.8856  -29.0012 H   0  0  0  0  0  0  0  0  0  0  0  0
    1.6612   15.6404  -29.9077 H   0  0  0  0  0  0  0  0  0  0  0  0
    1.8178   13.1834  -28.9970 H   0  0  0  0  0  0  0  0  0  0  0  0
    3.2122   14.3543  -28.8892 H   0  0  0  0  0  0  0  0  0  0  0  0
    1.0716   13.4965  -25.4018 H   0  0  0  0  0  0  0  0  0  0  0  0
    0.1907   14.1419  -26.8280 H   0  0  0  0  0  0  0  0  0  0  0  0
    0.7787   12.4445  -26.8280 H   0  0  0  0  0  0  0  0  0  0  0  0
    2.8798   14.9491  -25.3701 H   0  0  0  0  0  0  0  0  0  0  0  0
    3.7928   15.3212  -26.9043 H   0  0  0  0  0  0  0  0  0  0  0  0
    1.1473   16.3793  -25.9284 H   0  0  0  0  0  0  0  0  0  0  0  0
    2.6135   17.2297  -26.6414 H   0  0  0  0  0  0  0  0  0  0  0  0
   -0.4800   17.7706  -26.4369 H   0  0  0  0  0  0  0  0  0  0  0  0
   -1.8032   19.7848  -27.0301 H   0  0  0  0  0  0  0  0  0  0  0  0
   -5.2811   20.6345  -31.2028 H   0  0  0  0  0  0  0  0  0  0  0  0
  1  2  1  0
  2  3  1  0
  3  4  2  0
  4  5  1  0
  5  6  1  0
  5  7  2  0
  7  8  1  0
  8  9  2  0
  8 10  1  0
 10 11  2  0
 11 12  1  0
 12 13  2  0
 13 14  1  0
 14 15  2  0
 15 16  1  0
 16 17  1  0
 17 18  1  0
 18 19  1  0
 19 20  1  0
 19 21  1  0
 21 22  1  0
 15 23  1  0
 23 24  2  0
 11 25  1  0
 25 26  1  0
 26 27  2  0
 27  3  1  0
 26  7  1  0
 24 12  1  0
 22 16  1  0
  1 28  1  0
  1 29  1  0
  1 30  1  0
  4 31  1  0
 10 32  1  0
 13 33  1  0
 14 34  1  0
 17 35  1  0
 17 36  1  0
 18 37  1  0
 18 38  1  0
 20 39  1  0
 20 40  1  0
 20 41  1  0
 21 42  1  0
 21 43  1  0
 22 44  1  0
 22 45  1  0
 23 46  1  0
 24 47  1  0
 27 48  1  0
M  CHG  1   6  -1
M  END
>  <UniqueID>  (14) 
14

>  <SMILES>  (14) 
COc1cc([O-])c2c(=O)cc(-c3ccc(N4CCN(C)CC4)cc3)oc2c1

>  <Energy>  (14) 
72.09800463812874

>  <Genealogy>  (14) 
COc1cc([O-])c2c(=O)cc(-c3ccc(N4CCN(C)CC4)cc3)oc2c1 (protonated)
COc1cc([O-])c2c(=O)cc(-c3ccc(N4CCN(C)CC4)cc3)oc2c1 (3D coordinates assigned)
COc1cc([O-])c2c(=O)cc(-c3ccc(N4CCN(C)CC4)cc3)oc2c1 (nonaromatic ring conformer: 72.09800463812874 kcal/mol)

>  <smiles>  (14) 
COc1cc(O)c2c(=O)cc(-c3ccc(N4CCN(C)CC4)cc3)oc2c1

>  <score_type>  (14) 
oracle

>  <origin>  (14) 
adgpu

>  <m_score__min__energy>  (14) 
-9.7799999999999994

>  <m_primary>  (14) 
energy

$$$$
14:0
     RDKit          3D

 28 30  0  0  0  0  0  0  0  0999 V2000
   -6.4910   19.3350  -33.4560 Cl  0  0  0  0  0  0  0  0  0  0  0  0
   -6.9070   20.7620  -32.5230 C   0  0  0  0  0  0  0  0  0  0  0  0
   -8.2490   21.0870  -32.3080 C   0  0  0  0  0  0  0  0  0  0  0  0
   -8.5820   22.2220  -31.5670 C   0  0  0  0  0  0  0  0  0  0  0  0
   -7.5750   23.0340  -31.0370 C   0  0  0  0  0  0  0  0  0  0  0  0
   -6.2190   22.7200  -31.2440 C   0  0  0  0  0  0  0  0  0  0  0  0
   -5.1630   23.5930  -30.6760 C   0  0  0  0  0  0  0  0  0  0  0  0
   -4.3990   23.3550  -29.5470 C   0  0  0  0  0  0  0  0  0  0  0  0
   -3.5740   24.4630  -29.4530 C   0  0  0  0  0  0  0  0  0  0  0  0
   -2.5460   24.7280  -28.4170 C   0  0  0  0  0  0  0  0  0  0  0  0
   -1.1960   24.9450  -28.7600 C   0  0  0  0  0  0  0  0  0  0  0  0
   -0.2440   25.1930  -27.7670 C   0  0  0  0  0  0  0  0  0  0  0  0
   -0.6220   25.2290  -26.4240 C   0  0  0  0  0  0  0  0  0  0  0  0
   -1.9560   25.0150  -26.0700 C   0  0  0  0  0  0  0  0  0  0  0  0
   -2.9130   24.7670  -27.0590 C   0  0  0  0  0  0  0  0  0  0  0  0
   -3.8420   25.3030  -30.4720 N   0  0  0  0  0  0  0  0  0  0  0  0
   -4.8040   24.7770  -31.2130 N   0  0  0  0  0  0  0  0  0  0  0  0
   -5.8960   21.5730  -31.9950 C   0  0  0  0  0  0  0  0  0  0  0  0
   -9.0429   20.4484  -32.7227 H   0  0  0  0  0  0  0  0  0  0  0  0
   -9.6386   22.4780  -31.3998 H   0  0  0  0  0  0  0  0  0  0  0  0
   -7.8450   23.9262  -30.4530 H   0  0  0  0  0  0  0  0  0  0  0  0
   -4.4382   22.4837  -28.8767 H   0  0  0  0  0  0  0  0  0  0  0  0
   -0.8897   24.9190  -29.8162 H   0  0  0  0  0  0  0  0  0  0  0  0
    0.8070   25.3604  -28.0451 H   0  0  0  0  0  0  0  0  0  0  0  0
    0.1297   25.4257  -25.6454 H   0  0  0  0  0  0  0  0  0  0  0  0
   -2.2543   25.0416  -25.0116 H   0  0  0  0  0  0  0  0  0  0  0  0
   -3.9621   24.6009  -26.7729 H   0  0  0  0  0  0  0  0  0  0  0  0
   -4.8413   21.3127  -32.1678 H   0  0  0  0  0  0  0  0  0  0  0  0
  1  2  1  0
  2  3  2  0
  3  4  1  0
  4  5  2  0
  5  6  1  0
  6  7  1  0
  7  8  1  0
  8  9  2  0
  9 10  1  0
 10 11  2  0
 11 12  1  0
 12 13  2  0
 13 14  1  0
 14 15  2  0
  9 16  1  0
 16 17  1  0
  6 18  2  0
 18  2  1  0
 17  7  2  0
 15 10  1  0
  3 19  1  0
  4 20  1  0
  5 21  1  0
  8 22  1  0
 11 23  1  0
 12 24  1  0
 13 25  1  0
 14 26  1  0
 15 27  1  0
 18 28  1  0
M  CHG  1  16  -1
M  END
>  <UniqueID>  (15) 
15

>  <SMILES>  (15) 
Clc1cccc(-c2cc(-c3ccccc3)[n-]n2)c1

>  <Energy>  (15) 
63.093966621188926

>  <Genealogy>  (15) 
Clc1cccc(-c2cc(-c3ccccc3)[n-]n2)c1 (protonated)
Clc1cccc(-c2cc(-c3ccccc3)[n-]n2)c1 (3D coordinates assigned)
Clc1cccc(-c2cc(-c3ccccc3)[n-]n2)c1 (optimized conformer: 63.093966621188926 kcal/mol)

>  <smiles>  (15) 
Clc1cccc(-c2cc(-c3ccccc3)[nH]n2)c1

>  <score_type>  (15) 
oracle

>  <origin>  (15) 
adgpu

>  <m_score__min__energy>  (15) 
-9.9900000000000002

>  <m_primary>  (15) 
energy

$$$$
15:0
     RDKit          3D

 35 37  0  0  0  0  0  0  0  0999 V2000
   -0.1100   22.6290  -23.8100 C   0  0  0  0  0  0  0  0  0  0  0  0
    0.1590   22.3610  -25.1830 O   0  0  0  0  0  0  0  0  0  0  0  0
   -0.2520   23.1810  -26.2440 C   0  0  0  0  0  0  0  0  0  0  0  0
    0.6570   23.7380  -27.1620 C   0  0  0  0  0  0  0  0  0  0  0  0
    0.1980   24.5560  -28.1980 C   0  0  0  0  0  0  0  0  0  0  0  0
   -1.1680   24.8240  -28.3330 C   0  0  0  0  0  0  0  0  0  0  0  0
   -1.5910   25.6790  -29.3460 O   0  0  0  0  0  0  0  0  0  0  0  0
   -2.0910   24.2510  -27.4380 C   0  0  0  0  0  0  0  0  0  0  0  0
   -3.5420   24.5090  -27.5560 C   0  0  0  0  0  0  0  0  0  0  0  0
   -4.1600   24.9870  -26.5660 O   0  0  0  0  0  0  0  0  0  0  0  0
   -4.2940   24.1860  -28.7820 C   0  0  0  0  0  0  0  0  0  0  0  0
   -4.2470   24.8310  -30.0040 C   0  0  0  0  0  0  0  0  0  0  0  0
   -5.0610   24.1960  -30.8690 N   0  0  0  0  0  0  0  0  0  0  0  0
   -5.6130   23.1680  -30.2390 N   0  0  0  0  0  0  0  0  0  0  0  0
   -6.5490   22.2630  -30.8620 C   0  0  0  0  0  0  0  0  0  0  0  0
   -7.9220   22.3000  -30.5500 C   0  0  0  0  0  0  0  0  0  0  0  0
   -8.8120   21.4140  -31.1620 C   0  0  0  0  0  0  0  0  0  0  0  0
   -8.3510   20.4770  -32.0910 C   0  0  0  0  0  0  0  0  0  0  0  0
   -9.5040   19.3800  -32.8400 Cl  0  0  0  0  0  0  0  0  0  0  0  0
   -6.9840   20.4260  -32.4080 C   0  0  0  0  0  0  0  0  0  0  0  0
   -6.3620   19.2610  -33.5700 Cl  0  0  0  0  0  0  0  0  0  0  0  0
   -6.0920   21.3130  -31.7940 C   0  0  0  0  0  0  0  0  0  0  0  0
   -5.1640   23.1300  -28.9660 C   0  0  0  0  0  0  0  0  0  0  0  0
   -1.6190   23.4470  -26.3870 C   0  0  0  0  0  0  0  0  0  0  0  0
    0.5289   21.9925  -23.1802 H   0  0  0  0  0  0  0  0  0  0  0  0
    0.1006   23.6870  -23.5948 H   0  0  0  0  0  0  0  0  0  0  0  0
   -1.1672   22.4145  -23.5948 H   0  0  0  0  0  0  0  0  0  0  0  0
    1.7325   23.5290  -27.0640 H   0  0  0  0  0  0  0  0  0  0  0  0
    0.9143   24.9910  -28.9105 H   0  0  0  0  0  0  0  0  0  0  0  0
   -3.6417   25.7204  -30.2331 H   0  0  0  0  0  0  0  0  0  0  0  0
   -8.2963   23.0319  -29.8191 H   0  0  0  0  0  0  0  0  0  0  0  0
   -9.8823   21.4541  -30.9112 H   0  0  0  0  0  0  0  0  0  0  0  0
   -5.0215   21.2668  -32.0429 H   0  0  0  0  0  0  0  0  0  0  0  0
   -5.4435   22.3854  -28.2061 H   0  0  0  0  0  0  0  0  0  0  0  0
   -2.3330   23.0208  -25.6669 H   0  0  0  0  0  0  0  0  0  0  0  0
  1  2  1  0
  2  3  1  0
  3  4  2  0
  4  5  1  0
  5  6  2  0
  6  7  1  0
  6  8  1  0
  8  9  1  0
  9 10  2  0
  9 11  1  0
 11 12  1  0
 12 13  2  0
 13 14  1  0
 14 15  1  0
 15 16  2  0
 16 17  1  0
 17 18  2  0
 18 19  1  0
 18 20  1  0
 20 21  1  0
 20 22  2  0
 14 23  1  0
  8 24  2  0
 24  3  1  0
 23 11  2  0
 22 15  1  0
  1 25  1  0
  1 26  1  0
  1 27  1  0
  4 28  1  0
  5 29  1  0
 12 30  1  0
 16 31  1  0
 17 32  1  0
 22 33  1  0
 23 34  1  0
 24 35  1  0
M  CHG  1   7  -1
M  END
>  <UniqueID>  (16) 
16

>  <SMILES>  (16) 
COc1ccc([O-])c(C(=O)c2cnn(-c3ccc(Cl)c(Cl)c3)c2)c1

>  <Energy>  (16) 
76.66361282239279

>  <Genealogy>  (16) 
COc1ccc([O-])c(C(=O)c2cnn(-c3ccc(Cl)c(Cl)c3)c2)c1 (protonated)
COc1ccc([O-])c(C(=O)c2cnn(-c3ccc(Cl)c(Cl)c3)c2)c1 (3D coordinates assigned)
COc1ccc([O-])c(C(=O)c2cnn(-c3ccc(Cl)c(Cl)c3)c2)c1 (optimized conformer: 76.66361282239279 kcal/mol)

>  <smiles>  (16) 
COc1ccc(O)c(C(=O)c2cnn(-c3ccc(Cl)c(Cl)c3)c2)c1

>  <score_type>  (16) 
oracle

>  <origin>  (16) 
adgpu

>  <m_score__min__energy>  (16) 
-12.1

>  <m_primary>  (16) 
energy

$$$$
16:0
     RDKit          3D

 30 31  0  0  0  0  0  0  0  0999 V2000
   -1.4990   25.2470  -28.4210 C   0  0  0  0  0  0  0  0  0  0  0  0
   -2.5440   24.2890  -28.9790 C   0  0  0  0  0  0  0  0  0  0  0  0
   -3.5000   25.0130  -29.8120 N   0  0  0  0  0  0  0  0  0  0  0  0
   -4.6980   24.3770  -30.2820 C   0  0  0  0  0  0  0  0  0  0  0  0
   -5.9690   24.8550  -29.8980 C   0  0  0  0  0  0  0  0  0  0  0  0
   -6.1060   25.9320  -28.9630 N   0  0  0  0  0  0  0  0  0  0  0  0
   -7.1200   24.2380  -30.4040 C   0  0  0  0  0  0  0  0  0  0  0  0
   -7.0250   23.1450  -31.2660 C   0  0  0  0  0  0  0  0  0  0  0  0
   -5.7650   22.6410  -31.6390 C   0  0  0  0  0  0  0  0  0  0  0  0
   -5.6150   21.5320  -32.5040 C   0  0  0  0  0  0  0  0  0  0  0  0
   -6.8000   20.8040  -33.0850 C   0  0  0  0  0  0  0  0  0  0  0  0
   -4.3210   21.1040  -32.8290 C   0  0  0  0  0  0  0  0  0  0  0  0
   -3.2220   21.7760  -32.2950 C   0  0  0  0  0  0  0  0  0  0  0  0
   -2.0550   21.4000  -32.5820 O   0  0  0  0  0  0  0  0  0  0  0  0
   -3.3950   22.8140  -31.4850 O   0  0  0  0  0  0  0  0  0  0  0  0
   -4.5980   23.2670  -31.1390 C   0  0  0  0  0  0  0  0  0  0  0  0
   -1.5275   25.2209  -27.3217 H   0  0  0  0  0  0  0  0  0  0  0  0
   -0.5006   24.9439  -28.7692 H   0  0  0  0  0  0  0  0  0  0  0  0
   -1.7144   26.2679  -28.7692 H   0  0  0  0  0  0  0  0  0  0  0  0
   -2.0440   23.5193  -29.5853 H   0  0  0  0  0  0  0  0  0  0  0  0
   -3.0817   23.8185  -28.1426 H   0  0  0  0  0  0  0  0  0  0  0  0
   -3.4980   26.0560  -29.7390 H   0  0  0  0  0  0  0  0  0  0  0  0
   -6.8670   26.6390  -29.0750 H   0  0  0  0  0  0  0  0  0  0  0  0
   -5.4960   26.0080  -28.1200 H   0  0  0  0  0  0  0  0  0  0  0  0
   -8.1112   24.6199  -30.1183 H   0  0  0  0  0  0  0  0  0  0  0  0
   -7.9397   22.6747  -31.6561 H   0  0  0  0  0  0  0  0  0  0  0  0
   -7.4289   20.4176  -32.2694 H   0  0  0  0  0  0  0  0  0  0  0  0
   -7.3881   21.4968  -33.7048 H   0  0  0  0  0  0  0  0  0  0  0  0
   -6.4478   19.9663  -33.7048 H   0  0  0  0  0  0  0  0  0  0  0  0
   -4.1733   20.2449  -33.4999 H   0  0  0  0  0  0  0  0  0  0  0  0
  1  2  1  0
  2  3  1  0
  3  4  1  0
  4  5  2  0
  5  6  1  0
  5  7  1  0
  7  8  2  0
  8  9  1  0
  9 10  1  0
 10 11  1  0
 10 12  2  0
 12 13  1  0
 13 14  2  0
 13 15  1  0
 15 16  1  0
 16  4  1  0
 16  9  2  0
  1 17  1  0
  1 18  1  0
  1 19  1  0
  2 20  1  0
  2 21  1  0
  3 22  1  0
  6 23  1  0
  6 24  1  0
  7 25  1  0
  8 26  1  0
 11 27  1  0
 11 28  1  0
 11 29  1  0
 12 30  1  0
M  END
>  <UniqueID>  (17) 
17

>  <SMILES>  (17) 
CCNc1c(N)ccc2c(C)cc(=O)oc12

>  <Energy>  (17) 
36.882452994714086

>  <Genealogy>  (17) 
CCNc1c(N)ccc2c(C)cc(=O)oc12 (3D coordinates assigned)
CCNc1c(N)ccc2c(C)cc(=O)oc12 (optimized conformer: 36.882452994714086 kcal/mol)

>  <smiles>  (17) 
CCNc1c(N)ccc2c(C)cc(=O)oc12

>  <score_type>  (17) 
oracle

>  <origin>  (17) 
adgpu

>  <m_score__min__energy>  (17) 
-6.8300000000000001

>  <m_primary>  (17) 
energy

$$$$
17:0
     RDKit          3D

 46 48  0  0  0  0  0  0  0  0999 V2000
   -5.0083   21.2708  -32.5357 H   0  0  0  0  0  0  0  0  0  0  0  0
   -4.9330   21.9440  -31.6690 C   0  0  0  0  0  0  0  0  0  0  0  0
   -6.0860   22.2880  -30.9470 C   0  0  0  0  0  0  0  0  0  0  0  0
   -7.3660   21.7560  -31.3300 N   0  0  0  0  0  0  0  0  0  0  0  0
   -8.5250   22.4420  -31.5560 C   0  0  0  0  0  0  0  0  0  0  0  0
   -8.6372   23.5295  -31.4348 H   0  0  0  0  0  0  0  0  0  0  0  0
   -9.5570   21.5770  -31.9640 C   0  0  0  0  0  0  0  0  0  0  0  0
  -10.5974   21.8282  -32.2179 H   0  0  0  0  0  0  0  0  0  0  0  0
   -8.9530   20.3440  -31.9690 C   0  0  0  0  0  0  0  0  0  0  0  0
   -9.1540   19.0350  -32.3270 C   0  0  0  0  0  0  0  0  0  0  0  0
  -10.0975   18.5935  -32.6803 H   0  0  0  0  0  0  0  0  0  0  0  0
   -7.9690   18.3830  -32.1640 N   0  0  0  0  0  0  0  0  0  0  0  0
   -7.7890   17.3790  -32.3840 H   0  0  0  0  0  0  0  0  0  0  0  0
   -7.0460   19.2780  -31.7180 C   0  0  0  0  0  0  0  0  0  0  0  0
   -5.9862   19.0768  -31.5027 H   0  0  0  0  0  0  0  0  0  0  0  0
   -7.6950   20.4810  -31.5890 C   0  0  0  0  0  0  0  0  0  0  0  0
   -5.9850   23.1390  -29.8880 N   0  0  0  0  0  0  0  0  0  0  0  0
   -6.8430   23.4350  -29.3720 H   0  0  0  0  0  0  0  0  0  0  0  0
   -4.7920   23.6550  -29.4960 C   0  0  0  0  0  0  0  0  0  0  0  0
   -4.7517   24.3432  -28.6388 H   0  0  0  0  0  0  0  0  0  0  0  0
   -3.6120   23.3200  -30.1720 C   0  0  0  0  0  0  0  0  0  0  0  0
   -2.3270   23.9060  -29.7260 C   0  0  0  0  0  0  0  0  0  0  0  0
   -1.3000   23.1770  -29.6920 O   0  0  0  0  0  0  0  0  0  0  0  0
   -2.2110   25.2830  -29.3430 N   0  0  0  0  0  0  0  0  0  0  0  0
   -1.2370   25.8280  -28.3980 C   0  0  0  0  0  0  0  0  0  0  0  0
   -1.4340   26.9012  -28.2588 H   0  0  0  0  0  0  0  0  0  0  0  0
   -0.2284   25.6684  -28.8069 H   0  0  0  0  0  0  0  0  0  0  0  0
   -1.3270   25.1230  -27.0400 C   0  0  0  0  0  0  0  0  0  0  0  0
   -0.5548   25.5391  -26.3763 H   0  0  0  0  0  0  0  0  0  0  0  0
   -1.1786   24.0472  -27.2151 H   0  0  0  0  0  0  0  0  0  0  0  0
   -2.6890   25.2960  -26.3720 C   0  0  0  0  0  0  0  0  0  0  0  0
   -2.5660   25.2804  -25.2790 H   0  0  0  0  0  0  0  0  0  0  0  0
   -3.1280   26.2571  -26.6779 H   0  0  0  0  0  0  0  0  0  0  0  0
   -3.3543   24.4751  -26.6779 H   0  0  0  0  0  0  0  0  0  0  0  0
   -3.6800   22.4590  -31.2860 C   0  0  0  0  0  0  0  0  0  0  0  0
   -2.5780   22.1520  -31.9190 N   0  0  0  0  0  0  0  0  0  0  0  0
   -2.4120   21.2470  -33.0590 C   0  0  0  0  0  0  0  0  0  0  0  0
   -3.0439   21.5832  -33.8943 H   0  0  0  0  0  0  0  0  0  0  0  0
   -0.9430   21.2570  -33.4830 C   0  0  0  0  0  0  0  0  0  0  0  0
   -0.3031   21.2614  -32.5883 H   0  0  0  0  0  0  0  0  0  0  0  0
   -0.7284   20.3603  -34.0829 H   0  0  0  0  0  0  0  0  0  0  0  0
   -0.7406   22.1565  -34.0829 H   0  0  0  0  0  0  0  0  0  0  0  0
   -2.8390   19.8260  -32.6740 C   0  0  0  0  0  0  0  0  0  0  0  0
   -2.8662   19.7356  -31.5781 H   0  0  0  0  0  0  0  0  0  0  0  0
   -3.8388   19.6198  -33.0838 H   0  0  0  0  0  0  0  0  0  0  0  0
   -2.1185   19.1029  -33.0838 H   0  0  0  0  0  0  0  0  0  0  0  0
  1  2  1  0
  2  3  2  0
  3  4  1  0
  4  5  1  0
  5  6  1  0
  5  7  2  0
  7  8  1  0
  7  9  1  0
  9 10  2  0
 10 11  1  0
 10 12  1  0
 12 13  1  0
 12 14  1  0
 14 15  1  0
 14 16  2  0
  3 17  1  0
 17 18  1  0
 17 19  1  0
 19 20  1  0
 19 21  2  0
 21 22  1  0
 22 23  2  0
 22 24  1  0
 24 25  1  0
 25 26  1  0
 25 27  1  0
 25 28  1  0
 28 29  1  0
 28 30  1  0
 28 31  1  0
 31 32  1  0
 31 33  1  0
 31 34  1  0
 21 35  1  0
 35 36  2  0
 36 37  1  0
 37 38  1  0
 37 39  1  0
 39 40  1  0
 39 41  1  0
 39 42  1  0
 37 43  1  0
 43 44  1  0
 43 45  1  0
 43 46  1  0
 35  2  1  0
 16  4  1  0
 16  9  1  0
M  CHG  1  24  -1
M  END
>  <UniqueID>  (18) 
18

>  <SMILES>  (18) 
CCC[N-]C(=O)c1c[nH]c(-n2ccc3c[nH]cc32)c/c1=N\C(C)C

>  <Energy>  (18) 
133.14411391448746

>  <Genealogy>  (18) 
CCC[N-]C(=O)c1c[nH]c(-n2ccc3c[nH]cc32)cc1=NC(C)C (protonated)
CCC[N-]C(=O)c1c[nH]c(-n2ccc3c[nH]cc32)c/c1=N\C(C)C (cis-trans isomerization)
CCC[N-]C(=O)c1c[nH]c(-n2ccc3c[nH]cc32)c/c1=N\C(C)C (3D coordinates assigned)
CCC[N-]C(=O)c1c[nH]c(-n2ccc3c[nH]cc32)c/c1=N\C(C)C (optimized conformer: 133.14411391448746 kcal/mol)

>  <smiles>  (18) 
CCCNC(=O)c1c[nH]c(-n2ccc3c[nH]cc32)cc1=NC(C)C

>  <score_type>  (18) 
oracle

>  <origin>  (18) 
adgpu

>  <m_score__min__energy>  (18) 
-9.7699999999999996

>  <m_primary>  (18) 
energy

$$$$
18:0
     RDKit          3D

 39 40  0  0  0  0  0  0  0  0999 V2000
   -5.7740   18.4700  -34.8350 C   0  0  0  0  0  0  0  0  0  0  0  0
   -5.5090   18.8440  -33.4880 O   0  0  0  0  0  0  0  0  0  0  0  0
   -5.8320   20.0920  -32.9310 C   0  0  0  0  0  0  0  0  0  0  0  0
   -4.8620   21.0890  -32.7170 C   0  0  0  0  0  0  0  0  0  0  0  0
   -5.2190   22.3130  -32.1480 C   0  0  0  0  0  0  0  0  0  0  0  0
   -6.5510   22.5710  -31.8030 C   0  0  0  0  0  0  0  0  0  0  0  0
   -6.9220   23.8640  -31.1190 C   0  0  0  0  0  0  0  0  0  0  0  0
   -5.9150   24.2340  -30.0200 C   0  0  0  0  0  0  0  0  0  0  0  0
   -4.9430   25.2720  -30.4920 C   0  0  0  0  0  0  0  0  0  0  0  0
   -5.3620   26.4180  -30.8080 O   0  0  0  0  0  0  0  0  0  0  0  0
   -3.5400   24.9830  -30.4530 N   0  0  0  0  0  0  0  0  0  0  0  0
   -2.8930   23.9510  -29.6960 C   0  0  0  0  0  0  0  0  0  0  0  0
   -2.3980   22.8330  -30.3780 C   0  0  0  0  0  0  0  0  0  0  0  0
   -1.7620   21.8020  -29.6800 C   0  0  0  0  0  0  0  0  0  0  0  0
   -1.6010   21.8910  -28.2940 C   0  0  0  0  0  0  0  0  0  0  0  0
   -0.7990   20.5990  -27.4180 Cl  0  0  0  0  0  0  0  0  0  0  0  0
   -2.0690   23.0170  -27.6080 C   0  0  0  0  0  0  0  0  0  0  0  0
   -2.7090   24.0470  -28.3040 C   0  0  0  0  0  0  0  0  0  0  0  0
   -7.5240   21.5820  -32.0230 C   0  0  0  0  0  0  0  0  0  0  0  0
   -7.1670   20.3360  -32.5750 C   0  0  0  0  0  0  0  0  0  0  0  0
   -8.1090   19.3140  -32.7730 O   0  0  0  0  0  0  0  0  0  0  0  0
   -8.3530   18.2530  -31.8560 C   0  0  0  0  0  0  0  0  0  0  0  0
   -6.4099   17.5725  -34.8480 H   0  0  0  0  0  0  0  0  0  0  0  0
   -6.2913   19.2934  -35.3492 H   0  0  0  0  0  0  0  0  0  0  0  0
   -4.8257   18.2549  -35.3492 H   0  0  0  0  0  0  0  0  0  0  0  0
   -3.8155   20.9027  -32.9999 H   0  0  0  0  0  0  0  0  0  0  0  0
   -4.4496   23.0787  -31.9699 H   0  0  0  0  0  0  0  0  0  0  0  0
   -6.9448   24.6696  -31.8676 H   0  0  0  0  0  0  0  0  0  0  0  0
   -7.9086   23.7335  -30.6505 H   0  0  0  0  0  0  0  0  0  0  0  0
   -6.4629   24.6266  -29.1507 H   0  0  0  0  0  0  0  0  0  0  0  0
   -5.3500   23.3293  -29.7511 H   0  0  0  0  0  0  0  0  0  0  0  0
   -2.5102   22.7653  -31.4702 H   0  0  0  0  0  0  0  0  0  0  0  0
   -1.3881   20.9205  -30.2215 H   0  0  0  0  0  0  0  0  0  0  0  0
   -1.9332   23.0921  -26.5190 H   0  0  0  0  0  0  0  0  0  0  0  0
   -3.0694   24.9341  -27.7625 H   0  0  0  0  0  0  0  0  0  0  0  0
   -8.5737   21.7822  -31.7620 H   0  0  0  0  0  0  0  0  0  0  0  0
   -8.2661   18.6308  -30.8266 H   0  0  0  0  0  0  0  0  0  0  0  0
   -9.3660   17.8554  -32.0164 H   0  0  0  0  0  0  0  0  0  0  0  0
   -7.6154   17.4528  -32.0164 H   0  0  0  0  0  0  0  0  0  0  0  0
  1  2  1  0
  2  3  1  0
  3  4  2  0
  4  5  1  0
  5  6  2  0
  6  7  1  0
  7  8  1  0
  8  9  1  0
  9 10  2  0
  9 11  1  0
 11 12  1  0
 12 13  2  0
 13 14  1  0
 14 15  2  0
 15 16  1  0
 15 17  1  0
 17 18  2  0
  6 19  1  0
 19 20  2  0
 20 21  1  0
 21 22  1  0
 20  3  1  0
 18 12  1  0
  1 23  1  0
  1 24  1  0
  1 25  1  0
  4 26  1  0
  5 27  1  0
  7 28  1  0
  7 29  1  0
  8 30  1  0
  8 31  1  0
 13 32  1  0
 14 33  1  0
 17 34  1  0
 18 35  1  0
 19 36  1  0
 22 37  1  0
 22 38  1  0
 22 39  1  0
M  CHG  1  11  -1
M  END
>  <UniqueID>  (19) 
19

>  <SMILES>  (19) 
COc1ccc(CCC(=O)[N-]c2ccc(Cl)cc2)cc1OC

>  <Energy>  (19) 
35.87909863547677

>  <Genealogy>  (19) 
COc1ccc(CCC(=O)[N-]c2ccc(Cl)cc2)cc1OC (protonated)
COc1ccc(CCC(=O)[N-]c2ccc(Cl)cc2)cc1OC (3D coordinates assigned)
COc1ccc(CCC(=O)[N-]c2ccc(Cl)cc2)cc1OC (optimized conformer: 35.87909863547677 kcal/mol)

>  <smiles>  (19) 
COc1ccc(CCC(=O)Nc2ccc(Cl)cc2)cc1OC

>  <score_type>  (19) 
oracle

>  <origin>  (19) 
adgpu

>  <m_score__min__energy>  (19) 
-9.1600000000000001

>  <m_primary>  (19) 
energy

$$$$
19:0
     RDKit          3D

 42 44  0  0  0  0  0  0  0  0999 V2000
   -9.4010   20.4390  -32.2430 C   0  0  0  0  0  0  0  0  0  0  0  0
   -9.1020   21.5660  -31.2580 C   0  0  0  0  0  0  0  0  0  0  0  0
   -8.7020   22.8530  -31.9930 C   0  0  0  0  0  0  0  0  0  0  0  0
   -7.5840   23.6210  -31.2740 C   0  0  0  0  0  0  0  0  0  0  0  0
   -6.3280   23.7890  -32.1410 C   0  0  0  0  0  0  0  0  0  0  0  0
   -5.0770   23.7740  -31.2810 C   0  0  0  0  0  0  0  0  0  0  0  0
   -4.3100   22.5940  -31.1040 C   0  0  0  0  0  0  0  0  0  0  0  0
   -4.7340   21.3240  -31.7410 C   0  0  0  0  0  0  0  0  0  0  0  0
   -5.9020   20.6850  -31.2950 C   0  0  0  0  0  0  0  0  0  0  0  0
   -6.3170   19.4880  -31.8810 C   0  0  0  0  0  0  0  0  0  0  0  0
   -5.5760   18.9240  -32.9220 C   0  0  0  0  0  0  0  0  0  0  0  0
   -4.4170   19.5570  -33.3800 C   0  0  0  0  0  0  0  0  0  0  0  0
   -3.9930   20.7570  -32.7980 C   0  0  0  0  0  0  0  0  0  0  0  0
   -2.5330   21.5290  -33.4060 Cl  0  0  0  0  0  0  0  0  0  0  0  0
   -3.1350   22.6370  -30.3140 C   0  0  0  0  0  0  0  0  0  0  0  0
   -2.3370   21.4960  -30.0810 C   0  0  0  0  0  0  0  0  0  0  0  0
   -1.1860   21.5860  -29.2940 C   0  0  0  0  0  0  0  0  0  0  0  0
   -0.8150   22.8070  -28.7270 C   0  0  0  0  0  0  0  0  0  0  0  0
    0.6310   22.9120  -27.7390 Cl  0  0  0  0  0  0  0  0  0  0  0  0
   -1.5950   23.9450  -28.9460 C   0  0  0  0  0  0  0  0  0  0  0  0
   -2.7490   23.8670  -29.7330 C   0  0  0  0  0  0  0  0  0  0  0  0
   -3.4960   24.9800  -29.9370 N   0  0  0  0  0  0  0  0  0  0  0  0
   -4.6260   24.9700  -30.6860 C   0  0  0  0  0  0  0  0  0  0  0  0
   -5.2640   26.0450  -30.8430 O   0  0  0  0  0  0  0  0  0  0  0  0
   -9.6444   19.5214  -31.6874 H   0  0  0  0  0  0  0  0  0  0  0  0
  -10.2551   20.7220  -32.8757 H   0  0  0  0  0  0  0  0  0  0  0  0
   -8.5189   20.2614  -32.8757 H   0  0  0  0  0  0  0  0  0  0  0  0
   -9.9999   21.7621  -30.6536 H   0  0  0  0  0  0  0  0  0  0  0  0
   -8.2637   21.2556  -30.6170 H   0  0  0  0  0  0  0  0  0  0  0  0
   -8.3546   22.5885  -33.0026 H   0  0  0  0  0  0  0  0  0  0  0  0
   -9.5865   23.5061  -32.0261 H   0  0  0  0  0  0  0  0  0  0  0  0
   -7.9604   24.6184  -31.0028 H   0  0  0  0  0  0  0  0  0  0  0  0
   -7.2989   23.0383  -30.3856 H   0  0  0  0  0  0  0  0  0  0  0  0
   -6.2772   22.9641  -32.8669 H   0  0  0  0  0  0  0  0  0  0  0  0
   -6.3860   24.7547  -32.6645 H   0  0  0  0  0  0  0  0  0  0  0  0
   -6.4925   21.1296  -30.4803 H   0  0  0  0  0  0  0  0  0  0  0  0
   -7.2289   18.9882  -31.5224 H   0  0  0  0  0  0  0  0  0  0  0  0
   -5.9049   17.9805  -33.3820 H   0  0  0  0  0  0  0  0  0  0  0  0
   -3.8363   19.1105  -34.2006 H   0  0  0  0  0  0  0  0  0  0  0  0
   -2.6232   20.5297  -30.5219 H   0  0  0  0  0  0  0  0  0  0  0  0
   -0.5697   20.6916  -29.1204 H   0  0  0  0  0  0  0  0  0  0  0  0
   -1.3008   24.9057  -28.4981 H   0  0  0  0  0  0  0  0  0  0  0  0
  1  2  1  0
  2  3  1  0
  3  4  1  0
  4  5  1  0
  5  6  1  0
  6  7  2  0
  7  8  1  0
  8  9  2  0
  9 10  1  0
 10 11  2  0
 11 12  1  0
 12 13  2  0
 13 14  1  0
  7 15  1  0
 15 16  2  0
 16 17  1  0
 17 18  2  0
 18 19  1  0
 18 20  1  0
 20 21  2  0
 21 22  1  0
 22 23  1  0
 23 24  2  0
 23  6  1  0
 13  8  1  0
 21 15  1  0
  1 25  1  0
  1 26  1  0
  1 27  1  0
  2 28  1  0
  2 29  1  0
  3 30  1  0
  3 31  1  0
  4 32  1  0
  4 33  1  0
  5 34  1  0
  5 35  1  0
  9 36  1  0
 10 37  1  0
 11 38  1  0
 12 39  1  0
 16 40  1  0
 17 41  1  0
 20 42  1  0
M  CHG  1  22  -1
M  END
>  <UniqueID>  (20) 
20

>  <SMILES>  (20) 
CCCCCc1c(-c2ccccc2Cl)c2ccc(Cl)cc2[n-]c1=O

>  <Energy>  (20) 
50.15671209102086

>  <Genealogy>  (20) 
CCCCCc1c(-c2ccccc2Cl)c2ccc(Cl)cc2[n-]c1=O (protonated)
CCCCCc1c(-c2ccccc2Cl)c2ccc(Cl)cc2[n-]c1=O (3D coordinates assigned)
CCCCCc1c(-c2ccccc2Cl)c2ccc(Cl)cc2[n-]c1=O (optimized conformer: 50.15671209102086 kcal/mol)

>  <smiles>  (20) 
CCCCCc1c(-c2ccccc2Cl)c2ccc(Cl)cc2[nH]c1=O

>  <score_type>  (20) 
oracle

>  <origin>  (20) 
adgpu

>  <m_score__min__energy>  (20) 
-10.18

>  <m_primary>  (20) 
energy

$$$$
20:0
     RDKit          3D

 49 52  0  0  0  0  0  0  0  0999 V2000
   -5.9920   18.8780  -31.9810 C   0  0  0  0  0  0  0  0  0  0  0  0
   -4.6230   18.6040  -32.5270 C   0  0  0  0  0  0  0  0  0  0  0  0
   -4.2360   17.4130  -33.1110 C   0  0  0  0  0  0  0  0  0  0  0  0
   -2.9110   17.5600  -33.4650 C   0  0  0  0  0  0  0  0  0  0  0  0
   -2.5410   18.8410  -33.0920 C   0  0  0  0  0  0  0  0  0  0  0  0
   -1.2110   19.4410  -33.3420 C   0  0  0  0  0  0  0  0  0  0  0  0
   -0.9620   20.0860  -34.5640 C   0  0  0  0  0  0  0  0  0  0  0  0
    0.2850   20.6600  -34.8230 C   0  0  0  0  0  0  0  0  0  0  0  0
    0.5780   21.4700  -36.3500 Cl  0  0  0  0  0  0  0  0  0  0  0  0
    1.2970   20.5850  -33.8650 C   0  0  0  0  0  0  0  0  0  0  0  0
    1.0670   19.9410  -32.6480 C   0  0  0  0  0  0  0  0  0  0  0  0
   -0.1880   19.3610  -32.3730 C   0  0  0  0  0  0  0  0  0  0  0  0
   -0.4620   18.7250  -31.1470 O   0  0  0  0  0  0  0  0  0  0  0  0
    0.3630   18.7770  -29.9830 C   0  0  0  0  0  0  0  0  0  0  0  0
   -0.3200   19.5430  -28.8800 C   0  0  0  0  0  0  0  0  0  0  0  0
   -0.0620   20.9110  -28.6940 C   0  0  0  0  0  0  0  0  0  0  0  0
   -0.7010   21.6150  -27.6690 C   0  0  0  0  0  0  0  0  0  0  0  0
   -1.6060   20.9600  -26.8280 C   0  0  0  0  0  0  0  0  0  0  0  0
   -1.8770   19.6020  -27.0150 C   0  0  0  0  0  0  0  0  0  0  0  0
   -3.0170   18.7810  -25.9630 Cl  0  0  0  0  0  0  0  0  0  0  0  0
   -1.2400   18.8950  -28.0410 C   0  0  0  0  0  0  0  0  0  0  0  0
   -3.5940   19.4810  -32.5280 N   0  0  0  0  0  0  0  0  0  0  0  0
   -3.5940   20.8040  -31.9620 C   0  0  0  0  0  0  0  0  0  0  0  0
   -2.5280   21.2300  -31.1600 C   0  0  0  0  0  0  0  0  0  0  0  0
   -2.5140   22.5200  -30.6280 C   0  0  0  0  0  0  0  0  0  0  0  0
   -3.5680   23.4150  -30.8910 C   0  0  0  0  0  0  0  0  0  0  0  0
   -3.5300   24.7810  -30.3180 C   0  0  0  0  0  0  0  0  0  0  0  0
   -4.3190   25.6750  -30.7230 O   0  0  0  0  0  0  0  0  0  0  0  0
   -2.6170   25.0990  -29.3180 O   0  0  0  0  0  0  0  0  0  0  0  0
   -4.6400   22.9830  -31.7010 C   0  0  0  0  0  0  0  0  0  0  0  0
   -5.6780   23.8080  -31.9900 F   0  0  0  0  0  0  0  0  0  0  0  0
   -4.6470   21.6880  -32.2300 C   0  0  0  0  0  0  0  0  0  0  0  0
   -5.9565   18.8709  -30.8816 H   0  0  0  0  0  0  0  0  0  0  0  0
   -6.3358   19.8628  -32.3304 H   0  0  0  0  0  0  0  0  0  0  0  0
   -6.6883   18.1014  -32.3304 H   0  0  0  0  0  0  0  0  0  0  0  0
   -4.8623   16.5217  -33.2638 H   0  0  0  0  0  0  0  0  0  0  0  0
   -2.2727   16.8063  -33.9493 H   0  0  0  0  0  0  0  0  0  0  0  0
   -1.7555   20.1398  -35.3239 H   0  0  0  0  0  0  0  0  0  0  0  0
    2.2796   21.0350  -34.0696 H   0  0  0  0  0  0  0  0  0  0  0  0
    1.8704   19.8858  -31.8987 H   0  0  0  0  0  0  0  0  0  0  0  0
    0.5665   17.7523  -29.6386 H   0  0  0  0  0  0  0  0  0  0  0  0
    1.3032   19.2876  -30.2384 H   0  0  0  0  0  0  0  0  0  0  0  0
    0.6454   21.4304  -29.3572 H   0  0  0  0  0  0  0  0  0  0  0  0
   -0.4917   22.6851  -27.5240 H   0  0  0  0  0  0  0  0  0  0  0  0
   -2.1047   21.5139  -26.0190 H   0  0  0  0  0  0  0  0  0  0  0  0
   -1.4610   17.8279  -28.1905 H   0  0  0  0  0  0  0  0  0  0  0  0
   -1.6957   20.5428  -30.9479 H   0  0  0  0  0  0  0  0  0  0  0  0
   -1.6716   22.8403  -29.9974 H   0  0  0  0  0  0  0  0  0  0  0  0
   -5.4863   21.3612  -32.8616 H   0  0  0  0  0  0  0  0  0  0  0  0
  1  2  1  0
  2  3  2  0
  3  4  1  0
  4  5  2  0
  5  6  1  0
  6  7  2  0
  7  8  1  0
  8  9  1  0
  8 10  2  0
 10 11  1  0
 11 12  2  0
 12 13  1  0
 13 14  1  0
 14 15  1  0
 15 16  2  0
 16 17  1  0
 17 18  2  0
 18 19  1  0
 19 20  1  0
 19 21  2  0
  5 22  1  0
 22 23  1  0
 23 24  2  0
 24 25  1  0
 25 26  2  0
 26 27  1  0
 27 28  2  0
 27 29  1  0
 26 30  1  0
 30 31  1  0
 30 32  2  0
 22  2  1  0
 32 23  1  0
 12  6  1  0
 21 15  1  0
  1 33  1  0
  1 34  1  0
  1 35  1  0
  3 36  1  0
  4 37  1  0
  7 38  1  0
 10 39  1  0
 11 40  1  0
 14 41  1  0
 14 42  1  0
 16 43  1  0
 17 44  1  0
 18 45  1  0
 21 46  1  0
 24 47  1  0
 25 48  1  0
 32 49  1  0
M  CHG  1  29  -1
M  END
>  <UniqueID>  (21) 
21

>  <SMILES>  (21) 
Cc1ccc(-c2cc(Cl)ccc2OCc2cccc(Cl)c2)n1-c1ccc(C(=O)[O-])c(F)c1

>  <Energy>  (21) 
89.95659372487677

>  <Genealogy>  (21) 
Cc1ccc(-c2cc(Cl)ccc2OCc2cccc(Cl)c2)n1-c1ccc(C(=O)[O-])c(F)c1 (protonated)
Cc1ccc(-c2cc(Cl)ccc2OCc2cccc(Cl)c2)n1-c1ccc(C(=O)[O-])c(F)c1 (3D coordinates assigned)
Cc1ccc(-c2cc(Cl)ccc2OCc2cccc(Cl)c2)n1-c1ccc(C(=O)[O-])c(F)c1 (optimized conformer: 89.95659372487677 kcal/mol)

>  <smiles>  (21) 
Cc1ccc(-c2cc(Cl)ccc2OCc2cccc(Cl)c2)n1-c1ccc(C(=O)O)c(F)c1

>  <score_type>  (21) 
oracle

>  <origin>  (21) 
adgpu

>  <m_score__min__energy>  (21) 
-11.050000000000001

>  <m_primary>  (21) 
energy

$$$$
21:0
     RDKit          3D

 28 29  0  0  0  0  0  0  0  0999 V2000
   -4.7060   18.2250  -34.5400 C   0  0  0  0  0  0  0  0  0  0  0  0
   -6.0860   18.6900  -34.6280 N   0  0  0  0  0  0  0  0  0  0  0  0
   -6.9470   18.8500  -33.4860 C   0  0  0  0  0  0  0  0  0  0  0  0
   -7.0600   17.8030  -32.5580 C   0  0  0  0  0  0  0  0  0  0  0  0
   -7.8860   17.9340  -31.4370 C   0  0  0  0  0  0  0  0  0  0  0  0
   -8.6060   19.1120  -31.2310 C   0  0  0  0  0  0  0  0  0  0  0  0
   -8.5020   20.1640  -32.1460 C   0  0  0  0  0  0  0  0  0  0  0  0
   -9.4220   21.6800  -31.8760 S   0  0  0  0  0  0  0  0  0  0  0  0
   -7.9560   22.5900  -31.3890 C   0  0  0  0  0  0  0  0  0  0  0  0
   -7.4750   22.4960  -30.0770 C   0  0  0  0  0  0  0  0  0  0  0  0
   -6.3270   23.2010  -29.6990 C   0  0  0  0  0  0  0  0  0  0  0  0
   -5.6590   24.0030  -30.6310 C   0  0  0  0  0  0  0  0  0  0  0  0
   -4.2190   24.8860  -30.1580 Cl  0  0  0  0  0  0  0  0  0  0  0  0
   -6.1410   24.1010  -31.9410 C   0  0  0  0  0  0  0  0  0  0  0  0
   -7.2890   23.3970  -32.3190 C   0  0  0  0  0  0  0  0  0  0  0  0
   -7.6800   20.0350  -33.2720 C   0  0  0  0  0  0  0  0  0  0  0  0
   -4.4184   18.1281  -33.4827 H   0  0  0  0  0  0  0  0  0  0  0  0
   -4.6163   17.2470  -35.0355 H   0  0  0  0  0  0  0  0  0  0  0  0
   -4.0427   18.9493  -35.0355 H   0  0  0  0  0  0  0  0  0  0  0  0
   -6.4620   18.9110  -35.5790 H   0  0  0  0  0  0  0  0  0  0  0  0
   -6.4946   16.8724  -32.7136 H   0  0  0  0  0  0  0  0  0  0  0  0
   -7.9684   17.1071  -30.7163 H   0  0  0  0  0  0  0  0  0  0  0  0
   -9.2552   19.2126  -30.3487 H   0  0  0  0  0  0  0  0  0  0  0  0
   -8.0003   21.8673  -29.3430 H   0  0  0  0  0  0  0  0  0  0  0  0
   -5.9494   23.1247  -28.6687 H   0  0  0  0  0  0  0  0  0  0  0  0
   -5.6168   24.7320  -32.6739 H   0  0  0  0  0  0  0  0  0  0  0  0
   -7.6685   23.4774  -33.3483 H   0  0  0  0  0  0  0  0  0  0  0  0
   -7.6058   20.8623  -33.9932 H   0  0  0  0  0  0  0  0  0  0  0  0
  1  2  1  0
  2  3  1  0
  3  4  2  0
  4  5  1  0
  5  6  2  0
  6  7  1  0
  7  8  1  0
  8  9  1  0
  9 10  2  0
 10 11  1  0
 11 12  2  0
 12 13  1  0
 12 14  1  0
 14 15  2  0
  7 16  2  0
 16  3  1  0
 15  9  1  0
  1 17  1  0
  1 18  1  0
  1 19  1  0
  2 20  1  0
  4 21  1  0
  5 22  1  0
  6 23  1  0
 10 24  1  0
 11 25  1  0
 14 26  1  0
 15 27  1  0
 16 28  1  0
M  END
>  <UniqueID>  (22) 
22

>  <SMILES>  (22) 
CNc1cccc(Sc2ccc(Cl)cc2)c1

>  <Energy>  (22) 
22.0987442771205

>  <Genealogy>  (22) 
CNc1cccc(Sc2ccc(Cl)cc2)c1 (3D coordinates assigned)
CNc1cccc(Sc2ccc(Cl)cc2)c1 (optimized conformer: 22.0987442771205 kcal/mol)

>  <smiles>  (22) 
CNc1cccc(Sc2ccc(Cl)cc2)c1

>  <score_type>  (22) 
oracle

>  <origin>  (22) 
adgpu

>  <m_score__min__energy>  (22) 
-7.4500000000000002

>  <m_primary>  (22) 
energy

$$$$
22:0
     RDKit          3D

 30 31  0  0  0  0  0  0  0  0999 V2000
   -9.8880   21.1280  -31.9570 F   0  0  0  0  0  0  0  0  0  0  0  0
   -8.8420   20.2740  -32.0930 C   0  0  0  0  0  0  0  0  0  0  0  0
   -9.0880   18.9010  -32.0230 C   0  0  0  0  0  0  0  0  0  0  0  0
   -8.0490   17.9920  -32.2080 C   0  0  0  0  0  0  0  0  0  0  0  0
   -6.7650   18.4500  -32.4970 C   0  0  0  0  0  0  0  0  0  0  0  0
   -6.5000   19.8230  -32.5740 C   0  0  0  0  0  0  0  0  0  0  0  0
   -4.8900   20.2980  -33.1030 Cl  0  0  0  0  0  0  0  0  0  0  0  0
   -7.5340   20.7610  -32.3180 C   0  0  0  0  0  0  0  0  0  0  0  0
   -7.2900   22.2650  -32.3460 C   0  0  0  0  0  0  0  0  0  0  0  0
   -6.4510   22.7680  -31.2310 N   0  0  0  0  0  0  0  0  0  0  0  0
   -7.1900   23.4380  -30.1330 C   0  0  0  0  0  0  0  0  0  0  0  0
   -6.8550   24.9310  -30.0240 C   0  0  0  0  0  0  0  0  0  0  0  0
   -5.3480   25.1460  -29.7920 C   0  0  0  0  0  0  0  0  0  0  0  0
   -4.4790   24.0610  -30.4560 C   0  0  0  0  0  0  0  0  0  0  0  0
   -5.2010   23.4400  -31.6560 C   0  0  0  0  0  0  0  0  0  0  0  0
  -10.1059   18.5362  -31.8210 H   0  0  0  0  0  0  0  0  0  0  0  0
   -8.2421   16.9122  -32.1259 H   0  0  0  0  0  0  0  0  0  0  0  0
   -5.9531   17.7273  -32.6660 H   0  0  0  0  0  0  0  0  0  0  0  0
   -6.7902   22.5154  -33.2934 H   0  0  0  0  0  0  0  0  0  0  0  0
   -8.2739   22.7458  -32.2417 H   0  0  0  0  0  0  0  0  0  0  0  0
   -8.2691   23.3313  -30.3177 H   0  0  0  0  0  0  0  0  0  0  0  0
   -6.8917   22.9590  -29.1888 H   0  0  0  0  0  0  0  0  0  0  0  0
   -7.1503   25.4344  -30.9564 H   0  0  0  0  0  0  0  0  0  0  0  0
   -7.4034   25.3503  -29.1676 H   0  0  0  0  0  0  0  0  0  0  0  0
   -5.0651   26.1248  -30.2066 H   0  0  0  0  0  0  0  0  0  0  0  0
   -5.1700   25.0941  -28.7077 H   0  0  0  0  0  0  0  0  0  0  0  0
   -3.5365   24.5138  -30.7977 H   0  0  0  0  0  0  0  0  0  0  0  0
   -4.2802   23.2700  -29.7179 H   0  0  0  0  0  0  0  0  0  0  0  0
   -5.4458   24.2324  -32.3786 H   0  0  0  0  0  0  0  0  0  0  0  0
   -4.5387   22.6919  -32.1160 H   0  0  0  0  0  0  0  0  0  0  0  0
  1  2  1  0
  2  3  2  0
  3  4  1  0
  4  5  2  0
  5  6  1  0
  6  7  1  0
  6  8  2  0
  8  9  1  0
  9 10  1  0
 10 11  1  0
 11 12  1  0
 12 13  1  0
 13 14  1  0
 14 15  1  0
  8  2  1  0
 15 10  1  0
  3 16  1  0
  4 17  1  0
  5 18  1  0
  9 19  1  0
  9 20  1  0
 11 21  1  0
 11 22  1  0
 12 23  1  0
 12 24  1  0
 13 25  1  0
 13 26  1  0
 14 27  1  0
 14 28  1  0
 15 29  1  0
 15 30  1  0
M  END
>  <UniqueID>  (23) 
23

>  <SMILES>  (23) 
Fc1cccc(Cl)c1CN1CCCCC1

>  <Energy>  (23) 
43.415759668863096

>  <Genealogy>  (23) 
Fc1cccc(Cl)c1CN1CCCCC1 (3D coordinates assigned)
Fc1cccc(Cl)c1CN1CCCCC1 (nonaromatic ring conformer: 43.415759668863096 kcal/mol)

>  <smiles>  (23) 
Fc1cccc(Cl)c1CN1CCCCC1

>  <score_type>  (23) 
oracle

>  <origin>  (23) 
adgpu

>  <m_score__min__energy>  (23) 
-6.54

>  <m_primary>  (23) 
energy

$$$$
23:0
     RDKit          3D

 37 38  0  0  0  0  0  0  0  0999 V2000
   -4.9670   22.6760  -31.7780 C   0  0  0  0  0  0  0  0  0  0  0  0
   -6.3050   23.0010  -31.2520 N   0  0  0  0  0  0  0  0  0  0  0  0
   -6.3720   24.4230  -30.8530 C   0  0  0  0  0  0  0  0  0  0  0  0
   -5.1060   24.8130  -30.1560 C   0  0  0  0  0  0  0  0  0  0  0  0
   -4.2370   25.4880  -30.7750 O   0  0  0  0  0  0  0  0  0  0  0  0
   -4.9110   24.4520  -28.7800 N   0  0  0  0  0  0  0  0  0  0  0  0
   -3.6530   24.5370  -28.0900 C   0  0  0  0  0  0  0  0  0  0  0  0
   -3.5800   24.9220  -26.7380 C   0  0  0  0  0  0  0  0  0  0  0  0
   -2.3390   25.0240  -26.1010 C   0  0  0  0  0  0  0  0  0  0  0  0
   -1.1640   24.7570  -26.8070 C   0  0  0  0  0  0  0  0  0  0  0  0
   -1.2260   24.3970  -28.1560 C   0  0  0  0  0  0  0  0  0  0  0  0
   -2.4650   24.2960  -28.7970 C   0  0  0  0  0  0  0  0  0  0  0  0
   -7.3390   22.6750  -32.2550 C   0  0  0  0  0  0  0  0  0  0  0  0
   -7.5670   21.1850  -32.3030 C   0  0  0  0  0  0  0  0  0  0  0  0
   -8.6080   20.5960  -31.5670 C   0  0  0  0  0  0  0  0  0  0  0  0
   -8.8000   19.2120  -31.6040 C   0  0  0  0  0  0  0  0  0  0  0  0
   -7.9550   18.4070  -32.3720 C   0  0  0  0  0  0  0  0  0  0  0  0
   -6.9170   18.9850  -33.1100 C   0  0  0  0  0  0  0  0  0  0  0  0
   -5.7560   17.8850  -34.1530 Br  0  0  0  0  0  0  0  0  0  0  0  0
   -6.7260   20.3710  -33.0790 C   0  0  0  0  0  0  0  0  0  0  0  0
   -4.2745   22.5078  -30.9400 H   0  0  0  0  0  0  0  0  0  0  0  0
   -5.0260   21.7661  -32.3933 H   0  0  0  0  0  0  0  0  0  0  0  0
   -4.6020   23.5116  -32.3933 H   0  0  0  0  0  0  0  0  0  0  0  0
   -6.5035   25.0480  -31.7486 H   0  0  0  0  0  0  0  0  0  0  0  0
   -7.2226   24.5698  -30.1712 H   0  0  0  0  0  0  0  0  0  0  0  0
   -5.7540   24.1670  -28.2300 H   0  0  0  0  0  0  0  0  0  0  0  0
   -4.5021   25.1434  -26.1806 H   0  0  0  0  0  0  0  0  0  0  0  0
   -2.2884   25.3152  -25.0415 H   0  0  0  0  0  0  0  0  0  0  0  0
   -0.1898   24.8300  -26.3014 H   0  0  0  0  0  0  0  0  0  0  0  0
   -0.3001   24.1930  -28.7138 H   0  0  0  0  0  0  0  0  0  0  0  0
   -2.5085   24.0259  -29.8624 H   0  0  0  0  0  0  0  0  0  0  0  0
   -8.2791   23.1778  -31.9842 H   0  0  0  0  0  0  0  0  0  0  0  0
   -7.0006   23.0182  -33.2438 H   0  0  0  0  0  0  0  0  0  0  0  0
   -9.2744   21.2259  -30.9594 H   0  0  0  0  0  0  0  0  0  0  0  0
   -9.6180   18.7557  -31.0273 H   0  0  0  0  0  0  0  0  0  0  0  0
   -8.1062   17.3177  -32.3963 H   0  0  0  0  0  0  0  0  0  0  0  0
   -5.9134   20.8249  -33.6652 H   0  0  0  0  0  0  0  0  0  0  0  0
  1  2  1  0
  2  3  1  0
  3  4  1  0
  4  5  2  0
  4  6  1  0
  6  7  1  0
  7  8  2  0
  8  9  1  0
  9 10  2  0
 10 11  1  0
 11 12  2  0
  2 13  1  0
 13 14  1  0
 14 15  2  0
 15 16  1  0
 16 17  2  0
 17 18  1  0
 18 19  1  0
 18 20  2  0
 12  7  1  0
 20 14  1  0
  1 21  1  0
  1 22  1  0
  1 23  1  0
  3 24  1  0
  3 25  1  0
  6 26  1  0
  8 27  1  0
  9 28  1  0
 10 29  1  0
 11 30  1  0
 12 31  1  0
 13 32  1  0
 13 33  1  0
 15 34  1  0
 16 35  1  0
 17 36  1  0
 20 37  1  0
M  END
>  <UniqueID>  (24) 
24

>  <SMILES>  (24) 
CN(CC(=O)Nc1ccccc1)Cc1cccc(Br)c1

>  <Energy>  (24) 
39.37259748049369

>  <Genealogy>  (24) 
CN(CC(=O)Nc1ccccc1)Cc1cccc(Br)c1 (3D coordinates assigned)
CN(CC(=O)Nc1ccccc1)Cc1cccc(Br)c1 (optimized conformer: 39.37259748049369 kcal/mol)

>  <smiles>  (24) 
CN(CC(=O)Nc1ccccc1)Cc1cccc(Br)c1

>  <score_type>  (24) 
oracle

>  <origin>  (24) 
adgpu

>  <m_score__min__energy>  (24) 
-8.9700000000000006

>  <m_primary>  (24) 
energy

$$$$
24:0
     RDKit          3D

 33 35  0  0  0  0  0  0  0  0999 V2000
    0.6103   22.0696  -25.8386 H   0  0  0  0  0  0  0  0  0  0  0  0
   -0.0130   22.6850  -26.5040 C   0  0  0  0  0  0  0  0  0  0  0  0
   -0.8170   23.6960  -25.9710 C   0  0  0  0  0  0  0  0  0  0  0  0
   -0.8330   23.8697  -24.8849 H   0  0  0  0  0  0  0  0  0  0  0  0
   -1.6010   24.4870  -26.8160 C   0  0  0  0  0  0  0  0  0  0  0  0
   -2.2463   25.2703  -26.3915 H   0  0  0  0  0  0  0  0  0  0  0  0
   -1.5670   24.2840  -28.2080 C   0  0  0  0  0  0  0  0  0  0  0  0
   -2.3910   25.0490  -29.1030 N   0  0  0  0  0  0  0  0  0  0  0  0
   -3.4110   24.6100  -29.7800 C   0  0  0  0  0  0  0  0  0  0  0  0
   -4.0980   23.0710  -29.6800 S   0  0  0  0  0  0  0  0  0  0  0  0
   -5.3090   23.5020  -30.7810 C   0  0  0  0  0  0  0  0  0  0  0  0
   -6.3490   22.6020  -31.3280 C   0  0  0  0  0  0  0  0  0  0  0  0
   -7.6940   22.8770  -31.0190 C   0  0  0  0  0  0  0  0  0  0  0  0
   -7.9408   23.7347  -30.3761 H   0  0  0  0  0  0  0  0  0  0  0  0
   -8.7190   22.0710  -31.5210 C   0  0  0  0  0  0  0  0  0  0  0  0
   -9.7670   22.3005  -31.2779 H   0  0  0  0  0  0  0  0  0  0  0  0
   -8.4160   20.9770  -32.3290 C   0  0  0  0  0  0  0  0  0  0  0  0
   -9.2250   20.3490  -32.7304 H   0  0  0  0  0  0  0  0  0  0  0  0
   -7.0870   20.6780  -32.6290 C   0  0  0  0  0  0  0  0  0  0  0  0
   -6.8537   19.8101  -33.2632 H   0  0  0  0  0  0  0  0  0  0  0  0
   -6.0460   21.4730  -32.1300 C   0  0  0  0  0  0  0  0  0  0  0  0
   -4.3570   20.9600  -32.4880 S   0  0  0  0  0  0  0  0  0  0  0  0
   -4.8740   19.5080  -33.4560 C   0  0  0  0  0  0  0  0  0  0  0  0
   -5.1632   18.6959  -32.7728 H   0  0  0  0  0  0  0  0  0  0  0  0
   -5.7318   19.7766  -34.0901 H   0  0  0  0  0  0  0  0  0  0  0  0
   -4.0395   19.1740  -34.0901 H   0  0  0  0  0  0  0  0  0  0  0  0
   -5.1460   24.7790  -31.1980 N   0  0  0  0  0  0  0  0  0  0  0  0
   -4.1070   25.3920  -30.6320 N   0  0  0  0  0  0  0  0  0  0  0  0
   -3.8640   26.3850  -30.8410 H   0  0  0  0  0  0  0  0  0  0  0  0
   -0.7840   23.2460  -28.7300 C   0  0  0  0  0  0  0  0  0  0  0  0
   -0.7851   23.0513  -29.8126 H   0  0  0  0  0  0  0  0  0  0  0  0
   -0.0010   22.4560  -27.8820 C   0  0  0  0  0  0  0  0  0  0  0  0
    0.6247   21.6538  -28.3004 H   0  0  0  0  0  0  0  0  0  0  0  0
  1  2  1  0
  2  3  2  0
  3  4  1  0
  3  5  1  0
  5  6  1  0
  5  7  2  0
  7  8  1  0
  8  9  2  0
  9 10  1  0
 10 11  1  0
 11 12  1  0
 12 13  2  0
 13 14  1  0
 13 15  1  0
 15 16  1  0
 15 17  2  0
 17 18  1  0
 17 19  1  0
 19 20  1  0
 19 21  2  0
 21 22  1  0
 22 23  1  0
 23 24  1  0
 23 25  1  0
 23 26  1  0
 11 27  2  0
 27 28  1  0
 28 29  1  0
  7 30  1  0
 30 31  1  0
 30 32  2  0
 32 33  1  0
 32  2  1  0
 28  9  1  0
 21 12  1  0
M  END
>  <UniqueID>  (25) 
25

>  <SMILES>  (25) 
CSc1ccccc1-c1n[nH]/c(=N/c2ccccc2)s1

>  <Energy>  (25) 
78.49509691362304

>  <Genealogy>  (25) 
CSc1ccccc1-c1n[nH]/c(=N/c2ccccc2)s1 (cis-trans isomerization)
CSc1ccccc1-c1n[nH]/c(=N/c2ccccc2)s1 (3D coordinates assigned)
CSc1ccccc1-c1n[nH]/c(=N/c2ccccc2)s1 (optimized conformer: 78.49509691362304 kcal/mol)

>  <smiles>  (25) 
CSc1ccccc1-c1n[nH]c(=Nc2ccccc2)s1

>  <score_type>  (25) 
oracle

>  <origin>  (25) 
adgpu

>  <m_score__min__energy>  (25) 
-8.4000000000000004

>  <m_primary>  (25) 
energy

$$$$
25:0
     RDKit          3D

 28 30  0  0  0  0  0  0  0  0999 V2000
   -9.4960   19.3930  -32.9770 N   0  0  0  0  0  0  0  0  0  0  0  0
   -8.5140   20.2960  -32.4610 C   0  0  0  0  0  0  0  0  0  0  0  0
   -8.8540   21.2100  -31.4600 C   0  0  0  0  0  0  0  0  0  0  0  0
   -7.8990   22.0960  -30.9620 C   0  0  0  0  0  0  0  0  0  0  0  0
   -6.5830   22.0870  -31.4550 C   0  0  0  0  0  0  0  0  0  0  0  0
   -5.6460   23.1220  -30.9640 C   0  0  0  0  0  0  0  0  0  0  0  0
   -5.3710   24.2780  -31.6000 N   0  0  0  0  0  0  0  0  0  0  0  0
   -4.5200   24.9380  -30.8300 N   0  0  0  0  0  0  0  0  0  0  0  0
   -4.3130   24.1620  -29.7500 C   0  0  0  0  0  0  0  0  0  0  0  0
   -3.4320   24.5160  -28.6330 C   0  0  0  0  0  0  0  0  0  0  0  0
   -3.7840   24.5440  -27.2900 C   0  0  0  0  0  0  0  0  0  0  0  0
   -2.7270   24.9200  -26.4520 C   0  0  0  0  0  0  0  0  0  0  0  0
   -1.5450   25.1880  -27.1320 C   0  0  0  0  0  0  0  0  0  0  0  0
   -1.8150   24.9570  -28.7760 S   0  0  0  0  0  0  0  0  0  0  0  0
   -5.0020   23.0500  -29.8230 O   0  0  0  0  0  0  0  0  0  0  0  0
   -6.2220   21.1340  -32.4410 C   0  0  0  0  0  0  0  0  0  0  0  0
   -4.8660   20.9940  -32.8930 N   0  0  0  0  0  0  0  0  0  0  0  0
   -4.2140   19.9700  -32.6030 O   0  0  0  0  0  0  0  0  0  0  0  0
   -4.2030   22.0800  -33.4150 O   0  0  0  0  0  0  0  0  0  0  0  0
   -7.2010   20.2600  -32.9460 C   0  0  0  0  0  0  0  0  0  0  0  0
  -10.0820   18.8160  -32.3320 H   0  0  0  0  0  0  0  0  0  0  0  0
   -9.6460   19.2940  -34.0050 H   0  0  0  0  0  0  0  0  0  0  0  0
   -9.8797   21.2307  -31.0630 H   0  0  0  0  0  0  0  0  0  0  0  0
   -8.1792   22.8104  -30.1739 H   0  0  0  0  0  0  0  0  0  0  0  0
   -4.7905   24.2961  -26.9220 H   0  0  0  0  0  0  0  0  0  0  0  0
   -2.8232   24.9960  -25.3589 H   0  0  0  0  0  0  0  0  0  0  0  0
   -0.5947   25.4984  -26.6732 H   0  0  0  0  0  0  0  0  0  0  0  0
   -6.9319   19.5390  -33.7319 H   0  0  0  0  0  0  0  0  0  0  0  0
  1  2  1  0
  2  3  2  0
  3  4  1  0
  4  5  2  0
  5  6  1  0
  6  7  2  0
  7  8  1  0
  8  9  2  0
  9 10  1  0
 10 11  2  0
 11 12  1  0
 12 13  2  0
 13 14  1  0
  9 15  1  0
  5 16  1  0
 16 17  1  0
 17 18  2  0
 17 19  1  0
 16 20  2  0
 20  2  1  0
 15  6  1  0
 14 10  1  0
  1 21  1  0
  1 22  1  0
  3 23  1  0
  4 24  1  0
 11 25  1  0
 12 26  1  0
 13 27  1  0
 20 28  1  0
M  CHG  2  17   1  19  -1
M  END
>  <UniqueID>  (26) 
26

>  <SMILES>  (26) 
Nc1ccc(-c2nnc(-c3cccs3)o2)c([N+](=O)[O-])c1

>  <Energy>  (26) 
97.62568719431069

>  <Genealogy>  (26) 
Nc1ccc(-c2nnc(-c3cccs3)o2)c([N+](=O)[O-])c1 (3D coordinates assigned)
Nc1ccc(-c2nnc(-c3cccs3)o2)c([N+](=O)[O-])c1 (optimized conformer: 97.62568719431069 kcal/mol)

>  <smiles>  (26) 
Nc1ccc(-c2nnc(-c3cccs3)o2)c([N+](=O)[O-])c1

>  <score_type>  (26) 
oracle

>  <origin>  (26) 
adgpu

>  <m_score__min__energy>  (26) 
-7.6799999999999997

>  <m_primary>  (26) 
energy

$$$$
26:0
     RDKit          3D

 37 39  0  0  0  0  0  0  0  0999 V2000
   -3.6510   24.4950  -27.1750 C   0  0  0  0  0  0  0  0  0  0  0  0
   -2.9980   24.4110  -28.4370 O   0  0  0  0  0  0  0  0  0  0  0  0
   -3.2560   23.4240  -29.4020 C   0  0  0  0  0  0  0  0  0  0  0  0
   -2.9310   22.0710  -29.1920 C   0  0  0  0  0  0  0  0  0  0  0  0
   -3.1930   21.1200  -30.1810 C   0  0  0  0  0  0  0  0  0  0  0  0
   -3.7760   21.5010  -31.3960 C   0  0  0  0  0  0  0  0  0  0  0  0
   -4.0410   20.4790  -32.4340 C   0  0  0  0  0  0  0  0  0  0  0  0
   -3.0610   19.9180  -33.1770 N   0  0  0  0  0  0  0  0  0  0  0  0
   -3.6510   19.0430  -33.9760 N   0  0  0  0  0  0  0  0  0  0  0  0
   -4.9700   19.0750  -33.7240 C   0  0  0  0  0  0  0  0  0  0  0  0
   -6.0740   18.2190  -34.5830 S   0  0  0  0  0  0  0  0  0  0  0  0
   -5.2590   19.9720  -32.7570 N   0  0  0  0  0  0  0  0  0  0  0  0
   -6.5570   20.3940  -32.3060 C   0  0  0  0  0  0  0  0  0  0  0  0
   -7.4780   19.4530  -31.8180 C   0  0  0  0  0  0  0  0  0  0  0  0
   -8.7290   19.8680  -31.3520 C   0  0  0  0  0  0  0  0  0  0  0  0
   -9.0680   21.2240  -31.3710 C   0  0  0  0  0  0  0  0  0  0  0  0
   -8.1580   22.1660  -31.8580 C   0  0  0  0  0  0  0  0  0  0  0  0
   -6.9070   21.7540  -32.3260 C   0  0  0  0  0  0  0  0  0  0  0  0
   -4.1300   22.8450  -31.5930 C   0  0  0  0  0  0  0  0  0  0  0  0
   -3.8570   23.8130  -30.6090 C   0  0  0  0  0  0  0  0  0  0  0  0
   -4.1670   25.1700  -30.7930 O   0  0  0  0  0  0  0  0  0  0  0  0
   -5.4200   25.7630  -30.4620 C   0  0  0  0  0  0  0  0  0  0  0  0
   -2.9072   24.3993  -26.3702 H   0  0  0  0  0  0  0  0  0  0  0  0
   -4.1606   25.4661  -27.0898 H   0  0  0  0  0  0  0  0  0  0  0  0
   -4.3898   23.6845  -27.0898 H   0  0  0  0  0  0  0  0  0  0  0  0
   -2.4680   21.7606  -28.2437 H   0  0  0  0  0  0  0  0  0  0  0  0
   -2.9396   20.0643  -30.0042 H   0  0  0  0  0  0  0  0  0  0  0  0
   -3.1560   18.4610  -34.6870 H   0  0  0  0  0  0  0  0  0  0  0  0
   -7.2141   18.3852  -31.8023 H   0  0  0  0  0  0  0  0  0  0  0  0
   -9.4469   19.1272  -30.9702 H   0  0  0  0  0  0  0  0  0  0  0  0
  -10.0518   21.5498  -31.0023 H   0  0  0  0  0  0  0  0  0  0  0  0
   -8.4264   23.2327  -31.8731 H   0  0  0  0  0  0  0  0  0  0  0  0
   -6.1940   22.4977  -32.7114 H   0  0  0  0  0  0  0  0  0  0  0  0
   -4.6266   23.1449  -32.5276 H   0  0  0  0  0  0  0  0  0  0  0  0
   -5.5246   25.8125  -29.3681 H   0  0  0  0  0  0  0  0  0  0  0  0
   -5.4670   26.7789  -30.8812 H   0  0  0  0  0  0  0  0  0  0  0  0
   -6.2354   25.1553  -30.8812 H   0  0  0  0  0  0  0  0  0  0  0  0
  1  2  1  0
  2  3  1  0
  3  4  2  0
  4  5  1  0
  5  6  2  0
  6  7  1  0
  7  8  2  0
  8  9  1  0
  9 10  1  0
 10 11  2  0
 10 12  1  0
 12 13  1  0
 13 14  2  0
 14 15  1  0
 15 16  2  0
 16 17  1  0
 17 18  2  0
  6 19  1  0
 19 20  2  0
 20 21  1  0
 21 22  1  0
 20  3  1  0
 12  7  1  0
 18 13  1  0
  1 23  1  0
  1 24  1  0
  1 25  1  0
  4 26  1  0
  5 27  1  0
  9 28  1  0
 14 29  1  0
 15 30  1  0
 16 31  1  0
 17 32  1  0
 18 33  1  0
 19 34  1  0
 22 35  1  0
 22 36  1  0
 22 37  1  0
M  END
>  <UniqueID>  (27) 
27

>  <SMILES>  (27) 
COc1ccc(-c2n[nH]c(=S)n2-c2ccccc2)cc1OC

>  <Energy>  (27) 
83.97333654758783

>  <Genealogy>  (27) 
COc1ccc(-c2n[nH]c(=S)n2-c2ccccc2)cc1OC (3D coordinates assigned)
COc1ccc(-c2n[nH]c(=S)n2-c2ccccc2)cc1OC (optimized conformer: 83.97333654758783 kcal/mol)

>  <smiles>  (27) 
COc1ccc(-c2n[nH]c(=S)n2-c2ccccc2)cc1OC

>  <score_type>  (27) 
oracle

>  <origin>  (27) 
adgpu

>  <m_score__min__energy>  (27) 
-7.9800000000000004

>  <m_primary>  (27) 
energy

$$$$
27:0
     RDKit          3D

 31 32  0  0  0  0  0  0  0  0999 V2000
   -5.6410   23.2480  -29.5940 C   0  0  0  0  0  0  0  0  0  0  0  0
   -4.9310   23.9210  -31.0790 S   0  0  0  0  0  0  0  0  0  0  0  0
   -4.9300   25.4230  -31.0120 O   0  0  0  0  0  0  0  0  0  0  0  0
   -3.5130   23.4440  -31.2130 O   0  0  0  0  0  0  0  0  0  0  0  0
   -5.8370   23.3900  -32.4590 N   0  0  0  0  0  0  0  0  0  0  0  0
   -7.0800   22.6790  -32.3480 C   0  0  0  0  0  0  0  0  0  0  0  0
   -8.2850   23.3770  -32.1560 C   0  0  0  0  0  0  0  0  0  0  0  0
   -9.4820   22.6850  -31.9560 C   0  0  0  0  0  0  0  0  0  0  0  0
   -9.4870   21.2900  -31.9320 C   0  0  0  0  0  0  0  0  0  0  0  0
   -8.2990   20.5830  -32.1230 C   0  0  0  0  0  0  0  0  0  0  0  0
   -7.0980   21.2640  -32.3560 C   0  0  0  0  0  0  0  0  0  0  0  0
   -5.9380   20.5080  -32.5790 O   0  0  0  0  0  0  0  0  0  0  0  0
   -5.9240   19.1670  -32.9940 C   0  0  0  0  0  0  0  0  0  0  0  0
   -6.0940   18.1650  -32.0320 C   0  0  0  0  0  0  0  0  0  0  0  0
   -6.0790   16.8170  -32.4030 C   0  0  0  0  0  0  0  0  0  0  0  0
   -5.9010   16.4610  -33.7430 C   0  0  0  0  0  0  0  0  0  0  0  0
   -5.8770   14.7700  -34.2080 Cl  0  0  0  0  0  0  0  0  0  0  0  0
   -5.7470   17.4560  -34.7140 C   0  0  0  0  0  0  0  0  0  0  0  0
   -5.7650   18.8040  -34.3460 C   0  0  0  0  0  0  0  0  0  0  0  0
   -5.1588   23.7050  -28.7173 H   0  0  0  0  0  0  0  0  0  0  0  0
   -6.7195   23.4632  -29.5731 H   0  0  0  0  0  0  0  0  0  0  0  0
   -5.4838   22.1595  -29.5731 H   0  0  0  0  0  0  0  0  0  0  0  0
   -5.5190   23.7250  -33.3950 H   0  0  0  0  0  0  0  0  0  0  0  0
   -8.2854   24.4770  -32.1633 H   0  0  0  0  0  0  0  0  0  0  0  0
  -10.4213   23.2404  -31.8173 H   0  0  0  0  0  0  0  0  0  0  0  0
  -10.4284   20.7468  -31.7623 H   0  0  0  0  0  0  0  0  0  0  0  0
   -8.3062   19.4835  -32.0903 H   0  0  0  0  0  0  0  0  0  0  0  0
   -6.2404   18.4397  -30.9770 H   0  0  0  0  0  0  0  0  0  0  0  0
   -6.2074   16.0357  -31.6394 H   0  0  0  0  0  0  0  0  0  0  0  0
   -5.6115   17.1768  -35.7693 H   0  0  0  0  0  0  0  0  0  0  0  0
   -5.6547   19.5838  -35.1140 H   0  0  0  0  0  0  0  0  0  0  0  0
  1  2  1  0
  2  3  2  0
  2  4  2  0
  2  5  1  0
  5  6  1  0
  6  7  2  0
  7  8  1  0
  8  9  2  0
  9 10  1  0
 10 11  2  0
 11 12  1  0
 12 13  1  0
 13 14  2  0
 14 15  1  0
 15 16  2  0
 16 17  1  0
 16 18  1  0
 18 19  2  0
 11  6  1  0
 19 13  1  0
  1 20  1  0
  1 21  1  0
  1 22  1  0
  5 23  1  0
  7 24  1  0
  8 25  1  0
  9 26  1  0
 10 27  1  0
 14 28  1  0
 15 29  1  0
 18 30  1  0
 19 31  1  0
M  END
>  <UniqueID>  (28) 
28

>  <SMILES>  (28) 
CS(=O)(=O)Nc1ccccc1Oc1ccc(Cl)cc1

>  <Energy>  (28) 
38.26376520895285

>  <Genealogy>  (28) 
CS(=O)(=O)Nc1ccccc1Oc1ccc(Cl)cc1 (3D coordinates assigned)
CS(=O)(=O)Nc1ccccc1Oc1ccc(Cl)cc1 (optimized conformer: 38.26376520895285 kcal/mol)

>  <smiles>  (28) 
CS(=O)(=O)Nc1ccccc1Oc1ccc(Cl)cc1

>  <score_type>  (28) 
oracle

>  <origin>  (28) 
adgpu

>  <m_score__min__energy>  (28) 
-8.1500000000000004

>  <m_primary>  (28) 
energy

$$$$
28:0
     RDKit          3D

 48 51  0  0  0  0  0  0  0  0999 V2000
   -1.2460   26.3340  -27.7020 C   0  0  0  0  0  0  0  0  0  0  0  0
   -1.5710   25.7630  -28.9650 O   0  0  0  0  0  0  0  0  0  0  0  0
   -1.6300   24.3840  -29.2280 C   0  0  0  0  0  0  0  0  0  0  0  0
   -2.7430   23.7950  -29.8510 C   0  0  0  0  0  0  0  0  0  0  0  0
   -2.7780   22.4180  -30.1090 C   0  0  0  0  0  0  0  0  0  0  0  0
   -3.9670   21.8220  -30.7700 C   0  0  0  0  0  0  0  0  0  0  0  0
   -3.9420   20.6160  -31.3780 N   0  0  0  0  0  0  0  0  0  0  0  0
   -5.1990   20.4330  -31.8280 C   0  0  0  0  0  0  0  0  0  0  0  0
   -5.5940   19.2600  -32.6350 C   0  0  0  0  0  0  0  0  0  0  0  0
   -5.3760   19.2310  -34.0240 C   0  0  0  0  0  0  0  0  0  0  0  0
   -5.7350   18.1040  -34.7700 C   0  0  0  0  0  0  0  0  0  0  0  0
   -6.2970   16.9930  -34.1350 C   0  0  0  0  0  0  0  0  0  0  0  0
   -6.4940   17.0050  -32.7530 C   0  0  0  0  0  0  0  0  0  0  0  0
   -6.1380   18.1300  -32.0020 C   0  0  0  0  0  0  0  0  0  0  0  0
   -5.9730   21.5290  -31.4720 C   0  0  0  0  0  0  0  0  0  0  0  0
   -7.4280   21.7170  -31.6390 C   0  0  0  0  0  0  0  0  0  0  0  0
   -8.0470   22.9690  -31.7980 C   0  0  0  0  0  0  0  0  0  0  0  0
   -9.4200   22.8940  -31.9740 C   0  0  0  0  0  0  0  0  0  0  0  0
   -9.8610   21.2730  -31.9530 S   0  0  0  0  0  0  0  0  0  0  0  0
   -8.3190   20.6500  -31.7180 C   0  0  0  0  0  0  0  0  0  0  0  0
   -5.1870   22.4010  -30.8170 N   0  0  0  0  0  0  0  0  0  0  0  0
   -1.6880   21.6260  -29.7220 C   0  0  0  0  0  0  0  0  0  0  0  0
   -0.5600   22.1940  -29.0940 C   0  0  0  0  0  0  0  0  0  0  0  0
    0.5290   21.3950  -28.7110 O   0  0  0  0  0  0  0  0  0  0  0  0
    0.4580   20.0080  -28.3970 C   0  0  0  0  0  0  0  0  0  0  0  0
   -0.5350   23.5910  -28.8480 C   0  0  0  0  0  0  0  0  0  0  0  0
    0.5420   24.2570  -28.2310 O   0  0  0  0  0  0  0  0  0  0  0  0
    1.1700   23.9020  -27.0050 C   0  0  0  0  0  0  0  0  0  0  0  0
   -1.6174   25.6815  -26.8981 H   0  0  0  0  0  0  0  0  0  0  0  0
   -0.1542   26.4366  -27.6160 H   0  0  0  0  0  0  0  0  0  0  0  0
   -1.7153   27.3251  -27.6160 H   0  0  0  0  0  0  0  0  0  0  0  0
   -3.5985   24.4231  -30.1402 H   0  0  0  0  0  0  0  0  0  0  0  0
   -4.9214   20.0981  -34.5255 H   0  0  0  0  0  0  0  0  0  0  0  0
   -5.5748   18.0919  -35.8582 H   0  0  0  0  0  0  0  0  0  0  0  0
   -6.5840   16.1094  -34.7240 H   0  0  0  0  0  0  0  0  0  0  0  0
   -6.9303   16.1275  -32.2534 H   0  0  0  0  0  0  0  0  0  0  0  0
   -6.2845   18.1299  -30.9118 H   0  0  0  0  0  0  0  0  0  0  0  0
   -7.4936   23.9195  -31.7841 H   0  0  0  0  0  0  0  0  0  0  0  0
  -10.1019   23.7472  -32.1046 H   0  0  0  0  0  0  0  0  0  0  0  0
   -8.0583   19.5842  -31.6401 H   0  0  0  0  0  0  0  0  0  0  0  0
   -5.4900   23.2980  -30.3800 H   0  0  0  0  0  0  0  0  0  0  0  0
   -1.7128   20.5427  -29.9114 H   0  0  0  0  0  0  0  0  0  0  0  0
    0.4514   19.8792  -27.3046 H   0  0  0  0  0  0  0  0  0  0  0  0
   -0.4631   19.5825  -28.8219 H   0  0  0  0  0  0  0  0  0  0  0  0
    1.3308   19.4907  -28.8219 H   0  0  0  0  0  0  0  0  0  0  0  0
    0.5538   24.2504  -26.1630 H   0  0  0  0  0  0  0  0  0  0  0  0
    1.2790   22.8087  -26.9520 H   0  0  0  0  0  0  0  0  0  0  0  0
    2.1629   24.3724  -26.9520 H   0  0  0  0  0  0  0  0  0  0  0  0
  1  2  1  0
  2  3  1  0
  3  4  2  0
  4  5  1  0
  5  6  1  0
  6  7  2  0
  7  8  1  0
  8  9  1  0
  9 10  2  0
 10 11  1  0
 11 12  2  0
 12 13  1  0
 13 14  2  0
  8 15  2  0
 15 16  1  0
 16 17  1  0
 17 18  2  0
 18 19  1  0
 19 20  1  0
 15 21  1  0
  5 22  2  0
 22 23  1  0
 23 24  1  0
 24 25  1  0
 23 26  2  0
 26 27  1  0
 27 28  1  0
 26  3  1  0
 21  6  1  0
 14  9  1  0
 20 16  2  0
  1 29  1  0
  1 30  1  0
  1 31  1  0
  4 32  1  0
 10 33  1  0
 11 34  1  0
 12 35  1  0
 13 36  1  0
 14 37  1  0
 17 38  1  0
 18 39  1  0
 20 40  1  0
 21 41  1  0
 22 42  1  0
 25 43  1  0
 25 44  1  0
 25 45  1  0
 28 46  1  0
 28 47  1  0
 28 48  1  0
M  END
>  <UniqueID>  (29) 
29

>  <SMILES>  (29) 
COc1cc(-c2nc(-c3ccccc3)c(-c3ccsc3)[nH]2)cc(OC)c1OC

>  <Energy>  (29) 
116.95127849318774

>  <Genealogy>  (29) 
COc1cc(-c2nc(-c3ccccc3)c(-c3ccsc3)[nH]2)cc(OC)c1OC (3D coordinates assigned)
COc1cc(-c2nc(-c3ccccc3)c(-c3ccsc3)[nH]2)cc(OC)c1OC (optimized conformer: 116.95127849318774 kcal/mol)

>  <smiles>  (29) 
COc1cc(-c2nc(-c3ccccc3)c(-c3ccsc3)[nH]2)cc(OC)c1OC

>  <score_type>  (29) 
oracle

>  <origin>  (29) 
adgpu

>  <m_score__min__energy>  (29) 
-8.4199999999999999

>  <m_primary>  (29) 
energy

$$$$
29:0
     RDKit          3D

 34 35  0  0  0  0  0  0  0  0999 V2000
   -8.7160   18.8080  -32.3470 C   0  0  0  0  0  0  0  0  0  0  0  0
   -8.7250   20.3140  -32.5870 C   0  0  0  0  0  0  0  0  0  0  0  0
   -8.5400   21.0420  -31.3310 N   0  0  0  0  0  0  0  0  0  0  0  0
   -7.7400   22.0520  -31.1670 C   0  0  0  0  0  0  0  0  0  0  0  0
   -6.9690   22.5120  -32.1900 N   0  0  0  0  0  0  0  0  0  0  0  0
   -6.1350   23.5690  -32.0230 C   0  0  0  0  0  0  0  0  0  0  0  0
   -6.0580   24.2150  -30.7810 C   0  0  0  0  0  0  0  0  0  0  0  0
   -5.1550   25.3690  -30.5620 C   0  0  0  0  0  0  0  0  0  0  0  0
   -5.6480   26.5130  -30.3770 O   0  0  0  0  0  0  0  0  0  0  0  0
   -3.7300   25.2180  -30.4990 N   0  0  0  0  0  0  0  0  0  0  0  0
   -3.0140   24.2400  -29.7290 C   0  0  0  0  0  0  0  0  0  0  0  0
   -3.3610   22.8780  -29.7770 C   0  0  0  0  0  0  0  0  0  0  0  0
   -2.6440   21.9400  -29.0310 C   0  0  0  0  0  0  0  0  0  0  0  0
   -1.5650   22.3500  -28.2470 C   0  0  0  0  0  0  0  0  0  0  0  0
   -1.1960   23.6960  -28.2100 C   0  0  0  0  0  0  0  0  0  0  0  0
   -1.9140   24.6520  -28.9560 C   0  0  0  0  0  0  0  0  0  0  0  0
   -1.5710   26.0140  -28.9490 O   0  0  0  0  0  0  0  0  0  0  0  0
   -0.8700   26.6620  -27.8930 C   0  0  0  0  0  0  0  0  0  0  0  0
   -6.8440   23.7110  -29.7360 C   0  0  0  0  0  0  0  0  0  0  0  0
   -7.6660   22.6520  -29.9500 N   0  0  0  0  0  0  0  0  0  0  0  0
   -8.7148   18.6091  -31.2651 H   0  0  0  0  0  0  0  0  0  0  0  0
   -9.6115   18.3589  -32.8014 H   0  0  0  0  0  0  0  0  0  0  0  0
   -7.8152   18.3697  -32.8014 H   0  0  0  0  0  0  0  0  0  0  0  0
   -7.9094   20.5739  -33.2779 H   0  0  0  0  0  0  0  0  0  0  0  0
   -9.6968   20.5963  -33.0181 H   0  0  0  0  0  0  0  0  0  0  0  0
   -5.5181   23.9198  -32.8635 H   0  0  0  0  0  0  0  0  0  0  0  0
   -4.2018   22.5496  -30.4056 H   0  0  0  0  0  0  0  0  0  0  0  0
   -2.9298   20.8782  -29.0615 H   0  0  0  0  0  0  0  0  0  0  0  0
   -1.0037   21.6108  -27.6566 H   0  0  0  0  0  0  0  0  0  0  0  0
   -0.3403   24.0120  -27.5953 H   0  0  0  0  0  0  0  0  0  0  0  0
   -1.2544   26.3067  -26.9255 H   0  0  0  0  0  0  0  0  0  0  0  0
    0.2027   26.4305  -27.9687 H   0  0  0  0  0  0  0  0  0  0  0  0
   -1.0166   27.7495  -27.9687 H   0  0  0  0  0  0  0  0  0  0  0  0
   -6.7948   24.1747  -28.7397 H   0  0  0  0  0  0  0  0  0  0  0  0
  1  2  1  0
  2  3  1  0
  3  4  2  3
  4  5  1  0
  5  6  2  0
  6  7  1  0
  7  8  1  0
  8  9  2  0
  8 10  1  0
 10 11  1  0
 11 12  2  0
 12 13  1  0
 13 14  2  0
 14 15  1  0
 15 16  2  0
 16 17  1  0
 17 18  1  0
  7 19  2  0
 19 20  1  0
 20  4  1  0
 16 11  1  0
  1 21  1  0
  1 22  1  0
  1 23  1  0
  2 24  1  0
  2 25  1  0
  6 26  1  0
 12 27  1  0
 13 28  1  0
 14 29  1  0
 15 30  1  0
 18 31  1  0
 18 32  1  0
 18 33  1  0
 19 34  1  0
M  CHG  2  10  -1  20  -1
M  END
>  <UniqueID>  (30) 
30

>  <SMILES>  (30) 
CCN=c1ncc(C(=O)[N-]c2ccccc2OC)c[n-]1

>  <Energy>  (30) 
38.996925052931914

>  <Genealogy>  (30) 
CCN=c1ncc(C(=O)[N-]c2ccccc2OC)c[n-]1 (protonated)
CCN=c1ncc(C(=O)[N-]c2ccccc2OC)c[n-]1 (3D coordinates assigned)
CCN=c1ncc(C(=O)[N-]c2ccccc2OC)c[n-]1 (optimized conformer: 38.996925052931914 kcal/mol)

>  <smiles>  (30) 
CCN=c1ncc(C(=O)Nc2ccccc2OC)c[nH]1

>  <score_type>  (30) 
oracle

>  <origin>  (30) 
adgpu

>  <m_score__min__energy>  (30) 
-9.4499999999999993

>  <m_primary>  (30) 
energy

$$$$
30:0
     RDKit          3D

 43 45  0  0  0  0  0  0  0  0999 V2000
   -0.8540   18.8490  -27.8180 C   0  0  0  0  0  0  0  0  0  0  0  0
   -1.4850   20.1620  -28.1790 C   0  0  0  0  0  0  0  0  0  0  0  0
   -1.5840   20.5650  -29.5180 C   0  0  0  0  0  0  0  0  0  0  0  0
   -2.1650   21.7950  -29.8430 C   0  0  0  0  0  0  0  0  0  0  0  0
   -2.6400   22.6420  -28.8330 C   0  0  0  0  0  0  0  0  0  0  0  0
   -3.3080   24.2190  -29.2520 S   0  0  0  0  0  0  0  0  0  0  0  0
   -4.5090   24.4720  -28.3810 O   0  0  0  0  0  0  0  0  0  0  0  0
   -2.2970   25.3100  -29.0270 O   0  0  0  0  0  0  0  0  0  0  0  0
   -3.8000   24.2200  -30.9150 N   0  0  0  0  0  0  0  0  0  0  0  0
   -4.8610   23.4100  -31.4330 C   0  0  0  0  0  0  0  0  0  0  0  0
   -6.2100   23.5760  -31.1580 C   0  0  0  0  0  0  0  0  0  0  0  0
   -6.7930   24.6580  -30.2970 C   0  0  0  0  0  0  0  0  0  0  0  0
   -6.8780   22.4820  -31.5990 N   0  0  0  0  0  0  0  0  0  0  0  0
   -8.3060   22.2040  -31.3980 C   0  0  0  0  0  0  0  0  0  0  0  0
   -6.0030   21.6400  -32.1500 N   0  0  0  0  0  0  0  0  0  0  0  0
   -6.2860   20.3000  -32.5850 C   0  0  0  0  0  0  0  0  0  0  0  0
   -5.8060   19.8430  -33.8220 C   0  0  0  0  0  0  0  0  0  0  0  0
   -6.0550   18.5290  -34.2320 C   0  0  0  0  0  0  0  0  0  0  0  0
   -6.7750   17.6610  -33.4030 C   0  0  0  0  0  0  0  0  0  0  0  0
   -7.2450   18.1090  -32.1620 C   0  0  0  0  0  0  0  0  0  0  0  0
   -7.0000   19.4240  -31.7520 C   0  0  0  0  0  0  0  0  0  0  0  0
   -4.7750   22.1870  -32.0690 C   0  0  0  0  0  0  0  0  0  0  0  0
   -3.7230   21.6330  -32.4860 O   0  0  0  0  0  0  0  0  0  0  0  0
   -2.5450   22.2410  -27.4940 C   0  0  0  0  0  0  0  0  0  0  0  0
   -1.9670   21.0080  -27.1690 C   0  0  0  0  0  0  0  0  0  0  0  0
   -0.8079   18.7531  -26.7232 H   0  0  0  0  0  0  0  0  0  0  0  0
   -1.4553   18.0268  -28.2331 H   0  0  0  0  0  0  0  0  0  0  0  0
    0.1637   18.8048  -28.2331 H   0  0  0  0  0  0  0  0  0  0  0  0
   -1.2032   19.9111  -30.3164 H   0  0  0  0  0  0  0  0  0  0  0  0
   -2.2495   22.0989  -30.8968 H   0  0  0  0  0  0  0  0  0  0  0  0
   -6.6532   24.3985  -29.2372 H   0  0  0  0  0  0  0  0  0  0  0  0
   -6.2859   25.6103  -30.5113 H   0  0  0  0  0  0  0  0  0  0  0  0
   -7.8672   24.7583  -30.5113 H   0  0  0  0  0  0  0  0  0  0  0  0
   -8.5232   22.1617  -30.3205 H   0  0  0  0  0  0  0  0  0  0  0  0
   -8.9038   23.0026  -31.8615 H   0  0  0  0  0  0  0  0  0  0  0  0
   -8.5606   21.2394  -31.8615 H   0  0  0  0  0  0  0  0  0  0  0  0
   -5.2320   20.5204  -34.4714 H   0  0  0  0  0  0  0  0  0  0  0  0
   -5.6848   18.1777  -35.2064 H   0  0  0  0  0  0  0  0  0  0  0  0
   -6.9715   16.6280  -33.7258 H   0  0  0  0  0  0  0  0  0  0  0  0
   -7.8076   17.4259  -31.5087 H   0  0  0  0  0  0  0  0  0  0  0  0
   -7.3674   19.7721  -30.7754 H   0  0  0  0  0  0  0  0  0  0  0  0
   -2.9253   22.8962  -26.6965 H   0  0  0  0  0  0  0  0  0  0  0  0
   -1.8903   20.7008  -26.1156 H   0  0  0  0  0  0  0  0  0  0  0  0
  1  2  1  0
  2  3  2  0
  3  4  1  0
  4  5  2  0
  5  6  1  0
  6  7  2  0
  6  8  2  0
  6  9  1  0
  9 10  1  0
 10 11  2  0
 11 12  1  0
 11 13  1  0
 13 14  1  0
 13 15  1  0
 15 16  1  0
 16 17  2  0
 17 18  1  0
 18 19  2  0
 19 20  1  0
 20 21  2  0
 15 22  1  0
 22 23  2  0
  5 24  1  0
 24 25  2  0
 25  2  1  0
 22 10  1  0
 21 16  1  0
  1 26  1  0
  1 27  1  0
  1 28  1  0
  3 29  1  0
  4 30  1  0
 12 31  1  0
 12 32  1  0
 12 33  1  0
 14 34  1  0
 14 35  1  0
 14 36  1  0
 17 37  1  0
 18 38  1  0
 19 39  1  0
 20 40  1  0
 21 41  1  0
 24 42  1  0
 25 43  1  0
M  CHG  1   9  -1
M  END
>  <UniqueID>  (31) 
31

>  <SMILES>  (31) 
Cc1ccc(S(=O)(=O)[N-]c2c(C)n(C)n(-c3ccccc3)c2=O)cc1

>  <Energy>  (31) 
89.36236193281123

>  <Genealogy>  (31) 
Cc1ccc(S(=O)(=O)[N-]c2c(C)n(C)n(-c3ccccc3)c2=O)cc1 (protonated)
Cc1ccc(S(=O)(=O)[N-]c2c(C)n(C)n(-c3ccccc3)c2=O)cc1 (3D coordinates assigned)
Cc1ccc(S(=O)(=O)[N-]c2c(C)n(C)n(-c3ccccc3)c2=O)cc1 (optimized conformer: 89.36236193281123 kcal/mol)

>  <smiles>  (31) 
Cc1ccc(S(=O)(=O)Nc2c(C)n(C)n(-c3ccccc3)c2=O)cc1

>  <score_type>  (31) 
oracle

>  <origin>  (31) 
adgpu

>  <m_score__min__energy>  (31) 
-9.9700000000000006

>  <m_primary>  (31) 
energy

$$$$
31:0
     RDKit          3D

 43 45  0  0  0  0  0  0  0  0999 V2000
   -5.5920   16.4780  -34.2010 C   0  0  0  0  0  0  0  0  0  0  0  0
   -4.7870   17.7320  -34.0200 C   0  0  0  0  0  0  0  0  0  0  0  0
   -5.2940   19.0150  -33.8670 C   0  0  0  0  0  0  0  0  0  0  0  0
   -6.6800   19.3970  -33.8690 N   0  0  0  0  0  0  0  0  0  0  0  0
   -7.5430   19.8600  -32.4380 S   0  0  0  0  0  0  0  0  0  0  0  0
   -9.0110   19.9340  -32.7520 O   0  0  0  0  0  0  0  0  0  0  0  0
   -7.3220   18.8250  -31.3710 O   0  0  0  0  0  0  0  0  0  0  0  0
   -6.9510   21.4110  -31.8510 C   0  0  0  0  0  0  0  0  0  0  0  0
   -5.7040   21.4890  -31.2170 C   0  0  0  0  0  0  0  0  0  0  0  0
   -5.2200   22.7210  -30.7650 C   0  0  0  0  0  0  0  0  0  0  0  0
   -5.9790   23.8920  -30.9360 C   0  0  0  0  0  0  0  0  0  0  0  0
   -5.4800   25.1580  -30.4670 N   0  0  0  0  0  0  0  0  0  0  0  0
   -6.1640   25.8690  -29.7020 O   0  0  0  0  0  0  0  0  0  0  0  0
   -4.2330   25.6000  -30.8450 O   0  0  0  0  0  0  0  0  0  0  0  0
   -7.2330   23.8040  -31.5690 C   0  0  0  0  0  0  0  0  0  0  0  0
   -7.7150   22.5720  -32.0200 C   0  0  0  0  0  0  0  0  0  0  0  0
   -4.1810   19.8140  -33.6760 C   0  0  0  0  0  0  0  0  0  0  0  0
   -4.1740   21.0660  -33.5410 O   0  0  0  0  0  0  0  0  0  0  0  0
   -3.0720   19.0470  -33.6920 N   0  0  0  0  0  0  0  0  0  0  0  0
   -1.7210   19.5270  -33.5540 C   0  0  0  0  0  0  0  0  0  0  0  0
   -1.1330   20.2860  -34.5790 C   0  0  0  0  0  0  0  0  0  0  0  0
    0.1860   20.7330  -34.4560 C   0  0  0  0  0  0  0  0  0  0  0  0
    0.9280   20.4190  -33.3130 C   0  0  0  0  0  0  0  0  0  0  0  0
    0.3510   19.6560  -32.2930 C   0  0  0  0  0  0  0  0  0  0  0  0
   -0.9670   19.2080  -32.4140 C   0  0  0  0  0  0  0  0  0  0  0  0
   -3.4390   17.7800  -33.8760 N   0  0  0  0  0  0  0  0  0  0  0  0
   -2.5300   16.6310  -33.9000 C   0  0  0  0  0  0  0  0  0  0  0  0
   -5.8562   16.0665  -33.2157 H   0  0  0  0  0  0  0  0  0  0  0  0
   -6.5107   16.7095  -34.7600 H   0  0  0  0  0  0  0  0  0  0  0  0
   -4.9990   15.7391  -34.7600 H   0  0  0  0  0  0  0  0  0  0  0  0
   -7.2350   19.2980  -34.7470 H   0  0  0  0  0  0  0  0  0  0  0  0
   -5.1037   20.5784  -31.0742 H   0  0  0  0  0  0  0  0  0  0  0  0
   -4.2381   22.7741  -30.2720 H   0  0  0  0  0  0  0  0  0  0  0  0
   -7.8383   24.7116  -31.7098 H   0  0  0  0  0  0  0  0  0  0  0  0
   -8.6984   22.5144  -32.5096 H   0  0  0  0  0  0  0  0  0  0  0  0
   -1.7123   20.5297  -35.4818 H   0  0  0  0  0  0  0  0  0  0  0  0
    0.6404   21.3321  -35.2589 H   0  0  0  0  0  0  0  0  0  0  0  0
    1.9653   20.7721  -33.2163 H   0  0  0  0  0  0  0  0  0  0  0  0
    0.9353   19.4082  -31.3945 H   0  0  0  0  0  0  0  0  0  0  0  0
   -1.4155   18.6028  -31.6124 H   0  0  0  0  0  0  0  0  0  0  0  0
   -2.2920   16.3302  -32.8691 H   0  0  0  0  0  0  0  0  0  0  0  0
   -3.0122   15.7929  -34.4245 H   0  0  0  0  0  0  0  0  0  0  0  0
   -1.6034   16.9074  -34.4245 H   0  0  0  0  0  0  0  0  0  0  0  0
  1  2  1  0
  2  3  2  0
  3  4  1  0
  4  5  1  0
  5  6  2  0
  5  7  2  0
  5  8  1  0
  8  9  2  0
  9 10  1  0
 10 11  2  0
 11 12  1  0
 12 13  2  0
 12 14  1  0
 11 15  1  0
 15 16  2  0
  3 17  1  0
 17 18  2  0
 17 19  1  0
 19 20  1  0
 20 21  2  0
 21 22  1  0
 22 23  2  0
 23 24  1  0
 24 25  2  0
 19 26  1  0
 26 27  1  0
 26  2  1  0
 16  8  1  0
 25 20  1  0
  1 28  1  0
  1 29  1  0
  1 30  1  0
  4 31  1  0
  9 32  1  0
 10 33  1  0
 15 34  1  0
 16 35  1  0
 21 36  1  0
 22 37  1  0
 23 38  1  0
 24 39  1  0
 25 40  1  0
 27 41  1  0
 27 42  1  0
 27 43  1  0
M  CHG  2  12   1  14  -1
M  END
>  <UniqueID>  (32) 
32

>  <SMILES>  (32) 
Cc1c(NS(=O)(=O)c2ccc([N+](=O)[O-])cc2)c(=O)n(-c2ccccc2)n1C

>  <Energy>  (32) 
89.54293023582147

>  <Genealogy>  (32) 
Cc1c(NS(=O)(=O)c2ccc([N+](=O)[O-])cc2)c(=O)n(-c2ccccc2)n1C (3D coordinates assigned)
Cc1c(NS(=O)(=O)c2ccc([N+](=O)[O-])cc2)c(=O)n(-c2ccccc2)n1C (optimized conformer: 89.54293023582147 kcal/mol)

>  <smiles>  (32) 
Cc1c(NS(=O)(=O)c2ccc([N+](=O)[O-])cc2)c(=O)n(-c2ccccc2)n1C

>  <score_type>  (32) 
oracle

>  <origin>  (32) 
adgpu

>  <m_score__min__energy>  (32) 
-9.6699999999999999

>  <m_primary>  (32) 
energy

$$$$
32:0
     RDKit          3D

 36 38  0  0  0  0  0  0  0  0999 V2000
   -1.0190   26.5670  -24.4860 C   0  0  0  0  0  0  0  0  0  0  0  0
   -0.7490   25.5200  -25.4130 O   0  0  0  0  0  0  0  0  0  0  0  0
   -1.6300   25.1070  -26.4250 C   0  0  0  0  0  0  0  0  0  0  0  0
   -3.0120   24.9660  -26.2000 C   0  0  0  0  0  0  0  0  0  0  0  0
   -3.8580   24.5530  -27.2300 C   0  0  0  0  0  0  0  0  0  0  0  0
   -3.3460   24.2710  -28.5050 C   0  0  0  0  0  0  0  0  0  0  0  0
   -4.2480   23.8300  -29.6000 C   0  0  0  0  0  0  0  0  0  0  0  0
   -5.2880   22.9230  -29.4950 C   0  0  0  0  0  0  0  0  0  0  0  0
   -5.8170   22.8520  -30.7750 C   0  0  0  0  0  0  0  0  0  0  0  0
   -6.9630   22.0240  -31.2230 C   0  0  0  0  0  0  0  0  0  0  0  0
   -6.7460   20.9040  -32.0440 C   0  0  0  0  0  0  0  0  0  0  0  0
   -7.8230   20.1220  -32.4660 C   0  0  0  0  0  0  0  0  0  0  0  0
   -9.1150   20.4640  -32.0660 C   0  0  0  0  0  0  0  0  0  0  0  0
   -9.3150   21.5480  -31.2710 N   0  0  0  0  0  0  0  0  0  0  0  0
   -8.2840   22.3260  -30.8450 C   0  0  0  0  0  0  0  0  0  0  0  0
   -5.1220   23.6700  -31.5920 N   0  0  0  0  0  0  0  0  0  0  0  0
   -4.1790   24.2580  -30.8760 N   0  0  0  0  0  0  0  0  0  0  0  0
   -1.9650   24.4110  -28.7290 C   0  0  0  0  0  0  0  0  0  0  0  0
   -1.1050   24.8290  -27.6940 C   0  0  0  0  0  0  0  0  0  0  0  0
    0.2780   24.9790  -27.8890 O   0  0  0  0  0  0  0  0  0  0  0  0
    1.2740   24.1590  -27.2880 C   0  0  0  0  0  0  0  0  0  0  0  0
   -0.9200   26.1829  -23.4600 H   0  0  0  0  0  0  0  0  0  0  0  0
   -0.3031   27.3876  -24.6410 H   0  0  0  0  0  0  0  0  0  0  0  0
   -2.0425   26.9391  -24.6410 H   0  0  0  0  0  0  0  0  0  0  0  0
   -3.4283   25.1829  -25.2052 H   0  0  0  0  0  0  0  0  0  0  0  0
   -4.9364   24.4476  -27.0403 H   0  0  0  0  0  0  0  0  0  0  0  0
   -5.6204   22.3803  -28.5978 H   0  0  0  0  0  0  0  0  0  0  0  0
   -5.7239   20.6426  -32.3552 H   0  0  0  0  0  0  0  0  0  0  0  0
   -7.6544   19.2446  -33.1077 H   0  0  0  0  0  0  0  0  0  0  0  0
   -9.9715   19.8566  -32.3939 H   0  0  0  0  0  0  0  0  0  0  0  0
   -8.4840   23.1956  -30.2018 H   0  0  0  0  0  0  0  0  0  0  0  0
   -3.4870   24.9280  -31.2770 H   0  0  0  0  0  0  0  0  0  0  0  0
   -1.5510   24.1916  -29.7242 H   0  0  0  0  0  0  0  0  0  0  0  0
    1.1925   24.2261  -26.1931 H   0  0  0  0  0  0  0  0  0  0  0  0
    1.1288   23.1152  -27.6032 H   0  0  0  0  0  0  0  0  0  0  0  0
    2.2705   24.5020  -27.6032 H   0  0  0  0  0  0  0  0  0  0  0  0
  1  2  1  0
  2  3  1  0
  3  4  2  0
  4  5  1  0
  5  6  2  0
  6  7  1  0
  7  8  2  0
  8  9  1  0
  9 10  1  0
 10 11  2  0
 11 12  1  0
 12 13  2  0
 13 14  1  0
 14 15  2  0
  9 16  2  0
 16 17  1  0
  6 18  1  0
 18 19  2  0
 19 20  1  0
 20 21  1  0
 19  3  1  0
 17  7  1  0
 15 10  1  0
  1 22  1  0
  1 23  1  0
  1 24  1  0
  4 25  1  0
  5 26  1  0
  8 27  1  0
 11 28  1  0
 12 29  1  0
 13 30  1  0
 15 31  1  0
 17 32  1  0
 18 33  1  0
 21 34  1  0
 21 35  1  0
 21 36  1  0
M  END
>  <UniqueID>  (33) 
33

>  <SMILES>  (33) 
COc1ccc(-c2cc(-c3cccnc3)n[nH]2)cc1OC

>  <Energy>  (33) 
71.85894272073931

>  <Genealogy>  (33) 
COc1ccc(-c2cc(-c3cccnc3)n[nH]2)cc1OC (3D coordinates assigned)
COc1ccc(-c2cc(-c3cccnc3)n[nH]2)cc1OC (optimized conformer: 71.85894272073931 kcal/mol)

>  <smiles>  (33) 
COc1ccc(-c2cc(-c3cccnc3)n[nH]2)cc1OC

>  <score_type>  (33) 
oracle

>  <origin>  (33) 
adgpu

>  <m_score__min__energy>  (33) 
-7.5499999999999998

>  <m_primary>  (33) 
energy

$$$$
33:0
     RDKit          3D

 33 34  0  0  0  0  0  0  0  0999 V2000
   -3.0510   20.9360  -33.6680 C   0  0  0  0  0  0  0  0  0  0  0  0
   -4.4710   20.9080  -33.2680 N   0  0  1  0  0  0  0  0  0  0  0  0
   -5.0940   19.5980  -33.5660 C   0  0  0  0  0  0  0  0  0  0  0  0
   -6.4760   19.4830  -32.9650 C   0  0  0  0  0  0  0  0  0  0  0  0
   -6.8580   18.3210  -32.2740 C   0  0  0  0  0  0  0  0  0  0  0  0
   -8.1450   18.2120  -31.7370 C   0  0  0  0  0  0  0  0  0  0  0  0
   -9.0590   19.2580  -31.8900 C   0  0  0  0  0  0  0  0  0  0  0  0
   -8.6880   20.4160  -32.5800 C   0  0  0  0  0  0  0  0  0  0  0  0
   -7.4020   20.5290  -33.1170 C   0  0  0  0  0  0  0  0  0  0  0  0
   -4.5940   21.1860  -31.8500 C   0  0  0  0  0  0  0  0  0  0  0  0
   -4.5840   20.2300  -31.0220 O   0  0  0  0  0  0  0  0  0  0  0  0
   -4.7750   22.5700  -31.3380 C   0  0  0  0  0  0  0  0  0  0  0  0
   -6.0290   23.2000  -31.4570 C   0  0  0  0  0  0  0  0  0  0  0  0
   -6.2170   24.5020  -30.9870 C   0  0  0  0  0  0  0  0  0  0  0  0
   -5.1570   25.1970  -30.4010 C   0  0  0  0  0  0  0  0  0  0  0  0
   -3.9040   24.5910  -30.2870 C   0  0  0  0  0  0  0  0  0  0  0  0
   -2.8470   25.2850  -29.7140 O   0  0  0  0  0  0  0  0  0  0  0  0
   -3.7100   23.2860  -30.7540 C   0  0  0  0  0  0  0  0  0  0  0  0
   -2.4170   20.9485  -32.7691 H   0  0  0  0  0  0  0  0  0  0  0  0
   -2.8210   20.0422  -34.2665 H   0  0  0  0  0  0  0  0  0  0  0  0
   -2.8564   21.8382  -34.2665 H   0  0  0  0  0  0  0  0  0  0  0  0
   -4.9520   21.6610  -33.8120 H   0  0  0  0  0  0  0  0  0  0  0  0
   -5.1694   19.4797  -34.6570 H   0  0  0  0  0  0  0  0  0  0  0  0
   -4.4634   18.8118  -33.1253 H   0  0  0  0  0  0  0  0  0  0  0  0
   -6.1425   17.4940  -32.1548 H   0  0  0  0  0  0  0  0  0  0  0  0
   -8.4381   17.3017  -31.1935 H   0  0  0  0  0  0  0  0  0  0  0  0
  -10.0708   19.1702  -31.4674 H   0  0  0  0  0  0  0  0  0  0  0  0
   -9.4082   21.2386  -32.7005 H   0  0  0  0  0  0  0  0  0  0  0  0
   -7.1139   21.4407  -33.6608 H   0  0  0  0  0  0  0  0  0  0  0  0
   -6.8674   22.6623  -31.9239 H   0  0  0  0  0  0  0  0  0  0  0  0
   -7.2029   24.9812  -31.0788 H   0  0  0  0  0  0  0  0  0  0  0  0
   -5.3089   26.2211  -30.0294 H   0  0  0  0  0  0  0  0  0  0  0  0
   -2.7197   22.8156  -30.6648 H   0  0  0  0  0  0  0  0  0  0  0  0
  1  2  1  0
  2  3  1  0
  3  4  1  0
  4  5  2  0
  5  6  1  0
  6  7  2  0
  7  8  1  0
  8  9  2  0
  2 10  1  0
 10 11  2  0
 10 12  1  0
 12 13  2  0
 13 14  1  0
 14 15  2  0
 15 16  1  0
 16 17  1  0
 16 18  2  0
  9  4  1  0
 18 12  1  0
  1 19  1  0
  1 20  1  0
  1 21  1  0
  2 22  1  6
  3 23  1  0
  3 24  1  0
  5 25  1  0
  6 26  1  0
  7 27  1  0
  8 28  1  0
  9 29  1  0
 13 30  1  0
 14 31  1  0
 15 32  1  0
 18 33  1  0
M  CHG  2   2   1  17  -1
M  END
>  <UniqueID>  (34) 
34

>  <SMILES>  (34) 
C[N@@H+](Cc1ccccc1)C(=O)c1cccc([O-])c1

>  <Energy>  (34) 
38.30702976727343

>  <Genealogy>  (34) 
C[NH+](Cc1ccccc1)C(=O)c1cccc([O-])c1 (protonated)
C[N@@H+](Cc1ccccc1)C(=O)c1cccc([O-])c1 (chirality)
C[N@@H+](Cc1ccccc1)C(=O)c1cccc([O-])c1 (3D coordinates assigned)
C[N@@H+](Cc1ccccc1)C(=O)c1cccc([O-])c1 (optimized conformer: 38.30702976727343 kcal/mol)

>  <smiles>  (34) 
CN(Cc1ccccc1)C(=O)c1cccc(O)c1

>  <score_type>  (34) 
oracle

>  <origin>  (34) 
adgpu

>  <m_score__min__energy>  (34) 
-9.9700000000000006

>  <m_primary>  (34) 
energy

$$$$
34:0
     RDKit          3D

 24 25  0  0  0  0  0  0  0  0999 V2000
   -1.6330   25.6390  -28.9710 O   0  0  0  0  0  0  0  0  0  0  0  0
   -2.4100   24.6950  -29.2790 C   0  0  0  0  0  0  0  0  0  0  0  0
   -3.4930   24.9220  -30.1940 N   0  0  0  0  0  0  0  0  0  0  0  0
   -4.2860   23.9200  -30.8460 C   0  0  0  0  0  0  0  0  0  0  0  0
   -5.6890   24.0040  -30.9130 C   0  0  0  0  0  0  0  0  0  0  0  0
   -6.4220   23.0150  -31.5800 C   0  0  0  0  0  0  0  0  0  0  0  0
   -8.1720   23.1230  -31.6570 Cl  0  0  0  0  0  0  0  0  0  0  0  0
   -5.7610   21.9480  -32.1950 C   0  0  0  0  0  0  0  0  0  0  0  0
   -4.3660   21.8720  -32.1540 C   0  0  0  0  0  0  0  0  0  0  0  0
   -3.5360   20.5420  -32.9390 Cl  0  0  0  0  0  0  0  0  0  0  0  0
   -3.6310   22.8600  -31.4880 C   0  0  0  0  0  0  0  0  0  0  0  0
   -2.2360   23.3630  -28.6550 C   0  0  0  0  0  0  0  0  0  0  0  0
   -0.9840   22.7250  -28.6560 C   0  0  0  0  0  0  0  0  0  0  0  0
   -0.8340   21.4690  -28.0650 C   0  0  0  0  0  0  0  0  0  0  0  0
   -1.9390   20.8560  -27.4760 C   0  0  0  0  0  0  0  0  0  0  0  0
   -3.1460   21.4790  -27.4790 N   0  0  0  0  0  0  0  0  0  0  0  0
   -3.3190   22.7030  -28.0480 C   0  0  0  0  0  0  0  0  0  0  0  0
   -6.2112   24.8488  -30.4402 H   0  0  0  0  0  0  0  0  0  0  0  0
   -6.3390   21.1676  -32.7116 H   0  0  0  0  0  0  0  0  0  0  0  0
   -2.5326   22.8041  -31.4684 H   0  0  0  0  0  0  0  0  0  0  0  0
   -0.1187   23.2170  -29.1242 H   0  0  0  0  0  0  0  0  0  0  0  0
    0.1455   20.9685  -28.0641 H   0  0  0  0  0  0  0  0  0  0  0  0
   -1.8332   19.8661  -27.0081 H   0  0  0  0  0  0  0  0  0  0  0  0
   -4.3109   23.1783  -28.0330 H   0  0  0  0  0  0  0  0  0  0  0  0
  1  2  2  0
  2  3  1  0
  3  4  1  0
  4  5  2  0
  5  6  1  0
  6  7  1  0
  6  8  2  0
  8  9  1  0
  9 10  1  0
  9 11  2  0
  2 12  1  0
 12 13  2  0
 13 14  1  0
 14 15  2  0
 15 16  1  0
 16 17  2  0
 11  4  1  0
 17 12  1  0
  5 18  1  0
  8 19  1  0
 11 20  1  0
 13 21  1  0
 14 22  1  0
 15 23  1  0
 17 24  1  0
M  CHG  1   3  -1
M  END
>  <UniqueID>  (35) 
35

>  <SMILES>  (35) 
O=C([N-]c1cc(Cl)cc(Cl)c1)c1cccnc1

>  <Energy>  (35) 
29.843598227390174

>  <Genealogy>  (35) 
O=C([N-]c1cc(Cl)cc(Cl)c1)c1cccnc1 (protonated)
O=C([N-]c1cc(Cl)cc(Cl)c1)c1cccnc1 (3D coordinates assigned)
O=C([N-]c1cc(Cl)cc(Cl)c1)c1cccnc1 (optimized conformer: 29.843598227390174 kcal/mol)

>  <smiles>  (35) 
O=C(Nc1cc(Cl)cc(Cl)c1)c1cccnc1

>  <score_type>  (35) 
oracle

>  <origin>  (35) 
adgpu

>  <m_score__min__energy>  (35) 
-7.9500000000000002

>  <m_primary>  (35) 
energy

$$$$
35:0
     RDKit          3D

 46 48  0  0  0  0  0  0  0  0999 V2000
   -0.9350   24.7360  -28.5560 C   0  0  0  0  0  0  0  0  0  0  0  0
   -1.8130   25.3660  -27.4800 C   0  0  0  0  0  0  0  0  0  0  0  0
   -3.3420   24.4060  -27.2120 S   0  0  0  0  0  0  0  0  0  0  0  0
   -3.6320   24.0660  -28.9520 C   0  0  0  0  0  0  0  0  0  0  0  0
   -4.1940   24.9510  -29.7910 N   0  0  0  0  0  0  0  0  0  0  0  0
   -4.2520   24.3670  -30.9780 N   0  0  0  0  0  0  0  0  0  0  0  0
   -3.7390   23.1280  -30.8430 C   0  0  0  0  0  0  0  0  0  0  0  0
   -3.4890   22.2220  -32.0140 C   0  0  0  0  0  0  0  0  0  0  0  0
   -4.6620   22.2010  -32.8810 N   0  0  0  0  0  0  0  0  0  0  0  0
   -5.7730   21.3310  -32.6120 C   0  0  0  0  0  0  0  0  0  0  0  0
   -5.6420   19.9490  -32.8280 C   0  0  0  0  0  0  0  0  0  0  0  0
   -6.7200   19.0880  -32.6160 C   0  0  0  0  0  0  0  0  0  0  0  0
   -7.9560   19.5990  -32.2030 C   0  0  0  0  0  0  0  0  0  0  0  0
   -9.1130   18.6670  -31.9900 C   0  0  0  0  0  0  0  0  0  0  0  0
   -8.0910   20.9800  -31.9620 C   0  0  0  0  0  0  0  0  0  0  0  0
   -7.0040   21.8510  -32.1530 C   0  0  0  0  0  0  0  0  0  0  0  0
   -7.1820   23.3280  -31.9250 C   0  0  0  0  0  0  0  0  0  0  0  0
   -3.3250   22.9110  -29.5770 N   0  0  0  0  0  0  0  0  0  0  0  0
   -2.6520   21.7640  -29.0280 C   0  0  0  0  0  0  0  0  0  0  0  0
   -3.1430   21.1390  -27.8700 C   0  0  0  0  0  0  0  0  0  0  0  0
   -2.4830   20.0250  -27.3380 C   0  0  0  0  0  0  0  0  0  0  0  0
   -1.3230   19.5370  -27.9510 C   0  0  0  0  0  0  0  0  0  0  0  0
   -0.8200   20.1640  -29.0940 C   0  0  0  0  0  0  0  0  0  0  0  0
   -1.4820   21.2730  -29.6330 C   0  0  0  0  0  0  0  0  0  0  0  0
   -0.1294   24.1579  -28.0798 H   0  0  0  0  0  0  0  0  0  0  0  0
   -1.5448   24.0681  -29.1822 H   0  0  0  0  0  0  0  0  0  0  0  0
   -0.4976   25.5275  -29.1822 H   0  0  0  0  0  0  0  0  0  0  0  0
   -1.2478   25.4073  -26.5372 H   0  0  0  0  0  0  0  0  0  0  0  0
   -2.0950   26.3754  -27.8140 H   0  0  0  0  0  0  0  0  0  0  0  0
   -2.6216   22.5898  -32.5818 H   0  0  0  0  0  0  0  0  0  0  0  0
   -3.2882   21.2038  -31.6494 H   0  0  0  0  0  0  0  0  0  0  0  0
   -4.5500   22.6070  -33.8400 H   0  0  0  0  0  0  0  0  0  0  0  0
   -4.6788   19.5408  -33.1681 H   0  0  0  0  0  0  0  0  0  0  0  0
   -6.5980   18.0062  -32.7737 H   0  0  0  0  0  0  0  0  0  0  0  0
   -9.2810   18.5316  -30.9114 H   0  0  0  0  0  0  0  0  0  0  0  0
  -10.0164   19.0926  -32.4513 H   0  0  0  0  0  0  0  0  0  0  0  0
   -8.8895   17.6937  -32.4513 H   0  0  0  0  0  0  0  0  0  0  0  0
   -9.0567   21.3813  -31.6209 H   0  0  0  0  0  0  0  0  0  0  0  0
   -7.2066   23.5318  -30.8443 H   0  0  0  0  0  0  0  0  0  0  0  0
   -6.3431   23.8733  -32.3820 H   0  0  0  0  0  0  0  0  0  0  0  0
   -8.1265   23.6584  -32.3820 H   0  0  0  0  0  0  0  0  0  0  0  0
   -4.0486   21.5259  -27.3798 H   0  0  0  0  0  0  0  0  0  0  0  0
   -2.8766   19.5323  -26.4367 H   0  0  0  0  0  0  0  0  0  0  0  0
   -0.8074   18.6599  -27.5329 H   0  0  0  0  0  0  0  0  0  0  0  0
    0.0966   19.7858  -29.5703 H   0  0  0  0  0  0  0  0  0  0  0  0
   -1.0849   21.7628  -30.5343 H   0  0  0  0  0  0  0  0  0  0  0  0
  1  2  1  0
  2  3  1  0
  3  4  1  0
  4  5  2  0
  5  6  1  0
  6  7  2  0
  7  8  1  0
  8  9  1  0
  9 10  1  0
 10 11  2  0
 11 12  1  0
 12 13  2  0
 13 14  1  0
 13 15  1  0
 15 16  2  0
 16 17  1  0
  7 18  1  0
 18 19  1  0
 19 20  2  0
 20 21  1  0
 21 22  2  0
 22 23  1  0
 23 24  2  0
 18  4  1  0
 24 19  1  0
 16 10  1  0
  1 25  1  0
  1 26  1  0
  1 27  1  0
  2 28  1  0
  2 29  1  0
  8 30  1  0
  8 31  1  0
  9 32  1  0
 11 33  1  0
 12 34  1  0
 14 35  1  0
 14 36  1  0
 14 37  1  0
 15 38  1  0
 17 39  1  0
 17 40  1  0
 17 41  1  0
 20 42  1  0
 21 43  1  0
 22 44  1  0
 23 45  1  0
 24 46  1  0
M  END
>  <UniqueID>  (36) 
36

>  <SMILES>  (36) 
CCSc1nnc(CNc2ccc(C)cc2C)n1-c1ccccc1

>  <Energy>  (36) 
78.20701262311349

>  <Genealogy>  (36) 
CCSc1nnc(CNc2ccc(C)cc2C)n1-c1ccccc1 (3D coordinates assigned)
CCSc1nnc(CNc2ccc(C)cc2C)n1-c1ccccc1 (optimized conformer: 78.20701262311349 kcal/mol)

>  <smiles>  (36) 
CCSc1nnc(CNc2ccc(C)cc2C)n1-c1ccccc1

>  <score_type>  (36) 
oracle

>  <origin>  (36) 
adgpu

>  <m_score__min__energy>  (36) 
-8.6500000000000004

>  <m_primary>  (36) 
energy

$$$$
36:0
     RDKit          3D

 45 47  0  0  0  0  0  0  0  0999 V2000
   -1.4310   21.6480  -31.5640 C   0  0  0  0  0  0  0  0  0  0  0  0
   -2.7500   22.2680  -31.2420 C   0  0  0  0  0  0  0  0  0  0  0  0
   -3.9230   21.8030  -31.7170 N   0  0  0  0  0  0  0  0  0  0  0  0
   -4.8920   22.5650  -31.2330 N   0  0  0  0  0  0  0  0  0  0  0  0
   -6.2780   22.3400  -31.5310 C   0  0  0  0  0  0  0  0  0  0  0  0
   -7.1630   23.4180  -31.7010 C   0  0  0  0  0  0  0  0  0  0  0  0
   -8.5050   23.1850  -32.0120 C   0  0  0  0  0  0  0  0  0  0  0  0
   -8.9740   21.8780  -32.1660 C   0  0  0  0  0  0  0  0  0  0  0  0
   -8.0980   20.7950  -32.0170 C   0  0  0  0  0  0  0  0  0  0  0  0
   -8.6700   19.1390  -32.1880 S   0  0  0  0  0  0  0  0  0  0  0  0
   -9.8750   19.1360  -33.0870 O   0  0  0  0  0  0  0  0  0  0  0  0
   -9.0600   18.5820  -30.8480 O   0  0  0  0  0  0  0  0  0  0  0  0
   -7.4030   18.1640  -32.8870 N   0  0  0  0  0  0  0  0  0  0  0  0
   -6.6090   18.9700  -33.8260 C   0  0  0  0  0  0  0  0  0  0  0  0
   -5.6680   18.0630  -34.6420 C   0  0  0  0  0  0  0  0  0  0  0  0
   -5.2300   16.7920  -33.8710 C   0  0  0  0  0  0  0  0  0  0  0  0
   -6.1120   15.5790  -34.2200 C   0  0  0  0  0  0  0  0  0  0  0  0
   -5.2100   17.0500  -32.3510 C   0  0  0  0  0  0  0  0  0  0  0  0
   -6.5540   17.6010  -31.8160 C   0  0  0  0  0  0  0  0  0  0  0  0
   -6.7510   21.0310  -31.7070 C   0  0  0  0  0  0  0  0  0  0  0  0
   -4.3680   23.5190  -30.4300 C   0  0  0  0  0  0  0  0  0  0  0  0
   -5.3870   24.7550  -29.3700 Br  0  0  0  0  0  0  0  0  0  0  0  0
   -2.9920   23.3550  -30.4150 C   0  0  0  0  0  0  0  0  0  0  0  0
   -2.0270   24.1140  -29.6670 N   0  0  0  0  0  0  0  0  0  0  0  0
   -2.2600   25.2970  -29.3470 O   0  0  0  0  0  0  0  0  0  0  0  0
   -0.8370   23.5430  -29.2750 O   0  0  0  0  0  0  0  0  0  0  0  0
   -0.9045   21.4005  -30.6304 H   0  0  0  0  0  0  0  0  0  0  0  0
   -1.5903   20.7305  -32.1494 H   0  0  0  0  0  0  0  0  0  0  0  0
   -0.8261   22.3561  -32.1494 H   0  0  0  0  0  0  0  0  0  0  0  0
   -6.7978   24.4495  -31.5888 H   0  0  0  0  0  0  0  0  0  0  0  0
   -9.1944   24.0331  -32.1360 H   0  0  0  0  0  0  0  0  0  0  0  0
  -10.0328   21.6991  -32.4046 H   0  0  0  0  0  0  0  0  0  0  0  0
   -7.2859   19.5014  -34.5112 H   0  0  0  0  0  0  0  0  0  0  0  0
   -6.0063   19.6935  -33.2574 H   0  0  0  0  0  0  0  0  0  0  0  0
   -6.1890   17.7536  -35.5601 H   0  0  0  0  0  0  0  0  0  0  0  0
   -4.7597   18.6439  -34.8601 H   0  0  0  0  0  0  0  0  0  0  0  0
   -4.2054   16.5491  -34.1892 H   0  0  0  0  0  0  0  0  0  0  0  0
   -6.4603   15.1001  -33.2930 H   0  0  0  0  0  0  0  0  0  0  0  0
   -6.9793   15.9134  -34.8082 H   0  0  0  0  0  0  0  0  0  0  0  0
   -5.5265   14.8570  -34.8082 H   0  0  0  0  0  0  0  0  0  0  0  0
   -4.9895   16.1028  -31.8371 H   0  0  0  0  0  0  0  0  0  0  0  0
   -4.4399   17.8107  -32.1553 H   0  0  0  0  0  0  0  0  0  0  0  0
   -7.1010   16.7817  -31.3265 H   0  0  0  0  0  0  0  0  0  0  0  0
   -6.3245   18.4132  -31.1106 H   0  0  0  0  0  0  0  0  0  0  0  0
   -6.0592   20.1824  -31.6009 H   0  0  0  0  0  0  0  0  0  0  0  0
  1  2  1  0
  2  3  2  0
  3  4  1  0
  4  5  1  0
  5  6  2  0
  6  7  1  0
  7  8  2  0
  8  9  1  0
  9 10  1  0
 10 11  2  0
 10 12  2  0
 10 13  1  0
 13 14  1  0
 14 15  1  0
 15 16  1  0
 16 17  1  0
 16 18  1  0
 18 19  1  0
  9 20  2  0
  4 21  1  0
 21 22  1  0
 21 23  2  0
 23 24  1  0
 24 25  2  0
 24 26  1  0
 23  2  1  0
 20  5  1  0
 19 13  1  0
  1 27  1  0
  1 28  1  0
  1 29  1  0
  6 30  1  0
  7 31  1  0
  8 32  1  0
 14 33  1  0
 14 34  1  0
 15 35  1  0
 15 36  1  0
 16 37  1  0
 17 38  1  0
 17 39  1  0
 17 40  1  0
 18 41  1  0
 18 42  1  0
 19 43  1  0
 19 44  1  0
 20 45  1  0
M  CHG  2  24   1  26  -1
M  END
>  <UniqueID>  (37) 
37

>  <SMILES>  (37) 
Cc1nn(-c2cccc(S(=O)(=O)N3CCC(C)CC3)c2)c(Br)c1[N+](=O)[O-]

>  <Energy>  (37) 
86.03610326548768

>  <Genealogy>  (37) 
Cc1nn(-c2cccc(S(=O)(=O)N3CCC(C)CC3)c2)c(Br)c1[N+](=O)[O-] (3D coordinates assigned)
Cc1nn(-c2cccc(S(=O)(=O)N3CCC(C)CC3)c2)c(Br)c1[N+](=O)[O-] (nonaromatic ring conformer: 86.03610326548768 kcal/mol)

>  <smiles>  (37) 
Cc1nn(-c2cccc(S(=O)(=O)N3CCC(C)CC3)c2)c(Br)c1[N+](=O)[O-]

>  <score_type>  (37) 
oracle

>  <origin>  (37) 
adgpu

>  <m_score__min__energy>  (37) 
-10.16

>  <m_primary>  (37) 
energy

$$$$
37:0
     RDKit          3D

 32 33  0  0  0  0  0  0  0  0999 V2000
   -5.9970   17.8110  -34.5740 C   0  0  0  0  0  0  0  0  0  0  0  0
   -5.9390   19.0000  -33.6710 C   0  0  0  0  0  0  0  0  0  0  0  0
   -4.8340   19.3370  -33.1660 O   0  0  0  0  0  0  0  0  0  0  0  0
   -7.1140   19.7980  -33.4640 N   0  0  0  0  0  0  0  0  0  0  0  0
   -7.2160   20.8460  -32.4840 C   0  0  0  0  0  0  0  0  0  0  0  0
   -8.2690   20.8790  -31.5520 C   0  0  0  0  0  0  0  0  0  0  0  0
   -8.3490   21.9150  -30.6180 C   0  0  0  0  0  0  0  0  0  0  0  0
   -7.3990   22.9380  -30.6190 C   0  0  0  0  0  0  0  0  0  0  0  0
   -6.3680   22.9440  -31.5740 C   0  0  0  0  0  0  0  0  0  0  0  0
   -5.3610   23.9670  -31.6050 N   0  0  0  0  0  0  0  0  0  0  0  0
   -4.2900   24.1430  -30.6690 C   0  0  0  0  0  0  0  0  0  0  0  0
   -3.8000   25.2890  -30.4780 O   0  0  0  0  0  0  0  0  0  0  0  0
   -3.7400   22.9840  -29.9230 C   0  0  0  0  0  0  0  0  0  0  0  0
   -3.8130   22.9940  -28.5170 C   0  0  0  0  0  0  0  0  0  0  0  0
   -3.3290   21.9170  -27.7680 C   0  0  0  0  0  0  0  0  0  0  0  0
   -2.7600   20.8200  -28.4110 C   0  0  0  0  0  0  0  0  0  0  0  0
   -2.6660   20.7970  -29.8030 C   0  0  0  0  0  0  0  0  0  0  0  0
   -3.1460   21.8690  -30.5670 C   0  0  0  0  0  0  0  0  0  0  0  0
   -2.9070   21.7860  -32.3110 Cl  0  0  0  0  0  0  0  0  0  0  0  0
   -6.2770   21.8890  -32.4920 C   0  0  0  0  0  0  0  0  0  0  0  0
   -6.0418   16.8932  -33.9693 H   0  0  0  0  0  0  0  0  0  0  0  0
   -6.8930   17.8760  -35.2087 H   0  0  0  0  0  0  0  0  0  0  0  0
   -5.0989   17.7885  -35.2087 H   0  0  0  0  0  0  0  0  0  0  0  0
   -7.9140   19.6630  -34.1230 H   0  0  0  0  0  0  0  0  0  0  0  0
   -9.0319   20.0866  -31.5585 H   0  0  0  0  0  0  0  0  0  0  0  0
   -9.1637   21.9247  -29.8790 H   0  0  0  0  0  0  0  0  0  0  0  0
   -7.4576   23.7416  -29.8702 H   0  0  0  0  0  0  0  0  0  0  0  0
   -4.2559   23.8591  -28.0018 H   0  0  0  0  0  0  0  0  0  0  0  0
   -3.3976   21.9360  -26.6703 H   0  0  0  0  0  0  0  0  0  0  0  0
   -2.3844   19.9711  -27.8208 H   0  0  0  0  0  0  0  0  0  0  0  0
   -2.2113   19.9301  -30.3047 H   0  0  0  0  0  0  0  0  0  0  0  0
   -5.4595   21.8783  -33.2279 H   0  0  0  0  0  0  0  0  0  0  0  0
  1  2  1  0
  2  3  2  0
  2  4  1  0
  4  5  1  0
  5  6  2  0
  6  7  1  0
  7  8  2  0
  8  9  1  0
  9 10  1  0
 10 11  1  0
 11 12  2  0
 11 13  1  0
 13 14  2  0
 14 15  1  0
 15 16  2  0
 16 17  1  0
 17 18  2  0
 18 19  1  0
  9 20  2  0
 20  5  1  0
 18 13  1  0
  1 21  1  0
  1 22  1  0
  1 23  1  0
  4 24  1  0
  6 25  1  0
  7 26  1  0
  8 27  1  0
 14 28  1  0
 15 29  1  0
 16 30  1  0
 17 31  1  0
 20 32  1  0
M  CHG  1  10  -1
M  END
>  <UniqueID>  (38) 
38

>  <SMILES>  (38) 
CC(=O)Nc1cccc([N-]C(=O)c2ccccc2Cl)c1

>  <Energy>  (38) 
42.73496031661859

>  <Genealogy>  (38) 
CC(=O)Nc1cccc([N-]C(=O)c2ccccc2Cl)c1 (protonated)
CC(=O)Nc1cccc([N-]C(=O)c2ccccc2Cl)c1 (3D coordinates assigned)
CC(=O)Nc1cccc([N-]C(=O)c2ccccc2Cl)c1 (optimized conformer: 42.73496031661859 kcal/mol)

>  <smiles>  (38) 
CC(=O)Nc1cccc(NC(=O)c2ccccc2Cl)c1

>  <score_type>  (38) 
oracle

>  <origin>  (38) 
adgpu

>  <m_score__min__energy>  (38) 
-8.6999999999999993

>  <m_primary>  (38) 
energy

$$$$
38:0
     RDKit          3D

 45 49  0  0  1  0  0  0  0  0999 V2000
   -4.3190   17.4280  -35.7610 O   0  0  0  0  0  0  0  0  0  0  0  0
   -5.0520   17.4380  -34.7120 C   0  0  0  0  0  0  0  0  0  0  0  0
   -4.6970   16.8450  -33.5320 N   0  0  0  0  0  0  0  0  0  0  0  0
   -5.7220   17.0650  -32.6570 C   0  0  0  0  0  0  0  0  0  0  0  0
   -5.7200   16.6100  -31.3510 O   0  0  0  0  0  0  0  0  0  0  0  0
   -6.6900   17.7970  -33.3290 C   0  0  0  0  0  0  0  0  0  0  0  0
   -7.9320   18.2080  -32.6860 C   0  0  0  0  0  0  0  0  0  0  0  0
   -7.9800   19.4670  -32.2190 C   0  0  0  0  0  0  0  0  0  0  0  0
   -9.0260   20.0960  -31.5760 C   0  0  0  0  0  0  0  0  0  0  0  0
   -8.6850   21.3710  -31.2680 N   0  0  0  0  0  0  0  0  0  0  0  0
   -7.4480   21.5660  -31.6990 N   0  0  0  0  0  0  0  0  0  0  0  0
   -6.6270   22.6340  -31.6640 C   0  0  0  0  0  0  0  0  0  0  0  0
   -7.0050   23.7640  -31.1150 N   0  0  0  0  0  0  0  0  0  0  0  0
   -6.1160   24.9050  -31.0800 C   0  0  0  0  0  0  0  0  0  0  0  0
   -4.9660   24.8550  -30.0870 C   0  0  0  0  0  0  0  0  0  0  0  0
   -6.1390   25.7420  -29.8630 C   0  0  0  0  0  0  0  0  0  0  0  0
   -5.3410   22.6020  -32.2020 C   0  0  0  0  0  0  0  0  0  0  0  0
   -4.9460   21.4170  -32.7760 C   0  0  0  0  0  0  0  0  0  0  0  0
   -3.6530   21.2520  -33.3890 N   0  0  0  0  0  0  0  0  0  0  0  0
   -2.6600   20.3910  -32.8840 C   0  0  0  0  0  0  0  0  0  0  0  0
   -1.8820   20.8370  -31.8070 C   0  0  0  0  0  0  0  0  0  0  0  0
   -0.9020   20.0180  -31.2600 C   0  0  0  0  0  0  0  0  0  0  0  0
   -0.6790   18.7560  -31.7620 C   0  0  0  0  0  0  0  0  0  0  0  0
   -1.4460   18.2880  -32.8410 C   0  0  0  0  0  0  0  0  0  0  0  0
   -1.1800   16.6650  -33.4970 Cl  0  0  0  0  0  0  0  0  0  0  0  0
   -2.4350   19.1140  -33.3950 C   0  0  0  0  0  0  0  0  0  0  0  0
   -5.7520   20.3440  -32.8190 N   0  0  0  0  0  0  0  0  0  0  0  0
   -6.9810   20.4290  -32.2850 C   0  0  0  0  0  0  0  0  0  0  0  0
   -6.2590   18.0130  -34.5850 N   0  0  0  0  0  0  0  0  0  0  0  0
   -3.8150   16.3190  -33.3180 H   0  0  0  0  0  0  0  0  0  0  0  0
   -5.5240   15.6970  -31.0240 H   0  0  0  0  0  0  0  0  0  0  0  0
   -8.7865   17.5223  -32.5881 H   0  0  0  0  0  0  0  0  0  0  0  0
   -9.9958   19.6304  -31.3466 H   0  0  0  0  0  0  0  0  0  0  0  0
   -6.2100   25.0944  -32.1595 H   0  0  0  0  0  0  0  0  0  0  0  0
   -4.8169   23.9653  -29.4575 H   0  0  0  0  0  0  0  0  0  0  0  0
   -3.8761   24.9939  -30.1409 H   0  0  0  0  0  0  0  0  0  0  0  0
   -6.8505   25.5118  -29.0563 H   0  0  0  0  0  0  0  0  0  0  0  0
   -6.2624   26.8186  -29.6739 H   0  0  0  0  0  0  0  0  0  0  0  0
   -4.6775   23.4788  -32.1689 H   0  0  0  0  0  0  0  0  0  0  0  0
   -3.4950   21.8170  -34.2440 H   0  0  0  0  0  0  0  0  0  0  0  0
   -2.0483   21.8421  -31.3920 H   0  0  0  0  0  0  0  0  0  0  0  0
   -0.2975   20.3823  -30.4162 H   0  0  0  0  0  0  0  0  0  0  0  0
    0.0981   18.1157  -31.3191 H   0  0  0  0  0  0  0  0  0  0  0  0
   -3.0383   18.7508  -34.2401 H   0  0  0  0  0  0  0  0  0  0  0  0
   -6.8170   18.5440  -35.2840 H   0  0  0  0  0  0  0  0  0  0  0  0
  1  2  2  0
  2  3  1  0
  3  4  1  0
  4  5  1  0
  4  6  2  0
  6  7  1  0
  7  8  2  0
  8  9  1  0
  9 10  2  0
 10 11  1  0
 11 12  1  0
 12 13  2  0
 13 14  1  0
 14 15  1  0
 15 16  1  0
 12 17  1  0
 17 18  2  0
 18 19  1  0
 19 20  1  0
 20 21  2  0
 21 22  1  0
 22 23  2  0
 23 24  1  0
 24 25  1  0
 24 26  2  0
 18 27  1  0
 27 28  2  0
  6 29  1  0
 29  2  1  0
 28  8  1  0
 28 11  1  0
 16 14  1  0
 26 20  1  0
  3 30  1  0
  5 31  1  0
  7 32  1  0
  9 33  1  0
 14 34  1  0
 15 35  1  0
 15 36  1  0
 16 37  1  0
 16 38  1  0
 17 39  1  0
 19 40  1  0
 21 41  1  0
 22 42  1  0
 23 43  1  0
 26 44  1  0
 29 45  1  0
M  END
>  <smiles>  (39) 
O=c1[nH]c(O)c(C=c2cnn3c(=NC4CC4)cc(Nc4cccc(Cl)c4)nc23)[nH]1

>  <score_type>  (39) 
oracle

>  <origin>  (39) 
adgpu

>  <m_score__min__energy>  (39) 
-10.220000000000001

>  <m_primary>  (39) 
energy

$$$$
39:0
     RDKit          3D

 35 38  0  0  0  0  0  0  0  0999 V2000
   -4.4350   24.4560  -30.7160 F   0  0  0  0  0  0  0  0  0  0  0  0
   -5.1160   23.4770  -31.3630 C   0  0  0  0  0  0  0  0  0  0  0  0
   -4.4330   22.3720  -31.8720 C   0  0  0  0  0  0  0  0  0  0  0  0
   -5.1320   21.3620  -32.5400 C   0  0  0  0  0  0  0  0  0  0  0  0
   -6.5280   21.4380  -32.7010 C   0  0  0  0  0  0  0  0  0  0  0  0
   -7.2290   20.3180  -33.4680 C   0  0  2  0  0  0  0  0  0  0  0  0
   -8.6260   20.1420  -33.0130 N   0  0  0  0  0  0  0  0  0  0  0  0
   -8.7270   19.3500  -31.7790 C   0  0  0  0  0  0  0  0  0  0  0  0
   -8.2340   17.9190  -32.0060 C   0  0  0  0  0  0  0  0  0  0  0  0
   -6.9090   17.8880  -32.7190 C   0  0  0  0  0  0  0  0  0  0  0  0
   -6.1520   16.6960  -32.7090 C   0  0  0  0  0  0  0  0  0  0  0  0
   -4.9540   16.6730  -33.4150 C   0  0  0  0  0  0  0  0  0  0  0  0
   -4.5100   17.7480  -34.1110 C   0  0  0  0  0  0  0  0  0  0  0  0
   -5.2240   18.9400  -34.1630 C   0  0  0  0  0  0  0  0  0  0  0  0
   -6.4490   19.0140  -33.4630 C   0  0  0  0  0  0  0  0  0  0  0  0
   -3.3020   17.4420  -34.7080 O   0  0  0  0  0  0  0  0  0  0  0  0
   -2.9700   16.0890  -34.3670 C   0  0  0  0  0  0  0  0  0  0  0  0
   -4.0510   15.6360  -33.5420 O   0  0  0  0  0  0  0  0  0  0  0  0
   -7.2070   22.5720  -32.1930 C   0  0  0  0  0  0  0  0  0  0  0  0
   -8.5470   22.7200  -32.3340 F   0  0  0  0  0  0  0  0  0  0  0  0
   -6.4980   23.5770  -31.5250 C   0  0  0  0  0  0  0  0  0  0  0  0
   -3.3428   22.2953  -31.7476 H   0  0  0  0  0  0  0  0  0  0  0  0
   -4.5844   20.4979  -32.9444 H   0  0  0  0  0  0  0  0  0  0  0  0
   -7.2654   20.6341  -34.5210 H   0  0  0  0  0  0  0  0  0  0  0  0
   -9.1760   19.6640  -33.7670 H   0  0  0  0  0  0  0  0  0  0  0  0
   -9.0710   21.0760  -32.8530 H   0  0  0  0  0  0  0  0  0  0  0  0
   -8.1142   19.8221  -30.9970 H   0  0  0  0  0  0  0  0  0  0  0  0
   -9.7823   19.3132  -31.4707 H   0  0  0  0  0  0  0  0  0  0  0  0
   -8.1248   17.4217  -31.0309 H   0  0  0  0  0  0  0  0  0  0  0  0
   -8.9719   17.4002  -32.6355 H   0  0  0  0  0  0  0  0  0  0  0  0
   -6.5003   15.8100  -32.1579 H   0  0  0  0  0  0  0  0  0  0  0  0
   -4.8457   19.8013  -34.7332 H   0  0  0  0  0  0  0  0  0  0  0  0
   -2.8905   15.4707  -35.2733 H   0  0  0  0  0  0  0  0  0  0  0  0
   -2.0009   16.0198  -33.8513 H   0  0  0  0  0  0  0  0  0  0  0  0
   -7.0336   24.4508  -31.1254 H   0  0  0  0  0  0  0  0  0  0  0  0
  1  2  1  0
  2  3  2  0
  3  4  1  0
  4  5  2  0
  5  6  1  0
  6  7  1  0
  7  8  1  0
  8  9  1  0
  9 10  1  0
 10 11  2  0
 11 12  1  0
 12 13  2  0
 13 14  1  0
 14 15  2  0
 13 16  1  0
 16 17  1  0
 17 18  1  0
  5 19  1  0
 19 20  1  0
 19 21  2  0
 21  2  1  0
 15  6  1  0
 15 10  1  0
 18 12  1  0
  3 22  1  0
  4 23  1  0
  6 24  1  6
  7 25  1  0
  7 26  1  0
  8 27  1  0
  8 28  1  0
  9 29  1  0
  9 30  1  0
 11 31  1  0
 14 32  1  0
 17 33  1  0
 17 34  1  0
 21 35  1  0
M  CHG  1   7   1
M  END
>  <UniqueID>  (40) 
39

>  <SMILES>  (40) 
Fc1ccc([C@@H]2[NH2+]CCc3cc4c(cc32)OCO4)c(F)c1

>  <Energy>  (40) 
72.53165718171056

>  <Genealogy>  (40) 
Fc1ccc(C2[NH2+]CCc3cc4c(cc32)OCO4)c(F)c1 (protonated)
Fc1ccc([C@@H]2[NH2+]CCc3cc4c(cc32)OCO4)c(F)c1 (chirality)
Fc1ccc([C@@H]2[NH2+]CCc3cc4c(cc32)OCO4)c(F)c1 (3D coordinates assigned)
Fc1ccc([C@@H]2[NH2+]CCc3cc4c(cc32)OCO4)c(F)c1 (nonaromatic ring conformer: 72.53165718171056 kcal/mol)

>  <smiles>  (40) 
Fc1ccc(C2NCCc3cc4c(cc32)OCO4)c(F)c1

>  <score_type>  (40) 
oracle

>  <origin>  (40) 
adgpu

>  <m_score__min__energy>  (40) 
-6.75

>  <m_primary>  (40) 
energy

$$$$
40:0
     RDKit          3D

 43 47  0  0  0  0  0  0  0  0999 V2000
   -2.0380   23.8880  -26.9910 C   0  0  0  0  0  0  0  0  0  0  0  0
   -1.5340   23.9610  -28.2930 C   0  0  0  0  0  0  0  0  0  0  0  0
   -2.3780   24.3150  -29.3520 C   0  0  0  0  0  0  0  0  0  0  0  0
   -3.7280   24.6020  -29.1080 C   0  0  0  0  0  0  0  0  0  0  0  0
   -4.8020   25.0640  -30.4690 S   0  0  0  0  0  0  0  0  0  0  0  0
   -4.7660   23.4140  -31.1800 C   0  0  0  0  0  0  0  0  0  0  0  0
   -3.5710   22.9190  -31.5900 N   0  0  0  0  0  0  0  0  0  0  0  0
   -3.4590   21.6780  -32.1340 C   0  0  0  0  0  0  0  0  0  0  0  0
   -2.1390   21.1740  -32.5860 C   0  0  0  0  0  0  0  0  0  0  0  0
   -1.9920   20.5880  -33.8580 C   0  0  0  0  0  0  0  0  0  0  0  0
   -0.7450   20.1160  -34.2810 C   0  0  0  0  0  0  0  0  0  0  0  0
    0.3660   20.2220  -33.4430 C   0  0  0  0  0  0  0  0  0  0  0  0
    0.2340   20.8010  -32.1790 C   0  0  0  0  0  0  0  0  0  0  0  0
   -1.0090   21.2750  -31.7500 C   0  0  0  0  0  0  0  0  0  0  0  0
   -4.5700   20.9060  -32.2620 N   0  0  0  0  0  0  0  0  0  0  0  0
   -5.7940   21.3440  -31.8620 C   0  0  0  0  0  0  0  0  0  0  0  0
   -5.9290   22.6320  -31.3140 C   0  0  0  0  0  0  0  0  0  0  0  0
   -7.2620   23.0740  -30.7490 C   0  0  0  0  0  0  0  0  0  0  0  0
   -8.3590   22.3510  -31.3140 O   0  0  0  0  0  0  0  0  0  0  0  0
   -8.2480   21.0310  -31.7600 C   0  0  0  0  0  0  0  0  0  0  0  0
   -9.4010   20.2670  -31.9660 C   0  0  0  0  0  0  0  0  0  0  0  0
   -9.2970   18.9480  -32.4170 C   0  0  0  0  0  0  0  0  0  0  0  0
   -8.0400   18.3920  -32.6700 C   0  0  0  0  0  0  0  0  0  0  0  0
   -6.8840   19.1570  -32.4810 C   0  0  0  0  0  0  0  0  0  0  0  0
   -6.9830   20.4830  -32.0250 C   0  0  0  0  0  0  0  0  0  0  0  0
   -4.2320   24.5200  -27.8030 C   0  0  0  0  0  0  0  0  0  0  0  0
   -3.3860   24.1650  -26.7460 C   0  0  0  0  0  0  0  0  0  0  0  0
   -1.3734   23.6124  -26.1589 H   0  0  0  0  0  0  0  0  0  0  0  0
   -0.4737   23.7401  -28.4853 H   0  0  0  0  0  0  0  0  0  0  0  0
   -1.9814   24.3680  -30.3767 H   0  0  0  0  0  0  0  0  0  0  0  0
   -2.8636   20.5008  -34.5234 H   0  0  0  0  0  0  0  0  0  0  0  0
   -0.6398   19.6602  -35.2766 H   0  0  0  0  0  0  0  0  0  0  0  0
    1.3453   19.8496  -33.7780 H   0  0  0  0  0  0  0  0  0  0  0  0
    1.1104   20.8842  -31.5194 H   0  0  0  0  0  0  0  0  0  0  0  0
   -1.1058   21.7299  -30.7532 H   0  0  0  0  0  0  0  0  0  0  0  0
   -7.2556   22.9131  -29.6608 H   0  0  0  0  0  0  0  0  0  0  0  0
   -7.3965   24.1370  -30.9978 H   0  0  0  0  0  0  0  0  0  0  0  0
  -10.3915   20.7047  -31.7728 H   0  0  0  0  0  0  0  0  0  0  0  0
  -10.2052   18.3472  -32.5729 H   0  0  0  0  0  0  0  0  0  0  0  0
   -7.9595   17.3517  -33.0181 H   0  0  0  0  0  0  0  0  0  0  0  0
   -5.8962   18.7202  -32.6895 H   0  0  0  0  0  0  0  0  0  0  0  0
   -5.2933   24.7348  -27.6092 H   0  0  0  0  0  0  0  0  0  0  0  0
   -3.7822   24.1039  -25.7217 H   0  0  0  0  0  0  0  0  0  0  0  0
  1  2  2  0
  2  3  1  0
  3  4  2  0
  4  5  1  0
  5  6  1  0
  6  7  2  0
  7  8  1  0
  8  9  1  0
  9 10  2  0
 10 11  1  0
 11 12  2  0
 12 13  1  0
 13 14  2  0
  8 15  2  0
 15 16  1  0
 16 17  2  0
 17 18  1  0
 18 19  1  0
 19 20  1  0
 20 21  2  0
 21 22  1  0
 22 23  2  0
 23 24  1  0
 24 25  2  0
  4 26  1  0
 26 27  2  0
 27  1  1  0
 17  6  1  0
 25 20  1  0
 14  9  1  0
 25 16  1  0
  1 28  1  0
  2 29  1  0
  3 30  1  0
 10 31  1  0
 11 32  1  0
 12 33  1  0
 13 34  1  0
 14 35  1  0
 18 36  1  0
 18 37  1  0
 21 38  1  0
 22 39  1  0
 23 40  1  0
 24 41  1  0
 26 42  1  0
 27 43  1  0
M  END
>  <UniqueID>  (41) 
40

>  <SMILES>  (41) 
c1ccc(Sc2nc(-c3ccccc3)nc3c2COc2ccccc2-3)cc1

>  <Energy>  (41) 
53.11632283750616

>  <Genealogy>  (41) 
c1ccc(Sc2nc(-c3ccccc3)nc3c2COc2ccccc2-3)cc1 (3D coordinates assigned)
c1ccc(Sc2nc(-c3ccccc3)nc3c2COc2ccccc2-3)cc1 (nonaromatic ring conformer: 53.11632283750616 kcal/mol)

>  <smiles>  (41) 
c1ccc(Sc2nc(-c3ccccc3)nc3c2COc2ccccc2-3)cc1

>  <score_type>  (41) 
oracle

>  <origin>  (41) 
adgpu

>  <m_score__min__energy>  (41) 
-9.0899999999999999

>  <m_primary>  (41) 
energy

$$$$
41:0
     RDKit          3D

 22 23  0  0  0  0  0  0  0  0999 V2000
   -3.1070   25.0240  -31.4850 H   0  0  0  0  0  0  0  0  0  0  0  0
   -3.8620   25.3630  -30.8470 N   0  0  0  0  0  0  0  0  0  0  0  0
   -4.9830   24.7290  -30.7480 C   0  0  0  0  0  0  0  0  0  0  0  0
   -5.2870   23.6070  -31.4290 N   0  0  0  0  0  0  0  0  0  0  0  0
   -6.5470   23.1640  -31.1170 C   0  0  0  0  0  0  0  0  0  0  0  0
   -7.1160   21.9440  -31.7370 C   0  0  0  0  0  0  0  0  0  0  0  0
   -8.4280   21.5360  -31.4340 C   0  0  0  0  0  0  0  0  0  0  0  0
   -9.0357   22.1259  -30.7320 H   0  0  0  0  0  0  0  0  0  0  0  0
   -8.9630   20.3870  -32.0190 C   0  0  0  0  0  0  0  0  0  0  0  0
   -9.9896   20.0756  -31.7757 H   0  0  0  0  0  0  0  0  0  0  0  0
   -8.2010   19.6320  -32.9110 C   0  0  0  0  0  0  0  0  0  0  0  0
   -8.6305   18.7279  -33.3671 H   0  0  0  0  0  0  0  0  0  0  0  0
   -6.8950   20.0170  -33.2290 C   0  0  0  0  0  0  0  0  0  0  0  0
   -6.1700   19.2230  -34.1320 O   0  0  0  0  0  0  0  0  0  0  0  0
   -6.0940   17.8020  -34.0730 C   0  0  0  0  0  0  0  0  0  0  0  0
   -6.0767   17.4791  -33.0216 H   0  0  0  0  0  0  0  0  0  0  0  0
   -6.9701   17.3668  -34.5759 H   0  0  0  0  0  0  0  0  0  0  0  0
   -5.1764   17.4627  -34.5759 H   0  0  0  0  0  0  0  0  0  0  0  0
   -6.3540   21.1760  -32.6380 C   0  0  0  0  0  0  0  0  0  0  0  0
   -5.3267   21.4837  -32.8828 H   0  0  0  0  0  0  0  0  0  0  0  0
   -7.2520   23.9010  -30.2070 N   0  0  0  0  0  0  0  0  0  0  0  0
   -6.2530   25.1590  -29.7780 S   0  0  0  0  0  0  0  0  0  0  0  0
  1  2  1  0
  2  3  2  0
  3  4  1  0
  4  5  1  0
  5  6  1  0
  6  7  2  0
  7  8  1  0
  7  9  1  0
  9 10  1  0
  9 11  2  0
 11 12  1  0
 11 13  1  0
 13 14  1  0
 14 15  1  0
 15 16  1  0
 15 17  1  0
 15 18  1  0
 13 19  2  0
 19 20  1  0
  5 21  2  0
 21 22  1  0
 22  3  1  0
 19  6  1  0
M  CHG  1   4  -1
M  END
>  <UniqueID>  (42) 
41

>  <SMILES>  (42) 
[H]/N=c1\[n-]c(-c2cccc(OC)c2)ns1

>  <Energy>  (42) 
60.52879776967831

>  <Genealogy>  (42) 
COc1cccc(-c2nsc(=N)[n-]2)c1 (protonated)
[H]/N=c1\[n-]c(-c2cccc(OC)c2)ns1 (cis-trans isomerization)
[H]/N=c1\[n-]c(-c2cccc(OC)c2)ns1 (3D coordinates assigned)
[H]/N=c1\[n-]c(-c2cccc(OC)c2)ns1 (optimized conformer: 60.52879776967831 kcal/mol)

>  <smiles>  (42) 
COc1cccc(-c2nsc(=N)[nH]2)c1

>  <score_type>  (42) 
oracle

>  <origin>  (42) 
adgpu

>  <m_score__min__energy>  (42) 
-7.5899999999999999

>  <m_primary>  (42) 
energy

$$$$
42:0
     RDKit          3D

 40 42  0  0  0  0  0  0  0  0999 V2000
   -3.4673   18.0017  -34.4287 H   0  0  0  0  0  0  0  0  0  0  0  0
   -4.4320   17.5870  -34.1010 C   0  0  0  0  0  0  0  0  0  0  0  0
   -5.3150   18.3720  -33.4300 N   0  0  0  0  0  0  0  0  0  0  0  0
   -6.5240   17.9030  -33.0080 C   0  0  0  0  0  0  0  0  0  0  0  0
   -7.3510   18.6600  -32.3480 N   0  0  0  0  0  0  0  0  0  0  0  0
   -7.1830   20.0530  -32.0450 C   0  0  0  0  0  0  0  0  0  0  0  0
   -8.0880   20.6440  -31.3960 O   0  0  0  0  0  0  0  0  0  0  0  0
   -6.0640   20.7980  -32.5510 N   0  0  0  0  0  0  0  0  0  0  0  0
   -5.6410   20.4850  -33.4550 H   0  0  0  0  0  0  0  0  0  0  0  0
   -5.6040   22.0360  -31.9820 C   0  0  0  0  0  0  0  0  0  0  0  0
   -6.3880   23.2190  -32.0570 C   0  0  0  0  0  0  0  0  0  0  0  0
   -7.3586   23.1967  -32.5741 H   0  0  0  0  0  0  0  0  0  0  0  0
   -5.9360   24.4180  -31.4770 C   0  0  0  0  0  0  0  0  0  0  0  0
   -6.5352   25.3383  -31.5408 H   0  0  0  0  0  0  0  0  0  0  0  0
   -4.7090   24.4070  -30.8200 C   0  0  0  0  0  0  0  0  0  0  0  0
   -4.1180   25.4460  -30.2030 N   0  0  0  0  0  0  0  0  0  0  0  0
   -2.9670   24.9220  -29.7210 C   0  0  0  0  0  0  0  0  0  0  0  0
   -2.0400   25.6650  -29.0030 O   0  0  0  0  0  0  0  0  0  0  0  0
   -2.8220   23.5750  -30.0210 C   0  0  0  0  0  0  0  0  0  0  0  0
   -1.9891   22.9083  -29.7530 H   0  0  0  0  0  0  0  0  0  0  0  0
   -3.9580   23.2650  -30.7300 C   0  0  0  0  0  0  0  0  0  0  0  0
   -4.3730   22.0610  -31.2900 C   0  0  0  0  0  0  0  0  0  0  0  0
   -3.7590   21.1531  -31.1964 H   0  0  0  0  0  0  0  0  0  0  0  0
   -6.8690   16.5690  -33.2560 C   0  0  0  0  0  0  0  0  0  0  0  0
   -7.8345   16.1745  -32.9064 H   0  0  0  0  0  0  0  0  0  0  0  0
   -5.9790   15.7370  -33.9520 C   0  0  0  0  0  0  0  0  0  0  0  0
   -6.3370   14.2990  -34.2140 C   0  0  0  0  0  0  0  0  0  0  0  0
   -6.6624   14.1918  -35.2593 H   0  0  0  0  0  0  0  0  0  0  0  0
   -7.1481   14.0047  -33.5318 H   0  0  0  0  0  0  0  0  0  0  0  0
   -5.1780   13.4280  -33.9770 N   0  0  0  0  0  0  0  0  0  0  0  0
   -4.3010   13.9860  -34.1040 H   0  0  0  0  0  0  0  0  0  0  0  0
   -5.1860   12.8180  -32.6350 C   0  0  0  0  0  0  0  0  0  0  0  0
   -4.6040   11.8852  -32.6680 H   0  0  0  0  0  0  0  0  0  0  0  0
   -6.2342   12.6309  -32.3589 H   0  0  0  0  0  0  0  0  0  0  0  0
   -4.5810   13.7370  -31.5700 C   0  0  0  0  0  0  0  0  0  0  0  0
   -4.8327   13.3546  -30.5698 H   0  0  0  0  0  0  0  0  0  0  0  0
   -3.4876   13.7644  -31.6876 H   0  0  0  0  0  0  0  0  0  0  0  0
   -4.9880   14.7521  -31.6876 H   0  0  0  0  0  0  0  0  0  0  0  0
   -4.7470   16.2560  -34.3750 C   0  0  0  0  0  0  0  0  0  0  0  0
   -4.0344   15.6184  -34.9187 H   0  0  0  0  0  0  0  0  0  0  0  0
  1  2  1  0
  2  3  1  0
  3  4  1  0
  4  5  2  0
  5  6  1  0
  6  7  2  0
  6  8  1  0
  8  9  1  0
  8 10  1  0
 10 11  2  0
 11 12  1  0
 11 13  1  0
 13 14  1  0
 13 15  2  0
 15 16  1  0
 16 17  1  0
 17 18  1  0
 17 19  2  0
 19 20  1  0
 19 21  1  0
 21 22  2  0
 22 23  1  0
  4 24  1  0
 24 25  1  0
 24 26  2  0
 26 27  1  0
 27 28  1  0
 27 29  1  0
 27 30  1  0
 30 31  1  0
 30 32  1  0
 32 33  1  0
 32 34  1  0
 32 35  1  0
 35 36  1  0
 35 37  1  0
 35 38  1  0
 26 39  1  0
 39 40  1  0
 39  2  2  0
 22 10  1  0
 21 15  1  0
M  CHG  3   3  -1  16  -1  18  -1
M  END
>  <UniqueID>  (43) 
42

>  <SMILES>  (43) 
CCNCc1cc[n-]/c(=N\C(=O)Nc2ccc3[n-]c([O-])cc3c2)c1

>  <Energy>  (43) 
80.82310039843468

>  <Genealogy>  (43) 
CCNCc1cc[n-]c(=NC(=O)Nc2ccc3[n-]c([O-])cc3c2)c1 (protonated)
CCNCc1cc[n-]/c(=N\C(=O)Nc2ccc3[n-]c([O-])cc3c2)c1 (cis-trans isomerization)
CCNCc1cc[n-]/c(=N\C(=O)Nc2ccc3[n-]c([O-])cc3c2)c1 (3D coordinates assigned)
CCNCc1cc[n-]/c(=N\C(=O)Nc2ccc3[n-]c([O-])cc3c2)c1 (optimized conformer: 80.82310039843468 kcal/mol)

>  <smiles>  (43) 
CCNCc1cc[nH]c(=NC(=O)Nc2ccc3[nH]c(O)cc3c2)c1

>  <score_type>  (43) 
oracle

>  <origin>  (43) 
adgpu

>  <m_score__min__energy>  (43) 
-11.300000000000001

>  <m_primary>  (43) 
energy

$$$$
43:0
     RDKit          3D

 35 37  0  0  0  0  0  0  0  0999 V2000
   -4.5080   24.5500  -27.6520 N   0  0  0  0  0  0  0  0  0  0  0  0
   -3.8710   23.4440  -28.3090 C   0  0  0  0  0  0  0  0  0  0  0  0
   -3.3140   22.4230  -27.5220 C   0  0  0  0  0  0  0  0  0  0  0  0
   -2.7630   21.2870  -28.1170 C   0  0  0  0  0  0  0  0  0  0  0  0
   -2.2370   20.3050  -27.3430 F   0  0  0  0  0  0  0  0  0  0  0  0
   -2.7640   21.1550  -29.5040 C   0  0  0  0  0  0  0  0  0  0  0  0
   -3.3000   22.1670  -30.3030 C   0  0  0  0  0  0  0  0  0  0  0  0
   -3.8420   23.3290  -29.7240 C   0  0  0  0  0  0  0  0  0  0  0  0
   -4.3300   24.4020  -30.6170 C   0  0  0  0  0  0  0  0  0  0  0  0
   -4.1000   25.6090  -30.3410 O   0  0  0  0  0  0  0  0  0  0  0  0
   -5.0210   24.0590  -31.8230 N   0  0  0  0  0  0  0  0  0  0  0  0
   -6.4590   23.0920  -31.8730 S   0  0  0  0  0  0  0  0  0  0  0  0
   -7.4370   23.7370  -32.8140 O   0  0  0  0  0  0  0  0  0  0  0  0
   -7.0960   23.0200  -30.5140 O   0  0  0  0  0  0  0  0  0  0  0  0
   -6.0520   21.4650  -32.4340 C   0  0  0  0  0  0  0  0  0  0  0  0
   -4.7950   21.2220  -33.0080 C   0  0  0  0  0  0  0  0  0  0  0  0
   -4.4490   19.9410  -33.4460 C   0  0  0  0  0  0  0  0  0  0  0  0
   -5.3510   18.8840  -33.3130 C   0  0  0  0  0  0  0  0  0  0  0  0
   -6.6090   19.1040  -32.7380 C   0  0  0  0  0  0  0  0  0  0  0  0
   -7.5290   18.0570  -32.5880 C   0  0  0  0  0  0  0  0  0  0  0  0
   -8.7740   18.3040  -32.0090 C   0  0  0  0  0  0  0  0  0  0  0  0
   -9.0900   19.5950  -31.5850 C   0  0  0  0  0  0  0  0  0  0  0  0
   -8.1910   20.6030  -31.7350 N   0  0  0  0  0  0  0  0  0  0  0  0
   -6.9650   20.4010  -32.2960 C   0  0  0  0  0  0  0  0  0  0  0  0
   -4.6120   25.4800  -28.1100 H   0  0  0  0  0  0  0  0  0  0  0  0
   -5.0010   24.4100  -26.7420 H   0  0  0  0  0  0  0  0  0  0  0  0
   -3.3119   22.5194  -26.4262 H   0  0  0  0  0  0  0  0  0  0  0  0
   -2.3420   20.2525  -29.9702 H   0  0  0  0  0  0  0  0  0  0  0  0
   -3.2984   22.0544  -31.3972 H   0  0  0  0  0  0  0  0  0  0  0  0
   -4.0755   22.0473  -33.1142 H   0  0  0  0  0  0  0  0  0  0  0  0
   -3.4616   19.7648  -33.8976 H   0  0  0  0  0  0  0  0  0  0  0  0
   -5.0736   17.8777  -33.6600 H   0  0  0  0  0  0  0  0  0  0  0  0
   -7.2698   17.0428  -32.9261 H   0  0  0  0  0  0  0  0  0  0  0  0
   -9.5008   17.4873  -31.8877 H   0  0  0  0  0  0  0  0  0  0  0  0
  -10.0698   19.7976  -31.1279 H   0  0  0  0  0  0  0  0  0  0  0  0
  1  2  1  0
  2  3  2  0
  3  4  1  0
  4  5  1  0
  4  6  2  0
  6  7  1  0
  7  8  2  0
  8  9  1  0
  9 10  2  0
  9 11  1  0
 11 12  1  0
 12 13  2  0
 12 14  2  0
 12 15  1  0
 15 16  2  0
 16 17  1  0
 17 18  2  0
 18 19  1  0
 19 20  2  0
 20 21  1  0
 21 22  2  0
 22 23  1  0
 23 24  2  0
  8  2  1  0
 24 15  1  0
 24 19  1  0
  1 25  1  0
  1 26  1  0
  3 27  1  0
  6 28  1  0
  7 29  1  0
 16 30  1  0
 17 31  1  0
 18 32  1  0
 20 33  1  0
 21 34  1  0
 22 35  1  0
M  CHG  1  11  -1
M  END
>  <UniqueID>  (44) 
43

>  <SMILES>  (44) 
Nc1cc(F)ccc1C(=O)[N-]S(=O)(=O)c1cccc2cccnc12

>  <Energy>  (44) 
49.575077294122906

>  <Genealogy>  (44) 
Nc1cc(F)ccc1C(=O)[N-]S(=O)(=O)c1cccc2cccnc12 (protonated)
Nc1cc(F)ccc1C(=O)[N-]S(=O)(=O)c1cccc2cccnc12 (3D coordinates assigned)
Nc1cc(F)ccc1C(=O)[N-]S(=O)(=O)c1cccc2cccnc12 (optimized conformer: 49.575077294122906 kcal/mol)

>  <smiles>  (44) 
Nc1cc(F)ccc1C(=O)NS(=O)(=O)c1cccc2cccnc12

>  <score_type>  (44) 
oracle

>  <origin>  (44) 
adgpu

>  <m_score__min__energy>  (44) 
-9.8100000000000005

>  <m_primary>  (44) 
energy

$$$$
44:0
     RDKit          3D

 34 35  0  0  0  0  0  0  0  0999 V2000
   -0.5330   26.5340  -27.3130 C   0  0  0  0  0  0  0  0  0  0  0  0
   -1.0260   25.3660  -28.1070 C   0  0  0  0  0  0  0  0  0  0  0  0
   -0.3980   24.1240  -28.0030 C   0  0  0  0  0  0  0  0  0  0  0  0
   -0.8570   23.0370  -28.7640 C   0  0  0  0  0  0  0  0  0  0  0  0
   -0.1390   21.7180  -28.6480 C   0  0  0  0  0  0  0  0  0  0  0  0
   -1.9660   23.2180  -29.6320 C   0  0  0  0  0  0  0  0  0  0  0  0
   -2.5290   22.0900  -30.4780 C   0  0  0  0  0  0  0  0  0  0  0  0
   -3.9850   22.1900  -30.5740 N   0  0  0  0  0  0  0  0  0  0  0  0
   -4.7580   21.3850  -31.4800 C   0  0  0  0  0  0  0  0  0  0  0  0
   -4.1920   20.4700  -32.1370 O   0  0  0  0  0  0  0  0  0  0  0  0
   -6.2170   21.5960  -31.6420 C   0  0  0  0  0  0  0  0  0  0  0  0
   -6.7840   22.8800  -31.5300 C   0  0  0  0  0  0  0  0  0  0  0  0
   -8.1610   23.0600  -31.6900 C   0  0  0  0  0  0  0  0  0  0  0  0
   -8.9850   21.9690  -31.9690 C   0  0  0  0  0  0  0  0  0  0  0  0
   -8.4330   20.6910  -32.0940 C   0  0  0  0  0  0  0  0  0  0  0  0
   -9.4680   19.3200  -32.4510 Cl  0  0  0  0  0  0  0  0  0  0  0  0
   -7.0560   20.5050  -31.9360 C   0  0  0  0  0  0  0  0  0  0  0  0
   -2.5470   24.5020  -29.7170 C   0  0  0  0  0  0  0  0  0  0  0  0
   -3.5150   24.7200  -30.4960 O   0  0  0  0  0  0  0  0  0  0  0  0
   -2.0690   25.5240  -28.9630 N   0  0  0  0  0  0  0  0  0  0  0  0
   -0.6262   26.3131  -26.2394 H   0  0  0  0  0  0  0  0  0  0  0  0
    0.5223   26.7246  -27.5578 H   0  0  0  0  0  0  0  0  0  0  0  0
   -1.1326   27.4231  -27.5578 H   0  0  0  0  0  0  0  0  0  0  0  0
    0.4578   23.9965  -27.3238 H   0  0  0  0  0  0  0  0  0  0  0  0
   -0.0024   21.4671  -27.5858 H   0  0  0  0  0  0  0  0  0  0  0  0
   -0.7340   20.9324  -29.1368 H   0  0  0  0  0  0  0  0  0  0  0  0
    0.8437   21.7912  -29.1368 H   0  0  0  0  0  0  0  0  0  0  0  0
   -2.0963   22.1459  -31.4878 H   0  0  0  0  0  0  0  0  0  0  0  0
   -2.2718   21.1313  -30.0039 H   0  0  0  0  0  0  0  0  0  0  0  0
   -4.4680   22.8520  -29.9260 H   0  0  0  0  0  0  0  0  0  0  0  0
   -6.1402   23.7457  -31.3155 H   0  0  0  0  0  0  0  0  0  0  0  0
   -8.5967   24.0656  -31.5956 H   0  0  0  0  0  0  0  0  0  0  0  0
  -10.0685   22.1147  -32.0905 H   0  0  0  0  0  0  0  0  0  0  0  0
   -6.6254   19.4984  -32.0423 H   0  0  0  0  0  0  0  0  0  0  0  0
  1  2  1  0
  2  3  2  0
  3  4  1  0
  4  5  1  0
  4  6  2  0
  6  7  1  0
  7  8  1  0
  8  9  1  0
  9 10  2  0
  9 11  1  0
 11 12  2  0
 12 13  1  0
 13 14  2  0
 14 15  1  0
 15 16  1  0
 15 17  2  0
  6 18  1  0
 18 19  2  0
 18 20  1  0
 20  2  1  0
 17 11  1  0
  1 21  1  0
  1 22  1  0
  1 23  1  0
  3 24  1  0
  5 25  1  0
  5 26  1  0
  5 27  1  0
  7 28  1  0
  7 29  1  0
  8 30  1  0
 12 31  1  0
 13 32  1  0
 14 33  1  0
 17 34  1  0
M  CHG  1  20  -1
M  END
>  <UniqueID>  (45) 
44

>  <SMILES>  (45) 
Cc1cc(C)c(CNC(=O)c2cccc(Cl)c2)c(=O)[n-]1

>  <Energy>  (45) 
37.00049752646586

>  <Genealogy>  (45) 
Cc1cc(C)c(CNC(=O)c2cccc(Cl)c2)c(=O)[n-]1 (protonated)
Cc1cc(C)c(CNC(=O)c2cccc(Cl)c2)c(=O)[n-]1 (3D coordinates assigned)
Cc1cc(C)c(CNC(=O)c2cccc(Cl)c2)c(=O)[n-]1 (optimized conformer: 37.00049752646586 kcal/mol)

>  <smiles>  (45) 
Cc1cc(C)c(CNC(=O)c2cccc(Cl)c2)c(=O)[nH]1

>  <score_type>  (45) 
oracle

>  <origin>  (45) 
adgpu

>  <m_score__min__energy>  (45) 
-8.9399999999999995

>  <m_primary>  (45) 
energy

$$$$
45:0
     RDKit          3D

 26 27  0  0  0  0  0  0  0  0999 V2000
   -3.7520   17.3890  -33.0020 N   0  0  0  0  0  0  0  0  0  0  0  0
   -3.4490   18.6500  -33.1730 C   0  0  0  0  0  0  0  0  0  0  0  0
   -4.1630   19.6450  -32.4910 C   0  0  0  0  0  0  0  0  0  0  0  0
   -3.8400   20.9790  -32.6720 C   0  0  0  0  0  0  0  0  0  0  0  0
   -4.5750   22.0220  -31.9690 C   0  0  0  0  0  0  0  0  0  0  0  0
   -5.9510   22.0210  -31.8390 C   0  0  0  0  0  0  0  0  0  0  0  0
   -6.6430   23.0150  -31.1710 C   0  0  0  0  0  0  0  0  0  0  0  0
   -5.9720   24.0700  -30.5940 C   0  0  0  0  0  0  0  0  0  0  0  0
   -6.7870   25.3510  -29.7400 Cl  0  0  0  0  0  0  0  0  0  0  0  0
   -4.5990   24.0980  -30.7070 C   0  0  0  0  0  0  0  0  0  0  0  0
   -3.8770   25.1920  -30.1120 N   0  0  0  0  0  0  0  0  0  0  0  0
   -3.9100   23.0840  -31.3880 C   0  0  0  0  0  0  0  0  0  0  0  0
   -2.8250   21.2300  -33.5220 N   0  0  0  0  0  0  0  0  0  0  0  0
   -2.1510   20.2540  -34.1680 C   0  0  0  0  0  0  0  0  0  0  0  0
   -1.1910   20.5490  -34.9670 N   0  0  0  0  0  0  0  0  0  0  0  0
   -2.4420   18.9510  -34.0110 N   0  0  0  0  0  0  0  0  0  0  0  0
   -4.5320   17.1530  -32.3520 H   0  0  0  0  0  0  0  0  0  0  0  0
   -4.9812   19.3654  -31.8110 H   0  0  0  0  0  0  0  0  0  0  0  0
   -6.5208   21.1933  -32.2865 H   0  0  0  0  0  0  0  0  0  0  0  0
   -7.7394   22.9623  -31.1000 H   0  0  0  0  0  0  0  0  0  0  0  0
   -4.1720   25.4840  -29.1610 H   0  0  0  0  0  0  0  0  0  0  0  0
   -3.0990   25.6690  -30.6090 H   0  0  0  0  0  0  0  0  0  0  0  0
   -2.8137   23.1357  -31.4612 H   0  0  0  0  0  0  0  0  0  0  0  0
   -2.5170   22.2020  -33.7160 H   0  0  0  0  0  0  0  0  0  0  0  0
   -0.9310   21.5320  -35.1200 H   0  0  0  0  0  0  0  0  0  0  0  0
   -1.9370   18.1770  -34.4990 H   0  0  0  0  0  0  0  0  0  0  0  0
  1  2  2  3
  2  3  1  0
  3  4  2  0
  4  5  1  0
  5  6  2  0
  6  7  1  0
  7  8  2  0
  8  9  1  0
  8 10  1  0
 10 11  1  0
 10 12  2  0
  4 13  1  0
 13 14  1  0
 14 15  2  3
 14 16  1  0
 16  2  1  0
 12  5  1  0
  1 17  1  0
  3 18  1  0
  6 19  1  0
  7 20  1  0
 11 21  1  0
 11 22  1  0
 12 23  1  0
 13 24  1  0
 15 25  1  0
 16 26  1  0
M  END
>  <smiles>  (46) 
N=c1cc(-c2ccc(Cl)c(N)c2)[nH]c(=N)[nH]1

>  <score_type>  (46) 
oracle

>  <origin>  (46) 
adgpu

>  <m_score__min__energy>  (46) 
-6.5700000000000003

>  <m_primary>  (46) 
energy

$$$$
46:0
     RDKit          3D

 38 41  0  0  0  0  0  0  0  0999 V2000
   -2.1550   20.3970  -27.4960 Cl  0  0  0  0  0  0  0  0  0  0  0  0
   -2.6380   21.8300  -28.3860 C   0  0  0  0  0  0  0  0  0  0  0  0
   -2.4450   21.8940  -29.7690 C   0  0  0  0  0  0  0  0  0  0  0  0
   -2.8290   23.0350  -30.4800 C   0  0  0  0  0  0  0  0  0  0  0  0
   -3.4090   24.1290  -29.8070 C   0  0  0  0  0  0  0  0  0  0  0  0
   -3.8070   25.3020  -30.4690 O   0  0  0  0  0  0  0  0  0  0  0  0
   -5.1540   25.6470  -30.7920 C   0  0  0  0  0  0  0  0  0  0  0  0
   -6.0160   24.4260  -30.8370 C   0  0  0  0  0  0  0  0  0  0  0  0
   -7.1820   24.3150  -30.1690 N   0  0  0  0  0  0  0  0  0  0  0  0
   -7.6180   23.0840  -30.5020 C   0  0  0  0  0  0  0  0  0  0  0  0
   -6.7050   22.5020  -31.3610 C   0  0  0  0  0  0  0  0  0  0  0  0
   -6.7630   21.1600  -31.9810 C   0  0  0  0  0  0  0  0  0  0  0  0
   -7.8950   20.3490  -31.7750 C   0  0  0  0  0  0  0  0  0  0  0  0
   -7.9710   19.0740  -32.3460 C   0  0  0  0  0  0  0  0  0  0  0  0
   -6.9160   18.5970  -33.1250 C   0  0  0  0  0  0  0  0  0  0  0  0
   -5.7980   19.4050  -33.3620 C   0  0  0  0  0  0  0  0  0  0  0  0
   -5.7110   20.6740  -32.7820 C   0  0  0  0  0  0  0  0  0  0  0  0
   -4.7730   18.9240  -34.1840 O   0  0  0  0  0  0  0  0  0  0  0  0
   -4.9640   17.7640  -34.9980 C   0  0  0  0  0  0  0  0  0  0  0  0
   -5.7890   16.7140  -34.2420 C   0  0  0  0  0  0  0  0  0  0  0  0
   -6.9580   17.3140  -33.6800 O   0  0  0  0  0  0  0  0  0  0  0  0
   -5.7320   23.3600  -31.5490 O   0  0  0  0  0  0  0  0  0  0  0  0
   -3.6000   24.0520  -28.4210 C   0  0  0  0  0  0  0  0  0  0  0  0
   -3.2170   22.9100  -27.7130 C   0  0  0  0  0  0  0  0  0  0  0  0
   -1.9898   21.0445  -30.2993 H   0  0  0  0  0  0  0  0  0  0  0  0
   -2.6779   23.0789  -31.5687 H   0  0  0  0  0  0  0  0  0  0  0  0
   -5.5434   26.3360  -30.0280 H   0  0  0  0  0  0  0  0  0  0  0  0
   -5.1686   26.1269  -31.7817 H   0  0  0  0  0  0  0  0  0  0  0  0
   -8.5493   22.6181  -30.1476 H   0  0  0  0  0  0  0  0  0  0  0  0
   -8.7273   20.7211  -31.1595 H   0  0  0  0  0  0  0  0  0  0  0  0
   -8.8608   18.4486  -32.1812 H   0  0  0  0  0  0  0  0  0  0  0  0
   -4.8188   21.2946  -32.9515 H   0  0  0  0  0  0  0  0  0  0  0  0
   -5.4952   18.0495  -35.9180 H   0  0  0  0  0  0  0  0  0  0  0  0
   -3.9819   17.3360  -35.2478 H   0  0  0  0  0  0  0  0  0  0  0  0
   -6.0889   15.9174  -34.9387 H   0  0  0  0  0  0  0  0  0  0  0  0
   -5.1767   16.2934  -33.4307 H   0  0  0  0  0  0  0  0  0  0  0  0
   -4.0555   24.8981  -27.8856 H   0  0  0  0  0  0  0  0  0  0  0  0
   -3.3712   22.8606  -26.6250 H   0  0  0  0  0  0  0  0  0  0  0  0
  1  2  1  0
  2  3  2  0
  3  4  1  0
  4  5  2  0
  5  6  1  0
  6  7  1  0
  7  8  1  0
  8  9  2  0
  9 10  1  0
 10 11  2  0
 11 12  1  0
 12 13  2  0
 13 14  1  0
 14 15  2  0
 15 16  1  0
 16 17  2  0
 16 18  1  0
 18 19  1  0
 19 20  1  0
 20 21  1  0
 11 22  1  0
  5 23  1  0
 23 24  2  0
 24  2  1  0
 22  8  1  0
 17 12  1  0
 21 15  1  0
  3 25  1  0
  4 26  1  0
  7 27  1  0
  7 28  1  0
 10 29  1  0
 13 30  1  0
 14 31  1  0
 17 32  1  0
 19 33  1  0
 19 34  1  0
 20 35  1  0
 20 36  1  0
 23 37  1  0
 24 38  1  0
M  END
>  <UniqueID>  (47) 
45

>  <SMILES>  (47) 
Clc1ccc(OCc2ncc(-c3ccc4c(c3)OCCO4)o2)cc1

>  <Energy>  (47) 
72.26456508292785

>  <Genealogy>  (47) 
Clc1ccc(OCc2ncc(-c3ccc4c(c3)OCCO4)o2)cc1 (3D coordinates assigned)
Clc1ccc(OCc2ncc(-c3ccc4c(c3)OCCO4)o2)cc1 (nonaromatic ring conformer: 72.26456508292785 kcal/mol)

>  <smiles>  (47) 
Clc1ccc(OCc2ncc(-c3ccc4c(c3)OCCO4)o2)cc1

>  <score_type>  (47) 
oracle

>  <origin>  (47) 
adgpu

>  <m_score__min__energy>  (47) 
-8.3599999999999994

>  <m_primary>  (47) 
energy

$$$$
47:0
     RDKit          3D

 28 29  0  0  0  0  0  0  0  0999 V2000
   -4.3777   21.8007  -28.6701 H   0  0  0  0  0  0  0  0  0  0  0  0
   -3.9180   22.5150  -29.3690 C   0  0  0  0  0  0  0  0  0  0  0  0
   -4.4540   22.7060  -30.5380 N   0  0  0  0  0  0  0  0  0  0  0  0
   -5.6410   22.0750  -31.0490 C   0  0  0  0  0  0  0  0  0  0  0  0
   -5.6030   21.0000  -31.9590 C   0  0  0  0  0  0  0  0  0  0  0  0
   -4.6349   20.6168  -32.3139 H   0  0  0  0  0  0  0  0  0  0  0  0
   -6.7910   20.4180  -32.4130 C   0  0  0  0  0  0  0  0  0  0  0  0
   -6.7503   19.5741  -33.1174 H   0  0  0  0  0  0  0  0  0  0  0  0
   -8.0360   20.9020  -31.9770 C   0  0  0  0  0  0  0  0  0  0  0  0
   -9.3130   20.2410  -32.4290 C   0  0  0  0  0  0  0  0  0  0  0  0
   -9.5130   19.0500  -31.7510 F   0  0  0  0  0  0  0  0  0  0  0  0
  -10.4010   21.0620  -32.1880 F   0  0  0  0  0  0  0  0  0  0  0  0
   -9.2370   19.9800  -33.7840 F   0  0  0  0  0  0  0  0  0  0  0  0
   -8.0690   21.9450  -31.0370 C   0  0  0  0  0  0  0  0  0  0  0  0
   -9.0353   22.3065  -30.6554 H   0  0  0  0  0  0  0  0  0  0  0  0
   -6.8810   22.5270  -30.5830 C   0  0  0  0  0  0  0  0  0  0  0  0
   -6.9216   23.3483  -29.8523 H   0  0  0  0  0  0  0  0  0  0  0  0
   -2.6960   23.2480  -28.9680 C   0  0  0  0  0  0  0  0  0  0  0  0
   -1.6940   22.6150  -28.2070 C   0  0  0  0  0  0  0  0  0  0  0  0
   -1.8194   21.5648  -27.9047 H   0  0  0  0  0  0  0  0  0  0  0  0
   -0.5410   23.3120  -27.8330 C   0  0  0  0  0  0  0  0  0  0  0  0
    0.2362   22.8079  -27.2399 H   0  0  0  0  0  0  0  0  0  0  0  0
   -0.3730   24.6460  -28.2100 C   0  0  0  0  0  0  0  0  0  0  0  0
    0.7750   25.3310  -27.8320 O   0  0  0  0  0  0  0  0  0  0  0  0
   -1.3600   25.2880  -28.9650 C   0  0  0  0  0  0  0  0  0  0  0  0
   -1.1910   26.6160  -29.3410 O   0  0  0  0  0  0  0  0  0  0  0  0
   -2.5180   24.5960  -29.3450 C   0  0  0  0  0  0  0  0  0  0  0  0
   -3.4870   25.2530  -30.0980 O   0  0  0  0  0  0  0  0  0  0  0  0
  1  2  1  0
  2  3  2  0
  3  4  1  0
  4  5  2  0
  5  6  1  0
  5  7  1  0
  7  8  1  0
  7  9  2  0
  9 10  1  0
 10 11  1  0
 10 12  1  0
 10 13  1  0
  9 14  1  0
 14 15  1  0
 14 16  2  0
 16 17  1  0
  2 18  1  0
 18 19  2  0
 19 20  1  0
 19 21  1  0
 21 22  1  0
 21 23  2  0
 23 24  1  0
 23 25  1  0
 25 26  1  0
 25 27  2  0
 27 28  1  0
 16  4  1  0
 27 18  1  0
M  CHG  3  24  -1  26  -1  28  -1
M  END
>  <UniqueID>  (48) 
46

>  <SMILES>  (48) 
[O-]c1ccc(/C=N/c2ccc(C(F)(F)F)cc2)c([O-])c1[O-]

>  <Energy>  (48) 
33.77066920962075

>  <Genealogy>  (48) 
[O-]c1ccc(C=Nc2ccc(C(F)(F)F)cc2)c([O-])c1[O-] (protonated)
[O-]c1ccc(/C=N/c2ccc(C(F)(F)F)cc2)c([O-])c1[O-] (cis-trans isomerization)
[O-]c1ccc(/C=N/c2ccc(C(F)(F)F)cc2)c([O-])c1[O-] (3D coordinates assigned)
[O-]c1ccc(/C=N/c2ccc(C(F)(F)F)cc2)c([O-])c1[O-] (optimized conformer: 33.77066920962075 kcal/mol)

>  <smiles>  (48) 
Oc1ccc(C=Nc2ccc(C(F)(F)F)cc2)c(O)c1O

>  <score_type>  (48) 
oracle

>  <origin>  (48) 
adgpu

>  <m_score__min__energy>  (48) 
-12.699999999999999

>  <m_primary>  (48) 
energy

$$$$
48:0
     RDKit          3D

 43 46  0  0  0  0  0  0  0  0999 V2000
   -8.8620   18.3290  -31.5610 C   0  0  0  0  0  0  0  0  0  0  0  0
   -7.6580   18.5320  -32.4320 C   0  0  0  0  0  0  0  0  0  0  0  0
   -7.2350   17.5370  -33.3370 C   0  0  0  0  0  0  0  0  0  0  0  0
   -6.1160   17.7520  -34.1640 C   0  0  0  0  0  0  0  0  0  0  0  0
   -5.4290   18.9720  -34.0960 C   0  0  0  0  0  0  0  0  0  0  0  0
   -5.8840   19.9140  -33.2320 N   0  0  0  0  0  0  0  0  0  0  0  0
   -5.4240   21.1430  -32.9610 C   0  0  0  0  0  0  0  0  0  0  0  0
   -4.1820   21.6620  -33.4460 N   0  0  0  0  0  0  0  0  0  0  0  0
   -2.9260   20.9610  -33.1960 C   0  0  0  0  0  0  0  0  0  0  0  0
   -2.4940   21.1590  -31.7690 C   0  0  0  0  0  0  0  0  0  0  0  0
   -1.3490   21.9170  -31.4750 C   0  0  0  0  0  0  0  0  0  0  0  0
   -0.9870   22.1610  -30.1470 C   0  0  0  0  0  0  0  0  0  0  0  0
   -1.7700   21.6570  -29.1040 C   0  0  0  0  0  0  0  0  0  0  0  0
   -2.9130   20.9060  -29.3880 C   0  0  0  0  0  0  0  0  0  0  0  0
   -3.2780   20.6590  -30.7150 C   0  0  0  0  0  0  0  0  0  0  0  0
   -6.2190   21.6890  -31.9620 C   0  0  0  0  0  0  0  0  0  0  0  0
   -6.0410   22.9920  -31.2860 C   0  0  0  0  0  0  0  0  0  0  0  0
   -4.7650   23.5640  -31.1340 C   0  0  0  0  0  0  0  0  0  0  0  0
   -4.6130   24.7820  -30.4640 C   0  0  0  0  0  0  0  0  0  0  0  0
   -5.7310   25.4420  -29.9480 C   0  0  0  0  0  0  0  0  0  0  0  0
   -7.0030   24.8910  -30.1100 C   0  0  0  0  0  0  0  0  0  0  0  0
   -7.1600   23.6750  -30.7810 C   0  0  0  0  0  0  0  0  0  0  0  0
   -7.1830   20.7980  -31.6200 N   0  0  0  0  0  0  0  0  0  0  0  0
   -6.9430   19.7360  -32.4220 C   0  0  0  0  0  0  0  0  0  0  0  0
   -8.5625   18.3795  -30.5038 H   0  0  0  0  0  0  0  0  0  0  0  0
   -9.6026   19.1150  -31.7702 H   0  0  0  0  0  0  0  0  0  0  0  0
   -9.3040   17.3437  -31.7702 H   0  0  0  0  0  0  0  0  0  0  0  0
   -7.7835   16.5854  -33.3974 H   0  0  0  0  0  0  0  0  0  0  0  0
   -5.7829   16.9674  -34.8593 H   0  0  0  0  0  0  0  0  0  0  0  0
   -4.5464   19.1602  -34.7250 H   0  0  0  0  0  0  0  0  0  0  0  0
   -4.2020   22.4430  -34.1380 H   0  0  0  0  0  0  0  0  0  0  0  0
   -3.0654   19.8868  -33.3874 H   0  0  0  0  0  0  0  0  0  0  0  0
   -2.1512   21.3649  -33.8642 H   0  0  0  0  0  0  0  0  0  0  0  0
   -0.7343   22.3205  -32.2932 H   0  0  0  0  0  0  0  0  0  0  0  0
   -0.0855   22.7499  -29.9224 H   0  0  0  0  0  0  0  0  0  0  0  0
   -1.4858   21.8520  -28.0594 H   0  0  0  0  0  0  0  0  0  0  0  0
   -3.5269   20.5083  -28.5665 H   0  0  0  0  0  0  0  0  0  0  0  0
   -4.1816   20.0715  -30.9348 H   0  0  0  0  0  0  0  0  0  0  0  0
   -3.8826   23.0509  -31.5440 H   0  0  0  0  0  0  0  0  0  0  0  0
   -3.6117   25.2211  -30.3431 H   0  0  0  0  0  0  0  0  0  0  0  0
   -5.6087   26.3959  -29.4141 H   0  0  0  0  0  0  0  0  0  0  0  0
   -7.8834   25.4146  -29.7090 H   0  0  0  0  0  0  0  0  0  0  0  0
   -8.1658   23.2502  -30.9145 H   0  0  0  0  0  0  0  0  0  0  0  0
  1  2  1  0
  2  3  2  0
  3  4  1  0
  4  5  2  0
  5  6  1  0
  6  7  1  0
  7  8  1  0
  8  9  1  0
  9 10  1  0
 10 11  2  0
 11 12  1  0
 12 13  2  0
 13 14  1  0
 14 15  2  0
  7 16  2  0
 16 17  1  0
 17 18  2  0
 18 19  1  0
 19 20  2  0
 20 21  1  0
 21 22  2  0
 16 23  1  0
 23 24  2  0
 24  2  1  0
 24  6  1  0
 15 10  1  0
 22 17  1  0
  1 25  1  0
  1 26  1  0
  1 27  1  0
  3 28  1  0
  4 29  1  0
  5 30  1  0
  8 31  1  0
  9 32  1  0
  9 33  1  0
 11 34  1  0
 12 35  1  0
 13 36  1  0
 14 37  1  0
 15 38  1  0
 18 39  1  0
 19 40  1  0
 20 41  1  0
 21 42  1  0
 22 43  1  0
M  END
>  <UniqueID>  (49) 
47

>  <SMILES>  (49) 
Cc1cccn2c(NCc3ccccc3)c(-c3ccccc3)nc12

>  <Energy>  (49) 
86.5921953547576

>  <Genealogy>  (49) 
Cc1cccn2c(NCc3ccccc3)c(-c3ccccc3)nc12 (3D coordinates assigned)
Cc1cccn2c(NCc3ccccc3)c(-c3ccccc3)nc12 (optimized conformer: 86.5921953547576 kcal/mol)

>  <smiles>  (49) 
Cc1cccn2c(NCc3ccccc3)c(-c3ccccc3)nc12

>  <score_type>  (49) 
oracle

>  <origin>  (49) 
adgpu

>  <m_score__min__energy>  (49) 
-8.3300000000000001

>  <m_primary>  (49) 
energy

$$$$
49:0
     RDKit          3D

 39 41  0  0  0  0  0  0  0  0999 V2000
   -2.5350   26.4480  -28.9690 H   0  0  0  0  0  0  0  0  0  0  0  0
   -1.9980   25.5900  -28.9290 O   0  0  0  0  0  0  0  0  0  0  0  0
   -2.4290   24.4100  -29.5370 C   0  0  0  0  0  0  0  0  0  0  0  0
   -3.5820   24.4410  -30.3340 C   0  0  0  0  0  0  0  0  0  0  0  0
   -4.2500   25.6660  -30.4930 O   0  0  0  0  0  0  0  0  0  0  0  0
   -5.6620   25.8320  -30.3980 C   0  0  0  0  0  0  0  0  0  0  0  0
   -5.9567   25.8666  -29.3388 H   0  0  0  0  0  0  0  0  0  0  0  0
   -5.9548   26.7708  -30.8909 H   0  0  0  0  0  0  0  0  0  0  0  0
   -6.1646   24.9868  -30.8909 H   0  0  0  0  0  0  0  0  0  0  0  0
   -4.0310   23.2590  -30.9500 C   0  0  0  0  0  0  0  0  0  0  0  0
   -4.9245   23.2830  -31.5911 H   0  0  0  0  0  0  0  0  0  0  0  0
   -3.3480   22.0500  -30.7530 C   0  0  0  0  0  0  0  0  0  0  0  0
   -3.7950   20.8040  -31.4060 C   0  0  0  0  0  0  0  0  0  0  0  0
   -3.0333   20.0603  -31.6828 H   0  0  0  0  0  0  0  0  0  0  0  0
   -5.0810   20.5280  -31.6810 C   0  0  0  0  0  0  0  0  0  0  0  0
   -5.5620   19.2800  -32.2550 C   0  0  0  0  0  0  0  0  0  0  0  0
   -4.8370   18.1960  -32.7640 C   0  0  0  0  0  0  0  0  0  0  0  0
   -3.7371   18.2094  -32.7695 H   0  0  0  0  0  0  0  0  0  0  0  0
   -5.5420   17.0920  -33.2670 C   0  0  0  0  0  0  0  0  0  0  0  0
   -4.9931   16.2294  -33.6727 H   0  0  0  0  0  0  0  0  0  0  0  0
   -6.9480   17.0850  -33.2540 C   0  0  0  0  0  0  0  0  0  0  0  0
   -7.4955   16.2158  -33.6473 H   0  0  0  0  0  0  0  0  0  0  0  0
   -7.6550   18.1830  -32.7410 C   0  0  0  0  0  0  0  0  0  0  0  0
   -8.7549   18.1847  -32.7281 H   0  0  0  0  0  0  0  0  0  0  0  0
   -6.9360   19.2740  -32.2470 C   0  0  0  0  0  0  0  0  0  0  0  0
   -7.5040   20.5200  -31.6560 C   0  0  0  0  0  0  0  0  0  0  0  0
   -8.0763   20.2931  -30.7444 H   0  0  0  0  0  0  0  0  0  0  0  0
   -8.2013   21.0286  -32.3380 H   0  0  0  0  0  0  0  0  0  0  0  0
   -6.2680   21.3830  -31.3250 C   0  0  0  0  0  0  0  0  0  0  0  0
   -6.2518   21.6389  -30.2553 H   0  0  0  0  0  0  0  0  0  0  0  0
   -6.2704   22.3332  -31.8791 H   0  0  0  0  0  0  0  0  0  0  0  0
   -2.1820   22.0350  -29.9800 C   0  0  0  0  0  0  0  0  0  0  0  0
   -1.6229   21.0958  -29.8561 H   0  0  0  0  0  0  0  0  0  0  0  0
   -1.7170   23.2100  -29.3590 C   0  0  0  0  0  0  0  0  0  0  0  0
   -0.5600   23.2200  -28.5620 O   0  0  0  0  0  0  0  0  0  0  0  0
   -0.4960   22.7440  -27.2220 C   0  0  0  0  0  0  0  0  0  0  0  0
   -0.6096   23.5890  -26.5269 H   0  0  0  0  0  0  0  0  0  0  0  0
   -1.3046   22.0179  -27.0518 H   0  0  0  0  0  0  0  0  0  0  0  0
    0.4757   22.2573  -27.0518 H   0  0  0  0  0  0  0  0  0  0  0  0
  1  2  1  0
  2  3  1  0
  3  4  2  0
  4  5  1  0
  5  6  1  0
  6  7  1  0
  6  8  1  0
  6  9  1  0
  4 10  1  0
 10 11  1  0
 10 12  2  0
 12 13  1  0
 13 14  1  0
 13 15  2  0
 15 16  1  0
 16 17  2  0
 17 18  1  0
 17 19  1  0
 19 20  1  0
 19 21  2  0
 21 22  1  0
 21 23  1  0
 23 24  1  0
 23 25  2  0
 25 26  1  0
 26 27  1  0
 26 28  1  0
 26 29  1  0
 29 30  1  0
 29 31  1  0
 12 32  1  0
 32 33  1  0
 32 34  2  0
 34 35  1  0
 35 36  1  0
 36 37  1  0
 36 38  1  0
 36 39  1  0
 34  3  1  0
 29 15  1  0
 25 16  1  0
M  END
>  <UniqueID>  (50) 
48

>  <SMILES>  (50) 
COc1cc(/C=C2\CCc3ccccc32)cc(OC)c1O

>  <Energy>  (50) 
58.46545081006437

>  <Genealogy>  (50) 
COc1cc(/C=C2\CCc3ccccc32)cc(OC)c1O (cis-trans isomerization)
COc1cc(/C=C2\CCc3ccccc32)cc(OC)c1O (3D coordinates assigned)
COc1cc(/C=C2\CCc3ccccc32)cc(OC)c1O (nonaromatic ring conformer: 58.46545081006437 kcal/mol)

>  <smiles>  (50) 
COc1cc(C=C2CCc3ccccc32)cc(OC)c1O

>  <score_type>  (50) 
oracle

>  <origin>  (50) 
adgpu

>  <m_score__min__energy>  (50) 
-8.3599999999999994

>  <m_primary>  (50) 
energy

$$$$
