0:0
     RDKit          3D

 46 48  0  0  0  0  0  0  0  0999 V2000
   -1.2920   21.7200  -32.5660 O   0  0  0  0  0  0  0  0  0  0  0  0
   -1.7440   20.6720  -32.0310 C   0  0  0  0  0  0  0  0  0  0  0  0
   -1.4370   20.3890  -30.6610 N   0  0  0  0  0  0  0  0  0  0  0  0
   -2.2910   20.7790  -29.5440 C   0  0  0  0  0  0  0  0  0  0  0  0
   -2.8240   22.1700  -29.7580 C   0  0  0  0  0  0  0  0  0  0  0  0
   -4.0930   22.3710  -30.3260 C   0  0  0  0  0  0  0  0  0  0  0  0
   -4.5630   23.6670  -30.5570 C   0  0  0  0  0  0  0  0  0  0  0  0
   -3.7720   24.7710  -30.2270 C   0  0  0  0  0  0  0  0  0  0  0  0
   -4.2450   26.0570  -30.4640 O   0  0  0  0  0  0  0  0  0  0  0  0
   -2.5050   24.5780  -29.6610 C   0  0  0  0  0  0  0  0  0  0  0  0
   -1.7130   25.6730  -29.3330 O   0  0  0  0  0  0  0  0  0  0  0  0
   -2.0330   23.2820  -29.4280 C   0  0  0  0  0  0  0  0  0  0  0  0
   -2.5840   19.7290  -32.8140 C   0  0  0  0  0  0  0  0  0  0  0  0
   -3.9490   19.5840  -32.4970 C   0  0  0  0  0  0  0  0  0  0  0  0
   -4.7580   18.6850  -33.2030 C   0  0  0  0  0  0  0  0  0  0  0  0
   -6.4620   18.4960  -32.7910 S   0  0  0  0  0  0  0  0  0  0  0  0
   -7.0790   17.4180  -33.6360 O   0  0  0  0  0  0  0  0  0  0  0  0
   -6.5630   18.0860  -31.3480 O   0  0  0  0  0  0  0  0  0  0  0  0
   -7.3030   20.0090  -33.0370 N   0  0  0  0  0  0  0  0  0  0  0  0
   -8.7310   19.9000  -32.6440 C   0  0  0  0  0  0  0  0  0  0  0  0
   -9.0190   20.5110  -31.2650 C   0  0  0  0  0  0  0  0  0  0  0  0
   -8.6360   22.0000  -31.2280 C   0  0  0  0  0  0  0  0  0  0  0  0
   -7.4520   22.3330  -32.1510 C   0  0  0  0  0  0  0  0  0  0  0  0
   -6.5620   21.1050  -32.3720 C   0  0  0  0  0  0  0  0  0  0  0  0
   -4.2070   17.9210  -34.2370 C   0  0  0  0  0  0  0  0  0  0  0  0
   -2.8600   18.0600  -34.5690 C   0  0  0  0  0  0  0  0  0  0  0  0
   -2.0460   18.9540  -33.8660 C   0  0  0  0  0  0  0  0  0  0  0  0
   -0.7030   19.0490  -34.2180 O   0  0  0  0  0  0  0  0  0  0  0  0
   -3.1329   20.0752  -29.4673 H   0  0  0  0  0  0  0  0  0  0  0  0
   -1.6998   20.7600  -28.6166 H   0  0  0  0  0  0  0  0  0  0  0  0
   -4.7188   21.5057  -30.5898 H   0  0  0  0  0  0  0  0  0  0  0  0
   -5.5585   23.8184  -30.9999 H   0  0  0  0  0  0  0  0  0  0  0  0
   -1.0375   23.1334  -28.9842 H   0  0  0  0  0  0  0  0  0  0  0  0
   -4.3848   20.1844  -31.6848 H   0  0  0  0  0  0  0  0  0  0  0  0
   -9.3425   20.4227  -33.3942 H   0  0  0  0  0  0  0  0  0  0  0  0
   -8.9777   18.8294  -32.5890 H   0  0  0  0  0  0  0  0  0  0  0  0
  -10.0920   20.4105  -31.0446 H   0  0  0  0  0  0  0  0  0  0  0  0
   -8.4182   19.9770  -30.5140 H   0  0  0  0  0  0  0  0  0  0  0  0
   -9.5059   22.5948  -31.5435 H   0  0  0  0  0  0  0  0  0  0  0  0
   -8.3310   22.2384  -30.1984 H   0  0  0  0  0  0  0  0  0  0  0  0
   -7.8388   22.6757  -33.1220 H   0  0  0  0  0  0  0  0  0  0  0  0
   -6.8489   23.1204  -31.6752 H   0  0  0  0  0  0  0  0  0  0  0  0
   -5.7073   21.3920  -33.0021 H   0  0  0  0  0  0  0  0  0  0  0  0
   -6.2218   20.7447  -31.3899 H   0  0  0  0  0  0  0  0  0  0  0  0
   -4.8378   17.2090  -34.7894 H   0  0  0  0  0  0  0  0  0  0  0  0
   -2.4348   17.4627  -35.3891 H   0  0  0  0  0  0  0  0  0  0  0  0
  1  2  2  0
  2  3  1  0
  3  4  1  0
  4  5  1  0
  5  6  2  0
  6  7  1  0
  7  8  2  0
  8  9  1  0
  8 10  1  0
 10 11  1  0
 10 12  2  0
  2 13  1  0
 13 14  2  0
 14 15  1  0
 15 16  1  0
 16 17  2  0
 16 18  2  0
 16 19  1  0
 19 20  1  0
 20 21  1  0
 21 22  1  0
 22 23  1  0
 23 24  1  0
 15 25  2  0
 25 26  1  0
 26 27  2  0
 27 28  1  0
 12  5  1  0
 27 13  1  0
 24 19  1  0
  4 29  1  0
  4 30  1  0
  6 31  1  0
  7 32  1  0
 12 33  1  0
 14 34  1  0
 20 35  1  0
 20 36  1  0
 21 37  1  0
 21 38  1  0
 22 39  1  0
 22 40  1  0
 23 41  1  0
 23 42  1  0
 24 43  1  0
 24 44  1  0
 25 45  1  0
 26 46  1  0
M  CHG  4   3  -1   9  -1  11  -1  28  -1
M  END
>  <UniqueID>  (1) 
1

>  <SMILES>  (1) 
O=C([N-]Cc1ccc([O-])c([O-])c1)c1cc(S(=O)(=O)N2CCCCC2)ccc1[O-]

>  <Energy>  (1) 
53.23604811027127

>  <Genealogy>  (1) 
O=C([N-]Cc1ccc([O-])c([O-])c1)c1cc(S(=O)(=O)N2CCCCC2)ccc1[O-] (protonated)
O=C([N-]Cc1ccc([O-])c([O-])c1)c1cc(S(=O)(=O)N2CCCCC2)ccc1[O-] (3D coordinates assigned)
O=C([N-]Cc1ccc([O-])c([O-])c1)c1cc(S(=O)(=O)N2CCCCC2)ccc1[O-] (nonaromatic ring conformer: 53.23604811027127 kcal/mol)

>  <smiles>  (1) 
O=C(NCc1ccc(O)c(O)c1)c1cc(S(=O)(=O)N2CCCCC2)ccc1O

>  <score_type>  (1) 
oracle

>  <origin>  (1) 
adgpu

>  <m_score__min__energy>  (1) 
-15.140000000000001

>  <m_primary>  (1) 
energy

$$$$
1:0
     RDKit          3D

 41 42  0  0  0  0  0  0  0  0999 V2000
   -3.6593   21.3423  -32.8440 H   0  0  0  0  0  0  0  0  0  0  0  0
   -4.5180   21.9050  -32.4490 C   0  0  0  0  0  0  0  0  0  0  0  0
   -4.3330   23.1450  -31.9290 N   0  0  0  0  0  0  0  0  0  0  0  0
   -5.3670   23.8770  -31.4380 C   0  0  0  0  0  0  0  0  0  0  0  0
   -5.1020   25.2230  -30.8400 C   0  0  0  0  0  0  0  0  0  0  0  0
   -5.7664   25.3789  -29.9773 H   0  0  0  0  0  0  0  0  0  0  0  0
   -5.2908   26.0035  -31.5918 H   0  0  0  0  0  0  0  0  0  0  0  0
   -3.7150   25.2920  -30.4040 N   0  0  0  0  0  0  0  0  0  0  0  0
   -3.1980   24.4920  -29.3390 C   0  0  0  0  0  0  0  0  0  0  0  0
   -3.8470   23.4980  -28.9150 O   0  0  0  0  0  0  0  0  0  0  0  0
   -1.8470   24.7480  -28.8320 C   0  0  0  0  0  0  0  0  0  0  0  0
   -1.6570   25.9440  -28.2130 N   0  0  0  0  0  0  0  0  0  0  0  0
   -0.5110   26.2460  -27.5570 C   0  0  0  0  0  0  0  0  0  0  0  0
   -0.3790   27.2356  -27.0951 H   0  0  0  0  0  0  0  0  0  0  0  0
    0.4950   25.2930  -27.4740 C   0  0  0  0  0  0  0  0  0  0  0  0
    1.4158   25.5070  -26.9116 H   0  0  0  0  0  0  0  0  0  0  0  0
    0.3340   24.0950  -28.0920 N   0  0  0  0  0  0  0  0  0  0  0  0
    1.1200   23.4060  -28.0420 H   0  0  0  0  0  0  0  0  0  0  0  0
   -0.7860   23.7910  -28.8120 C   0  0  0  0  0  0  0  0  0  0  0  0
   -0.7770   22.6650  -29.4810 N   0  0  0  0  0  0  0  0  0  0  0  0
   -1.7020   22.1050  -30.4670 C   0  0  0  0  0  0  0  0  0  0  0  0
   -1.1404   21.8288  -31.3716 H   0  0  0  0  0  0  0  0  0  0  0  0
   -2.4638   22.8622  -30.7042 H   0  0  0  0  0  0  0  0  0  0  0  0
   -2.4010   20.8660  -29.9150 C   0  0  0  0  0  0  0  0  0  0  0  0
   -2.3846   20.8950  -28.8155 H   0  0  0  0  0  0  0  0  0  0  0  0
   -3.4434   20.8462  -30.2658 H   0  0  0  0  0  0  0  0  0  0  0  0
   -1.8789   19.9636  -30.2658 H   0  0  0  0  0  0  0  0  0  0  0  0
   -6.6630   23.3420  -31.4430 C   0  0  0  0  0  0  0  0  0  0  0  0
   -7.4996   23.9258  -31.0315 H   0  0  0  0  0  0  0  0  0  0  0  0
   -6.8960   22.0560  -31.9750 C   0  0  0  0  0  0  0  0  0  0  0  0
   -8.2320   21.4860  -31.9930 N   0  0  0  0  0  0  0  0  0  0  0  0
   -8.4350   20.0720  -32.3380 C   0  0  0  0  0  0  0  0  0  0  0  0
   -8.5202   19.4782  -31.4160 H   0  0  0  0  0  0  0  0  0  0  0  0
   -9.3574   19.9673  -32.9281 H   0  0  0  0  0  0  0  0  0  0  0  0
   -7.5793   19.7121  -32.9281 H   0  0  0  0  0  0  0  0  0  0  0  0
   -9.4020   22.3110  -31.6690 C   0  0  0  0  0  0  0  0  0  0  0  0
   -9.5072   22.3852  -30.5766 H   0  0  0  0  0  0  0  0  0  0  0  0
   -9.2702   23.3171  -32.0938 H   0  0  0  0  0  0  0  0  0  0  0  0
  -10.3054   21.8490  -32.0938 H   0  0  0  0  0  0  0  0  0  0  0  0
   -5.7940   21.3420  -32.4840 C   0  0  0  0  0  0  0  0  0  0  0  0
   -5.9396   20.3384  -32.9100 H   0  0  0  0  0  0  0  0  0  0  0  0
  1  2  1  0
  2  3  2  0
  3  4  1  0
  4  5  1  0
  5  6  1  0
  5  7  1  0
  5  8  1  0
  8  9  1  0
  9 10  2  0
  9 11  1  0
 11 12  2  0
 12 13  1  0
 13 14  1  0
 13 15  2  0
 15 16  1  0
 15 17  1  0
 17 18  1  0
 17 19  1  0
 19 20  2  0
 20 21  1  0
 21 22  1  0
 21 23  1  0
 21 24  1  0
 24 25  1  0
 24 26  1  0
 24 27  1  0
  4 28  2  0
 28 29  1  0
 28 30  1  0
 30 31  1  0
 31 32  1  0
 32 33  1  0
 32 34  1  0
 32 35  1  0
 31 36  1  0
 36 37  1  0
 36 38  1  0
 36 39  1  0
 30 40  2  0
 40 41  1  0
 40  2  1  0
 19 11  1  0
M  CHG  1   8  -1
M  END
>  <UniqueID>  (2) 
2

>  <SMILES>  (2) 
CC/N=c1/[nH]ccnc1C(=O)[N-]Cc1cc(N(C)C)ccn1

>  <Energy>  (2) 
55.93734835404897

>  <Genealogy>  (2) 
CCN=c1[nH]ccnc1C(=O)[N-]Cc1cc(N(C)C)ccn1 (protonated)
CC/N=c1/[nH]ccnc1C(=O)[N-]Cc1cc(N(C)C)ccn1 (cis-trans isomerization)
CC/N=c1/[nH]ccnc1C(=O)[N-]Cc1cc(N(C)C)ccn1 (3D coordinates assigned)
CC/N=c1/[nH]ccnc1C(=O)[N-]Cc1cc(N(C)C)ccn1 (optimized conformer: 55.93734835404897 kcal/mol)

>  <smiles>  (2) 
CCN=c1[nH]ccnc1C(=O)NCc1cc(N(C)C)ccn1

>  <score_type>  (2) 
oracle

>  <origin>  (2) 
adgpu

>  <m_score__min__energy>  (2) 
-8.5199999999999996

>  <m_primary>  (2) 
energy

$$$$
2:0
     RDKit          3D

 37 39  0  0  0  0  0  0  0  0999 V2000
   -9.1250   19.8550  -32.0960 C   0  0  0  0  0  0  0  0  0  0  0  0
   -7.6710   19.8200  -32.4880 C   0  0  0  0  0  0  0  0  0  0  0  0
   -7.1600   18.6570  -33.0850 C   0  0  0  0  0  0  0  0  0  0  0  0
   -5.8220   18.5820  -33.4730 C   0  0  0  0  0  0  0  0  0  0  0  0
   -4.9650   19.6710  -33.2730 C   0  0  0  0  0  0  0  0  0  0  0  0
   -3.5530   19.5890  -33.6960 C   0  0  0  0  0  0  0  0  0  0  0  0
   -2.9140   18.4400  -34.0090 N   0  0  0  0  0  0  0  0  0  0  0  0
   -1.6820   18.7950  -34.3320 N   0  0  0  0  0  0  0  0  0  0  0  0
   -1.6080   20.1300  -34.2090 C   0  0  0  0  0  0  0  0  0  0  0  0
   -0.2670   21.0140  -34.5070 S   0  0  0  0  0  0  0  0  0  0  0  0
   -2.7550   20.6290  -33.8180 O   0  0  0  0  0  0  0  0  0  0  0  0
   -5.4640   20.8320  -32.6650 C   0  0  0  0  0  0  0  0  0  0  0  0
   -6.8010   20.9120  -32.2450 C   0  0  0  0  0  0  0  0  0  0  0  0
   -7.3590   22.4070  -31.4690 S   0  0  0  0  0  0  0  0  0  0  0  0
   -8.4240   23.0210  -32.3330 O   0  0  0  0  0  0  0  0  0  0  0  0
   -7.9330   22.1070  -30.1110 O   0  0  0  0  0  0  0  0  0  0  0  0
   -6.0300   23.5290  -31.2920 N   0  0  0  0  0  0  0  0  0  0  0  0
   -4.9890   22.9540  -30.4280 C   0  0  0  0  0  0  0  0  0  0  0  0
   -3.8050   23.9380  -30.3140 C   0  0  0  0  0  0  0  0  0  0  0  0
   -4.1170   25.2240  -30.8230 O   0  0  0  0  0  0  0  0  0  0  0  0
   -5.3320   25.6800  -30.2640 C   0  0  0  0  0  0  0  0  0  0  0  0
   -6.5130   24.8010  -30.7260 C   0  0  0  0  0  0  0  0  0  0  0  0
   -9.2091   19.8570  -30.9992 H   0  0  0  0  0  0  0  0  0  0  0  0
   -9.5922   20.7647  -32.5013 H   0  0  0  0  0  0  0  0  0  0  0  0
   -9.6355   18.9689  -32.5013 H   0  0  0  0  0  0  0  0  0  0  0  0
   -7.8225   17.7943  -33.2489 H   0  0  0  0  0  0  0  0  0  0  0  0
   -5.4382   17.6623  -33.9386 H   0  0  0  0  0  0  0  0  0  0  0  0
   -0.9260   18.1390  -34.6260 H   0  0  0  0  0  0  0  0  0  0  0  0
   -4.7970   21.6937  -32.5148 H   0  0  0  0  0  0  0  0  0  0  0  0
   -5.4064   22.7668  -29.4276 H   0  0  0  0  0  0  0  0  0  0  0  0
   -4.6356   22.0079  -30.8639 H   0  0  0  0  0  0  0  0  0  0  0  0
   -3.5284   24.0358  -29.2539 H   0  0  0  0  0  0  0  0  0  0  0  0
   -2.9755   23.5337  -30.9127 H   0  0  0  0  0  0  0  0  0  0  0  0
   -5.2611   25.6409  -29.1670 H   0  0  0  0  0  0  0  0  0  0  0  0
   -5.5088   26.7123  -30.6003 H   0  0  0  0  0  0  0  0  0  0  0  0
   -7.1628   24.5884  -29.8643 H   0  0  0  0  0  0  0  0  0  0  0  0
   -7.0720   25.3425  -31.5033 H   0  0  0  0  0  0  0  0  0  0  0  0
  1  2  1  0
  2  3  2  0
  3  4  1  0
  4  5  2  0
  5  6  1  0
  6  7  2  0
  7  8  1  0
  8  9  1  0
  9 10  2  0
  9 11  1  0
  5 12  1  0
 12 13  2  0
 13 14  1  0
 14 15  2  0
 14 16  2  0
 14 17  1  0
 17 18  1  0
 18 19  1  0
 19 20  1  0
 20 21  1  0
 21 22  1  0
 13  2  1  0
 22 17  1  0
 11  6  1  0
  1 23  1  0
  1 24  1  0
  1 25  1  0
  3 26  1  0
  4 27  1  0
  8 28  1  0
 12 29  1  0
 18 30  1  0
 18 31  1  0
 19 32  1  0
 19 33  1  0
 21 34  1  0
 21 35  1  0
 22 36  1  0
 22 37  1  0
M  END
>  <UniqueID>  (3) 
3

>  <SMILES>  (3) 
Cc1ccc(-c2n[nH]c(=S)o2)cc1S(=O)(=O)N1CCOCC1

>  <Energy>  (3) 
83.31648183364914

>  <Genealogy>  (3) 
Cc1ccc(-c2n[nH]c(=S)o2)cc1S(=O)(=O)N1CCOCC1 (3D coordinates assigned)
Cc1ccc(-c2n[nH]c(=S)o2)cc1S(=O)(=O)N1CCOCC1 (nonaromatic ring conformer: 83.31648183364914 kcal/mol)

>  <smiles>  (3) 
Cc1ccc(-c2n[nH]c(=S)o2)cc1S(=O)(=O)N1CCOCC1

>  <score_type>  (3) 
oracle

>  <origin>  (3) 
adgpu

>  <m_score__min__energy>  (3) 
-8.7200000000000006

>  <m_primary>  (3) 
energy

$$$$
3:0
     RDKit          3D

 42 44  0  0  0  0  0  0  0  0999 V2000
   -4.0650   25.4260  -30.6840 O   0  0  0  0  0  0  0  0  0  0  0  0
   -4.0100   24.2840  -30.1510 C   0  0  0  0  0  0  0  0  0  0  0  0
   -3.7350   24.1640  -28.7490 N   0  0  0  0  0  0  0  0  0  0  0  0
   -2.4710   23.8020  -28.1770 C   0  0  0  0  0  0  0  0  0  0  0  0
   -2.4360   22.7650  -27.2350 C   0  0  0  0  0  0  0  0  0  0  0  0
   -1.2270   22.3840  -26.6460 C   0  0  0  0  0  0  0  0  0  0  0  0
   -0.0460   23.0490  -26.9810 C   0  0  0  0  0  0  0  0  0  0  0  0
   -0.0730   24.1060  -27.8930 C   0  0  0  0  0  0  0  0  0  0  0  0
   -1.2840   24.5010  -28.4830 C   0  0  0  0  0  0  0  0  0  0  0  0
   -1.3100   25.5990  -29.3420 O   0  0  0  0  0  0  0  0  0  0  0  0
   -4.1780   23.0690  -30.9830 C   0  0  0  0  0  0  0  0  0  0  0  0
   -5.4560   22.5190  -31.1920 C   0  0  0  0  0  0  0  0  0  0  0  0
   -5.6140   21.3720  -31.9760 C   0  0  0  0  0  0  0  0  0  0  0  0
   -4.5010   20.7600  -32.5650 C   0  0  0  0  0  0  0  0  0  0  0  0
   -4.7140   19.3160  -33.5510 S   0  0  0  0  0  0  0  0  0  0  0  0
   -5.8230   19.5420  -34.5420 O   0  0  0  0  0  0  0  0  0  0  0  0
   -3.4340   19.0550  -34.2940 O   0  0  0  0  0  0  0  0  0  0  0  0
   -5.0990   17.9580  -32.5140 N   0  0  0  0  0  0  0  0  0  0  0  0
   -6.1830   18.2840  -31.5580 C   0  0  0  0  0  0  0  0  0  0  0  0
   -7.5520   17.7430  -32.0050 C   0  0  0  0  0  0  0  0  0  0  0  0
   -7.6490   17.7560  -33.4110 O   0  0  0  0  0  0  0  0  0  0  0  0
   -6.7770   16.7910  -33.9720 C   0  0  0  0  0  0  0  0  0  0  0  0
   -5.3850   16.7420  -33.2940 C   0  0  0  0  0  0  0  0  0  0  0  0
   -3.2260   21.2990  -32.3560 C   0  0  0  0  0  0  0  0  0  0  0  0
   -3.0630   22.4450  -31.5730 C   0  0  0  0  0  0  0  0  0  0  0  0
   -3.3661   22.2475  -26.9573 H   0  0  0  0  0  0  0  0  0  0  0  0
   -1.2060   21.5596  -25.9180 H   0  0  0  0  0  0  0  0  0  0  0  0
    0.9066   22.7400  -26.5261 H   0  0  0  0  0  0  0  0  0  0  0  0
    0.8586   24.6314  -28.1502 H   0  0  0  0  0  0  0  0  0  0  0  0
   -1.9920   25.6750  -30.0870 H   0  0  0  0  0  0  0  0  0  0  0  0
   -6.3367   22.9944  -30.7356 H   0  0  0  0  0  0  0  0  0  0  0  0
   -6.6174   20.9486  -32.1307 H   0  0  0  0  0  0  0  0  0  0  0  0
   -5.9336   17.8456  -30.5804 H   0  0  0  0  0  0  0  0  0  0  0  0
   -6.2603   19.3800  -31.5048 H   0  0  0  0  0  0  0  0  0  0  0  0
   -7.6699   16.7110  -31.6429 H   0  0  0  0  0  0  0  0  0  0  0  0
   -8.3430   18.3826  -31.5864 H   0  0  0  0  0  0  0  0  0  0  0  0
   -7.2459   15.8007  -33.8747 H   0  0  0  0  0  0  0  0  0  0  0  0
   -6.6138   17.0763  -35.0218 H   0  0  0  0  0  0  0  0  0  0  0  0
   -5.3504   15.8734  -32.6200 H   0  0  0  0  0  0  0  0  0  0  0  0
   -4.6271   16.6658  -34.0876 H   0  0  0  0  0  0  0  0  0  0  0  0
   -2.3475   20.8178  -32.8107 H   0  0  0  0  0  0  0  0  0  0  0  0
   -2.0571   22.8619  -31.4169 H   0  0  0  0  0  0  0  0  0  0  0  0
  1  2  2  0
  2  3  1  0
  3  4  1  0
  4  5  2  0
  5  6  1  0
  6  7  2  0
  7  8  1  0
  8  9  2  0
  9 10  1  0
  2 11  1  0
 11 12  2  0
 12 13  1  0
 13 14  2  0
 14 15  1  0
 15 16  2  0
 15 17  2  0
 15 18  1  0
 18 19  1  0
 19 20  1  0
 20 21  1  0
 21 22  1  0
 22 23  1  0
 14 24  1  0
 24 25  2  0
  9  4  1  0
 25 11  1  0
 23 18  1  0
  5 26  1  0
  6 27  1  0
  7 28  1  0
  8 29  1  0
 10 30  1  0
 12 31  1  0
 13 32  1  0
 19 33  1  0
 19 34  1  0
 20 35  1  0
 20 36  1  0
 22 37  1  0
 22 38  1  0
 23 39  1  0
 23 40  1  0
 24 41  1  0
 25 42  1  0
M  CHG  1   3  -1
M  END
>  <UniqueID>  (4) 
4

>  <SMILES>  (4) 
O=C([N-]c1ccccc1O)c1ccc(S(=O)(=O)N2CCOCC2)cc1

>  <Energy>  (4) 
60.5156918493996

>  <Genealogy>  (4) 
O=C([N-]c1ccccc1O)c1ccc(S(=O)(=O)N2CCOCC2)cc1 (protonated)
O=C([N-]c1ccccc1O)c1ccc(S(=O)(=O)N2CCOCC2)cc1 (3D coordinates assigned)
O=C([N-]c1ccccc1O)c1ccc(S(=O)(=O)N2CCOCC2)cc1 (nonaromatic ring conformer: 60.5156918493996 kcal/mol)

>  <smiles>  (4) 
O=C(Nc1ccccc1O)c1ccc(S(=O)(=O)N2CCOCC2)cc1

>  <score_type>  (4) 
oracle

>  <origin>  (4) 
adgpu

>  <m_score__min__energy>  (4) 
-12.25

>  <m_primary>  (4) 
energy

$$$$
4:0
     RDKit          3D

 54 57  0  0  0  0  0  0  0  0999 V2000
   -4.4650   22.2780  -30.3780 C   0  0  0  0  0  0  0  0  0  0  0  0
   -3.3230   21.8750  -31.2620 C   0  0  0  0  0  0  0  0  0  0  0  0
   -3.5190   21.6970  -32.6390 C   0  0  0  0  0  0  0  0  0  0  0  0
   -2.4430   21.3610  -33.4660 C   0  0  0  0  0  0  0  0  0  0  0  0
   -1.1600   21.2090  -32.9250 C   0  0  0  0  0  0  0  0  0  0  0  0
    0.2100   20.8220  -33.9650 S   0  0  0  0  0  0  0  0  0  0  0  0
    0.5870   22.0440  -34.7540 O   0  0  0  0  0  0  0  0  0  0  0  0
    1.3940   20.4130  -33.1320 O   0  0  0  0  0  0  0  0  0  0  0  0
   -0.2060   19.5390  -35.0600 N   0  0  0  0  0  0  0  0  0  0  0  0
   -0.3240   18.2770  -34.3260 C   0  0  0  0  0  0  0  0  0  0  0  0
   -1.7770   17.9550  -34.1120 C   0  0  0  0  0  0  0  0  0  0  0  0
   -2.5290   17.3740  -35.1460 C   0  0  0  0  0  0  0  0  0  0  0  0
   -3.8900   17.1100  -34.9650 C   0  0  0  0  0  0  0  0  0  0  0  0
   -4.5190   17.4410  -33.7570 C   0  0  0  0  0  0  0  0  0  0  0  0
   -5.9490   17.1380  -33.5680 C   0  0  0  0  0  0  0  0  0  0  0  0
   -6.3350   15.9570  -33.7870 O   0  0  0  0  0  0  0  0  0  0  0  0
   -6.9040   18.1520  -33.1730 N   0  0  0  0  0  0  0  0  0  0  0  0
   -7.9840   17.8160  -32.2210 C   0  0  0  0  0  0  0  0  0  0  0  0
   -9.1020   18.8640  -32.2140 C   0  0  0  0  0  0  0  0  0  0  0  0
   -8.5260   20.2370  -32.0660 C   0  0  0  0  0  0  0  0  0  0  0  0
   -9.1720   21.2120  -31.2910 C   0  0  0  0  0  0  0  0  0  0  0  0
   -8.6490   22.5060  -31.2140 C   0  0  0  0  0  0  0  0  0  0  0  0
   -7.4930   22.8360  -31.9270 C   0  0  0  0  0  0  0  0  0  0  0  0
   -6.8560   21.8730  -32.7140 C   0  0  0  0  0  0  0  0  0  0  0  0
   -7.3620   20.5640  -32.7780 C   0  0  0  0  0  0  0  0  0  0  0  0
   -6.7100   19.5340  -33.6670 C   0  0  0  0  0  0  0  0  0  0  0  0
   -3.7680   18.0130  -32.7200 C   0  0  0  0  0  0  0  0  0  0  0  0
   -2.4060   18.2790  -32.9000 C   0  0  0  0  0  0  0  0  0  0  0  0
   -0.9580   21.4080  -31.5550 C   0  0  0  0  0  0  0  0  0  0  0  0
   -2.0340   21.7420  -30.7260 C   0  0  0  0  0  0  0  0  0  0  0  0
   -4.1677   22.1731  -29.3242 H   0  0  0  0  0  0  0  0  0  0  0  0
   -4.7337   23.3253  -30.5806 H   0  0  0  0  0  0  0  0  0  0  0  0
   -5.3315   21.6313  -30.5806 H   0  0  0  0  0  0  0  0  0  0  0  0
   -4.5232   21.8222  -33.0702 H   0  0  0  0  0  0  0  0  0  0  0  0
   -2.6044   21.2156  -34.5443 H   0  0  0  0  0  0  0  0  0  0  0  0
   -1.1470   19.7730  -35.4570 H   0  0  0  0  0  0  0  0  0  0  0  0
    0.1487   17.4703  -34.9055 H   0  0  0  0  0  0  0  0  0  0  0  0
    0.1777   18.3715  -33.3517 H   0  0  0  0  0  0  0  0  0  0  0  0
   -2.0453   17.1256  -36.1022 H   0  0  0  0  0  0  0  0  0  0  0  0
   -4.4694   16.6407  -35.7738 H   0  0  0  0  0  0  0  0  0  0  0  0
   -8.4133   16.8431  -32.5025 H   0  0  0  0  0  0  0  0  0  0  0  0
   -7.5455   17.7859  -31.2126 H   0  0  0  0  0  0  0  0  0  0  0  0
   -9.6607   18.8049  -33.1597 H   0  0  0  0  0  0  0  0  0  0  0  0
   -9.7739   18.6646  -31.3662 H   0  0  0  0  0  0  0  0  0  0  0  0
  -10.0914   20.9577  -30.7432 H   0  0  0  0  0  0  0  0  0  0  0  0
   -9.1472   23.2645  -30.5923 H   0  0  0  0  0  0  0  0  0  0  0  0
   -7.0840   23.8555  -31.8685 H   0  0  0  0  0  0  0  0  0  0  0  0
   -5.9551   22.1408  -33.2855 H   0  0  0  0  0  0  0  0  0  0  0  0
   -7.1444   19.6124  -34.6745 H   0  0  0  0  0  0  0  0  0  0  0  0
   -5.6289   19.7367  -33.6749 H   0  0  0  0  0  0  0  0  0  0  0  0
   -4.2513   18.2535  -31.7616 H   0  0  0  0  0  0  0  0  0  0  0  0
   -1.8264   18.7436  -32.0887 H   0  0  0  0  0  0  0  0  0  0  0  0
    0.0503   21.3015  -31.1284 H   0  0  0  0  0  0  0  0  0  0  0  0
   -1.8685   21.9008  -29.6502 H   0  0  0  0  0  0  0  0  0  0  0  0
  1  2  1  0
  2  3  2  0
  3  4  1  0
  4  5  2  0
  5  6  1  0
  6  7  2  0
  6  8  2  0
  6  9  1  0
  9 10  1  0
 10 11  1  0
 11 12  2  0
 12 13  1  0
 13 14  2  0
 14 15  1  0
 15 16  2  0
 15 17  1  0
 17 18  1  0
 18 19  1  0
 19 20  1  0
 20 21  2  0
 21 22  1  0
 22 23  2  0
 23 24  1  0
 24 25  2  0
 25 26  1  0
 14 27  1  0
 27 28  2  0
  5 29  1  0
 29 30  2  0
 30  2  1  0
 28 11  1  0
 26 17  1  0
 25 20  1  0
  1 31  1  0
  1 32  1  0
  1 33  1  0
  3 34  1  0
  4 35  1  0
  9 36  1  0
 10 37  1  0
 10 38  1  0
 12 39  1  0
 13 40  1  0
 18 41  1  0
 18 42  1  0
 19 43  1  0
 19 44  1  0
 21 45  1  0
 22 46  1  0
 23 47  1  0
 24 48  1  0
 26 49  1  0
 26 50  1  0
 27 51  1  0
 28 52  1  0
 29 53  1  0
 30 54  1  0
M  END
>  <UniqueID>  (5) 
5

>  <SMILES>  (5) 
Cc1ccc(S(=O)(=O)NCc2ccc(C(=O)N3CCc4ccccc4C3)cc2)cc1

>  <Energy>  (5) 
64.0005570982617

>  <Genealogy>  (5) 
Cc1ccc(S(=O)(=O)NCc2ccc(C(=O)N3CCc4ccccc4C3)cc2)cc1 (3D coordinates assigned)
Cc1ccc(S(=O)(=O)NCc2ccc(C(=O)N3CCc4ccccc4C3)cc2)cc1 (nonaromatic ring conformer: 64.0005570982617 kcal/mol)

>  <smiles>  (5) 
Cc1ccc(S(=O)(=O)NCc2ccc(C(=O)N3CCc4ccccc4C3)cc2)cc1

>  <score_type>  (5) 
oracle

>  <origin>  (5) 
adgpu

>  <m_score__min__energy>  (5) 
-10.93

>  <m_primary>  (5) 
energy

$$$$
5:0
     RDKit          3D

 56 58  0  0  0  0  0  0  0  0999 V2000
   -5.1160   17.0570  -34.6820 C   0  0  0  0  0  0  0  0  0  0  0  0
   -5.4770   16.9350  -33.2040 C   0  0  0  0  0  0  0  0  0  0  0  0
   -6.8540   17.5380  -32.8730 C   0  0  0  0  0  0  0  0  0  0  0  0
   -6.7600   18.9380  -32.4170 N   0  0  0  0  0  0  0  0  0  0  0  0
   -7.8120   19.4630  -31.5300 C   0  0  0  0  0  0  0  0  0  0  0  0
   -7.8000   20.9680  -31.5130 C   0  0  0  0  0  0  0  0  0  0  0  0
   -8.8930   21.6930  -32.0090 C   0  0  0  0  0  0  0  0  0  0  0  0
   -8.8610   23.0880  -32.0310 C   0  0  0  0  0  0  0  0  0  0  0  0
   -7.7390   23.7730  -31.5610 C   0  0  0  0  0  0  0  0  0  0  0  0
   -6.6310   23.0690  -31.0590 C   0  0  0  0  0  0  0  0  0  0  0  0
   -5.4430   23.8110  -30.5710 C   0  0  0  0  0  0  0  0  0  0  0  0
   -4.7030   23.5490  -29.4320 C   0  0  0  0  0  0  0  0  0  0  0  0
   -3.7190   24.5130  -29.4340 C   0  0  0  0  0  0  0  0  0  0  0  0
   -3.8670   25.3020  -30.5130 N   0  0  0  0  0  0  0  0  0  0  0  0
   -4.9130   24.8770  -31.2050 N   0  0  0  0  0  0  0  0  0  0  0  0
   -6.6730   21.6610  -31.0370 C   0  0  0  0  0  0  0  0  0  0  0  0
   -5.7250   19.7900  -32.9580 C   0  0  0  0  0  0  0  0  0  0  0  0
   -5.7970   20.1700  -34.1590 O   0  0  0  0  0  0  0  0  0  0  0  0
   -4.6010   20.2020  -32.1630 N   0  0  0  0  0  0  0  0  0  0  0  0
   -3.2830   20.3890  -32.7080 C   0  0  0  0  0  0  0  0  0  0  0  0
   -2.8700   19.6160  -33.8020 C   0  0  0  0  0  0  0  0  0  0  0  0
   -1.6030   19.7960  -34.3620 C   0  0  0  0  0  0  0  0  0  0  0  0
   -0.7350   20.7730  -33.8520 C   0  0  0  0  0  0  0  0  0  0  0  0
    0.6110   20.9470  -34.4400 C   0  0  0  0  0  0  0  0  0  0  0  0
    0.9280   22.0750  -34.9060 O   0  0  0  0  0  0  0  0  0  0  0  0
    1.5640   19.8660  -34.4850 N   0  0  0  0  0  0  0  0  0  0  0  0
    1.5930   18.8560  -33.4210 C   0  0  0  0  0  0  0  0  0  0  0  0
    2.6120   19.8830  -35.5090 C   0  0  0  0  0  0  0  0  0  0  0  0
   -1.1440   21.5500  -32.7570 C   0  0  0  0  0  0  0  0  0  0  0  0
   -2.4120   21.3690  -32.1960 C   0  0  0  0  0  0  0  0  0  0  0  0
   -4.0779   17.4078  -34.7781 H   0  0  0  0  0  0  0  0  0  0  0  0
   -5.2174   16.0747  -35.1665 H   0  0  0  0  0  0  0  0  0  0  0  0
   -5.7925   17.7764  -35.1665 H   0  0  0  0  0  0  0  0  0  0  0  0
   -5.4856   15.8693  -32.9314 H   0  0  0  0  0  0  0  0  0  0  0  0
   -4.7239   17.4972  -32.6323 H   0  0  0  0  0  0  0  0  0  0  0  0
   -7.4817   17.5019  -33.7756 H   0  0  0  0  0  0  0  0  0  0  0  0
   -7.2908   16.9472  -32.0544 H   0  0  0  0  0  0  0  0  0  0  0  0
   -8.7919   19.1149  -31.8885 H   0  0  0  0  0  0  0  0  0  0  0  0
   -7.6243   19.0989  -30.5091 H   0  0  0  0  0  0  0  0  0  0  0  0
   -9.7797   21.1597  -32.3824 H   0  0  0  0  0  0  0  0  0  0  0  0
   -9.7229   23.6499  -32.4201 H   0  0  0  0  0  0  0  0  0  0  0  0
   -7.7220   24.8726  -31.5838 H   0  0  0  0  0  0  0  0  0  0  0  0
   -4.8639   22.7512  -28.6920 H   0  0  0  0  0  0  0  0  0  0  0  0
   -2.9338   24.6208  -28.6712 H   0  0  0  0  0  0  0  0  0  0  0  0
   -5.8144   21.0974  -30.6430 H   0  0  0  0  0  0  0  0  0  0  0  0
   -4.7480   20.4640  -31.1650 H   0  0  0  0  0  0  0  0  0  0  0  0
   -3.5498   18.8608  -34.2233 H   0  0  0  0  0  0  0  0  0  0  0  0
   -1.2842   19.1684  -35.2073 H   0  0  0  0  0  0  0  0  0  0  0  0
    1.5787   19.3553  -32.4410 H   0  0  0  0  0  0  0  0  0  0  0  0
    0.7133   18.2020  -33.5122 H   0  0  0  0  0  0  0  0  0  0  0  0
    2.5088   18.2535  -33.5122 H   0  0  0  0  0  0  0  0  0  0  0  0
    3.5989   19.8990  -35.0234 H   0  0  0  0  0  0  0  0  0  0  0  0
    2.5265   18.9833  -36.1361 H   0  0  0  0  0  0  0  0  0  0  0  0
    2.4974   20.7794  -36.1361 H   0  0  0  0  0  0  0  0  0  0  0  0
   -0.4633   22.3056  -32.3378 H   0  0  0  0  0  0  0  0  0  0  0  0
   -2.7305   21.9958  -31.3500 H   0  0  0  0  0  0  0  0  0  0  0  0
  1  2  1  0
  2  3  1  0
  3  4  1  0
  4  5  1  0
  5  6  1  0
  6  7  2  0
  7  8  1  0
  8  9  2  0
  9 10  1  0
 10 11  1  0
 11 12  1  0
 12 13  2  0
 13 14  1  0
 14 15  1  0
 10 16  2  0
  4 17  1  0
 17 18  2  0
 17 19  1  0
 19 20  1  0
 20 21  2  0
 21 22  1  0
 22 23  2  0
 23 24  1  0
 24 25  2  0
 24 26  1  0
 26 27  1  0
 26 28  1  0
 23 29  1  0
 29 30  2  0
 16  6  1  0
 30 20  1  0
 15 11  2  0
  1 31  1  0
  1 32  1  0
  1 33  1  0
  2 34  1  0
  2 35  1  0
  3 36  1  0
  3 37  1  0
  5 38  1  0
  5 39  1  0
  7 40  1  0
  8 41  1  0
  9 42  1  0
 12 43  1  0
 13 44  1  0
 16 45  1  0
 19 46  1  0
 21 47  1  0
 22 48  1  0
 27 49  1  0
 27 50  1  0
 27 51  1  0
 28 52  1  0
 28 53  1  0
 28 54  1  0
 29 55  1  0
 30 56  1  0
M  CHG  1  14  -1
M  END
>  <UniqueID>  (6) 
6

>  <SMILES>  (6) 
CCCN(Cc1cccc(-c2cc[n-]n2)c1)C(=O)Nc1ccc(C(=O)N(C)C)cc1

>  <Energy>  (6) 
89.84743061104206

>  <Genealogy>  (6) 
CCCN(Cc1cccc(-c2cc[n-]n2)c1)C(=O)Nc1ccc(C(=O)N(C)C)cc1 (protonated)
CCCN(Cc1cccc(-c2cc[n-]n2)c1)C(=O)Nc1ccc(C(=O)N(C)C)cc1 (3D coordinates assigned)
CCCN(Cc1cccc(-c2cc[n-]n2)c1)C(=O)Nc1ccc(C(=O)N(C)C)cc1 (optimized conformer: 89.84743061104206 kcal/mol)

>  <smiles>  (6) 
CCCN(Cc1cccc(-c2cc[nH]n2)c1)C(=O)Nc1ccc(C(=O)N(C)C)cc1

>  <score_type>  (6) 
oracle

>  <origin>  (6) 
adgpu

>  <m_score__min__energy>  (6) 
-11.210000000000001

>  <m_primary>  (6) 
energy

$$$$
6:0
     RDKit          3D

 34 35  0  0  0  0  0  0  0  0999 V2000
   -8.4470   18.6960  -32.3110 C   0  0  0  0  0  0  0  0  0  0  0  0
   -8.2110   20.1730  -32.1900 C   0  0  0  0  0  0  0  0  0  0  0  0
   -9.2790   20.9750  -31.9170 N   0  0  0  0  0  0  0  0  0  0  0  0
   -9.1590   22.3210  -31.7900 C   0  0  0  0  0  0  0  0  0  0  0  0
   -7.9160   22.9290  -31.9420 C   0  0  0  0  0  0  0  0  0  0  0  0
   -6.7990   22.1390  -32.2150 C   0  0  0  0  0  0  0  0  0  0  0  0
   -6.9250   20.7460  -32.3250 C   0  0  0  0  0  0  0  0  0  0  0  0
   -5.4840   19.7740  -32.6640 S   0  0  0  0  0  0  0  0  0  0  0  0
   -5.3450   18.6790  -31.6410 O   0  0  0  0  0  0  0  0  0  0  0  0
   -5.6310   19.1570  -34.0260 O   0  0  0  0  0  0  0  0  0  0  0  0
   -4.0610   20.7840  -32.6650 N   0  0  0  0  0  0  0  0  0  0  0  0
   -3.0670   20.3440  -31.6820 C   0  0  0  0  0  0  0  0  0  0  0  0
   -3.4640   20.7560  -30.2600 C   0  0  0  0  0  0  0  0  0  0  0  0
   -2.9520   22.1360  -29.9480 C   0  0  0  0  0  0  0  0  0  0  0  0
   -1.8170   22.3050  -29.1390 C   0  0  0  0  0  0  0  0  0  0  0  0
   -1.3600   23.5890  -28.8260 C   0  0  0  0  0  0  0  0  0  0  0  0
   -2.0400   24.7120  -29.3070 C   0  0  0  0  0  0  0  0  0  0  0  0
   -1.5800   25.9850  -28.9910 O   0  0  0  0  0  0  0  0  0  0  0  0
   -3.1800   24.5520  -30.1030 C   0  0  0  0  0  0  0  0  0  0  0  0
   -3.8630   25.6660  -30.5780 O   0  0  0  0  0  0  0  0  0  0  0  0
   -3.6380   23.2670  -30.4170 C   0  0  0  0  0  0  0  0  0  0  0  0
   -8.5179   18.2525  -31.3069 H   0  0  0  0  0  0  0  0  0  0  0  0
   -9.3850   18.5181  -32.8574 H   0  0  0  0  0  0  0  0  0  0  0  0
   -7.6112   18.2347  -32.8574 H   0  0  0  0  0  0  0  0  0  0  0  0
  -10.0456   22.9325  -31.5666 H   0  0  0  0  0  0  0  0  0  0  0  0
   -7.8156   24.0204  -31.8479 H   0  0  0  0  0  0  0  0  0  0  0  0
   -5.8139   22.6109  -32.3447 H   0  0  0  0  0  0  0  0  0  0  0  0
   -2.9812   19.2482  -31.7260 H   0  0  0  0  0  0  0  0  0  0  0  0
   -2.1062   20.8216  -31.9246 H   0  0  0  0  0  0  0  0  0  0  0  0
   -4.5606   20.7489  -30.1741 H   0  0  0  0  0  0  0  0  0  0  0  0
   -3.0228   20.0437  -29.5473 H   0  0  0  0  0  0  0  0  0  0  0  0
   -1.2853   21.4241  -28.7500 H   0  0  0  0  0  0  0  0  0  0  0  0
   -0.4641   23.7157  -28.2004 H   0  0  0  0  0  0  0  0  0  0  0  0
   -4.5400   23.1431  -31.0343 H   0  0  0  0  0  0  0  0  0  0  0  0
  1  2  1  0
  2  3  2  0
  3  4  1  0
  4  5  2  0
  5  6  1  0
  6  7  2  0
  7  8  1  0
  8  9  2  0
  8 10  2  0
  8 11  1  0
 11 12  1  0
 12 13  1  0
 13 14  1  0
 14 15  2  0
 15 16  1  0
 16 17  2  0
 17 18  1  0
 17 19  1  0
 19 20  1  0
 19 21  2  0
  7  2  1  0
 21 14  1  0
  1 22  1  0
  1 23  1  0
  1 24  1  0
  4 25  1  0
  5 26  1  0
  6 27  1  0
 12 28  1  0
 12 29  1  0
 13 30  1  0
 13 31  1  0
 15 32  1  0
 16 33  1  0
 21 34  1  0
M  CHG  3  11  -1  18  -1  20  -1
M  END
>  <UniqueID>  (7) 
7

>  <SMILES>  (7) 
Cc1ncccc1S(=O)(=O)[N-]CCc1ccc([O-])c([O-])c1

>  <Energy>  (7) 
33.91643055828955

>  <Genealogy>  (7) 
Cc1ncccc1S(=O)(=O)[N-]CCc1ccc([O-])c([O-])c1 (protonated)
Cc1ncccc1S(=O)(=O)[N-]CCc1ccc([O-])c([O-])c1 (3D coordinates assigned)
Cc1ncccc1S(=O)(=O)[N-]CCc1ccc([O-])c([O-])c1 (optimized conformer: 33.91643055828955 kcal/mol)

>  <smiles>  (7) 
Cc1ncccc1S(=O)(=O)NCCc1ccc(O)c(O)c1

>  <score_type>  (7) 
oracle

>  <origin>  (7) 
adgpu

>  <m_score__min__energy>  (7) 
-13.289999999999999

>  <m_primary>  (7) 
energy

$$$$
7:0
     RDKit          3D

 57 60  0  0  0  0  0  0  0  0999 V2000
   -4.2710   22.1170  -32.1640 O   0  0  0  0  0  0  0  0  0  0  0  0
   -4.5380   22.7740  -31.1210 C   0  0  0  0  0  0  0  0  0  0  0  0
   -5.9080   23.0610  -30.7920 N   0  0  0  0  0  0  0  0  0  0  0  0
   -7.0210   22.2830  -31.2660 C   0  0  0  0  0  0  0  0  0  0  0  0
   -8.2370   22.9240  -31.5530 C   0  0  0  0  0  0  0  0  0  0  0  0
   -9.3380   22.1860  -31.9930 C   0  0  0  0  0  0  0  0  0  0  0  0
   -9.2410   20.8010  -32.1370 C   0  0  0  0  0  0  0  0  0  0  0  0
   -8.0430   20.1430  -31.8310 C   0  0  0  0  0  0  0  0  0  0  0  0
   -7.9480   18.3910  -31.9900 S   0  0  0  0  0  0  0  0  0  0  0  0
   -7.0920   17.8600  -30.8750 O   0  0  0  0  0  0  0  0  0  0  0  0
   -9.3240   17.7940  -31.8800 O   0  0  0  0  0  0  0  0  0  0  0  0
   -7.2380   17.9910  -33.5400 N   0  0  0  0  0  0  0  0  0  0  0  0
   -6.5900   16.6610  -33.5230 C   0  0  0  0  0  0  0  0  0  0  0  0
   -5.0610   16.7450  -33.3610 C   0  0  0  0  0  0  0  0  0  0  0  0
   -4.7150   17.8520  -32.5620 O   0  0  0  0  0  0  0  0  0  0  0  0
   -4.9850   19.0600  -33.2520 C   0  0  0  0  0  0  0  0  0  0  0  0
   -6.3330   19.0520  -34.0140 C   0  0  0  0  0  0  0  0  0  0  0  0
   -6.9370   20.8850  -31.3930 C   0  0  0  0  0  0  0  0  0  0  0  0
   -3.4310   23.2840  -30.2750 C   0  0  0  0  0  0  0  0  0  0  0  0
   -2.1640   22.6740  -30.2970 C   0  0  0  0  0  0  0  0  0  0  0  0
   -1.1250   23.1690  -29.5050 C   0  0  0  0  0  0  0  0  0  0  0  0
   -1.3330   24.2810  -28.6790 C   0  0  0  0  0  0  0  0  0  0  0  0
   -0.0040   24.9020  -27.7050 S   0  0  0  0  0  0  0  0  0  0  0  0
    0.0270   26.3990  -27.8430 O   0  0  0  0  0  0  0  0  0  0  0  0
    1.3040   24.3450  -28.1980 O   0  0  0  0  0  0  0  0  0  0  0  0
   -0.2530   24.4680  -26.0260 N   0  0  0  0  0  0  0  0  0  0  0  0
    0.7250   25.1460  -25.1680 C   0  0  0  0  0  0  0  0  0  0  0  0
    0.1020   26.4410  -24.6690 C   0  0  0  0  0  0  0  0  0  0  0  0
   -1.3850   26.3050  -24.9300 C   0  0  0  0  0  0  0  0  0  0  0  0
   -1.5650   24.9340  -25.5660 C   0  0  0  0  0  0  0  0  0  0  0  0
   -2.5880   24.9010  -28.6610 C   0  0  0  0  0  0  0  0  0  0  0  0
   -3.6280   24.4090  -29.4540 C   0  0  0  0  0  0  0  0  0  0  0  0
   -6.1140   23.9400  -30.2670 H   0  0  0  0  0  0  0  0  0  0  0  0
   -8.3229   24.0138  -31.4305 H   0  0  0  0  0  0  0  0  0  0  0  0
  -10.2836   22.6972  -32.2266 H   0  0  0  0  0  0  0  0  0  0  0  0
  -10.1080   20.2246  -32.4919 H   0  0  0  0  0  0  0  0  0  0  0  0
   -7.0011   16.0803  -32.6840 H   0  0  0  0  0  0  0  0  0  0  0  0
   -6.7949   16.1800  -34.4908 H   0  0  0  0  0  0  0  0  0  0  0  0
   -4.6954   15.8241  -32.8833 H   0  0  0  0  0  0  0  0  0  0  0  0
   -4.6016   16.8621  -34.3536 H   0  0  0  0  0  0  0  0  0  0  0  0
   -5.0042   19.8813  -32.5205 H   0  0  0  0  0  0  0  0  0  0  0  0
   -4.1912   19.1863  -34.0030 H   0  0  0  0  0  0  0  0  0  0  0  0
   -6.8249   20.0256  -33.8724 H   0  0  0  0  0  0  0  0  0  0  0  0
   -6.1178   18.8606  -35.0756 H   0  0  0  0  0  0  0  0  0  0  0  0
   -5.9967   20.3699  -31.1469 H   0  0  0  0  0  0  0  0  0  0  0  0
   -1.9898   21.8006  -30.9426 H   0  0  0  0  0  0  0  0  0  0  0  0
   -0.1385   22.6830  -29.5302 H   0  0  0  0  0  0  0  0  0  0  0  0
    0.9804   24.5021  -24.3135 H   0  0  0  0  0  0  0  0  0  0  0  0
    1.6437   25.3596  -25.7340 H   0  0  0  0  0  0  0  0  0  0  0  0
    0.2929   26.5694  -23.5933 H   0  0  0  0  0  0  0  0  0  0  0  0
    0.5259   27.3192  -25.1779 H   0  0  0  0  0  0  0  0  0  0  0  0
   -1.9477   26.3677  -23.9869 H   0  0  0  0  0  0  0  0  0  0  0  0
   -1.7591   27.1084  -25.5817 H   0  0  0  0  0  0  0  0  0  0  0  0
   -1.9717   24.2300  -24.8251 H   0  0  0  0  0  0  0  0  0  0  0  0
   -2.2650   24.9960  -26.4123 H   0  0  0  0  0  0  0  0  0  0  0  0
   -2.7561   25.7790  -28.0200 H   0  0  0  0  0  0  0  0  0  0  0  0
   -4.6093   24.9058  -29.4361 H   0  0  0  0  0  0  0  0  0  0  0  0
  1  2  2  0
  2  3  1  0
  3  4  1  0
  4  5  2  0
  5  6  1  0
  6  7  2  0
  7  8  1  0
  8  9  1  0
  9 10  2  0
  9 11  2  0
  9 12  1  0
 12 13  1  0
 13 14  1  0
 14 15  1  0
 15 16  1  0
 16 17  1  0
  8 18  2  0
  2 19  1  0
 19 20  2  0
 20 21  1  0
 21 22  2  0
 22 23  1  0
 23 24  2  0
 23 25  2  0
 23 26  1  0
 26 27  1  0
 27 28  1  0
 28 29  1  0
 29 30  1  0
 22 31  1  0
 31 32  2  0
 18  4  1  0
 32 19  1  0
 17 12  1  0
 30 26  1  0
  3 33  1  0
  5 34  1  0
  6 35  1  0
  7 36  1  0
 13 37  1  0
 13 38  1  0
 14 39  1  0
 14 40  1  0
 16 41  1  0
 16 42  1  0
 17 43  1  0
 17 44  1  0
 18 45  1  0
 20 46  1  0
 21 47  1  0
 27 48  1  0
 27 49  1  0
 28 50  1  0
 28 51  1  0
 29 52  1  0
 29 53  1  0
 30 54  1  0
 30 55  1  0
 31 56  1  0
 32 57  1  0
M  END
>  <UniqueID>  (8) 
8

>  <SMILES>  (8) 
O=C(Nc1cccc(S(=O)(=O)N2CCOCC2)c1)c1ccc(S(=O)(=O)N2CCCC2)cc1

>  <Energy>  (8) 
76.45591987513194

>  <Genealogy>  (8) 
O=C(Nc1cccc(S(=O)(=O)N2CCOCC2)c1)c1ccc(S(=O)(=O)N2CCCC2)cc1 (3D coordinates assigned)
O=C(Nc1cccc(S(=O)(=O)N2CCOCC2)c1)c1ccc(S(=O)(=O)N2CCCC2)cc1 (nonaromatic ring conformer: 76.45591987513194 kcal/mol)

>  <smiles>  (8) 
O=C(Nc1cccc(S(=O)(=O)N2CCOCC2)c1)c1ccc(S(=O)(=O)N2CCCC2)cc1

>  <score_type>  (8) 
oracle

>  <origin>  (8) 
adgpu

>  <m_score__min__energy>  (8) 
-10.33

>  <m_primary>  (8) 
energy

$$$$
8:0
     RDKit          3D

 58 62  0  0  0  0  0  0  0  0999 V2000
   -5.6640   23.3480  -29.4370 O   0  0  0  0  0  0  0  0  0  0  0  0
   -4.6560   23.3960  -30.1920 C   0  0  0  0  0  0  0  0  0  0  0  0
   -4.8150   23.1260  -31.5950 N   0  0  0  0  0  0  0  0  0  0  0  0
   -4.2920   21.9730  -32.2740 C   0  0  0  0  0  0  0  0  0  0  0  0
   -2.9410   21.9120  -32.6570 C   0  0  0  0  0  0  0  0  0  0  0  0
   -2.4560   20.8360  -33.4070 C   0  0  0  0  0  0  0  0  0  0  0  0
   -0.7690   20.8120  -33.9170 S   0  0  0  0  0  0  0  0  0  0  0  0
   -0.5430   19.6840  -34.8830 O   0  0  0  0  0  0  0  0  0  0  0  0
   -0.4650   22.1130  -34.6040 O   0  0  0  0  0  0  0  0  0  0  0  0
    0.2870   20.6200  -32.5350 N   0  0  0  0  0  0  0  0  0  0  0  0
   -0.3210   21.1770  -31.3180 C   0  0  0  0  0  0  0  0  0  0  0  0
   -1.0260   20.0410  -30.5920 C   0  0  0  0  0  0  0  0  0  0  0  0
   -0.4600   18.7600  -31.1830 C   0  0  0  0  0  0  0  0  0  0  0  0
    0.5320   19.1990  -32.2520 C   0  0  0  0  0  0  0  0  0  0  0  0
   -3.3240   19.8030  -33.7700 C   0  0  0  0  0  0  0  0  0  0  0  0
   -4.6590   19.8260  -33.3580 C   0  0  0  0  0  0  0  0  0  0  0  0
   -5.1470   20.9030  -32.5930 C   0  0  0  0  0  0  0  0  0  0  0  0
   -6.5270   20.9240  -32.1980 N   0  0  0  0  0  0  0  0  0  0  0  0
   -7.2260   19.6590  -31.9700 C   0  0  0  0  0  0  0  0  0  0  0  0
   -8.7230   19.9210  -31.7770 C   0  0  0  0  0  0  0  0  0  0  0  0
   -8.8890   20.9410  -30.8180 O   0  0  0  0  0  0  0  0  0  0  0  0
   -8.4690   22.2060  -31.3220 C   0  0  0  0  0  0  0  0  0  0  0  0
   -7.3000   22.1620  -32.3370 C   0  0  0  0  0  0  0  0  0  0  0  0
   -3.3320   23.6960  -29.6050 C   0  0  0  0  0  0  0  0  0  0  0  0
   -2.7830   24.9120  -29.8690 N   0  0  0  0  0  0  0  0  0  0  0  0
   -1.6560   25.3230  -29.2940 N   0  0  0  0  0  0  0  0  0  0  0  0
   -0.9910   24.5480  -28.4030 C   0  0  0  0  0  0  0  0  0  0  0  0
    0.0580   24.9940  -27.8690 O   0  0  0  0  0  0  0  0  0  0  0  0
   -1.4720   23.2620  -28.1060 C   0  0  0  0  0  0  0  0  0  0  0  0
   -0.8000   22.4160  -27.2020 C   0  0  0  0  0  0  0  0  0  0  0  0
   -1.2760   21.1270  -26.9540 C   0  0  0  0  0  0  0  0  0  0  0  0
   -2.4110   20.6620  -27.6150 C   0  0  0  0  0  0  0  0  0  0  0  0
   -3.0930   21.4900  -28.5070 C   0  0  0  0  0  0  0  0  0  0  0  0
   -2.6530   22.8120  -28.7420 C   0  0  0  0  0  0  0  0  0  0  0  0
   -2.2563   22.7212  -32.3630 H   0  0  0  0  0  0  0  0  0  0  0  0
    1.1920   21.1000  -32.7410 H   0  0  0  0  0  0  0  0  0  0  0  0
    0.4590   21.6072  -30.6726 H   0  0  0  0  0  0  0  0  0  0  0  0
   -1.0356   21.9731  -31.5739 H   0  0  0  0  0  0  0  0  0  0  0  0
   -0.8195   20.0892  -29.5126 H   0  0  0  0  0  0  0  0  0  0  0  0
   -2.1177   20.0967  -30.7149 H   0  0  0  0  0  0  0  0  0  0  0  0
    0.0499   18.1721  -30.4056 H   0  0  0  0  0  0  0  0  0  0  0  0
   -1.2525   18.1233  -31.6032 H   0  0  0  0  0  0  0  0  0  0  0  0
    1.5606   19.0620  -31.8870 H   0  0  0  0  0  0  0  0  0  0  0  0
    0.4051   18.5978  -33.1644 H   0  0  0  0  0  0  0  0  0  0  0  0
   -2.9546   18.9677  -34.3830 H   0  0  0  0  0  0  0  0  0  0  0  0
   -5.3313   18.9997  -33.6322 H   0  0  0  0  0  0  0  0  0  0  0  0
   -7.0796   18.9993  -32.8379 H   0  0  0  0  0  0  0  0  0  0  0  0
   -6.8219   19.1783  -31.0669 H   0  0  0  0  0  0  0  0  0  0  0  0
   -9.1687   20.2362  -32.7320 H   0  0  0  0  0  0  0  0  0  0  0  0
   -9.2205   19.0022  -31.4332 H   0  0  0  0  0  0  0  0  0  0  0  0
   -9.3309   22.6771  -31.8173 H   0  0  0  0  0  0  0  0  0  0  0  0
   -8.0956   22.7692  -30.4540 H   0  0  0  0  0  0  0  0  0  0  0  0
   -7.7076   22.2185  -33.3571 H   0  0  0  0  0  0  0  0  0  0  0  0
   -6.6333   23.0144  -32.1394 H   0  0  0  0  0  0  0  0  0  0  0  0
    0.1049   22.7729  -26.6885 H   0  0  0  0  0  0  0  0  0  0  0  0
   -0.7541   20.4776  -26.2357 H   0  0  0  0  0  0  0  0  0  0  0  0
   -2.7706   19.6385  -27.4329 H   0  0  0  0  0  0  0  0  0  0  0  0
   -3.9817   21.1101  -29.0323 H   0  0  0  0  0  0  0  0  0  0  0  0
  1  2  2  0
  2  3  1  0
  3  4  1  0
  4  5  2  0
  5  6  1  0
  6  7  1  0
  7  8  2  0
  7  9  2  0
  7 10  1  0
 10 11  1  0
 11 12  1  0
 12 13  1  0
 13 14  1  0
  6 15  2  0
 15 16  1  0
 16 17  2  0
 17 18  1  0
 18 19  1  0
 19 20  1  0
 20 21  1  0
 21 22  1  0
 22 23  1  0
  2 24  1  0
 24 25  2  0
 25 26  1  0
 26 27  1  0
 27 28  2  0
 27 29  1  0
 29 30  2  0
 30 31  1  0
 31 32  2  0
 32 33  1  0
 33 34  2  0
 17  4  1  0
 23 18  1  0
 34 24  1  0
 14 10  1  0
 34 29  1  0
  5 35  1  0
 10 36  1  0
 11 37  1  0
 11 38  1  0
 12 39  1  0
 12 40  1  0
 13 41  1  0
 13 42  1  0
 14 43  1  0
 14 44  1  0
 15 45  1  0
 16 46  1  0
 19 47  1  0
 19 48  1  0
 20 49  1  0
 20 50  1  0
 22 51  1  0
 22 52  1  0
 23 53  1  0
 23 54  1  0
 30 55  1  0
 31 56  1  0
 32 57  1  0
 33 58  1  0
M  CHG  3   3  -1  10   1  26  -1
M  END
>  <UniqueID>  (9) 
9

>  <SMILES>  (9) 
O=C([N-]c1cc(S(=O)(=O)[NH+]2CCCC2)ccc1N1CCOCC1)c1n[n-]c(=O)c2ccccc12

>  <Energy>  (9) 
89.12192635633625

>  <Genealogy>  (9) 
O=C([N-]c1cc(S(=O)(=O)[NH+]2CCCC2)ccc1N1CCOCC1)c1n[n-]c(=O)c2ccccc12 (protonated)
O=C([N-]c1cc(S(=O)(=O)[NH+]2CCCC2)ccc1N1CCOCC1)c1n[n-]c(=O)c2ccccc12 (3D coordinates assigned)
O=C([N-]c1cc(S(=O)(=O)[NH+]2CCCC2)ccc1N1CCOCC1)c1n[n-]c(=O)c2ccccc12 (nonaromatic ring conformer: 89.12192635633625 kcal/mol)

>  <smiles>  (9) 
O=C(Nc1cc(S(=O)(=O)N2CCCC2)ccc1N1CCOCC1)c1n[nH]c(=O)c2ccccc12

>  <score_type>  (9) 
oracle

>  <origin>  (9) 
adgpu

>  <m_score__min__energy>  (9) 
-11.949999999999999

>  <m_primary>  (9) 
energy

$$$$
9:0
     RDKit          3D

 57 60  0  0  0  0  0  0  0  0999 V2000
   -0.8040   19.4910  -29.4070 C   0  0  0  0  0  0  0  0  0  0  0  0
   -1.3390   20.8900  -29.3290 C   0  0  0  0  0  0  0  0  0  0  0  0
   -2.6530   21.1200  -28.8960 C   0  0  0  0  0  0  0  0  0  0  0  0
   -3.1630   22.4210  -28.8630 C   0  0  0  0  0  0  0  0  0  0  0  0
   -2.3710   23.5070  -29.2690 C   0  0  0  0  0  0  0  0  0  0  0  0
   -2.9180   24.9070  -29.1950 C   0  0  0  0  0  0  0  0  0  0  0  0
   -3.5730   25.2670  -30.4510 N   0  0  0  0  0  0  0  0  0  0  0  0
   -4.9820   25.1460  -30.6800 C   0  0  0  0  0  0  0  0  0  0  0  0
   -5.7440   26.1250  -30.4480 O   0  0  0  0  0  0  0  0  0  0  0  0
   -5.5480   23.8730  -31.1810 C   0  0  0  0  0  0  0  0  0  0  0  0
   -6.8430   23.4710  -30.8090 C   0  0  0  0  0  0  0  0  0  0  0  0
   -7.3710   22.2650  -31.2750 C   0  0  0  0  0  0  0  0  0  0  0  0
   -6.6230   21.4440  -32.1310 C   0  0  0  0  0  0  0  0  0  0  0  0
   -7.1860   20.1320  -32.6000 C   0  0  0  0  0  0  0  0  0  0  0  0
   -6.4790   19.6720  -34.2180 S   0  0  0  0  0  0  0  0  0  0  0  0
   -6.0450   18.0010  -33.7240 C   0  0  0  0  0  0  0  0  0  0  0  0
   -6.9260   16.9860  -33.6570 N   0  0  0  0  0  0  0  0  0  0  0  0
   -6.2500   15.9130  -33.2630 N   0  0  0  0  0  0  0  0  0  0  0  0
   -4.9710   16.2960  -33.0890 C   0  0  0  0  0  0  0  0  0  0  0  0
   -3.8660   15.3630  -32.7140 C   0  0  0  0  0  0  0  0  0  0  0  0
   -4.8080   17.6000  -33.3870 N   0  0  0  0  0  0  0  0  0  0  0  0
   -3.6040   18.3780  -33.3670 C   0  0  0  0  0  0  0  0  0  0  0  0
   -3.4810   19.4300  -32.4460 C   0  0  0  0  0  0  0  0  0  0  0  0
   -2.3320   20.2290  -32.4360 C   0  0  0  0  0  0  0  0  0  0  0  0
   -1.2970   19.9770  -33.3420 C   0  0  0  0  0  0  0  0  0  0  0  0
   -1.4050   18.9240  -34.2590 C   0  0  0  0  0  0  0  0  0  0  0  0
   -2.5550   18.1110  -34.2780 C   0  0  0  0  0  0  0  0  0  0  0  0
   -2.6620   16.9800  -35.2660 C   0  0  0  0  0  0  0  0  0  0  0  0
   -5.3330   21.8400  -32.5060 C   0  0  0  0  0  0  0  0  0  0  0  0
   -4.7990   23.0430  -32.0350 C   0  0  0  0  0  0  0  0  0  0  0  0
   -1.0630   23.2730  -29.7200 C   0  0  0  0  0  0  0  0  0  0  0  0
   -0.5540   21.9710  -29.7580 C   0  0  0  0  0  0  0  0  0  0  0  0
   -0.6539   19.0986  -28.3904 H   0  0  0  0  0  0  0  0  0  0  0  0
   -1.5217   18.8534  -29.9439 H   0  0  0  0  0  0  0  0  0  0  0  0
    0.1561   19.4950  -29.9439 H   0  0  0  0  0  0  0  0  0  0  0  0
   -3.2834   20.2751  -28.5818 H   0  0  0  0  0  0  0  0  0  0  0  0
   -4.1923   22.5953  -28.5164 H   0  0  0  0  0  0  0  0  0  0  0  0
   -3.6489   24.9673  -28.3752 H   0  0  0  0  0  0  0  0  0  0  0  0
   -2.0871   25.6048  -29.0140 H   0  0  0  0  0  0  0  0  0  0  0  0
   -7.4443   24.1108  -30.1464 H   0  0  0  0  0  0  0  0  0  0  0  0
   -8.3814   21.9568  -30.9682 H   0  0  0  0  0  0  0  0  0  0  0  0
   -6.9438   19.3509  -31.8643 H   0  0  0  0  0  0  0  0  0  0  0  0
   -8.2765   20.2309  -32.7045 H   0  0  0  0  0  0  0  0  0  0  0  0
   -3.7937   15.3020  -31.6181 H   0  0  0  0  0  0  0  0  0  0  0  0
   -4.0748   14.3638  -33.1239 H   0  0  0  0  0  0  0  0  0  0  0  0
   -2.9159   15.7363  -33.1239 H   0  0  0  0  0  0  0  0  0  0  0  0
   -4.2914   19.6274  -31.7288 H   0  0  0  0  0  0  0  0  0  0  0  0
   -2.2430   21.0553  -31.7154 H   0  0  0  0  0  0  0  0  0  0  0  0
   -0.3957   20.6075  -33.3344 H   0  0  0  0  0  0  0  0  0  0  0  0
   -0.5869   18.7307  -34.9685 H   0  0  0  0  0  0  0  0  0  0  0  0
   -2.7522   16.0270  -34.7241 H   0  0  0  0  0  0  0  0  0  0  0  0
   -3.5502   17.1279  -35.8979 H   0  0  0  0  0  0  0  0  0  0  0  0
   -1.7619   16.9587  -35.8979 H   0  0  0  0  0  0  0  0  0  0  0  0
   -4.7371   21.2012  -33.1745 H   0  0  0  0  0  0  0  0  0  0  0  0
   -3.7841   23.3433  -32.3348 H   0  0  0  0  0  0  0  0  0  0  0  0
   -0.4360   24.1164  -30.0447 H   0  0  0  0  0  0  0  0  0  0  0  0
    0.4672   21.7934  -30.1262 H   0  0  0  0  0  0  0  0  0  0  0  0
  1  2  1  0
  2  3  2  0
  3  4  1  0
  4  5  2  0
  5  6  1  0
  6  7  1  0
  7  8  1  0
  8  9  2  0
  8 10  1  0
 10 11  2  0
 11 12  1  0
 12 13  2  0
 13 14  1  0
 14 15  1  0
 15 16  1  0
 16 17  2  0
 17 18  1  0
 18 19  2  0
 19 20  1  0
 19 21  1  0
 21 22  1  0
 22 23  2  0
 23 24  1  0
 24 25  2  0
 25 26  1  0
 26 27  2  0
 27 28  1  0
 13 29  1  0
 29 30  2  0
  5 31  1  0
 31 32  2  0
 32  2  1  0
 30 10  1  0
 21 16  1  0
 27 22  1  0
  1 33  1  0
  1 34  1  0
  1 35  1  0
  3 36  1  0
  4 37  1  0
  6 38  1  0
  6 39  1  0
 11 40  1  0
 12 41  1  0
 14 42  1  0
 14 43  1  0
 20 44  1  0
 20 45  1  0
 20 46  1  0
 23 47  1  0
 24 48  1  0
 25 49  1  0
 26 50  1  0
 28 51  1  0
 28 52  1  0
 28 53  1  0
 29 54  1  0
 30 55  1  0
 31 56  1  0
 32 57  1  0
M  CHG  1   7  -1
M  END
>  <UniqueID>  (10) 
10

>  <SMILES>  (10) 
Cc1ccc(C[N-]C(=O)c2ccc(CSc3nnc(C)n3-c3ccccc3C)cc2)cc1

>  <Energy>  (10) 
94.24485831492026

>  <Genealogy>  (10) 
Cc1ccc(C[N-]C(=O)c2ccc(CSc3nnc(C)n3-c3ccccc3C)cc2)cc1 (protonated)
Cc1ccc(C[N-]C(=O)c2ccc(CSc3nnc(C)n3-c3ccccc3C)cc2)cc1 (3D coordinates assigned)
Cc1ccc(C[N-]C(=O)c2ccc(CSc3nnc(C)n3-c3ccccc3C)cc2)cc1 (optimized conformer: 94.24485831492026 kcal/mol)

>  <smiles>  (10) 
Cc1ccc(CNC(=O)c2ccc(CSc3nnc(C)n3-c3ccccc3C)cc2)cc1

>  <score_type>  (10) 
oracle

>  <origin>  (10) 
adgpu

>  <m_score__min__energy>  (10) 
-11.550000000000001

>  <m_primary>  (10) 
energy

$$$$
10:0
     RDKit          3D

 75 79  0  0  0  0  0  0  0  0999 V2000
   -2.5520   19.4810  -26.8800 O   0  0  0  0  0  0  0  0  0  0  0  0
   -2.1880   20.0400  -27.9500 C   0  0  0  0  0  0  0  0  0  0  0  0
   -1.0120   19.5790  -28.6260 N   0  0  0  0  0  0  0  0  0  0  0  0
    0.0900   20.4470  -29.0210 C   0  0  0  0  0  0  0  0  0  0  0  0
    0.9770   20.7630  -27.8150 C   0  0  0  0  0  0  0  0  0  0  0  0
    0.5760   22.0720  -27.1880 C   0  0  0  0  0  0  0  0  0  0  0  0
    1.2920   23.2440  -27.4780 C   0  0  0  0  0  0  0  0  0  0  0  0
    0.9520   24.4480  -26.8560 C   0  0  0  0  0  0  0  0  0  0  0  0
   -0.0990   24.4940  -25.9290 C   0  0  0  0  0  0  0  0  0  0  0  0
   -0.4700   26.0110  -25.1110 S   0  0  0  0  0  0  0  0  0  0  0  0
   -1.9250   26.0430  -24.7320 O   0  0  0  0  0  0  0  0  0  0  0  0
   -0.1970   27.1440  -26.0630 O   0  0  0  0  0  0  0  0  0  0  0  0
    0.5430   26.1510  -23.6860 N   0  0  0  0  0  0  0  0  0  0  0  0
    1.9690   25.9360  -24.0090 C   0  0  0  0  0  0  0  0  0  0  0  0
    2.5950   27.1440  -24.7480 C   0  0  0  0  0  0  0  0  0  0  0  0
    1.8280   28.3330  -24.6480 O   0  0  0  0  0  0  0  0  0  0  0  0
    1.3660   28.5060  -23.3270 C   0  0  0  0  0  0  0  0  0  0  0  0
    0.3170   27.4340  -22.9750 C   0  0  0  0  0  0  0  0  0  0  0  0
   -0.8150   23.3260  -25.6360 C   0  0  0  0  0  0  0  0  0  0  0  0
   -0.4770   22.1210  -26.2600 C   0  0  0  0  0  0  0  0  0  0  0  0
   -2.9670   21.1750  -28.5010 C   0  0  0  0  0  0  0  0  0  0  0  0
   -3.8590   21.8940  -27.6820 C   0  0  0  0  0  0  0  0  0  0  0  0
   -4.5580   22.9920  -28.1890 C   0  0  0  0  0  0  0  0  0  0  0  0
   -4.3880   23.3860  -29.5220 C   0  0  0  0  0  0  0  0  0  0  0  0
   -5.2230   24.8110  -30.1320 S   0  0  0  0  0  0  0  0  0  0  0  0
   -4.2360   25.6810  -30.8630 O   0  0  0  0  0  0  0  0  0  0  0  0
   -5.7750   25.5920  -28.9720 O   0  0  0  0  0  0  0  0  0  0  0  0
   -6.4980   24.2590  -31.2020 N   0  0  0  0  0  0  0  0  0  0  0  0
   -6.0000   23.8040  -32.5160 C   0  0  0  0  0  0  0  0  0  0  0  0
   -5.4410   22.3720  -32.4930 C   0  0  0  0  0  0  0  0  0  0  0  0
   -6.3590   21.4770  -31.7810 N   0  0  0  0  0  0  0  0  0  0  0  0
   -6.5250   20.1130  -32.2150 C   0  0  0  0  0  0  0  0  0  0  0  0
   -7.4740   19.2740  -31.6070 C   0  0  0  0  0  0  0  0  0  0  0  0
   -7.6280   17.9520  -32.0370 C   0  0  0  0  0  0  0  0  0  0  0  0
   -6.8340   17.4560  -33.0770 C   0  0  0  0  0  0  0  0  0  0  0  0
   -6.9810   16.1730  -33.4890 F   0  0  0  0  0  0  0  0  0  0  0  0
   -5.8950   18.2860  -33.6950 C   0  0  0  0  0  0  0  0  0  0  0  0
   -5.7400   19.6080  -33.2650 C   0  0  0  0  0  0  0  0  0  0  0  0
   -6.8320   21.9020  -30.4640 C   0  0  0  0  0  0  0  0  0  0  0  0
   -7.4290   23.3060  -30.5690 C   0  0  0  0  0  0  0  0  0  0  0  0
   -3.5090   22.6720  -30.3460 C   0  0  0  0  0  0  0  0  0  0  0  0
   -2.8050   21.5760  -29.8400 C   0  0  0  0  0  0  0  0  0  0  0  0
    0.6914   19.9419  -29.7911 H   0  0  0  0  0  0  0  0  0  0  0  0
   -0.3203   21.3869  -29.4189 H   0  0  0  0  0  0  0  0  0  0  0  0
    0.8742   19.9596  -27.0707 H   0  0  0  0  0  0  0  0  0  0  0  0
    2.0209   20.8381  -28.1537 H   0  0  0  0  0  0  0  0  0  0  0  0
    2.1236   23.2144  -28.1974 H   0  0  0  0  0  0  0  0  0  0  0  0
    1.5116   25.3644  -27.0947 H   0  0  0  0  0  0  0  0  0  0  0  0
    0.2500   25.3750  -23.0490 H   0  0  0  0  0  0  0  0  0  0  0  0
    2.5221   25.7692  -23.0729 H   0  0  0  0  0  0  0  0  0  0  0  0
    2.0341   25.0639  -24.6763 H   0  0  0  0  0  0  0  0  0  0  0  0
    3.5900   27.3355  -24.3199 H   0  0  0  0  0  0  0  0  0  0  0  0
    2.6411   26.8797  -25.8148 H   0  0  0  0  0  0  0  0  0  0  0  0
    2.2154   28.4223  -22.6330 H   0  0  0  0  0  0  0  0  0  0  0  0
    0.9010   29.4991  -23.2410 H   0  0  0  0  0  0  0  0  0  0  0  0
    0.3560   27.2468  -21.8917 H   0  0  0  0  0  0  0  0  0  0  0  0
   -0.6653   27.8171  -23.2885 H   0  0  0  0  0  0  0  0  0  0  0  0
   -1.6443   23.3568  -24.9140 H   0  0  0  0  0  0  0  0  0  0  0  0
   -1.0393   21.2059  -26.0225 H   0  0  0  0  0  0  0  0  0  0  0  0
   -4.0063   21.5887  -26.6355 H   0  0  0  0  0  0  0  0  0  0  0  0
   -5.2461   23.5505  -27.5373 H   0  0  0  0  0  0  0  0  0  0  0  0
   -6.8303   23.8429  -33.2364 H   0  0  0  0  0  0  0  0  0  0  0  0
   -5.1730   24.4716  -32.7994 H   0  0  0  0  0  0  0  0  0  0  0  0
   -5.3151   22.0153  -33.5259 H   0  0  0  0  0  0  0  0  0  0  0  0
   -4.4712   22.3755  -31.9739 H   0  0  0  0  0  0  0  0  0  0  0  0
   -8.0994   19.6591  -30.7881 H   0  0  0  0  0  0  0  0  0  0  0  0
   -8.3741   17.3015  -31.5571 H   0  0  0  0  0  0  0  0  0  0  0  0
   -5.2778   17.8998  -34.5196 H   0  0  0  0  0  0  0  0  0  0  0  0
   -4.9978   20.2571  -33.7527 H   0  0  0  0  0  0  0  0  0  0  0  0
   -7.6012   21.2017  -30.1064 H   0  0  0  0  0  0  0  0  0  0  0  0
   -5.9900   21.9121  -29.7562 H   0  0  0  0  0  0  0  0  0  0  0  0
   -8.3488   23.2562  -31.1703 H   0  0  0  0  0  0  0  0  0  0  0  0
   -7.6374   23.6625  -29.5495 H   0  0  0  0  0  0  0  0  0  0  0  0
   -3.3723   22.9748  -31.3946 H   0  0  0  0  0  0  0  0  0  0  0  0
   -2.1172   21.0212  -30.4951 H   0  0  0  0  0  0  0  0  0  0  0  0
  1  2  2  0
  2  3  1  0
  3  4  1  0
  4  5  1  0
  5  6  1  0
  6  7  2  0
  7  8  1  0
  8  9  2  0
  9 10  1  0
 10 11  2  0
 10 12  2  0
 10 13  1  0
 13 14  1  0
 14 15  1  0
 15 16  1  0
 16 17  1  0
 17 18  1  0
  9 19  1  0
 19 20  2  0
  2 21  1  0
 21 22  2  0
 22 23  1  0
 23 24  2  0
 24 25  1  0
 25 26  2  0
 25 27  2  0
 25 28  1  0
 28 29  1  0
 29 30  1  0
 30 31  1  0
 31 32  1  0
 32 33  2  0
 33 34  1  0
 34 35  2  0
 35 36  1  0
 35 37  1  0
 37 38  2  0
 31 39  1  0
 39 40  1  0
 24 41  1  0
 41 42  2  0
 20  6  1  0
 42 21  1  0
 18 13  1  0
 40 28  1  0
 38 32  1  0
  4 43  1  0
  4 44  1  0
  5 45  1  0
  5 46  1  0
  7 47  1  0
  8 48  1  0
 13 49  1  0
 14 50  1  0
 14 51  1  0
 15 52  1  0
 15 53  1  0
 17 54  1  0
 17 55  1  0
 18 56  1  0
 18 57  1  0
 19 58  1  0
 20 59  1  0
 22 60  1  0
 23 61  1  0
 29 62  1  0
 29 63  1  0
 30 64  1  0
 30 65  1  0
 33 66  1  0
 34 67  1  0
 37 68  1  0
 38 69  1  0
 39 70  1  0
 39 71  1  0
 40 72  1  0
 40 73  1  0
 41 74  1  0
 42 75  1  0
M  CHG  2   3  -1  13   1
M  END
>  <UniqueID>  (11) 
11

>  <SMILES>  (11) 
O=C([N-]CCc1ccc(S(=O)(=O)[NH+]2CCOCC2)cc1)c1ccc(S(=O)(=O)N2CCN(c3ccc(F)cc3)CC2)cc1

>  <Energy>  (11) 
95.14206366219922

>  <Genealogy>  (11) 
O=C([N-]CCc1ccc(S(=O)(=O)[NH+]2CCOCC2)cc1)c1ccc(S(=O)(=O)N2CCN(c3ccc(F)cc3)CC2)cc1 (protonated)
O=C([N-]CCc1ccc(S(=O)(=O)[NH+]2CCOCC2)cc1)c1ccc(S(=O)(=O)N2CCN(c3ccc(F)cc3)CC2)cc1 (3D coordinates assigned)
O=C([N-]CCc1ccc(S(=O)(=O)[NH+]2CCOCC2)cc1)c1ccc(S(=O)(=O)N2CCN(c3ccc(F)cc3)CC2)cc1 (nonaromatic ring conformer: 95.14206366219922 kcal/mol)

>  <smiles>  (11) 
O=C(NCCc1ccc(S(=O)(=O)N2CCOCC2)cc1)c1ccc(S(=O)(=O)N2CCN(c3ccc(F)cc3)CC2)cc1

>  <score_type>  (11) 
oracle

>  <origin>  (11) 
adgpu

>  <m_score__min__energy>  (11) 
-13.529999999999999

>  <m_primary>  (11) 
energy

$$$$
11:0
     RDKit          3D

 60 64  0  0  0  0  0  0  0  0999 V2000
   -2.2180   25.0380  -29.3080 O   0  0  0  0  0  0  0  0  0  0  0  0
   -3.1200   24.5230  -30.0180 C   0  0  0  0  0  0  0  0  0  0  0  0
   -3.9940   25.3880  -30.7590 N   0  0  0  0  0  0  0  0  0  0  0  0
   -5.3900   25.6910  -30.4390 C   0  0  0  0  0  0  0  0  0  0  0  0
   -6.2840   24.5220  -30.7560 C   0  0  0  0  0  0  0  0  0  0  0  0
   -6.8690   23.7730  -29.7220 C   0  0  0  0  0  0  0  0  0  0  0  0
   -7.5850   22.6100  -30.0120 C   0  0  0  0  0  0  0  0  0  0  0  0
   -7.7450   22.1950  -31.3410 C   0  0  0  0  0  0  0  0  0  0  0  0
   -8.5330   20.6660  -31.7090 S   0  0  0  0  0  0  0  0  0  0  0  0
   -9.6570   20.8870  -32.6790 O   0  0  0  0  0  0  0  0  0  0  0  0
   -9.1030   20.0650  -30.4550 O   0  0  0  0  0  0  0  0  0  0  0  0
   -7.3400   19.5800  -32.4140 C   0  0  0  0  0  0  0  0  0  0  0  0
   -6.6430   19.9430  -33.5740 C   0  0  0  0  0  0  0  0  0  0  0  0
   -5.6960   19.0710  -34.1270 C   0  0  0  0  0  0  0  0  0  0  0  0
   -5.4510   17.8230  -33.5320 C   0  0  0  0  0  0  0  0  0  0  0  0
   -4.4650   16.9430  -34.0770 N   0  0  0  0  0  0  0  0  0  0  0  0
   -4.4170   15.5340  -34.4210 C   0  0  0  0  0  0  0  0  0  0  0  0
   -3.0500   15.6060  -34.8490 C   0  0  0  0  0  0  0  0  0  0  0  0
   -3.0480   17.0570  -34.4940 C   0  0  0  0  0  0  0  0  0  0  0  0
   -2.1910   17.9810  -34.5210 O   0  0  0  0  0  0  0  0  0  0  0  0
   -6.1660   17.4550  -32.3830 C   0  0  0  0  0  0  0  0  0  0  0  0
   -7.1060   18.3290  -31.8270 C   0  0  0  0  0  0  0  0  0  0  0  0
   -7.2050   22.9670  -32.3770 C   0  0  0  0  0  0  0  0  0  0  0  0
   -6.4830   24.1270  -32.0870 C   0  0  0  0  0  0  0  0  0  0  0  0
   -3.2160   23.0530  -30.0980 C   0  0  0  0  0  0  0  0  0  0  0  0
   -3.6940   22.4430  -31.2660 C   0  0  0  0  0  0  0  0  0  0  0  0
   -3.7920   21.0530  -31.3220 C   0  0  0  0  0  0  0  0  0  0  0  0
   -3.4080   20.3010  -30.2560 N   0  0  0  0  0  0  0  0  0  0  0  0
   -2.9360   20.8580  -29.1080 C   0  0  0  0  0  0  0  0  0  0  0  0
   -2.5490   20.0030  -28.0100 N   0  0  0  0  0  0  0  0  0  0  0  0
   -3.4600   19.4940  -26.9970 C   0  0  0  0  0  0  0  0  0  0  0  0
   -2.5980   18.7020  -26.0230 C   0  0  0  0  0  0  0  0  0  0  0  0
   -1.2630   18.4770  -26.7260 C   0  0  0  0  0  0  0  0  0  0  0  0
   -1.1890   19.5220  -27.8290 C   0  0  0  0  0  0  0  0  0  0  0  0
   -2.8330   22.2560  -29.0150 C   0  0  0  0  0  0  0  0  0  0  0  0
   -5.4704   25.9247  -29.3671 H   0  0  0  0  0  0  0  0  0  0  0  0
   -5.7095   26.5504  -31.0467 H   0  0  0  0  0  0  0  0  0  0  0  0
   -6.7626   24.1043  -28.6785 H   0  0  0  0  0  0  0  0  0  0  0  0
   -8.0245   22.0182  -29.1956 H   0  0  0  0  0  0  0  0  0  0  0  0
   -6.8396   20.9143  -34.0514 H   0  0  0  0  0  0  0  0  0  0  0  0
   -5.1423   19.3652  -35.0308 H   0  0  0  0  0  0  0  0  0  0  0  0
   -4.5704   14.8683  -33.5588 H   0  0  0  0  0  0  0  0  0  0  0  0
   -5.1689   15.1334  -35.1168 H   0  0  0  0  0  0  0  0  0  0  0  0
   -2.3559   14.9927  -34.2556 H   0  0  0  0  0  0  0  0  0  0  0  0
   -2.7509   15.2669  -35.8518 H   0  0  0  0  0  0  0  0  0  0  0  0
   -5.9868   16.4748  -31.9170 H   0  0  0  0  0  0  0  0  0  0  0  0
   -7.6635   18.0334  -30.9260 H   0  0  0  0  0  0  0  0  0  0  0  0
   -7.3499   22.6588  -33.4229 H   0  0  0  0  0  0  0  0  0  0  0  0
   -6.0687   24.7333  -32.9060 H   0  0  0  0  0  0  0  0  0  0  0  0
   -3.9892   23.0553  -32.1308 H   0  0  0  0  0  0  0  0  0  0  0  0
   -4.1799   20.5650  -32.2283 H   0  0  0  0  0  0  0  0  0  0  0  0
   -3.9588   20.3257  -26.4779 H   0  0  0  0  0  0  0  0  0  0  0  0
   -4.2489   18.8684  -27.4400 H   0  0  0  0  0  0  0  0  0  0  0  0
   -2.4490   19.2723  -25.0942 H   0  0  0  0  0  0  0  0  0  0  0  0
   -3.0736   17.7487  -25.7490 H   0  0  0  0  0  0  0  0  0  0  0  0
   -0.4313   18.6087  -26.0182 H   0  0  0  0  0  0  0  0  0  0  0  0
   -1.1878   17.4572  -27.1313 H   0  0  0  0  0  0  0  0  0  0  0  0
   -0.5270   20.3481  -27.5303 H   0  0  0  0  0  0  0  0  0  0  0  0
   -0.7811   19.1006  -28.7596 H   0  0  0  0  0  0  0  0  0  0  0  0
   -2.4526   22.7217  -28.0939 H   0  0  0  0  0  0  0  0  0  0  0  0
  1  2  2  0
  2  3  1  0
  3  4  1  0
  4  5  1  0
  5  6  2  0
  6  7  1  0
  7  8  2  0
  8  9  1  0
  9 10  2  0
  9 11  2  0
  9 12  1  0
 12 13  2  0
 13 14  1  0
 14 15  2  0
 15 16  1  0
 16 17  1  0
 17 18  1  0
 18 19  1  0
 19 20  2  0
 15 21  1  0
 21 22  2  0
  8 23  1  0
 23 24  2  0
  2 25  1  0
 25 26  2  0
 26 27  1  0
 27 28  2  0
 28 29  1  0
 29 30  1  0
 30 31  1  0
 31 32  1  0
 32 33  1  0
 33 34  1  0
 29 35  2  0
 24  5  1  0
 35 25  1  0
 22 12  1  0
 34 30  1  0
 19 16  1  0
  4 36  1  0
  4 37  1  0
  6 38  1  0
  7 39  1  0
 13 40  1  0
 14 41  1  0
 17 42  1  0
 17 43  1  0
 18 44  1  0
 18 45  1  0
 21 46  1  0
 22 47  1  0
 23 48  1  0
 24 49  1  0
 26 50  1  0
 27 51  1  0
 31 52  1  0
 31 53  1  0
 32 54  1  0
 32 55  1  0
 33 56  1  0
 33 57  1  0
 34 58  1  0
 34 59  1  0
 35 60  1  0
M  CHG  1   3  -1
M  END
>  <UniqueID>  (12) 
12

>  <SMILES>  (12) 
O=C([N-]Cc1ccc(S(=O)(=O)c2ccc(N3CCC3=O)cc2)cc1)c1ccnc(N2CCCC2)c1

>  <Energy>  (12) 
97.57458048239764

>  <Genealogy>  (12) 
O=C([N-]Cc1ccc(S(=O)(=O)c2ccc(N3CCC3=O)cc2)cc1)c1ccnc(N2CCCC2)c1 (protonated)
O=C([N-]Cc1ccc(S(=O)(=O)c2ccc(N3CCC3=O)cc2)cc1)c1ccnc(N2CCCC2)c1 (3D coordinates assigned)
O=C([N-]Cc1ccc(S(=O)(=O)c2ccc(N3CCC3=O)cc2)cc1)c1ccnc(N2CCCC2)c1 (nonaromatic ring conformer: 97.57458048239764 kcal/mol)

>  <smiles>  (12) 
O=C(NCc1ccc(S(=O)(=O)c2ccc(N3CCC3=O)cc2)cc1)c1ccnc(N2CCCC2)c1

>  <score_type>  (12) 
oracle

>  <origin>  (12) 
adgpu

>  <m_score__min__energy>  (12) 
-12.880000000000001

>  <m_primary>  (12) 
energy

$$$$
12:0
     RDKit          3D

 45 47  0  0  0  0  0  0  0  0999 V2000
   -2.8250   21.8320  -33.7520 O   0  0  0  0  0  0  0  0  0  0  0  0
   -2.0680   20.5640  -33.4660 S   0  0  0  0  0  0  0  0  0  0  0  0
   -0.9170   20.4720  -34.4290 O   0  0  0  0  0  0  0  0  0  0  0  0
   -1.4430   20.6200  -31.8420 N   0  0  0  0  0  0  0  0  0  0  0  0
   -2.5180   20.6030  -30.8470 C   0  0  0  0  0  0  0  0  0  0  0  0
   -3.1610   21.9570  -30.7070 C   0  0  0  0  0  0  0  0  0  0  0  0
   -4.4510   22.1880  -31.2110 C   0  0  0  0  0  0  0  0  0  0  0  0
   -5.0380   23.4500  -31.0920 C   0  0  0  0  0  0  0  0  0  0  0  0
   -4.3440   24.4940  -30.4660 C   0  0  0  0  0  0  0  0  0  0  0  0
   -4.9230   25.7560  -30.3460 O   0  0  0  0  0  0  0  0  0  0  0  0
   -3.0590   24.2680  -29.9590 C   0  0  0  0  0  0  0  0  0  0  0  0
   -2.3620   25.2980  -29.3380 O   0  0  0  0  0  0  0  0  0  0  0  0
   -2.4700   23.0040  -30.0760 C   0  0  0  0  0  0  0  0  0  0  0  0
   -3.1130   19.1640  -33.7050 C   0  0  0  0  0  0  0  0  0  0  0  0
   -2.7090   18.0990  -34.5220 C   0  0  0  0  0  0  0  0  0  0  0  0
   -3.5560   17.0050  -34.7170 C   0  0  0  0  0  0  0  0  0  0  0  0
   -4.8100   16.9710  -34.1020 C   0  0  0  0  0  0  0  0  0  0  0  0
   -5.2250   18.0340  -33.2890 C   0  0  0  0  0  0  0  0  0  0  0  0
   -6.8000   17.9890  -32.5020 S   0  0  0  0  0  0  0  0  0  0  0  0
   -7.5850   16.8210  -33.0310 O   0  0  0  0  0  0  0  0  0  0  0  0
   -6.6170   17.8090  -31.0190 O   0  0  0  0  0  0  0  0  0  0  0  0
   -7.6600   19.4700  -32.8400 N   0  0  0  0  0  0  0  0  0  0  0  0
   -7.0500   20.6100  -32.1560 C   0  0  0  0  0  0  0  0  0  0  0  0
   -8.1650   21.6140  -31.8940 C   0  0  0  0  0  0  0  0  0  0  0  0
   -9.4610   20.8390  -32.0760 C   0  0  0  0  0  0  0  0  0  0  0  0
   -9.0340   19.4060  -32.3470 C   0  0  0  0  0  0  0  0  0  0  0  0
   -4.3700   19.1270  -33.0870 C   0  0  0  0  0  0  0  0  0  0  0  0
   -3.2817   19.8750  -31.1581 H   0  0  0  0  0  0  0  0  0  0  0  0
   -2.0846   20.3243  -29.8751 H   0  0  0  0  0  0  0  0  0  0  0  0
   -5.0017   21.3718  -31.7016 H   0  0  0  0  0  0  0  0  0  0  0  0
   -6.0481   23.6247  -31.4909 H   0  0  0  0  0  0  0  0  0  0  0  0
   -5.0200   26.2120  -29.4460 H   0  0  0  0  0  0  0  0  0  0  0  0
   -1.4618   22.8299  -29.6721 H   0  0  0  0  0  0  0  0  0  0  0  0
   -1.7237   18.1246  -35.0103 H   0  0  0  0  0  0  0  0  0  0  0  0
   -3.2349   16.1691  -35.3558 H   0  0  0  0  0  0  0  0  0  0  0  0
   -5.4734   16.1073  -34.2565 H   0  0  0  0  0  0  0  0  0  0  0  0
   -6.6015   20.2856  -31.2054 H   0  0  0  0  0  0  0  0  0  0  0  0
   -6.2523   21.0567  -32.7677 H   0  0  0  0  0  0  0  0  0  0  0  0
   -8.0939   22.0089  -30.8698 H   0  0  0  0  0  0  0  0  0  0  0  0
   -8.1061   22.4760  -32.5747 H   0  0  0  0  0  0  0  0  0  0  0  0
  -10.0739   20.8929  -31.1642 H   0  0  0  0  0  0  0  0  0  0  0  0
  -10.0726   21.2473  -32.8941 H   0  0  0  0  0  0  0  0  0  0  0  0
   -9.0784   18.8144  -31.4207 H   0  0  0  0  0  0  0  0  0  0  0  0
   -9.6981   18.9243  -33.0798 H   0  0  0  0  0  0  0  0  0  0  0  0
   -4.6874   19.9587  -32.4408 H   0  0  0  0  0  0  0  0  0  0  0  0
  1  2  2  0
  2  3  2  0
  2  4  1  0
  4  5  1  0
  5  6  1  0
  6  7  2  0
  7  8  1  0
  8  9  2  0
  9 10  1  0
  9 11  1  0
 11 12  1  0
 11 13  2  0
  2 14  1  0
 14 15  2  0
 15 16  1  0
 16 17  2  0
 17 18  1  0
 18 19  1  0
 19 20  2  0
 19 21  2  0
 19 22  1  0
 22 23  1  0
 23 24  1  0
 24 25  1  0
 25 26  1  0
 18 27  2  0
 13  6  1  0
 27 14  1  0
 26 22  1  0
  5 28  1  0
  5 29  1  0
  7 30  1  0
  8 31  1  0
 10 32  1  0
 13 33  1  0
 15 34  1  0
 16 35  1  0
 17 36  1  0
 23 37  1  0
 23 38  1  0
 24 39  1  0
 24 40  1  0
 25 41  1  0
 25 42  1  0
 26 43  1  0
 26 44  1  0
 27 45  1  0
M  CHG  2   4  -1  12  -1
M  END
>  <UniqueID>  (13) 
13

>  <SMILES>  (13) 
O=S(=O)([N-]Cc1ccc(O)c([O-])c1)c1cccc(S(=O)(=O)N2CCCC2)c1

>  <Energy>  (13) 
44.81558748401963

>  <Genealogy>  (13) 
O=S(=O)([N-]Cc1ccc(O)c([O-])c1)c1cccc(S(=O)(=O)N2CCCC2)c1 (protonated)
O=S(=O)([N-]Cc1ccc(O)c([O-])c1)c1cccc(S(=O)(=O)N2CCCC2)c1 (3D coordinates assigned)
O=S(=O)([N-]Cc1ccc(O)c([O-])c1)c1cccc(S(=O)(=O)N2CCCC2)c1 (nonaromatic ring conformer: 44.81558748401963 kcal/mol)

>  <smiles>  (13) 
O=S(=O)(NCc1ccc(O)c(O)c1)c1cccc(S(=O)(=O)N2CCCC2)c1

>  <score_type>  (13) 
oracle

>  <origin>  (13) 
adgpu

>  <m_score__min__energy>  (13) 
-13.050000000000001

>  <m_primary>  (13) 
energy

$$$$
13:0
     RDKit          3D

 56 59  0  0  0  0  0  0  0  0999 V2000
   -7.0400   14.9130  -34.5820 C   0  0  0  0  0  0  0  0  0  0  0  0
   -6.0850   15.7350  -33.8320 N   0  0  0  0  0  0  0  0  0  0  0  0
   -6.7550   16.8350  -33.1150 C   0  0  0  0  0  0  0  0  0  0  0  0
   -5.9410   18.1160  -33.1440 C   0  0  0  0  0  0  0  0  0  0  0  0
   -6.5030   19.3010  -32.6420 C   0  0  0  0  0  0  0  0  0  0  0  0
   -5.7740   20.5060  -32.6460 C   0  0  0  0  0  0  0  0  0  0  0  0
   -6.3840   21.7610  -32.1330 C   0  0  0  0  0  0  0  0  0  0  0  0
   -7.7590   22.0160  -32.3190 C   0  0  0  0  0  0  0  0  0  0  0  0
   -8.3340   23.1900  -31.8260 C   0  0  0  0  0  0  0  0  0  0  0  0
   -7.5480   24.1210  -31.1440 C   0  0  0  0  0  0  0  0  0  0  0  0
   -6.1770   23.8910  -30.9620 C   0  0  0  0  0  0  0  0  0  0  0  0
   -5.1630   25.0850  -30.1640 S   0  0  0  0  0  0  0  0  0  0  0  0
   -5.5810   26.4780  -30.5280 O   0  0  0  0  0  0  0  0  0  0  0  0
   -5.3020   24.9170  -28.6790 O   0  0  0  0  0  0  0  0  0  0  0  0
   -3.5070   24.8330  -30.6180 N   0  0  0  0  0  0  0  0  0  0  0  0
   -2.5680   24.0360  -29.8820 C   0  0  0  0  0  0  0  0  0  0  0  0
   -2.5520   22.6330  -29.9830 C   0  0  0  0  0  0  0  0  0  0  0  0
   -1.6540   21.8700  -29.2230 C   0  0  0  0  0  0  0  0  0  0  0  0
   -0.7730   22.5170  -28.3310 C   0  0  0  0  0  0  0  0  0  0  0  0
   -0.7550   23.9210  -28.2700 C   0  0  0  0  0  0  0  0  0  0  0  0
   -1.6470   24.6740  -29.0400 C   0  0  0  0  0  0  0  0  0  0  0  0
   -1.6110   26.0620  -28.9650 O   0  0  0  0  0  0  0  0  0  0  0  0
    0.2300   21.7340  -27.5160 C   0  0  0  0  0  0  0  0  0  0  0  0
   -0.1560   20.3210  -27.3440 N   0  0  0  0  0  0  0  0  0  0  0  0
   -1.2170   20.1580  -26.3330 C   0  0  0  0  0  0  0  0  0  0  0  0
   -0.5070   19.6960  -28.6400 C   0  0  0  0  0  0  0  0  0  0  0  0
   -1.7100   20.3680  -29.3190 C   0  0  0  0  0  0  0  0  0  0  0  0
   -5.6000   22.7130  -31.4510 C   0  0  0  0  0  0  0  0  0  0  0  0
   -4.4600   20.5030  -33.1490 C   0  0  0  0  0  0  0  0  0  0  0  0
   -3.8920   19.3240  -33.6360 C   0  0  0  0  0  0  0  0  0  0  0  0
   -4.6230   18.1340  -33.6380 C   0  0  0  0  0  0  0  0  0  0  0  0
   -4.0300   16.9770  -34.1310 O   0  0  0  0  0  0  0  0  0  0  0  0
   -7.6808   14.3614  -33.8784 H   0  0  0  0  0  0  0  0  0  0  0  0
   -7.6637   15.5612  -35.2151 H   0  0  0  0  0  0  0  0  0  0  0  0
   -6.4919   14.1998  -35.2151 H   0  0  0  0  0  0  0  0  0  0  0  0
   -5.3860   16.1240  -34.5060 H   0  0  0  0  0  0  0  0  0  0  0  0
   -7.7303   17.0239  -33.5873 H   0  0  0  0  0  0  0  0  0  0  0  0
   -6.8720   16.5321  -32.0640 H   0  0  0  0  0  0  0  0  0  0  0  0
   -7.5269   19.2879  -32.2401 H   0  0  0  0  0  0  0  0  0  0  0  0
   -8.3825   21.2857  -32.8557 H   0  0  0  0  0  0  0  0  0  0  0  0
   -9.4069   23.3811  -31.9753 H   0  0  0  0  0  0  0  0  0  0  0  0
   -8.0065   25.0390  -30.7477 H   0  0  0  0  0  0  0  0  0  0  0  0
   -3.2517   22.1289  -30.6658 H   0  0  0  0  0  0  0  0  0  0  0  0
   -0.0350   24.4305  -27.6127 H   0  0  0  0  0  0  0  0  0  0  0  0
    1.2044   21.7733  -28.0249 H   0  0  0  0  0  0  0  0  0  0  0  0
    0.2748   22.1905  -26.5162 H   0  0  0  0  0  0  0  0  0  0  0  0
   -0.7780   20.2254  -25.3266 H   0  0  0  0  0  0  0  0  0  0  0  0
   -1.9686   20.9512  -26.4591 H   0  0  0  0  0  0  0  0  0  0  0  0
   -1.6958   19.1758  -26.4591 H   0  0  0  0  0  0  0  0  0  0  0  0
    0.3612   19.7684  -29.3116 H   0  0  0  0  0  0  0  0  0  0  0  0
   -0.7819   18.6500  -28.4394 H   0  0  0  0  0  0  0  0  0  0  0  0
   -1.7226   20.0815  -30.3810 H   0  0  0  0  0  0  0  0  0  0  0  0
   -2.6204   20.0311  -28.8016 H   0  0  0  0  0  0  0  0  0  0  0  0
   -4.5258   22.5289  -31.3017 H   0  0  0  0  0  0  0  0  0  0  0  0
   -3.8764   21.4354  -33.1587 H   0  0  0  0  0  0  0  0  0  0  0  0
   -2.8615   19.3326  -34.0208 H   0  0  0  0  0  0  0  0  0  0  0  0
  1  2  1  0
  2  3  1  0
  3  4  1  0
  4  5  2  0
  5  6  1  0
  6  7  1  0
  7  8  2  0
  8  9  1  0
  9 10  2  0
 10 11  1  0
 11 12  1  0
 12 13  2  0
 12 14  2  0
 12 15  1  0
 15 16  1  0
 16 17  2  0
 17 18  1  0
 18 19  2  0
 19 20  1  0
 20 21  2  0
 21 22  1  0
 19 23  1  0
 23 24  1  0
 24 25  1  0
 24 26  1  0
 26 27  1  0
 11 28  2  0
  6 29  2  0
 29 30  1  0
 30 31  2  0
 31 32  1  0
 31  4  1  0
 28  7  1  0
 21 16  1  0
 27 18  1  0
  1 33  1  0
  1 34  1  0
  1 35  1  0
  2 36  1  0
  3 37  1  0
  3 38  1  0
  5 39  1  0
  8 40  1  0
  9 41  1  0
 10 42  1  0
 17 43  1  0
 20 44  1  0
 23 45  1  0
 23 46  1  0
 25 47  1  0
 25 48  1  0
 25 49  1  0
 26 50  1  0
 26 51  1  0
 27 52  1  0
 27 53  1  0
 28 54  1  0
 29 55  1  0
 30 56  1  0
M  CHG  3  15  -1  22  -1  32  -1
M  END
>  <UniqueID>  (14) 
14

>  <SMILES>  (14) 
CNCc1cc(-c2cccc(S(=O)(=O)[N-]c3cc4c(cc3[O-])CN(C)CC4)c2)ccc1[O-]

>  <Energy>  (14) 
73.50029166684267

>  <Genealogy>  (14) 
CNCc1cc(-c2cccc(S(=O)(=O)[N-]c3cc4c(cc3[O-])CN(C)CC4)c2)ccc1[O-] (protonated)
CNCc1cc(-c2cccc(S(=O)(=O)[N-]c3cc4c(cc3[O-])CN(C)CC4)c2)ccc1[O-] (3D coordinates assigned)
CNCc1cc(-c2cccc(S(=O)(=O)[N-]c3cc4c(cc3[O-])CN(C)CC4)c2)ccc1[O-] (nonaromatic ring conformer: 73.50029166684267 kcal/mol)

>  <smiles>  (14) 
CNCc1cc(-c2cccc(S(=O)(=O)Nc3cc4c(cc3O)CN(C)CC4)c2)ccc1O

>  <score_type>  (14) 
oracle

>  <origin>  (14) 
adgpu

>  <m_score__min__energy>  (14) 
-15.35

>  <m_primary>  (14) 
energy

$$$$
14:0
     RDKit          3D

 40 43  0  0  0  0  0  0  0  0999 V2000
   -0.4750   25.3560  -26.0170 C   0  0  0  0  0  0  0  0  0  0  0  0
   -1.2740   25.2200  -27.2690 C   0  0  0  0  0  0  0  0  0  0  0  0
   -2.4890   24.5790  -27.3870 C   0  0  0  0  0  0  0  0  0  0  0  0
   -2.7710   24.6660  -28.7390 C   0  0  0  0  0  0  0  0  0  0  0  0
   -3.9630   24.1490  -29.4470 C   0  0  0  0  0  0  0  0  0  0  0  0
   -4.4770   22.8850  -29.1110 C   0  0  0  0  0  0  0  0  0  0  0  0
   -5.6020   22.3770  -29.7700 C   0  0  0  0  0  0  0  0  0  0  0  0
   -6.2310   23.1280  -30.7680 C   0  0  0  0  0  0  0  0  0  0  0  0
   -7.6280   22.4750  -31.6210 S   0  0  0  0  0  0  0  0  0  0  0  0
   -8.0300   23.4210  -32.7180 O   0  0  0  0  0  0  0  0  0  0  0  0
   -8.7740   22.3220  -30.6600 O   0  0  0  0  0  0  0  0  0  0  0  0
   -7.2290   20.9310  -32.3010 N   0  0  0  0  0  0  0  0  0  0  0  0
   -8.1640   19.8180  -32.4480 C   0  0  0  0  0  0  0  0  0  0  0  0
   -7.3510   18.6690  -33.0960 C   0  0  0  0  0  0  0  0  0  0  0  0
   -5.9910   19.2560  -33.2590 C   0  0  0  0  0  0  0  0  0  0  0  0
   -4.8510   18.6560  -33.7970 C   0  0  0  0  0  0  0  0  0  0  0  0
   -3.6630   19.4040  -33.8540 C   0  0  0  0  0  0  0  0  0  0  0  0
   -3.6370   20.7300  -33.3770 C   0  0  0  0  0  0  0  0  0  0  0  0
   -4.7970   21.3110  -32.8400 C   0  0  0  0  0  0  0  0  0  0  0  0
   -5.9630   20.5430  -32.7960 C   0  0  0  0  0  0  0  0  0  0  0  0
   -5.7210   24.3840  -31.1150 C   0  0  0  0  0  0  0  0  0  0  0  0
   -4.5960   24.8940  -30.4590 C   0  0  0  0  0  0  0  0  0  0  0  0
   -1.7810   25.2980  -29.3310 O   0  0  0  0  0  0  0  0  0  0  0  0
   -0.8590   25.6410  -28.4780 N   0  0  0  0  0  0  0  0  0  0  0  0
   -1.1368   25.2433  -25.1456 H   0  0  0  0  0  0  0  0  0  0  0  0
    0.3013   24.5771  -25.9910 H   0  0  0  0  0  0  0  0  0  0  0  0
   -0.0002   26.3479  -25.9910 H   0  0  0  0  0  0  0  0  0  0  0  0
   -3.0910   24.1100  -26.5948 H   0  0  0  0  0  0  0  0  0  0  0  0
   -3.9910   22.2901  -28.3236 H   0  0  0  0  0  0  0  0  0  0  0  0
   -5.9927   21.3842  -29.5023 H   0  0  0  0  0  0  0  0  0  0  0  0
   -8.5490   19.5084  -31.4652 H   0  0  0  0  0  0  0  0  0  0  0  0
   -9.0329   20.0966  -33.0623 H   0  0  0  0  0  0  0  0  0  0  0  0
   -7.3228   17.7876  -32.4385 H   0  0  0  0  0  0  0  0  0  0  0  0
   -7.7839   18.3193  -34.0449 H   0  0  0  0  0  0  0  0  0  0  0  0
   -4.8822   17.6209  -34.1679 H   0  0  0  0  0  0  0  0  0  0  0  0
   -2.7507   18.9535  -34.2720 H   0  0  0  0  0  0  0  0  0  0  0  0
   -2.7047   21.3118  -33.4256 H   0  0  0  0  0  0  0  0  0  0  0  0
   -4.7878   22.3445  -32.4636 H   0  0  0  0  0  0  0  0  0  0  0  0
   -6.2069   24.9727  -31.9070 H   0  0  0  0  0  0  0  0  0  0  0  0
   -4.2036   25.8836  -30.7359 H   0  0  0  0  0  0  0  0  0  0  0  0
  1  2  1  0
  2  3  1  0
  3  4  2  0
  4  5  1  0
  5  6  2  0
  6  7  1  0
  7  8  2  0
  8  9  1  0
  9 10  2  0
  9 11  2  0
  9 12  1  0
 12 13  1  0
 13 14  1  0
 14 15  1  0
 15 16  2  0
 16 17  1  0
 17 18  2  0
 18 19  1  0
 19 20  2  0
  8 21  1  0
 21 22  2  0
  4 23  1  0
 23 24  1  0
 24  2  2  0
 22  5  1  0
 20 12  1  0
 20 15  1  0
  1 25  1  0
  1 26  1  0
  1 27  1  0
  3 28  1  0
  6 29  1  0
  7 30  1  0
 13 31  1  0
 13 32  1  0
 14 33  1  0
 14 34  1  0
 16 35  1  0
 17 36  1  0
 18 37  1  0
 19 38  1  0
 21 39  1  0
 22 40  1  0
M  END
>  <UniqueID>  (15) 
15

>  <SMILES>  (15) 
Cc1cc(-c2ccc(S(=O)(=O)N3CCc4ccccc43)cc2)on1

>  <Energy>  (15) 
89.70734799633225

>  <Genealogy>  (15) 
Cc1cc(-c2ccc(S(=O)(=O)N3CCc4ccccc43)cc2)on1 (3D coordinates assigned)
Cc1cc(-c2ccc(S(=O)(=O)N3CCc4ccccc43)cc2)on1 (nonaromatic ring conformer: 89.70734799633225 kcal/mol)

>  <smiles>  (15) 
Cc1cc(-c2ccc(S(=O)(=O)N3CCc4ccccc43)cc2)on1

>  <score_type>  (15) 
oracle

>  <origin>  (15) 
adgpu

>  <m_score__min__energy>  (15) 
-9.5199999999999996

>  <m_primary>  (15) 
energy

$$$$
15:0
     RDKit          3D

 47 50  0  0  0  0  0  0  0  0999 V2000
   -4.7270   21.7760  -32.6780 O   0  0  0  0  0  0  0  0  0  0  0  0
   -5.1630   22.2210  -31.5810 C   0  0  0  0  0  0  0  0  0  0  0  0
   -6.4500   21.8100  -31.0890 N   0  0  0  0  0  0  0  0  0  0  0  0
   -7.1960   20.7020  -31.6210 C   0  0  0  0  0  0  0  0  0  0  0  0
   -8.5960   20.7510  -31.7460 C   0  0  0  0  0  0  0  0  0  0  0  0
   -9.2950   19.6670  -32.2820 C   0  0  0  0  0  0  0  0  0  0  0  0
   -8.6060   18.5310  -32.7130 C   0  0  0  0  0  0  0  0  0  0  0  0
   -7.2090   18.4800  -32.6240 C   0  0  0  0  0  0  0  0  0  0  0  0
   -6.3440   17.0410  -33.1560 S   0  0  0  0  0  0  0  0  0  0  0  0
   -7.2950   16.1090  -33.8580 O   0  0  0  0  0  0  0  0  0  0  0  0
   -5.7800   16.3330  -31.9570 O   0  0  0  0  0  0  0  0  0  0  0  0
   -5.0440   17.5100  -34.2220 N   0  0  0  0  0  0  0  0  0  0  0  0
   -4.2720   16.3500  -34.6630 C   0  0  0  0  0  0  0  0  0  0  0  0
   -2.8720   16.8540  -34.9750 C   0  0  0  0  0  0  0  0  0  0  0  0
   -2.7470   18.1770  -34.2340 C   0  0  0  0  0  0  0  0  0  0  0  0
   -4.0860   18.3800  -33.5410 C   0  0  0  0  0  0  0  0  0  0  0  0
   -6.5090   19.5660  -32.0800 C   0  0  0  0  0  0  0  0  0  0  0  0
   -4.3600   23.1980  -30.8290 C   0  0  0  0  0  0  0  0  0  0  0  0
   -3.5370   22.9200  -29.7590 C   0  0  0  0  0  0  0  0  0  0  0  0
   -3.0270   24.1550  -29.3970 C   0  0  0  0  0  0  0  0  0  0  0  0
   -2.1060   24.4530  -28.2730 C   0  0  0  0  0  0  0  0  0  0  0  0
   -2.1060   23.6070  -27.1490 C   0  0  0  0  0  0  0  0  0  0  0  0
   -1.2460   23.8480  -26.0750 C   0  0  0  0  0  0  0  0  0  0  0  0
   -0.3790   24.9410  -26.1050 C   0  0  0  0  0  0  0  0  0  0  0  0
   -0.3760   25.7990  -27.2060 C   0  0  0  0  0  0  0  0  0  0  0  0
   -1.2370   25.5690  -28.2860 C   0  0  0  0  0  0  0  0  0  0  0  0
   -1.2350   26.4710  -29.3430 O   0  0  0  0  0  0  0  0  0  0  0  0
   -3.5390   25.1010  -30.2100 N   0  0  0  0  0  0  0  0  0  0  0  0
   -4.3470   24.5200  -31.0820 N   0  0  0  0  0  0  0  0  0  0  0  0
   -6.9100   22.4050  -30.3640 H   0  0  0  0  0  0  0  0  0  0  0  0
   -9.1434   21.6477  -31.4199 H   0  0  0  0  0  0  0  0  0  0  0  0
  -10.3911   19.7081  -32.3649 H   0  0  0  0  0  0  0  0  0  0  0  0
   -9.1615   17.6747  -33.1231 H   0  0  0  0  0  0  0  0  0  0  0  0
   -4.2342   15.5935  -33.8653 H   0  0  0  0  0  0  0  0  0  0  0  0
   -4.7306   15.8801  -35.5455 H   0  0  0  0  0  0  0  0  0  0  0  0
   -2.1165   16.1391  -34.6171 H   0  0  0  0  0  0  0  0  0  0  0  0
   -2.7106   16.9729  -36.0566 H   0  0  0  0  0  0  0  0  0  0  0  0
   -1.9343   18.1285  -33.4943 H   0  0  0  0  0  0  0  0  0  0  0  0
   -2.5093   19.0069  -34.9158 H   0  0  0  0  0  0  0  0  0  0  0  0
   -4.0098   18.1031  -32.4791 H   0  0  0  0  0  0  0  0  0  0  0  0
   -4.4021   19.4325  -33.5884 H   0  0  0  0  0  0  0  0  0  0  0  0
   -5.4118   19.5282  -32.0120 H   0  0  0  0  0  0  0  0  0  0  0  0
   -3.3325   21.9421  -29.2987 H   0  0  0  0  0  0  0  0  0  0  0  0
   -2.7905   22.7466  -27.1155 H   0  0  0  0  0  0  0  0  0  0  0  0
   -1.2522   23.1754  -25.2046 H   0  0  0  0  0  0  0  0  0  0  0  0
    0.3019   25.1264  -25.2612 H   0  0  0  0  0  0  0  0  0  0  0  0
    0.3069   26.6611  -27.2253 H   0  0  0  0  0  0  0  0  0  0  0  0
  1  2  2  0
  2  3  1  0
  3  4  1  0
  4  5  2  0
  5  6  1  0
  6  7  2  0
  7  8  1  0
  8  9  1  0
  9 10  2  0
  9 11  2  0
  9 12  1  0
 12 13  1  0
 13 14  1  0
 14 15  1  0
 15 16  1  0
  8 17  2  0
  2 18  1  0
 18 19  1  0
 19 20  2  0
 20 21  1  0
 21 22  2  0
 22 23  1  0
 23 24  2  0
 24 25  1  0
 25 26  2  0
 26 27  1  0
 20 28  1  0
 28 29  1  0
 17  4  1  0
 29 18  2  0
 16 12  1  0
 26 21  1  0
  3 30  1  0
  5 31  1  0
  6 32  1  0
  7 33  1  0
 13 34  1  0
 13 35  1  0
 14 36  1  0
 14 37  1  0
 15 38  1  0
 15 39  1  0
 16 40  1  0
 16 41  1  0
 17 42  1  0
 19 43  1  0
 22 44  1  0
 23 45  1  0
 24 46  1  0
 25 47  1  0
M  CHG  2  27  -1  28  -1
M  END
>  <UniqueID>  (16) 
16

>  <SMILES>  (16) 
O=C(Nc1cccc(S(=O)(=O)N2CCCC2)c1)c1cc(-c2ccccc2[O-])[n-]n1

>  <Energy>  (16) 
87.13431271271398

>  <Genealogy>  (16) 
O=C(Nc1cccc(S(=O)(=O)N2CCCC2)c1)c1cc(-c2ccccc2[O-])[n-]n1 (protonated)
O=C(Nc1cccc(S(=O)(=O)N2CCCC2)c1)c1cc(-c2ccccc2[O-])[n-]n1 (3D coordinates assigned)
O=C(Nc1cccc(S(=O)(=O)N2CCCC2)c1)c1cc(-c2ccccc2[O-])[n-]n1 (nonaromatic ring conformer: 87.13431271271398 kcal/mol)

>  <smiles>  (16) 
O=C(Nc1cccc(S(=O)(=O)N2CCCC2)c1)c1cc(-c2ccccc2O)[nH]n1

>  <score_type>  (16) 
oracle

>  <origin>  (16) 
adgpu

>  <m_score__min__energy>  (16) 
-14.789999999999999

>  <m_primary>  (16) 
energy

$$$$
16:0
     RDKit          3D

 46 48  0  0  0  0  0  0  0  0999 V2000
   -0.0990   18.2000  -27.8260 C   0  0  0  0  0  0  0  0  0  0  0  0
   -0.9830   18.9450  -26.9920 O   0  0  0  0  0  0  0  0  0  0  0  0
   -1.4190   20.2490  -27.2670 C   0  0  0  0  0  0  0  0  0  0  0  0
   -0.5210   21.3080  -27.0750 C   0  0  0  0  0  0  0  0  0  0  0  0
   -0.9140   22.6250  -27.3230 C   0  0  0  0  0  0  0  0  0  0  0  0
   -2.2140   22.9000  -27.7640 C   0  0  0  0  0  0  0  0  0  0  0  0
   -2.7440   24.5560  -28.0320 S   0  0  0  0  0  0  0  0  0  0  0  0
   -1.6330   25.4890  -27.6440 O   0  0  0  0  0  0  0  0  0  0  0  0
   -3.9600   24.8740  -27.2100 O   0  0  0  0  0  0  0  0  0  0  0  0
   -3.1160   24.7790  -29.7130 N   0  0  0  0  0  0  0  0  0  0  0  0
   -4.1450   24.0790  -30.4250 C   0  0  0  0  0  0  0  0  0  0  0  0
   -3.8430   23.0660  -31.3540 C   0  0  0  0  0  0  0  0  0  0  0  0
   -4.8720   22.4040  -32.0340 C   0  0  0  0  0  0  0  0  0  0  0  0
   -6.2080   22.7570  -31.8080 C   0  0  0  0  0  0  0  0  0  0  0  0
   -6.5130   23.7650  -30.8860 C   0  0  0  0  0  0  0  0  0  0  0  0
   -5.4870   24.4150  -30.1840 C   0  0  0  0  0  0  0  0  0  0  0  0
   -5.7930   25.4070  -29.2520 O   0  0  0  0  0  0  0  0  0  0  0  0
   -7.2850   22.0900  -32.6340 C   0  0  0  0  0  0  0  0  0  0  0  0
   -7.0170   20.6520  -32.9230 N   0  0  0  0  0  0  0  0  0  0  0  0
   -8.1450   19.6170  -32.0790 S   0  0  0  0  0  0  0  0  0  0  0  0
   -7.3850   18.0750  -31.6080 C   0  0  0  0  0  0  0  0  0  0  0  0
   -9.3220   19.3250  -32.9660 O   0  0  0  0  0  0  0  0  0  0  0  0
   -8.6380   20.3250  -30.8460 O   0  0  0  0  0  0  0  0  0  0  0  0
   -5.6300   20.1760  -32.7070 C   0  0  0  0  0  0  0  0  0  0  0  0
   -4.5930   21.2730  -32.9740 C   0  0  0  0  0  0  0  0  0  0  0  0
   -3.1130   21.8460  -27.9670 C   0  0  0  0  0  0  0  0  0  0  0  0
   -2.7210   20.5280  -27.7210 C   0  0  0  0  0  0  0  0  0  0  0  0
    0.5923   17.6174  -27.1994 H   0  0  0  0  0  0  0  0  0  0  0  0
   -0.6824   17.5171  -28.4611 H   0  0  0  0  0  0  0  0  0  0  0  0
    0.4752   18.8907  -28.4611 H   0  0  0  0  0  0  0  0  0  0  0  0
    0.5013   21.1001  -26.7262 H   0  0  0  0  0  0  0  0  0  0  0  0
   -0.2004   23.4483  -27.1715 H   0  0  0  0  0  0  0  0  0  0  0  0
   -2.7948   22.7935  -31.5464 H   0  0  0  0  0  0  0  0  0  0  0  0
   -7.5613   24.0486  -30.7112 H   0  0  0  0  0  0  0  0  0  0  0  0
   -5.1360   25.6750  -28.5280 H   0  0  0  0  0  0  0  0  0  0  0  0
   -8.2366   22.1624  -32.0869 H   0  0  0  0  0  0  0  0  0  0  0  0
   -7.3156   22.6113  -33.6021 H   0  0  0  0  0  0  0  0  0  0  0  0
   -7.3498   18.0036  -30.5109 H   0  0  0  0  0  0  0  0  0  0  0  0
   -7.9737   17.2378  -32.0112 H   0  0  0  0  0  0  0  0  0  0  0  0
   -6.3625   18.0320  -32.0112 H   0  0  0  0  0  0  0  0  0  0  0  0
   -5.5293   19.8395  -31.6646 H   0  0  0  0  0  0  0  0  0  0  0  0
   -5.4413   19.3539  -33.4131 H   0  0  0  0  0  0  0  0  0  0  0  0
   -3.5802   20.8814  -32.7983 H   0  0  0  0  0  0  0  0  0  0  0  0
   -4.6558   21.6158  -34.0173 H   0  0  0  0  0  0  0  0  0  0  0  0
   -4.1326   22.0568  -28.3218 H   0  0  0  0  0  0  0  0  0  0  0  0
   -3.4330   19.7053  -27.8829 H   0  0  0  0  0  0  0  0  0  0  0  0
  1  2  1  0
  2  3  1  0
  3  4  2  0
  4  5  1  0
  5  6  2  0
  6  7  1  0
  7  8  2  0
  7  9  2  0
  7 10  1  0
 10 11  1  0
 11 12  2  0
 12 13  1  0
 13 14  2  0
 14 15  1  0
 15 16  2  0
 16 17  1  0
 14 18  1  0
 18 19  1  0
 19 20  1  0
 20 21  1  0
 20 22  2  0
 20 23  2  0
 19 24  1  0
 24 25  1  0
  6 26  1  0
 26 27  2  0
 27  3  1  0
 16 11  1  0
 25 13  1  0
  1 28  1  0
  1 29  1  0
  1 30  1  0
  4 31  1  0
  5 32  1  0
 12 33  1  0
 15 34  1  0
 17 35  1  0
 18 36  1  0
 18 37  1  0
 21 38  1  0
 21 39  1  0
 21 40  1  0
 24 41  1  0
 24 42  1  0
 25 43  1  0
 25 44  1  0
 26 45  1  0
 27 46  1  0
M  CHG  1  10  -1
M  END
>  <UniqueID>  (17) 
17

>  <SMILES>  (17) 
COc1ccc(S(=O)(=O)[N-]c2cc3c(cc2O)CN(S(C)(=O)=O)CC3)cc1

>  <Energy>  (17) 
54.344581820812586

>  <Genealogy>  (17) 
COc1ccc(S(=O)(=O)[N-]c2cc3c(cc2O)CN(S(C)(=O)=O)CC3)cc1 (protonated)
COc1ccc(S(=O)(=O)[N-]c2cc3c(cc2O)CN(S(C)(=O)=O)CC3)cc1 (3D coordinates assigned)
COc1ccc(S(=O)(=O)[N-]c2cc3c(cc2O)CN(S(C)(=O)=O)CC3)cc1 (nonaromatic ring conformer: 54.344581820812586 kcal/mol)

>  <smiles>  (17) 
COc1ccc(S(=O)(=O)Nc2cc3c(cc2O)CN(S(C)(=O)=O)CC3)cc1

>  <score_type>  (17) 
oracle

>  <origin>  (17) 
adgpu

>  <m_score__min__energy>  (17) 
-10.34

>  <m_primary>  (17) 
energy

$$$$
17:0
     RDKit          3D

 56 59  0  0  0  0  0  0  0  0999 V2000
   -9.0200   21.1860  -30.7960 C   0  0  0  0  0  0  0  0  0  0  0  0
   -8.2890   20.2620  -31.7380 C   0  0  0  0  0  0  0  0  0  0  0  0
   -8.5900   18.8900  -31.6470 C   0  0  0  0  0  0  0  0  0  0  0  0
   -7.9700   17.9620  -32.4780 C   0  0  0  0  0  0  0  0  0  0  0  0
   -7.0430   18.4020  -33.4230 C   0  0  0  0  0  0  0  0  0  0  0  0
   -6.3580   17.4660  -34.2720 N   0  0  0  0  0  0  0  0  0  0  0  0
   -6.2500   16.1770  -33.5740 C   0  0  0  0  0  0  0  0  0  0  0  0
   -5.2280   16.1720  -32.4470 C   0  0  0  0  0  0  0  0  0  0  0  0
   -4.9250   15.4510  -33.7530 C   0  0  0  0  0  0  0  0  0  0  0  0
   -6.7470   19.7260  -33.4990 N   0  0  0  0  0  0  0  0  0  0  0  0
   -7.3220   20.6750  -32.7090 C   0  0  0  0  0  0  0  0  0  0  0  0
   -6.9270   21.9050  -32.9090 N   0  0  0  0  0  0  0  0  0  0  0  0
   -7.2960   23.1640  -32.2700 C   0  0  0  0  0  0  0  0  0  0  0  0
   -6.0820   23.7330  -31.5920 C   0  0  0  0  0  0  0  0  0  0  0  0
   -6.0810   25.0630  -31.1430 C   0  0  0  0  0  0  0  0  0  0  0  0
   -4.9740   25.5730  -30.4610 C   0  0  0  0  0  0  0  0  0  0  0  0
   -3.8650   24.7610  -30.2090 C   0  0  0  0  0  0  0  0  0  0  0  0
   -2.7820   25.2840  -29.5110 O   0  0  0  0  0  0  0  0  0  0  0  0
   -3.8550   23.4270  -30.6510 C   0  0  0  0  0  0  0  0  0  0  0  0
   -2.4770   22.3780  -30.3010 S   0  0  0  0  0  0  0  0  0  0  0  0
   -1.2010   23.1740  -30.3440 O   0  0  0  0  0  0  0  0  0  0  0  0
   -2.6370   21.8090  -28.9190 O   0  0  0  0  0  0  0  0  0  0  0  0
   -2.4130   21.0820  -31.4690 N   0  0  0  0  0  0  0  0  0  0  0  0
   -3.6260   20.2440  -31.3520 C   0  0  0  0  0  0  0  0  0  0  0  0
   -3.8070   19.2940  -32.5570 C   0  0  0  0  0  0  0  0  0  0  0  0
   -2.5150   19.1500  -33.3630 C   0  0  0  0  0  0  0  0  0  0  0  0
   -2.0140   20.5210  -33.8470 C   0  0  0  0  0  0  0  0  0  0  0  0
   -2.2880   21.6410  -32.8250 C   0  0  0  0  0  0  0  0  0  0  0  0
   -4.9710   22.9160  -31.3300 C   0  0  0  0  0  0  0  0  0  0  0  0
   -8.7959   20.9027  -29.7570 H   0  0  0  0  0  0  0  0  0  0  0  0
   -8.6942   22.2218  -30.9720 H   0  0  0  0  0  0  0  0  0  0  0  0
  -10.1030   21.1073  -30.9720 H   0  0  0  0  0  0  0  0  0  0  0  0
   -9.3274   18.5458  -30.9069 H   0  0  0  0  0  0  0  0  0  0  0  0
   -8.2085   16.8917  -32.3906 H   0  0  0  0  0  0  0  0  0  0  0  0
   -5.3920   17.8210  -34.4580 H   0  0  0  0  0  0  0  0  0  0  0  0
   -6.8520   17.3900  -35.1930 H   0  0  0  0  0  0  0  0  0  0  0  0
   -7.3070   15.8917  -33.6806 H   0  0  0  0  0  0  0  0  0  0  0  0
   -4.6878   17.0952  -32.1902 H   0  0  0  0  0  0  0  0  0  0  0  0
   -5.2423   15.8851  -31.3852 H   0  0  0  0  0  0  0  0  0  0  0  0
   -4.1659   15.8531  -34.4400 H   0  0  0  0  0  0  0  0  0  0  0  0
   -4.6296   14.4272  -34.0260 H   0  0  0  0  0  0  0  0  0  0  0  0
   -7.6619   23.8712  -33.0290 H   0  0  0  0  0  0  0  0  0  0  0  0
   -8.0918   22.9904  -31.5307 H   0  0  0  0  0  0  0  0  0  0  0  0
   -6.9545   25.7053  -31.3288 H   0  0  0  0  0  0  0  0  0  0  0  0
   -4.9751   26.6190  -30.1206 H   0  0  0  0  0  0  0  0  0  0  0  0
   -3.5510   19.6407  -30.4353 H   0  0  0  0  0  0  0  0  0  0  0  0
   -4.4957   20.9169  -31.3231 H   0  0  0  0  0  0  0  0  0  0  0  0
   -4.1089   18.3029  -32.1874 H   0  0  0  0  0  0  0  0  0  0  0  0
   -4.5771   19.7200  -33.2169 H   0  0  0  0  0  0  0  0  0  0  0  0
   -1.7442   18.6885  -32.7283 H   0  0  0  0  0  0  0  0  0  0  0  0
   -2.7174   18.5198  -34.2416 H   0  0  0  0  0  0  0  0  0  0  0  0
   -0.9296   20.4594  -34.0213 H   0  0  0  0  0  0  0  0  0  0  0  0
   -2.5573   20.7696  -34.7706 H   0  0  0  0  0  0  0  0  0  0  0  0
   -1.4562   22.3605  -32.8447 H   0  0  0  0  0  0  0  0  0  0  0  0
   -3.2299   22.1430  -33.0912 H   0  0  0  0  0  0  0  0  0  0  0  0
   -4.9756   21.8666  -31.6598 H   0  0  0  0  0  0  0  0  0  0  0  0
  1  2  1  0
  2  3  2  0
  3  4  1  0
  4  5  2  0
  5  6  1  0
  6  7  1  0
  7  8  1  0
  8  9  1  0
  5 10  1  0
 10 11  1  0
 11 12  2  3
 12 13  1  0
 13 14  1  0
 14 15  2  0
 15 16  1  0
 16 17  2  0
 17 18  1  0
 17 19  1  0
 19 20  1  0
 20 21  2  0
 20 22  2  0
 20 23  1  0
 23 24  1  0
 24 25  1  0
 25 26  1  0
 26 27  1  0
 27 28  1  0
 19 29  2  0
 11  2  1  0
 29 14  1  0
  9  7  1  0
 28 23  1  0
  1 30  1  0
  1 31  1  0
  1 32  1  0
  3 33  1  0
  4 34  1  0
  6 35  1  0
  6 36  1  0
  7 37  1  0
  8 38  1  0
  8 39  1  0
  9 40  1  0
  9 41  1  0
 13 42  1  0
 13 43  1  0
 15 44  1  0
 16 45  1  0
 24 46  1  0
 24 47  1  0
 25 48  1  0
 25 49  1  0
 26 50  1  0
 26 51  1  0
 27 52  1  0
 27 53  1  0
 28 54  1  0
 28 55  1  0
 29 56  1  0
M  CHG  3   6   1  10  -1  18  -1
M  END
>  <UniqueID>  (18) 
18

>  <SMILES>  (18) 
Cc1ccc([NH2+]C2CC2)[n-]c1=NCc1ccc([O-])c(S(=O)(=O)N2CCCCC2)c1

>  <Energy>  (18) 
336.0562406284309

>  <Genealogy>  (18) 
Cc1ccc([NH2+]C2CC2)[n-]c1=NCc1ccc([O-])c(S(=O)(=O)N2CCCCC2)c1 (protonated)
Cc1ccc([NH2+]C2CC2)[n-]c1=NCc1ccc([O-])c(S(=O)(=O)N2CCCCC2)c1 (3D coordinates assigned)
Cc1ccc([NH2+]C2CC2)[n-]c1=NCc1ccc([O-])c(S(=O)(=O)N2CCCCC2)c1 (nonaromatic ring conformer: 336.0562406284309 kcal/mol)

>  <smiles>  (18) 
Cc1ccc(NC2CC2)[nH]c1=NCc1ccc(O)c(S(=O)(=O)N2CCCCC2)c1

>  <score_type>  (18) 
oracle

>  <origin>  (18) 
adgpu

>  <m_score__min__energy>  (18) 
-11.91

>  <m_primary>  (18) 
energy

$$$$
18:0
     RDKit          3D

 48 51  0  0  0  0  0  0  0  0999 V2000
   -0.8680   18.2170  -31.5360 O   0  0  0  0  0  0  0  0  0  0  0  0
    0.0520   18.9060  -32.0510 C   0  0  0  0  0  0  0  0  0  0  0  0
    1.0600   18.2320  -32.8910 C   0  0  0  0  0  0  0  0  0  0  0  0
    1.6130   18.7540  -33.9980 C   0  0  0  0  0  0  0  0  0  0  0  0
    1.1780   20.0050  -34.6560 C   0  0  0  0  0  0  0  0  0  0  0  0
    0.2670   19.9970  -35.7270 C   0  0  0  0  0  0  0  0  0  0  0  0
   -0.1120   21.1970  -36.3300 C   0  0  0  0  0  0  0  0  0  0  0  0
    0.4440   22.3940  -35.8770 C   0  0  0  0  0  0  0  0  0  0  0  0
    1.3510   22.3840  -34.8640 N   0  0  0  0  0  0  0  0  0  0  0  0
    1.7320   21.2280  -34.2580 C   0  0  0  0  0  0  0  0  0  0  0  0
    0.1700   20.3000  -31.7300 N   0  0  0  0  0  0  0  0  0  0  0  0
   -0.9450   21.1550  -31.4230 C   0  0  0  0  0  0  0  0  0  0  0  0
   -1.1280   21.6950  -30.1360 C   0  0  0  0  0  0  0  0  0  0  0  0
   -2.2480   22.4810  -29.8530 C   0  0  0  0  0  0  0  0  0  0  0  0
   -3.2030   22.7340  -30.8450 C   0  0  0  0  0  0  0  0  0  0  0  0
   -4.6360   23.6820  -30.4680 S   0  0  0  0  0  0  0  0  0  0  0  0
   -4.7050   23.9390  -28.9880 O   0  0  0  0  0  0  0  0  0  0  0  0
   -4.5740   25.0100  -31.1700 O   0  0  0  0  0  0  0  0  0  0  0  0
   -6.0580   22.7880  -30.9920 C   0  0  0  0  0  0  0  0  0  0  0  0
   -7.2690   23.4580  -31.2140 C   0  0  0  0  0  0  0  0  0  0  0  0
   -8.3920   22.7560  -31.6570 C   0  0  0  0  0  0  0  0  0  0  0  0
   -8.3150   21.3760  -31.8900 C   0  0  0  0  0  0  0  0  0  0  0  0
   -9.4370   20.6610  -32.3390 C   0  0  0  0  0  0  0  0  0  0  0  0
   -9.3450   19.2860  -32.5730 C   0  0  0  0  0  0  0  0  0  0  0  0
   -8.1370   18.6150  -32.3620 C   0  0  0  0  0  0  0  0  0  0  0  0
   -7.0130   19.3150  -31.9160 C   0  0  0  0  0  0  0  0  0  0  0  0
   -7.0910   20.6960  -31.6760 C   0  0  0  0  0  0  0  0  0  0  0  0
   -5.9690   21.4100  -31.2290 C   0  0  0  0  0  0  0  0  0  0  0  0
   -3.0380   22.1800  -32.1210 C   0  0  0  0  0  0  0  0  0  0  0  0
   -1.9180   21.3940  -32.4060 C   0  0  0  0  0  0  0  0  0  0  0  0
    1.3833   17.2253  -32.5876 H   0  0  0  0  0  0  0  0  0  0  0  0
    2.4546   18.2089  -34.4503 H   0  0  0  0  0  0  0  0  0  0  0  0
   -0.1470   19.0446  -36.0896 H   0  0  0  0  0  0  0  0  0  0  0  0
   -0.8412   21.1993  -37.1536 H   0  0  0  0  0  0  0  0  0  0  0  0
    0.1482   23.3469  -36.3400 H   0  0  0  0  0  0  0  0  0  0  0  0
    2.4791   21.2536  -33.4511 H   0  0  0  0  0  0  0  0  0  0  0  0
    1.1300   20.7150  -31.7070 H   0  0  0  0  0  0  0  0  0  0  0  0
   -0.3854   21.4972  -29.3490 H   0  0  0  0  0  0  0  0  0  0  0  0
   -2.3800   22.9031  -28.8458 H   0  0  0  0  0  0  0  0  0  0  0  0
   -7.3351   24.5419  -31.0384 H   0  0  0  0  0  0  0  0  0  0  0  0
   -9.3403   23.2879  -31.8237 H   0  0  0  0  0  0  0  0  0  0  0  0
  -10.3901   21.1839  -32.5069 H   0  0  0  0  0  0  0  0  0  0  0  0
  -10.2265   18.7298  -32.9245 H   0  0  0  0  0  0  0  0  0  0  0  0
   -8.0711   17.5328  -32.5476 H   0  0  0  0  0  0  0  0  0  0  0  0
   -6.0644   18.7826  -31.7525 H   0  0  0  0  0  0  0  0  0  0  0  0
   -5.0160   20.8860  -31.0640 H   0  0  0  0  0  0  0  0  0  0  0  0
   -3.7918   22.3641  -32.9007 H   0  0  0  0  0  0  0  0  0  0  0  0
   -1.7980   20.9590  -33.4092 H   0  0  0  0  0  0  0  0  0  0  0  0
  1  2  2  0
  2  3  1  0
  3  4  2  3
  4  5  1  0
  5  6  2  0
  6  7  1  0
  7  8  2  0
  8  9  1  0
  9 10  2  0
  2 11  1  0
 11 12  1  0
 12 13  2  0
 13 14  1  0
 14 15  2  0
 15 16  1  0
 16 17  2  0
 16 18  2  0
 16 19  1  0
 19 20  2  0
 20 21  1  0
 21 22  2  0
 22 23  1  0
 23 24  2  0
 24 25  1  0
 25 26  2  0
 26 27  1  0
 27 28  2  0
 15 29  1  0
 29 30  2  0
 10  5  1  0
 30 12  1  0
 28 19  1  0
 27 22  1  0
  3 31  1  0
  4 32  1  0
  6 33  1  0
  7 34  1  0
  8 35  1  0
 10 36  1  0
 11 37  1  0
 13 38  1  0
 14 39  1  0
 20 40  1  0
 21 41  1  0
 23 42  1  0
 24 43  1  0
 25 44  1  0
 26 45  1  0
 28 46  1  0
 29 47  1  0
 30 48  1  0
M  END
>  <UniqueID>  (19) 
19

>  <SMILES>  (19) 
O=C(C=Cc1cccnc1)Nc1ccc(S(=O)(=O)c2ccc3ccccc3c2)cc1

>  <Energy>  (19) 
68.3849788671821

>  <Genealogy>  (19) 
O=C(C=Cc1cccnc1)Nc1ccc(S(=O)(=O)c2ccc3ccccc3c2)cc1 (3D coordinates assigned)
O=C(C=Cc1cccnc1)Nc1ccc(S(=O)(=O)c2ccc3ccccc3c2)cc1 (optimized conformer: 68.3849788671821 kcal/mol)

>  <smiles>  (19) 
O=C(C=Cc1cccnc1)Nc1ccc(S(=O)(=O)c2ccc3ccccc3c2)cc1

>  <score_type>  (19) 
oracle

>  <origin>  (19) 
adgpu

>  <m_score__min__energy>  (19) 
-11.109999999999999

>  <m_primary>  (19) 
energy

$$$$
19:0
     RDKit          3D

 49 52  0  0  0  0  0  0  0  0999 V2000
   -5.1640   16.3480  -34.4290 C   0  0  0  0  0  0  0  0  0  0  0  0
   -5.9260   17.3720  -33.6580 C   0  0  0  0  0  0  0  0  0  0  0  0
   -7.2250   17.2420  -33.2130 C   0  0  0  0  0  0  0  0  0  0  0  0
   -7.5230   18.4280  -32.5780 C   0  0  0  0  0  0  0  0  0  0  0  0
   -6.3840   19.2130  -32.6780 C   0  0  0  0  0  0  0  0  0  0  0  0
   -6.1930   20.5830  -32.1500 C   0  0  0  0  0  0  0  0  0  0  0  0
   -5.1100   21.3560  -32.6020 C   0  0  0  0  0  0  0  0  0  0  0  0
   -4.9000   22.6460  -32.1030 C   0  0  0  0  0  0  0  0  0  0  0  0
   -5.7720   23.1820  -31.1470 C   0  0  0  0  0  0  0  0  0  0  0  0
   -5.4720   24.7720  -30.4490 S   0  0  0  0  0  0  0  0  0  0  0  0
   -6.0260   24.7970  -29.0510 O   0  0  0  0  0  0  0  0  0  0  0  0
   -6.1400   25.8450  -31.2620 O   0  0  0  0  0  0  0  0  0  0  0  0
   -3.7640   25.0760  -30.4000 N   0  0  0  0  0  0  0  0  0  0  0  0
   -2.8450   24.2360  -29.6800 C   0  0  0  0  0  0  0  0  0  0  0  0
   -2.9980   22.8380  -29.6720 C   0  0  0  0  0  0  0  0  0  0  0  0
   -2.1350   22.0250  -28.9240 C   0  0  0  0  0  0  0  0  0  0  0  0
   -1.1050   22.6150  -28.1670 C   0  0  0  0  0  0  0  0  0  0  0  0
   -0.9190   24.0040  -28.2160 C   0  0  0  0  0  0  0  0  0  0  0  0
   -1.7840   24.8110  -28.9600 C   0  0  0  0  0  0  0  0  0  0  0  0
   -1.5900   26.1870  -28.9670 O   0  0  0  0  0  0  0  0  0  0  0  0
   -0.1330   21.7650  -27.3800 C   0  0  0  0  0  0  0  0  0  0  0  0
   -0.6740   20.4310  -27.0510 N   0  0  0  0  0  0  0  0  0  0  0  0
   -1.6360   20.4870  -25.9360 C   0  0  0  0  0  0  0  0  0  0  0  0
   -1.2260   19.7650  -28.2460 C   0  0  0  0  0  0  0  0  0  0  0  0
   -2.3960   20.5430  -28.8650 C   0  0  0  0  0  0  0  0  0  0  0  0
   -6.8610   22.4240  -30.7040 C   0  0  0  0  0  0  0  0  0  0  0  0
   -7.0710   21.1330  -31.1980 C   0  0  0  0  0  0  0  0  0  0  0  0
   -5.4520   18.5520  -33.3310 O   0  0  0  0  0  0  0  0  0  0  0  0
   -4.6565   15.6660  -33.7309 H   0  0  0  0  0  0  0  0  0  0  0  0
   -5.8572   15.7751  -35.0624 H   0  0  0  0  0  0  0  0  0  0  0  0
   -4.4162   16.8475  -35.0624 H   0  0  0  0  0  0  0  0  0  0  0  0
   -7.8861   16.3719  -33.3389 H   0  0  0  0  0  0  0  0  0  0  0  0
   -8.4716   18.6975  -32.0907 H   0  0  0  0  0  0  0  0  0  0  0  0
   -4.4217   20.9434  -33.3543 H   0  0  0  0  0  0  0  0  0  0  0  0
   -4.0476   23.2410  -32.4625 H   0  0  0  0  0  0  0  0  0  0  0  0
   -3.4380   25.9950  -30.7740 H   0  0  0  0  0  0  0  0  0  0  0  0
   -3.8050   22.3767  -30.2601 H   0  0  0  0  0  0  0  0  0  0  0  0
   -0.0851   24.4623  -27.6641 H   0  0  0  0  0  0  0  0  0  0  0  0
    0.7826   21.6355  -27.9758 H   0  0  0  0  0  0  0  0  0  0  0  0
    0.0669   22.2840  -26.4310 H   0  0  0  0  0  0  0  0  0  0  0  0
   -1.0920   20.4553  -24.9804 H   0  0  0  0  0  0  0  0  0  0  0  0
   -2.2148   21.4204  -25.9976 H   0  0  0  0  0  0  0  0  0  0  0  0
   -2.3192   19.6271  -25.9976 H   0  0  0  0  0  0  0  0  0  0  0  0
   -0.4282   19.6707  -28.9974 H   0  0  0  0  0  0  0  0  0  0  0  0
   -1.6065   18.7811  -27.9345 H   0  0  0  0  0  0  0  0  0  0  0  0
   -2.5641   20.1733  -29.8873 H   0  0  0  0  0  0  0  0  0  0  0  0
   -3.2782   20.3837  -28.2276 H   0  0  0  0  0  0  0  0  0  0  0  0
   -7.5559   22.8459  -29.9630 H   0  0  0  0  0  0  0  0  0  0  0  0
   -7.9280   20.5436  -30.8401 H   0  0  0  0  0  0  0  0  0  0  0  0
  1  2  1  0
  2  3  2  0
  3  4  1  0
  4  5  2  0
  5  6  1  0
  6  7  2  0
  7  8  1  0
  8  9  2  0
  9 10  1  0
 10 11  2  0
 10 12  2  0
 10 13  1  0
 13 14  1  0
 14 15  2  0
 15 16  1  0
 16 17  2  0
 17 18  1  0
 18 19  2  0
 19 20  1  0
 17 21  1  0
 21 22  1  0
 22 23  1  0
 22 24  1  0
 24 25  1  0
  9 26  1  0
 26 27  2  0
  5 28  1  0
 28  2  1  0
 27  6  1  0
 19 14  1  0
 25 16  1  0
  1 29  1  0
  1 30  1  0
  1 31  1  0
  3 32  1  0
  4 33  1  0
  7 34  1  0
  8 35  1  0
 13 36  1  0
 15 37  1  0
 18 38  1  0
 21 39  1  0
 21 40  1  0
 23 41  1  0
 23 42  1  0
 23 43  1  0
 24 44  1  0
 24 45  1  0
 25 46  1  0
 25 47  1  0
 26 48  1  0
 27 49  1  0
M  CHG  1  20  -1
M  END
>  <UniqueID>  (20) 
20

>  <SMILES>  (20) 
Cc1ccc(-c2ccc(S(=O)(=O)Nc3cc4c(cc3[O-])CN(C)CC4)cc2)o1

>  <Energy>  (20) 
86.02332226898648

>  <Genealogy>  (20) 
Cc1ccc(-c2ccc(S(=O)(=O)Nc3cc4c(cc3[O-])CN(C)CC4)cc2)o1 (protonated)
Cc1ccc(-c2ccc(S(=O)(=O)Nc3cc4c(cc3[O-])CN(C)CC4)cc2)o1 (3D coordinates assigned)
Cc1ccc(-c2ccc(S(=O)(=O)Nc3cc4c(cc3[O-])CN(C)CC4)cc2)o1 (nonaromatic ring conformer: 86.02332226898648 kcal/mol)

>  <smiles>  (20) 
Cc1ccc(-c2ccc(S(=O)(=O)Nc3cc4c(cc3O)CN(C)CC4)cc2)o1

>  <score_type>  (20) 
oracle

>  <origin>  (20) 
adgpu

>  <m_score__min__energy>  (20) 
-12.76

>  <m_primary>  (20) 
energy

$$$$
20:0
     RDKit          3D

 70 74  0  0  0  0  0  0  0  0999 V2000
   -3.6780   13.7350  -34.8150 C   0  0  0  0  0  0  0  0  0  0  0  0
   -2.4400   14.1310  -35.5640 C   0  0  0  0  0  0  0  0  0  0  0  0
   -1.1860   14.0650  -34.9380 C   0  0  0  0  0  0  0  0  0  0  0  0
   -0.0330   14.4570  -35.6250 C   0  0  0  0  0  0  0  0  0  0  0  0
   -0.1240   14.9330  -36.9400 C   0  0  0  0  0  0  0  0  0  0  0  0
    1.3310   15.3660  -37.8330 S   0  0  0  0  0  0  0  0  0  0  0  0
    2.2350   14.1660  -37.8920 O   0  0  0  0  0  0  0  0  0  0  0  0
    0.9790   15.7620  -39.2400 O   0  0  0  0  0  0  0  0  0  0  0  0
    2.1780   16.6730  -37.0720 N   0  0  0  0  0  0  0  0  0  0  0  0
    1.5190   17.6900  -36.3120 C   0  0  0  0  0  0  0  0  0  0  0  0
    0.9260   17.3950  -35.0760 C   0  0  0  0  0  0  0  0  0  0  0  0
    0.2790   18.3960  -34.3380 C   0  0  0  0  0  0  0  0  0  0  0  0
    0.2090   19.7040  -34.8540 C   0  0  0  0  0  0  0  0  0  0  0  0
    0.8300   20.0050  -36.0780 C   0  0  0  0  0  0  0  0  0  0  0  0
    1.4900   19.0040  -36.7970 C   0  0  0  0  0  0  0  0  0  0  0  0
    2.1010   19.3170  -38.0060 O   0  0  0  0  0  0  0  0  0  0  0  0
   -0.5100   20.7380  -34.0830 C   0  0  0  0  0  0  0  0  0  0  0  0
   -0.7410   21.8710  -34.5880 O   0  0  0  0  0  0  0  0  0  0  0  0
   -0.9570   20.4340  -32.7500 N   0  0  0  0  0  0  0  0  0  0  0  0
   -1.8850   21.2990  -32.0750 C   0  0  0  0  0  0  0  0  0  0  0  0
   -1.4120   22.1410  -31.0600 C   0  0  0  0  0  0  0  0  0  0  0  0
   -2.2730   23.0400  -30.4280 C   0  0  0  0  0  0  0  0  0  0  0  0
   -3.6190   23.1100  -30.8040 C   0  0  0  0  0  0  0  0  0  0  0  0
   -4.6880   24.3050  -30.0650 S   0  0  0  0  0  0  0  0  0  0  0  0
   -4.2600   25.6830  -30.4880 O   0  0  0  0  0  0  0  0  0  0  0  0
   -4.5690   24.2190  -28.5690 O   0  0  0  0  0  0  0  0  0  0  0  0
   -6.3570   24.0440  -30.5250 N   0  0  0  0  0  0  0  0  0  0  0  0
   -6.4980   24.0620  -31.9960 C   0  0  0  0  0  0  0  0  0  0  0  0
   -7.7780   23.3440  -32.4330 C   0  0  0  0  0  0  0  0  0  0  0  0
   -7.7310   21.9080  -32.0760 N   0  0  0  0  0  0  0  0  0  0  0  0
   -9.0890   21.3470  -32.0110 C   0  0  0  0  0  0  0  0  0  0  0  0
   -6.9670   21.6240  -30.8340 C   0  0  0  0  0  0  0  0  0  0  0  0
   -6.9190   22.8340  -29.8810 C   0  0  0  0  0  0  0  0  0  0  0  0
   -4.1060   22.2460  -31.7940 C   0  0  0  0  0  0  0  0  0  0  0  0
   -3.2510   21.3280  -32.4280 C   0  0  0  0  0  0  0  0  0  0  0  0
   -3.8010   20.4230  -33.4960 C   0  0  0  0  0  0  0  0  0  0  0  0
   -0.4480   19.2310  -32.0820 C   0  0  0  0  0  0  0  0  0  0  0  0
   -0.4260   18.0430  -33.0490 C   0  0  0  0  0  0  0  0  0  0  0  0
   -1.3770   15.0210  -37.5600 C   0  0  0  0  0  0  0  0  0  0  0  0
   -2.5310   14.6280  -36.8730 C   0  0  0  0  0  0  0  0  0  0  0  0
   -3.4874   13.7960  -33.7334 H   0  0  0  0  0  0  0  0  0  0  0  0
   -4.5008   14.4148  -35.0812 H   0  0  0  0  0  0  0  0  0  0  0  0
   -3.9536   12.7039  -35.0812 H   0  0  0  0  0  0  0  0  0  0  0  0
   -1.1096   13.7032  -33.9020 H   0  0  0  0  0  0  0  0  0  0  0  0
    0.9482   14.3916  -35.1320 H   0  0  0  0  0  0  0  0  0  0  0  0
    0.9689   16.3689  -34.6820 H   0  0  0  0  0  0  0  0  0  0  0  0
    0.7967   21.0316  -36.4718 H   0  0  0  0  0  0  0  0  0  0  0  0
   -0.3550   22.0934  -30.7590 H   0  0  0  0  0  0  0  0  0  0  0  0
   -1.8918   23.6958  -29.6314 H   0  0  0  0  0  0  0  0  0  0  0  0
   -6.5352   25.1058  -32.3411 H   0  0  0  0  0  0  0  0  0  0  0  0
   -5.6356   23.5409  -32.4373 H   0  0  0  0  0  0  0  0  0  0  0  0
   -8.6401   23.8104  -31.9337 H   0  0  0  0  0  0  0  0  0  0  0  0
   -7.8715   23.4299  -33.5256 H   0  0  0  0  0  0  0  0  0  0  0  0
   -9.3852   21.2246  -30.9587 H   0  0  0  0  0  0  0  0  0  0  0  0
   -9.7917   22.0285  -32.5128 H   0  0  0  0  0  0  0  0  0  0  0  0
   -9.1058   20.3683  -32.5128 H   0  0  0  0  0  0  0  0  0  0  0  0
   -7.4440   20.7819  -30.3112 H   0  0  0  0  0  0  0  0  0  0  0  0
   -5.9331   21.3862  -31.1246 H   0  0  0  0  0  0  0  0  0  0  0  0
   -7.9418   23.0574  -29.5433 H   0  0  0  0  0  0  0  0  0  0  0  0
   -6.2626   22.5692  -29.0389 H   0  0  0  0  0  0  0  0  0  0  0  0
   -5.1680   22.2866  -32.0778 H   0  0  0  0  0  0  0  0  0  0  0  0
   -4.3175   19.5731  -33.0261 H   0  0  0  0  0  0  0  0  0  0  0  0
   -4.5114   20.9835  -34.1215 H   0  0  0  0  0  0  0  0  0  0  0  0
   -2.9763   20.0506  -34.1215 H   0  0  0  0  0  0  0  0  0  0  0  0
    0.5737   19.4227  -31.7222 H   0  0  0  0  0  0  0  0  0  0  0  0
   -1.1105   18.9879  -31.2382 H   0  0  0  0  0  0  0  0  0  0  0  0
    0.0995   17.2026  -32.5719 H   0  0  0  0  0  0  0  0  0  0  0  0
   -1.4648   17.7692  -33.2856 H   0  0  0  0  0  0  0  0  0  0  0  0
   -1.4540   15.4001  -38.5897 H   0  0  0  0  0  0  0  0  0  0  0  0
   -3.5134   14.7090  -37.3611 H   0  0  0  0  0  0  0  0  0  0  0  0
  1  2  1  0
  2  3  2  0
  3  4  1  0
  4  5  2  0
  5  6  1  0
  6  7  2  0
  6  8  2  0
  6  9  1  0
  9 10  1  0
 10 11  2  0
 11 12  1  0
 12 13  2  0
 13 14  1  0
 14 15  2  0
 15 16  1  0
 13 17  1  0
 17 18  2  0
 17 19  1  0
 19 20  1  0
 20 21  2  0
 21 22  1  0
 22 23  2  0
 23 24  1  0
 24 25  2  0
 24 26  2  0
 24 27  1  0
 27 28  1  0
 28 29  1  0
 29 30  1  0
 30 31  1  0
 30 32  1  0
 32 33  1  0
 23 34  1  0
 34 35  2  0
 35 36  1  0
 19 37  1  0
 37 38  1  0
  5 39  1  0
 39 40  2  0
 40  2  1  0
 15 10  1  0
 35 20  1  0
 38 12  1  0
 33 27  1  0
  1 41  1  0
  1 42  1  0
  1 43  1  0
  3 44  1  0
  4 45  1  0
 11 46  1  0
 14 47  1  0
 21 48  1  0
 22 49  1  0
 28 50  1  0
 28 51  1  0
 29 52  1  0
 29 53  1  0
 31 54  1  0
 31 55  1  0
 31 56  1  0
 32 57  1  0
 32 58  1  0
 33 59  1  0
 33 60  1  0
 34 61  1  0
 36 62  1  0
 36 63  1  0
 36 64  1  0
 37 65  1  0
 37 66  1  0
 38 67  1  0
 38 68  1  0
 39 69  1  0
 40 70  1  0
M  CHG  2   9  -1  16  -1
M  END
>  <UniqueID>  (21) 
21

>  <SMILES>  (21) 
Cc1ccc(S(=O)(=O)[N-]c2cc3c(cc2[O-])C(=O)N(c2ccc(S(=O)(=O)N4CCN(C)CC4)cc2C)CC3)cc1

>  <Energy>  (21) 
99.1651783242593

>  <Genealogy>  (21) 
Cc1ccc(S(=O)(=O)[N-]c2cc3c(cc2[O-])C(=O)N(c2ccc(S(=O)(=O)N4CCN(C)CC4)cc2C)CC3)cc1 (protonated)
Cc1ccc(S(=O)(=O)[N-]c2cc3c(cc2[O-])C(=O)N(c2ccc(S(=O)(=O)N4CCN(C)CC4)cc2C)CC3)cc1 (3D coordinates assigned)
Cc1ccc(S(=O)(=O)[N-]c2cc3c(cc2[O-])C(=O)N(c2ccc(S(=O)(=O)N4CCN(C)CC4)cc2C)CC3)cc1 (nonaromatic ring conformer: 99.1651783242593 kcal/mol)

>  <smiles>  (21) 
Cc1ccc(S(=O)(=O)Nc2cc3c(cc2O)C(=O)N(c2ccc(S(=O)(=O)N4CCN(C)CC4)cc2C)CC3)cc1

>  <score_type>  (21) 
oracle

>  <origin>  (21) 
adgpu

>  <m_score__min__energy>  (21) 
-13.48

>  <m_primary>  (21) 
energy

$$$$
21:0
     RDKit          3D

 45 46  0  0  0  0  0  0  0  0999 V2000
    2.5710   20.8380  -35.7220 C   0  0  0  0  0  0  0  0  0  0  0  0
    1.3070   21.4650  -35.2180 C   0  0  0  0  0  0  0  0  0  0  0  0
    1.1570   22.7100  -35.3570 O   0  0  0  0  0  0  0  0  0  0  0  0
    0.2640   20.6840  -34.5950 N   0  0  0  0  0  0  0  0  0  0  0  0
    0.3260   19.2120  -34.5700 C   0  0  0  0  0  0  0  0  0  0  0  0
   -1.0740   18.5520  -34.5750 C   0  0  0  0  0  0  0  0  0  0  0  0
   -2.1700   19.4920  -34.2690 N   0  0  0  0  0  0  0  0  0  0  0  0
   -3.5920   18.6090  -33.7750 S   0  0  0  0  0  0  0  0  0  0  0  0
   -3.2110   17.5530  -32.7730 O   0  0  0  0  0  0  0  0  0  0  0  0
   -4.2190   17.9350  -34.9660 O   0  0  0  0  0  0  0  0  0  0  0  0
   -4.7490   19.7060  -33.0280 C   0  0  0  0  0  0  0  0  0  0  0  0
   -4.4730   20.3000  -31.7880 C   0  0  0  0  0  0  0  0  0  0  0  0
   -5.4050   21.1600  -31.1980 C   0  0  0  0  0  0  0  0  0  0  0  0
   -6.6230   21.4260  -31.8370 C   0  0  0  0  0  0  0  0  0  0  0  0
   -7.7860   22.5240  -31.1000 S   0  0  0  0  0  0  0  0  0  0  0  0
   -9.0570   22.5200  -31.9040 O   0  0  0  0  0  0  0  0  0  0  0  0
   -8.0970   22.0610  -29.7040 O   0  0  0  0  0  0  0  0  0  0  0  0
   -7.0900   24.1730  -31.0670 C   0  0  0  0  0  0  0  0  0  0  0  0
   -5.9450   24.3040  -30.0600 C   0  0  0  0  0  0  0  0  0  0  0  0
   -4.6260   24.5100  -30.7390 C   0  0  0  0  0  0  0  0  0  0  0  0
   -4.1830   23.6440  -31.5370 O   0  0  0  0  0  0  0  0  0  0  0  0
   -3.8760   25.6460  -30.4730 O   0  0  0  0  0  0  0  0  0  0  0  0
   -6.9000   20.8340  -33.0780 C   0  0  0  0  0  0  0  0  0  0  0  0
   -5.9680   19.9730  -33.6680 C   0  0  0  0  0  0  0  0  0  0  0  0
   -1.7780   20.4310  -33.2130 C   0  0  0  0  0  0  0  0  0  0  0  0
   -0.7350   21.3900  -33.7780 C   0  0  0  0  0  0  0  0  0  0  0  0
    3.1929   20.5295  -34.8687 H   0  0  0  0  0  0  0  0  0  0  0  0
    2.3250   19.9575  -36.3337 H   0  0  0  0  0  0  0  0  0  0  0  0
    3.1232   21.5667  -36.3337 H   0  0  0  0  0  0  0  0  0  0  0  0
    0.8795   18.8685  -35.4564 H   0  0  0  0  0  0  0  0  0  0  0  0
    0.8273   18.9177  -33.6361 H   0  0  0  0  0  0  0  0  0  0  0  0
   -1.2524   18.1219  -35.5716 H   0  0  0  0  0  0  0  0  0  0  0  0
   -1.0737   17.7874  -33.7841 H   0  0  0  0  0  0  0  0  0  0  0  0
   -3.5214   20.0891  -31.2782 H   0  0  0  0  0  0  0  0  0  0  0  0
   -5.1808   21.6292  -30.2287 H   0  0  0  0  0  0  0  0  0  0  0  0
   -6.7078   24.4150  -32.0697 H   0  0  0  0  0  0  0  0  0  0  0  0
   -7.8867   24.8668  -30.7605 H   0  0  0  0  0  0  0  0  0  0  0  0
   -6.1452   25.1635  -29.4034 H   0  0  0  0  0  0  0  0  0  0  0  0
   -5.8894   23.3692  -29.4829 H   0  0  0  0  0  0  0  0  0  0  0  0
   -7.8511   21.0468  -33.5881 H   0  0  0  0  0  0  0  0  0  0  0  0
   -6.1923   19.5039  -34.6373 H   0  0  0  0  0  0  0  0  0  0  0  0
   -2.6583   20.9977  -32.8754 H   0  0  0  0  0  0  0  0  0  0  0  0
   -1.3589   19.8811  -32.3574 H   0  0  0  0  0  0  0  0  0  0  0  0
   -1.2414   22.1403  -34.4030 H   0  0  0  0  0  0  0  0  0  0  0  0
   -0.2144   21.8675  -32.9348 H   0  0  0  0  0  0  0  0  0  0  0  0
  1  2  1  0
  2  3  2  0
  2  4  1  0
  4  5  1  0
  5  6  1  0
  6  7  1  0
  7  8  1  0
  8  9  2  0
  8 10  2  0
  8 11  1  0
 11 12  2  0
 12 13  1  0
 13 14  2  0
 14 15  1  0
 15 16  2  0
 15 17  2  0
 15 18  1  0
 18 19  1  0
 19 20  1  0
 20 21  2  0
 20 22  1  0
 14 23  1  0
 23 24  2  0
  7 25  1  0
 25 26  1  0
 26  4  1  0
 24 11  1  0
  1 27  1  0
  1 28  1  0
  1 29  1  0
  5 30  1  0
  5 31  1  0
  6 32  1  0
  6 33  1  0
 12 34  1  0
 13 35  1  0
 18 36  1  0
 18 37  1  0
 19 38  1  0
 19 39  1  0
 23 40  1  0
 24 41  1  0
 25 42  1  0
 25 43  1  0
 26 44  1  0
 26 45  1  0
M  CHG  1  22  -1
M  END
>  <UniqueID>  (22) 
22

>  <SMILES>  (22) 
CC(=O)N1CCN(S(=O)(=O)c2ccc(S(=O)(=O)CCC(=O)[O-])cc2)CC1

>  <Energy>  (22) 
42.119439165109085

>  <Genealogy>  (22) 
CC(=O)N1CCN(S(=O)(=O)c2ccc(S(=O)(=O)CCC(=O)[O-])cc2)CC1 (protonated)
CC(=O)N1CCN(S(=O)(=O)c2ccc(S(=O)(=O)CCC(=O)[O-])cc2)CC1 (3D coordinates assigned)
CC(=O)N1CCN(S(=O)(=O)c2ccc(S(=O)(=O)CCC(=O)[O-])cc2)CC1 (nonaromatic ring conformer: 42.119439165109085 kcal/mol)

>  <smiles>  (22) 
CC(=O)N1CCN(S(=O)(=O)c2ccc(S(=O)(=O)CCC(=O)O)cc2)CC1

>  <score_type>  (22) 
oracle

>  <origin>  (22) 
adgpu

>  <m_score__min__energy>  (22) 
-11.710000000000001

>  <m_primary>  (22) 
energy

$$$$
22:0
     RDKit          3D

 40 42  0  0  0  0  0  0  0  0999 V2000
   -9.2940   20.7490  -32.7430 N   0  0  0  0  0  0  0  0  0  0  0  0
   -9.2610   22.1780  -31.7720 S   0  0  0  0  0  0  0  0  0  0  0  0
  -10.1710   22.0030  -30.5890 O   0  0  0  0  0  0  0  0  0  0  0  0
   -9.7450   23.3450  -32.5850 O   0  0  0  0  0  0  0  0  0  0  0  0
   -7.6160   22.4760  -31.2200 C   0  0  0  0  0  0  0  0  0  0  0  0
   -6.5360   22.3220  -32.0990 C   0  0  0  0  0  0  0  0  0  0  0  0
   -5.2300   22.5480  -31.6570 C   0  0  0  0  0  0  0  0  0  0  0  0
   -4.9840   22.9210  -30.3240 C   0  0  0  0  0  0  0  0  0  0  0  0
   -3.5980   23.1700  -29.8620 C   0  0  0  0  0  0  0  0  0  0  0  0
   -2.7820   22.0850  -29.4990 C   0  0  0  0  0  0  0  0  0  0  0  0
   -1.4590   22.2870  -29.0720 C   0  0  0  0  0  0  0  0  0  0  0  0
   -0.6200   21.1170  -28.7110 C   0  0  0  0  0  0  0  0  0  0  0  0
   -0.9290   20.3350  -27.5840 C   0  0  0  0  0  0  0  0  0  0  0  0
   -0.1300   19.2400  -27.2420 C   0  0  0  0  0  0  0  0  0  0  0  0
    0.9950   18.9190  -28.0140 C   0  0  0  0  0  0  0  0  0  0  0  0
    1.9940   17.5320  -27.5920 S   0  0  0  0  0  0  0  0  0  0  0  0
    1.0350   16.3660  -26.7520 N   0  0  0  0  0  0  0  0  0  0  0  0
    2.5580   16.9140  -28.8400 O   0  0  0  0  0  0  0  0  0  0  0  0
    3.1310   17.9690  -26.7140 O   0  0  0  0  0  0  0  0  0  0  0  0
    1.3070   19.6960  -29.1370 C   0  0  0  0  0  0  0  0  0  0  0  0
    0.5090   20.7910  -29.4810 C   0  0  0  0  0  0  0  0  0  0  0  0
   -0.9550   23.5990  -28.9920 C   0  0  0  0  0  0  0  0  0  0  0  0
    0.3390   23.8360  -28.5380 O   0  0  0  0  0  0  0  0  0  0  0  0
   -1.7630   24.6840  -29.3470 C   0  0  0  0  0  0  0  0  0  0  0  0
   -1.2600   25.9780  -29.2640 O   0  0  0  0  0  0  0  0  0  0  0  0
   -3.0790   24.4770  -29.7770 C   0  0  0  0  0  0  0  0  0  0  0  0
   -3.8720   25.5760  -30.0940 O   0  0  0  0  0  0  0  0  0  0  0  0
   -6.0710   23.0740  -29.4460 C   0  0  0  0  0  0  0  0  0  0  0  0
   -7.3770   22.8480  -29.8910 C   0  0  0  0  0  0  0  0  0  0  0  0
   -9.3290   19.9360  -32.0870 H   0  0  0  0  0  0  0  0  0  0  0  0
   -6.7170   22.0219  -33.1417 H   0  0  0  0  0  0  0  0  0  0  0  0
   -4.3888   22.4333  -32.3565 H   0  0  0  0  0  0  0  0  0  0  0  0
   -3.1850   21.0628  -29.5500 H   0  0  0  0  0  0  0  0  0  0  0  0
   -1.8048   20.5864  -26.9677 H   0  0  0  0  0  0  0  0  0  0  0  0
   -0.3851   18.6283  -26.3641 H   0  0  0  0  0  0  0  0  0  0  0  0
    0.2300   16.8790  -26.3290 H   0  0  0  0  0  0  0  0  0  0  0  0
    2.1840   19.4433  -29.7510 H   0  0  0  0  0  0  0  0  0  0  0  0
    0.7665   21.4008  -30.3595 H   0  0  0  0  0  0  0  0  0  0  0  0
   -5.8931   23.3733  -28.4026 H   0  0  0  0  0  0  0  0  0  0  0  0
   -8.2205   22.9628  -29.1943 H   0  0  0  0  0  0  0  0  0  0  0  0
  1  2  1  0
  2  3  2  0
  2  4  2  0
  2  5  1  0
  5  6  2  0
  6  7  1  0
  7  8  2  0
  8  9  1  0
  9 10  2  0
 10 11  1  0
 11 12  1  0
 12 13  2  0
 13 14  1  0
 14 15  2  0
 15 16  1  0
 16 17  1  0
 16 18  2  0
 16 19  2  0
 15 20  1  0
 20 21  2  0
 11 22  2  0
 22 23  1  0
 22 24  1  0
 24 25  1  0
 24 26  2  0
 26 27  1  0
  8 28  1  0
 28 29  2  0
 29  5  1  0
 26  9  1  0
 21 12  1  0
  1 30  1  0
  6 31  1  0
  7 32  1  0
 10 33  1  0
 13 34  1  0
 14 35  1  0
 17 36  1  0
 20 37  1  0
 21 38  1  0
 28 39  1  0
 29 40  1  0
M  CHG  5   1  -1  17  -1  23  -1  25  -1  27  -1
M  END
>  <UniqueID>  (23) 
23

>  <SMILES>  (23) 
[NH-]S(=O)(=O)c1ccc(-c2cc(-c3ccc(S([NH-])(=O)=O)cc3)c([O-])c([O-])c2[O-])cc1

>  <Energy>  (23) 
56.31660039766749

>  <Genealogy>  (23) 
[NH-]S(=O)(=O)c1ccc(-c2cc(-c3ccc(S([NH-])(=O)=O)cc3)c([O-])c([O-])c2[O-])cc1 (protonated)
[NH-]S(=O)(=O)c1ccc(-c2cc(-c3ccc(S([NH-])(=O)=O)cc3)c([O-])c([O-])c2[O-])cc1 (3D coordinates assigned)
[NH-]S(=O)(=O)c1ccc(-c2cc(-c3ccc(S([NH-])(=O)=O)cc3)c([O-])c([O-])c2[O-])cc1 (optimized conformer: 56.31660039766749 kcal/mol)

>  <smiles>  (23) 
NS(=O)(=O)c1ccc(-c2cc(-c3ccc(S(N)(=O)=O)cc3)c(O)c(O)c2O)cc1

>  <score_type>  (23) 
oracle

>  <origin>  (23) 
adgpu

>  <m_score__min__energy>  (23) 
-14.27

>  <m_primary>  (23) 
energy

$$$$
23:0
     RDKit          3D

 49 52  0  0  0  0  0  0  0  0999 V2000
   -0.0870   19.1540  -28.5320 O   0  0  0  0  0  0  0  0  0  0  0  0
   -0.8570   19.9970  -29.0600 C   0  0  0  0  0  0  0  0  0  0  0  0
   -1.4000   19.7230  -30.3560 N   0  0  0  0  0  0  0  0  0  0  0  0
   -1.0000   20.3530  -31.5810 C   0  0  0  0  0  0  0  0  0  0  0  0
   -1.9520   20.5620  -32.5840 C   0  0  0  0  0  0  0  0  0  0  0  0
   -1.5850   21.1760  -33.7830 C   0  0  0  0  0  0  0  0  0  0  0  0
   -0.2570   21.5660  -33.9770 C   0  0  0  0  0  0  0  0  0  0  0  0
    0.1070   22.2040  -35.1670 O   0  0  0  0  0  0  0  0  0  0  0  0
    1.4590   22.4900  -35.5240 C   0  0  0  0  0  0  0  0  0  0  0  0
    1.6400   23.9670  -35.7530 C   0  0  0  0  0  0  0  0  0  0  0  0
    0.5480   24.7770  -36.1090 C   0  0  0  0  0  0  0  0  0  0  0  0
    0.7340   26.1410  -36.3510 C   0  0  0  0  0  0  0  0  0  0  0  0
    2.0080   26.7050  -36.2400 C   0  0  0  0  0  0  0  0  0  0  0  0
    3.0990   25.9060  -35.8870 C   0  0  0  0  0  0  0  0  0  0  0  0
    2.9170   24.5410  -35.6460 C   0  0  0  0  0  0  0  0  0  0  0  0
    0.6660   21.3190  -33.0060 N   0  0  0  0  0  0  0  0  0  0  0  0
    0.3320   20.7240  -31.8300 C   0  0  0  0  0  0  0  0  0  0  0  0
   -1.2740   21.1610  -28.3320 N   0  0  0  0  0  0  0  0  0  0  0  0
   -1.9280   22.3250  -28.8590 C   0  0  0  0  0  0  0  0  0  0  0  0
   -1.3400   23.5980  -28.7950 C   0  0  0  0  0  0  0  0  0  0  0  0
   -1.9950   24.7050  -29.3370 C   0  0  0  0  0  0  0  0  0  0  0  0
   -1.4060   25.9610  -29.2550 O   0  0  0  0  0  0  0  0  0  0  0  0
   -3.2350   24.5520  -29.9650 C   0  0  0  0  0  0  0  0  0  0  0  0
   -3.8740   25.6750  -30.4810 O   0  0  0  0  0  0  0  0  0  0  0  0
   -3.8250   23.2780  -30.0680 C   0  0  0  0  0  0  0  0  0  0  0  0
   -5.3890   23.0730  -30.8890 S   0  0  0  0  0  0  0  0  0  0  0  0
   -5.4640   24.0110  -32.0610 O   0  0  0  0  0  0  0  0  0  0  0  0
   -6.5000   23.4400  -29.9450 O   0  0  0  0  0  0  0  0  0  0  0  0
   -5.6870   21.4060  -31.4840 C   0  0  0  0  0  0  0  0  0  0  0  0
   -6.7150   21.2790  -32.5950 C   0  0  0  0  0  0  0  0  0  0  0  0
   -5.2340   21.1250  -32.9060 C   0  0  0  0  0  0  0  0  0  0  0  0
   -3.1610   22.1670  -29.5100 C   0  0  0  0  0  0  0  0  0  0  0  0
   -3.7250   20.8960  -29.5880 O   0  0  0  0  0  0  0  0  0  0  0  0
   -2.9927   20.2418  -32.4278 H   0  0  0  0  0  0  0  0  0  0  0  0
   -2.3349   21.3514  -34.5685 H   0  0  0  0  0  0  0  0  0  0  0  0
    2.1251   22.1649  -34.7112 H   0  0  0  0  0  0  0  0  0  0  0  0
    1.7045   21.9523  -36.4517 H   0  0  0  0  0  0  0  0  0  0  0  0
   -0.4559   24.3362  -36.1974 H   0  0  0  0  0  0  0  0  0  0  0  0
   -0.1234   26.7714  -36.6292 H   0  0  0  0  0  0  0  0  0  0  0  0
    2.1521   27.7787  -36.4307 H   0  0  0  0  0  0  0  0  0  0  0  0
    4.1010   26.3512  -35.7988 H   0  0  0  0  0  0  0  0  0  0  0  0
    3.7780   23.9139  -35.3713 H   0  0  0  0  0  0  0  0  0  0  0  0
    1.1060   20.5328  -31.0722 H   0  0  0  0  0  0  0  0  0  0  0  0
   -0.3581   23.7238  -28.3153 H   0  0  0  0  0  0  0  0  0  0  0  0
   -5.5318   20.9237  -30.5076 H   0  0  0  0  0  0  0  0  0  0  0  0
   -7.3791   20.4029  -32.6326 H   0  0  0  0  0  0  0  0  0  0  0  0
   -7.5289   21.9120  -32.9782 H   0  0  0  0  0  0  0  0  0  0  0  0
   -4.8268   20.1375  -33.1686 H   0  0  0  0  0  0  0  0  0  0  0  0
   -4.5327   21.6005  -33.6075 H   0  0  0  0  0  0  0  0  0  0  0  0
  1  2  2  0
  2  3  1  0
  3  4  1  0
  4  5  2  0
  5  6  1  0
  6  7  2  0
  7  8  1  0
  8  9  1  0
  9 10  1  0
 10 11  2  0
 11 12  1  0
 12 13  2  0
 13 14  1  0
 14 15  2  0
  7 16  1  0
 16 17  2  0
  2 18  1  0
 18 19  1  0
 19 20  2  0
 20 21  1  0
 21 22  1  0
 21 23  2  0
 23 24  1  0
 23 25  1  0
 25 26  1  0
 26 27  2  0
 26 28  2  0
 26 29  1  0
 29 30  1  0
 30 31  1  0
 25 32  2  0
 32 33  1  0
 17  4  1  0
 32 19  1  0
 15 10  1  0
 31 29  1  0
  5 34  1  0
  6 35  1  0
  9 36  1  0
  9 37  1  0
 11 38  1  0
 12 39  1  0
 13 40  1  0
 14 41  1  0
 15 42  1  0
 17 43  1  0
 20 44  1  0
 29 45  1  0
 30 46  1  0
 30 47  1  0
 31 48  1  0
 31 49  1  0
M  CHG  5   3  -1  18  -1  22  -1  24  -1  33  -1
M  END
>  <UniqueID>  (24) 
24

>  <SMILES>  (24) 
O=C([N-]c1ccc(OCc2ccccc2)nc1)[N-]c1cc([O-])c([O-])c(S(=O)(=O)C2CC2)c1[O-]

>  <Energy>  (24) 
323.7845933979101

>  <Genealogy>  (24) 
O=C([N-]c1ccc(OCc2ccccc2)nc1)[N-]c1cc([O-])c([O-])c(S(=O)(=O)C2CC2)c1[O-] (protonated)
O=C([N-]c1ccc(OCc2ccccc2)nc1)[N-]c1cc([O-])c([O-])c(S(=O)(=O)C2CC2)c1[O-] (3D coordinates assigned)
O=C([N-]c1ccc(OCc2ccccc2)nc1)[N-]c1cc([O-])c([O-])c(S(=O)(=O)C2CC2)c1[O-] (nonaromatic ring conformer: 323.7845933979101 kcal/mol)

>  <smiles>  (24) 
O=C(Nc1ccc(OCc2ccccc2)nc1)Nc1cc(O)c(O)c(S(=O)(=O)C2CC2)c1O

>  <score_type>  (24) 
oracle

>  <origin>  (24) 
adgpu

>  <m_score__min__energy>  (24) 
-15.31

>  <m_primary>  (24) 
energy

$$$$
24:0
     RDKit          3D

 52 54  0  0  0  0  0  0  0  0999 V2000
   -9.1830   23.3970  -32.0860 C   0  0  0  0  0  0  0  0  0  0  0  0
   -9.1780   22.0910  -31.4060 N   0  0  0  0  0  0  0  0  0  0  0  0
   -7.9620   21.9170  -30.5750 C   0  0  0  0  0  0  0  0  0  0  0  0
   -6.7560   21.4280  -31.3930 C   0  0  0  0  0  0  0  0  0  0  0  0
   -7.1190   20.2920  -32.2490 N   0  0  0  0  0  0  0  0  0  0  0  0
   -6.2110   19.8520  -33.2770 C   0  0  0  0  0  0  0  0  0  0  0  0
   -6.6480   19.6270  -34.4380 O   0  0  0  0  0  0  0  0  0  0  0  0
   -4.7680   19.6820  -33.0050 C   0  0  0  0  0  0  0  0  0  0  0  0
   -4.1870   18.4060  -33.0030 C   0  0  0  0  0  0  0  0  0  0  0  0
   -2.8190   18.2490  -32.7580 C   0  0  0  0  0  0  0  0  0  0  0  0
   -2.0040   19.3690  -32.5140 C   0  0  0  0  0  0  0  0  0  0  0  0
   -0.5910   19.2100  -32.2630 N   0  0  0  0  0  0  0  0  0  0  0  0
    0.3310   18.9310  -33.3650 C   0  0  0  0  0  0  0  0  0  0  0  0
    0.0490   19.3670  -30.6490 S   0  0  0  0  0  0  0  0  0  0  0  0
    0.0620   18.0120  -29.9960 O   0  0  0  0  0  0  0  0  0  0  0  0
    1.4590   19.8820  -30.7160 O   0  0  0  0  0  0  0  0  0  0  0  0
   -0.9330   20.4770  -29.6870 C   0  0  0  0  0  0  0  0  0  0  0  0
   -1.7620   19.9750  -28.6750 C   0  0  0  0  0  0  0  0  0  0  0  0
   -2.5480   20.8390  -27.9150 C   0  0  0  0  0  0  0  0  0  0  0  0
   -3.3470   20.3430  -26.9390 F   0  0  0  0  0  0  0  0  0  0  0  0
   -2.5020   22.2130  -28.1450 C   0  0  0  0  0  0  0  0  0  0  0  0
   -1.6700   22.7460  -29.1430 C   0  0  0  0  0  0  0  0  0  0  0  0
   -1.6020   24.2170  -29.2850 C   0  0  0  0  0  0  0  0  0  0  0  0
   -0.5700   24.8530  -28.9400 O   0  0  0  0  0  0  0  0  0  0  0  0
   -2.7100   24.9250  -29.7350 O   0  0  0  0  0  0  0  0  0  0  0  0
   -0.9050   21.8610  -29.9490 C   0  0  0  0  0  0  0  0  0  0  0  0
   -0.1430   22.3170  -31.0290 O   0  0  0  0  0  0  0  0  0  0  0  0
   -2.5860   20.6490  -32.5420 C   0  0  0  0  0  0  0  0  0  0  0  0
   -3.9530   20.8040  -32.7920 C   0  0  0  0  0  0  0  0  0  0  0  0
   -8.4970   19.7950  -32.2140 C   0  0  0  0  0  0  0  0  0  0  0  0
   -9.4590   20.9810  -32.3580 C   0  0  0  0  0  0  0  0  0  0  0  0
   -9.1861   24.2012  -31.3355 H   0  0  0  0  0  0  0  0  0  0  0  0
   -8.2852   23.4862  -32.7153 H   0  0  0  0  0  0  0  0  0  0  0  0
  -10.0815   23.4793  -32.7153 H   0  0  0  0  0  0  0  0  0  0  0  0
   -7.7078   22.8832  -30.1148 H   0  0  0  0  0  0  0  0  0  0  0  0
   -8.1827   21.1530  -29.8150 H   0  0  0  0  0  0  0  0  0  0  0  0
   -6.3937   22.2520  -32.0253 H   0  0  0  0  0  0  0  0  0  0  0  0
   -5.9718   21.1005  -30.6946 H   0  0  0  0  0  0  0  0  0  0  0  0
   -4.8120   17.5215  -33.1956 H   0  0  0  0  0  0  0  0  0  0  0  0
   -2.3770   17.2417  -32.7561 H   0  0  0  0  0  0  0  0  0  0  0  0
    1.3093   18.6350  -32.9585 H   0  0  0  0  0  0  0  0  0  0  0  0
   -0.0718   18.1145  -33.9823 H   0  0  0  0  0  0  0  0  0  0  0  0
    0.4484   19.8338  -33.9823 H   0  0  0  0  0  0  0  0  0  0  0  0
   -1.7925   18.8930  -28.4794 H   0  0  0  0  0  0  0  0  0  0  0  0
   -3.1242   22.8872  -27.5382 H   0  0  0  0  0  0  0  0  0  0  0  0
    0.6220   21.7970  -31.4330 H   0  0  0  0  0  0  0  0  0  0  0  0
   -1.9602   21.5363  -32.3656 H   0  0  0  0  0  0  0  0  0  0  0  0
   -4.3922   21.8121  -32.8219 H   0  0  0  0  0  0  0  0  0  0  0  0
   -8.6556   19.0888  -33.0423 H   0  0  0  0  0  0  0  0  0  0  0  0
   -8.6823   19.2797  -31.2600 H   0  0  0  0  0  0  0  0  0  0  0  0
   -9.3787   21.3723  -33.3829 H   0  0  0  0  0  0  0  0  0  0  0  0
  -10.4691   20.6083  -32.1324 H   0  0  0  0  0  0  0  0  0  0  0  0
  1  2  1  0
  2  3  1  0
  3  4  1  0
  4  5  1  0
  5  6  1  0
  6  7  2  0
  6  8  1  0
  8  9  2  0
  9 10  1  0
 10 11  2  0
 11 12  1  0
 12 13  1  0
 12 14  1  0
 14 15  2  0
 14 16  2  0
 14 17  1  0
 17 18  2  0
 18 19  1  0
 19 20  1  0
 19 21  2  0
 21 22  1  0
 22 23  1  0
 23 24  2  0
 23 25  1  0
 22 26  2  0
 26 27  1  0
 11 28  1  0
 28 29  2  0
  5 30  1  0
 30 31  1  0
 31  2  1  0
 29  8  1  0
 26 17  1  0
  1 32  1  0
  1 33  1  0
  1 34  1  0
  3 35  1  0
  3 36  1  0
  4 37  1  0
  4 38  1  0
  9 39  1  0
 10 40  1  0
 13 41  1  0
 13 42  1  0
 13 43  1  0
 18 44  1  0
 21 45  1  0
 27 46  1  0
 28 47  1  0
 29 48  1  0
 30 49  1  0
 30 50  1  0
 31 51  1  0
 31 52  1  0
M  CHG  1  25  -1
M  END
>  <UniqueID>  (25) 
25

>  <SMILES>  (25) 
CN1CCN(C(=O)c2ccc(N(C)S(=O)(=O)c3cc(F)cc(C(=O)[O-])c3O)cc2)CC1

>  <Energy>  (25) 
76.85690465673447

>  <Genealogy>  (25) 
CN1CCN(C(=O)c2ccc(N(C)S(=O)(=O)c3cc(F)cc(C(=O)[O-])c3O)cc2)CC1 (protonated)
CN1CCN(C(=O)c2ccc(N(C)S(=O)(=O)c3cc(F)cc(C(=O)[O-])c3O)cc2)CC1 (3D coordinates assigned)
CN1CCN(C(=O)c2ccc(N(C)S(=O)(=O)c3cc(F)cc(C(=O)[O-])c3O)cc2)CC1 (nonaromatic ring conformer: 76.85690465673447 kcal/mol)

>  <smiles>  (25) 
CN1CCN(C(=O)c2ccc(N(C)S(=O)(=O)c3cc(F)cc(C(=O)O)c3O)cc2)CC1

>  <score_type>  (25) 
oracle

>  <origin>  (25) 
adgpu

>  <m_score__min__energy>  (25) 
-12.24

>  <m_primary>  (25) 
energy

$$$$
25:0
     RDKit          3D

 65 69  0  0  0  0  0  0  0  0999 V2000
   -1.2540   26.4220  -24.5400 C   0  0  0  0  0  0  0  0  0  0  0  0
   -0.3640   27.5780  -24.5480 N   0  0  0  0  0  0  0  0  0  0  0  0
    0.3650   27.7510  -26.1140 S   0  0  0  0  0  0  0  0  0  0  0  0
   -0.1460   28.9990  -26.7790 O   0  0  0  0  0  0  0  0  0  0  0  0
    1.8540   27.8740  -25.9540 O   0  0  0  0  0  0  0  0  0  0  0  0
    0.0100   26.3430  -27.1140 C   0  0  0  0  0  0  0  0  0  0  0  0
    0.7030   25.1440  -26.9020 C   0  0  0  0  0  0  0  0  0  0  0  0
    0.4240   24.0240  -27.6880 C   0  0  0  0  0  0  0  0  0  0  0  0
   -0.5640   24.0780  -28.6790 C   0  0  0  0  0  0  0  0  0  0  0  0
   -0.8040   22.9080  -29.4780 N   0  0  0  0  0  0  0  0  0  0  0  0
   -1.9440   22.5410  -29.9890 C   0  0  0  0  0  0  0  0  0  0  0  0
   -3.1180   23.1910  -29.7610 N   0  0  0  0  0  0  0  0  0  0  0  0
   -4.0040   22.4610  -30.4630 C   0  0  0  0  0  0  0  0  0  0  0  0
   -5.3710   22.6850  -30.5940 C   0  0  0  0  0  0  0  0  0  0  0  0
   -6.1070   21.7960  -31.4010 C   0  0  0  0  0  0  0  0  0  0  0  0
   -5.4690   20.7230  -32.0650 C   0  0  0  0  0  0  0  0  0  0  0  0
   -6.2450   19.8640  -32.8570 O   0  0  0  0  0  0  0  0  0  0  0  0
   -5.7870   18.6690  -33.4310 C   0  0  0  0  0  0  0  0  0  0  0  0
   -5.4590   18.6040  -34.7910 C   0  0  0  0  0  0  0  0  0  0  0  0
   -4.9540   17.4290  -35.3380 C   0  0  0  0  0  0  0  0  0  0  0  0
   -4.7710   16.2920  -34.5380 C   0  0  0  0  0  0  0  0  0  0  0  0
   -4.1780   15.1060  -35.0910 N   0  0  0  0  0  0  0  0  0  0  0  0
   -2.7850   14.7690  -35.0420 C   0  0  0  0  0  0  0  0  0  0  0  0
   -2.4460   13.5780  -35.2740 O   0  0  0  0  0  0  0  0  0  0  0  0
   -1.7650   15.7660  -34.6340 C   0  0  0  0  0  0  0  0  0  0  0  0
   -1.9110   16.3700  -33.4210 N   0  0  0  0  0  0  0  0  0  0  0  0
   -1.0350   17.2960  -32.9550 C   0  0  0  0  0  0  0  0  0  0  0  0
    0.0700   17.6560  -33.7210 C   0  0  0  0  0  0  0  0  0  0  0  0
    0.2580   17.0620  -34.9690 C   0  0  0  0  0  0  0  0  0  0  0  0
   -0.6620   16.1160  -35.4520 C   0  0  0  0  0  0  0  0  0  0  0  0
   -0.4460   15.5110  -36.8140 C   0  0  0  0  0  0  0  0  0  0  0  0
   -5.1980   16.3100  -33.1910 C   0  0  0  0  0  0  0  0  0  0  0  0
   -5.0300   15.0850  -32.3260 C   0  0  0  0  0  0  0  0  0  0  0  0
   -5.6850   17.5170  -32.6370 C   0  0  0  0  0  0  0  0  0  0  0  0
   -6.1200   17.6320  -30.9300 Cl  0  0  0  0  0  0  0  0  0  0  0  0
   -4.0790   20.5150  -31.8880 C   0  0  0  0  0  0  0  0  0  0  0  0
   -3.3830   21.4150  -31.0800 C   0  0  0  0  0  0  0  0  0  0  0  0
   -2.0760   21.4400  -30.7740 N   0  0  0  0  0  0  0  0  0  0  0  0
   -1.0290   20.5480  -31.2690 C   0  0  0  0  0  0  0  0  0  0  0  0
   -1.2390   25.2920  -28.9080 C   0  0  0  0  0  0  0  0  0  0  0  0
   -0.9610   26.4120  -28.1220 C   0  0  0  0  0  0  0  0  0  0  0  0
   -1.4742   26.1360  -23.5009 H   0  0  0  0  0  0  0  0  0  0  0  0
   -2.1911   26.6771  -25.0565 H   0  0  0  0  0  0  0  0  0  0  0  0
   -0.7678   25.5813  -25.0565 H   0  0  0  0  0  0  0  0  0  0  0  0
    1.4687   25.0847  -26.1145 H   0  0  0  0  0  0  0  0  0  0  0  0
    0.9850   23.0915  -27.5274 H   0  0  0  0  0  0  0  0  0  0  0  0
   -5.8603   23.5281  -30.0844 H   0  0  0  0  0  0  0  0  0  0  0  0
   -7.1917   21.9381  -31.5162 H   0  0  0  0  0  0  0  0  0  0  0  0
   -5.6016   19.4875  -35.4305 H   0  0  0  0  0  0  0  0  0  0  0  0
   -4.6961   17.3914  -36.4067 H   0  0  0  0  0  0  0  0  0  0  0  0
   -1.1983   17.7620  -31.9720 H   0  0  0  0  0  0  0  0  0  0  0  0
    0.7873   18.4010  -33.3462 H   0  0  0  0  0  0  0  0  0  0  0  0
    1.1317   17.3357  -35.5787 H   0  0  0  0  0  0  0  0  0  0  0  0
   -0.0780   14.4803  -36.7032 H   0  0  0  0  0  0  0  0  0  0  0  0
   -1.3970   15.5034  -37.3668 H   0  0  0  0  0  0  0  0  0  0  0  0
    0.2948   16.1074  -37.3668 H   0  0  0  0  0  0  0  0  0  0  0  0
   -5.0700   15.3763  -31.2660 H   0  0  0  0  0  0  0  0  0  0  0  0
   -5.8386   14.3708  -32.5407 H   0  0  0  0  0  0  0  0  0  0  0  0
   -4.0590   14.6149  -32.5407 H   0  0  0  0  0  0  0  0  0  0  0  0
   -3.5649   19.6714  -32.3718 H   0  0  0  0  0  0  0  0  0  0  0  0
   -0.4991   20.0965  -30.4173 H   0  0  0  0  0  0  0  0  0  0  0  0
   -1.4825   19.7545  -31.8811 H   0  0  0  0  0  0  0  0  0  0  0  0
   -0.3176   21.1218  -31.8811 H   0  0  0  0  0  0  0  0  0  0  0  0
   -1.9890   25.3585  -29.7099 H   0  0  0  0  0  0  0  0  0  0  0  0
   -1.5061   27.3517  -28.2946 H   0  0  0  0  0  0  0  0  0  0  0  0
  1  2  1  0
  2  3  1  0
  3  4  2  0
  3  5  2  0
  3  6  1  0
  6  7  2  0
  7  8  1  0
  8  9  2  0
  9 10  1  0
 10 11  2  3
 11 12  1  0
 12 13  1  0
 13 14  2  0
 14 15  1  0
 15 16  2  0
 16 17  1  0
 17 18  1  0
 18 19  2  0
 19 20  1  0
 20 21  2  0
 21 22  1  0
 22 23  1  0
 23 24  2  0
 23 25  1  0
 25 26  2  0
 26 27  1  0
 27 28  2  0
 28 29  1  0
 29 30  2  0
 30 31  1  0
 21 32  1  0
 32 33  1  0
 32 34  2  0
 34 35  1  0
 16 36  1  0
 36 37  2  0
 37 38  1  0
 38 39  1  0
  9 40  1  0
 40 41  2  0
 41  6  1  0
 38 11  1  0
 37 13  1  0
 34 18  1  0
 30 25  1  0
  1 42  1  0
  1 43  1  0
  1 44  1  0
  7 45  1  0
  8 46  1  0
 14 47  1  0
 15 48  1  0
 19 49  1  0
 20 50  1  0
 27 51  1  0
 28 52  1  0
 29 53  1  0
 31 54  1  0
 31 55  1  0
 31 56  1  0
 33 57  1  0
 33 58  1  0
 33 59  1  0
 36 60  1  0
 39 61  1  0
 39 62  1  0
 39 63  1  0
 40 64  1  0
 41 65  1  0
M  CHG  3   2  -1  12  -1  22  -1
M  END
>  <UniqueID>  (26) 
26

>  <SMILES>  (26) 
C[N-]S(=O)(=O)c1ccc(N=c2[n-]c3ccc(Oc4ccc([N-]C(=O)c5ncccc5C)c(C)c4Cl)cc3n2C)cc1

>  <Energy>  (26) 
129.32597586869448

>  <Genealogy>  (26) 
C[N-]S(=O)(=O)c1ccc(N=c2[n-]c3ccc(Oc4ccc([N-]C(=O)c5ncccc5C)c(C)c4Cl)cc3n2C)cc1 (protonated)
C[N-]S(=O)(=O)c1ccc(N=c2[n-]c3ccc(Oc4ccc([N-]C(=O)c5ncccc5C)c(C)c4Cl)cc3n2C)cc1 (3D coordinates assigned)
C[N-]S(=O)(=O)c1ccc(N=c2[n-]c3ccc(Oc4ccc([N-]C(=O)c5ncccc5C)c(C)c4Cl)cc3n2C)cc1 (optimized conformer: 129.32597586869448 kcal/mol)

>  <smiles>  (26) 
CNS(=O)(=O)c1ccc(N=c2[nH]c3ccc(Oc4ccc(NC(=O)c5ncccc5C)c(C)c4Cl)cc3n2C)cc1

>  <score_type>  (26) 
oracle

>  <origin>  (26) 
adgpu

>  <m_score__min__energy>  (26) 
-11.17

>  <m_primary>  (26) 
energy

$$$$
26:0
     RDKit          3D

 31 32  0  0  0  0  0  0  0  0999 V2000
    1.9010   20.5890  -27.8280 O   0  0  0  0  0  0  0  0  0  0  0  0
    1.3370   19.5670  -28.3060 C   0  0  0  0  0  0  0  0  0  0  0  0
    0.3510   19.7250  -29.3340 N   0  0  0  0  0  0  0  0  0  0  0  0
   -1.0380   20.0940  -29.0780 C   0  0  0  0  0  0  0  0  0  0  0  0
   -1.1070   21.2600  -28.0890 C   0  0  0  0  0  0  0  0  0  0  0  0
   -1.8460   22.4240  -28.6940 C   0  0  0  0  0  0  0  0  0  0  0  0
   -2.9970   22.2040  -29.4680 C   0  0  0  0  0  0  0  0  0  0  0  0
   -3.6660   23.2820  -30.0570 C   0  0  0  0  0  0  0  0  0  0  0  0
   -3.1870   24.5840  -29.8850 C   0  0  0  0  0  0  0  0  0  0  0  0
   -3.8570   25.6510  -30.4710 O   0  0  0  0  0  0  0  0  0  0  0  0
   -2.0320   24.8090  -29.1250 C   0  0  0  0  0  0  0  0  0  0  0  0
   -1.5470   26.1010  -28.9560 O   0  0  0  0  0  0  0  0  0  0  0  0
   -1.3610   23.7320  -28.5350 C   0  0  0  0  0  0  0  0  0  0  0  0
    1.6810   18.2100  -27.8060 C   0  0  0  0  0  0  0  0  0  0  0  0
    0.7290   17.1750  -27.8870 C   0  0  0  0  0  0  0  0  0  0  0  0
    1.0300   15.8910  -27.4260 C   0  0  0  0  0  0  0  0  0  0  0  0
    2.2830   15.6190  -26.8760 C   0  0  0  0  0  0  0  0  0  0  0  0
    3.2390   16.6310  -26.7860 C   0  0  0  0  0  0  0  0  0  0  0  0
    2.9500   17.9220  -27.2450 C   0  0  0  0  0  0  0  0  0  0  0  0
    3.9310   18.9010  -27.1380 O   0  0  0  0  0  0  0  0  0  0  0  0
   -1.5139   20.3924  -30.0238 H   0  0  0  0  0  0  0  0  0  0  0  0
   -1.5632   19.2290  -28.6468 H   0  0  0  0  0  0  0  0  0  0  0  0
   -1.6314   20.9321  -27.1793 H   0  0  0  0  0  0  0  0  0  0  0  0
   -0.0831   21.5784  -27.8437 H   0  0  0  0  0  0  0  0  0  0  0  0
   -3.3737   21.1805  -29.6115 H   0  0  0  0  0  0  0  0  0  0  0  0
   -4.5709   23.1049  -30.6568 H   0  0  0  0  0  0  0  0  0  0  0  0
   -0.4503   23.9108  -27.9445 H   0  0  0  0  0  0  0  0  0  0  0  0
   -0.2621   17.3799  -28.3179 H   0  0  0  0  0  0  0  0  0  0  0  0
    0.2770   15.0923  -27.4969 H   0  0  0  0  0  0  0  0  0  0  0  0
    2.5170   14.6071  -26.5135 H   0  0  0  0  0  0  0  0  0  0  0  0
    4.2260   16.4135  -26.3518 H   0  0  0  0  0  0  0  0  0  0  0  0
  1  2  2  0
  2  3  1  0
  3  4  1  0
  4  5  1  0
  5  6  1  0
  6  7  2  0
  7  8  1  0
  8  9  2  0
  9 10  1  0
  9 11  1  0
 11 12  1  0
 11 13  2  0
  2 14  1  0
 14 15  2  0
 15 16  1  0
 16 17  2  0
 17 18  1  0
 18 19  2  0
 19 20  1  0
 13  6  1  0
 19 14  1  0
  4 21  1  0
  4 22  1  0
  5 23  1  0
  5 24  1  0
  7 25  1  0
  8 26  1  0
 13 27  1  0
 15 28  1  0
 16 29  1  0
 17 30  1  0
 18 31  1  0
M  CHG  4   3  -1  10  -1  12  -1  20  -1
M  END
>  <UniqueID>  (27) 
27

>  <SMILES>  (27) 
O=C([N-]CCc1ccc([O-])c([O-])c1)c1ccccc1[O-]

>  <Energy>  (27) 
30.239462818413973

>  <Genealogy>  (27) 
O=C([N-]CCc1ccc([O-])c([O-])c1)c1ccccc1[O-] (protonated)
O=C([N-]CCc1ccc([O-])c([O-])c1)c1ccccc1[O-] (3D coordinates assigned)
O=C([N-]CCc1ccc([O-])c([O-])c1)c1ccccc1[O-] (optimized conformer: 30.239462818413973 kcal/mol)

>  <smiles>  (27) 
O=C(NCCc1ccc(O)c(O)c1)c1ccccc1O

>  <score_type>  (27) 
oracle

>  <origin>  (27) 
adgpu

>  <m_score__min__energy>  (27) 
-12.4

>  <m_primary>  (27) 
energy

$$$$
27:0
     RDKit          3D

 45 48  0  0  0  0  0  0  0  0999 V2000
   -2.0040   25.1910  -29.2580 N   0  0  0  0  0  0  0  0  0  0  0  0
   -1.3360   23.5990  -29.2220 S   0  0  0  0  0  0  0  0  0  0  0  0
    0.1610   23.6840  -29.3310 O   0  0  0  0  0  0  0  0  0  0  0  0
   -1.6870   22.9340  -27.9190 O   0  0  0  0  0  0  0  0  0  0  0  0
   -1.9840   22.6570  -30.5600 C   0  0  0  0  0  0  0  0  0  0  0  0
   -3.2550   22.9410  -31.0780 C   0  0  0  0  0  0  0  0  0  0  0  0
   -3.7690   22.1860  -32.1350 C   0  0  0  0  0  0  0  0  0  0  0  0
   -3.0220   21.1300  -32.6820 C   0  0  0  0  0  0  0  0  0  0  0  0
   -3.5550   20.3360  -33.8450 C   0  0  0  0  0  0  0  0  0  0  0  0
   -4.4790   19.3040  -33.3750 N   0  0  0  0  0  0  0  0  0  0  0  0
   -4.4350   17.9160  -33.7210 C   0  0  0  0  0  0  0  0  0  0  0  0
   -3.4410   17.3450  -34.2410 O   0  0  0  0  0  0  0  0  0  0  0  0
   -5.7040   17.2810  -33.4000 C   0  0  0  0  0  0  0  0  0  0  0  0
   -6.0140   16.0720  -33.5680 O   0  0  0  0  0  0  0  0  0  0  0  0
   -6.5430   18.3370  -32.8620 C   0  0  0  0  0  0  0  0  0  0  0  0
   -7.8610   18.3020  -32.4150 C   0  0  0  0  0  0  0  0  0  0  0  0
   -8.4390   19.5000  -31.9620 C   0  0  0  0  0  0  0  0  0  0  0  0
   -7.6950   20.7030  -31.9670 C   0  0  0  0  0  0  0  0  0  0  0  0
   -8.4260   22.1920  -31.3810 S   0  0  0  0  0  0  0  0  0  0  0  0
   -9.5210   21.8650  -30.4040 O   0  0  0  0  0  0  0  0  0  0  0  0
   -9.0280   22.9600  -32.5250 O   0  0  0  0  0  0  0  0  0  0  0  0
   -7.2030   23.1710  -30.5930 C   0  0  0  0  0  0  0  0  0  0  0  0
   -6.3090   22.5900  -29.6850 C   0  0  0  0  0  0  0  0  0  0  0  0
   -5.3500   23.3910  -29.0650 C   0  0  0  0  0  0  0  0  0  0  0  0
   -5.2940   24.7560  -29.3500 C   0  0  0  0  0  0  0  0  0  0  0  0
   -6.2030   25.3000  -30.2610 C   0  0  0  0  0  0  0  0  0  0  0  0
   -7.1300   24.5050  -30.8560 N   0  0  0  0  0  0  0  0  0  0  0  0
   -6.3600   20.7060  -32.4160 C   0  0  0  0  0  0  0  0  0  0  0  0
   -5.8050   19.5070  -32.8660 C   0  0  0  0  0  0  0  0  0  0  0  0
   -1.7520   20.8430  -32.1550 C   0  0  0  0  0  0  0  0  0  0  0  0
   -1.2390   21.6010  -31.0990 C   0  0  0  0  0  0  0  0  0  0  0  0
   -1.5860   25.6780  -30.0830 H   0  0  0  0  0  0  0  0  0  0  0  0
   -3.8500   23.7615  -30.6506 H   0  0  0  0  0  0  0  0  0  0  0  0
   -4.7642   22.4199  -32.5411 H   0  0  0  0  0  0  0  0  0  0  0  0
   -4.0849   21.0113  -34.5329 H   0  0  0  0  0  0  0  0  0  0  0  0
   -2.7137   19.8533  -34.3639 H   0  0  0  0  0  0  0  0  0  0  0  0
   -8.4338   17.3629  -32.4164 H   0  0  0  0  0  0  0  0  0  0  0  0
   -9.4780   19.5023  -31.6007 H   0  0  0  0  0  0  0  0  0  0  0  0
   -6.3625   21.5139  -29.4632 H   0  0  0  0  0  0  0  0  0  0  0  0
   -4.6389   22.9474  -28.3525 H   0  0  0  0  0  0  0  0  0  0  0  0
   -4.5433   25.3959  -28.8633 H   0  0  0  0  0  0  0  0  0  0  0  0
   -6.1680   26.3739  -30.4968 H   0  0  0  0  0  0  0  0  0  0  0  0
   -5.7678   21.6330  -32.4121 H   0  0  0  0  0  0  0  0  0  0  0  0
   -1.1585   20.0178  -32.5755 H   0  0  0  0  0  0  0  0  0  0  0  0
   -0.2453   21.3670  -30.6893 H   0  0  0  0  0  0  0  0  0  0  0  0
  1  2  1  0
  2  3  2  0
  2  4  2  0
  2  5  1  0
  5  6  2  0
  6  7  1  0
  7  8  2  0
  8  9  1  0
  9 10  1  0
 10 11  1  0
 11 12  2  0
 11 13  1  0
 13 14  2  0
 13 15  1  0
 15 16  2  0
 16 17  1  0
 17 18  2  0
 18 19  1  0
 19 20  2  0
 19 21  2  0
 19 22  1  0
 22 23  2  0
 23 24  1  0
 24 25  2  0
 25 26  1  0
 26 27  2  0
 18 28  1  0
 28 29  2  0
  8 30  1  0
 30 31  2  0
 31  5  1  0
 29 10  1  0
 29 15  1  0
 27 22  1  0
  1 32  1  0
  6 33  1  0
  7 34  1  0
  9 35  1  0
  9 36  1  0
 16 37  1  0
 17 38  1  0
 23 39  1  0
 24 40  1  0
 25 41  1  0
 26 42  1  0
 28 43  1  0
 30 44  1  0
 31 45  1  0
M  CHG  1   1  -1
M  END
>  <UniqueID>  (28) 
28

>  <SMILES>  (28) 
[NH-]S(=O)(=O)c1ccc(CN2C(=O)C(=O)c3ccc(S(=O)(=O)c4ccccn4)cc32)cc1

>  <Energy>  (28) 
81.54493723265313

>  <Genealogy>  (28) 
[NH-]S(=O)(=O)c1ccc(CN2C(=O)C(=O)c3ccc(S(=O)(=O)c4ccccn4)cc32)cc1 (protonated)
[NH-]S(=O)(=O)c1ccc(CN2C(=O)C(=O)c3ccc(S(=O)(=O)c4ccccn4)cc32)cc1 (3D coordinates assigned)
[NH-]S(=O)(=O)c1ccc(CN2C(=O)C(=O)c3ccc(S(=O)(=O)c4ccccn4)cc32)cc1 (nonaromatic ring conformer: 81.54493723265313 kcal/mol)

>  <smiles>  (28) 
NS(=O)(=O)c1ccc(CN2C(=O)C(=O)c3ccc(S(=O)(=O)c4ccccn4)cc32)cc1

>  <score_type>  (28) 
oracle

>  <origin>  (28) 
adgpu

>  <m_score__min__energy>  (28) 
-12.25

>  <m_primary>  (28) 
energy

$$$$
28:0
     RDKit          3D

 51 54  0  0  0  0  0  0  0  0999 V2000
   -1.8790   25.2860  -29.3270 O   0  0  0  0  0  0  0  0  0  0  0  0
   -2.8930   24.5740  -29.5440 C   0  0  0  0  0  0  0  0  0  0  0  0
   -3.1320   23.3280  -28.7420 C   0  0  0  0  0  0  0  0  0  0  0  0
   -3.8500   22.2630  -29.5830 C   0  0  0  0  0  0  0  0  0  0  0  0
   -5.0290   22.8330  -30.3370 C   0  0  0  0  0  0  0  0  0  0  0  0
   -6.1290   22.0220  -30.6540 C   0  0  0  0  0  0  0  0  0  0  0  0
   -7.1880   22.5320  -31.4180 C   0  0  0  0  0  0  0  0  0  0  0  0
   -8.5900   21.5270  -31.7620 S   0  0  0  0  0  0  0  0  0  0  0  0
   -9.1160   20.9630  -30.4710 O   0  0  0  0  0  0  0  0  0  0  0  0
   -9.6710   22.3890  -32.3550 O   0  0  0  0  0  0  0  0  0  0  0  0
   -8.2280   20.2200  -32.8660 N   0  0  0  0  0  0  0  0  0  0  0  0
   -8.7120   18.8940  -32.4450 C   0  0  0  0  0  0  0  0  0  0  0  0
   -7.6900   18.0450  -31.6640 C   0  0  0  0  0  0  0  0  0  0  0  0
   -6.2840   18.6360  -31.5830 C   0  0  0  0  0  0  0  0  0  0  0  0
   -5.8300   19.3350  -32.8710 C   0  0  1  0  0  0  0  0  0  0  0  0
   -5.2950   18.3330  -33.8700 C   0  0  0  0  0  0  0  0  0  0  0  0
   -5.7080   18.3780  -35.0610 O   0  0  0  0  0  0  0  0  0  0  0  0
   -4.3420   17.3310  -33.4780 N   0  0  0  0  0  0  0  0  0  0  0  0
   -3.5110   16.6110  -34.4040 C   0  0  0  0  0  0  0  0  0  0  0  0
   -2.2080   17.0460  -34.7120 C   0  0  0  0  0  0  0  0  0  0  0  0
   -1.4110   16.3130  -35.5970 C   0  0  0  0  0  0  0  0  0  0  0  0
   -1.8980   15.1340  -36.1690 C   0  0  0  0  0  0  0  0  0  0  0  0
   -0.8940   14.2150  -37.2760 Cl  0  0  0  0  0  0  0  0  0  0  0  0
   -3.1830   14.6840  -35.8500 C   0  0  0  0  0  0  0  0  0  0  0  0
   -3.9820   15.4150  -34.9660 C   0  0  0  0  0  0  0  0  0  0  0  0
   -6.8940   20.2780  -33.4940 C   0  0  0  0  0  0  0  0  0  0  0  0
   -7.1320   23.8510  -31.8900 C   0  0  0  0  0  0  0  0  0  0  0  0
   -6.0300   24.6560  -31.5970 C   0  0  0  0  0  0  0  0  0  0  0  0
   -4.9800   24.1550  -30.8200 C   0  0  0  0  0  0  0  0  0  0  0  0
   -3.8650   24.9930  -30.5050 N   0  0  0  0  0  0  0  0  0  0  0  0
   -2.1653   22.9273  -28.4028 H   0  0  0  0  0  0  0  0  0  0  0  0
   -3.7671   23.5817  -27.8804 H   0  0  0  0  0  0  0  0  0  0  0  0
   -3.1363   21.8421  -30.3065 H   0  0  0  0  0  0  0  0  0  0  0  0
   -4.2280   21.4893  -28.8985 H   0  0  0  0  0  0  0  0  0  0  0  0
   -6.1607   20.9806  -30.3013 H   0  0  0  0  0  0  0  0  0  0  0  0
   -9.5943   19.0404  -31.8046 H   0  0  0  0  0  0  0  0  0  0  0  0
   -8.9302   18.3389  -33.3692 H   0  0  0  0  0  0  0  0  0  0  0  0
   -8.0658   17.9178  -30.6380 H   0  0  0  0  0  0  0  0  0  0  0  0
   -7.5930   17.0982  -32.2155 H   0  0  0  0  0  0  0  0  0  0  0  0
   -6.2633   19.3704  -30.7643 H   0  0  0  0  0  0  0  0  0  0  0  0
   -5.5934   17.7967  -31.4139 H   0  0  0  0  0  0  0  0  0  0  0  0
   -5.0071   20.0043  -32.5797 H   0  0  0  0  0  0  0  0  0  0  0  0
   -4.3030   17.0520  -32.4740 H   0  0  0  0  0  0  0  0  0  0  0  0
   -1.8152   17.9661  -34.2547 H   0  0  0  0  0  0  0  0  0  0  0  0
   -0.3984   16.6650  -35.8436 H   0  0  0  0  0  0  0  0  0  0  0  0
   -3.5656   13.7537  -36.2952 H   0  0  0  0  0  0  0  0  0  0  0  0
   -4.9873   15.0498  -34.7092 H   0  0  0  0  0  0  0  0  0  0  0  0
   -6.5237   21.3105  -33.4121 H   0  0  0  0  0  0  0  0  0  0  0  0
   -7.0300   19.9418  -34.5325 H   0  0  0  0  0  0  0  0  0  0  0  0
   -7.9594   24.2528  -32.4933 H   0  0  0  0  0  0  0  0  0  0  0  0
   -5.9870   25.6870  -31.9780 H   0  0  0  0  0  0  0  0  0  0  0  0
  1  2  2  0
  2  3  1  0
  3  4  1  0
  4  5  1  0
  5  6  2  0
  6  7  1  0
  7  8  1  0
  8  9  2  0
  8 10  2  0
  8 11  1  0
 11 12  1  0
 12 13  1  0
 13 14  1  0
 14 15  1  0
 15 16  1  0
 16 17  2  0
 16 18  1  0
 18 19  1  0
 19 20  2  0
 20 21  1  0
 21 22  2  0
 22 23  1  0
 22 24  1  0
 24 25  2  0
 15 26  1  0
  7 27  2  0
 27 28  1  0
 28 29  2  0
 29 30  1  0
 30  2  1  0
 29  5  1  0
 26 11  1  0
 25 19  1  0
  3 31  1  0
  3 32  1  0
  4 33  1  0
  4 34  1  0
  6 35  1  0
 12 36  1  0
 12 37  1  0
 13 38  1  0
 13 39  1  0
 14 40  1  0
 14 41  1  0
 15 42  1  1
 18 43  1  0
 20 44  1  0
 21 45  1  0
 24 46  1  0
 25 47  1  0
 26 48  1  0
 26 49  1  0
 27 50  1  0
 28 51  1  0
M  CHG  1  30  -1
M  END
>  <UniqueID>  (29) 
29

>  <SMILES>  (29) 
O=C1CCc2cc(S(=O)(=O)N3CCC[C@@H](C(=O)Nc4ccc(Cl)cc4)C3)ccc2[N-]1

>  <Energy>  (29) 
71.14415402766085

>  <Genealogy>  (29) 
O=C1CCc2cc(S(=O)(=O)N3CCCC(C(=O)Nc4ccc(Cl)cc4)C3)ccc2[N-]1 (protonated)
O=C1CCc2cc(S(=O)(=O)N3CCC[C@@H](C(=O)Nc4ccc(Cl)cc4)C3)ccc2[N-]1 (chirality)
O=C1CCc2cc(S(=O)(=O)N3CCC[C@@H](C(=O)Nc4ccc(Cl)cc4)C3)ccc2[N-]1 (3D coordinates assigned)
O=C1CCc2cc(S(=O)(=O)N3CCC[C@@H](C(=O)Nc4ccc(Cl)cc4)C3)ccc2[N-]1 (nonaromatic ring conformer: 71.14415402766085 kcal/mol)

>  <smiles>  (29) 
O=C1CCc2cc(S(=O)(=O)N3CCCC(C(=O)Nc4ccc(Cl)cc4)C3)ccc2N1

>  <score_type>  (29) 
oracle

>  <origin>  (29) 
adgpu

>  <m_score__min__energy>  (29) 
-12.16

>  <m_primary>  (29) 
energy

$$$$
29:0
     RDKit          3D

 52 54  0  0  0  0  0  0  0  0999 V2000
   -5.8020   25.7560  -31.2160 O   0  0  0  0  0  0  0  0  0  0  0  0
   -5.1340   25.0080  -30.4530 C   0  0  0  0  0  0  0  0  0  0  0  0
   -3.7060   25.0590  -30.4660 N   0  0  0  0  0  0  0  0  0  0  0  0
   -2.7340   24.1390  -29.3680 S   0  0  0  0  0  0  0  0  0  0  0  0
   -1.6020   24.9910  -28.8640 O   0  0  0  0  0  0  0  0  0  0  0  0
   -3.5740   23.7210  -28.1940 O   0  0  0  0  0  0  0  0  0  0  0  0
   -2.1140   22.7040  -30.1790 C   0  0  0  0  0  0  0  0  0  0  0  0
   -0.9730   22.0580  -29.6830 C   0  0  0  0  0  0  0  0  0  0  0  0
   -0.4870   20.9110  -30.3140 C   0  0  0  0  0  0  0  0  0  0  0  0
   -1.1380   20.4020  -31.4410 C   0  0  0  0  0  0  0  0  0  0  0  0
   -2.2810   21.0400  -31.9440 C   0  0  0  0  0  0  0  0  0  0  0  0
   -3.0990   20.4040  -33.3740 S   0  0  0  0  0  0  0  0  0  0  0  0
   -4.1390   21.3890  -33.8310 O   0  0  0  0  0  0  0  0  0  0  0  0
   -2.0970   20.2390  -34.4840 O   0  0  0  0  0  0  0  0  0  0  0  0
   -3.8650   18.8680  -33.0440 N   0  0  0  0  0  0  0  0  0  0  0  0
   -4.9540   19.0370  -32.0570 C   0  0  0  0  0  0  0  0  0  0  0  0
   -5.8940   17.8280  -32.0500 C   0  0  0  0  0  0  0  0  0  0  0  0
   -6.5830   17.6540  -33.4150 C   0  0  0  0  0  0  0  0  0  0  0  0
   -5.7700   18.2600  -34.5740 C   0  0  0  0  0  0  0  0  0  0  0  0
   -4.2630   18.1760  -34.2950 C   0  0  0  0  0  0  0  0  0  0  0  0
   -2.7700   22.1880  -31.3050 C   0  0  0  0  0  0  0  0  0  0  0  0
   -5.8100   24.1310  -29.5380 N   0  0  0  0  0  0  0  0  0  0  0  0
   -7.2300   23.9840  -29.9000 C   0  0  0  0  0  0  0  0  0  0  0  0
   -7.4630   22.7760  -30.7770 C   0  0  0  0  0  0  0  0  0  0  0  0
   -6.6410   22.5440  -31.8920 C   0  0  0  0  0  0  0  0  0  0  0  0
   -6.8770   21.4460  -32.7250 C   0  0  0  0  0  0  0  0  0  0  0  0
   -7.9390   20.5770  -32.4550 C   0  0  0  0  0  0  0  0  0  0  0  0
   -8.7670   20.8080  -31.3520 C   0  0  0  0  0  0  0  0  0  0  0  0
   -8.5340   21.9060  -30.5170 C   0  0  0  0  0  0  0  0  0  0  0  0
   -0.4595   22.4554  -28.7951 H   0  0  0  0  0  0  0  0  0  0  0  0
    0.4096   20.4074  -29.9234 H   0  0  0  0  0  0  0  0  0  0  0  0
   -0.7526   19.4980  -31.9351 H   0  0  0  0  0  0  0  0  0  0  0  0
   -4.5144   19.1544  -31.0555 H   0  0  0  0  0  0  0  0  0  0  0  0
   -5.5373   19.9276  -32.3339 H   0  0  0  0  0  0  0  0  0  0  0  0
   -5.3126   16.9222  -31.8230 H   0  0  0  0  0  0  0  0  0  0  0  0
   -6.6684   17.9919  -31.2861 H   0  0  0  0  0  0  0  0  0  0  0  0
   -6.7197   16.5793  -33.6055 H   0  0  0  0  0  0  0  0  0  0  0  0
   -7.5450   18.1856  -33.3711 H   0  0  0  0  0  0  0  0  0  0  0  0
   -5.9956   17.7079  -35.4983 H   0  0  0  0  0  0  0  0  0  0  0  0
   -6.0474   19.3193  -34.6790 H   0  0  0  0  0  0  0  0  0  0  0  0
   -3.9801   17.1161  -34.2144 H   0  0  0  0  0  0  0  0  0  0  0  0
   -3.7462   18.6771  -35.1267 H   0  0  0  0  0  0  0  0  0  0  0  0
   -3.6725   22.6860  -31.6890 H   0  0  0  0  0  0  0  0  0  0  0  0
   -5.3430   23.1940  -29.5240 H   0  0  0  0  0  0  0  0  0  0  0  0
   -5.7480   24.5410  -28.5770 H   0  0  0  0  0  0  0  0  0  0  0  0
   -7.8227   23.8756  -28.9797 H   0  0  0  0  0  0  0  0  0  0  0  0
   -7.5339   24.8790  -30.4627 H   0  0  0  0  0  0  0  0  0  0  0  0
   -5.8084   23.2287  -32.1108 H   0  0  0  0  0  0  0  0  0  0  0  0
   -6.2267   21.2655  -33.5936 H   0  0  0  0  0  0  0  0  0  0  0  0
   -8.1229   19.7124  -33.1098 H   0  0  0  0  0  0  0  0  0  0  0  0
   -9.6030   20.1251  -31.1405 H   0  0  0  0  0  0  0  0  0  0  0  0
   -9.1917   22.0883  -29.6543 H   0  0  0  0  0  0  0  0  0  0  0  0
  1  2  2  0
  2  3  1  0
  3  4  1  0
  4  5  2  0
  4  6  2  0
  4  7  1  0
  7  8  2  0
  8  9  1  0
  9 10  2  0
 10 11  1  0
 11 12  1  0
 12 13  2  0
 12 14  2  0
 12 15  1  0
 15 16  1  0
 16 17  1  0
 17 18  1  0
 18 19  1  0
 19 20  1  0
 11 21  2  0
  2 22  1  0
 22 23  1  0
 23 24  1  0
 24 25  2  0
 25 26  1  0
 26 27  2  0
 27 28  1  0
 28 29  2  0
 21  7  1  0
 29 24  1  0
 20 15  1  0
  8 30  1  0
  9 31  1  0
 10 32  1  0
 16 33  1  0
 16 34  1  0
 17 35  1  0
 17 36  1  0
 18 37  1  0
 18 38  1  0
 19 39  1  0
 19 40  1  0
 20 41  1  0
 20 42  1  0
 21 43  1  0
 22 44  1  0
 22 45  1  0
 23 46  1  0
 23 47  1  0
 25 48  1  0
 26 49  1  0
 27 50  1  0
 28 51  1  0
 29 52  1  0
M  CHG  2   3  -1  22   1
M  END
>  <UniqueID>  (30) 
30

>  <SMILES>  (30) 
O=C([N-]S(=O)(=O)c1cccc(S(=O)(=O)N2CCCCC2)c1)[NH2+]Cc1ccccc1

>  <Energy>  (30) 
58.516950155645084

>  <Genealogy>  (30) 
O=C([N-]S(=O)(=O)c1cccc(S(=O)(=O)N2CCCCC2)c1)[NH2+]Cc1ccccc1 (protonated)
O=C([N-]S(=O)(=O)c1cccc(S(=O)(=O)N2CCCCC2)c1)[NH2+]Cc1ccccc1 (3D coordinates assigned)
O=C([N-]S(=O)(=O)c1cccc(S(=O)(=O)N2CCCCC2)c1)[NH2+]Cc1ccccc1 (nonaromatic ring conformer: 58.516950155645084 kcal/mol)

>  <smiles>  (30) 
O=C(NCc1ccccc1)NS(=O)(=O)c1cccc(S(=O)(=O)N2CCCCC2)c1

>  <score_type>  (30) 
oracle

>  <origin>  (30) 
adgpu

>  <m_score__min__energy>  (30) 
-10.5

>  <m_primary>  (30) 
energy

$$$$
30:0
     RDKit          3D

 53 56  0  0  0  0  0  0  0  0999 V2000
   -9.5410   19.0610  -32.4630 O   0  0  0  0  0  0  0  0  0  0  0  0
   -8.6280   19.9170  -32.3310 C   0  0  0  0  0  0  0  0  0  0  0  0
   -8.7570   21.1090  -31.5560 N   0  0  0  0  0  0  0  0  0  0  0  0
   -7.4870   21.7510  -31.6730 C   0  0  0  0  0  0  0  0  0  0  0  0
   -7.1020   22.9410  -31.0600 C   0  0  0  0  0  0  0  0  0  0  0  0
   -5.7840   23.4030  -31.2550 C   0  0  0  0  0  0  0  0  0  0  0  0
   -5.2430   24.8660  -30.4320 S   0  0  0  0  0  0  0  0  0  0  0  0
   -5.7520   24.8810  -29.0190 O   0  0  0  0  0  0  0  0  0  0  0  0
   -5.7790   26.0770  -31.1430 O   0  0  0  0  0  0  0  0  0  0  0  0
   -3.5090   24.9370  -30.4700 N   0  0  0  0  0  0  0  0  0  0  0  0
   -2.6660   24.1040  -29.6690 C   0  0  0  0  0  0  0  0  0  0  0  0
   -2.8950   22.7240  -29.5540 C   0  0  0  0  0  0  0  0  0  0  0  0
   -2.0340   21.9320  -28.7910 C   0  0  0  0  0  0  0  0  0  0  0  0
   -0.9290   22.5060  -28.1570 C   0  0  0  0  0  0  0  0  0  0  0  0
   -0.6820   23.8820  -28.2740 C   0  0  0  0  0  0  0  0  0  0  0  0
    0.5250   24.4630  -27.6490 C   0  0  0  0  0  0  0  0  0  0  0  0
    0.7660   25.6880  -27.8070 O   0  0  0  0  0  0  0  0  0  0  0  0
    1.3900   23.6970  -26.7970 N   0  0  0  0  0  0  0  0  0  0  0  0
    1.8360   24.1060  -25.4700 C   0  0  0  0  0  0  0  0  0  0  0  0
    0.9860   23.4190  -24.4010 C   0  0  0  0  0  0  0  0  0  0  0  0
   -0.4870   23.8430  -24.4680 C   0  0  0  0  0  0  0  0  0  0  0  0
   -0.6180   25.3010  -24.5030 N   0  0  0  0  0  0  0  0  0  0  0  0
    0.2700   26.2130  -23.8040 C   0  0  0  0  0  0  0  0  0  0  0  0
   -0.2170   27.6310  -24.1570 C   0  0  0  0  0  0  0  0  0  0  0  0
   -1.2260   27.4900  -25.3070 C   0  0  0  0  0  0  0  0  0  0  0  0
   -1.4440   26.0340  -25.3860 C   0  0  0  0  0  0  0  0  0  0  0  0
   -2.2650   25.4940  -26.1740 O   0  0  0  0  0  0  0  0  0  0  0  0
   -1.5840   24.6820  -28.9950 C   0  0  0  0  0  0  0  0  0  0  0  0
   -4.8930   22.6680  -32.0750 C   0  0  0  0  0  0  0  0  0  0  0  0
   -5.3040   21.4730  -32.6890 C   0  0  0  0  0  0  0  0  0  0  0  0
   -6.6070   21.0370  -32.4640 C   0  0  0  0  0  0  0  0  0  0  0  0
   -7.2960   19.8400  -32.9140 C   0  0  0  0  0  0  0  0  0  0  0  0
   -6.8350   18.9220  -33.6430 O   0  0  0  0  0  0  0  0  0  0  0  0
   -9.5800   21.4180  -30.9940 H   0  0  0  0  0  0  0  0  0  0  0  0
   -7.8102   23.5077  -30.4377 H   0  0  0  0  0  0  0  0  0  0  0  0
   -3.7540   22.2655  -30.0657 H   0  0  0  0  0  0  0  0  0  0  0  0
   -2.2263   20.8538  -28.6889 H   0  0  0  0  0  0  0  0  0  0  0  0
   -0.2498   21.8762  -27.5636 H   0  0  0  0  0  0  0  0  0  0  0  0
    2.8902   23.8221  -25.3359 H   0  0  0  0  0  0  0  0  0  0  0  0
    1.7294   25.1964  -25.3721 H   0  0  0  0  0  0  0  0  0  0  0  0
    1.0478   22.3303  -24.5455 H   0  0  0  0  0  0  0  0  0  0  0  0
    1.3776   23.7162  -23.4170 H   0  0  0  0  0  0  0  0  0  0  0  0
   -0.9410   23.4202  -25.3764 H   0  0  0  0  0  0  0  0  0  0  0  0
   -0.9980   23.4692  -23.5685 H   0  0  0  0  0  0  0  0  0  0  0  0
    0.2108   26.0475  -22.7181 H   0  0  0  0  0  0  0  0  0  0  0  0
    1.3186   26.0612  -24.0995 H   0  0  0  0  0  0  0  0  0  0  0  0
   -0.7023   28.0914  -23.2838 H   0  0  0  0  0  0  0  0  0  0  0  0
    0.6266   28.2718  -24.4532 H   0  0  0  0  0  0  0  0  0  0  0  0
   -2.1634   28.0174  -25.0764 H   0  0  0  0  0  0  0  0  0  0  0  0
   -0.8675   27.9248  -26.2517 H   0  0  0  0  0  0  0  0  0  0  0  0
   -1.4387   25.7718  -29.0302 H   0  0  0  0  0  0  0  0  0  0  0  0
   -3.8687   23.0367  -32.2327 H   0  0  0  0  0  0  0  0  0  0  0  0
   -4.6170   20.8991  -33.3283 H   0  0  0  0  0  0  0  0  0  0  0  0
  1  2  2  0
  2  3  1  0
  3  4  1  0
  4  5  2  0
  5  6  1  0
  6  7  1  0
  7  8  2  0
  7  9  2  0
  7 10  1  0
 10 11  1  0
 11 12  2  0
 12 13  1  0
 13 14  2  0
 14 15  1  0
 15 16  1  0
 16 17  2  0
 16 18  1  0
 18 19  1  0
 19 20  1  0
 20 21  1  0
 21 22  1  0
 22 23  1  0
 23 24  1  0
 24 25  1  0
 25 26  1  0
 26 27  2  0
 15 28  2  0
  6 29  2  0
 29 30  1  0
 30 31  2  0
 31 32  1  0
 32 33  2  0
 32  2  1  0
 31  4  1  0
 28 11  1  0
 26 22  1  0
  3 34  1  0
  5 35  1  0
 12 36  1  0
 13 37  1  0
 14 38  1  0
 19 39  1  0
 19 40  1  0
 20 41  1  0
 20 42  1  0
 21 43  1  0
 21 44  1  0
 23 45  1  0
 23 46  1  0
 24 47  1  0
 24 48  1  0
 25 49  1  0
 25 50  1  0
 28 51  1  0
 29 52  1  0
 30 53  1  0
M  CHG  2  10  -1  18  -1
M  END
>  <UniqueID>  (31) 
31

>  <SMILES>  (31) 
O=C1Nc2cc(S(=O)(=O)[N-]c3cccc(C(=O)[N-]CCCN4CCCC4=O)c3)ccc2C1=O

>  <Energy>  (31) 
95.42738841190477

>  <Genealogy>  (31) 
O=C1Nc2cc(S(=O)(=O)[N-]c3cccc(C(=O)[N-]CCCN4CCCC4=O)c3)ccc2C1=O (protonated)
O=C1Nc2cc(S(=O)(=O)[N-]c3cccc(C(=O)[N-]CCCN4CCCC4=O)c3)ccc2C1=O (3D coordinates assigned)
O=C1Nc2cc(S(=O)(=O)[N-]c3cccc(C(=O)[N-]CCCN4CCCC4=O)c3)ccc2C1=O (nonaromatic ring conformer: 95.42738841190477 kcal/mol)

>  <smiles>  (31) 
O=C1Nc2cc(S(=O)(=O)Nc3cccc(C(=O)NCCCN4CCCC4=O)c3)ccc2C1=O

>  <score_type>  (31) 
oracle

>  <origin>  (31) 
adgpu

>  <m_score__min__energy>  (31) 
-11.640000000000001

>  <m_primary>  (31) 
energy

$$$$
31:0
     RDKit          3D

 70 74  0  0  0  0  0  0  0  0999 V2000
    2.3130   21.1380  -35.4220 O   0  0  0  0  0  0  0  0  0  0  0  0
    1.2510   21.8180  -35.4580 C   0  0  0  0  0  0  0  0  0  0  0  0
   -0.0010   21.2350  -35.0480 N   0  0  0  0  0  0  0  0  0  0  0  0
   -0.1450   19.9040  -34.5210 C   0  0  0  0  0  0  0  0  0  0  0  0
   -1.1770   19.6400  -33.6080 C   0  0  0  0  0  0  0  0  0  0  0  0
   -1.3600   18.3530  -33.0960 C   0  0  0  0  0  0  0  0  0  0  0  0
   -0.5170   17.3100  -33.4960 C   0  0  0  0  0  0  0  0  0  0  0  0
   -0.7850   15.6750  -32.9010 S   0  0  0  0  0  0  0  0  0  0  0  0
   -0.0140   14.6890  -33.7350 O   0  0  0  0  0  0  0  0  0  0  0  0
   -0.3090   15.5610  -31.4790 O   0  0  0  0  0  0  0  0  0  0  0  0
   -2.5050   15.3270  -33.0010 C   0  0  0  0  0  0  0  0  0  0  0  0
   -3.0130   14.1000  -32.5510 C   0  0  0  0  0  0  0  0  0  0  0  0
   -4.3910   13.8690  -32.5620 C   0  0  0  0  0  0  0  0  0  0  0  0
   -5.2670   14.8640  -33.0020 C   0  0  0  0  0  0  0  0  0  0  0  0
   -4.7670   16.0990  -33.4420 C   0  0  0  0  0  0  0  0  0  0  0  0
   -5.8690   17.3890  -33.9260 S   0  0  0  0  0  0  0  0  0  0  0  0
   -5.3570   18.0260  -35.1890 O   0  0  0  0  0  0  0  0  0  0  0  0
   -7.2210   16.8000  -34.2210 O   0  0  0  0  0  0  0  0  0  0  0  0
   -6.0340   18.6100  -32.6810 N   0  0  0  0  0  0  0  0  0  0  0  0
   -6.7690   18.0960  -31.5200 C   0  0  0  0  0  0  0  0  0  0  0  0
   -8.2150   18.5630  -31.6180 C   0  0  0  0  0  0  0  0  0  0  0  0
   -8.2400   19.6120  -32.7110 C   0  0  0  0  0  0  0  0  0  0  0  0
   -6.7970   19.7630  -33.1710 C   0  0  0  0  0  0  0  0  0  0  0  0
   -3.3830   16.3170  -33.4560 C   0  0  0  0  0  0  0  0  0  0  0  0
    0.4950   17.5580  -34.4320 C   0  0  0  0  0  0  0  0  0  0  0  0
    0.6750   18.8450  -34.9500 C   0  0  0  0  0  0  0  0  0  0  0  0
    1.3180   23.2250  -35.9150 C   0  0  0  0  0  0  0  0  0  0  0  0
    2.5660   23.8390  -36.1160 C   0  0  0  0  0  0  0  0  0  0  0  0
    2.6410   25.1690  -36.5400 C   0  0  0  0  0  0  0  0  0  0  0  0
    1.4720   25.9080  -36.7590 C   0  0  0  0  0  0  0  0  0  0  0  0
    1.5660   27.5870  -37.3020 S   0  0  0  0  0  0  0  0  0  0  0  0
    3.0010   28.0360  -37.2780 O   0  0  0  0  0  0  0  0  0  0  0  0
    1.0740   27.6780  -38.7180 O   0  0  0  0  0  0  0  0  0  0  0  0
    0.6090   28.6450  -36.2910 N   0  0  0  0  0  0  0  0  0  0  0  0
    0.4260   28.0540  -34.9520 C   0  0  0  0  0  0  0  0  0  0  0  0
   -0.7710   28.7010  -34.2350 C   0  0  0  0  0  0  0  0  0  0  0  0
   -2.0100   28.5550  -34.9190 O   0  0  0  0  0  0  0  0  0  0  0  0
   -1.8720   28.2940  -36.3080 C   0  0  0  0  0  0  0  0  0  0  0  0
   -0.6680   29.0160  -36.9410 C   0  0  0  0  0  0  0  0  0  0  0  0
    0.2250   25.3090  -36.5350 C   0  0  0  0  0  0  0  0  0  0  0  0
    0.1470   23.9780  -36.1190 C   0  0  0  0  0  0  0  0  0  0  0  0
   -0.8580   21.8310  -35.0650 H   0  0  0  0  0  0  0  0  0  0  0  0
   -1.8476   20.4530  -33.2927 H   0  0  0  0  0  0  0  0  0  0  0  0
   -2.1690   18.1590  -32.3764 H   0  0  0  0  0  0  0  0  0  0  0  0
   -2.3271   13.3197  -32.1895 H   0  0  0  0  0  0  0  0  0  0  0  0
   -4.7872   12.9004  -32.2231 H   0  0  0  0  0  0  0  0  0  0  0  0
   -6.3513   14.6790  -33.0036 H   0  0  0  0  0  0  0  0  0  0  0  0
   -6.7337   16.9966  -31.5155 H   0  0  0  0  0  0  0  0  0  0  0  0
   -6.3145   18.4697  -30.5906 H   0  0  0  0  0  0  0  0  0  0  0  0
   -8.8720   17.7208  -31.8810 H   0  0  0  0  0  0  0  0  0  0  0  0
   -8.5738   18.9689  -30.6607 H   0  0  0  0  0  0  0  0  0  0  0  0
   -8.8758   19.2812  -33.5455 H   0  0  0  0  0  0  0  0  0  0  0  0
   -8.6523   20.5654  -32.3490 H   0  0  0  0  0  0  0  0  0  0  0  0
   -6.7584   19.7947  -34.2699 H   0  0  0  0  0  0  0  0  0  0  0  0
   -6.3691   20.6961  -32.7758 H   0  0  0  0  0  0  0  0  0  0  0  0
   -2.9841   17.2726  -33.8271 H   0  0  0  0  0  0  0  0  0  0  0  0
    1.1504   16.7381  -34.7609 H   0  0  0  0  0  0  0  0  0  0  0  0
    1.4616   19.0296  -35.6964 H   0  0  0  0  0  0  0  0  0  0  0  0
    3.4901   23.2693  -35.9385 H   0  0  0  0  0  0  0  0  0  0  0  0
    3.6230   25.6372  -36.7024 H   0  0  0  0  0  0  0  0  0  0  0  0
    0.2452   26.9739  -35.0550 H   0  0  0  0  0  0  0  0  0  0  0  0
    1.3345   28.2323  -34.3580 H   0  0  0  0  0  0  0  0  0  0  0  0
   -0.8689   28.2387  -33.2417 H   0  0  0  0  0  0  0  0  0  0  0  0
   -0.5633   29.7801  -34.1848 H   0  0  0  0  0  0  0  0  0  0  0  0
   -1.7448   27.2106  -36.4498 H   0  0  0  0  0  0  0  0  0  0  0  0
   -2.7786   28.6704  -36.8044 H   0  0  0  0  0  0  0  0  0  0  0  0
   -0.6143   28.7485  -38.0066 H   0  0  0  0  0  0  0  0  0  0  0  0
   -0.8138   30.0981  -36.8077 H   0  0  0  0  0  0  0  0  0  0  0  0
   -0.6966   25.8898  -36.6875 H   0  0  0  0  0  0  0  0  0  0  0  0
   -0.8365   23.5153  -35.9497 H   0  0  0  0  0  0  0  0  0  0  0  0
  1  2  2  0
  2  3  1  0
  3  4  1  0
  4  5  2  0
  5  6  1  0
  6  7  2  0
  7  8  1  0
  8  9  2  0
  8 10  2  0
  8 11  1  0
 11 12  2  0
 12 13  1  0
 13 14  2  0
 14 15  1  0
 15 16  1  0
 16 17  2  0
 16 18  2  0
 16 19  1  0
 19 20  1  0
 20 21  1  0
 21 22  1  0
 22 23  1  0
 15 24  2  0
  7 25  1  0
 25 26  2  0
  2 27  1  0
 27 28  2  0
 28 29  1  0
 29 30  2  0
 30 31  1  0
 31 32  2  0
 31 33  2  0
 31 34  1  0
 34 35  1  0
 35 36  1  0
 36 37  1  0
 37 38  1  0
 38 39  1  0
 30 40  1  0
 40 41  2  0
 26  4  1  0
 41 27  1  0
 24 11  1  0
 39 34  1  0
 23 19  1  0
  3 42  1  0
  5 43  1  0
  6 44  1  0
 12 45  1  0
 13 46  1  0
 14 47  1  0
 20 48  1  0
 20 49  1  0
 21 50  1  0
 21 51  1  0
 22 52  1  0
 22 53  1  0
 23 54  1  0
 23 55  1  0
 24 56  1  0
 25 57  1  0
 26 58  1  0
 28 59  1  0
 29 60  1  0
 35 61  1  0
 35 62  1  0
 36 63  1  0
 36 64  1  0
 38 65  1  0
 38 66  1  0
 39 67  1  0
 39 68  1  0
 40 69  1  0
 41 70  1  0
M  END
>  <UniqueID>  (32) 
32

>  <SMILES>  (32) 
O=C(Nc1ccc(S(=O)(=O)c2cccc(S(=O)(=O)N3CCCC3)c2)cc1)c1ccc(S(=O)(=O)N2CCOCC2)cc1

>  <Energy>  (32) 
92.99171492518417

>  <Genealogy>  (32) 
O=C(Nc1ccc(S(=O)(=O)c2cccc(S(=O)(=O)N3CCCC3)c2)cc1)c1ccc(S(=O)(=O)N2CCOCC2)cc1 (3D coordinates assigned)
O=C(Nc1ccc(S(=O)(=O)c2cccc(S(=O)(=O)N3CCCC3)c2)cc1)c1ccc(S(=O)(=O)N2CCOCC2)cc1 (nonaromatic ring conformer: 92.99171492518417 kcal/mol)

>  <smiles>  (32) 
O=C(Nc1ccc(S(=O)(=O)c2cccc(S(=O)(=O)N3CCCC3)c2)cc1)c1ccc(S(=O)(=O)N2CCOCC2)cc1

>  <score_type>  (32) 
oracle

>  <origin>  (32) 
adgpu

>  <m_score__min__energy>  (32) 
-10.380000000000001

>  <m_primary>  (32) 
energy

$$$$
32:0
     RDKit          3D

 46 49  0  0  0  0  0  0  0  0999 V2000
   -4.6410   25.6580  -31.2150 O   0  0  0  0  0  0  0  0  0  0  0  0
   -5.4300   24.7900  -30.2760 S   0  0  0  0  0  0  0  0  0  0  0  0
   -6.7730   25.4220  -30.0350 O   0  0  0  0  0  0  0  0  0  0  0  0
   -4.5850   24.6590  -28.7650 N   0  0  0  0  0  0  0  0  0  0  0  0
   -3.4250   23.8260  -28.5790 C   0  0  0  0  0  0  0  0  0  0  0  0
   -3.5440   22.5070  -28.1040 C   0  0  0  0  0  0  0  0  0  0  0  0
   -2.4130   21.6930  -27.9500 C   0  0  0  0  0  0  0  0  0  0  0  0
   -1.1420   22.1950  -28.2910 C   0  0  0  0  0  0  0  0  0  0  0  0
   -1.0170   23.5200  -28.7280 C   0  0  0  0  0  0  0  0  0  0  0  0
   -2.1460   24.3300  -28.8760 C   0  0  0  0  0  0  0  0  0  0  0  0
   -1.9890   25.6340  -29.3330 O   0  0  0  0  0  0  0  0  0  0  0  0
    0.0990   21.3550  -28.0900 C   0  0  0  0  0  0  0  0  0  0  0  0
   -0.2010   19.9170  -28.0550 N   0  0  0  0  0  0  0  0  0  0  0  0
   -1.2600   19.6300  -27.0800 C   0  0  0  0  0  0  0  0  0  0  0  0
   -2.5890   20.2610  -27.5140 C   0  0  0  0  0  0  0  0  0  0  0  0
   -5.6100   23.1930  -30.9970 C   0  0  0  0  0  0  0  0  0  0  0  0
   -4.4940   22.4990  -31.4820 C   0  0  0  0  0  0  0  0  0  0  0  0
   -4.6520   21.2530  -32.0940 C   0  0  0  0  0  0  0  0  0  0  0  0
   -5.9310   20.6800  -32.2280 C   0  0  0  0  0  0  0  0  0  0  0  0
   -6.1010   19.3610  -32.8890 C   0  0  0  0  0  0  0  0  0  0  0  0
   -5.6060   19.1420  -34.1890 C   0  0  0  0  0  0  0  0  0  0  0  0
   -5.7710   17.9000  -34.8100 C   0  0  0  0  0  0  0  0  0  0  0  0
   -6.4280   16.8640  -34.1420 C   0  0  0  0  0  0  0  0  0  0  0  0
   -6.9230   17.0690  -32.8520 C   0  0  0  0  0  0  0  0  0  0  0  0
   -6.7620   18.3090  -32.2260 C   0  0  0  0  0  0  0  0  0  0  0  0
   -7.0450   21.3800  -31.7300 C   0  0  0  0  0  0  0  0  0  0  0  0
   -6.8830   22.6260  -31.1190 C   0  0  0  0  0  0  0  0  0  0  0  0
   -4.8710   25.3200  -28.0090 H   0  0  0  0  0  0  0  0  0  0  0  0
   -4.5376   22.1092  -27.8501 H   0  0  0  0  0  0  0  0  0  0  0  0
   -0.0209   23.9266  -28.9568 H   0  0  0  0  0  0  0  0  0  0  0  0
    0.7967   21.5508  -28.9176 H   0  0  0  0  0  0  0  0  0  0  0  0
    0.5388   21.6309  -27.1202 H   0  0  0  0  0  0  0  0  0  0  0  0
   -0.5170   19.6130  -29.0060 H   0  0  0  0  0  0  0  0  0  0  0  0
   -1.3884   18.5406  -26.9979 H   0  0  0  0  0  0  0  0  0  0  0  0
   -0.9688   20.0568  -26.1089 H   0  0  0  0  0  0  0  0  0  0  0  0
   -3.0010   19.6814  -28.3532 H   0  0  0  0  0  0  0  0  0  0  0  0
   -3.2715   20.2477  -26.6514 H   0  0  0  0  0  0  0  0  0  0  0  0
   -3.4899   22.9365  -31.3807 H   0  0  0  0  0  0  0  0  0  0  0  0
   -3.7706   20.7157  -32.4740 H   0  0  0  0  0  0  0  0  0  0  0  0
   -5.0861   19.9533  -34.7195 H   0  0  0  0  0  0  0  0  0  0  0  0
   -5.3827   17.7385  -35.8264 H   0  0  0  0  0  0  0  0  0  0  0  0
   -6.5555   15.8872  -34.6316 H   0  0  0  0  0  0  0  0  0  0  0  0
   -7.4409   16.2527  -32.3271 H   0  0  0  0  0  0  0  0  0  0  0  0
   -7.1539   18.4636  -31.2099 H   0  0  0  0  0  0  0  0  0  0  0  0
   -8.0504   20.9434  -31.8223 H   0  0  0  0  0  0  0  0  0  0  0  0
   -7.7610   23.1639  -30.7319 H   0  0  0  0  0  0  0  0  0  0  0  0
  1  2  2  0
  2  3  2  0
  2  4  1  0
  4  5  1  0
  5  6  2  0
  6  7  1  0
  7  8  2  0
  8  9  1  0
  9 10  2  0
 10 11  1  0
  8 12  1  0
 12 13  1  0
 13 14  1  0
 14 15  1  0
  2 16  1  0
 16 17  2  0
 17 18  1  0
 18 19  2  0
 19 20  1  0
 20 21  2  0
 21 22  1  0
 22 23  2  0
 23 24  1  0
 24 25  2  0
 19 26  1  0
 26 27  2  0
 10  5  1  0
 27 16  1  0
 15  7  1  0
 25 20  1  0
  4 28  1  0
  6 29  1  0
  9 30  1  0
 12 31  1  0
 12 32  1  0
 13 33  1  0
 14 34  1  0
 14 35  1  0
 15 36  1  0
 15 37  1  0
 17 38  1  0
 18 39  1  0
 21 40  1  0
 22 41  1  0
 23 42  1  0
 24 43  1  0
 25 44  1  0
 26 45  1  0
 27 46  1  0
M  CHG  1  11  -1
M  END
>  <UniqueID>  (33) 
33

>  <SMILES>  (33) 
O=S(=O)(Nc1cc2c(cc1[O-])CNCC2)c1ccc(-c2ccccc2)cc1

>  <Energy>  (33) 
60.026320460006794

>  <Genealogy>  (33) 
O=S(=O)(Nc1cc2c(cc1[O-])CNCC2)c1ccc(-c2ccccc2)cc1 (protonated)
O=S(=O)(Nc1cc2c(cc1[O-])CNCC2)c1ccc(-c2ccccc2)cc1 (3D coordinates assigned)
O=S(=O)(Nc1cc2c(cc1[O-])CNCC2)c1ccc(-c2ccccc2)cc1 (nonaromatic ring conformer: 60.026320460006794 kcal/mol)

>  <smiles>  (33) 
O=S(=O)(Nc1cc2c(cc1O)CNCC2)c1ccc(-c2ccccc2)cc1

>  <score_type>  (33) 
oracle

>  <origin>  (33) 
adgpu

>  <m_score__min__energy>  (33) 
-14.01

>  <m_primary>  (33) 
energy

$$$$
33:0
     RDKit          3D

 40 42  0  0  0  0  0  0  0  0999 V2000
   -7.3590   18.7940  -31.8240 C   0  0  0  0  0  0  0  0  0  0  0  0
   -7.7980   19.7780  -32.8330 N   0  0  1  0  0  0  0  0  0  0  0  0
   -9.0780   20.4250  -32.4720 C   0  0  0  0  0  0  0  0  0  0  0  0
   -8.9680   21.2770  -31.1970 C   0  0  0  0  0  0  0  0  0  0  0  0
   -7.7190   22.1100  -31.1720 C   0  0  0  0  0  0  0  0  0  0  0  0
   -7.6030   23.0930  -30.2390 N   0  0  0  0  0  0  0  0  0  0  0  0
   -6.4840   23.8550  -30.1270 C   0  0  0  0  0  0  0  0  0  0  0  0
   -5.4030   23.6490  -30.9880 C   0  0  0  0  0  0  0  0  0  0  0  0
   -4.2330   24.4670  -30.8510 N   0  0  0  0  0  0  0  0  0  0  0  0
   -3.1210   24.2140  -29.9800 C   0  0  0  0  0  0  0  0  0  0  0  0
   -2.6200   25.1810  -29.3460 O   0  0  0  0  0  0  0  0  0  0  0  0
   -2.5170   22.8670  -29.8460 C   0  0  0  0  0  0  0  0  0  0  0  0
   -1.8610   22.2630  -30.9310 C   0  0  0  0  0  0  0  0  0  0  0  0
   -1.3130   20.9850  -30.8020 C   0  0  0  0  0  0  0  0  0  0  0  0
   -1.3950   20.3050  -29.5840 C   0  0  0  0  0  0  0  0  0  0  0  0
   -2.0070   20.9100  -28.4730 C   0  0  0  0  0  0  0  0  0  0  0  0
   -2.1370   20.1600  -27.1720 C   0  0  0  0  0  0  0  0  0  0  0  0
   -1.4370   18.9660  -27.2230 F   0  0  0  0  0  0  0  0  0  0  0  0
   -3.4650   19.8700  -26.9030 F   0  0  0  0  0  0  0  0  0  0  0  0
   -1.6300   20.9360  -26.1460 F   0  0  0  0  0  0  0  0  0  0  0  0
   -2.5810   22.1850  -28.6190 C   0  0  0  0  0  0  0  0  0  0  0  0
   -5.4810   22.6140  -31.9330 C   0  0  0  0  0  0  0  0  0  0  0  0
   -6.6380   21.8310  -32.0290 C   0  0  0  0  0  0  0  0  0  0  0  0
   -6.7490   20.7840  -33.1120 C   0  0  0  0  0  0  0  0  0  0  0  0
   -7.5388   19.1970  -30.8164 H   0  0  0  0  0  0  0  0  0  0  0  0
   -7.9258   17.8600  -31.9519 H   0  0  0  0  0  0  0  0  0  0  0  0
   -6.2853   18.5918  -31.9519 H   0  0  0  0  0  0  0  0  0  0  0  0
   -7.9630   19.2470  -33.7220 H   0  0  0  0  0  0  0  0  0  0  0  0
   -9.3925   21.0731  -33.3033 H   0  0  0  0  0  0  0  0  0  0  0  0
   -9.8123   19.6289  -32.2797 H   0  0  0  0  0  0  0  0  0  0  0  0
   -9.8398   21.9456  -31.1424 H   0  0  0  0  0  0  0  0  0  0  0  0
   -8.9317   20.5916  -30.3374 H   0  0  0  0  0  0  0  0  0  0  0  0
   -6.4287   24.6372  -29.3555 H   0  0  0  0  0  0  0  0  0  0  0  0
   -1.7784   22.7995  -31.8877 H   0  0  0  0  0  0  0  0  0  0  0  0
   -0.8154   20.5123  -31.6616 H   0  0  0  0  0  0  0  0  0  0  0  0
   -0.9784   19.2909  -29.4944 H   0  0  0  0  0  0  0  0  0  0  0  0
   -3.0864   22.6545  -27.7622 H   0  0  0  0  0  0  0  0  0  0  0  0
   -4.6296   22.4171  -32.6011 H   0  0  0  0  0  0  0  0  0  0  0  0
   -6.9866   21.2851  -34.0620 H   0  0  0  0  0  0  0  0  0  0  0  0
   -5.7864   20.2538  -33.1594 H   0  0  0  0  0  0  0  0  0  0  0  0
  1  2  1  0
  2  3  1  0
  3  4  1  0
  4  5  1  0
  5  6  2  0
  6  7  1  0
  7  8  2  0
  8  9  1  0
  9 10  1  0
 10 11  2  0
 10 12  1  0
 12 13  2  0
 13 14  1  0
 14 15  2  0
 15 16  1  0
 16 17  1  0
 17 18  1  0
 17 19  1  0
 17 20  1  0
 16 21  2  0
  8 22  1  0
 22 23  2  0
 23 24  1  0
 24  2  1  0
 23  5  1  0
 21 12  1  0
  1 25  1  0
  1 26  1  0
  1 27  1  0
  2 28  1  6
  3 29  1  0
  3 30  1  0
  4 31  1  0
  4 32  1  0
  7 33  1  0
 13 34  1  0
 14 35  1  0
 15 36  1  0
 21 37  1  0
 22 38  1  0
 24 39  1  0
 24 40  1  0
M  CHG  2   2   1   9  -1
M  END
>  <UniqueID>  (34) 
34

>  <SMILES>  (34) 
C[N@H+]1CCc2ncc([N-]C(=O)c3cccc(C(F)(F)F)c3)cc2C1

>  <Energy>  (34) 
54.09736904429217

>  <Genealogy>  (34) 
C[NH+]1CCc2ncc([N-]C(=O)c3cccc(C(F)(F)F)c3)cc2C1 (protonated)
C[N@H+]1CCc2ncc([N-]C(=O)c3cccc(C(F)(F)F)c3)cc2C1 (chirality)
C[N@H+]1CCc2ncc([N-]C(=O)c3cccc(C(F)(F)F)c3)cc2C1 (3D coordinates assigned)
C[N@H+]1CCc2ncc([N-]C(=O)c3cccc(C(F)(F)F)c3)cc2C1 (nonaromatic ring conformer: 54.09736904429217 kcal/mol)

>  <smiles>  (34) 
CN1CCc2ncc(NC(=O)c3cccc(C(F)(F)F)c3)cc2C1

>  <score_type>  (34) 
oracle

>  <origin>  (34) 
adgpu

>  <m_score__min__energy>  (34) 
-8.8499999999999996

>  <m_primary>  (34) 
energy

$$$$
34:0
     RDKit          3D

 65 69  0  0  0  0  0  0  0  0999 V2000
   -4.3770   24.5150  -30.7870 O   0  0  0  0  0  0  0  0  0  0  0  0
   -4.2480   23.3210  -30.4000 C   0  0  0  0  0  0  0  0  0  0  0  0
   -3.7340   23.0790  -29.0830 N   0  0  0  0  0  0  0  0  0  0  0  0
   -4.5840   23.3790  -27.9230 C   0  0  0  0  0  0  0  0  0  0  0  0
   -3.9850   24.5470  -27.1260 C   0  0  0  0  0  0  0  0  0  0  0  0
   -2.5220   24.4180  -26.9990 N   0  0  0  0  0  0  0  0  0  0  0  0
   -1.7420   25.5640  -26.5940 C   0  0  0  0  0  0  0  0  0  0  0  0
   -0.8900   26.2040  -27.5130 C   0  0  0  0  0  0  0  0  0  0  0  0
   -0.1170   27.2990  -27.1150 C   0  0  0  0  0  0  0  0  0  0  0  0
   -0.1840   27.7650  -25.8000 C   0  0  0  0  0  0  0  0  0  0  0  0
   -1.0190   27.1320  -24.8770 C   0  0  0  0  0  0  0  0  0  0  0  0
   -1.7940   26.0360  -25.2690 C   0  0  0  0  0  0  0  0  0  0  0  0
   -1.8690   23.1840  -27.4590 C   0  0  0  0  0  0  0  0  0  0  0  0
   -2.2830   22.9050  -28.9070 C   0  0  0  0  0  0  0  0  0  0  0  0
   -4.7210   22.1910  -31.3050 C   0  0  0  0  0  0  0  0  0  0  0  0
   -6.2550   22.3250  -31.4480 C   0  0  0  0  0  0  0  0  0  0  0  0
   -7.0880   21.3500  -30.8530 C   0  0  0  0  0  0  0  0  0  0  0  0
   -8.4800   21.4270  -30.9600 C   0  0  0  0  0  0  0  0  0  0  0  0
   -9.0700   22.4730  -31.6680 C   0  0  0  0  0  0  0  0  0  0  0  0
   -8.2720   23.4390  -32.2770 C   0  0  0  0  0  0  0  0  0  0  0  0
   -6.8790   23.3710  -32.1730 C   0  0  0  0  0  0  0  0  0  0  0  0
   -4.2460   20.8570  -30.6510 C   0  0  0  0  0  0  0  0  0  0  0  0
   -4.3110   19.6410  -31.6050 C   0  0  0  0  0  0  0  0  0  0  0  0
   -5.0680   19.9650  -32.8240 N   0  0  0  0  0  0  0  0  0  0  0  0
   -5.2590   18.5380  -33.8100 S   0  0  0  0  0  0  0  0  0  0  0  0
   -5.8540   18.9110  -35.1410 O   0  0  0  0  0  0  0  0  0  0  0  0
   -6.1700   17.5600  -33.1220 O   0  0  0  0  0  0  0  0  0  0  0  0
   -3.6860   17.7810  -34.0380 C   0  0  0  0  0  0  0  0  0  0  0  0
   -2.5390   18.5770  -34.1350 C   0  0  0  0  0  0  0  0  0  0  0  0
   -1.2960   17.9840  -34.3640 C   0  0  0  0  0  0  0  0  0  0  0  0
   -1.2150   16.5950  -34.4840 C   0  0  0  0  0  0  0  0  0  0  0  0
   -2.3380   15.8340  -34.3810 N   0  0  0  0  0  0  0  0  0  0  0  0
   -3.5600   16.3900  -34.1620 C   0  0  0  0  0  0  0  0  0  0  0  0
   -4.4000   21.0300  -33.5920 C   0  0  0  0  0  0  0  0  0  0  0  0
   -4.0610   22.2560  -32.7120 C   0  0  0  0  0  0  0  0  0  0  0  0
   -5.5915   23.6524  -28.2697 H   0  0  0  0  0  0  0  0  0  0  0  0
   -4.6422   22.4909  -27.2766 H   0  0  0  0  0  0  0  0  0  0  0  0
   -4.2175   25.4896  -27.6432 H   0  0  0  0  0  0  0  0  0  0  0  0
   -4.4221   24.5372  -26.1166 H   0  0  0  0  0  0  0  0  0  0  0  0
   -0.8318   25.8410  -28.5498 H   0  0  0  0  0  0  0  0  0  0  0  0
    0.5457   27.7948  -27.8395 H   0  0  0  0  0  0  0  0  0  0  0  0
    0.4209   28.6304  -25.4915 H   0  0  0  0  0  0  0  0  0  0  0  0
   -1.0672   27.4960  -23.8401 H   0  0  0  0  0  0  0  0  0  0  0  0
   -2.4484   25.5396  -24.5373 H   0  0  0  0  0  0  0  0  0  0  0  0
   -0.7768   23.3035  -27.4051 H   0  0  0  0  0  0  0  0  0  0  0  0
   -2.1745   22.3433  -26.8187 H   0  0  0  0  0  0  0  0  0  0  0  0
   -1.7536   23.6020  -29.5733 H   0  0  0  0  0  0  0  0  0  0  0  0
   -2.0222   21.8649  -29.1521 H   0  0  0  0  0  0  0  0  0  0  0  0
   -6.6335   20.5170  -30.2966 H   0  0  0  0  0  0  0  0  0  0  0  0
   -9.1105   20.6611  -30.4848 H   0  0  0  0  0  0  0  0  0  0  0  0
  -10.1655   22.5356  -31.7458 H   0  0  0  0  0  0  0  0  0  0  0  0
   -8.7396   24.2588  -32.8421 H   0  0  0  0  0  0  0  0  0  0  0  0
   -6.2599   24.1389  -32.6599 H   0  0  0  0  0  0  0  0  0  0  0  0
   -3.2047   20.9837  -30.3198 H   0  0  0  0  0  0  0  0  0  0  0  0
   -4.9289   20.6472  -29.8146 H   0  0  0  0  0  0  0  0  0  0  0  0
   -3.2881   19.3483  -31.8843 H   0  0  0  0  0  0  0  0  0  0  0  0
   -4.8207   18.8160  -31.0858 H   0  0  0  0  0  0  0  0  0  0  0  0
   -2.6168   19.6693  -34.0309 H   0  0  0  0  0  0  0  0  0  0  0  0
   -0.3911   18.6036  -34.4489 H   0  0  0  0  0  0  0  0  0  0  0  0
   -0.2413   16.1153  -34.6622 H   0  0  0  0  0  0  0  0  0  0  0  0
   -4.4497   15.7481  -34.0821 H   0  0  0  0  0  0  0  0  0  0  0  0
   -3.4677   20.6296  -34.0169 H   0  0  0  0  0  0  0  0  0  0  0  0
   -5.0891   21.3607  -34.3830 H   0  0  0  0  0  0  0  0  0  0  0  0
   -2.9694   22.3067  -32.5858 H   0  0  0  0  0  0  0  0  0  0  0  0
   -4.4555   23.1476  -33.2213 H   0  0  0  0  0  0  0  0  0  0  0  0
  1  2  2  0
  2  3  1  0
  3  4  1  0
  4  5  1  0
  5  6  1  0
  6  7  1  0
  7  8  2  0
  8  9  1  0
  9 10  2  0
 10 11  1  0
 11 12  2  0
  6 13  1  0
 13 14  1  0
  2 15  1  0
 15 16  1  0
 16 17  2  0
 17 18  1  0
 18 19  2  0
 19 20  1  0
 20 21  2  0
 15 22  1  0
 22 23  1  0
 23 24  1  0
 24 25  1  0
 25 26  2  0
 25 27  2  0
 25 28  1  0
 28 29  2  0
 29 30  1  0
 30 31  2  0
 31 32  1  0
 32 33  2  0
 24 34  1  0
 34 35  1  0
 14  3  1  0
 35 15  1  0
 12  7  1  0
 21 16  1  0
 33 28  1  0
  4 36  1  0
  4 37  1  0
  5 38  1  0
  5 39  1  0
  8 40  1  0
  9 41  1  0
 10 42  1  0
 11 43  1  0
 12 44  1  0
 13 45  1  0
 13 46  1  0
 14 47  1  0
 14 48  1  0
 17 49  1  0
 18 50  1  0
 19 51  1  0
 20 52  1  0
 21 53  1  0
 22 54  1  0
 22 55  1  0
 23 56  1  0
 23 57  1  0
 29 58  1  0
 30 59  1  0
 31 60  1  0
 33 61  1  0
 34 62  1  0
 34 63  1  0
 35 64  1  0
 35 65  1  0
M  END
>  <UniqueID>  (35) 
35

>  <SMILES>  (35) 
O=C(N1CCN(c2ccccc2)CC1)C1(c2ccccc2)CCN(S(=O)(=O)c2cccnc2)CC1

>  <Energy>  (35) 
92.94050888481254

>  <Genealogy>  (35) 
O=C(N1CCN(c2ccccc2)CC1)C1(c2ccccc2)CCN(S(=O)(=O)c2cccnc2)CC1 (3D coordinates assigned)
O=C(N1CCN(c2ccccc2)CC1)C1(c2ccccc2)CCN(S(=O)(=O)c2cccnc2)CC1 (nonaromatic ring conformer: 92.94050888481254 kcal/mol)

>  <smiles>  (35) 
O=C(N1CCN(c2ccccc2)CC1)C1(c2ccccc2)CCN(S(=O)(=O)c2cccnc2)CC1

>  <score_type>  (35) 
oracle

>  <origin>  (35) 
adgpu

>  <m_score__min__energy>  (35) 
-10.07

>  <m_primary>  (35) 
energy

$$$$
35:0
     RDKit          3D

 53 56  0  0  0  0  0  0  0  0999 V2000
   -5.4760   15.9790  -34.2190 C   0  0  0  0  0  0  0  0  0  0  0  0
   -6.1430   17.2260  -33.7210 C   0  0  0  0  0  0  0  0  0  0  0  0
   -7.0230   17.1670  -32.6310 C   0  0  0  0  0  0  0  0  0  0  0  0
   -7.6230   18.3330  -32.1460 C   0  0  0  0  0  0  0  0  0  0  0  0
   -7.3420   19.5700  -32.7390 C   0  0  0  0  0  0  0  0  0  0  0  0
   -8.1090   21.0280  -32.1150 S   0  0  0  0  0  0  0  0  0  0  0  0
   -9.4870   21.1410  -32.7050 O   0  0  0  0  0  0  0  0  0  0  0  0
   -8.2050   20.9540  -30.6160 O   0  0  0  0  0  0  0  0  0  0  0  0
   -7.1560   22.4090  -32.5600 N   0  0  0  0  0  0  0  0  0  0  0  0
   -6.2710   23.1000  -31.6590 C   0  0  0  0  0  0  0  0  0  0  0  0
   -6.6820   24.2590  -30.9430 C   0  0  0  0  0  0  0  0  0  0  0  0
   -5.7970   24.9170  -30.0710 C   0  0  0  0  0  0  0  0  0  0  0  0
   -4.5110   24.4040  -29.9330 C   0  0  0  0  0  0  0  0  0  0  0  0
   -3.5270   24.8700  -29.1460 N   0  0  0  0  0  0  0  0  0  0  0  0
   -2.4790   24.0340  -29.3400 C   0  0  0  0  0  0  0  0  0  0  0  0
   -1.1900   24.1430  -28.6330 C   0  0  0  0  0  0  0  0  0  0  0  0
   -0.4970   25.1870  -28.7810 O   0  0  0  0  0  0  0  0  0  0  0  0
   -0.7140   23.0900  -27.7770 N   0  0  0  0  0  0  0  0  0  0  0  0
    0.7240   22.8510  -27.6340 C   0  0  0  0  0  0  0  0  0  0  0  0
    1.1860   23.2290  -26.2160 C   0  0  0  0  0  0  0  0  0  0  0  0
    0.1810   22.9440  -25.1580 N   0  0  0  0  0  0  0  0  0  0  0  0
   -0.4130   24.1800  -24.6190 C   0  0  0  0  0  0  0  0  0  0  0  0
   -0.8580   21.9740  -25.5710 C   0  0  0  0  0  0  0  0  0  0  0  0
   -1.6250   22.4510  -26.8180 C   0  0  0  0  0  0  0  0  0  0  0  0
   -2.8080   23.0250  -30.2440 C   0  0  0  0  0  0  0  0  0  0  0  0
   -4.1090   23.2880  -30.6130 C   0  0  0  0  0  0  0  0  0  0  0  0
   -4.9580   22.6070  -31.4820 C   0  0  0  0  0  0  0  0  0  0  0  0
   -6.4440   19.6350  -33.8130 C   0  0  0  0  0  0  0  0  0  0  0  0
   -5.8440   18.4690  -34.2980 C   0  0  0  0  0  0  0  0  0  0  0  0
   -5.1504   15.3703  -33.3626 H   0  0  0  0  0  0  0  0  0  0  0  0
   -6.1861   15.4023  -34.8299 H   0  0  0  0  0  0  0  0  0  0  0  0
   -4.6021   16.2495  -34.8299 H   0  0  0  0  0  0  0  0  0  0  0  0
   -7.2422   16.1996  -32.1556 H   0  0  0  0  0  0  0  0  0  0  0  0
   -8.3184   18.2784  -31.2954 H   0  0  0  0  0  0  0  0  0  0  0  0
   -7.2800   22.7790  -33.5260 H   0  0  0  0  0  0  0  0  0  0  0  0
   -7.7039   24.6446  -31.0733 H   0  0  0  0  0  0  0  0  0  0  0  0
   -6.1121   25.8116  -29.5139 H   0  0  0  0  0  0  0  0  0  0  0  0
   -3.5880   25.6740  -28.4860 H   0  0  0  0  0  0  0  0  0  0  0  0
    0.9352   21.7865  -27.8135 H   0  0  0  0  0  0  0  0  0  0  0  0
    1.2655   23.4693  -28.3651 H   0  0  0  0  0  0  0  0  0  0  0  0
    2.1001   22.6616  -25.9870 H   0  0  0  0  0  0  0  0  0  0  0  0
    1.3517   24.3165  -26.2139 H   0  0  0  0  0  0  0  0  0  0  0  0
   -0.3965   24.1456  -23.5197 H   0  0  0  0  0  0  0  0  0  0  0  0
    0.1665   25.0476  -24.9675 H   0  0  0  0  0  0  0  0  0  0  0  0
   -1.4525   24.2695  -24.9675 H   0  0  0  0  0  0  0  0  0  0  0  0
   -0.3762   21.0111  -25.7964 H   0  0  0  0  0  0  0  0  0  0  0  0
   -1.5780   21.8733  -24.7455 H   0  0  0  0  0  0  0  0  0  0  0  0
   -2.1060   21.5862  -27.2985 H   0  0  0  0  0  0  0  0  0  0  0  0
   -2.3822   23.1858  -26.5070 H   0  0  0  0  0  0  0  0  0  0  0  0
   -2.1682   22.1989  -30.5878 H   0  0  0  0  0  0  0  0  0  0  0  0
   -4.6157   21.7088  -32.0168 H   0  0  0  0  0  0  0  0  0  0  0  0
   -6.2107   20.6055  -34.2754 H   0  0  0  0  0  0  0  0  0  0  0  0
   -5.1340   18.5267  -35.1362 H   0  0  0  0  0  0  0  0  0  0  0  0
  1  2  1  0
  2  3  2  0
  3  4  1  0
  4  5  2  0
  5  6  1  0
  6  7  2  0
  6  8  2  0
  6  9  1  0
  9 10  1  0
 10 11  2  0
 11 12  1  0
 12 13  2  0
 13 14  1  0
 14 15  1  0
 15 16  1  0
 16 17  2  0
 16 18  1  0
 18 19  1  0
 19 20  1  0
 20 21  1  0
 21 22  1  0
 21 23  1  0
 23 24  1  0
 15 25  2  0
 25 26  1  0
 26 27  2  0
  5 28  1  0
 28 29  2  0
 29  2  1  0
 27 10  1  0
 26 13  1  0
 24 18  1  0
  1 30  1  0
  1 31  1  0
  1 32  1  0
  3 33  1  0
  4 34  1  0
  9 35  1  0
 11 36  1  0
 12 37  1  0
 14 38  1  0
 19 39  1  0
 19 40  1  0
 20 41  1  0
 20 42  1  0
 22 43  1  0
 22 44  1  0
 22 45  1  0
 23 46  1  0
 23 47  1  0
 24 48  1  0
 24 49  1  0
 25 50  1  0
 27 51  1  0
 28 52  1  0
 29 53  1  0
M  END
>  <UniqueID>  (36) 
36

>  <SMILES>  (36) 
Cc1ccc(S(=O)(=O)Nc2ccc3[nH]c(C(=O)N4CCN(C)CC4)cc3c2)cc1

>  <Energy>  (36) 
102.82488276143333

>  <Genealogy>  (36) 
Cc1ccc(S(=O)(=O)Nc2ccc3[nH]c(C(=O)N4CCN(C)CC4)cc3c2)cc1 (3D coordinates assigned)
Cc1ccc(S(=O)(=O)Nc2ccc3[nH]c(C(=O)N4CCN(C)CC4)cc3c2)cc1 (nonaromatic ring conformer: 102.82488276143333 kcal/mol)

>  <smiles>  (36) 
Cc1ccc(S(=O)(=O)Nc2ccc3[nH]c(C(=O)N4CCN(C)CC4)cc3c2)cc1

>  <score_type>  (36) 
oracle

>  <origin>  (36) 
adgpu

>  <m_score__min__energy>  (36) 
-10.800000000000001

>  <m_primary>  (36) 
energy

$$$$
36:0
     RDKit          3D

 37 39  0  0  0  0  0  0  0  0999 V2000
   -5.4880   26.3860  -29.1530 H   0  0  0  0  0  0  0  0  0  0  0  0
   -6.1290   25.7950  -29.6670 O   0  0  0  0  0  0  0  0  0  0  0  0
   -5.7130   24.6270  -30.3050 C   0  0  0  0  0  0  0  0  0  0  0  0
   -6.6690   23.6890  -30.7020 C   0  0  0  0  0  0  0  0  0  0  0  0
   -7.7342   23.8890  -30.5142 H   0  0  0  0  0  0  0  0  0  0  0  0
   -6.2910   22.4930  -31.3380 C   0  0  0  0  0  0  0  0  0  0  0  0
   -7.3450   21.5040  -31.6630 C   0  0  0  0  0  0  0  0  0  0  0  0
   -8.4080   21.8800  -32.2250 O   0  0  0  0  0  0  0  0  0  0  0  0
   -7.1170   20.1130  -31.3810 N   0  0  0  0  0  0  0  0  0  0  0  0
   -6.7560   19.2040  -32.2390 C   0  0  0  0  0  0  0  0  0  0  0  0
   -6.5460   19.4370  -33.5540 N   0  0  0  0  0  0  0  0  0  0  0  0
   -6.1840   18.3020  -34.2090 C   0  0  0  0  0  0  0  0  0  0  0  0
   -5.9764   18.2804  -35.2890 H   0  0  0  0  0  0  0  0  0  0  0  0
   -6.0970   17.1700  -33.4050 C   0  0  0  0  0  0  0  0  0  0  0  0
   -5.7950   15.7830  -33.8760 C   0  0  0  0  0  0  0  0  0  0  0  0
   -6.0090   15.0690  -33.0670 H   0  0  0  0  0  0  0  0  0  0  0  0
   -6.4214   15.5548  -34.7510 H   0  0  0  0  0  0  0  0  0  0  0  0
   -4.3460   15.6750  -34.2650 C   0  0  0  0  0  0  0  0  0  0  0  0
   -3.4320   16.6700  -33.8820 C   0  0  0  0  0  0  0  0  0  0  0  0
   -3.7822   17.5477  -33.3190 H   0  0  0  0  0  0  0  0  0  0  0  0
   -2.0790   16.5500  -34.2130 C   0  0  0  0  0  0  0  0  0  0  0  0
   -1.3685   17.3355  -33.9162 H   0  0  0  0  0  0  0  0  0  0  0  0
   -1.6290   15.4320  -34.9210 C   0  0  0  0  0  0  0  0  0  0  0  0
   -0.5649   15.3402  -35.1841 H   0  0  0  0  0  0  0  0  0  0  0  0
   -2.5290   14.4310  -35.2950 C   0  0  0  0  0  0  0  0  0  0  0  0
   -2.1721   13.5500  -35.8486 H   0  0  0  0  0  0  0  0  0  0  0  0
   -3.8840   14.5480  -34.9660 C   0  0  0  0  0  0  0  0  0  0  0  0
   -4.5895   13.7557  -35.2568 H   0  0  0  0  0  0  0  0  0  0  0  0
   -6.5110   17.5940  -31.8290 S   0  0  0  0  0  0  0  0  0  0  0  0
   -4.9180   22.2610  -31.6080 C   0  0  0  0  0  0  0  0  0  0  0  0
   -4.4740   21.1150  -32.3480 N   0  0  0  0  0  0  0  0  0  0  0  0
   -3.5690   21.1080  -32.8660 H   0  0  0  0  0  0  0  0  0  0  0  0
   -4.9890   20.2090  -32.2790 H   0  0  0  0  0  0  0  0  0  0  0  0
   -3.9640   23.2030  -31.1920 C   0  0  0  0  0  0  0  0  0  0  0  0
   -2.8963   23.0136  -31.3769 H   0  0  0  0  0  0  0  0  0  0  0  0
   -4.3550   24.3780  -30.5460 C   0  0  0  0  0  0  0  0  0  0  0  0
   -3.3870   25.2960  -30.1530 O   0  0  0  0  0  0  0  0  0  0  0  0
  1  2  1  0
  2  3  1  0
  3  4  2  0
  4  5  1  0
  4  6  1  0
  6  7  1  0
  7  8  2  0
  7  9  1  0
  9 10  2  0
 10 11  1  0
 11 12  1  0
 12 13  1  0
 12 14  2  0
 14 15  1  0
 15 16  1  0
 15 17  1  0
 15 18  1  0
 18 19  2  0
 19 20  1  0
 19 21  1  0
 21 22  1  0
 21 23  2  0
 23 24  1  0
 23 25  1  0
 25 26  1  0
 25 27  2  0
 27 28  1  0
 14 29  1  0
  6 30  2  0
 30 31  1  0
 31 32  1  0
 31 33  1  0
 30 34  1  0
 34 35  1  0
 34 36  2  0
 36 37  1  0
 36  3  1  0
 29 10  1  0
 27 18  1  0
M  CHG  2  11  -1  37  -1
M  END
>  <UniqueID>  (37) 
37

>  <SMILES>  (37) 
Nc1cc([O-])c(O)cc1C(=O)/N=c1\[n-]cc(Cc2ccccc2)s1

>  <Energy>  (37) 
75.32252876339913

>  <Genealogy>  (37) 
Nc1cc([O-])c(O)cc1C(=O)N=c1[n-]cc(Cc2ccccc2)s1 (protonated)
Nc1cc([O-])c(O)cc1C(=O)/N=c1\[n-]cc(Cc2ccccc2)s1 (cis-trans isomerization)
Nc1cc([O-])c(O)cc1C(=O)/N=c1\[n-]cc(Cc2ccccc2)s1 (3D coordinates assigned)
Nc1cc([O-])c(O)cc1C(=O)/N=c1\[n-]cc(Cc2ccccc2)s1 (optimized conformer: 75.32252876339913 kcal/mol)

>  <smiles>  (37) 
Nc1cc(O)c(O)cc1C(=O)N=c1[nH]cc(Cc2ccccc2)s1

>  <score_type>  (37) 
oracle

>  <origin>  (37) 
adgpu

>  <m_score__min__energy>  (37) 
-10.44

>  <m_primary>  (37) 
energy

$$$$
37:0
     RDKit          3D

 51 53  0  0  0  0  0  0  0  0999 V2000
   -2.9390   25.2970  -29.3440 O   0  0  0  0  0  0  0  0  0  0  0  0
   -3.3250   24.4180  -30.1610 C   0  0  0  0  0  0  0  0  0  0  0  0
   -4.6090   24.5640  -30.7780 N   0  0  0  0  0  0  0  0  0  0  0  0
   -5.5200   23.4980  -31.0850 C   0  0  0  0  0  0  0  0  0  0  0  0
   -5.0890   22.1750  -30.9350 C   0  0  0  0  0  0  0  0  0  0  0  0
   -5.9440   21.1140  -31.2480 C   0  0  0  0  0  0  0  0  0  0  0  0
   -7.2340   21.3660  -31.7330 C   0  0  0  0  0  0  0  0  0  0  0  0
   -8.3090   20.0270  -32.1410 S   0  0  0  0  0  0  0  0  0  0  0  0
   -9.4790   20.5530  -32.9250 O   0  0  0  0  0  0  0  0  0  0  0  0
   -8.8380   19.4130  -30.8730 O   0  0  0  0  0  0  0  0  0  0  0  0
   -7.4840   18.8050  -33.0760 N   0  0  0  0  0  0  0  0  0  0  0  0
   -6.4470   19.4310  -33.9170 C   0  0  0  0  0  0  0  0  0  0  0  0
   -5.7800   18.3750  -34.8040 C   0  0  0  0  0  0  0  0  0  0  0  0
   -5.1820   17.2550  -33.9480 C   0  0  0  0  0  0  0  0  0  0  0  0
   -6.2350   16.6820  -32.9930 C   0  0  0  0  0  0  0  0  0  0  0  0
   -6.8860   17.8020  -32.1760 C   0  0  0  0  0  0  0  0  0  0  0  0
   -7.6570   22.6900  -31.9110 C   0  0  0  0  0  0  0  0  0  0  0  0
   -6.8030   23.7510  -31.5990 C   0  0  0  0  0  0  0  0  0  0  0  0
   -2.4570   23.3320  -30.5100 N   0  0  0  0  0  0  0  0  0  0  0  0
   -1.2030   23.0980  -29.7930 C   0  0  0  0  0  0  0  0  0  0  0  0
   -0.6630   21.6830  -30.0430 C   0  0  0  0  0  0  0  0  0  0  0  0
   -1.2500   21.0730  -31.2920 C   0  0  0  0  0  0  0  0  0  0  0  0
   -2.4060   20.2770  -31.2210 C   0  0  0  0  0  0  0  0  0  0  0  0
   -2.9570   19.7310  -32.3840 C   0  0  0  0  0  0  0  0  0  0  0  0
   -2.3600   19.9760  -33.6250 C   0  0  0  0  0  0  0  0  0  0  0  0
   -1.2120   20.7690  -33.7030 C   0  0  0  0  0  0  0  0  0  0  0  0
   -0.6580   21.3170  -32.5420 C   0  0  0  0  0  0  0  0  0  0  0  0
   -4.0724   21.9688  -30.5690 H   0  0  0  0  0  0  0  0  0  0  0  0
   -5.6025   20.0771  -31.1129 H   0  0  0  0  0  0  0  0  0  0  0  0
   -6.9096   20.2004  -34.5526 H   0  0  0  0  0  0  0  0  0  0  0  0
   -5.6858   19.8892  -33.2685 H   0  0  0  0  0  0  0  0  0  0  0  0
   -6.5307   17.9482  -35.4854 H   0  0  0  0  0  0  0  0  0  0  0  0
   -4.9730   18.8522  -35.3794 H   0  0  0  0  0  0  0  0  0  0  0  0
   -4.8171   16.4529  -34.6064 H   0  0  0  0  0  0  0  0  0  0  0  0
   -4.3533   17.6679  -33.3541 H   0  0  0  0  0  0  0  0  0  0  0  0
   -7.0094   16.1634  -33.5773 H   0  0  0  0  0  0  0  0  0  0  0  0
   -5.7445   15.9787  -32.3040 H   0  0  0  0  0  0  0  0  0  0  0  0
   -7.6710   17.3751  -31.5345 H   0  0  0  0  0  0  0  0  0  0  0  0
   -6.1182   18.2877  -31.5558 H   0  0  0  0  0  0  0  0  0  0  0  0
   -8.6660   22.8950  -32.2981 H   0  0  0  0  0  0  0  0  0  0  0  0
   -7.1361   24.7875  -31.7563 H   0  0  0  0  0  0  0  0  0  0  0  0
   -2.7220   22.7140  -31.3090 H   0  0  0  0  0  0  0  0  0  0  0  0
   -0.4558   23.8302  -30.1329 H   0  0  0  0  0  0  0  0  0  0  0  0
   -1.3980   23.2058  -28.7158 H   0  0  0  0  0  0  0  0  0  0  0  0
    0.4306   21.7329  -30.1509 H   0  0  0  0  0  0  0  0  0  0  0  0
   -0.9469   21.0521  -29.1878 H   0  0  0  0  0  0  0  0  0  0  0  0
   -2.8789   20.0829  -30.2470 H   0  0  0  0  0  0  0  0  0  0  0  0
   -3.8614   19.1078  -32.3231 H   0  0  0  0  0  0  0  0  0  0  0  0
   -2.7940   19.5447  -34.5391 H   0  0  0  0  0  0  0  0  0  0  0  0
   -0.7435   20.9624  -34.6792 H   0  0  0  0  0  0  0  0  0  0  0  0
    0.2450   21.9417  -32.6079 H   0  0  0  0  0  0  0  0  0  0  0  0
  1  2  2  0
  2  3  1  0
  3  4  1  0
  4  5  2  0
  5  6  1  0
  6  7  2  0
  7  8  1  0
  8  9  2  0
  8 10  2  0
  8 11  1  0
 11 12  1  0
 12 13  1  0
 13 14  1  0
 14 15  1  0
 15 16  1  0
  7 17  1  0
 17 18  2  0
  2 19  1  0
 19 20  1  0
 20 21  1  0
 21 22  1  0
 22 23  2  0
 23 24  1  0
 24 25  2  0
 25 26  1  0
 26 27  2  0
 18  4  1  0
 27 22  1  0
 16 11  1  0
  5 28  1  0
  6 29  1  0
 12 30  1  0
 12 31  1  0
 13 32  1  0
 13 33  1  0
 14 34  1  0
 14 35  1  0
 15 36  1  0
 15 37  1  0
 16 38  1  0
 16 39  1  0
 17 40  1  0
 18 41  1  0
 19 42  1  0
 20 43  1  0
 20 44  1  0
 21 45  1  0
 21 46  1  0
 23 47  1  0
 24 48  1  0
 25 49  1  0
 26 50  1  0
 27 51  1  0
M  CHG  1   3  -1
M  END
>  <UniqueID>  (38) 
38

>  <SMILES>  (38) 
O=C([N-]c1ccc(S(=O)(=O)N2CCCCC2)cc1)NCCc1ccccc1

>  <Energy>  (38) 
45.05243952379957

>  <Genealogy>  (38) 
O=C([N-]c1ccc(S(=O)(=O)N2CCCCC2)cc1)NCCc1ccccc1 (protonated)
O=C([N-]c1ccc(S(=O)(=O)N2CCCCC2)cc1)NCCc1ccccc1 (3D coordinates assigned)
O=C([N-]c1ccc(S(=O)(=O)N2CCCCC2)cc1)NCCc1ccccc1 (nonaromatic ring conformer: 45.05243952379957 kcal/mol)

>  <smiles>  (38) 
O=C(NCCc1ccccc1)Nc1ccc(S(=O)(=O)N2CCCCC2)cc1

>  <score_type>  (38) 
oracle

>  <origin>  (38) 
adgpu

>  <m_score__min__energy>  (38) 
-11.18

>  <m_primary>  (38) 
energy

$$$$
38:0
     RDKit          3D

 40 42  0  0  0  0  0  0  0  0999 V2000
   -9.1290   22.4830  -31.8930 O   0  0  0  0  0  0  0  0  0  0  0  0
   -7.9980   21.9300  -31.8000 C   0  0  0  0  0  0  0  0  0  0  0  0
   -7.8890   20.4770  -32.0780 C   0  0  0  0  0  0  0  0  0  0  0  0
   -6.9530   19.9850  -33.0080 C   0  0  0  0  0  0  0  0  0  0  0  0
   -6.8490   18.6120  -33.2480 C   0  0  0  0  0  0  0  0  0  0  0  0
   -7.6680   17.7160  -32.5560 C   0  0  0  0  0  0  0  0  0  0  0  0
   -8.5880   18.1910  -31.6190 C   0  0  0  0  0  0  0  0  0  0  0  0
   -8.6960   19.5640  -31.3750 C   0  0  0  0  0  0  0  0  0  0  0  0
   -6.8290   22.7560  -31.4150 C   0  0  0  0  0  0  0  0  0  0  0  0
   -6.9900   23.9370  -30.6690 C   0  0  0  0  0  0  0  0  0  0  0  0
   -5.8770   24.6970  -30.2990 C   0  0  0  0  0  0  0  0  0  0  0  0
   -4.5860   24.2790  -30.6370 C   0  0  0  0  0  0  0  0  0  0  0  0
   -3.4750   25.0970  -30.2470 N   0  0  0  0  0  0  0  0  0  0  0  0
   -2.6230   24.8690  -29.1180 C   0  0  0  0  0  0  0  0  0  0  0  0
   -1.9730   25.8230  -28.6090 O   0  0  0  0  0  0  0  0  0  0  0  0
   -2.4690   23.5000  -28.5900 C   0  0  0  0  0  0  0  0  0  0  0  0
   -1.1990   22.9340  -28.3880 C   0  0  0  0  0  0  0  0  0  0  0  0
   -1.1000   21.6350  -27.8850 C   0  0  0  0  0  0  0  0  0  0  0  0
   -2.2570   20.9110  -27.5920 C   0  0  0  0  0  0  0  0  0  0  0  0
   -2.1430   19.2440  -26.9370 S   0  0  0  0  0  0  0  0  0  0  0  0
   -0.7190   18.7860  -27.9750 C   0  0  0  0  0  0  0  0  0  0  0  0
   -0.9170   19.2710  -29.2540 F   0  0  0  0  0  0  0  0  0  0  0  0
    0.4390   19.3360  -27.4570 F   0  0  0  0  0  0  0  0  0  0  0  0
   -3.5040   21.5070  -27.7980 C   0  0  0  0  0  0  0  0  0  0  0  0
   -3.5810   22.7730  -28.2890 N   0  0  0  0  0  0  0  0  0  0  0  0
   -4.4190   23.1050  -31.3960 C   0  0  0  0  0  0  0  0  0  0  0  0
   -3.1920   22.7220  -31.8300 F   0  0  0  0  0  0  0  0  0  0  0  0
   -5.5330   22.3450  -31.7670 C   0  0  0  0  0  0  0  0  0  0  0  0
   -6.2997   20.6855  -33.5489 H   0  0  0  0  0  0  0  0  0  0  0  0
   -6.1215   18.2363  -33.9826 H   0  0  0  0  0  0  0  0  0  0  0  0
   -7.5880   16.6361  -32.7494 H   0  0  0  0  0  0  0  0  0  0  0  0
   -9.2289   17.4841  -31.0718 H   0  0  0  0  0  0  0  0  0  0  0  0
   -9.4160   19.9320  -30.6292 H   0  0  0  0  0  0  0  0  0  0  0  0
   -7.9980   24.2647  -30.3749 H   0  0  0  0  0  0  0  0  0  0  0  0
   -6.0177   25.6321  -29.7370 H   0  0  0  0  0  0  0  0  0  0  0  0
   -0.2912   23.5087  -28.6238 H   0  0  0  0  0  0  0  0  0  0  0  0
   -0.1110   21.1826  -27.7198 H   0  0  0  0  0  0  0  0  0  0  0  0
   -0.6228   17.6904  -27.9962 H   0  0  0  0  0  0  0  0  0  0  0  0
   -4.4240   20.9518  -27.5629 H   0  0  0  0  0  0  0  0  0  0  0  0
   -5.3927   21.4165  -32.3399 H   0  0  0  0  0  0  0  0  0  0  0  0
  1  2  2  0
  2  3  1  0
  3  4  2  0
  4  5  1  0
  5  6  2  0
  6  7  1  0
  7  8  2  0
  2  9  1  0
  9 10  2  0
 10 11  1  0
 11 12  2  0
 12 13  1  0
 13 14  1  0
 14 15  2  0
 14 16  1  0
 16 17  2  0
 17 18  1  0
 18 19  2  0
 19 20  1  0
 20 21  1  0
 21 22  1  0
 21 23  1  0
 19 24  1  0
 24 25  2  0
 12 26  1  0
 26 27  1  0
 26 28  2  0
  8  3  1  0
 28  9  1  0
 25 16  1  0
  4 29  1  0
  5 30  1  0
  6 31  1  0
  7 32  1  0
  8 33  1  0
 10 34  1  0
 11 35  1  0
 17 36  1  0
 18 37  1  0
 21 38  1  0
 24 39  1  0
 28 40  1  0
M  CHG  1  13  -1
M  END
>  <UniqueID>  (39) 
39

>  <SMILES>  (39) 
O=C(c1ccccc1)c1ccc([N-]C(=O)c2ccc(SC(F)F)cn2)c(F)c1

>  <Energy>  (39) 
50.92250916972961

>  <Genealogy>  (39) 
O=C(c1ccccc1)c1ccc([N-]C(=O)c2ccc(SC(F)F)cn2)c(F)c1 (protonated)
O=C(c1ccccc1)c1ccc([N-]C(=O)c2ccc(SC(F)F)cn2)c(F)c1 (3D coordinates assigned)
O=C(c1ccccc1)c1ccc([N-]C(=O)c2ccc(SC(F)F)cn2)c(F)c1 (optimized conformer: 50.92250916972961 kcal/mol)

>  <smiles>  (39) 
O=C(c1ccccc1)c1ccc(NC(=O)c2ccc(SC(F)F)cn2)c(F)c1

>  <score_type>  (39) 
oracle

>  <origin>  (39) 
adgpu

>  <m_score__min__energy>  (39) 
-11.109999999999999

>  <m_primary>  (39) 
energy

$$$$
39:0
     RDKit          3D

 48 51  0  0  0  0  0  0  0  0999 V2000
   -7.1770   23.4060  -32.7450 O   0  0  0  0  0  0  0  0  0  0  0  0
   -6.5280   23.0500  -31.7270 C   0  0  0  0  0  0  0  0  0  0  0  0
   -6.8370   21.7860  -31.1250 N   0  0  0  0  0  0  0  0  0  0  0  0
   -6.5980   20.4890  -31.6880 C   0  0  0  0  0  0  0  0  0  0  0  0
   -5.5220   19.6880  -31.2700 C   0  0  0  0  0  0  0  0  0  0  0  0
   -5.3040   18.4370  -31.8550 C   0  0  0  0  0  0  0  0  0  0  0  0
   -6.1470   17.9820  -32.8790 C   0  0  0  0  0  0  0  0  0  0  0  0
   -5.8890   16.4080  -33.6220 S   0  0  0  0  0  0  0  0  0  0  0  0
   -7.2040   15.9200  -34.1660 O   0  0  0  0  0  0  0  0  0  0  0  0
   -5.4090   15.4360  -32.5780 O   0  0  0  0  0  0  0  0  0  0  0  0
   -4.6940   16.5950  -34.8970 N   0  0  0  0  0  0  0  0  0  0  0  0
   -3.8580   15.3940  -35.0750 C   0  0  0  0  0  0  0  0  0  0  0  0
   -2.7400   15.3190  -34.0230 C   0  0  0  0  0  0  0  0  0  0  0  0
   -1.9500   16.4910  -34.0490 O   0  0  0  0  0  0  0  0  0  0  0  0
   -2.7500   17.6040  -33.7060 C   0  0  0  0  0  0  0  0  0  0  0  0
   -3.8710   17.8080  -34.7370 C   0  0  0  0  0  0  0  0  0  0  0  0
   -7.2070   18.7880  -33.3110 C   0  0  0  0  0  0  0  0  0  0  0  0
   -7.4240   20.0390  -32.7250 C   0  0  0  0  0  0  0  0  0  0  0  0
   -5.5330   23.9750  -31.1400 C   0  0  0  0  0  0  0  0  0  0  0  0
   -5.7190   25.3050  -30.8200 C   0  0  0  0  0  0  0  0  0  0  0  0
   -4.5450   25.8360  -30.4270 N   0  0  0  0  0  0  0  0  0  0  0  0
   -3.6110   24.8990  -30.4920 N   0  0  0  0  0  0  0  0  0  0  0  0
   -4.1830   23.7570  -30.9180 C   0  0  0  0  0  0  0  0  0  0  0  0
   -3.4240   22.5160  -31.1650 C   0  0  0  0  0  0  0  0  0  0  0  0
   -3.4680   21.9250  -32.4430 C   0  0  0  0  0  0  0  0  0  0  0  0
   -4.2250   22.5090  -33.4580 O   0  0  0  0  0  0  0  0  0  0  0  0
   -2.7590   20.7430  -32.6910 C   0  0  0  0  0  0  0  0  0  0  0  0
   -2.0050   20.1480  -31.6800 C   0  0  0  0  0  0  0  0  0  0  0  0
   -1.9420   20.7340  -30.4140 C   0  0  0  0  0  0  0  0  0  0  0  0
   -1.1730   20.1340  -29.4220 O   0  0  0  0  0  0  0  0  0  0  0  0
   -2.6440   21.9190  -30.1470 C   0  0  0  0  0  0  0  0  0  0  0  0
   -2.4640   22.7310  -28.4150 Br  0  0  0  0  0  0  0  0  0  0  0  0
   -4.8477   20.0470  -30.4785 H   0  0  0  0  0  0  0  0  0  0  0  0
   -4.4694   17.8083  -31.5112 H   0  0  0  0  0  0  0  0  0  0  0  0
   -4.4934   14.5007  -34.9843 H   0  0  0  0  0  0  0  0  0  0  0  0
   -3.3905   15.4457  -36.0694 H   0  0  0  0  0  0  0  0  0  0  0  0
   -3.1898   15.2088  -33.0252 H   0  0  0  0  0  0  0  0  0  0  0  0
   -2.0983   14.4549  -34.2499 H   0  0  0  0  0  0  0  0  0  0  0  0
   -3.1974   17.4351  -32.7154 H   0  0  0  0  0  0  0  0  0  0  0  0
   -2.1162   18.5029  -33.6914 H   0  0  0  0  0  0  0  0  0  0  0  0
   -4.5157   18.6345  -34.4034 H   0  0  0  0  0  0  0  0  0  0  0  0
   -3.4061   18.0367  -35.7074 H   0  0  0  0  0  0  0  0  0  0  0  0
   -7.8713   18.4361  -34.1140 H   0  0  0  0  0  0  0  0  0  0  0  0
   -8.2490   20.6736  -33.0811 H   0  0  0  0  0  0  0  0  0  0  0  0
   -6.6751   25.8459  -30.8770 H   0  0  0  0  0  0  0  0  0  0  0  0
   -5.2270   22.6360  -33.3680 H   0  0  0  0  0  0  0  0  0  0  0  0
   -2.7971   20.2814  -33.6887 H   0  0  0  0  0  0  0  0  0  0  0  0
   -1.4584   19.2146  -31.8803 H   0  0  0  0  0  0  0  0  0  0  0  0
  1  2  2  0
  2  3  1  0
  3  4  1  0
  4  5  2  0
  5  6  1  0
  6  7  2  0
  7  8  1  0
  8  9  2  0
  8 10  2  0
  8 11  1  0
 11 12  1  0
 12 13  1  0
 13 14  1  0
 14 15  1  0
 15 16  1  0
  7 17  1  0
 17 18  2  0
  2 19  1  0
 19 20  1  0
 20 21  2  0
 21 22  1  0
 22 23  1  0
 23 24  1  0
 24 25  2  0
 25 26  1  0
 25 27  1  0
 27 28  2  0
 28 29  1  0
 29 30  1  0
 29 31  2  0
 31 32  1  0
 18  4  1  0
 23 19  2  0
 31 24  1  0
 16 11  1  0
  5 33  1  0
  6 34  1  0
 12 35  1  0
 12 36  1  0
 13 37  1  0
 13 38  1  0
 15 39  1  0
 15 40  1  0
 16 41  1  0
 16 42  1  0
 17 43  1  0
 18 44  1  0
 20 45  1  0
 26 46  1  0
 27 47  1  0
 28 48  1  0
M  CHG  3   3  -1  22  -1  30  -1
M  END
>  <UniqueID>  (40) 
40

>  <SMILES>  (40) 
O=C([N-]c1ccc(S(=O)(=O)N2CCOCC2)cc1)c1cn[n-]c1-c1c(O)ccc([O-])c1Br

>  <Energy>  (40) 
101.6186795648031

>  <Genealogy>  (40) 
O=C([N-]c1ccc(S(=O)(=O)N2CCOCC2)cc1)c1cn[n-]c1-c1c(O)ccc([O-])c1Br (protonated)
O=C([N-]c1ccc(S(=O)(=O)N2CCOCC2)cc1)c1cn[n-]c1-c1c(O)ccc([O-])c1Br (3D coordinates assigned)
O=C([N-]c1ccc(S(=O)(=O)N2CCOCC2)cc1)c1cn[n-]c1-c1c(O)ccc([O-])c1Br (nonaromatic ring conformer: 101.6186795648031 kcal/mol)

>  <smiles>  (40) 
O=C(Nc1ccc(S(=O)(=O)N2CCOCC2)cc1)c1cn[nH]c1-c1c(O)ccc(O)c1Br

>  <score_type>  (40) 
oracle

>  <origin>  (40) 
adgpu

>  <m_score__min__energy>  (40) 
-11.07

>  <m_primary>  (40) 
energy

$$$$
40:0
     RDKit          3D

 28 29  0  0  0  0  0  0  0  0999 V2000
   -1.2380   26.2620  -30.0700 H   0  0  0  0  0  0  0  0  0  0  0  0
   -1.4910   25.6680  -29.2490 N   0  0  0  0  0  0  0  0  0  0  0  0
   -2.5480   24.9240  -29.2540 C   0  0  0  0  0  0  0  0  0  0  0  0
   -3.3650   24.9000  -30.3420 N   0  0  0  0  0  0  0  0  0  0  0  0
   -4.4790   24.1190  -30.3720 C   0  0  0  0  0  0  0  0  0  0  0  0
   -5.3490   24.1270  -31.5170 N   0  0  0  0  0  0  0  0  0  0  0  0
   -5.1550   24.8190  -32.2750 H   0  0  0  0  0  0  0  0  0  0  0  0
   -6.3980   23.1680  -31.7360 C   0  0  0  0  0  0  0  0  0  0  0  0
   -7.7510   23.5110  -31.5610 C   0  0  0  0  0  0  0  0  0  0  0  0
   -8.0206   24.5240  -31.2276 H   0  0  0  0  0  0  0  0  0  0  0  0
   -8.7540   22.5700  -31.8090 C   0  0  0  0  0  0  0  0  0  0  0  0
   -9.8099   22.8418  -31.6632 H   0  0  0  0  0  0  0  0  0  0  0  0
   -8.4180   21.2840  -32.2420 C   0  0  0  0  0  0  0  0  0  0  0  0
   -9.2100   20.5445  -32.4315 H   0  0  0  0  0  0  0  0  0  0  0  0
   -7.0760   20.9350  -32.4350 C   0  0  0  0  0  0  0  0  0  0  0  0
   -6.6540   19.3250  -33.0090 S   0  0  0  0  0  0  0  0  0  0  0  0
   -5.5030   18.7830  -32.2100 O   0  0  0  0  0  0  0  0  0  0  0  0
   -6.2460   19.3910  -34.4540 O   0  0  0  0  0  0  0  0  0  0  0  0
   -8.0160   18.2740  -32.8420 N   0  0  0  0  0  0  0  0  0  0  0  0
   -8.3870   18.4070  -31.8750 H   0  0  0  0  0  0  0  0  0  0  0  0
   -8.7520   18.6230  -33.4980 H   0  0  0  0  0  0  0  0  0  0  0  0
   -6.0710   21.8830  -32.1940 C   0  0  0  0  0  0  0  0  0  0  0  0
   -5.0176   21.6167  -32.3655 H   0  0  0  0  0  0  0  0  0  0  0  0
   -4.8010   23.3420  -29.2550 C   0  0  0  0  0  0  0  0  0  0  0  0
   -5.7048   22.7151  -29.2492 H   0  0  0  0  0  0  0  0  0  0  0  0
   -3.9520   23.3780  -28.1470 C   0  0  0  0  0  0  0  0  0  0  0  0
   -4.2090   22.6850  -27.1290 O   0  0  0  0  0  0  0  0  0  0  0  0
   -2.8450   24.1650  -28.1680 N   0  0  0  0  0  0  0  0  0  0  0  0
  1  2  1  0
  2  3  2  0
  3  4  1  0
  4  5  1  0
  5  6  1  0
  6  7  1  0
  6  8  1  0
  8  9  2  0
  9 10  1  0
  9 11  1  0
 11 12  1  0
 11 13  2  0
 13 14  1  0
 13 15  1  0
 15 16  1  0
 16 17  2  0
 16 18  2  0
 16 19  1  0
 19 20  1  0
 19 21  1  0
 15 22  2  0
 22 23  1  0
  5 24  2  0
 24 25  1  0
 24 26  1  0
 26 27  2  0
 26 28  1  0
 28  3  1  0
 22  8  1  0
M  CHG  2   4  -1  28  -1
M  END
>  <UniqueID>  (41) 
41

>  <SMILES>  (41) 
[H]/N=c1\[n-]c(Nc2cccc(S(N)(=O)=O)c2)cc(=O)[n-]1

>  <Energy>  (41) 
31.659461407245576

>  <Genealogy>  (41) 
N=c1[n-]c(Nc2cccc(S(N)(=O)=O)c2)cc(=O)[n-]1 (protonated)
[H]/N=c1\[n-]c(Nc2cccc(S(N)(=O)=O)c2)cc(=O)[n-]1 (cis-trans isomerization)
[H]/N=c1\[n-]c(Nc2cccc(S(N)(=O)=O)c2)cc(=O)[n-]1 (3D coordinates assigned)
[H]/N=c1\[n-]c(Nc2cccc(S(N)(=O)=O)c2)cc(=O)[n-]1 (optimized conformer: 31.659461407245576 kcal/mol)

>  <smiles>  (41) 
N=c1[nH]c(Nc2cccc(S(N)(=O)=O)c2)cc(=O)[nH]1

>  <score_type>  (41) 
oracle

>  <origin>  (41) 
adgpu

>  <m_score__min__energy>  (41) 
-9.9600000000000009

>  <m_primary>  (41) 
energy

$$$$
41:0
     RDKit          3D

 54 57  0  0  0  0  0  0  0  0999 V2000
    3.2970   18.6280  -27.9560 C   0  0  0  0  0  0  0  0  0  0  0  0
    2.3030   17.1590  -27.7590 S   0  0  0  0  0  0  0  0  0  0  0  0
    2.4620   16.6490  -26.3540 O   0  0  0  0  0  0  0  0  0  0  0  0
    2.7980   16.1080  -28.7130 O   0  0  0  0  0  0  0  0  0  0  0  0
    0.6130   17.4730  -28.0790 N   0  0  0  0  0  0  0  0  0  0  0  0
    0.2010   18.7580  -27.4750 C   0  0  0  0  0  0  0  0  0  0  0  0
   -1.0980   19.2820  -28.0890 C   0  0  0  0  0  0  0  0  0  0  0  0
   -0.9210   19.4620  -29.5330 N   0  0  0  0  0  0  0  0  0  0  0  0
   -1.7520   20.3810  -30.2570 C   0  0  0  0  0  0  0  0  0  0  0  0
   -2.4290   19.9590  -31.2350 O   0  0  0  0  0  0  0  0  0  0  0  0
   -1.8080   21.8140  -29.8900 C   0  0  0  0  0  0  0  0  0  0  0  0
   -0.6380   22.5920  -29.8650 C   0  0  0  0  0  0  0  0  0  0  0  0
   -0.7020   23.9530  -29.5550 C   0  0  0  0  0  0  0  0  0  0  0  0
   -1.9310   24.5510  -29.2590 C   0  0  0  0  0  0  0  0  0  0  0  0
   -1.9820   25.9060  -28.9540 O   0  0  0  0  0  0  0  0  0  0  0  0
   -3.1040   23.7830  -29.2600 C   0  0  0  0  0  0  0  0  0  0  0  0
   -4.3540   24.4090  -28.9570 N   0  0  0  0  0  0  0  0  0  0  0  0
   -5.5220   24.8360  -30.1660 S   0  0  0  0  0  0  0  0  0  0  0  0
   -6.5950   25.6800  -29.5380 O   0  0  0  0  0  0  0  0  0  0  0  0
   -4.8450   25.6520  -31.2310 O   0  0  0  0  0  0  0  0  0  0  0  0
   -6.2330   23.4130  -30.9190 C   0  0  0  0  0  0  0  0  0  0  0  0
   -7.5830   23.0760  -30.6690 C   0  0  0  0  0  0  0  0  0  0  0  0
   -8.1430   21.9240  -31.2410 C   0  0  0  0  0  0  0  0  0  0  0  0
   -7.3340   21.1270  -32.0510 C   0  0  0  0  0  0  0  0  0  0  0  0
   -6.0220   21.4420  -32.2960 C   0  0  0  0  0  0  0  0  0  0  0  0
   -5.4440   22.5860  -31.7390 C   0  0  0  0  0  0  0  0  0  0  0  0
   -5.3590   20.4330  -33.1810 C   0  0  0  0  0  0  0  0  0  0  0  0
   -6.4660   19.3960  -33.4840 C   0  0  0  0  0  0  0  0  0  0  0  0
   -7.6590   19.9050  -32.7430 C   0  0  0  0  0  0  0  0  0  0  0  0
   -8.7870   19.3440  -32.7240 O   0  0  0  0  0  0  0  0  0  0  0  0
   -3.0410   22.4240  -29.6040 C   0  0  0  0  0  0  0  0  0  0  0  0
    0.0600   18.6410  -30.2520 C   0  0  0  0  0  0  0  0  0  0  0  0
    0.2890   17.3110  -29.5180 C   0  0  0  0  0  0  0  0  0  0  0  0
    3.5654   19.0246  -26.9657 H   0  0  0  0  0  0  0  0  0  0  0  0
    4.2130   18.3791  -28.5119 H   0  0  0  0  0  0  0  0  0  0  0  0
    2.7253   19.3857  -28.5119 H   0  0  0  0  0  0  0  0  0  0  0  0
    0.0513   18.6123  -26.3950 H   0  0  0  0  0  0  0  0  0  0  0  0
    0.9932   19.4965  -27.6675 H   0  0  0  0  0  0  0  0  0  0  0  0
   -1.9070   18.5593  -27.9065 H   0  0  0  0  0  0  0  0  0  0  0  0
   -1.3564   20.2473  -27.6292 H   0  0  0  0  0  0  0  0  0  0  0  0
    0.3331   22.1272  -30.0906 H   0  0  0  0  0  0  0  0  0  0  0  0
    0.2178   24.5563  -29.5437 H   0  0  0  0  0  0  0  0  0  0  0  0
   -8.1973   23.7202  -30.0228 H   0  0  0  0  0  0  0  0  0  0  0  0
   -9.1936   21.6559  -31.0555 H   0  0  0  0  0  0  0  0  0  0  0  0
   -4.3913   22.8352  -31.9382 H   0  0  0  0  0  0  0  0  0  0  0  0
   -5.0032   20.9042  -34.1091 H   0  0  0  0  0  0  0  0  0  0  0  0
   -4.4771   19.9769  -32.7075 H   0  0  0  0  0  0  0  0  0  0  0  0
   -6.6694   19.3470  -34.5639 H   0  0  0  0  0  0  0  0  0  0  0  0
   -6.1838   18.3776  -33.1787 H   0  0  0  0  0  0  0  0  0  0  0  0
   -3.9660   21.8305  -29.6502 H   0  0  0  0  0  0  0  0  0  0  0  0
   -0.3137   18.4353  -31.2659 H   0  0  0  0  0  0  0  0  0  0  0  0
    1.0129   19.1881  -30.3030 H   0  0  0  0  0  0  0  0  0  0  0  0
   -0.6256   16.7057  -29.6022 H   0  0  0  0  0  0  0  0  0  0  0  0
    1.1566   16.8276  -29.9909 H   0  0  0  0  0  0  0  0  0  0  0  0
  1  2  1  0
  2  3  2  0
  2  4  2  0
  2  5  1  0
  5  6  1  0
  6  7  1  0
  7  8  1  0
  8  9  1  0
  9 10  2  0
  9 11  1  0
 11 12  2  0
 12 13  1  0
 13 14  2  0
 14 15  1  0
 14 16  1  0
 16 17  1  0
 17 18  1  0
 18 19  2  0
 18 20  2  0
 18 21  1  0
 21 22  2  0
 22 23  1  0
 23 24  2  0
 24 25  1  0
 25 26  2  0
 25 27  1  0
 27 28  1  0
 28 29  1  0
 29 30  2  0
 16 31  2  0
  8 32  1  0
 32 33  1  0
 33  5  1  0
 31 11  1  0
 26 21  1  0
 29 24  1  0
  1 34  1  0
  1 35  1  0
  1 36  1  0
  6 37  1  0
  6 38  1  0
  7 39  1  0
  7 40  1  0
 12 41  1  0
 13 42  1  0
 22 43  1  0
 23 44  1  0
 26 45  1  0
 27 46  1  0
 27 47  1  0
 28 48  1  0
 28 49  1  0
 31 50  1  0
 32 51  1  0
 32 52  1  0
 33 53  1  0
 33 54  1  0
M  CHG  2  15  -1  17  -1
M  END
>  <UniqueID>  (42) 
42

>  <SMILES>  (42) 
CS(=O)(=O)N1CCN(C(=O)c2ccc([O-])c([N-]S(=O)(=O)c3ccc4c(c3)CCC4=O)c2)CC1

>  <Energy>  (42) 
84.59051254850867

>  <Genealogy>  (42) 
CS(=O)(=O)N1CCN(C(=O)c2ccc([O-])c([N-]S(=O)(=O)c3ccc4c(c3)CCC4=O)c2)CC1 (protonated)
CS(=O)(=O)N1CCN(C(=O)c2ccc([O-])c([N-]S(=O)(=O)c3ccc4c(c3)CCC4=O)c2)CC1 (3D coordinates assigned)
CS(=O)(=O)N1CCN(C(=O)c2ccc([O-])c([N-]S(=O)(=O)c3ccc4c(c3)CCC4=O)c2)CC1 (nonaromatic ring conformer: 84.59051254850867 kcal/mol)

>  <smiles>  (42) 
CS(=O)(=O)N1CCN(C(=O)c2ccc(O)c(NS(=O)(=O)c3ccc4c(c3)CCC4=O)c2)CC1

>  <score_type>  (42) 
oracle

>  <origin>  (42) 
adgpu

>  <m_score__min__energy>  (42) 
-14.5

>  <m_primary>  (42) 
energy

$$$$
42:0
     RDKit          3D

 38 40  0  0  0  0  0  0  0  0999 V2000
    0.2620   16.9770  -27.4710 C   0  0  0  0  0  0  0  0  0  0  0  0
   -0.5700   18.2150  -27.4760 C   0  0  0  0  0  0  0  0  0  0  0  0
   -0.2700   19.3860  -28.1370 C   0  0  0  0  0  0  0  0  0  0  0  0
   -1.2970   20.2390  -27.7670 C   0  0  0  0  0  0  0  0  0  0  0  0
   -1.4920   21.6480  -28.1800 C   0  0  0  0  0  0  0  0  0  0  0  0
   -0.5460   22.6170  -27.8130 C   0  0  0  0  0  0  0  0  0  0  0  0
   -0.7090   23.9500  -28.2000 C   0  0  0  0  0  0  0  0  0  0  0  0
   -1.8130   24.3300  -28.9680 C   0  0  0  0  0  0  0  0  0  0  0  0
   -1.9580   25.6630  -29.3360 O   0  0  0  0  0  0  0  0  0  0  0  0
   -2.7640   23.3710  -29.3540 C   0  0  0  0  0  0  0  0  0  0  0  0
   -4.1600   23.8210  -30.3380 S   0  0  0  0  0  0  0  0  0  0  0  0
   -4.0350   23.2260  -31.7140 O   0  0  0  0  0  0  0  0  0  0  0  0
   -4.2170   25.3170  -30.4480 O   0  0  0  0  0  0  0  0  0  0  0  0
   -5.6220   23.2450  -29.5930 N   0  0  0  0  0  0  0  0  0  0  0  0
   -6.7810   23.6070  -30.4120 C   0  0  0  0  0  0  0  0  0  0  0  0
   -7.3070   22.3780  -31.0980 C   0  0  0  0  0  0  0  0  0  0  0  0
   -8.6860   22.1890  -31.2630 C   0  0  0  0  0  0  0  0  0  0  0  0
   -9.1610   21.0660  -31.9420 C   0  0  0  0  0  0  0  0  0  0  0  0
   -8.2480   20.1440  -32.4590 C   0  0  0  0  0  0  0  0  0  0  0  0
   -6.9130   20.3470  -32.3030 N   0  0  0  0  0  0  0  0  0  0  0  0
   -6.4260   21.4330  -31.6460 C   0  0  0  0  0  0  0  0  0  0  0  0
   -2.6060   22.0380  -28.9430 C   0  0  0  0  0  0  0  0  0  0  0  0
   -2.1020   19.5910  -26.9540 O   0  0  0  0  0  0  0  0  0  0  0  0
   -1.6920   18.3730  -26.7500 N   0  0  0  0  0  0  0  0  0  0  0  0
    0.4646   16.6756  -26.4327 H   0  0  0  0  0  0  0  0  0  0  0  0
   -0.2780   16.1703  -27.9883 H   0  0  0  0  0  0  0  0  0  0  0  0
    1.2129   17.1722  -27.9883 H   0  0  0  0  0  0  0  0  0  0  0  0
    0.5822   19.5941  -28.8006 H   0  0  0  0  0  0  0  0  0  0  0  0
    0.3307   22.3253  -27.2161 H   0  0  0  0  0  0  0  0  0  0  0  0
    0.0344   24.7028  -27.8990 H   0  0  0  0  0  0  0  0  0  0  0  0
   -5.7110   23.7280  -28.6690 H   0  0  0  0  0  0  0  0  0  0  0  0
   -7.5657   24.0339  -29.7701 H   0  0  0  0  0  0  0  0  0  0  0  0
   -6.4822   24.3505  -31.1656 H   0  0  0  0  0  0  0  0  0  0  0  0
   -9.3943   22.9263  -30.8571 H   0  0  0  0  0  0  0  0  0  0  0  0
  -10.2423   20.9087  -32.0686 H   0  0  0  0  0  0  0  0  0  0  0  0
   -8.6096   19.2528  -32.9929 H   0  0  0  0  0  0  0  0  0  0  0  0
   -5.3395   21.5712  -31.5438 H   0  0  0  0  0  0  0  0  0  0  0  0
   -3.3630   21.2900  -29.2214 H   0  0  0  0  0  0  0  0  0  0  0  0
  1  2  1  0
  2  3  1  0
  3  4  2  0
  4  5  1  0
  5  6  2  0
  6  7  1  0
  7  8  2  0
  8  9  1  0
  8 10  1  0
 10 11  1  0
 11 12  2  0
 11 13  2  0
 11 14  1  0
 14 15  1  0
 15 16  1  0
 16 17  2  0
 17 18  1  0
 18 19  2  0
 19 20  1  0
 20 21  2  0
 10 22  2  0
  4 23  1  0
 23 24  1  0
 24  2  2  0
 22  5  1  0
 21 16  1  0
  1 25  1  0
  1 26  1  0
  1 27  1  0
  3 28  1  0
  6 29  1  0
  7 30  1  0
 14 31  1  0
 15 32  1  0
 15 33  1  0
 17 34  1  0
 18 35  1  0
 19 36  1  0
 21 37  1  0
 22 38  1  0
M  CHG  1   9  -1
M  END
>  <UniqueID>  (43) 
43

>  <SMILES>  (43) 
Cc1cc(-c2ccc([O-])c(S(=O)(=O)NCc3cccnc3)c2)on1

>  <Energy>  (43) 
68.1816643823392

>  <Genealogy>  (43) 
Cc1cc(-c2ccc([O-])c(S(=O)(=O)NCc3cccnc3)c2)on1 (protonated)
Cc1cc(-c2ccc([O-])c(S(=O)(=O)NCc3cccnc3)c2)on1 (3D coordinates assigned)
Cc1cc(-c2ccc([O-])c(S(=O)(=O)NCc3cccnc3)c2)on1 (optimized conformer: 68.1816643823392 kcal/mol)

>  <smiles>  (43) 
Cc1cc(-c2ccc(O)c(S(=O)(=O)NCc3cccnc3)c2)on1

>  <score_type>  (43) 
oracle

>  <origin>  (43) 
adgpu

>  <m_score__min__energy>  (43) 
-12

>  <m_primary>  (43) 
energy

$$$$
43:0
     RDKit          3D

 56 59  0  0  0  0  0  0  0  0999 V2000
   -0.3210   20.8970  -34.0120 C   0  0  0  0  0  0  0  0  0  0  0  0
   -1.2340   20.4480  -32.9130 C   0  0  0  0  0  0  0  0  0  0  0  0
   -2.4520   20.2610  -33.1780 O   0  0  0  0  0  0  0  0  0  0  0  0
   -0.7700   20.2660  -31.5660 N   0  0  0  0  0  0  0  0  0  0  0  0
   -0.1280   19.0330  -31.1070 C   0  0  0  0  0  0  0  0  0  0  0  0
   -0.0940   19.1120  -29.5620 C   0  0  0  0  0  0  0  0  0  0  0  0
   -0.6660   20.4550  -29.2740 C   0  0  0  0  0  0  0  0  0  0  0  0
   -0.8210   21.0690  -28.0310 C   0  0  0  0  0  0  0  0  0  0  0  0
   -1.3470   22.3690  -27.9860 C   0  0  0  0  0  0  0  0  0  0  0  0
   -1.6780   23.0440  -29.1790 C   0  0  0  0  0  0  0  0  0  0  0  0
   -2.3470   24.6710  -29.1160 S   0  0  0  0  0  0  0  0  0  0  0  0
   -1.2560   25.6850  -29.3130 O   0  0  0  0  0  0  0  0  0  0  0  0
   -2.9580   24.8950  -27.7610 O   0  0  0  0  0  0  0  0  0  0  0  0
   -3.5660   24.9040  -30.3280 N   0  0  0  0  0  0  0  0  0  0  0  0
   -4.4690   23.8700  -30.7280 C   0  0  0  0  0  0  0  0  0  0  0  0
   -5.7200   23.7180  -30.1140 C   0  0  0  0  0  0  0  0  0  0  0  0
   -6.5770   22.6880  -30.5070 C   0  0  0  0  0  0  0  0  0  0  0  0
   -6.1960   21.8010  -31.5230 C   0  0  0  0  0  0  0  0  0  0  0  0
   -7.2570   20.4670  -31.9840 S   0  0  0  0  0  0  0  0  0  0  0  0
   -8.5160   20.5330  -31.1640 O   0  0  0  0  0  0  0  0  0  0  0  0
   -7.6360   20.6160  -33.4310 O   0  0  0  0  0  0  0  0  0  0  0  0
   -6.4810   18.9170  -31.7470 N   0  0  0  0  0  0  0  0  0  0  0  0
   -7.4290   17.7960  -31.9950 C   0  0  0  0  0  0  0  0  0  0  0  0
   -7.2190   17.1240  -33.3600 C   0  0  0  0  0  0  0  0  0  0  0  0
   -5.7920   16.5620  -33.4830 C   0  0  0  0  0  0  0  0  0  0  0  0
   -4.7550   17.4000  -32.7150 C   0  0  0  0  0  0  0  0  0  0  0  0
   -5.2310   18.8470  -32.5430 C   0  0  0  0  0  0  0  0  0  0  0  0
   -4.9630   21.9800  -32.1660 C   0  0  0  0  0  0  0  0  0  0  0  0
   -4.1080   23.0150  -31.7760 C   0  0  0  0  0  0  0  0  0  0  0  0
   -1.4980   22.4040  -30.4200 C   0  0  0  0  0  0  0  0  0  0  0  0
   -1.0270   21.0870  -30.4330 C   0  0  0  0  0  0  0  0  0  0  0  0
    0.5854   21.3428  -33.5765 H   0  0  0  0  0  0  0  0  0  0  0  0
   -0.0426   20.0330  -34.6333 H   0  0  0  0  0  0  0  0  0  0  0  0
   -0.8353   21.6450  -34.6333 H   0  0  0  0  0  0  0  0  0  0  0  0
   -0.7092   18.1572  -31.4312 H   0  0  0  0  0  0  0  0  0  0  0  0
    0.8842   18.9290  -31.5250 H   0  0  0  0  0  0  0  0  0  0  0  0
   -0.7087   18.3177  -29.1134 H   0  0  0  0  0  0  0  0  0  0  0  0
    0.9155   18.9766  -29.1467 H   0  0  0  0  0  0  0  0  0  0  0  0
   -0.5370   20.5454  -27.1062 H   0  0  0  0  0  0  0  0  0  0  0  0
   -1.5018   22.8638  -27.0158 H   0  0  0  0  0  0  0  0  0  0  0  0
   -6.0279   24.4132  -29.3191 H   0  0  0  0  0  0  0  0  0  0  0  0
   -7.5551   22.5723  -30.0172 H   0  0  0  0  0  0  0  0  0  0  0  0
   -6.2100   18.8830  -30.7360 H   0  0  0  0  0  0  0  0  0  0  0  0
   -7.2922   17.0404  -31.2074 H   0  0  0  0  0  0  0  0  0  0  0  0
   -8.4454   18.2166  -31.9880 H   0  0  0  0  0  0  0  0  0  0  0  0
   -7.9406   16.3013  -33.4709 H   0  0  0  0  0  0  0  0  0  0  0  0
   -7.3690   17.8764  -34.1483 H   0  0  0  0  0  0  0  0  0  0  0  0
   -5.7818   15.5372  -33.0834 H   0  0  0  0  0  0  0  0  0  0  0  0
   -5.5161   16.5866  -34.5476 H   0  0  0  0  0  0  0  0  0  0  0  0
   -4.5969   16.9536  -31.7221 H   0  0  0  0  0  0  0  0  0  0  0  0
   -3.8173   17.4072  -33.2901 H   0  0  0  0  0  0  0  0  0  0  0  0
   -4.4471   19.4225  -32.0289 H   0  0  0  0  0  0  0  0  0  0  0  0
   -5.4330   19.2648  -33.5403 H   0  0  0  0  0  0  0  0  0  0  0  0
   -4.6671   21.3030  -32.9810 H   0  0  0  0  0  0  0  0  0  0  0  0
   -3.1484   23.1580  -32.2944 H   0  0  0  0  0  0  0  0  0  0  0  0
   -1.7231   22.9289  -31.3601 H   0  0  0  0  0  0  0  0  0  0  0  0
  1  2  1  0
  2  3  2  0
  2  4  1  0
  4  5  1  0
  5  6  1  0
  6  7  1  0
  7  8  2  0
  8  9  1  0
  9 10  2  0
 10 11  1  0
 11 12  2  0
 11 13  2  0
 11 14  1  0
 14 15  1  0
 15 16  2  0
 16 17  1  0
 17 18  2  0
 18 19  1  0
 19 20  2  0
 19 21  2  0
 19 22  1  0
 22 23  1  0
 23 24  1  0
 24 25  1  0
 25 26  1  0
 26 27  1  0
 18 28  1  0
 28 29  2  0
 10 30  1  0
 30 31  2  0
 31  4  1  0
 31  7  1  0
 29 15  1  0
 27 22  1  0
  1 32  1  0
  1 33  1  0
  1 34  1  0
  5 35  1  0
  5 36  1  0
  6 37  1  0
  6 38  1  0
  8 39  1  0
  9 40  1  0
 16 41  1  0
 17 42  1  0
 22 43  1  0
 23 44  1  0
 23 45  1  0
 24 46  1  0
 24 47  1  0
 25 48  1  0
 25 49  1  0
 26 50  1  0
 26 51  1  0
 27 52  1  0
 27 53  1  0
 28 54  1  0
 29 55  1  0
 30 56  1  0
M  CHG  2  14  -1  22   1
M  END
>  <UniqueID>  (44) 
44

>  <SMILES>  (44) 
CC(=O)N1CCc2ccc(S(=O)(=O)[N-]c3ccc(S(=O)(=O)[NH+]4CCCCC4)cc3)cc21

>  <Energy>  (44) 
84.54087362105469

>  <Genealogy>  (44) 
CC(=O)N1CCc2ccc(S(=O)(=O)[N-]c3ccc(S(=O)(=O)[NH+]4CCCCC4)cc3)cc21 (protonated)
CC(=O)N1CCc2ccc(S(=O)(=O)[N-]c3ccc(S(=O)(=O)[NH+]4CCCCC4)cc3)cc21 (3D coordinates assigned)
CC(=O)N1CCc2ccc(S(=O)(=O)[N-]c3ccc(S(=O)(=O)[NH+]4CCCCC4)cc3)cc21 (nonaromatic ring conformer: 84.54087362105469 kcal/mol)

>  <smiles>  (44) 
CC(=O)N1CCc2ccc(S(=O)(=O)Nc3ccc(S(=O)(=O)N4CCCCC4)cc3)cc21

>  <score_type>  (44) 
oracle

>  <origin>  (44) 
adgpu

>  <m_score__min__energy>  (44) 
-12.25

>  <m_primary>  (44) 
energy

$$$$
44:0
     RDKit          3D

 55 58  0  0  0  0  0  0  0  0999 V2000
   -2.1340   22.6800  -31.5730 O   0  0  0  0  0  0  0  0  0  0  0  0
   -2.9750   22.4390  -30.6670 C   0  0  0  0  0  0  0  0  0  0  0  0
   -2.6520   21.4610  -29.6700 N   0  0  0  0  0  0  0  0  0  0  0  0
   -1.9350   21.7050  -28.4510 C   0  0  0  0  0  0  0  0  0  0  0  0
   -1.1430   22.8570  -28.3580 C   0  0  0  0  0  0  0  0  0  0  0  0
   -0.4340   23.1420  -27.1820 C   0  0  0  0  0  0  0  0  0  0  0  0
    0.5550   24.5930  -27.0550 S   0  0  0  0  0  0  0  0  0  0  0  0
    1.3280   24.5830  -25.7650 O   0  0  0  0  0  0  0  0  0  0  0  0
    1.5300   24.6050  -28.2000 O   0  0  0  0  0  0  0  0  0  0  0  0
   -0.4690   26.0110  -27.1350 N   0  0  0  0  0  0  0  0  0  0  0  0
   -1.8840   25.6260  -27.1100 C   0  0  0  0  0  0  0  0  0  0  0  0
   -2.3610   25.6690  -25.6650 C   0  0  0  0  0  0  0  0  0  0  0  0
   -1.3120   26.4660  -24.9130 C   0  0  0  0  0  0  0  0  0  0  0  0
   -0.2710   26.8540  -25.9530 C   0  0  0  0  0  0  0  0  0  0  0  0
   -0.5020   22.2550  -26.1020 C   0  0  0  0  0  0  0  0  0  0  0  0
   -1.2620   21.0870  -26.1980 C   0  0  0  0  0  0  0  0  0  0  0  0
   -1.9670   20.7990  -27.3700 C   0  0  0  0  0  0  0  0  0  0  0  0
   -2.6650   19.6010  -27.4610 O   0  0  0  0  0  0  0  0  0  0  0  0
   -4.2510   23.1900  -30.6460 C   0  0  0  0  0  0  0  0  0  0  0  0
   -5.4480   22.5220  -30.9550 C   0  0  0  0  0  0  0  0  0  0  0  0
   -6.6730   23.2000  -30.9190 C   0  0  0  0  0  0  0  0  0  0  0  0
   -8.1620   22.3450  -31.3110 S   0  0  0  0  0  0  0  0  0  0  0  0
   -8.8400   21.9240  -30.0360 O   0  0  0  0  0  0  0  0  0  0  0  0
   -9.0900   23.2580  -32.0680 O   0  0  0  0  0  0  0  0  0  0  0  0
   -7.7800   20.9330  -32.2630 N   0  0  0  0  0  0  0  0  0  0  0  0
   -8.9740   20.1320  -32.5290 C   0  0  0  0  0  0  0  0  0  0  0  0
   -8.5020   18.7000  -32.7200 C   0  0  0  0  0  0  0  0  0  0  0  0
   -7.1240   18.6410  -32.0780 C   0  0  0  0  0  0  0  0  0  0  0  0
   -6.8640   20.0430  -31.5500 C   0  0  0  0  0  0  0  0  0  0  0  0
   -6.7020   24.5630  -30.5990 C   0  0  0  0  0  0  0  0  0  0  0  0
   -5.5170   25.2420  -30.3150 C   0  0  0  0  0  0  0  0  0  0  0  0
   -4.2920   24.5680  -30.3450 C   0  0  0  0  0  0  0  0  0  0  0  0
   -3.1230   25.2830  -30.1060 O   0  0  0  0  0  0  0  0  0  0  0  0
   -1.0767   23.5438  -29.2147 H   0  0  0  0  0  0  0  0  0  0  0  0
   -2.4724   26.3291  -27.7178 H   0  0  0  0  0  0  0  0  0  0  0  0
   -2.0108   24.6144  -27.5230 H   0  0  0  0  0  0  0  0  0  0  0  0
   -3.3407   26.1648  -25.5986 H   0  0  0  0  0  0  0  0  0  0  0  0
   -2.4827   24.6592  -25.2462 H   0  0  0  0  0  0  0  0  0  0  0  0
   -1.7607   27.3647  -24.4647 H   0  0  0  0  0  0  0  0  0  0  0  0
   -0.8696   25.8838  -24.0912 H   0  0  0  0  0  0  0  0  0  0  0  0
   -0.3936   27.9126  -26.2257 H   0  0  0  0  0  0  0  0  0  0  0  0
    0.7420   26.7103  -25.5489 H   0  0  0  0  0  0  0  0  0  0  0  0
    0.0450   22.4783  -25.1741 H   0  0  0  0  0  0  0  0  0  0  0  0
   -1.3059   20.3908  -25.3475 H   0  0  0  0  0  0  0  0  0  0  0  0
   -5.4227   21.4566  -31.2277 H   0  0  0  0  0  0  0  0  0  0  0  0
   -9.6689   20.1924  -31.6784 H   0  0  0  0  0  0  0  0  0  0  0  0
   -9.5061   20.4967  -33.4200 H   0  0  0  0  0  0  0  0  0  0  0  0
   -9.1886   17.9988  -32.2232 H   0  0  0  0  0  0  0  0  0  0  0  0
   -8.4712   18.4172  -33.7826 H   0  0  0  0  0  0  0  0  0  0  0  0
   -7.1140   17.9117  -31.2546 H   0  0  0  0  0  0  0  0  0  0  0  0
   -6.3521   18.3242  -32.7948 H   0  0  0  0  0  0  0  0  0  0  0  0
   -7.0598   20.0839  -30.4683 H   0  0  0  0  0  0  0  0  0  0  0  0
   -5.8169   20.3398  -31.7096 H   0  0  0  0  0  0  0  0  0  0  0  0
   -7.6618   25.0997  -30.5715 H   0  0  0  0  0  0  0  0  0  0  0  0
   -5.5463   26.3131  -30.0662 H   0  0  0  0  0  0  0  0  0  0  0  0
  1  2  2  0
  2  3  1  0
  3  4  1  0
  4  5  2  0
  5  6  1  0
  6  7  1  0
  7  8  2  0
  7  9  2  0
  7 10  1  0
 10 11  1  0
 11 12  1  0
 12 13  1  0
 13 14  1  0
  6 15  2  0
 15 16  1  0
 16 17  2  0
 17 18  1  0
  2 19  1  0
 19 20  2  0
 20 21  1  0
 21 22  1  0
 22 23  2  0
 22 24  2  0
 22 25  1  0
 25 26  1  0
 26 27  1  0
 27 28  1  0
 28 29  1  0
 21 30  2  0
 30 31  1  0
 31 32  2  0
 32 33  1  0
 17  4  1  0
 32 19  1  0
 14 10  1  0
 29 25  1  0
  5 34  1  0
 11 35  1  0
 11 36  1  0
 12 37  1  0
 12 38  1  0
 13 39  1  0
 13 40  1  0
 14 41  1  0
 14 42  1  0
 15 43  1  0
 16 44  1  0
 20 45  1  0
 26 46  1  0
 26 47  1  0
 27 48  1  0
 27 49  1  0
 28 50  1  0
 28 51  1  0
 29 52  1  0
 29 53  1  0
 30 54  1  0
 31 55  1  0
M  CHG  3   3  -1  18  -1  33  -1
M  END
>  <UniqueID>  (45) 
45

>  <SMILES>  (45) 
O=C([N-]c1cc(S(=O)(=O)N2CCCC2)ccc1[O-])c1cc(S(=O)(=O)N2CCCC2)ccc1[O-]

>  <Energy>  (45) 
68.93556852874221

>  <Genealogy>  (45) 
O=C([N-]c1cc(S(=O)(=O)N2CCCC2)ccc1[O-])c1cc(S(=O)(=O)N2CCCC2)ccc1[O-] (protonated)
O=C([N-]c1cc(S(=O)(=O)N2CCCC2)ccc1[O-])c1cc(S(=O)(=O)N2CCCC2)ccc1[O-] (3D coordinates assigned)
O=C([N-]c1cc(S(=O)(=O)N2CCCC2)ccc1[O-])c1cc(S(=O)(=O)N2CCCC2)ccc1[O-] (nonaromatic ring conformer: 68.93556852874221 kcal/mol)

>  <smiles>  (45) 
O=C(Nc1cc(S(=O)(=O)N2CCCC2)ccc1O)c1cc(S(=O)(=O)N2CCCC2)ccc1O

>  <score_type>  (45) 
oracle

>  <origin>  (45) 
adgpu

>  <m_score__min__energy>  (45) 
-14.91

>  <m_primary>  (45) 
energy

$$$$
45:0
     RDKit          3D

 49 51  0  0  0  0  0  0  0  0999 V2000
   -5.7280   26.0660  -30.3950 C   0  0  0  0  0  0  0  0  0  0  0  0
   -4.6480   25.0240  -30.3980 C   0  0  0  0  0  0  0  0  0  0  0  0
   -3.4870   25.2770  -29.7350 N   0  0  0  0  0  0  0  0  0  0  0  0
   -2.4620   24.3850  -29.6950 C   0  0  0  0  0  0  0  0  0  0  0  0
   -1.4150   24.6790  -29.0600 O   0  0  0  0  0  0  0  0  0  0  0  0
   -2.5780   23.1490  -30.3560 C   0  0  0  0  0  0  0  0  0  0  0  0
   -1.4520   22.1420  -30.3330 C   0  0  0  0  0  0  0  0  0  0  0  0
   -1.3330   21.4690  -31.6280 N   0  0  0  0  0  0  0  0  0  0  0  0
   -2.3590   20.6500  -32.2190 C   0  0  0  0  0  0  0  0  0  0  0  0
   -2.4180   20.4160  -33.6070 C   0  0  0  0  0  0  0  0  0  0  0  0
   -3.4260   19.6100  -34.1450 C   0  0  0  0  0  0  0  0  0  0  0  0
   -4.3880   19.0290  -33.3120 C   0  0  0  0  0  0  0  0  0  0  0  0
   -5.6670   18.0380  -34.0090 S   0  0  0  0  0  0  0  0  0  0  0  0
   -5.6260   18.1780  -35.5060 O   0  0  0  0  0  0  0  0  0  0  0  0
   -5.4430   16.5930  -33.6580 O   0  0  0  0  0  0  0  0  0  0  0  0
   -7.2190   18.5680  -33.4080 N   0  0  0  0  0  0  0  0  0  0  0  0
   -7.2400   20.0460  -33.2920 C   0  0  0  0  0  0  0  0  0  0  0  0
   -8.3630   20.5670  -32.3660 C   0  0  0  0  0  0  0  0  0  0  0  0
   -9.4850   19.5420  -32.2020 C   0  0  0  0  0  0  0  0  0  0  0  0
   -8.9450   18.2140  -31.6480 C   0  0  0  0  0  0  0  0  0  0  0  0
   -7.5060   17.9140  -32.1180 C   0  0  0  0  0  0  0  0  0  0  0  0
   -4.3450   19.2710  -31.9330 C   0  0  0  0  0  0  0  0  0  0  0  0
   -3.3380   20.0760  -31.3930 C   0  0  0  0  0  0  0  0  0  0  0  0
   -3.7710   22.8600  -31.0330 C   0  0  0  0  0  0  0  0  0  0  0  0
   -4.8120   23.7940  -31.0640 C   0  0  0  0  0  0  0  0  0  0  0  0
   -6.0260   23.4750  -31.7750 C   0  0  0  0  0  0  0  0  0  0  0  0
   -7.0000   23.2210  -32.3460 N   0  0  0  0  0  0  0  0  0  0  0  0
   -5.9904   26.3191  -29.3572 H   0  0  0  0  0  0  0  0  0  0  0  0
   -5.3690   26.9677  -30.9128 H   0  0  0  0  0  0  0  0  0  0  0  0
   -6.6162   25.6750  -30.9128 H   0  0  0  0  0  0  0  0  0  0  0  0
   -0.5084   22.6605  -30.1075 H   0  0  0  0  0  0  0  0  0  0  0  0
   -1.6673   21.3883  -29.5612 H   0  0  0  0  0  0  0  0  0  0  0  0
   -0.4630   21.6530  -32.1810 H   0  0  0  0  0  0  0  0  0  0  0  0
   -1.6673   20.8696  -34.2708 H   0  0  0  0  0  0  0  0  0  0  0  0
   -3.4627   19.4317  -35.2298 H   0  0  0  0  0  0  0  0  0  0  0  0
   -7.9350   18.2660  -34.1110 H   0  0  0  0  0  0  0  0  0  0  0  0
   -6.2720   20.3791  -32.8896 H   0  0  0  0  0  0  0  0  0  0  0  0
   -7.4302   20.4507  -34.2970 H   0  0  0  0  0  0  0  0  0  0  0  0
   -7.9351   20.7878  -31.3770 H   0  0  0  0  0  0  0  0  0  0  0  0
   -8.7906   21.4717  -32.8229 H   0  0  0  0  0  0  0  0  0  0  0  0
  -10.2378   19.9417  -31.5067 H   0  0  0  0  0  0  0  0  0  0  0  0
   -9.9321   19.3526  -33.1890 H   0  0  0  0  0  0  0  0  0  0  0  0
   -8.9536   18.2616  -30.5491 H   0  0  0  0  0  0  0  0  0  0  0  0
   -9.5925   17.4087  -32.0252 H   0  0  0  0  0  0  0  0  0  0  0  0
   -6.7973   18.2842  -31.3625 H   0  0  0  0  0  0  0  0  0  0  0  0
   -7.4016   16.8267  -32.2479 H   0  0  0  0  0  0  0  0  0  0  0  0
   -5.1052   18.8266  -31.2737 H   0  0  0  0  0  0  0  0  0  0  0  0
   -3.3125   20.2617  -30.3091 H   0  0  0  0  0  0  0  0  0  0  0  0
   -3.8893   21.8926  -31.5431 H   0  0  0  0  0  0  0  0  0  0  0  0
  1  2  1  0
  2  3  1  0
  3  4  1  0
  4  5  2  0
  4  6  1  0
  6  7  1  0
  7  8  1  0
  8  9  1  0
  9 10  2  0
 10 11  1  0
 11 12  2  0
 12 13  1  0
 13 14  2  0
 13 15  2  0
 13 16  1  0
 16 17  1  0
 17 18  1  0
 18 19  1  0
 19 20  1  0
 20 21  1  0
 12 22  1  0
 22 23  2  0
  6 24  2  0
 24 25  1  0
 25 26  1  0
 26 27  3  0
 25  2  2  0
 23  9  1  0
 21 16  1  0
  1 28  1  0
  1 29  1  0
  1 30  1  0
  7 31  1  0
  7 32  1  0
  8 33  1  0
 10 34  1  0
 11 35  1  0
 16 36  1  0
 17 37  1  0
 17 38  1  0
 18 39  1  0
 18 40  1  0
 19 41  1  0
 19 42  1  0
 20 43  1  0
 20 44  1  0
 21 45  1  0
 21 46  1  0
 22 47  1  0
 23 48  1  0
 24 49  1  0
M  CHG  2   3  -1  16   1
M  END
>  <UniqueID>  (46) 
46

>  <SMILES>  (46) 
Cc1[n-]c(=O)c(CNc2ccc(S(=O)(=O)[NH+]3CCCCC3)cc2)cc1C#N

>  <Energy>  (46) 
52.83049132901853

>  <Genealogy>  (46) 
Cc1[n-]c(=O)c(CNc2ccc(S(=O)(=O)[NH+]3CCCCC3)cc2)cc1C#N (protonated)
Cc1[n-]c(=O)c(CNc2ccc(S(=O)(=O)[NH+]3CCCCC3)cc2)cc1C#N (3D coordinates assigned)
Cc1[n-]c(=O)c(CNc2ccc(S(=O)(=O)[NH+]3CCCCC3)cc2)cc1C#N (nonaromatic ring conformer: 52.83049132901853 kcal/mol)

>  <smiles>  (46) 
Cc1[nH]c(=O)c(CNc2ccc(S(=O)(=O)N3CCCCC3)cc2)cc1C#N

>  <score_type>  (46) 
oracle

>  <origin>  (46) 
adgpu

>  <m_score__min__energy>  (46) 
-10.18

>  <m_primary>  (46) 
energy

$$$$
46:0
     RDKit          3D

 44 47  0  0  0  0  0  0  0  0999 V2000
   -9.4470   21.6330  -32.0740 C   0  0  0  0  0  0  0  0  0  0  0  0
   -8.5020   20.4700  -32.1440 C   0  0  0  0  0  0  0  0  0  0  0  0
   -8.9030   19.2130  -31.6190 C   0  0  0  0  0  0  0  0  0  0  0  0
   -8.0430   18.0990  -31.6860 C   0  0  0  0  0  0  0  0  0  0  0  0
   -6.8000   18.2870  -32.2820 C   0  0  0  0  0  0  0  0  0  0  0  0
   -6.4020   19.4920  -32.8030 C   0  0  0  0  0  0  0  0  0  0  0  0
   -7.2300   20.6120  -32.7470 C   0  0  0  0  0  0  0  0  0  0  0  0
   -5.1770   19.3950  -33.3820 N   0  0  0  0  0  0  0  0  0  0  0  0
   -4.8750   18.0860  -33.1810 C   0  0  0  0  0  0  0  0  0  0  0  0
   -3.7410   17.4060  -33.6100 C   0  0  0  0  0  0  0  0  0  0  0  0
   -2.4530   18.2100  -34.5560 S   0  0  0  0  0  0  0  0  0  0  0  0
   -1.7950   19.0200  -33.0890 C   0  0  0  0  0  0  0  0  0  0  0  0
   -0.7870   18.5190  -32.5200 O   0  0  0  0  0  0  0  0  0  0  0  0
   -2.4500   20.2160  -32.5190 C   0  0  0  0  0  0  0  0  0  0  0  0
   -2.4330   20.4500  -31.1280 C   0  0  0  0  0  0  0  0  0  0  0  0
   -3.0680   21.5800  -30.5960 C   0  0  0  0  0  0  0  0  0  0  0  0
   -3.6910   22.5070  -31.4470 C   0  0  0  0  0  0  0  0  0  0  0  0
   -4.5360   23.9050  -30.7840 S   0  0  0  0  0  0  0  0  0  0  0  0
   -5.3720   23.4230  -29.2890 C   0  0  0  0  0  0  0  0  0  0  0  0
   -5.5400   24.4090  -31.7850 O   0  0  0  0  0  0  0  0  0  0  0  0
   -3.5610   25.0090  -30.4750 O   0  0  0  0  0  0  0  0  0  0  0  0
   -3.6930   22.2860  -32.8320 C   0  0  0  0  0  0  0  0  0  0  0  0
   -3.0770   21.1500  -33.3640 C   0  0  0  0  0  0  0  0  0  0  0  0
   -3.6560   16.0730  -33.3330 N   0  0  0  0  0  0  0  0  0  0  0  0
   -4.6610   15.4170  -32.6710 C   0  0  0  0  0  0  0  0  0  0  0  0
   -4.5300   13.9590  -32.3810 C   0  0  0  0  0  0  0  0  0  0  0  0
   -5.7680   16.1050  -32.2620 N   0  0  0  0  0  0  0  0  0  0  0  0
   -5.8290   17.4050  -32.5280 N   0  0  0  0  0  0  0  0  0  0  0  0
   -9.6475   21.8797  -31.0209 H   0  0  0  0  0  0  0  0  0  0  0  0
   -8.9962   22.5024  -32.5749 H   0  0  0  0  0  0  0  0  0  0  0  0
  -10.3903   21.3697  -32.5749 H   0  0  0  0  0  0  0  0  0  0  0  0
   -9.8950   19.1080  -31.1554 H   0  0  0  0  0  0  0  0  0  0  0  0
   -8.3423   17.1201  -31.2833 H   0  0  0  0  0  0  0  0  0  0  0  0
   -6.9039   21.5781  -33.1596 H   0  0  0  0  0  0  0  0  0  0  0  0
   -1.9198   19.7434  -30.4592 H   0  0  0  0  0  0  0  0  0  0  0  0
   -3.0785   21.7415  -29.5080 H   0  0  0  0  0  0  0  0  0  0  0  0
   -4.7894   23.7589  -28.4185 H   0  0  0  0  0  0  0  0  0  0  0  0
   -6.3703   23.8842  -29.2622 H   0  0  0  0  0  0  0  0  0  0  0  0
   -5.4731   22.3280  -29.2622 H   0  0  0  0  0  0  0  0  0  0  0  0
   -4.1811   23.0093  -33.5018 H   0  0  0  0  0  0  0  0  0  0  0  0
   -3.0824   20.9848  -34.4515 H   0  0  0  0  0  0  0  0  0  0  0  0
   -4.5158   13.8015  -31.2924 H   0  0  0  0  0  0  0  0  0  0  0  0
   -5.3833   13.4200  -32.8184 H   0  0  0  0  0  0  0  0  0  0  0  0
   -3.5943   13.5808  -32.8184 H   0  0  0  0  0  0  0  0  0  0  0  0
  1  2  1  0
  2  3  2  0
  3  4  1  0
  4  5  2  0
  5  6  1  0
  6  7  2  0
  6  8  1  0
  8  9  2  0
  9 10  1  0
 10 11  1  0
 11 12  1  0
 12 13  2  0
 12 14  1  0
 14 15  2  0
 15 16  1  0
 16 17  2  0
 17 18  1  0
 18 19  1  0
 18 20  2  0
 18 21  2  0
 17 22  1  0
 22 23  2  0
 10 24  2  0
 24 25  1  0
 25 26  1  0
 25 27  2  0
 27 28  1  0
  7  2  1  0
 28  9  1  0
 28  5  1  0
 23 14  1  0
  1 29  1  0
  1 30  1  0
  1 31  1  0
  3 32  1  0
  4 33  1  0
  7 34  1  0
 15 35  1  0
 16 36  1  0
 19 37  1  0
 19 38  1  0
 19 39  1  0
 22 40  1  0
 23 41  1  0
 26 42  1  0
 26 43  1  0
 26 44  1  0
M  END
>  <UniqueID>  (47) 
47

>  <SMILES>  (47) 
Cc1ccc2c(c1)nc1c(SC(=O)c3ccc(S(C)(=O)=O)cc3)nc(C)nn12

>  <Energy>  (47) 
87.89678070088237

>  <Genealogy>  (47) 
Cc1ccc2c(c1)nc1c(SC(=O)c3ccc(S(C)(=O)=O)cc3)nc(C)nn12 (3D coordinates assigned)
Cc1ccc2c(c1)nc1c(SC(=O)c3ccc(S(C)(=O)=O)cc3)nc(C)nn12 (optimized conformer: 87.89678070088237 kcal/mol)

>  <smiles>  (47) 
Cc1ccc2c(c1)nc1c(SC(=O)c3ccc(S(C)(=O)=O)cc3)nc(C)nn12

>  <score_type>  (47) 
oracle

>  <origin>  (47) 
adgpu

>  <m_score__min__energy>  (47) 
-10.050000000000001

>  <m_primary>  (47) 
energy

$$$$
47:0
     RDKit          3D

 59 62  0  0  0  0  0  0  0  0999 V2000
   -8.0530   23.4260  -31.6730 C   0  0  0  0  0  0  0  0  0  0  0  0
   -6.5620   23.3440  -31.4690 C   0  0  0  0  0  0  0  0  0  0  0  0
   -5.8870   24.5110  -31.0730 C   0  0  0  0  0  0  0  0  0  0  0  0
   -4.5100   24.5010  -30.8550 C   0  0  0  0  0  0  0  0  0  0  0  0
   -3.8700   25.6680  -30.4560 O   0  0  0  0  0  0  0  0  0  0  0  0
   -3.7830   23.3240  -31.0310 C   0  0  0  0  0  0  0  0  0  0  0  0
   -2.3770   23.3170  -30.7810 N   0  0  0  0  0  0  0  0  0  0  0  0
   -1.7600   23.4440  -29.1690 S   0  0  0  0  0  0  0  0  0  0  0  0
   -0.3590   23.9870  -29.2260 O   0  0  0  0  0  0  0  0  0  0  0  0
   -2.6050   24.4020  -28.3770 O   0  0  0  0  0  0  0  0  0  0  0  0
   -1.7450   21.8540  -28.3990 C   0  0  0  0  0  0  0  0  0  0  0  0
   -0.6250   21.0240  -28.5480 C   0  0  0  0  0  0  0  0  0  0  0  0
   -0.6120   19.7360  -27.9950 C   0  0  0  0  0  0  0  0  0  0  0  0
    0.7990   18.6950  -28.2030 S   0  0  0  0  0  0  0  0  0  0  0  0
    0.5780   17.4060  -27.4600 O   0  0  0  0  0  0  0  0  0  0  0  0
    2.0050   19.3710  -27.6110 O   0  0  0  0  0  0  0  0  0  0  0  0
    1.1050   18.3480  -29.8900 N   0  0  0  0  0  0  0  0  0  0  0  0
   -0.0950   18.5770  -30.7240 C   0  0  0  0  0  0  0  0  0  0  0  0
    0.0450   19.8290  -31.6060 C   0  0  0  0  0  0  0  0  0  0  0  0
    1.1620   19.7640  -32.4780 O   0  0  0  0  0  0  0  0  0  0  0  0
    2.3110   19.1550  -31.8960 C   0  0  0  0  0  0  0  0  0  0  0  0
    2.2910   19.0890  -30.3600 C   0  0  0  0  0  0  0  0  0  0  0  0
   -1.7280   19.2810  -27.2810 C   0  0  0  0  0  0  0  0  0  0  0  0
   -2.8500   20.0990  -27.1340 C   0  0  0  0  0  0  0  0  0  0  0  0
   -2.8680   21.3840  -27.6930 C   0  0  0  0  0  0  0  0  0  0  0  0
   -4.0030   22.1830  -27.5610 O   0  0  0  0  0  0  0  0  0  0  0  0
   -4.4320   22.1510  -31.4370 C   0  0  0  0  0  0  0  0  0  0  0  0
   -3.6760   21.0040  -31.6450 O   0  0  0  0  0  0  0  0  0  0  0  0
   -5.8320   22.1340  -31.6290 C   0  0  0  0  0  0  0  0  0  0  0  0
   -6.6290   20.5930  -32.0570 S   0  0  0  0  0  0  0  0  0  0  0  0
   -7.9560   20.5150  -31.3580 O   0  0  0  0  0  0  0  0  0  0  0  0
   -6.9100   20.5440  -33.5320 O   0  0  0  0  0  0  0  0  0  0  0  0
   -5.6570   19.1400  -31.6180 C   0  0  0  0  0  0  0  0  0  0  0  0
   -5.0670   18.4060  -32.8190 C   0  0  0  0  0  0  0  0  0  0  0  0
   -5.8880   17.1740  -32.4680 C   0  0  0  0  0  0  0  0  0  0  0  0
   -6.4740   17.8990  -31.2650 C   0  0  0  0  0  0  0  0  0  0  0  0
   -8.5559   23.4537  -30.6951 H   0  0  0  0  0  0  0  0  0  0  0  0
   -8.2963   24.3389  -32.2364 H   0  0  0  0  0  0  0  0  0  0  0  0
   -8.3950   22.5453  -32.2364 H   0  0  0  0  0  0  0  0  0  0  0  0
   -6.4522   25.4443  -30.9332 H   0  0  0  0  0  0  0  0  0  0  0  0
    0.2519   21.3870  -29.1042 H   0  0  0  0  0  0  0  0  0  0  0  0
   -0.2490   17.7017  -31.3722 H   0  0  0  0  0  0  0  0  0  0  0  0
   -0.9515   18.7303  -30.0510 H   0  0  0  0  0  0  0  0  0  0  0  0
   -0.8674   19.9368  -32.2108 H   0  0  0  0  0  0  0  0  0  0  0  0
    0.1954   20.6900  -30.9381 H   0  0  0  0  0  0  0  0  0  0  0  0
    2.3881   18.1281  -32.2827 H   0  0  0  0  0  0  0  0  0  0  0  0
    3.1704   19.7846  -32.1700 H   0  0  0  0  0  0  0  0  0  0  0  0
    3.1996   18.5788  -30.0077 H   0  0  0  0  0  0  0  0  0  0  0  0
    2.2520   20.1131  -29.9604 H   0  0  0  0  0  0  0  0  0  0  0  0
   -1.7204   18.2757  -26.8345 H   0  0  0  0  0  0  0  0  0  0  0  0
   -3.7246   19.7328  -26.5764 H   0  0  0  0  0  0  0  0  0  0  0  0
   -4.1780   22.9650  -28.1820 H   0  0  0  0  0  0  0  0  0  0  0  0
   -5.0058   19.6016  -30.8611 H   0  0  0  0  0  0  0  0  0  0  0  0
   -5.3232   18.8549  -33.7900 H   0  0  0  0  0  0  0  0  0  0  0  0
   -3.9769   18.3314  -32.9458 H   0  0  0  0  0  0  0  0  0  0  0  0
   -6.6311   16.8985  -33.2308 H   0  0  0  0  0  0  0  0  0  0  0  0
   -5.3969   16.1978  -32.3420 H   0  0  0  0  0  0  0  0  0  0  0  0
   -7.5626   18.0480  -31.3165 H   0  0  0  0  0  0  0  0  0  0  0  0
   -6.4085   17.4555  -30.2605 H   0  0  0  0  0  0  0  0  0  0  0  0
  1  2  1  0
  2  3  2  0
  3  4  1  0
  4  5  1  0
  4  6  2  0
  6  7  1  0
  7  8  1  0
  8  9  2  0
  8 10  2  0
  8 11  1  0
 11 12  2  0
 12 13  1  0
 13 14  1  0
 14 15  2  0
 14 16  2  0
 14 17  1  0
 17 18  1  0
 18 19  1  0
 19 20  1  0
 20 21  1  0
 21 22  1  0
 13 23  2  0
 23 24  1  0
 24 25  2  0
 25 26  1  0
  6 27  1  0
 27 28  1  0
 27 29  2  0
 29 30  1  0
 30 31  2  0
 30 32  2  0
 30 33  1  0
 33 34  1  0
 34 35  1  0
 35 36  1  0
 29  2  1  0
 36 33  1  0
 25 11  1  0
 22 17  1  0
  1 37  1  0
  1 38  1  0
  1 39  1  0
  3 40  1  0
 12 41  1  0
 18 42  1  0
 18 43  1  0
 19 44  1  0
 19 45  1  0
 21 46  1  0
 21 47  1  0
 22 48  1  0
 22 49  1  0
 23 50  1  0
 24 51  1  0
 26 52  1  0
 33 53  1  0
 34 54  1  0
 34 55  1  0
 35 56  1  0
 35 57  1  0
 36 58  1  0
 36 59  1  0
M  CHG  3   5  -1   7  -1  28  -1
M  END
>  <UniqueID>  (48) 
48

>  <SMILES>  (48) 
Cc1cc([O-])c([N-]S(=O)(=O)c2cc(S(=O)(=O)N3CCOCC3)ccc2O)c([O-])c1S(=O)(=O)C1CCC1

>  <Energy>  (48) 
141.67776098904486

>  <Genealogy>  (48) 
Cc1cc([O-])c([N-]S(=O)(=O)c2cc(S(=O)(=O)N3CCOCC3)ccc2O)c([O-])c1S(=O)(=O)C1CCC1 (protonated)
Cc1cc([O-])c([N-]S(=O)(=O)c2cc(S(=O)(=O)N3CCOCC3)ccc2O)c([O-])c1S(=O)(=O)C1CCC1 (3D coordinates assigned)
Cc1cc([O-])c([N-]S(=O)(=O)c2cc(S(=O)(=O)N3CCOCC3)ccc2O)c([O-])c1S(=O)(=O)C1CCC1 (nonaromatic ring conformer: 141.67776098904486 kcal/mol)

>  <smiles>  (48) 
Cc1cc(O)c(NS(=O)(=O)c2cc(S(=O)(=O)N3CCOCC3)ccc2O)c(O)c1S(=O)(=O)C1CCC1

>  <score_type>  (48) 
oracle

>  <origin>  (48) 
adgpu

>  <m_score__min__energy>  (48) 
-14.550000000000001

>  <m_primary>  (48) 
energy

$$$$
48:0
     RDKit          3D

 53 55  0  0  0  0  0  0  0  0999 V2000
   -1.5500   20.1710  -34.2080 C   0  0  0  0  0  0  0  0  0  0  0  0
   -1.3820   20.4200  -32.7360 C   0  0  0  0  0  0  0  0  0  0  0  0
   -1.7000   21.6710  -32.1830 C   0  0  0  0  0  0  0  0  0  0  0  0
   -1.5530   21.8940  -30.8110 C   0  0  0  0  0  0  0  0  0  0  0  0
   -1.0980   20.8670  -29.9730 C   0  0  0  0  0  0  0  0  0  0  0  0
   -0.9000   21.1680  -28.2490 S   0  0  0  0  0  0  0  0  0  0  0  0
   -2.1960   20.8730  -27.5480 O   0  0  0  0  0  0  0  0  0  0  0  0
    0.1640   20.2690  -27.6810 O   0  0  0  0  0  0  0  0  0  0  0  0
   -0.4810   22.8380  -27.9950 N   0  0  0  0  0  0  0  0  0  0  0  0
   -1.5730   23.5710  -27.3480 C   0  0  0  0  0  0  0  0  0  0  0  0
   -2.7380   23.7890  -28.3240 C   0  0  0  0  0  0  0  0  0  0  0  0
   -2.4820   24.9180  -29.2820 C   0  0  0  0  0  0  0  0  0  0  0  0
   -1.3510   25.4740  -29.3160 O   0  0  0  0  0  0  0  0  0  0  0  0
   -3.4910   25.2710  -30.2380 N   0  0  0  0  0  0  0  0  0  0  0  0
   -4.6700   24.5060  -30.5280 C   0  0  0  0  0  0  0  0  0  0  0  0
   -5.9590   25.0170  -30.2930 C   0  0  0  0  0  0  0  0  0  0  0  0
   -7.0850   24.2400  -30.5750 C   0  0  0  0  0  0  0  0  0  0  0  0
   -6.9360   22.9460  -31.0810 C   0  0  0  0  0  0  0  0  0  0  0  0
   -5.6560   22.4160  -31.2930 C   0  0  0  0  0  0  0  0  0  0  0  0
   -5.4630   20.7970  -31.9620 S   0  0  0  0  0  0  0  0  0  0  0  0
   -5.3050   20.8920  -33.4530 O   0  0  0  0  0  0  0  0  0  0  0  0
   -4.2290   20.1550  -31.3880 O   0  0  0  0  0  0  0  0  0  0  0  0
   -6.8800   19.8470  -31.5860 N   0  0  0  0  0  0  0  0  0  0  0  0
   -6.6600   18.4240  -31.8550 C   0  0  0  0  0  0  0  0  0  0  0  0
   -8.0020   17.8360  -32.2800 C   0  0  0  0  0  0  0  0  0  0  0  0
   -8.9290   19.0260  -32.4680 C   0  0  0  0  0  0  0  0  0  0  0  0
   -8.0160   20.2340  -32.4210 C   0  0  0  0  0  0  0  0  0  0  0  0
   -4.5270   23.1980  -31.0110 C   0  0  0  0  0  0  0  0  0  0  0  0
   -0.7860   19.6140  -30.5210 C   0  0  0  0  0  0  0  0  0  0  0  0
   -0.9320   19.3890  -31.8930 C   0  0  0  0  0  0  0  0  0  0  0  0
   -0.6320   18.1670  -32.4020 F   0  0  0  0  0  0  0  0  0  0  0  0
   -2.1593   19.2679  -34.3599 H   0  0  0  0  0  0  0  0  0  0  0  0
   -2.0514   21.0337  -34.6709 H   0  0  0  0  0  0  0  0  0  0  0  0
   -0.5623   20.0291  -34.6709 H   0  0  0  0  0  0  0  0  0  0  0  0
   -2.0666   22.4794  -32.8327 H   0  0  0  0  0  0  0  0  0  0  0  0
   -1.7955   22.8797  -30.3873 H   0  0  0  0  0  0  0  0  0  0  0  0
   -1.9310   22.9943  -26.4824 H   0  0  0  0  0  0  0  0  0  0  0  0
   -1.1956   24.5525  -27.0252 H   0  0  0  0  0  0  0  0  0  0  0  0
   -2.8928   22.8652  -28.9007 H   0  0  0  0  0  0  0  0  0  0  0  0
   -3.6271   24.0489  -27.7307 H   0  0  0  0  0  0  0  0  0  0  0  0
   -6.0808   26.0316  -29.8859 H   0  0  0  0  0  0  0  0  0  0  0  0
   -8.0913   24.6477  -30.3984 H   0  0  0  0  0  0  0  0  0  0  0  0
   -7.8254   22.3419  -31.3135 H   0  0  0  0  0  0  0  0  0  0  0  0
   -5.9220   18.3020  -32.6615 H   0  0  0  0  0  0  0  0  0  0  0  0
   -6.2729   17.9116  -30.9619 H   0  0  0  0  0  0  0  0  0  0  0  0
   -7.8959   17.2793  -33.2228 H   0  0  0  0  0  0  0  0  0  0  0  0
   -8.3923   17.1304  -31.5318 H   0  0  0  0  0  0  0  0  0  0  0  0
   -9.4448   18.9668  -33.4377 H   0  0  0  0  0  0  0  0  0  0  0  0
   -9.7150   19.0675  -31.6996 H   0  0  0  0  0  0  0  0  0  0  0  0
   -7.6749   20.4951  -33.4336 H   0  0  0  0  0  0  0  0  0  0  0  0
   -8.5337   21.1153  -32.0144 H   0  0  0  0  0  0  0  0  0  0  0  0
   -3.5213   22.7818  -31.1700 H   0  0  0  0  0  0  0  0  0  0  0  0
   -0.4250   18.8053  -29.8686 H   0  0  0  0  0  0  0  0  0  0  0  0
  1  2  1  0
  2  3  2  0
  3  4  1  0
  4  5  2  0
  5  6  1  0
  6  7  2  0
  6  8  2  0
  6  9  1  0
  9 10  1  0
 10 11  1  0
 11 12  1  0
 12 13  2  0
 12 14  1  0
 14 15  1  0
 15 16  2  0
 16 17  1  0
 17 18  2  0
 18 19  1  0
 19 20  1  0
 20 21  2  0
 20 22  2  0
 20 23  1  0
 23 24  1  0
 24 25  1  0
 25 26  1  0
 26 27  1  0
 19 28  2  0
  5 29  1  0
 29 30  2  0
 30 31  1  0
 30  2  1  0
 28 15  1  0
 27 23  1  0
  1 32  1  0
  1 33  1  0
  1 34  1  0
  3 35  1  0
  4 36  1  0
 10 37  1  0
 10 38  1  0
 11 39  1  0
 11 40  1  0
 16 41  1  0
 17 42  1  0
 18 43  1  0
 24 44  1  0
 24 45  1  0
 25 46  1  0
 25 47  1  0
 26 48  1  0
 26 49  1  0
 27 50  1  0
 27 51  1  0
 28 52  1  0
 29 53  1  0
M  CHG  2   9  -1  14  -1
M  END
>  <UniqueID>  (49) 
49

>  <SMILES>  (49) 
Cc1ccc(S(=O)(=O)[N-]CCC(=O)[N-]c2cccc(S(=O)(=O)N3CCCC3)c2)cc1F

>  <Energy>  (49) 
55.88034601843903

>  <Genealogy>  (49) 
Cc1ccc(S(=O)(=O)[N-]CCC(=O)[N-]c2cccc(S(=O)(=O)N3CCCC3)c2)cc1F (protonated)
Cc1ccc(S(=O)(=O)[N-]CCC(=O)[N-]c2cccc(S(=O)(=O)N3CCCC3)c2)cc1F (3D coordinates assigned)
Cc1ccc(S(=O)(=O)[N-]CCC(=O)[N-]c2cccc(S(=O)(=O)N3CCCC3)c2)cc1F (nonaromatic ring conformer: 55.88034601843903 kcal/mol)

>  <smiles>  (49) 
Cc1ccc(S(=O)(=O)NCCC(=O)Nc2cccc(S(=O)(=O)N3CCCC3)c2)cc1F

>  <score_type>  (49) 
oracle

>  <origin>  (49) 
adgpu

>  <m_score__min__energy>  (49) 
-11.960000000000001

>  <m_primary>  (49) 
energy

$$$$
49:0
     RDKit          3D

 58 61  0  0  0  0  0  0  0  0999 V2000
   -2.2940   22.4450  -31.3170 C   0  0  0  0  0  0  0  0  0  0  0  0
   -3.5140   21.5910  -31.5210 C   0  0  0  0  0  0  0  0  0  0  0  0
   -3.3950   20.1910  -31.5390 C   0  0  0  0  0  0  0  0  0  0  0  0
   -4.5120   19.3900  -31.7830 C   0  0  0  0  0  0  0  0  0  0  0  0
   -5.7640   19.9740  -32.0040 C   0  0  0  0  0  0  0  0  0  0  0  0
   -7.1540   18.9740  -32.4260 S   0  0  0  0  0  0  0  0  0  0  0  0
   -7.4550   18.0390  -31.2870 O   0  0  0  0  0  0  0  0  0  0  0  0
   -8.3520   19.8610  -32.6210 O   0  0  0  0  0  0  0  0  0  0  0  0
   -6.8800   18.0300  -33.8780 N   0  0  0  0  0  0  0  0  0  0  0  0
   -6.8200   16.5820  -33.6060 C   0  0  0  0  0  0  0  0  0  0  0  0
   -5.4250   16.1080  -33.1320 C   0  0  0  0  0  0  0  0  0  0  0  0
   -4.4140   17.0860  -33.2840 O   0  0  0  0  0  0  0  0  0  0  0  0
   -4.4910   17.6570  -34.5690 C   0  0  0  0  0  0  0  0  0  0  0  0
   -5.7500   18.5290  -34.6920 C   0  0  0  0  0  0  0  0  0  0  0  0
   -5.8980   21.3650  -31.9450 C   0  0  0  0  0  0  0  0  0  0  0  0
   -4.7760   22.1830  -31.7220 C   0  0  0  0  0  0  0  0  0  0  0  0
   -4.8760   23.6100  -31.8270 N   0  0  0  0  0  0  0  0  0  0  0  0
   -4.5050   24.5400  -30.8040 C   0  0  0  0  0  0  0  0  0  0  0  0
   -4.0070   25.6530  -31.1150 O   0  0  0  0  0  0  0  0  0  0  0  0
   -4.6410   24.1930  -29.4210 N   0  0  0  0  0  0  0  0  0  0  0  0
   -3.5890   23.6410  -28.6190 C   0  0  0  0  0  0  0  0  0  0  0  0
   -3.7020   22.3650  -28.0560 C   0  0  0  0  0  0  0  0  0  0  0  0
   -2.6440   21.8200  -27.3330 C   0  0  0  0  0  0  0  0  0  0  0  0
   -1.4520   22.5400  -27.1550 C   0  0  0  0  0  0  0  0  0  0  0  0
   -0.3270   21.8810  -26.4000 C   0  0  0  0  0  0  0  0  0  0  0  0
   -1.3510   23.8630  -27.6600 C   0  0  0  0  0  0  0  0  0  0  0  0
    0.1350   24.8250  -27.4450 S   0  0  0  0  0  0  0  0  0  0  0  0
    1.2600   24.2320  -28.2450 O   0  0  0  0  0  0  0  0  0  0  0  0
   -0.0900   26.2180  -27.9630 O   0  0  0  0  0  0  0  0  0  0  0  0
    0.6420   24.9310  -25.7260 C   0  0  0  0  0  0  0  0  0  0  0  0
    0.1600   26.1440  -24.9410 C   0  0  0  0  0  0  0  0  0  0  0  0
   -0.5060   24.7940  -24.7370 C   0  0  0  0  0  0  0  0  0  0  0  0
   -2.4300   24.3950  -28.4000 C   0  0  0  0  0  0  0  0  0  0  0  0
   -2.3490   25.6690  -28.9530 O   0  0  0  0  0  0  0  0  0  0  0  0
   -2.1117   22.5726  -30.2397 H   0  0  0  0  0  0  0  0  0  0  0  0
   -1.4237   21.9579  -31.7810 H   0  0  0  0  0  0  0  0  0  0  0  0
   -2.4538   23.4295  -31.7810 H   0  0  0  0  0  0  0  0  0  0  0  0
   -2.4156   19.7233  -31.3597 H   0  0  0  0  0  0  0  0  0  0  0  0
   -4.4074   18.2951  -31.8016 H   0  0  0  0  0  0  0  0  0  0  0  0
   -7.5551   16.3425  -32.8235 H   0  0  0  0  0  0  0  0  0  0  0  0
   -7.0381   16.0626  -34.5508 H   0  0  0  0  0  0  0  0  0  0  0  0
   -5.4919   15.8392  -32.0674 H   0  0  0  0  0  0  0  0  0  0  0  0
   -5.1434   15.2515  -33.7621 H   0  0  0  0  0  0  0  0  0  0  0  0
   -3.6006   18.2790  -34.7434 H   0  0  0  0  0  0  0  0  0  0  0  0
   -4.5405   16.8508  -35.3157 H   0  0  0  0  0  0  0  0  0  0  0  0
   -5.5037   19.5490  -34.3620 H   0  0  0  0  0  0  0  0  0  0  0  0
   -6.0665   18.5036  -35.7452 H   0  0  0  0  0  0  0  0  0  0  0  0
   -6.8897   21.8231  -32.0742 H   0  0  0  0  0  0  0  0  0  0  0  0
   -4.6307   21.7898  -28.1851 H   0  0  0  0  0  0  0  0  0  0  0  0
   -2.7432   20.8150  -26.8969 H   0  0  0  0  0  0  0  0  0  0  0  0
   -0.5016   21.9833  -25.3188 H   0  0  0  0  0  0  0  0  0  0  0  0
   -0.2830   20.8143  -26.6650 H   0  0  0  0  0  0  0  0  0  0  0  0
    0.6250   22.3643  -26.6650 H   0  0  0  0  0  0  0  0  0  0  0  0
    1.6249   24.4609  -25.8770 H   0  0  0  0  0  0  0  0  0  0  0  0
    0.7906   26.5717  -24.1476 H   0  0  0  0  0  0  0  0  0  0  0  0
   -0.1910   27.1523  -25.2056 H   0  0  0  0  0  0  0  0  0  0  0  0
   -0.3579   24.2447  -23.7956 H   0  0  0  0  0  0  0  0  0  0  0  0
   -1.5393   24.4209  -24.7927 H   0  0  0  0  0  0  0  0  0  0  0  0
  1  2  1  0
  2  3  2  0
  3  4  1  0
  4  5  2  0
  5  6  1  0
  6  7  2  0
  6  8  2  0
  6  9  1  0
  9 10  1  0
 10 11  1  0
 11 12  1  0
 12 13  1  0
 13 14  1  0
  5 15  1  0
 15 16  2  0
 16 17  1  0
 17 18  1  0
 18 19  2  0
 18 20  1  0
 20 21  1  0
 21 22  2  0
 22 23  1  0
 23 24  2  0
 24 25  1  0
 24 26  1  0
 26 27  1  0
 27 28  2  0
 27 29  2  0
 27 30  1  0
 30 31  1  0
 31 32  1  0
 26 33  2  0
 33 34  1  0
 16  2  1  0
 33 21  1  0
 14  9  1  0
 32 30  1  0
  1 35  1  0
  1 36  1  0
  1 37  1  0
  3 38  1  0
  4 39  1  0
 10 40  1  0
 10 41  1  0
 11 42  1  0
 11 43  1  0
 13 44  1  0
 13 45  1  0
 14 46  1  0
 14 47  1  0
 15 48  1  0
 22 49  1  0
 23 50  1  0
 25 51  1  0
 25 52  1  0
 25 53  1  0
 30 54  1  0
 31 55  1  0
 31 56  1  0
 32 57  1  0
 32 58  1  0
M  CHG  3  17  -1  20  -1  34  -1
M  END
>  <UniqueID>  (50) 
50

>  <SMILES>  (50) 
Cc1ccc(S(=O)(=O)N2CCOCC2)cc1[N-]C(=O)[N-]c1ccc(C)c(S(=O)(=O)C2CC2)c1[O-]

>  <Energy>  (50) 
344.8511032637949

>  <Genealogy>  (50) 
Cc1ccc(S(=O)(=O)N2CCOCC2)cc1[N-]C(=O)[N-]c1ccc(C)c(S(=O)(=O)C2CC2)c1[O-] (protonated)
Cc1ccc(S(=O)(=O)N2CCOCC2)cc1[N-]C(=O)[N-]c1ccc(C)c(S(=O)(=O)C2CC2)c1[O-] (3D coordinates assigned)
Cc1ccc(S(=O)(=O)N2CCOCC2)cc1[N-]C(=O)[N-]c1ccc(C)c(S(=O)(=O)C2CC2)c1[O-] (nonaromatic ring conformer: 344.8511032637949 kcal/mol)

>  <smiles>  (50) 
Cc1ccc(S(=O)(=O)N2CCOCC2)cc1NC(=O)Nc1ccc(C)c(S(=O)(=O)C2CC2)c1O

>  <score_type>  (50) 
oracle

>  <origin>  (50) 
adgpu

>  <m_score__min__energy>  (50) 
-15.25

>  <m_primary>  (50) 
energy

$$$$
