0:0
     RDKit          3D

 20 21  0  0  0  0  0  0  0  0999 V2000
   58.1830   29.3120   44.9570 C   0  0  0  0  0  0  0  0  0  0  0  0
   56.9990   28.7120   45.1560 C   0  0  0  0  0  0  0  0  0  0  0  0
   56.8840   27.3310   45.6710 C   0  0  0  0  0  0  0  0  0  0  0  0
   57.9540   26.4770   45.8630 C   0  0  0  0  0  0  0  0  0  0  0  0
   57.4290   25.2950   46.3460 C   0  0  0  0  0  0  0  0  0  0  0  0
   56.0620   25.4750   46.4250 C   0  0  0  0  0  0  0  0  0  0  0  0
   55.7330   26.7130   46.0140 N   0  0  0  0  0  0  0  0  0  0  0  0
   55.8240   29.4260   44.8690 O   0  0  0  0  0  0  0  0  0  0  0  0
   55.8430   30.6470   44.1280 C   0  0  0  0  0  0  0  0  0  0  0  0
   57.0640   31.4720   44.5320 C   0  0  0  0  0  0  0  0  0  0  0  0
   58.2270   30.6430   44.5230 O   0  0  0  0  0  0  0  0  0  0  0  0
   59.1174   28.7593   45.1345 H   0  0  0  0  0  0  0  0  0  0  0  0
   59.0144   26.6960   45.6692 H   0  0  0  0  0  0  0  0  0  0  0  0
   57.9896   24.3877   46.6152 H   0  0  0  0  0  0  0  0  0  0  0  0
   55.3460   24.7161   46.7735 H   0  0  0  0  0  0  0  0  0  0  0  0
   54.7630   27.0940   45.9720 H   0  0  0  0  0  0  0  0  0  0  0  0
   55.8927   30.4219   43.0524 H   0  0  0  0  0  0  0  0  0  0  0  0
   54.9281   31.2190   44.3423 H   0  0  0  0  0  0  0  0  0  0  0  0
   57.1987   32.2994   43.8197 H   0  0  0  0  0  0  0  0  0  0  0  0
   56.9124   31.8775   45.5432 H   0  0  0  0  0  0  0  0  0  0  0  0
  1  2  2  0
  2  3  1  0
  3  4  2  0
  4  5  1  0
  5  6  2  0
  6  7  1  0
  2  8  1  0
  8  9  1  0
  9 10  1  0
 10 11  1  0
 11  1  1  0
  7  3  1  0
  1 12  1  0
  4 13  1  0
  5 14  1  0
  6 15  1  0
  7 16  1  0
  9 17  1  0
  9 18  1  0
 10 19  1  0
 10 20  1  0
M  END
>  <UniqueID>  (1) 
1

>  <SMILES>  (1) 
C1=C(c2ccc[nH]2)OCCO1

>  <Energy>  (1) 
45.294629605360115

>  <Genealogy>  (1) 
C1=C(c2ccc[nH]2)OCCO1 (3D coordinates assigned)
C1=C(c2ccc[nH]2)OCCO1 (nonaromatic ring conformer: 45.294629605360115 kcal/mol)

>  <smiles>  (1) 
C1=C(c2ccc[nH]2)OCCO1

>  <score_type>  (1) 
oracle

>  <origin>  (1) 
adg

>  <m_score__min__energy>  (1) 
-4.71

>  <m_primary>  (1) 
energy

$$$$
1:0
     RDKit          3D

 54 57  0  0  0  0  0  0  0  0999 V2000
   59.5260   22.1970   44.7590 C   0  0  0  0  0  0  0  0  0  0  0  0
   58.0840   22.4960   45.1600 C   0  0  0  0  0  0  0  0  0  0  0  0
   58.0430   23.3240   46.3220 O   0  0  0  0  0  0  0  0  0  0  0  0
   58.4010   24.6830   46.3760 C   0  0  0  0  0  0  0  0  0  0  0  0
   59.7360   25.1170   46.2500 C   0  0  0  0  0  0  0  0  0  0  0  0
   60.0470   26.4760   46.3260 C   0  0  0  0  0  0  0  0  0  0  0  0
   59.0430   27.4190   46.5560 C   0  0  0  0  0  0  0  0  0  0  0  0
   59.3960   28.8060   46.6340 N   0  0  0  0  0  0  0  0  0  0  0  0
   58.5300   29.9080   46.3440 C   0  0  0  0  0  0  0  0  0  0  0  0
   58.3090   30.7560   47.2480 O   0  0  0  0  0  0  0  0  0  0  0  0
   57.8130   30.0120   45.0540 C   0  0  0  0  0  0  0  0  0  0  0  0
   57.6570   28.7780   43.9180 S   0  0  0  0  0  0  0  0  0  0  0  0
   56.6450   29.6020   42.8620 C   0  0  0  0  0  0  0  0  0  0  0  0
   56.3980   30.8610   43.3930 C   0  0  0  0  0  0  0  0  0  0  0  0
   57.0420   31.0890   44.6240 C   0  0  0  0  0  0  0  0  0  0  0  0
   56.9280   32.2710   45.3710 O   0  0  0  0  0  0  0  0  0  0  0  0
   57.6490   33.4700   45.0890 C   0  0  0  0  0  0  0  0  0  0  0  0
   58.7810   33.6250   46.0610 C   0  0  0  0  0  0  0  0  0  0  0  0
   60.0860   33.8060   45.6030 C   0  0  0  0  0  0  0  0  0  0  0  0
   61.1280   33.8710   46.5320 C   0  0  0  0  0  0  0  0  0  0  0  0
   62.3070   34.0350   46.1110 O   0  0  0  0  0  0  0  0  0  0  0  0
   60.8670   33.7480   47.8750 N   0  0  0  0  0  0  0  0  0  0  0  0
   61.8850   33.7950   48.7970 C   0  0  0  0  0  0  0  0  0  0  0  0
   61.6190   33.6580   50.1610 C   0  0  0  0  0  0  0  0  0  0  0  0
   60.3070   33.4760   50.5910 C   0  0  0  0  0  0  0  0  0  0  0  0
   59.2740   33.4310   49.6590 C   0  0  0  0  0  0  0  0  0  0  0  0
   59.5650   33.5690   48.2980 C   0  0  0  0  0  0  0  0  0  0  0  0
   58.5520   33.5070   47.3930 N   0  0  0  0  0  0  0  0  0  0  0  0
   57.7080   26.9950   46.6570 C   0  0  0  0  0  0  0  0  0  0  0  0
   57.3800   25.6330   46.5470 C   0  0  0  0  0  0  0  0  0  0  0  0
   56.0250   25.1780   46.6920 N   0  0  0  0  0  0  0  0  0  0  0  0
   55.0300   25.0830   45.6640 C   0  0  0  0  0  0  0  0  0  0  0  0
   55.0240   23.9690   44.6640 C   0  0  0  0  0  0  0  0  0  0  0  0
   54.1030   25.9340   45.6350 O   0  0  0  0  0  0  0  0  0  0  0  0
   60.1392   22.0699   45.6633 H   0  0  0  0  0  0  0  0  0  0  0  0
   59.5567   21.2734   44.1623 H   0  0  0  0  0  0  0  0  0  0  0  0
   59.9214   23.0323   44.1623 H   0  0  0  0  0  0  0  0  0  0  0  0
   57.5787   23.0128   44.3308 H   0  0  0  0  0  0  0  0  0  0  0  0
   57.5762   21.5465   45.3852 H   0  0  0  0  0  0  0  0  0  0  0  0
   60.5376   24.3807   46.0909 H   0  0  0  0  0  0  0  0  0  0  0  0
   61.0892   26.8059   46.2040 H   0  0  0  0  0  0  0  0  0  0  0  0
   56.2466   29.2121   41.9137 H   0  0  0  0  0  0  0  0  0  0  0  0
   55.7601   31.6088   42.8991 H   0  0  0  0  0  0  0  0  0  0  0  0
   58.0505   33.4222   44.0660 H   0  0  0  0  0  0  0  0  0  0  0  0
   56.9709   34.3311   45.1822 H   0  0  0  0  0  0  0  0  0  0  0  0
   60.2920   33.8963   44.5262 H   0  0  0  0  0  0  0  0  0  0  0  0
   62.9207   33.9421   48.4568 H   0  0  0  0  0  0  0  0  0  0  0  0
   62.4408   33.6936   50.8913 H   0  0  0  0  0  0  0  0  0  0  0  0
   60.0877   33.3682   51.6635 H   0  0  0  0  0  0  0  0  0  0  0  0
   58.2351   33.2878   49.9910 H   0  0  0  0  0  0  0  0  0  0  0  0
   56.9120   27.7356   46.8237 H   0  0  0  0  0  0  0  0  0  0  0  0
   55.0188   23.0034   45.1908 H   0  0  0  0  0  0  0  0  0  0  0  0
   54.1263   24.0474   44.0332 H   0  0  0  0  0  0  0  0  0  0  0  0
   55.9225   24.0377   44.0332 H   0  0  0  0  0  0  0  0  0  0  0  0
  1  2  1  0
  2  3  1  0
  3  4  1  0
  4  5  2  0
  5  6  1  0
  6  7  2  0
  7  8  1  0
  8  9  1  0
  9 10  2  0
  9 11  1  0
 11 12  1  0
 12 13  1  0
 13 14  2  0
 14 15  1  0
 15 16  1  0
 16 17  1  0
 17 18  1  0
 18 19  2  0
 19 20  1  0
 20 21  2  0
 20 22  1  0
 22 23  1  0
 23 24  2  0
 24 25  1  0
 25 26  2  0
 26 27  1  0
 27 28  2  0
  7 29  1  0
 29 30  2  0
 30 31  1  0
 31 32  1  0
 32 33  1  0
 32 34  2  0
 30  4  1  0
 15 11  2  0
 28 18  1  0
 27 22  1  0
  1 35  1  0
  1 36  1  0
  1 37  1  0
  2 38  1  0
  2 39  1  0
  5 40  1  0
  6 41  1  0
 13 42  1  0
 14 43  1  0
 17 44  1  0
 17 45  1  0
 19 46  1  0
 23 47  1  0
 24 48  1  0
 25 49  1  0
 26 50  1  0
 29 51  1  0
 33 52  1  0
 33 53  1  0
 33 54  1  0
M  CHG  2   8  -1  31  -1
M  END
>  <UniqueID>  (2) 
2

>  <SMILES>  (2) 
CCOc1ccc([N-]C(=O)c2sccc2OCc2cc(=O)n3ccccc3n2)cc1[N-]C(C)=O

>  <Energy>  (2) 
95.58584555643534

>  <Genealogy>  (2) 
CCOc1ccc([N-]C(=O)c2sccc2OCc2cc(=O)n3ccccc3n2)cc1[N-]C(C)=O (protonated)
CCOc1ccc([N-]C(=O)c2sccc2OCc2cc(=O)n3ccccc3n2)cc1[N-]C(C)=O (3D coordinates assigned)
CCOc1ccc([N-]C(=O)c2sccc2OCc2cc(=O)n3ccccc3n2)cc1[N-]C(C)=O (optimized conformer: 95.58584555643534 kcal/mol)

>  <smiles>  (2) 
CCOc1ccc(NC(=O)c2sccc2OCc2cc(=O)n3ccccc3n2)cc1NC(C)=O

>  <score_type>  (2) 
oracle

>  <origin>  (2) 
adg

>  <m_score__min__energy>  (2) 
-12.630000000000001

>  <m_primary>  (2) 
energy

$$$$
2:0
     RDKit          3D

 59 62  0  0  0  0  0  0  0  0999 V2000
   58.6580   30.1800   44.5040 C   0  0  0  0  0  0  0  0  0  0  0  0
   58.6790   29.8650   45.8080 C   0  0  0  0  0  0  0  0  0  0  0  0
   58.5360   28.5870   46.3570 C   0  0  0  0  0  0  0  0  0  0  0  0
   58.4060   27.4220   45.6940 C   0  0  0  0  0  0  0  0  0  0  0  0
   57.2370   26.5250   45.8420 C   0  0  0  0  0  0  0  0  0  0  0  0
   55.9250   26.9820   45.6270 C   0  0  0  0  0  0  0  0  0  0  0  0
   55.6810   28.3020   45.2670 O   0  0  0  0  0  0  0  0  0  0  0  0
   54.8800   26.1230   45.7510 N   0  0  0  0  0  0  0  0  0  0  0  0
   55.0790   24.8170   46.0630 C   0  0  0  0  0  0  0  0  0  0  0  0
   54.0950   24.0420   46.1760 O   0  0  0  0  0  0  0  0  0  0  0  0
   56.3380   24.3460   46.2480 N   0  0  0  0  0  0  0  0  0  0  0  0
   57.4170   25.1640   46.1370 C   0  0  0  0  0  0  0  0  0  0  0  0
   58.5720   24.6900   46.3110 O   0  0  0  0  0  0  0  0  0  0  0  0
   58.5910   28.7450   47.7360 C   0  0  0  0  0  0  0  0  0  0  0  0
   58.7660   30.0940   47.9720 C   0  0  0  0  0  0  0  0  0  0  0  0
   58.8750   30.7170   49.3300 C   0  0  0  0  0  0  0  0  0  0  0  0
   58.8140   30.7740   46.8060 N   0  0  0  0  0  0  0  0  0  0  0  0
   58.9950   32.1950   46.6710 C   0  0  0  0  0  0  0  0  0  0  0  0
   57.9350   32.9890   46.2110 C   0  0  0  0  0  0  0  0  0  0  0  0
   58.0930   34.3690   46.0830 C   0  0  0  0  0  0  0  0  0  0  0  0
   59.3100   34.9660   46.4150 C   0  0  0  0  0  0  0  0  0  0  0  0
   60.3720   34.1850   46.8800 C   0  0  0  0  0  0  0  0  0  0  0  0
   60.2220   32.7900   47.0190 C   0  0  0  0  0  0  0  0  0  0  0  0
   61.2540   31.9640   47.4960 O   0  0  0  0  0  0  0  0  0  0  0  0
   62.5260   31.7770   46.8770 C   0  0  0  0  0  0  0  0  0  0  0  0
   63.5450   32.7930   47.4310 C   0  0  0  0  0  0  0  0  0  0  0  0
   63.4450   33.0150   48.8890 N   0  0  0  0  0  0  0  0  0  0  0  0
   62.5930   34.1640   49.2580 C   0  0  0  0  0  0  0  0  0  0  0  0
   62.4010   34.2220   50.7780 C   0  0  0  0  0  0  0  0  0  0  0  0
   61.7750   32.9900   51.3230 N   0  0  0  0  0  0  0  0  0  0  0  0
   60.3780   33.2260   51.7140 C   0  0  0  0  0  0  0  0  0  0  0  0
   61.8630   31.8200   50.4190 C   0  0  0  0  0  0  0  0  0  0  0  0
   63.2090   31.7850   49.6830 C   0  0  0  0  0  0  0  0  0  0  0  0
   58.7816   31.2266   44.1890 H   0  0  0  0  0  0  0  0  0  0  0  0
   58.5172   29.3916   43.7499 H   0  0  0  0  0  0  0  0  0  0  0  0
   59.2102   27.1210   45.0066 H   0  0  0  0  0  0  0  0  0  0  0  0
   58.5108   27.9504   48.4924 H   0  0  0  0  0  0  0  0  0  0  0  0
   58.7397   29.9434   50.1002 H   0  0  0  0  0  0  0  0  0  0  0  0
   59.8674   31.1777   49.4435 H   0  0  0  0  0  0  0  0  0  0  0  0
   58.0980   31.4873   49.4435 H   0  0  0  0  0  0  0  0  0  0  0  0
   56.9742   32.5215   45.9498 H   0  0  0  0  0  0  0  0  0  0  0  0
   57.2582   34.9868   45.7203 H   0  0  0  0  0  0  0  0  0  0  0  0
   59.4338   36.0540   46.3105 H   0  0  0  0  0  0  0  0  0  0  0  0
   61.3293   34.6611   47.1387 H   0  0  0  0  0  0  0  0  0  0  0  0
   62.8828   30.7568   47.0817 H   0  0  0  0  0  0  0  0  0  0  0  0
   62.4222   31.9293   45.7925 H   0  0  0  0  0  0  0  0  0  0  0  0
   64.5569   32.4247   47.2064 H   0  0  0  0  0  0  0  0  0  0  0  0
   63.3263   33.7567   46.9479 H   0  0  0  0  0  0  0  0  0  0  0  0
   63.0717   35.0940   48.9176 H   0  0  0  0  0  0  0  0  0  0  0  0
   61.6098   34.0470   48.7788 H   0  0  0  0  0  0  0  0  0  0  0  0
   63.3843   34.3567   51.2523 H   0  0  0  0  0  0  0  0  0  0  0  0
   61.7261   35.0628   50.9963 H   0  0  0  0  0  0  0  0  0  0  0  0
   60.3015   33.2389   52.8113 H   0  0  0  0  0  0  0  0  0  0  0  0
   60.0431   34.1935   51.3117 H   0  0  0  0  0  0  0  0  0  0  0  0
   59.7439   32.4223   51.3117 H   0  0  0  0  0  0  0  0  0  0  0  0
   61.7547   30.8999   51.0120 H   0  0  0  0  0  0  0  0  0  0  0  0
   61.0600   31.8974   49.6712 H   0  0  0  0  0  0  0  0  0  0  0  0
   64.0154   31.6814   50.4239 H   0  0  0  0  0  0  0  0  0  0  0  0
   63.1921   30.9324   48.9882 H   0  0  0  0  0  0  0  0  0  0  0  0
  1  2  2  0
  2  3  1  0
  3  4  2  3
  4  5  1  0
  5  6  2  0
  6  7  1  0
  6  8  1  0
  8  9  1  0
  9 10  2  0
  9 11  1  0
 11 12  1  0
 12 13  2  0
  3 14  1  0
 14 15  2  0
 15 16  1  0
 15 17  1  0
 17 18  1  0
 18 19  2  0
 19 20  1  0
 20 21  2  0
 21 22  1  0
 22 23  2  0
 23 24  1  0
 24 25  1  0
 25 26  1  0
 26 27  1  0
 27 28  1  0
 28 29  1  0
 29 30  1  0
 30 31  1  0
 30 32  1  0
 32 33  1  0
 17  2  1  0
 23 18  1  0
 33 27  1  0
 12  5  1  0
  1 34  1  0
  1 35  1  0
  4 36  1  0
 14 37  1  0
 16 38  1  0
 16 39  1  0
 16 40  1  0
 19 41  1  0
 20 42  1  0
 21 43  1  0
 22 44  1  0
 25 45  1  0
 25 46  1  0
 26 47  1  0
 26 48  1  0
 28 49  1  0
 28 50  1  0
 29 51  1  0
 29 52  1  0
 31 53  1  0
 31 54  1  0
 31 55  1  0
 32 56  1  0
 32 57  1  0
 33 58  1  0
 33 59  1  0
M  CHG  3   7  -1   8  -1  11  -1
M  END
>  <UniqueID>  (3) 
3

>  <SMILES>  (3) 
C=c1c(=Cc2c([O-])[n-]c(=O)[n-]c2=O)cc(C)n1-c1ccccc1OCCN1CCN(C)CC1

>  <Energy>  (3) 
120.46922784479953

>  <Genealogy>  (3) 
C=c1c(=Cc2c([O-])[n-]c(=O)[n-]c2=O)cc(C)n1-c1ccccc1OCCN1CCN(C)CC1 (protonated)
C=c1c(=Cc2c([O-])[n-]c(=O)[n-]c2=O)cc(C)n1-c1ccccc1OCCN1CCN(C)CC1 (3D coordinates assigned)
C=c1c(=Cc2c([O-])[n-]c(=O)[n-]c2=O)cc(C)n1-c1ccccc1OCCN1CCN(C)CC1 (nonaromatic ring conformer: 120.46922784479953 kcal/mol)

>  <smiles>  (3) 
C=c1c(=Cc2c(O)[nH]c(=O)[nH]c2=O)cc(C)n1-c1ccccc1OCCN1CCN(C)CC1

>  <score_type>  (3) 
oracle

>  <origin>  (3) 
adg

>  <m_score__min__energy>  (3) 
-16.5

>  <m_primary>  (3) 
energy

$$$$
3:0
     RDKit          3D

 27 28  0  0  0  0  0  0  0  0999 V2000
   55.0330   26.3420   46.1250 N   0  0  0  0  0  0  0  0  0  0  0  0
   56.2350   26.7620   45.8990 C   0  0  0  0  0  0  0  0  0  0  0  0
   56.4380   27.9420   45.2600 N   0  0  0  0  0  0  0  0  0  0  0  0
   57.6890   28.4130   45.0040 C   0  0  0  0  0  0  0  0  0  0  0  0
   57.8370   29.6200   44.2360 N   0  0  0  0  0  0  0  0  0  0  0  0
   56.8930   30.7310   44.3440 C   0  0  0  0  0  0  0  0  0  0  0  0
   57.5600   31.9220   44.9790 C   0  0  0  0  0  0  0  0  0  0  0  0
   58.0990   31.8330   46.2740 C   0  0  0  0  0  0  0  0  0  0  0  0
   58.6970   32.9520   46.8650 C   0  0  0  0  0  0  0  0  0  0  0  0
   58.7590   34.1630   46.1690 C   0  0  0  0  0  0  0  0  0  0  0  0
   58.2230   34.2570   44.8830 C   0  0  0  0  0  0  0  0  0  0  0  0
   57.6240   33.1430   44.2890 C   0  0  0  0  0  0  0  0  0  0  0  0
   58.8080   27.6630   45.4400 C   0  0  0  0  0  0  0  0  0  0  0  0
   60.1640   28.1160   45.3080 N   0  0  0  0  0  0  0  0  0  0  0  0
   60.5000   29.0290   44.5270 O   0  0  0  0  0  0  0  0  0  0  0  0
   58.5680   26.4340   46.0720 C   0  0  0  0  0  0  0  0  0  0  0  0
   59.5300   25.7180   46.4580 O   0  0  0  0  0  0  0  0  0  0  0  0
   57.2960   26.0140   46.2890 N   0  0  0  0  0  0  0  0  0  0  0  0
   54.3810   26.8680   46.7490 H   0  0  0  0  0  0  0  0  0  0  0  0
   58.5220   29.6560   43.4500 H   0  0  0  0  0  0  0  0  0  0  0  0
   56.5392   31.0058   43.3394 H   0  0  0  0  0  0  0  0  0  0  0  0
   56.0437   30.4200   44.9700 H   0  0  0  0  0  0  0  0  0  0  0  0
   58.0508   30.8818   46.8243 H   0  0  0  0  0  0  0  0  0  0  0  0
   59.1187   32.8786   47.8783 H   0  0  0  0  0  0  0  0  0  0  0  0
   59.2299   35.0415   46.6343 H   0  0  0  0  0  0  0  0  0  0  0  0
   58.2724   35.2102   44.3363 H   0  0  0  0  0  0  0  0  0  0  0  0
   57.2009   33.2231   43.2768 H   0  0  0  0  0  0  0  0  0  0  0  0
  1  2  2  3
  2  3  1  0
  3  4  1  0
  4  5  1  0
  5  6  1  0
  6  7  1  0
  7  8  2  0
  8  9  1  0
  9 10  2  0
 10 11  1  0
 11 12  2  0
  4 13  2  0
 13 14  1  0
 14 15  2  0
 13 16  1  0
 16 17  2  0
 16 18  1  0
 18  2  1  0
 12  7  1  0
  1 19  1  0
  5 20  1  0
  6 21  1  0
  6 22  1  0
  8 23  1  0
  9 24  1  0
 10 25  1  0
 11 26  1  0
 12 27  1  0
M  CHG  2   3  -1  18  -1
M  END
>  <UniqueID>  (4) 
4

>  <SMILES>  (4) 
N=c1[n-]c(NCc2ccccc2)c(N=O)c(=O)[n-]1

>  <Energy>  (4) 
32.45782721674995

>  <Genealogy>  (4) 
N=c1[n-]c(NCc2ccccc2)c(N=O)c(=O)[n-]1 (protonated)
N=c1[n-]c(NCc2ccccc2)c(N=O)c(=O)[n-]1 (3D coordinates assigned)
N=c1[n-]c(NCc2ccccc2)c(N=O)c(=O)[n-]1 (optimized conformer: 32.45782721674995 kcal/mol)

>  <smiles>  (4) 
N=c1[nH]c(NCc2ccccc2)c(N=O)c(=O)[nH]1

>  <score_type>  (4) 
oracle

>  <origin>  (4) 
adg

>  <m_score__min__energy>  (4) 
-10.33

>  <m_primary>  (4) 
energy

$$$$
4:0
     RDKit          3D

 51 54  0  0  0  0  0  0  0  0999 V2000
   60.0940   27.2820   46.5460 C   0  0  0  0  0  0  0  0  0  0  0  0
   59.3880   28.0380   45.6900 C   0  0  0  0  0  0  0  0  0  0  0  0
   58.2440   27.6500   44.9770 C   0  0  0  0  0  0  0  0  0  0  0  0
   57.7140   26.4300   44.7630 C   0  0  0  0  0  0  0  0  0  0  0  0
   57.2190   25.5250   45.8190 C   0  0  0  0  0  0  0  0  0  0  0  0
   57.9070   24.4780   46.3100 N   0  0  0  0  0  0  0  0  0  0  0  0
   57.0120   23.8540   47.1010 C   0  0  0  0  0  0  0  0  0  0  0  0
   57.2930   22.8180   47.7570 O   0  0  0  0  0  0  0  0  0  0  0  0
   55.7910   24.4220   47.1250 N   0  0  0  0  0  0  0  0  0  0  0  0
   55.9340   25.4720   46.2990 C   0  0  0  0  0  0  0  0  0  0  0  0
   54.9100   26.3580   45.9810 O   0  0  0  0  0  0  0  0  0  0  0  0
   57.7280   28.8040   44.4110 C   0  0  0  0  0  0  0  0  0  0  0  0
   58.6110   29.8220   44.7040 C   0  0  0  0  0  0  0  0  0  0  0  0
   58.4920   31.2060   44.2010 C   0  0  0  0  0  0  0  0  0  0  0  0
   58.5540   31.3940   42.9570 O   0  0  0  0  0  0  0  0  0  0  0  0
   58.2900   32.3260   45.0920 N   0  0  0  0  0  0  0  0  0  0  0  0
   58.0220   32.0930   46.5250 C   0  0  0  0  0  0  0  0  0  0  0  0
   57.8140   33.4050   47.2920 C   0  0  0  0  0  0  0  0  0  0  0  0
   58.9040   34.4070   46.8980 C   0  0  0  0  0  0  0  0  0  0  0  0
   58.8650   34.7360   45.3910 C   0  0  0  0  0  0  0  0  0  0  0  0
   58.1200   33.6850   44.5410 C   0  0  0  0  0  0  0  0  0  0  0  0
   59.6110   29.3660   45.4970 N   0  0  0  0  0  0  0  0  0  0  0  0
   60.7270   30.1640   46.0380 C   0  0  0  0  0  0  0  0  0  0  0  0
   60.4370   30.6370   47.4450 C   0  0  0  0  0  0  0  0  0  0  0  0
   59.5870   29.9050   48.2950 C   0  0  0  0  0  0  0  0  0  0  0  0
   59.3280   30.3550   49.5930 C   0  0  0  0  0  0  0  0  0  0  0  0
   59.9070   31.5420   50.0530 C   0  0  0  0  0  0  0  0  0  0  0  0
   59.6620   31.9700   51.3160 F   0  0  0  0  0  0  0  0  0  0  0  0
   60.7350   32.2850   49.2070 C   0  0  0  0  0  0  0  0  0  0  0  0
   61.2950   33.4380   49.6500 F   0  0  0  0  0  0  0  0  0  0  0  0
   60.9920   31.8410   47.9080 C   0  0  0  0  0  0  0  0  0  0  0  0
   60.9789   27.7001   47.0482 H   0  0  0  0  0  0  0  0  0  0  0  0
   59.7875   26.2445   46.7451 H   0  0  0  0  0  0  0  0  0  0  0  0
   57.6448   26.0817   43.7219 H   0  0  0  0  0  0  0  0  0  0  0  0
   54.0200   26.3140   46.4590 H   0  0  0  0  0  0  0  0  0  0  0  0
   56.7933   28.8917   43.8378 H   0  0  0  0  0  0  0  0  0  0  0  0
   57.1151   31.4779   46.6212 H   0  0  0  0  0  0  0  0  0  0  0  0
   58.8965   31.5830   46.9554 H   0  0  0  0  0  0  0  0  0  0  0  0
   56.8265   33.8216   47.0443 H   0  0  0  0  0  0  0  0  0  0  0  0
   57.8698   33.2098   48.3731 H   0  0  0  0  0  0  0  0  0  0  0  0
   58.7565   35.3357   47.4688 H   0  0  0  0  0  0  0  0  0  0  0  0
   59.8809   33.9543   47.1231 H   0  0  0  0  0  0  0  0  0  0  0  0
   58.3627   35.7059   45.2610 H   0  0  0  0  0  0  0  0  0  0  0  0
   59.9074   34.7502   45.0400 H   0  0  0  0  0  0  0  0  0  0  0  0
   57.0484   33.9328   44.5245 H   0  0  0  0  0  0  0  0  0  0  0  0
   58.5408   33.7011   43.5248 H   0  0  0  0  0  0  0  0  0  0  0  0
   61.6367   29.5456   46.0488 H   0  0  0  0  0  0  0  0  0  0  0  0
   60.8628   31.0477   45.3972 H   0  0  0  0  0  0  0  0  0  0  0  0
   59.1240   28.9739   47.9361 H   0  0  0  0  0  0  0  0  0  0  0  0
   58.6675   29.7743   50.2538 H   0  0  0  0  0  0  0  0  0  0  0  0
   61.6333   32.4383   47.2432 H   0  0  0  0  0  0  0  0  0  0  0  0
  1  2  2  0
  2  3  1  0
  3  4  2  3
  4  5  1  0
  5  6  1  0
  6  7  1  0
  7  8  2  0
  7  9  1  0
  9 10  1  0
 10 11  1  0
  3 12  1  0
 12 13  2  0
 13 14  1  0
 14 15  2  0
 14 16  1  0
 16 17  1  0
 17 18  1  0
 18 19  1  0
 19 20  1  0
 20 21  1  0
 13 22  1  0
 22 23  1  0
 23 24  1  0
 24 25  2  0
 25 26  1  0
 26 27  2  0
 27 28  1  0
 27 29  1  0
 29 30  1  0
 29 31  2  0
 22  2  1  0
 31 24  1  0
 10  5  2  0
 21 16  1  0
  1 32  1  0
  1 33  1  0
  4 34  1  0
 11 35  1  0
 12 36  1  0
 17 37  1  0
 17 38  1  0
 18 39  1  0
 18 40  1  0
 19 41  1  0
 19 42  1  0
 20 43  1  0
 20 44  1  0
 21 45  1  0
 21 46  1  0
 23 47  1  0
 23 48  1  0
 25 49  1  0
 26 50  1  0
 31 51  1  0
M  CHG  2   6  -1   9  -1
M  END
>  <UniqueID>  (5) 
5

>  <SMILES>  (5) 
C=c1c(=Cc2[n-]c(=O)[n-]c2O)cc(C(=O)N2CCCCC2)n1Cc1ccc(F)c(F)c1

>  <Energy>  (5) 
130.53420257436127

>  <Genealogy>  (5) 
C=c1c(=Cc2[n-]c(=O)[n-]c2O)cc(C(=O)N2CCCCC2)n1Cc1ccc(F)c(F)c1 (protonated)
C=c1c(=Cc2[n-]c(=O)[n-]c2O)cc(C(=O)N2CCCCC2)n1Cc1ccc(F)c(F)c1 (3D coordinates assigned)
C=c1c(=Cc2[n-]c(=O)[n-]c2O)cc(C(=O)N2CCCCC2)n1Cc1ccc(F)c(F)c1 (nonaromatic ring conformer: 130.53420257436127 kcal/mol)

>  <smiles>  (5) 
C=c1c(=Cc2[nH]c(=O)[nH]c2O)cc(C(=O)N2CCCCC2)n1Cc1ccc(F)c(F)c1

>  <score_type>  (5) 
oracle

>  <origin>  (5) 
adg

>  <m_score__min__energy>  (5) 
-13.300000000000001

>  <m_primary>  (5) 
energy

$$$$
5:0
     RDKit          3D

 42 44  0  0  0  0  0  0  0  0999 V2000
   58.5350   23.5700   45.4650 C   0  0  0  0  0  0  0  0  0  0  0  0
   57.6810   24.2360   44.6900 C   0  0  0  0  0  0  0  0  0  0  0  0
   57.0220   25.5010   45.0870 C   0  0  0  0  0  0  0  0  0  0  0  0
   57.4670   26.7890   44.8050 C   0  0  0  0  0  0  0  0  0  0  0  0
   58.7450   27.1390   44.0980 C   0  0  0  0  0  0  0  0  0  0  0  0
   56.5700   27.6800   45.2960 N   0  0  0  0  0  0  0  0  0  0  0  0
   56.6250   29.1140   45.2290 C   0  0  0  0  0  0  0  0  0  0  0  0
   55.6530   29.7390   44.7260 O   0  0  0  0  0  0  0  0  0  0  0  0
   57.8140   29.8660   45.6940 C   0  0  0  0  0  0  0  0  0  0  0  0
   57.9610   31.2230   45.3790 C   0  0  0  0  0  0  0  0  0  0  0  0
   59.0820   31.9370   45.8130 C   0  0  0  0  0  0  0  0  0  0  0  0
   60.1010   31.3120   46.5680 C   0  0  0  0  0  0  0  0  0  0  0  0
   61.2730   32.0570   47.0230 N   0  0  0  0  0  0  0  0  0  0  0  0
   61.5670   33.3790   46.4290 C   0  0  0  0  0  0  0  0  0  0  0  0
   62.7790   34.0760   47.0530 C   0  0  0  0  0  0  0  0  0  0  0  0
   63.7980   33.1510   47.3460 O   0  0  0  0  0  0  0  0  0  0  0  0
   63.3600   32.3340   48.4050 C   0  0  0  0  0  0  0  0  0  0  0  0
   62.2240   31.4130   47.9540 C   0  0  0  0  0  0  0  0  0  0  0  0
   59.9410   29.9390   46.8690 C   0  0  0  0  0  0  0  0  0  0  0  0
   58.8190   29.2300   46.4340 C   0  0  0  0  0  0  0  0  0  0  0  0
   55.5960   27.0210   45.9050 N   0  0  0  0  0  0  0  0  0  0  0  0
   55.8370   25.7060   45.7830 C   0  0  0  0  0  0  0  0  0  0  0  0
   55.0670   24.8160   46.2290 O   0  0  0  0  0  0  0  0  0  0  0  0
   58.9888   22.6344   45.1061 H   0  0  0  0  0  0  0  0  0  0  0  0
   58.7866   23.9555   46.4640 H   0  0  0  0  0  0  0  0  0  0  0  0
   57.4518   23.8221   43.6969 H   0  0  0  0  0  0  0  0  0  0  0  0
   59.5279   27.3534   44.8404 H   0  0  0  0  0  0  0  0  0  0  0  0
   59.0588   26.2937   43.4679 H   0  0  0  0  0  0  0  0  0  0  0  0
   58.5843   28.0262   43.4679 H   0  0  0  0  0  0  0  0  0  0  0  0
   57.1874   31.7315   44.7848 H   0  0  0  0  0  0  0  0  0  0  0  0
   59.1728   33.0043   45.5625 H   0  0  0  0  0  0  0  0  0  0  0  0
   61.7595   33.2424   45.3546 H   0  0  0  0  0  0  0  0  0  0  0  0
   60.6933   34.0196   46.6196 H   0  0  0  0  0  0  0  0  0  0  0  0
   63.1658   34.8254   46.3468 H   0  0  0  0  0  0  0  0  0  0  0  0
   62.4623   34.5566   47.9904 H   0  0  0  0  0  0  0  0  0  0  0  0
   64.2020   31.7203   48.7578 H   0  0  0  0  0  0  0  0  0  0  0  0
   62.9875   32.9792   49.2143 H   0  0  0  0  0  0  0  0  0  0  0  0
   62.6639   30.5387   47.4519 H   0  0  0  0  0  0  0  0  0  0  0  0
   61.6562   31.1369   48.8547 H   0  0  0  0  0  0  0  0  0  0  0  0
   60.7137   29.4208   47.4559 H   0  0  0  0  0  0  0  0  0  0  0  0
   58.7236   28.1610   46.6750 H   0  0  0  0  0  0  0  0  0  0  0  0
   54.7720   27.4620   46.3740 H   0  0  0  0  0  0  0  0  0  0  0  0
  1  2  2  0
  2  3  1  0
  3  4  2  0
  4  5  1  0
  4  6  1  0
  6  7  1  0
  7  8  2  0
  7  9  1  0
  9 10  2  0
 10 11  1  0
 11 12  2  0
 12 13  1  0
 13 14  1  0
 14 15  1  0
 15 16  1  0
 16 17  1  0
 17 18  1  0
 12 19  1  0
 19 20  2  0
  6 21  1  0
 21 22  1  0
 22 23  2  0
 22  3  1  0
 20  9  1  0
 18 13  1  0
  1 24  1  0
  1 25  1  0
  2 26  1  0
  5 27  1  0
  5 28  1  0
  5 29  1  0
 10 30  1  0
 11 31  1  0
 14 32  1  0
 14 33  1  0
 15 34  1  0
 15 35  1  0
 17 36  1  0
 17 37  1  0
 18 38  1  0
 18 39  1  0
 19 40  1  0
 20 41  1  0
 21 42  1  0
M  END
>  <UniqueID>  (6) 
6

>  <SMILES>  (6) 
C=Cc1c(C)n(C(=O)c2ccc(N3CCOCC3)cc2)[nH]c1=O

>  <Energy>  (6) 
90.41596206938648

>  <Genealogy>  (6) 
C=Cc1c(C)n(C(=O)c2ccc(N3CCOCC3)cc2)[nH]c1=O (3D coordinates assigned)
C=Cc1c(C)n(C(=O)c2ccc(N3CCOCC3)cc2)[nH]c1=O (nonaromatic ring conformer: 90.41596206938648 kcal/mol)

>  <smiles>  (6) 
C=Cc1c(C)n(C(=O)c2ccc(N3CCOCC3)cc2)[nH]c1=O

>  <score_type>  (6) 
oracle

>  <origin>  (6) 
adg

>  <m_score__min__energy>  (6) 
-7.9500000000000002

>  <m_primary>  (6) 
energy

$$$$
6:0
     RDKit          3D

 59 62  0  0  0  0  0  0  0  0999 V2000
   57.9430   35.4950   52.3760 H   0  0  0  0  0  0  0  0  0  0  0  0
   58.1500   34.5710   52.0770 O   0  0  0  0  0  0  0  0  0  0  0  0
   59.2040   34.1130   52.8790 C   0  0  0  0  0  0  0  0  0  0  0  0
   59.0427   34.4547   53.9121 H   0  0  0  0  0  0  0  0  0  0  0  0
   60.1456   34.5161   52.4779 H   0  0  0  0  0  0  0  0  0  0  0  0
   59.2900   32.5710   52.8670 C   0  0  0  0  0  0  0  0  0  0  0  0
   58.3052   32.1728   53.1526 H   0  0  0  0  0  0  0  0  0  0  0  0
   60.0922   32.3040   53.5708 H   0  0  0  0  0  0  0  0  0  0  0  0
   59.6670   31.9720   51.5670 N   0  0  0  0  0  0  0  0  0  0  0  0
   60.5000   32.8590   50.7340 C   0  0  0  0  0  0  0  0  0  0  0  0
   61.3150   33.2765   51.3435 H   0  0  0  0  0  0  0  0  0  0  0  0
   59.8827   33.6791   50.3385 H   0  0  0  0  0  0  0  0  0  0  0  0
   61.0900   32.0570   49.5730 C   0  0  0  0  0  0  0  0  0  0  0  0
   61.8031   31.3182   49.9676 H   0  0  0  0  0  0  0  0  0  0  0  0
   61.6031   32.7461   48.8861 H   0  0  0  0  0  0  0  0  0  0  0  0
   60.0220   31.3580   48.8410 N   0  0  0  0  0  0  0  0  0  0  0  0
   60.1590   31.1410   47.4170 C   0  0  0  0  0  0  0  0  0  0  0  0
   61.1820   31.5530   46.8080 O   0  0  0  0  0  0  0  0  0  0  0  0
   59.1760   30.3580   46.6610 C   0  0  0  0  0  0  0  0  0  0  0  0
   59.3230   29.0000   46.4900 C   0  0  0  0  0  0  0  0  0  0  0  0
   60.1065   28.3658   46.9303 H   0  0  0  0  0  0  0  0  0  0  0  0
   58.2990   28.5850   45.6600 C   0  0  0  0  0  0  0  0  0  0  0  0
   58.0840   27.3290   45.2110 C   0  0  0  0  0  0  0  0  0  0  0  0
   58.3928   27.1012   44.1801 H   0  0  0  0  0  0  0  0  0  0  0  0
   57.4670   26.2350   45.9930 C   0  0  0  0  0  0  0  0  0  0  0  0
   58.1220   25.1960   46.5450 N   0  0  0  0  0  0  0  0  0  0  0  0
   57.1520   24.5280   47.2050 C   0  0  0  0  0  0  0  0  0  0  0  0
   57.3790   23.4760   47.8580 O   0  0  0  0  0  0  0  0  0  0  0  0
   55.9240   25.0800   47.1190 N   0  0  0  0  0  0  0  0  0  0  0  0
   56.1430   26.1610   46.3540 C   0  0  0  0  0  0  0  0  0  0  0  0
   55.1490   27.0630   45.9900 O   0  0  0  0  0  0  0  0  0  0  0  0
   57.5680   29.7380   45.3460 C   0  0  0  0  0  0  0  0  0  0  0  0
   56.5160   29.7810   44.5040 C   0  0  0  0  0  0  0  0  0  0  0  0
   56.0004   30.7344   44.3163 H   0  0  0  0  0  0  0  0  0  0  0  0
   56.1733   28.8627   44.0047 H   0  0  0  0  0  0  0  0  0  0  0  0
   58.0870   30.8270   45.9900 N   0  0  0  0  0  0  0  0  0  0  0  0
   57.5390   32.2100   45.9090 C   0  0  0  0  0  0  0  0  0  0  0  0
   56.4472   32.0827   45.8661 H   0  0  0  0  0  0  0  0  0  0  0  0
   57.9530   32.9130   44.5960 C   0  0  0  0  0  0  0  0  0  0  0  0
   58.1479   32.1431   43.8349 H   0  0  0  0  0  0  0  0  0  0  0  0
   57.1264   33.5803   44.3107 H   0  0  0  0  0  0  0  0  0  0  0  0
   59.2020   33.7790   44.7390 C   0  0  0  0  0  0  0  0  0  0  0  0
   60.0611   33.1396   44.9902 H   0  0  0  0  0  0  0  0  0  0  0  0
   59.3887   34.3009   43.7888 H   0  0  0  0  0  0  0  0  0  0  0  0
   59.0010   34.8120   45.8450 C   0  0  0  0  0  0  0  0  0  0  0  0
   59.8785   35.4741   45.8867 H   0  0  0  0  0  0  0  0  0  0  0  0
   58.0961   35.3980   45.6264 H   0  0  0  0  0  0  0  0  0  0  0  0
   58.8290   34.1190   47.1940 C   0  0  0  0  0  0  0  0  0  0  0  0
   59.7690   33.6074   47.4484 H   0  0  0  0  0  0  0  0  0  0  0  0
   58.5717   34.8924   47.9326 H   0  0  0  0  0  0  0  0  0  0  0  0
   57.6880   33.0810   47.1930 C   0  0  0  0  0  0  0  0  0  0  0  0
   57.8552   32.4002   48.0407 H   0  0  0  0  0  0  0  0  0  0  0  0
   56.7604   33.6691   47.2542 H   0  0  0  0  0  0  0  0  0  0  0  0
   59.0290   30.6080   49.6280 C   0  0  0  0  0  0  0  0  0  0  0  0
   59.4942   29.6906   50.0178 H   0  0  0  0  0  0  0  0  0  0  0  0
   58.1778   30.3554   48.9786 H   0  0  0  0  0  0  0  0  0  0  0  0
   58.5240   31.4530   50.7990 C   0  0  0  0  0  0  0  0  0  0  0  0
   57.8957   30.8315   51.4539 H   0  0  0  0  0  0  0  0  0  0  0  0
   57.9335   32.2961   50.4111 H   0  0  0  0  0  0  0  0  0  0  0  0
  1  2  1  0
  2  3  1  0
  3  4  1  0
  3  5  1  0
  3  6  1  0
  6  7  1  0
  6  8  1  0
  6  9  1  0
  9 10  1  0
 10 11  1  0
 10 12  1  0
 10 13  1  0
 13 14  1  0
 13 15  1  0
 13 16  1  0
 16 17  1  0
 17 18  2  0
 17 19  1  0
 19 20  2  0
 20 21  1  0
 20 22  1  0
 22 23  2  0
 23 24  1  0
 23 25  1  0
 25 26  1  0
 26 27  1  0
 27 28  2  0
 27 29  1  0
 29 30  1  0
 30 31  1  0
 22 32  1  0
 32 33  2  0
 33 34  1  0
 33 35  1  0
 32 36  1  0
 36 37  1  0
 37 38  1  0
 37 39  1  0
 39 40  1  0
 39 41  1  0
 39 42  1  0
 42 43  1  0
 42 44  1  0
 42 45  1  0
 45 46  1  0
 45 47  1  0
 45 48  1  0
 48 49  1  0
 48 50  1  0
 48 51  1  0
 51 52  1  0
 51 53  1  0
 16 54  1  0
 54 55  1  0
 54 56  1  0
 54 57  1  0
 57 58  1  0
 57 59  1  0
 57  9  1  0
 36 19  1  0
 51 37  1  0
 30 25  2  0
M  CHG  3  26  -1  29  -1  31  -1
M  END
>  <UniqueID>  (7) 
7

>  <SMILES>  (7) 
C=c1/c(=C/c2[n-]c(=O)[n-]c2[O-])cc(C(=O)N2CCN(CCO)CC2)n1C1CCCCC1

>  <Energy>  (7) 
140.31370669029644

>  <Genealogy>  (7) 
C=c1c(=Cc2[n-]c(=O)[n-]c2[O-])cc(C(=O)N2CCN(CCO)CC2)n1C1CCCCC1 (protonated)
C=c1/c(=C/c2[n-]c(=O)[n-]c2[O-])cc(C(=O)N2CCN(CCO)CC2)n1C1CCCCC1 (cis-trans isomerization)
C=c1/c(=C/c2[n-]c(=O)[n-]c2[O-])cc(C(=O)N2CCN(CCO)CC2)n1C1CCCCC1 (3D coordinates assigned)
C=c1/c(=C/c2[n-]c(=O)[n-]c2[O-])cc(C(=O)N2CCN(CCO)CC2)n1C1CCCCC1 (nonaromatic ring conformer: 140.31370669029644 kcal/mol)

>  <smiles>  (7) 
C=c1c(=Cc2[nH]c(=O)[nH]c2O)cc(C(=O)N2CCN(CCO)CC2)n1C1CCCCC1

>  <score_type>  (7) 
oracle

>  <origin>  (7) 
adg

>  <m_score__min__energy>  (7) 
-16.41

>  <m_primary>  (7) 
energy

$$$$
7:0
     RDKit          3D

 55 57  0  0  1  0  0  0  0  0999 V2000
   65.7870   31.9630   52.0360 C   0  0  0  0  0  0  0  0  0  0  0  0
   65.9720   33.4280   51.0380 S   0  0  0  0  0  0  0  0  0  0  0  0
   64.9560   34.4450   51.4680 O   0  0  0  0  0  0  0  0  0  0  0  0
   67.3730   33.9240   51.2190 O   0  0  0  0  0  0  0  0  0  0  0  0
   65.6740   33.0380   49.3840 N   0  0  0  0  0  0  0  0  0  0  0  0
   64.3810   33.0840   48.7960 C   0  0  0  0  0  0  0  0  0  0  0  0
   64.1560   33.4360   47.4810 C   0  0  0  0  0  0  0  0  0  0  0  0
   62.8870   33.4690   46.9430 C   0  0  0  0  0  0  0  0  0  0  0  0
   61.7740   33.1440   47.7260 C   0  0  0  0  0  0  0  0  0  0  0  0
   60.4200   33.1850   47.1270 C   0  0  0  0  0  0  0  0  0  0  0  0
   59.9690   31.8940   46.6530 N   0  0  0  0  0  0  0  0  0  0  0  0
   59.6330   30.8110   47.5060 C   0  0  0  0  0  0  0  0  0  0  0  0
   59.6900   30.8560   48.7570 O   0  0  0  0  0  0  0  0  0  0  0  0
   59.1840   29.5420   46.8880 C   0  0  2  0  0  0  0  0  0  0  0  0
   58.5140   29.7440   45.5420 C   0  0  0  0  0  0  0  0  0  0  0  0
   58.2590   28.3590   45.0350 C   0  0  0  0  0  0  0  0  0  0  0  0
   58.1460   28.1660   43.6970 C   0  0  0  0  0  0  0  0  0  0  0  0
   57.9070   26.8860   43.1960 C   0  0  0  0  0  0  0  0  0  0  0  0
   57.7740   25.7820   43.9980 C   0  0  0  0  0  0  0  0  0  0  0  0
   57.5410   24.5070   43.6290 O   0  0  0  0  0  0  0  0  0  0  0  0
   56.5990   23.5550   43.8800 C   0  0  0  0  0  0  0  0  0  0  0  0
   57.0260   22.1630   43.7080 C   0  0  0  0  0  0  0  0  0  0  0  0
   58.1580   21.5740   44.2180 O   0  0  0  0  0  0  0  0  0  0  0  0
   56.2560   21.3850   42.9940 N   0  0  0  0  0  0  0  0  0  0  0  0
   56.2820   20.0520   43.2140 O   0  0  0  0  0  0  0  0  0  0  0  0
   57.8980   26.0260   45.3800 C   0  0  0  0  0  0  0  0  0  0  0  0
   58.1330   27.2790   45.8800 C   0  0  0  0  0  0  0  0  0  0  0  0
   58.2480   27.4310   47.3620 C   0  0  0  0  0  0  0  0  0  0  0  0
   58.2370   28.8350   47.7250 N   0  0  0  0  0  0  0  0  0  0  0  0
   62.0300   32.7980   49.0300 C   0  0  0  0  0  0  0  0  0  0  0  0
   63.2990   32.7610   49.5770 C   0  0  0  0  0  0  0  0  0  0  0  0
   65.8217   32.2378   53.1006 H   0  0  0  0  0  0  0  0  0  0  0  0
   64.8215   31.4860   51.8117 H   0  0  0  0  0  0  0  0  0  0  0  0
   66.6036   31.2610   51.8117 H   0  0  0  0  0  0  0  0  0  0  0  0
   66.4560   32.7420   48.7330 H   0  0  0  0  0  0  0  0  0  0  0  0
   65.0135   33.6978   46.8437 H   0  0  0  0  0  0  0  0  0  0  0  0
   62.7485   33.7532   45.8894 H   0  0  0  0  0  0  0  0  0  0  0  0
   59.7117   33.5456   47.8874 H   0  0  0  0  0  0  0  0  0  0  0  0
   60.4669   33.8557   46.2564 H   0  0  0  0  0  0  0  0  0  0  0  0
   59.8840   31.7460   45.6030 H   0  0  0  0  0  0  0  0  0  0  0  0
   60.1073   28.9574   46.7622 H   0  0  0  0  0  0  0  0  0  0  0  0
   57.5691   30.2953   45.6575 H   0  0  0  0  0  0  0  0  0  0  0  0
   59.1352   30.3331   44.8513 H   0  0  0  0  0  0  0  0  0  0  0  0
   58.2427   29.0178   43.0078 H   0  0  0  0  0  0  0  0  0  0  0  0
   57.8213   26.7566   42.1070 H   0  0  0  0  0  0  0  0  0  0  0  0
   56.2661   23.6781   44.9212 H   0  0  0  0  0  0  0  0  0  0  0  0
   55.8096   23.7162   43.1311 H   0  0  0  0  0  0  0  0  0  0  0  0
   58.2780   20.5710   44.1260 H   0  0  0  0  0  0  0  0  0  0  0  0
   57.0290   19.6060   43.7270 H   0  0  0  0  0  0  0  0  0  0  0  0
   57.8030   25.1828   46.0800 H   0  0  0  0  0  0  0  0  0  0  0  0
   57.4001   26.9242   47.8459 H   0  0  0  0  0  0  0  0  0  0  0  0
   59.1950   26.9819   47.6959 H   0  0  0  0  0  0  0  0  0  0  0  0
   58.3980   28.9940   48.7230 H   0  0  0  0  0  0  0  0  0  0  0  0
   61.1783   32.5358   49.6749 H   0  0  0  0  0  0  0  0  0  0  0  0
   63.4408   32.4750   50.6297 H   0  0  0  0  0  0  0  0  0  0  0  0
  1  2  1  0
  2  3  2  0
  2  4  2  0
  2  5  1  0
  5  6  1  0
  6  7  2  0
  7  8  1  0
  8  9  2  0
  9 10  1  0
 10 11  1  0
 11 12  1  0
 12 13  2  0
 12 14  1  0
 14 15  1  0
 15 16  1  0
 16 17  2  0
 17 18  1  0
 18 19  2  0
 19 20  1  0
 20 21  1  0
 21 22  1  0
 22 23  1  0
 22 24  2  0
 24 25  1  0
 19 26  1  0
 26 27  2  0
 27 28  1  0
 28 29  1  0
  9 30  1  0
 30 31  2  0
 31  6  1  0
 29 14  1  0
 27 16  1  0
  1 32  1  0
  1 33  1  0
  1 34  1  0
  5 35  1  0
  7 36  1  0
  8 37  1  0
 10 38  1  0
 10 39  1  0
 11 40  1  0
 14 41  1  6
 15 42  1  0
 15 43  1  0
 17 44  1  0
 18 45  1  0
 21 46  1  0
 21 47  1  0
 23 48  1  0
 25 49  1  0
 26 50  1  0
 28 51  1  0
 28 52  1  0
 29 53  1  0
 30 54  1  0
 31 55  1  0
M  END
>  <smiles>  (8) 
CS(=O)(=O)Nc1ccc(CNC(=O)C2Cc3ccc(OCC(O)=NO)cc3CN2)cc1

>  <score_type>  (8) 
oracle

>  <origin>  (8) 
adg

>  <m_score__min__energy>  (8) 
-10.529999999999999

>  <m_primary>  (8) 
energy

$$$$
8:0
     RDKit          3D

 68 72  0  0  0  0  0  0  0  0999 V2000
   66.5620   32.8040   49.6250 O   0  0  0  0  0  0  0  0  0  0  0  0
   65.9710   32.0020   50.4000 C   0  0  0  0  0  0  0  0  0  0  0  0
   66.7080   31.4440   51.5820 C   0  0  0  0  0  0  0  0  0  0  0  0
   65.7930   31.2840   52.7250 N   0  0  0  0  0  0  0  0  0  0  0  0
   65.8250   32.2020   53.7340 C   0  0  0  0  0  0  0  0  0  0  0  0
   64.9940   32.0660   54.8350 C   0  0  0  0  0  0  0  0  0  0  0  0
   64.1320   30.9760   54.8970 C   0  0  0  0  0  0  0  0  0  0  0  0
   63.3760   30.8580   55.9000 O   0  0  0  0  0  0  0  0  0  0  0  0
   64.1100   30.0500   53.8850 N   0  0  0  0  0  0  0  0  0  0  0  0
   63.1760   28.9080   53.9500 C   0  0  0  0  0  0  0  0  0  0  0  0
   62.3500   28.8260   52.6930 C   0  0  0  0  0  0  0  0  0  0  0  0
   61.6700   29.9560   52.2160 C   0  0  0  0  0  0  0  0  0  0  0  0
   60.8960   29.8780   51.0550 C   0  0  0  0  0  0  0  0  0  0  0  0
   60.7860   28.6670   50.3470 C   0  0  0  0  0  0  0  0  0  0  0  0
   60.0020   28.5980   49.0860 C   0  0  0  0  0  0  0  0  0  0  0  0
   59.2650   29.7100   48.6380 C   0  0  0  0  0  0  0  0  0  0  0  0
   58.5450   29.6490   47.4420 C   0  0  0  0  0  0  0  0  0  0  0  0
   58.5560   28.4800   46.6660 C   0  0  0  0  0  0  0  0  0  0  0  0
   57.8110   28.4110   45.3940 C   0  0  0  0  0  0  0  0  0  0  0  0
   56.9970   27.4680   45.2130 O   0  0  0  0  0  0  0  0  0  0  0  0
   57.9950   29.3730   44.3490 N   0  0  0  0  0  0  0  0  0  0  0  0
   57.0190   30.7890   44.1110 S   0  0  0  0  0  0  0  0  0  0  0  0
   56.8060   31.0080   42.6390 O   0  0  0  0  0  0  0  0  0  0  0  0
   55.6830   30.5770   44.7640 O   0  0  0  0  0  0  0  0  0  0  0  0
   57.7980   32.1950   44.8300 C   0  0  0  0  0  0  0  0  0  0  0  0
   58.4750   33.1150   44.0170 C   0  0  0  0  0  0  0  0  0  0  0  0
   59.0850   34.2380   44.5850 C   0  0  0  0  0  0  0  0  0  0  0  0
   59.0300   34.4390   45.9690 C   0  0  0  0  0  0  0  0  0  0  0  0
   58.3670   33.5170   46.7840 C   0  0  0  0  0  0  0  0  0  0  0  0
   57.7480   32.3980   46.2160 C   0  0  0  0  0  0  0  0  0  0  0  0
   59.2660   27.3610   47.1220 C   0  0  0  0  0  0  0  0  0  0  0  0
   59.9880   27.4200   48.3170 C   0  0  0  0  0  0  0  0  0  0  0  0
   61.4520   27.5310   50.8410 C   0  0  0  0  0  0  0  0  0  0  0  0
   62.2230   27.6100   52.0030 C   0  0  0  0  0  0  0  0  0  0  0  0
   64.9400   30.2110   52.7990 C   0  0  0  0  0  0  0  0  0  0  0  0
   64.9250   29.3630   51.8630 O   0  0  0  0  0  0  0  0  0  0  0  0
   64.5910   31.6620   50.1890 N   0  0  0  0  0  0  0  0  0  0  0  0
   63.8150   32.1290   49.0730 C   0  0  0  0  0  0  0  0  0  0  0  0
   62.7060   31.4050   48.5970 C   0  0  0  0  0  0  0  0  0  0  0  0
   61.9570   31.8930   47.5210 C   0  0  0  0  0  0  0  0  0  0  0  0
   62.3000   33.1070   46.9210 C   0  0  0  0  0  0  0  0  0  0  0  0
   63.3900   33.8390   47.4010 C   0  0  0  0  0  0  0  0  0  0  0  0
   64.1380   33.3580   48.4780 C   0  0  0  0  0  0  0  0  0  0  0  0
   67.1316   30.4643   51.3162 H   0  0  0  0  0  0  0  0  0  0  0  0
   67.5134   32.1388   51.8625 H   0  0  0  0  0  0  0  0  0  0  0  0
   66.5153   33.0562   53.6732 H   0  0  0  0  0  0  0  0  0  0  0  0
   65.0158   32.8081   55.6467 H   0  0  0  0  0  0  0  0  0  0  0  0
   63.7506   27.9773   54.0663 H   0  0  0  0  0  0  0  0  0  0  0  0
   62.5025   29.0493   54.8082 H   0  0  0  0  0  0  0  0  0  0  0  0
   61.7463   30.9096   52.7590 H   0  0  0  0  0  0  0  0  0  0  0  0
   60.3678   30.7717   50.6912 H   0  0  0  0  0  0  0  0  0  0  0  0
   59.2556   30.6345   49.2340 H   0  0  0  0  0  0  0  0  0  0  0  0
   57.9663   30.5224   47.1069 H   0  0  0  0  0  0  0  0  0  0  0  0
   58.5265   32.9532   42.9302 H   0  0  0  0  0  0  0  0  0  0  0  0
   59.6079   34.9632   43.9441 H   0  0  0  0  0  0  0  0  0  0  0  0
   59.5087   35.3229   46.4156 H   0  0  0  0  0  0  0  0  0  0  0  0
   58.3318   33.6712   47.8726 H   0  0  0  0  0  0  0  0  0  0  0  0
   57.2214   31.6766   46.8581 H   0  0  0  0  0  0  0  0  0  0  0  0
   59.2549   26.4304   46.5356 H   0  0  0  0  0  0  0  0  0  0  0  0
   60.5499   26.5384   48.6591 H   0  0  0  0  0  0  0  0  0  0  0  0
   61.3650   26.5727   50.3080 H   0  0  0  0  0  0  0  0  0  0  0  0
   62.7347   26.7124   52.3804 H   0  0  0  0  0  0  0  0  0  0  0  0
   64.0970   31.1300   50.9380 H   0  0  0  0  0  0  0  0  0  0  0  0
   62.4274   30.4529   49.0723 H   0  0  0  0  0  0  0  0  0  0  0  0
   61.0962   31.3196   47.1466 H   0  0  0  0  0  0  0  0  0  0  0  0
   61.7130   33.4866   46.0717 H   0  0  0  0  0  0  0  0  0  0  0  0
   63.6591   34.7957   46.9295 H   0  0  0  0  0  0  0  0  0  0  0  0
   64.9849   33.9458   48.8618 H   0  0  0  0  0  0  0  0  0  0  0  0
  1  2  2  0
  2  3  1  0
  3  4  1  0
  4  5  1  0
  5  6  2  0
  6  7  1  0
  7  8  2  0
  7  9  1  0
  9 10  1  0
 10 11  1  0
 11 12  2  0
 12 13  1  0
 13 14  2  0
 14 15  1  0
 15 16  2  0
 16 17  1  0
 17 18  2  0
 18 19  1  0
 19 20  2  0
 19 21  1  0
 21 22  1  0
 22 23  2  0
 22 24  2  0
 22 25  1  0
 25 26  2  0
 26 27  1  0
 27 28  2  0
 28 29  1  0
 29 30  2  0
 18 31  1  0
 31 32  2  0
 14 33  1  0
 33 34  2  0
  9 35  1  0
 35 36  2  0
  2 37  1  0
 37 38  1  0
 38 39  2  0
 39 40  1  0
 40 41  2  0
 41 42  1  0
 42 43  2  0
 35  4  1  0
 43 38  1  0
 34 11  1  0
 32 15  1  0
 30 25  1  0
  3 44  1  0
  3 45  1  0
  5 46  1  0
  6 47  1  0
 10 48  1  0
 10 49  1  0
 12 50  1  0
 13 51  1  0
 16 52  1  0
 17 53  1  0
 26 54  1  0
 27 55  1  0
 28 56  1  0
 29 57  1  0
 30 58  1  0
 31 59  1  0
 32 60  1  0
 33 61  1  0
 34 62  1  0
 37 63  1  0
 39 64  1  0
 40 65  1  0
 41 66  1  0
 42 67  1  0
 43 68  1  0
M  CHG  1  21  -1
M  END
>  <UniqueID>  (9) 
8

>  <SMILES>  (9) 
O=C(Cn1ccc(=O)n(Cc2ccc(-c3ccc(C(=O)[N-]S(=O)(=O)c4ccccc4)cc3)cc2)c1=O)Nc1ccccc1

>  <Energy>  (9) 
95.18161226146619

>  <Genealogy>  (9) 
O=C(Cn1ccc(=O)n(Cc2ccc(-c3ccc(C(=O)[N-]S(=O)(=O)c4ccccc4)cc3)cc2)c1=O)Nc1ccccc1 (protonated)
O=C(Cn1ccc(=O)n(Cc2ccc(-c3ccc(C(=O)[N-]S(=O)(=O)c4ccccc4)cc3)cc2)c1=O)Nc1ccccc1 (3D coordinates assigned)
O=C(Cn1ccc(=O)n(Cc2ccc(-c3ccc(C(=O)[N-]S(=O)(=O)c4ccccc4)cc3)cc2)c1=O)Nc1ccccc1 (optimized conformer: 95.18161226146619 kcal/mol)

>  <smiles>  (9) 
O=C(Cn1ccc(=O)n(Cc2ccc(-c3ccc(C(=O)NS(=O)(=O)c4ccccc4)cc3)cc2)c1=O)Nc1ccccc1

>  <score_type>  (9) 
oracle

>  <origin>  (9) 
adg

>  <m_score__min__energy>  (9) 
-12.289999999999999

>  <m_primary>  (9) 
energy

$$$$
9:0
     RDKit          3D

 49 52  0  0  0  0  0  0  0  0999 V2000
   61.0924   27.0274   45.4959 H   0  0  0  0  0  0  0  0  0  0  0  0
   60.4890   26.7960   46.3860 C   0  0  0  0  0  0  0  0  0  0  0  0
   61.0650   26.5690   47.4820 O   0  0  0  0  0  0  0  0  0  0  0  0
   59.0180   26.7570   46.2750 C   0  0  0  0  0  0  0  0  0  0  0  0
   58.2860   25.6550   46.7460 C   0  0  0  0  0  0  0  0  0  0  0  0
   58.8119   24.7968   47.1897 H   0  0  0  0  0  0  0  0  0  0  0  0
   56.8920   25.6450   46.6530 C   0  0  0  0  0  0  0  0  0  0  0  0
   56.3237   24.7833   47.0333 H   0  0  0  0  0  0  0  0  0  0  0  0
   56.2170   26.7250   46.0790 C   0  0  0  0  0  0  0  0  0  0  0  0
   54.8280   26.7030   46.0040 O   0  0  0  0  0  0  0  0  0  0  0  0
   56.9330   27.8190   45.5720 C   0  0  0  0  0  0  0  0  0  0  0  0
   56.2070   28.9300   45.0150 N   0  0  0  0  0  0  0  0  0  0  0  0
   56.6950   30.0810   44.6570 C   0  0  0  0  0  0  0  0  0  0  0  0
   56.8470   30.4080   43.3450 N   0  0  0  0  0  0  0  0  0  0  0  0
   57.3280   31.6280   42.9940 C   0  0  0  0  0  0  0  0  0  0  0  0
   57.5420   31.9610   41.5560 C   0  0  0  0  0  0  0  0  0  0  0  0
   58.1352   32.8840   41.4777 H   0  0  0  0  0  0  0  0  0  0  0  0
   58.0799   31.1367   41.0649 H   0  0  0  0  0  0  0  0  0  0  0  0
   56.5687   32.1078   41.0649 H   0  0  0  0  0  0  0  0  0  0  0  0
   57.6730   32.5180   43.9570 N   0  0  0  0  0  0  0  0  0  0  0  0
   57.5180   32.2030   45.2710 C   0  0  0  0  0  0  0  0  0  0  0  0
   57.8430   33.0470   46.2050 N   0  0  0  0  0  0  0  0  0  0  0  0
   58.7250   34.1990   46.0190 C   0  0  0  0  0  0  0  0  0  0  0  0
   59.0536   34.2374   44.9699 H   0  0  0  0  0  0  0  0  0  0  0  0
   58.1729   35.1146   46.2778 H   0  0  0  0  0  0  0  0  0  0  0  0
   59.9330   34.0900   46.9130 C   0  0  0  0  0  0  0  0  0  0  0  0
   59.8090   34.3090   48.2920 C   0  0  0  0  0  0  0  0  0  0  0  0
   58.8326   34.5864   48.7159 H   0  0  0  0  0  0  0  0  0  0  0  0
   60.9180   34.1770   49.1310 C   0  0  0  0  0  0  0  0  0  0  0  0
   60.8085   34.3512   50.2116 H   0  0  0  0  0  0  0  0  0  0  0  0
   62.1740   33.8230   48.6050 C   0  0  0  0  0  0  0  0  0  0  0  0
   63.3520   33.6790   49.4970 C   0  0  0  0  0  0  0  0  0  0  0  0
   63.3770   34.3040   50.7580 C   0  0  0  0  0  0  0  0  0  0  0  0
   62.5153   34.9029   51.0878 H   0  0  0  0  0  0  0  0  0  0  0  0
   64.4890   34.1690   51.5940 C   0  0  0  0  0  0  0  0  0  0  0  0
   64.4981   34.6601   52.5782 H   0  0  0  0  0  0  0  0  0  0  0  0
   65.5890   33.4120   51.1830 C   0  0  0  0  0  0  0  0  0  0  0  0
   66.4636   33.3090   51.8421 H   0  0  0  0  0  0  0  0  0  0  0  0
   65.5770   32.7860   49.9340 C   0  0  0  0  0  0  0  0  0  0  0  0
   66.4426   32.1892   49.6106 H   0  0  0  0  0  0  0  0  0  0  0  0
   64.4660   32.9170   49.0940 C   0  0  0  0  0  0  0  0  0  0  0  0
   64.4624   32.4215   48.1119 H   0  0  0  0  0  0  0  0  0  0  0  0
   62.2940   33.6040   47.2220 C   0  0  0  0  0  0  0  0  0  0  0  0
   63.2697   33.3273   46.7961 H   0  0  0  0  0  0  0  0  0  0  0  0
   61.1830   33.7350   46.3830 C   0  0  0  0  0  0  0  0  0  0  0  0
   61.2893   33.5589   45.3024 H   0  0  0  0  0  0  0  0  0  0  0  0
   57.0220   30.9870   45.6130 N   0  0  0  0  0  0  0  0  0  0  0  0
   58.3370   27.8400   45.6980 C   0  0  0  0  0  0  0  0  0  0  0  0
   58.9035   28.7127   45.3410 H   0  0  0  0  0  0  0  0  0  0  0  0
  1  2  1  0
  2  3  2  0
  2  4  1  0
  4  5  2  0
  5  6  1  0
  5  7  1  0
  7  8  1  0
  7  9  2  0
  9 10  1  0
  9 11  1  0
 11 12  1  0
 12 13  2  0
 13 14  1  0
 14 15  1  0
 15 16  1  0
 16 17  1  0
 16 18  1  0
 16 19  1  0
 15 20  2  0
 20 21  1  0
 21 22  2  3
 22 23  1  0
 23 24  1  0
 23 25  1  0
 23 26  1  0
 26 27  2  0
 27 28  1  0
 27 29  1  0
 29 30  1  0
 29 31  2  0
 31 32  1  0
 32 33  2  0
 33 34  1  0
 33 35  1  0
 35 36  1  0
 35 37  2  0
 37 38  1  0
 37 39  1  0
 39 40  1  0
 39 41  2  0
 41 42  1  0
 31 43  1  0
 43 44  1  0
 43 45  2  0
 45 46  1  0
 21 47  1  0
 11 48  2  0
 48 49  1  0
 48  4  1  0
 47 13  1  0
 45 26  1  0
 41 32  1  0
M  CHG  3  10  -1  14  -1  47  -1
M  END
>  <UniqueID>  (10) 
9

>  <SMILES>  (10) 
Cc1nc(=NCc2ccc(-c3ccccc3)cc2)[n-]/c(=N/c2cc(C=O)ccc2[O-])[n-]1

>  <Energy>  (10) 
63.50528639128962

>  <Genealogy>  (10) 
Cc1nc(=NCc2ccc(-c3ccccc3)cc2)[n-]c(=Nc2cc(C=O)ccc2[O-])[n-]1 (protonated)
Cc1nc(=NCc2ccc(-c3ccccc3)cc2)[n-]/c(=N/c2cc(C=O)ccc2[O-])[n-]1 (cis-trans isomerization)
Cc1nc(=NCc2ccc(-c3ccccc3)cc2)[n-]/c(=N/c2cc(C=O)ccc2[O-])[n-]1 (3D coordinates assigned)
Cc1nc(=NCc2ccc(-c3ccccc3)cc2)[n-]/c(=N/c2cc(C=O)ccc2[O-])[n-]1 (optimized conformer: 63.50528639128962 kcal/mol)

>  <smiles>  (10) 
Cc1nc(=NCc2ccc(-c3ccccc3)cc2)[nH]c(=Nc2cc(C=O)ccc2O)[nH]1

>  <score_type>  (10) 
oracle

>  <origin>  (10) 
adg

>  <m_score__min__energy>  (10) 
-16.84

>  <m_primary>  (10) 
energy

$$$$
10:0
     RDKit          3D

 43 45  0  0  0  0  0  0  0  0999 V2000
   58.8070   31.8340   48.9040 H   0  0  0  0  0  0  0  0  0  0  0  0
   58.1740   32.5060   48.4870 O   0  0  0  0  0  0  0  0  0  0  0  0
   58.2450   32.8300   47.1350 C   0  0  0  0  0  0  0  0  0  0  0  0
   58.5020   34.1520   46.7530 C   0  0  0  0  0  0  0  0  0  0  0  0
   58.6366   34.9284   47.5205 H   0  0  0  0  0  0  0  0  0  0  0  0
   58.5880   34.4880   45.4000 C   0  0  0  0  0  0  0  0  0  0  0  0
   58.7993   35.5263   45.1047 H   0  0  0  0  0  0  0  0  0  0  0  0
   58.4060   33.5070   44.4200 C   0  0  0  0  0  0  0  0  0  0  0  0
   58.4769   33.7757   43.3557 H   0  0  0  0  0  0  0  0  0  0  0  0
   58.1330   32.1800   44.7900 C   0  0  0  0  0  0  0  0  0  0  0  0
   57.9430   31.1220   43.7390 C   0  0  0  0  0  0  0  0  0  0  0  0
   58.9076   30.9202   43.2502 H   0  0  0  0  0  0  0  0  0  0  0  0
   57.2113   31.4818   43.0007 H   0  0  0  0  0  0  0  0  0  0  0  0
   57.4280   29.8570   44.3540 C   0  0  0  0  0  0  0  0  0  0  0  0
   58.3500   28.4880   44.6860 S   0  0  0  0  0  0  0  0  0  0  0  0
   57.0250   27.6360   45.2920 C   0  0  0  0  0  0  0  0  0  0  0  0
   57.0280   26.4060   45.7170 N   0  0  0  0  0  0  0  0  0  0  0  0
   55.9640   25.4460   45.6070 C   0  0  0  0  0  0  0  0  0  0  0  0
   54.7950   25.7260   45.9930 O   0  0  0  0  0  0  0  0  0  0  0  0
   56.2210   24.1440   44.9540 C   0  0  0  0  0  0  0  0  0  0  0  0
   56.2730   24.1030   43.5480 C   0  0  0  0  0  0  0  0  0  0  0  0
   56.0401   25.0079   42.9676 H   0  0  0  0  0  0  0  0  0  0  0  0
   56.6170   22.9260   42.8840 C   0  0  0  0  0  0  0  0  0  0  0  0
   56.6555   22.9074   41.7848 H   0  0  0  0  0  0  0  0  0  0  0  0
   56.9120   21.7740   43.6090 C   0  0  0  0  0  0  0  0  0  0  0  0
   57.2030   20.8532   43.0823 H   0  0  0  0  0  0  0  0  0  0  0  0
   56.8390   21.7860   45.0030 C   0  0  0  0  0  0  0  0  0  0  0  0
   57.0660   20.8696   45.5676 H   0  0  0  0  0  0  0  0  0  0  0  0
   56.4780   22.9580   45.6940 C   0  0  0  0  0  0  0  0  0  0  0  0
   56.3320   22.8910   47.1680 C   0  0  0  0  0  0  0  0  0  0  0  0
   57.2830   23.2440   47.9170 O   0  0  0  0  0  0  0  0  0  0  0  0
   55.0890   22.4660   47.7450 N   0  0  0  0  0  0  0  0  0  0  0  0
   53.7880   22.9280   47.2790 C   0  0  0  0  0  0  0  0  0  0  0  0
   53.8471   24.0002   47.0405 H   0  0  0  0  0  0  0  0  0  0  0  0
   53.0427   22.7601   48.0704 H   0  0  0  0  0  0  0  0  0  0  0  0
   53.3790   22.1700   46.0530 C   0  0  0  0  0  0  0  0  0  0  0  0
   52.5820   22.6890   45.2260 O   0  0  0  0  0  0  0  0  0  0  0  0
   53.9090   20.9110   45.8020 O   0  0  0  0  0  0  0  0  0  0  0  0
   55.8930   28.3700   45.2430 N   0  0  0  0  0  0  0  0  0  0  0  0
   56.1120   29.6100   44.7300 C   0  0  0  0  0  0  0  0  0  0  0  0
   55.3126   30.3577   44.6211 H   0  0  0  0  0  0  0  0  0  0  0  0
   58.0670   31.8440   46.1520 C   0  0  0  0  0  0  0  0  0  0  0  0
   57.8748   30.8027   46.4500 H   0  0  0  0  0  0  0  0  0  0  0  0
  1  2  1  0
  2  3  1  0
  3  4  2  0
  4  5  1  0
  4  6  1  0
  6  7  1  0
  6  8  2  0
  8  9  1  0
  8 10  1  0
 10 11  1  0
 11 12  1  0
 11 13  1  0
 11 14  1  0
 14 15  1  0
 15 16  1  0
 16 17  2  0
 17 18  1  0
 18 19  2  0
 18 20  1  0
 20 21  2  0
 21 22  1  0
 21 23  1  0
 23 24  1  0
 23 25  2  0
 25 26  1  0
 25 27  1  0
 27 28  1  0
 27 29  2  0
 29 30  1  0
 30 31  2  0
 30 32  1  0
 32 33  1  0
 33 34  1  0
 33 35  1  0
 33 36  1  0
 36 37  2  0
 36 38  1  0
 16 39  1  0
 39 40  1  0
 40 41  1  0
 10 42  2  0
 42 43  1  0
 42  3  1  0
 40 14  2  0
 29 20  1  0
M  CHG  3  32  -1  38  -1  39  -1
M  END
>  <UniqueID>  (11) 
10

>  <SMILES>  (11) 
O=C([O-])C[N-]C(=O)c1ccccc1C(=O)/N=c1/[n-]cc(Cc2cccc(O)c2)s1

>  <Energy>  (11) 
82.8381319744414

>  <Genealogy>  (11) 
O=C([O-])C[N-]C(=O)c1ccccc1C(=O)N=c1[n-]cc(Cc2cccc(O)c2)s1 (protonated)
O=C([O-])C[N-]C(=O)c1ccccc1C(=O)/N=c1/[n-]cc(Cc2cccc(O)c2)s1 (cis-trans isomerization)
O=C([O-])C[N-]C(=O)c1ccccc1C(=O)/N=c1/[n-]cc(Cc2cccc(O)c2)s1 (3D coordinates assigned)
O=C([O-])C[N-]C(=O)c1ccccc1C(=O)/N=c1/[n-]cc(Cc2cccc(O)c2)s1 (optimized conformer: 82.8381319744414 kcal/mol)

>  <smiles>  (11) 
O=C(O)CNC(=O)c1ccccc1C(=O)N=c1[nH]cc(Cc2cccc(O)c2)s1

>  <score_type>  (11) 
oracle

>  <origin>  (11) 
adg

>  <m_score__min__energy>  (11) 
-14.710000000000001

>  <m_primary>  (11) 
energy

$$$$
11:0
     RDKit          3D

 43 45  0  0  0  0  0  0  0  0999 V2000
   55.5530   30.4000   54.1790 C   0  0  0  0  0  0  0  0  0  0  0  0
   56.1540   30.7480   52.8850 N   0  0  0  0  0  0  0  0  0  0  0  0
   55.4130   30.4710   51.6460 C   0  0  0  0  0  0  0  0  0  0  0  0
   53.9300   30.5040   51.9070 C   0  0  0  0  0  0  0  0  0  0  0  0
   53.2990   29.4500   52.5890 C   0  0  0  0  0  0  0  0  0  0  0  0
   51.9190   29.4780   52.8060 C   0  0  0  0  0  0  0  0  0  0  0  0
   51.1560   30.5550   52.3430 C   0  0  0  0  0  0  0  0  0  0  0  0
   51.7750   31.6080   51.6600 C   0  0  0  0  0  0  0  0  0  0  0  0
   51.0180   32.6810   51.2020 O   0  0  0  0  0  0  0  0  0  0  0  0
   53.1570   31.5830   51.4400 C   0  0  0  0  0  0  0  0  0  0  0  0
   57.4510   31.3860   52.8200 C   0  0  0  0  0  0  0  0  0  0  0  0
   57.6080   32.5400   53.3020 O   0  0  0  0  0  0  0  0  0  0  0  0
   58.6330   30.7240   52.1620 C   0  0  0  0  0  0  0  0  0  0  0  0
   58.5950   30.9250   50.7150 N   0  0  0  0  0  0  0  0  0  0  0  0
   59.0690   32.1310   50.0940 C   0  0  0  0  0  0  0  0  0  0  0  0
   59.7100   32.9760   50.7750 O   0  0  0  0  0  0  0  0  0  0  0  0
   58.8180   32.3990   48.6640 C   0  0  0  0  0  0  0  0  0  0  0  0
   58.5770   31.4150   47.7030 C   0  0  0  0  0  0  0  0  0  0  0  0
   58.4330   32.1000   46.5170 C   0  0  0  0  0  0  0  0  0  0  0  0
   58.1910   31.6350   45.2250 C   0  0  0  0  0  0  0  0  0  0  0  0
   58.1070   32.5880   44.1910 C   0  0  0  0  0  0  0  0  0  0  0  0
   57.7810   32.0170   42.3970 Br  0  0  0  0  0  0  0  0  0  0  0  0
   58.2680   33.9650   44.4730 C   0  0  0  0  0  0  0  0  0  0  0  0
   58.5170   34.4000   45.7880 C   0  0  0  0  0  0  0  0  0  0  0  0
   58.5900   33.4340   46.7910 C   0  0  0  0  0  0  0  0  0  0  0  0
   58.8270   33.6330   48.0980 N   0  0  0  0  0  0  0  0  0  0  0  0
   56.1937   30.7710   54.9925 H   0  0  0  0  0  0  0  0  0  0  0  0
   54.5575   30.8614   54.2569 H   0  0  0  0  0  0  0  0  0  0  0  0
   55.4576   29.3069   54.2569 H   0  0  0  0  0  0  0  0  0  0  0  0
   55.6663   31.2323   50.8935 H   0  0  0  0  0  0  0  0  0  0  0  0
   55.6901   29.4719   51.2784 H   0  0  0  0  0  0  0  0  0  0  0  0
   53.8938   28.5995   52.9535 H   0  0  0  0  0  0  0  0  0  0  0  0
   51.4313   28.6508   53.3424 H   0  0  0  0  0  0  0  0  0  0  0  0
   50.0698   30.5743   52.5157 H   0  0  0  0  0  0  0  0  0  0  0  0
   53.6408   32.4102   50.8999 H   0  0  0  0  0  0  0  0  0  0  0  0
   59.5605   31.1586   52.5632 H   0  0  0  0  0  0  0  0  0  0  0  0
   58.5971   29.6447   52.3713 H   0  0  0  0  0  0  0  0  0  0  0  0
   58.2470   30.1380   50.1240 H   0  0  0  0  0  0  0  0  0  0  0  0
   58.5155   30.3279   47.8594 H   0  0  0  0  0  0  0  0  0  0  0  0
   58.0699   30.5610   45.0202 H   0  0  0  0  0  0  0  0  0  0  0  0
   58.1980   34.7010   43.6585 H   0  0  0  0  0  0  0  0  0  0  0  0
   58.6498   35.4676   46.0173 H   0  0  0  0  0  0  0  0  0  0  0  0
   59.0120   34.5510   48.5590 H   0  0  0  0  0  0  0  0  0  0  0  0
  1  2  1  0
  2  3  1  0
  3  4  1  0
  4  5  2  0
  5  6  1  0
  6  7  2  0
  7  8  1  0
  8  9  1  0
  8 10  2  0
  2 11  1  0
 11 12  2  0
 11 13  1  0
 13 14  1  0
 14 15  1  0
 15 16  2  0
 15 17  1  0
 17 18  2  0
 18 19  1  0
 19 20  2  0
 20 21  1  0
 21 22  1  0
 21 23  2  0
 23 24  1  0
 24 25  2  0
 25 26  1  0
 10  4  1  0
 26 17  1  0
 25 19  1  0
  1 27  1  0
  1 28  1  0
  1 29  1  0
  3 30  1  0
  3 31  1  0
  5 32  1  0
  6 33  1  0
  7 34  1  0
 10 35  1  0
 13 36  1  0
 13 37  1  0
 14 38  1  0
 18 39  1  0
 20 40  1  0
 23 41  1  0
 24 42  1  0
 26 43  1  0
M  CHG  1   9  -1
M  END
>  <UniqueID>  (12) 
11

>  <SMILES>  (12) 
CN(Cc1cccc([O-])c1)C(=O)CNC(=O)c1cc2cc(Br)ccc2[nH]1

>  <Energy>  (12) 
72.64272876596658

>  <Genealogy>  (12) 
CN(Cc1cccc([O-])c1)C(=O)CNC(=O)c1cc2cc(Br)ccc2[nH]1 (protonated)
CN(Cc1cccc([O-])c1)C(=O)CNC(=O)c1cc2cc(Br)ccc2[nH]1 (3D coordinates assigned)
CN(Cc1cccc([O-])c1)C(=O)CNC(=O)c1cc2cc(Br)ccc2[nH]1 (optimized conformer: 72.64272876596658 kcal/mol)

>  <smiles>  (12) 
CN(Cc1cccc(O)c1)C(=O)CNC(=O)c1cc2cc(Br)ccc2[nH]1

>  <score_type>  (12) 
oracle

>  <origin>  (12) 
adg

>  <m_score__min__energy>  (12) 
-12.050000000000001

>  <m_primary>  (12) 
energy

$$$$
12:0
     RDKit          3D

 51 53  0  0  0  0  0  0  0  0999 V2000
   63.0210   33.8240   49.5860 C   0  0  0  0  0  0  0  0  0  0  0  0
   61.6020   33.7590   49.6780 O   0  0  0  0  0  0  0  0  0  0  0  0
   60.7350   33.5890   48.5860 C   0  0  0  0  0  0  0  0  0  0  0  0
   61.1620   33.8320   47.2660 C   0  0  0  0  0  0  0  0  0  0  0  0
   60.2910   33.6580   46.1920 C   0  0  0  0  0  0  0  0  0  0  0  0
   58.9760   33.2410   46.4140 C   0  0  0  0  0  0  0  0  0  0  0  0
   57.8650   32.9970   45.0670 S   0  0  0  0  0  0  0  0  0  0  0  0
   56.4860   32.7730   45.6240 O   0  0  0  0  0  0  0  0  0  0  0  0
   57.8410   34.2190   44.1930 O   0  0  0  0  0  0  0  0  0  0  0  0
   58.3820   31.5970   44.1500 N   0  0  0  0  0  0  0  0  0  0  0  0
   57.4170   31.2500   43.0830 C   0  0  0  0  0  0  0  0  0  0  0  0
   56.4860   30.0890   43.4780 C   0  0  0  0  0  0  0  0  0  0  0  0
   56.2320   30.1160   44.8640 O   0  0  0  0  0  0  0  0  0  0  0  0
   57.4070   29.7840   45.5830 C   0  0  0  0  0  0  0  0  0  0  0  0
   58.6860   30.4540   45.0270 C   0  0  0  0  0  0  0  0  0  0  0  0
   58.5380   32.9940   47.7190 C   0  0  0  0  0  0  0  0  0  0  0  0
   59.4050   33.1650   48.8140 C   0  0  0  0  0  0  0  0  0  0  0  0
   58.9050   32.8970   50.1850 C   0  0  0  0  0  0  0  0  0  0  0  0
   57.8330   32.1140   50.4490 N   0  0  0  0  0  0  0  0  0  0  0  0
   57.7340   32.1540   51.7910 C   0  0  0  0  0  0  0  0  0  0  0  0
   56.6840   31.4220   52.5710 C   0  0  0  0  0  0  0  0  0  0  0  0
   55.5010   31.2040   51.7420 N   0  0  0  0  0  0  0  0  0  0  0  0
   54.3620   30.4680   52.2080 C   0  0  0  0  0  0  0  0  0  0  0  0
   53.1720   30.2990   51.3200 C   0  0  0  0  0  0  0  0  0  0  0  0
   54.3600   29.9560   53.3600 O   0  0  0  0  0  0  0  0  0  0  0  0
   58.7450   32.9480   52.2910 C   0  0  0  0  0  0  0  0  0  0  0  0
   59.0240   33.2760   53.7210 C   0  0  0  0  0  0  0  0  0  0  0  0
   59.4450   33.3920   51.2790 O   0  0  0  0  0  0  0  0  0  0  0  0
   63.4535   33.8438   50.5972 H   0  0  0  0  0  0  0  0  0  0  0  0
   63.3941   32.9420   49.0448 H   0  0  0  0  0  0  0  0  0  0  0  0
   63.3119   34.7364   49.0448 H   0  0  0  0  0  0  0  0  0  0  0  0
   62.1946   34.1628   47.0807 H   0  0  0  0  0  0  0  0  0  0  0  0
   60.6398   33.8495   45.1665 H   0  0  0  0  0  0  0  0  0  0  0  0
   56.8019   32.1351   42.8634 H   0  0  0  0  0  0  0  0  0  0  0  0
   57.9951   30.9279   42.2043 H   0  0  0  0  0  0  0  0  0  0  0  0
   55.5354   30.1845   42.9329 H   0  0  0  0  0  0  0  0  0  0  0  0
   56.9730   29.1366   43.2218 H   0  0  0  0  0  0  0  0  0  0  0  0
   57.2756   30.1002   46.6283 H   0  0  0  0  0  0  0  0  0  0  0  0
   57.5460   28.6970   45.4879 H   0  0  0  0  0  0  0  0  0  0  0  0
   59.2954   30.8083   45.8714 H   0  0  0  0  0  0  0  0  0  0  0  0
   59.2254   29.7049   44.4287 H   0  0  0  0  0  0  0  0  0  0  0  0
   57.5035   32.6621   47.8915 H   0  0  0  0  0  0  0  0  0  0  0  0
   57.0841   30.4503   52.8962 H   0  0  0  0  0  0  0  0  0  0  0  0
   56.4025   32.0241   53.4475 H   0  0  0  0  0  0  0  0  0  0  0  0
   55.4910   31.5920   50.7720 H   0  0  0  0  0  0  0  0  0  0  0  0
   52.2699   30.1709   51.9363 H   0  0  0  0  0  0  0  0  0  0  0  0
   53.0588   31.1901   50.6851 H   0  0  0  0  0  0  0  0  0  0  0  0
   53.3114   29.4116   50.6851 H   0  0  0  0  0  0  0  0  0  0  0  0
   58.4491   32.6001   54.3711 H   0  0  0  0  0  0  0  0  0  0  0  0
   60.0983   33.1528   53.9226 H   0  0  0  0  0  0  0  0  0  0  0  0
   58.7301   34.3167   53.9226 H   0  0  0  0  0  0  0  0  0  0  0  0
  1  2  1  0
  2  3  1  0
  3  4  2  0
  4  5  1  0
  5  6  2  0
  6  7  1  0
  7  8  2  0
  7  9  2  0
  7 10  1  0
 10 11  1  0
 11 12  1  0
 12 13  1  0
 13 14  1  0
 14 15  1  0
  6 16  1  0
 16 17  2  0
 17 18  1  0
 18 19  2  0
 19 20  1  0
 20 21  1  0
 21 22  1  0
 22 23  1  0
 23 24  1  0
 23 25  2  0
 20 26  2  0
 26 27  1  0
 26 28  1  0
 17  3  1  0
 28 18  1  0
 15 10  1  0
  1 29  1  0
  1 30  1  0
  1 31  1  0
  4 32  1  0
  5 33  1  0
 11 34  1  0
 11 35  1  0
 12 36  1  0
 12 37  1  0
 14 38  1  0
 14 39  1  0
 15 40  1  0
 15 41  1  0
 16 42  1  0
 21 43  1  0
 21 44  1  0
 22 45  1  0
 24 46  1  0
 24 47  1  0
 24 48  1  0
 27 49  1  0
 27 50  1  0
 27 51  1  0
M  END
>  <UniqueID>  (13) 
12

>  <SMILES>  (13) 
COc1ccc(S(=O)(=O)N2CCOCC2)cc1-c1nc(CNC(C)=O)c(C)o1

>  <Energy>  (13) 
86.95662959732924

>  <Genealogy>  (13) 
COc1ccc(S(=O)(=O)N2CCOCC2)cc1-c1nc(CNC(C)=O)c(C)o1 (3D coordinates assigned)
COc1ccc(S(=O)(=O)N2CCOCC2)cc1-c1nc(CNC(C)=O)c(C)o1 (nonaromatic ring conformer: 86.95662959732924 kcal/mol)

>  <smiles>  (13) 
COc1ccc(S(=O)(=O)N2CCOCC2)cc1-c1nc(CNC(C)=O)c(C)o1

>  <score_type>  (13) 
oracle

>  <origin>  (13) 
adg

>  <m_score__min__energy>  (13) 
-8.5

>  <m_primary>  (13) 
energy

$$$$
13:0
     RDKit          3D

 40 43  0  0  0  0  0  0  0  0999 V2000
   58.7707   36.0133   44.9626 H   0  0  0  0  0  0  0  0  0  0  0  0
   58.8950   35.0070   45.3890 C   0  0  0  0  0  0  0  0  0  0  0  0
   59.6380   34.8350   46.5100 N   0  0  0  0  0  0  0  0  0  0  0  0
   59.8310   33.6150   47.0830 C   0  0  0  0  0  0  0  0  0  0  0  0
   60.6270   33.5580   48.3270 C   0  0  0  0  0  0  0  0  0  0  0  0
   60.0320   33.8320   49.5660 C   0  0  0  0  0  0  0  0  0  0  0  0
   58.9581   34.0644   49.6190 H   0  0  0  0  0  0  0  0  0  0  0  0
   60.7970   33.8110   50.7320 C   0  0  0  0  0  0  0  0  0  0  0  0
   60.3200   34.0187   51.7012 H   0  0  0  0  0  0  0  0  0  0  0  0
   62.1660   33.5280   50.6790 C   0  0  0  0  0  0  0  0  0  0  0  0
   63.0670   33.5180   52.1920 Cl  0  0  0  0  0  0  0  0  0  0  0  0
   62.7880   33.2710   49.4350 C   0  0  0  0  0  0  0  0  0  0  0  0
   64.2700   32.9750   49.3600 C   0  0  0  0  0  0  0  0  0  0  0  0
   64.9590   33.8310   50.2020 F   0  0  0  0  0  0  0  0  0  0  0  0
   64.7650   33.1380   48.0780 F   0  0  0  0  0  0  0  0  0  0  0  0
   64.5030   31.6680   49.7510 F   0  0  0  0  0  0  0  0  0  0  0  0
   62.0040   33.2970   48.2640 C   0  0  0  0  0  0  0  0  0  0  0  0
   62.4776   33.1104   47.2889 H   0  0  0  0  0  0  0  0  0  0  0  0
   59.2630   32.4650   46.4770 C   0  0  0  0  0  0  0  0  0  0  0  0
   59.4790   31.1620   46.9710 C   0  0  0  0  0  0  0  0  0  0  0  0
   60.1138   31.0119   47.8567 H   0  0  0  0  0  0  0  0  0  0  0  0
   58.8920   30.0600   46.3430 C   0  0  0  0  0  0  0  0  0  0  0  0
   59.0558   29.0500   46.7469 H   0  0  0  0  0  0  0  0  0  0  0  0
   58.0980   30.2320   45.2050 C   0  0  0  0  0  0  0  0  0  0  0  0
   57.3480   28.8410   44.4290 S   0  0  0  0  0  0  0  0  0  0  0  0
   58.4140   27.9650   43.8300 O   0  0  0  0  0  0  0  0  0  0  0  0
   56.4250   29.3120   43.3410 O   0  0  0  0  0  0  0  0  0  0  0  0
   56.4550   27.9510   45.6200 N   0  0  0  0  0  0  0  0  0  0  0  0
   56.2870   26.6640   45.5970 C   0  0  0  0  0  0  0  0  0  0  0  0
   55.1240   26.0840   45.9570 N   0  0  0  0  0  0  0  0  0  0  0  0
   55.1830   24.7300   45.8540 C   0  0  0  0  0  0  0  0  0  0  0  0
   54.3328   24.0779   46.1030 H   0  0  0  0  0  0  0  0  0  0  0  0
   56.4030   24.2350   45.4090 C   0  0  0  0  0  0  0  0  0  0  0  0
   56.8360   22.3970   45.1480 Br  0  0  0  0  0  0  0  0  0  0  0  0
   57.4450   25.5240   45.1340 S   0  0  0  0  0  0  0  0  0  0  0  0
   57.8870   31.5180   44.6930 C   0  0  0  0  0  0  0  0  0  0  0  0
   57.2590   31.6549   43.8003 H   0  0  0  0  0  0  0  0  0  0  0  0
   58.4720   32.6330   45.3120 C   0  0  0  0  0  0  0  0  0  0  0  0
   58.2880   33.9120   44.7750 C   0  0  0  0  0  0  0  0  0  0  0  0
   57.6697   34.0525   43.8761 H   0  0  0  0  0  0  0  0  0  0  0  0
  1  2  1  0
  2  3  2  0
  3  4  1  0
  4  5  1  0
  5  6  2  0
  6  7  1  0
  6  8  1  0
  8  9  1  0
  8 10  2  0
 10 11  1  0
 10 12  1  0
 12 13  1  0
 13 14  1  0
 13 15  1  0
 13 16  1  0
 12 17  2  0
 17 18  1  0
  4 19  2  0
 19 20  1  0
 20 21  1  0
 20 22  2  0
 22 23  1  0
 22 24  1  0
 24 25  1  0
 25 26  2  0
 25 27  2  0
 25 28  1  0
 28 29  2  0
 29 30  1  0
 30 31  1  0
 31 32  1  0
 31 33  2  0
 33 34  1  0
 33 35  1  0
 24 36  2  0
 36 37  1  0
 36 38  1  0
 38 39  2  0
 39 40  1  0
 39  2  1  0
 17  5  1  0
 38 19  1  0
 35 29  1  0
M  CHG  1  30  -1
M  END
>  <UniqueID>  (14) 
13

>  <SMILES>  (14) 
O=S(=O)(/N=c1/[n-]cc(Br)s1)c1ccc2c(-c3ccc(Cl)c(C(F)(F)F)c3)nccc2c1

>  <Energy>  (14) 
94.07700306677685

>  <Genealogy>  (14) 
O=S(=O)(N=c1[n-]cc(Br)s1)c1ccc2c(-c3ccc(Cl)c(C(F)(F)F)c3)nccc2c1 (protonated)
O=S(=O)(/N=c1/[n-]cc(Br)s1)c1ccc2c(-c3ccc(Cl)c(C(F)(F)F)c3)nccc2c1 (cis-trans isomerization)
O=S(=O)(/N=c1/[n-]cc(Br)s1)c1ccc2c(-c3ccc(Cl)c(C(F)(F)F)c3)nccc2c1 (3D coordinates assigned)
O=S(=O)(/N=c1/[n-]cc(Br)s1)c1ccc2c(-c3ccc(Cl)c(C(F)(F)F)c3)nccc2c1 (optimized conformer: 94.07700306677685 kcal/mol)

>  <smiles>  (14) 
O=S(=O)(N=c1[nH]cc(Br)s1)c1ccc2c(-c3ccc(Cl)c(C(F)(F)F)c3)nccc2c1

>  <score_type>  (14) 
oracle

>  <origin>  (14) 
adg

>  <m_score__min__energy>  (14) 
-12.720000000000001

>  <m_primary>  (14) 
energy

$$$$
14:0
     RDKit          3D

 55 58  0  0  0  0  0  0  0  0999 V2000
   57.9720   32.7860   43.9860 C   0  0  0  0  0  0  0  0  0  0  0  0
   58.1830   33.9140   44.9400 C   0  0  0  0  0  0  0  0  0  0  0  0
   57.2130   34.3500   45.6160 O   0  0  0  0  0  0  0  0  0  0  0  0
   59.4790   34.5110   45.0520 N   0  0  0  0  0  0  0  0  0  0  0  0
   60.0500   35.0090   46.3000 C   0  0  0  0  0  0  0  0  0  0  0  0
   60.4020   33.8420   47.2390 C   0  0  1  0  0  0  0  0  0  0  0  0
   61.3430   34.2320   48.3830 C   0  0  0  0  0  0  0  0  0  0  0  0
   60.9730   33.3110   49.5380 C   0  0  0  0  0  0  0  0  0  0  0  0
   59.6260   32.8430   49.2450 N   0  0  0  0  0  0  0  0  0  0  0  0
   58.8120   32.0730   50.1500 C   0  0  0  0  0  0  0  0  0  0  0  0
   59.0070   30.6910   50.3150 C   0  0  0  0  0  0  0  0  0  0  0  0
   58.1950   29.9810   51.2010 C   0  0  0  0  0  0  0  0  0  0  0  0
   57.1960   30.6450   51.9210 C   0  0  0  0  0  0  0  0  0  0  0  0
   56.1560   29.7690   53.0340 S   0  0  0  0  0  0  0  0  0  0  0  0
   56.3390   30.2890   54.4320 O   0  0  0  0  0  0  0  0  0  0  0  0
   56.5230   28.3120   52.9900 O   0  0  0  0  0  0  0  0  0  0  0  0
   54.5020   29.9860   52.5580 N   0  0  0  0  0  0  0  0  0  0  0  0
   53.4660   29.0530   52.8820 C   0  0  0  0  0  0  0  0  0  0  0  0
   53.8360   27.8130   53.4200 C   0  0  0  0  0  0  0  0  0  0  0  0
   52.8620   26.9010   53.8320 C   0  0  0  0  0  0  0  0  0  0  0  0
   51.5090   27.2200   53.7080 C   0  0  0  0  0  0  0  0  0  0  0  0
   51.1260   28.4400   53.1450 C   0  0  0  0  0  0  0  0  0  0  0  0
   52.0950   29.3540   52.7020 C   0  0  0  0  0  0  0  0  0  0  0  0
   51.6420   30.5800   52.0160 C   0  0  0  0  0  0  0  0  0  0  0  0
   51.5950   30.7060   50.6780 N   0  0  0  0  0  0  0  0  0  0  0  0
   51.1720   31.9730   50.4990 C   0  0  0  0  0  0  0  0  0  0  0  0
   50.9870   32.4730   49.3590 O   0  0  0  0  0  0  0  0  0  0  0  0
   50.9650   32.6650   51.6390 N   0  0  0  0  0  0  0  0  0  0  0  0
   51.2810   31.7800   52.6000 C   0  0  0  0  0  0  0  0  0  0  0  0
   51.2280   32.0980   54.0610 C   0  0  0  0  0  0  0  0  0  0  0  0
   57.0220   32.0190   51.7250 C   0  0  0  0  0  0  0  0  0  0  0  0
   57.8240   32.6920   50.8570 N   0  0  0  0  0  0  0  0  0  0  0  0
   59.1690   33.2560   47.9280 C   0  0  0  0  0  0  0  0  0  0  0  0
   57.7983   31.8572   44.5491 H   0  0  0  0  0  0  0  0  0  0  0  0
   57.0983   32.9998   43.3528 H   0  0  0  0  0  0  0  0  0  0  0  0
   58.8639   32.6695   43.3528 H   0  0  0  0  0  0  0  0  0  0  0  0
   60.9626   35.5812   46.0769 H   0  0  0  0  0  0  0  0  0  0  0  0
   59.3089   35.6524   46.7968 H   0  0  0  0  0  0  0  0  0  0  0  0
   60.8849   33.1191   46.5651 H   0  0  0  0  0  0  0  0  0  0  0  0
   62.3918   34.0789   48.0887 H   0  0  0  0  0  0  0  0  0  0  0  0
   61.2408   35.2929   48.6550 H   0  0  0  0  0  0  0  0  0  0  0  0
   61.6714   32.4629   49.5926 H   0  0  0  0  0  0  0  0  0  0  0  0
   61.0234   33.8300   50.5065 H   0  0  0  0  0  0  0  0  0  0  0  0
   59.7948   30.1719   49.7493 H   0  0  0  0  0  0  0  0  0  0  0  0
   58.3407   28.8987   51.3332 H   0  0  0  0  0  0  0  0  0  0  0  0
   54.9011   27.5563   53.5184 H   0  0  0  0  0  0  0  0  0  0  0  0
   53.1614   25.9305   54.2546 H   0  0  0  0  0  0  0  0  0  0  0  0
   50.7432   26.5101   54.0539 H   0  0  0  0  0  0  0  0  0  0  0  0
   50.0582   28.6859   53.0482 H   0  0  0  0  0  0  0  0  0  0  0  0
   51.3815   31.1770   54.6425 H   0  0  0  0  0  0  0  0  0  0  0  0
   52.0177   32.8231   54.3073 H   0  0  0  0  0  0  0  0  0  0  0  0
   50.2458   32.5278   54.3073 H   0  0  0  0  0  0  0  0  0  0  0  0
   56.2348   32.5563   52.2741 H   0  0  0  0  0  0  0  0  0  0  0  0
   58.7866   32.3922   47.3644 H   0  0  0  0  0  0  0  0  0  0  0  0
   58.3476   33.9851   47.9887 H   0  0  0  0  0  0  0  0  0  0  0  0
  1  2  1  0
  2  3  2  0
  2  4  1  0
  4  5  1  0
  5  6  1  0
  6  7  1  0
  7  8  1  0
  8  9  1  0
  9 10  1  0
 10 11  2  0
 11 12  1  0
 12 13  2  0
 13 14  1  0
 14 15  2  0
 14 16  2  0
 14 17  1  0
 17 18  1  0
 18 19  2  0
 19 20  1  0
 20 21  2  0
 21 22  1  0
 22 23  2  0
 23 24  1  0
 24 25  1  0
 25 26  1  0
 26 27  2  0
 26 28  1  0
 28 29  1  0
 29 30  1  0
 13 31  1  0
 31 32  2  0
  9 33  1  0
 33  6  1  0
 32 10  1  0
 23 18  1  0
 29 24  2  0
  1 34  1  0
  1 35  1  0
  1 36  1  0
  5 37  1  0
  5 38  1  0
  6 39  1  6
  7 40  1  0
  7 41  1  0
  8 42  1  0
  8 43  1  0
 11 44  1  0
 12 45  1  0
 19 46  1  0
 20 47  1  0
 21 48  1  0
 22 49  1  0
 30 50  1  0
 30 51  1  0
 30 52  1  0
 31 53  1  0
 33 54  1  0
 33 55  1  0
M  CHG  4   4  -1  17  -1  25  -1  28  -1
M  END
>  <UniqueID>  (15) 
14

>  <SMILES>  (15) 
CC(=O)[N-]C[C@H]1CCN(c2ccc(S(=O)(=O)[N-]c3ccccc3-c3[n-]c(=O)[n-]c3C)cn2)C1

>  <Energy>  (15) 
97.59130989459325

>  <Genealogy>  (15) 
CC(=O)[N-]CC1CCN(c2ccc(S(=O)(=O)[N-]c3ccccc3-c3[n-]c(=O)[n-]c3C)cn2)C1 (protonated)
CC(=O)[N-]C[C@H]1CCN(c2ccc(S(=O)(=O)[N-]c3ccccc3-c3[n-]c(=O)[n-]c3C)cn2)C1 (chirality)
CC(=O)[N-]C[C@H]1CCN(c2ccc(S(=O)(=O)[N-]c3ccccc3-c3[n-]c(=O)[n-]c3C)cn2)C1 (3D coordinates assigned)
CC(=O)[N-]C[C@H]1CCN(c2ccc(S(=O)(=O)[N-]c3ccccc3-c3[n-]c(=O)[n-]c3C)cn2)C1 (nonaromatic ring conformer: 97.59130989459325 kcal/mol)

>  <smiles>  (15) 
CC(=O)NCC1CCN(c2ccc(S(=O)(=O)Nc3ccccc3-c3[nH]c(=O)[nH]c3C)cn2)C1

>  <score_type>  (15) 
oracle

>  <origin>  (15) 
adg

>  <m_score__min__energy>  (15) 
-15.19

>  <m_primary>  (15) 
energy

$$$$
15:0
     RDKit          3D

 50 53  0  0  0  0  0  0  0  0999 V2000
   55.0690   26.4770   46.2550 N   0  0  0  0  0  0  0  0  0  0  0  0
   55.5600   25.3810   45.7660 C   0  0  0  0  0  0  0  0  0  0  0  0
   54.7760   24.2700   45.7050 N   0  0  0  0  0  0  0  0  0  0  0  0
   55.2240   23.0970   45.1890 C   0  0  0  0  0  0  0  0  0  0  0  0
   56.5260   23.0000   44.7030 C   0  0  0  0  0  0  0  0  0  0  0  0
   57.3570   24.1190   44.7480 C   0  0  0  0  0  0  0  0  0  0  0  0
   56.8890   25.3360   45.2780 C   0  0  0  0  0  0  0  0  0  0  0  0
   57.7870   26.5200   45.3380 C   0  0  0  0  0  0  0  0  0  0  0  0
   59.1700   26.3780   45.5450 C   0  0  0  0  0  0  0  0  0  0  0  0
   59.9760   27.5160   45.6100 C   0  0  0  0  0  0  0  0  0  0  0  0
   59.4090   28.7820   45.4630 C   0  0  0  0  0  0  0  0  0  0  0  0
   58.0320   28.8930   45.2380 C   0  0  0  0  0  0  0  0  0  0  0  0
   57.4010   30.2140   45.0820 C   0  0  0  0  0  0  0  0  0  0  0  0
   56.2790   30.2780   44.5070 O   0  0  0  0  0  0  0  0  0  0  0  0
   58.0550   31.4330   45.5180 N   0  0  0  0  0  0  0  0  0  0  0  0
   58.1510   31.4730   46.9950 C   0  0  0  0  0  0  0  0  0  0  0  0
   58.5390   32.8690   47.5330 C   0  0  0  0  0  0  0  0  0  0  0  0
   59.0200   33.7450   46.4580 N   0  0  0  0  0  0  0  0  0  0  0  0
   60.0980   34.6650   46.6990 C   0  0  0  0  0  0  0  0  0  0  0  0
   59.9480   35.8810   46.4040 O   0  0  0  0  0  0  0  0  0  0  0  0
   61.3910   34.2010   47.2550 C   0  0  0  0  0  0  0  0  0  0  0  0
   62.4260   33.7790   46.4010 C   0  0  0  0  0  0  0  0  0  0  0  0
   63.6490   33.3550   46.9290 C   0  0  0  0  0  0  0  0  0  0  0  0
   63.8540   33.3560   48.3100 C   0  0  0  0  0  0  0  0  0  0  0  0
   62.8370   33.7850   49.1690 C   0  0  0  0  0  0  0  0  0  0  0  0
   63.0990   33.7890   50.9030 Cl  0  0  0  0  0  0  0  0  0  0  0  0
   61.6110   34.2100   48.6440 C   0  0  0  0  0  0  0  0  0  0  0  0
   58.2270   33.8810   45.2300 C   0  0  0  0  0  0  0  0  0  0  0  0
   57.3680   32.6300   44.9900 C   0  0  0  0  0  0  0  0  0  0  0  0
   57.2650   27.7710   45.1950 N   0  0  0  0  0  0  0  0  0  0  0  0
   55.6850   27.2580   46.5740 H   0  0  0  0  0  0  0  0  0  0  0  0
   54.5582   22.2221   45.1546 H   0  0  0  0  0  0  0  0  0  0  0  0
   56.8948   22.0504   44.2880 H   0  0  0  0  0  0  0  0  0  0  0  0
   58.3863   24.0500   44.3663 H   0  0  0  0  0  0  0  0  0  0  0  0
   59.6139   25.3776   45.6550 H   0  0  0  0  0  0  0  0  0  0  0  0
   61.0585   27.4143   45.7772 H   0  0  0  0  0  0  0  0  0  0  0  0
   60.0371   29.6831   45.5232 H   0  0  0  0  0  0  0  0  0  0  0  0
   59.0280   31.4210   45.1300 H   0  0  0  0  0  0  0  0  0  0  0  0
   57.1753   31.1921   47.4182 H   0  0  0  0  0  0  0  0  0  0  0  0
   58.9433   30.7711   47.2942 H   0  0  0  0  0  0  0  0  0  0  0  0
   57.6567   33.3294   48.0015 H   0  0  0  0  0  0  0  0  0  0  0  0
   59.3503   32.7435   48.2651 H   0  0  0  0  0  0  0  0  0  0  0  0
   62.2722   33.7826   45.3118 H   0  0  0  0  0  0  0  0  0  0  0  0
   64.4513   33.0200   46.2551 H   0  0  0  0  0  0  0  0  0  0  0  0
   64.8163   33.0191   48.7229 H   0  0  0  0  0  0  0  0  0  0  0  0
   60.8152   34.5529   49.3216 H   0  0  0  0  0  0  0  0  0  0  0  0
   57.5688   34.7575   45.3217 H   0  0  0  0  0  0  0  0  0  0  0  0
   58.9143   34.0035   44.3799 H   0  0  0  0  0  0  0  0  0  0  0  0
   56.4010   32.7493   45.5006 H   0  0  0  0  0  0  0  0  0  0  0  0
   57.2077   32.5054   43.9089 H   0  0  0  0  0  0  0  0  0  0  0  0
  1  2  2  3
  2  3  1  0
  3  4  1  0
  4  5  2  0
  5  6  1  0
  6  7  2  0
  7  8  1  0
  8  9  2  0
  9 10  1  0
 10 11  2  0
 11 12  1  0
 12 13  1  0
 13 14  2  0
 13 15  1  0
 15 16  1  0
 16 17  1  0
 17 18  1  0
 18 19  1  0
 19 20  2  0
 19 21  1  0
 21 22  2  0
 22 23  1  0
 23 24  2  0
 24 25  1  0
 25 26  1  0
 25 27  2  0
 18 28  1  0
 28 29  1  0
 12 30  2  0
  7  2  1  0
 30  8  1  0
 29 15  1  0
 27 21  1  0
  1 31  1  0
  4 32  1  0
  5 33  1  0
  6 34  1  0
  9 35  1  0
 10 36  1  0
 11 37  1  0
 15 38  1  0
 16 39  1  0
 16 40  1  0
 17 41  1  0
 17 42  1  0
 22 43  1  0
 23 44  1  0
 24 45  1  0
 27 46  1  0
 28 47  1  0
 28 48  1  0
 29 49  1  0
 29 50  1  0
M  CHG  2   3  -1  15   1
M  END
>  <UniqueID>  (16) 
15

>  <SMILES>  (16) 
N=c1[n-]cccc1-c1cccc(C(=O)[NH+]2CCN(C(=O)c3cccc(Cl)c3)CC2)n1

>  <Energy>  (16) 
80.46015902867222

>  <Genealogy>  (16) 
N=c1[n-]cccc1-c1cccc(C(=O)[NH+]2CCN(C(=O)c3cccc(Cl)c3)CC2)n1 (protonated)
N=c1[n-]cccc1-c1cccc(C(=O)[NH+]2CCN(C(=O)c3cccc(Cl)c3)CC2)n1 (3D coordinates assigned)
N=c1[n-]cccc1-c1cccc(C(=O)[NH+]2CCN(C(=O)c3cccc(Cl)c3)CC2)n1 (nonaromatic ring conformer: 80.46015902867222 kcal/mol)

>  <smiles>  (16) 
N=c1[nH]cccc1-c1cccc(C(=O)N2CCN(C(=O)c3cccc(Cl)c3)CC2)n1

>  <score_type>  (16) 
oracle

>  <origin>  (16) 
adg

>  <m_score__min__energy>  (16) 
-11.460000000000001

>  <m_primary>  (16) 
energy

$$$$
16:0
     RDKit          3D

 38 39  0  0  0  0  0  0  0  0999 V2000
   58.9019   32.5120   47.8938 H   0  0  0  0  0  0  0  0  0  0  0  0
   58.9660   32.8470   46.8480 C   0  0  0  0  0  0  0  0  0  0  0  0
   58.7200   34.2780   46.5830 C   0  0  0  0  0  0  0  0  0  0  0  0
   57.9970   34.6000   45.6030 O   0  0  0  0  0  0  0  0  0  0  0  0
   59.3410   35.3050   47.3600 N   0  0  0  0  0  0  0  0  0  0  0  0
   60.0800   35.0810   48.0610 H   0  0  0  0  0  0  0  0  0  0  0  0
   59.1110   36.3080   47.1810 H   0  0  0  0  0  0  0  0  0  0  0  0
   59.2610   31.9190   45.9250 C   0  0  0  0  0  0  0  0  0  0  0  0
   60.3241   31.6787   45.7761 H   0  0  0  0  0  0  0  0  0  0  0  0
   58.2790   31.1900   45.0890 C   0  0  0  0  0  0  0  0  0  0  0  0
   58.0200   31.6460   43.7900 C   0  0  0  0  0  0  0  0  0  0  0  0
   58.5506   32.5289   43.4040 H   0  0  0  0  0  0  0  0  0  0  0  0
   57.0910   30.9850   42.9820 C   0  0  0  0  0  0  0  0  0  0  0  0
   56.9062   31.3371   41.9564 H   0  0  0  0  0  0  0  0  0  0  0  0
   56.3970   29.8780   43.4750 C   0  0  0  0  0  0  0  0  0  0  0  0
   55.6842   29.3473   42.8268 H   0  0  0  0  0  0  0  0  0  0  0  0
   56.6020   29.4390   44.7880 C   0  0  0  0  0  0  0  0  0  0  0  0
   55.8830   28.2850   45.2480 N   0  0  0  0  0  0  0  0  0  0  0  0
   56.4570   27.0590   45.7150 C   0  0  0  0  0  0  0  0  0  0  0  0
   55.8940   26.3990   46.6310 O   0  0  0  0  0  0  0  0  0  0  0  0
   57.6700   26.5210   45.0590 C   0  0  0  0  0  0  0  0  0  0  0  0
   58.9110   26.9380   45.3750 C   0  0  0  0  0  0  0  0  0  0  0  0
   59.7266   26.6600   44.6912 H   0  0  0  0  0  0  0  0  0  0  0  0
   59.2670   27.7390   46.5660 C   0  0  0  0  0  0  0  0  0  0  0  0
   60.4770   28.3660   46.8150 C   0  0  0  0  0  0  0  0  0  0  0  0
   61.3414   28.4243   46.1372 H   0  0  0  0  0  0  0  0  0  0  0  0
   60.3820   28.9030   48.0830 C   0  0  0  0  0  0  0  0  0  0  0  0
   61.1531   29.4836   48.6105 H   0  0  0  0  0  0  0  0  0  0  0  0
   59.1300   28.5690   48.5600 C   0  0  0  0  0  0  0  0  0  0  0  0
   58.7366   28.8485   49.5485 H   0  0  0  0  0  0  0  0  0  0  0  0
   58.4620   27.8520   47.6390 N   0  0  0  0  0  0  0  0  0  0  0  0
   57.5030   27.4520   47.7450 H   0  0  0  0  0  0  0  0  0  0  0  0
   57.5200   25.3610   44.1130 C   0  0  0  0  0  0  0  0  0  0  0  0
   57.3998   24.4315   44.6888 H   0  0  0  0  0  0  0  0  0  0  0  0
   56.6345   25.5168   43.4792 H   0  0  0  0  0  0  0  0  0  0  0  0
   58.4160   25.2865   43.4792 H   0  0  0  0  0  0  0  0  0  0  0  0
   57.5480   30.0980   45.5940 C   0  0  0  0  0  0  0  0  0  0  0  0
   57.7178   29.7577   46.6262 H   0  0  0  0  0  0  0  0  0  0  0  0
  1  2  1  0
  2  3  1  0
  3  4  2  0
  3  5  1  0
  5  6  1  0
  5  7  1  0
  2  8  2  3
  8  9  1  0
  8 10  1  0
 10 11  2  0
 11 12  1  0
 11 13  1  0
 13 14  1  0
 13 15  2  0
 15 16  1  0
 15 17  1  0
 17 18  1  0
 18 19  1  0
 19 20  2  0
 19 21  1  0
 21 22  2  0
 22 23  1  0
 22 24  1  0
 24 25  2  0
 25 26  1  0
 25 27  1  0
 27 28  1  0
 27 29  2  0
 29 30  1  0
 29 31  1  0
 31 32  1  0
 21 33  1  0
 33 34  1  0
 33 35  1  0
 33 36  1  0
 17 37  2  0
 37 38  1  0
 37 10  1  0
 31 24  1  0
M  CHG  1  18  -1
M  END
>  <UniqueID>  (17) 
16

>  <SMILES>  (17) 
C/C(=C/c1ccc[nH]1)C(=O)[N-]c1cccc(C=CC(N)=O)c1

>  <Energy>  (17) 
79.22680065212629

>  <Genealogy>  (17) 
CC(=Cc1ccc[nH]1)C(=O)[N-]c1cccc(C=CC(N)=O)c1 (protonated)
C/C(=C/c1ccc[nH]1)C(=O)[N-]c1cccc(C=CC(N)=O)c1 (cis-trans isomerization)
C/C(=C/c1ccc[nH]1)C(=O)[N-]c1cccc(C=CC(N)=O)c1 (3D coordinates assigned)
C/C(=C/c1ccc[nH]1)C(=O)[N-]c1cccc(C=CC(N)=O)c1 (optimized conformer: 79.22680065212629 kcal/mol)

>  <smiles>  (17) 
CC(=Cc1ccc[nH]1)C(=O)Nc1cccc(C=CC(N)=O)c1

>  <score_type>  (17) 
oracle

>  <origin>  (17) 
adg

>  <m_score__min__energy>  (17) 
-9.9600000000000009

>  <m_primary>  (17) 
energy

$$$$
17:0
     RDKit          3D

 41 43  0  0  0  0  0  0  0  0999 V2000
   58.1130   26.0930   44.6530 C   0  0  0  0  0  0  0  0  0  0  0  0
   57.7140   27.1080   45.4300 C   0  0  0  0  0  0  0  0  0  0  0  0
   56.2680   27.3900   45.6110 C   0  0  0  0  0  0  0  0  0  0  0  0
   55.5110   26.5190   46.1210 O   0  0  0  0  0  0  0  0  0  0  0  0
   55.7400   28.6700   45.2350 N   0  0  0  0  0  0  0  0  0  0  0  0
   56.4090   29.6810   44.4690 C   0  0  0  0  0  0  0  0  0  0  0  0
   56.2420   29.7970   43.0760 C   0  0  0  0  0  0  0  0  0  0  0  0
   56.9330   30.7820   42.3660 C   0  0  0  0  0  0  0  0  0  0  0  0
   57.8040   31.6480   43.0310 C   0  0  0  0  0  0  0  0  0  0  0  0
   57.9950   31.5240   44.4130 C   0  0  0  0  0  0  0  0  0  0  0  0
   58.8670   32.3750   45.0880 O   0  0  0  0  0  0  0  0  0  0  0  0
   57.3040   30.5380   45.1250 C   0  0  0  0  0  0  0  0  0  0  0  0
   58.7280   27.9590   46.1040 C   0  0  0  0  0  0  0  0  0  0  0  0
   58.5560   28.3430   47.4450 C   0  0  0  0  0  0  0  0  0  0  0  0
   59.5070   29.1470   48.0790 C   0  0  0  0  0  0  0  0  0  0  0  0
   60.6390   29.5880   47.3850 C   0  0  0  0  0  0  0  0  0  0  0  0
   61.5760   30.3840   48.0620 O   0  0  0  0  0  0  0  0  0  0  0  0
   62.0530   31.6270   47.6250 C   0  0  0  0  0  0  0  0  0  0  0  0
   63.4290   31.9170   47.5580 C   0  0  0  0  0  0  0  0  0  0  0  0
   63.8640   33.1640   47.1030 C   0  0  0  0  0  0  0  0  0  0  0  0
   62.9350   34.1260   46.6980 C   0  0  0  0  0  0  0  0  0  0  0  0
   61.5680   33.8370   46.7420 C   0  0  0  0  0  0  0  0  0  0  0  0
   61.1290   32.5900   47.1970 C   0  0  0  0  0  0  0  0  0  0  0  0
   60.8290   29.1860   46.0530 C   0  0  0  0  0  0  0  0  0  0  0  0
   59.8790   28.3820   45.4160 C   0  0  0  0  0  0  0  0  0  0  0  0
   59.1860   25.8889   44.5227 H   0  0  0  0  0  0  0  0  0  0  0  0
   57.3677   25.4633   44.1450 H   0  0  0  0  0  0  0  0  0  0  0  0
   55.5659   29.1105   42.5453 H   0  0  0  0  0  0  0  0  0  0  0  0
   56.7906   30.8759   41.2793 H   0  0  0  0  0  0  0  0  0  0  0  0
   58.3399   32.4274   42.4694 H   0  0  0  0  0  0  0  0  0  0  0  0
   59.8090   32.0870   45.3270 H   0  0  0  0  0  0  0  0  0  0  0  0
   57.4641   30.4341   46.2083 H   0  0  0  0  0  0  0  0  0  0  0  0
   57.6667   28.0084   47.9993 H   0  0  0  0  0  0  0  0  0  0  0  0
   59.3646   29.4352   49.1310 H   0  0  0  0  0  0  0  0  0  0  0  0
   64.1644   31.1588   47.8651 H   0  0  0  0  0  0  0  0  0  0  0  0
   64.9400   33.3891   47.0634 H   0  0  0  0  0  0  0  0  0  0  0  0
   63.2789   35.1094   46.3450 H   0  0  0  0  0  0  0  0  0  0  0  0
   60.8365   34.5920   46.4181 H   0  0  0  0  0  0  0  0  0  0  0  0
   60.0528   32.3635   47.2192 H   0  0  0  0  0  0  0  0  0  0  0  0
   61.7297   29.5052   45.5081 H   0  0  0  0  0  0  0  0  0  0  0  0
   60.0330   28.0784   44.3700 H   0  0  0  0  0  0  0  0  0  0  0  0
  1  2  2  0
  2  3  1  0
  3  4  2  0
  3  5  1  0
  5  6  1  0
  6  7  2  0
  7  8  1  0
  8  9  2  0
  9 10  1  0
 10 11  1  0
 10 12  2  0
  2 13  1  0
 13 14  2  0
 14 15  1  0
 15 16  2  0
 16 17  1  0
 17 18  1  0
 18 19  2  0
 19 20  1  0
 20 21  2  0
 21 22  1  0
 22 23  2  0
 16 24  1  0
 24 25  2  0
 12  6  1  0
 25 13  1  0
 23 18  1  0
  1 26  1  0
  1 27  1  0
  7 28  1  0
  8 29  1  0
  9 30  1  0
 11 31  1  0
 12 32  1  0
 14 33  1  0
 15 34  1  0
 19 35  1  0
 20 36  1  0
 21 37  1  0
 22 38  1  0
 23 39  1  0
 24 40  1  0
 25 41  1  0
M  CHG  1   5  -1
M  END
>  <UniqueID>  (18) 
17

>  <SMILES>  (18) 
C=C(C(=O)[N-]c1cccc(O)c1)c1ccc(Oc2ccccc2)cc1

>  <Energy>  (18) 
58.462526937763364

>  <Genealogy>  (18) 
C=C(C(=O)[N-]c1cccc(O)c1)c1ccc(Oc2ccccc2)cc1 (protonated)
C=C(C(=O)[N-]c1cccc(O)c1)c1ccc(Oc2ccccc2)cc1 (3D coordinates assigned)
C=C(C(=O)[N-]c1cccc(O)c1)c1ccc(Oc2ccccc2)cc1 (optimized conformer: 58.462526937763364 kcal/mol)

>  <smiles>  (18) 
C=C(C(=O)Nc1cccc(O)c1)c1ccc(Oc2ccccc2)cc1

>  <score_type>  (18) 
oracle

>  <origin>  (18) 
adg

>  <m_score__min__energy>  (18) 
-10.76

>  <m_primary>  (18) 
energy

$$$$
18:0
     RDKit          3D

 63 66  0  0  0  0  0  0  0  0999 V2000
   59.1620   34.0090   51.5020 C   0  0  0  0  0  0  0  0  0  0  0  0
   60.3040   33.7790   50.6250 N   0  0  0  0  0  0  0  0  0  0  0  0
   61.5030   33.4180   51.0560 N   0  0  0  0  0  0  0  0  0  0  0  0
   62.3050   33.2740   49.9740 C   0  0  0  0  0  0  0  0  0  0  0  0
   63.7780   32.9100   50.0310 C   0  0  0  0  0  0  0  0  0  0  0  0
   63.9580   31.4380   50.4550 C   0  0  0  0  0  0  0  0  0  0  0  0
   64.4850   33.8210   51.0540 C   0  0  0  0  0  0  0  0  0  0  0  0
   64.4100   33.1090   48.6410 C   0  0  0  0  0  0  0  0  0  0  0  0
   61.5870   33.5560   48.8190 C   0  0  0  0  0  0  0  0  0  0  0  0
   60.3190   33.8600   49.2800 C   0  0  0  0  0  0  0  0  0  0  0  0
   59.2940   34.2430   48.5670 N   0  0  0  0  0  0  0  0  0  0  0  0
   59.3290   34.5080   47.1580 C   0  0  0  0  0  0  0  0  0  0  0  0
   59.8680   35.5700   46.7480 O   0  0  0  0  0  0  0  0  0  0  0  0
   58.7000   33.5900   46.1870 C   0  0  0  0  0  0  0  0  0  0  0  0
   58.3930   34.0310   44.8930 C   0  0  0  0  0  0  0  0  0  0  0  0
   57.8440   33.1470   43.9630 C   0  0  0  0  0  0  0  0  0  0  0  0
   57.5450   31.8300   44.3290 C   0  0  0  0  0  0  0  0  0  0  0  0
   56.8310   30.7540   43.1350 Cl  0  0  0  0  0  0  0  0  0  0  0  0
   57.7830   31.3930   45.6410 C   0  0  0  0  0  0  0  0  0  0  0  0
   57.4140   30.0600   46.0170 N   0  0  0  0  0  0  0  0  0  0  0  0
   57.8660   28.8550   45.3850 C   0  0  0  0  0  0  0  0  0  0  0  0
   58.8770   28.8750   44.6330 O   0  0  0  0  0  0  0  0  0  0  0  0
   57.1750   27.5850   45.6670 C   0  0  0  0  0  0  0  0  0  0  0  0
   55.8350   27.4550   45.6310 N   0  0  0  0  0  0  0  0  0  0  0  0
   55.6370   26.1540   45.9200 C   0  0  0  0  0  0  0  0  0  0  0  0
   54.4920   25.6360   45.9720 O   0  0  0  0  0  0  0  0  0  0  0  0
   56.7640   25.4470   46.1360 N   0  0  0  0  0  0  0  0  0  0  0  0
   57.7430   26.3570   45.9730 C   0  0  0  0  0  0  0  0  0  0  0  0
   59.2130   26.0580   46.1020 C   0  0  0  0  0  0  0  0  0  0  0  0
   59.9230   27.0410   46.9990 C   0  0  0  0  0  0  0  0  0  0  0  0
   60.7110   27.8750   46.4770 O   0  0  0  0  0  0  0  0  0  0  0  0
   59.8340   26.9870   48.4310 N   0  0  0  0  0  0  0  0  0  0  0  0
   60.2240   28.0080   49.3560 C   0  0  0  0  0  0  0  0  0  0  0  0
   60.9430   27.7040   50.5230 C   0  0  0  0  0  0  0  0  0  0  0  0
   61.2780   28.7190   51.4270 C   0  0  0  0  0  0  0  0  0  0  0  0
   60.8730   30.0350   51.1890 C   0  0  0  0  0  0  0  0  0  0  0  0
   61.2210   31.0370   52.0900 O   0  0  0  0  0  0  0  0  0  0  0  0
   60.1170   30.3320   50.0500 C   0  0  0  0  0  0  0  0  0  0  0  0
   59.7870   29.3190   49.1430 C   0  0  0  0  0  0  0  0  0  0  0  0
   58.3980   32.2680   46.5550 C   0  0  0  0  0  0  0  0  0  0  0  0
   59.4863   33.9437   52.5511 H   0  0  0  0  0  0  0  0  0  0  0  0
   58.7464   35.0089   51.3083 H   0  0  0  0  0  0  0  0  0  0  0  0
   58.3918   33.2479   51.3083 H   0  0  0  0  0  0  0  0  0  0  0  0
   63.9662   31.3711   51.5529 H   0  0  0  0  0  0  0  0  0  0  0  0
   63.1266   30.8376   50.0572 H   0  0  0  0  0  0  0  0  0  0  0  0
   64.9096   31.0556   50.0572 H   0  0  0  0  0  0  0  0  0  0  0  0
   64.2312   33.4940   52.0731 H   0  0  0  0  0  0  0  0  0  0  0  0
   65.5737   33.7589   50.9094 H   0  0  0  0  0  0  0  0  0  0  0  0
   64.1546   34.8602   50.9094 H   0  0  0  0  0  0  0  0  0  0  0  0
   65.4534   33.4376   48.7563 H   0  0  0  0  0  0  0  0  0  0  0  0
   64.3838   32.1591   48.0869 H   0  0  0  0  0  0  0  0  0  0  0  0
   63.8443   33.8725   48.0869 H   0  0  0  0  0  0  0  0  0  0  0  0
   61.9441   33.5410   47.7787 H   0  0  0  0  0  0  0  0  0  0  0  0
   58.5851   35.0763   44.6095 H   0  0  0  0  0  0  0  0  0  0  0  0
   57.6452   33.4876   42.9361 H   0  0  0  0  0  0  0  0  0  0  0  0
   59.3326   25.0477   46.5204 H   0  0  0  0  0  0  0  0  0  0  0  0
   59.6601   26.1347   45.0999 H   0  0  0  0  0  0  0  0  0  0  0  0
   61.2438   26.6659   50.7274 H   0  0  0  0  0  0  0  0  0  0  0  0
   61.8621   28.4797   52.3279 H   0  0  0  0  0  0  0  0  0  0  0  0
   61.2910   32.0060   51.8020 H   0  0  0  0  0  0  0  0  0  0  0  0
   59.7815   31.3635   49.8672 H   0  0  0  0  0  0  0  0  0  0  0  0
   59.1799   29.5555   48.2567 H   0  0  0  0  0  0  0  0  0  0  0  0
   58.6447   31.9140   47.5669 H   0  0  0  0  0  0  0  0  0  0  0  0
  1  2  1  0
  2  3  1  0
  3  4  1  0
  4  5  1  0
  5  6  1  0
  5  7  1  0
  5  8  1  0
  4  9  2  0
  9 10  1  0
 10 11  2  3
 11 12  1  0
 12 13  2  0
 12 14  1  0
 14 15  2  0
 15 16  1  0
 16 17  2  0
 17 18  1  0
 17 19  1  0
 19 20  1  0
 20 21  1  0
 21 22  2  0
 21 23  1  0
 23 24  1  0
 24 25  1  0
 25 26  2  0
 25 27  1  0
 27 28  1  0
 28 29  1  0
 29 30  1  0
 30 31  2  0
 30 32  1  0
 32 33  1  0
 33 34  2  0
 34 35  1  0
 35 36  2  0
 36 37  1  0
 36 38  1  0
 38 39  2  0
 19 40  2  0
 10  2  1  0
 40 14  1  0
 28 23  2  0
 39 33  1  0
  1 41  1  0
  1 42  1  0
  1 43  1  0
  6 44  1  0
  6 45  1  0
  6 46  1  0
  7 47  1  0
  7 48  1  0
  7 49  1  0
  8 50  1  0
  8 51  1  0
  8 52  1  0
  9 53  1  0
 15 54  1  0
 16 55  1  0
 29 56  1  0
 29 57  1  0
 34 58  1  0
 35 59  1  0
 37 60  1  0
 38 61  1  0
 39 62  1  0
 40 63  1  0
M  CHG  5   3  -1  20  -1  24  -1  27  -1  32  -1
M  END
>  <UniqueID>  (19) 
18

>  <SMILES>  (19) 
Cn1[n-]c(C(C)(C)C)cc1=NC(=O)c1ccc(Cl)c([N-]C(=O)c2[n-]c(=O)[n-]c2CC(=O)[N-]c2ccc(O)cc2)c1

>  <Energy>  (19) 
139.10156227323355

>  <Genealogy>  (19) 
Cn1[n-]c(C(C)(C)C)cc1=NC(=O)c1ccc(Cl)c([N-]C(=O)c2[n-]c(=O)[n-]c2CC(=O)[N-]c2ccc(O)cc2)c1 (protonated)
Cn1[n-]c(C(C)(C)C)cc1=NC(=O)c1ccc(Cl)c([N-]C(=O)c2[n-]c(=O)[n-]c2CC(=O)[N-]c2ccc(O)cc2)c1 (3D coordinates assigned)
Cn1[n-]c(C(C)(C)C)cc1=NC(=O)c1ccc(Cl)c([N-]C(=O)c2[n-]c(=O)[n-]c2CC(=O)[N-]c2ccc(O)cc2)c1 (optimized conformer: 139.10156227323355 kcal/mol)

>  <smiles>  (19) 
Cn1[nH]c(C(C)(C)C)cc1=NC(=O)c1ccc(Cl)c(NC(=O)c2[nH]c(=O)[nH]c2CC(=O)Nc2ccc(O)cc2)c1

>  <score_type>  (19) 
oracle

>  <origin>  (19) 
adg

>  <m_score__min__energy>  (19) 
-18.07

>  <m_primary>  (19) 
energy

$$$$
19:0
     RDKit          3D

 49 51  0  0  0  0  0  0  0  0999 V2000
   55.5480   28.6500   45.1540 N   0  0  0  0  0  0  0  0  0  0  0  0
   56.5120   27.7080   45.6250 C   0  0  0  0  0  0  0  0  0  0  0  0
   56.1160   26.5660   45.9810 O   0  0  0  0  0  0  0  0  0  0  0  0
   57.9550   28.0740   45.6940 C   0  0  0  0  0  0  0  0  0  0  0  0
   58.9240   27.0510   45.6490 C   0  0  0  0  0  0  0  0  0  0  0  0
   60.2850   27.3500   45.7210 C   0  0  0  0  0  0  0  0  0  0  0  0
   60.7050   28.6700   45.8490 C   0  0  0  0  0  0  0  0  0  0  0  0
   59.7670   29.7000   45.8910 C   0  0  0  0  0  0  0  0  0  0  0  0
   58.3920   29.4210   45.7860 C   0  0  0  0  0  0  0  0  0  0  0  0
   57.4410   30.4930   45.8610 N   0  0  0  0  0  0  0  0  0  0  0  0
   56.9960   31.3040   44.7650 C   0  0  0  0  0  0  0  0  0  0  0  0
   55.8600   31.0830   44.2700 O   0  0  0  0  0  0  0  0  0  0  0  0
   57.8760   32.3600   44.1400 C   0  0  0  0  0  0  0  0  0  0  0  0
   57.9310   33.6130   44.9230 N   0  0  0  0  0  0  0  0  0  0  0  0
   57.2180   33.5830   46.2220 C   0  0  0  0  0  0  0  0  0  0  0  0
   58.1570   33.6820   47.4320 C   0  0  0  0  0  0  0  0  0  0  0  0
   59.4430   33.0540   47.1050 N   0  0  0  0  0  0  0  0  0  0  0  0
   60.2700   32.7410   48.2920 C   0  0  0  0  0  0  0  0  0  0  0  0
   59.4810   32.6150   49.5800 C   0  0  0  0  0  0  0  0  0  0  0  0
   59.5520   33.6230   50.5560 C   0  0  0  0  0  0  0  0  0  0  0  0
   58.8180   33.5140   51.7400 C   0  0  0  0  0  0  0  0  0  0  0  0
   58.0170   32.3910   51.9680 C   0  0  0  0  0  0  0  0  0  0  0  0
   57.9520   31.3700   51.0100 C   0  0  0  0  0  0  0  0  0  0  0  0
   57.1620   30.2440   51.2280 O   0  0  0  0  0  0  0  0  0  0  0  0
   58.6850   31.4820   49.8230 C   0  0  0  0  0  0  0  0  0  0  0  0
   60.1690   33.8320   46.0820 C   0  0  0  0  0  0  0  0  0  0  0  0
   59.2450   34.2920   44.9340 C   0  0  0  0  0  0  0  0  0  0  0  0
   55.4520   29.5880   45.6020 H   0  0  0  0  0  0  0  0  0  0  0  0
   58.6028   26.0031   45.5559 H   0  0  0  0  0  0  0  0  0  0  0  0
   61.0278   26.5399   45.6764 H   0  0  0  0  0  0  0  0  0  0  0  0
   61.7783   28.9010   45.9171 H   0  0  0  0  0  0  0  0  0  0  0  0
   60.1047   30.7404   46.0073 H   0  0  0  0  0  0  0  0  0  0  0  0
   58.8961   31.9577   44.0527 H   0  0  0  0  0  0  0  0  0  0  0  0
   57.4428   32.6070   43.1595 H   0  0  0  0  0  0  0  0  0  0  0  0
   56.5160   34.4292   46.2546 H   0  0  0  0  0  0  0  0  0  0  0  0
   56.7020   32.6138   46.2883 H   0  0  0  0  0  0  0  0  0  0  0  0
   58.3193   34.7402   47.6848 H   0  0  0  0  0  0  0  0  0  0  0  0
   57.7042   33.1655   48.2912 H   0  0  0  0  0  0  0  0  0  0  0  0
   60.7888   31.7883   48.1101 H   0  0  0  0  0  0  0  0  0  0  0  0
   60.9641   33.5838   48.4263 H   0  0  0  0  0  0  0  0  0  0  0  0
   60.1893   34.5035   50.3871 H   0  0  0  0  0  0  0  0  0  0  0  0
   58.8705   34.3132   52.4940 H   0  0  0  0  0  0  0  0  0  0  0  0
   57.4377   32.3087   52.8995 H   0  0  0  0  0  0  0  0  0  0  0  0
   57.3880   29.3490   50.8080 H   0  0  0  0  0  0  0  0  0  0  0  0
   58.6379   30.6773   49.0745 H   0  0  0  0  0  0  0  0  0  0  0  0
   60.6100   34.7197   46.5590 H   0  0  0  0  0  0  0  0  0  0  0  0
   60.9446   33.1819   45.6511 H   0  0  0  0  0  0  0  0  0  0  0  0
   59.0763   35.3742   45.0358 H   0  0  0  0  0  0  0  0  0  0  0  0
   59.7493   34.0339   43.9911 H   0  0  0  0  0  0  0  0  0  0  0  0
  1  2  1  0
  2  3  2  0
  2  4  1  0
  4  5  2  0
  5  6  1  0
  6  7  2  0
  7  8  1  0
  8  9  2  0
  9 10  1  0
 10 11  1  0
 11 12  2  0
 11 13  1  0
 13 14  1  0
 14 15  1  0
 15 16  1  0
 16 17  1  0
 17 18  1  0
 18 19  1  0
 19 20  2  0
 20 21  1  0
 21 22  2  0
 22 23  1  0
 23 24  1  0
 23 25  2  0
 17 26  1  0
 26 27  1  0
  9  4  1  0
 27 14  1  0
 25 19  1  0
  1 28  1  0
  5 29  1  0
  6 30  1  0
  7 31  1  0
  8 32  1  0
 13 33  1  0
 13 34  1  0
 15 35  1  0
 15 36  1  0
 16 37  1  0
 16 38  1  0
 18 39  1  0
 18 40  1  0
 20 41  1  0
 21 42  1  0
 22 43  1  0
 24 44  1  0
 25 45  1  0
 26 46  1  0
 26 47  1  0
 27 48  1  0
 27 49  1  0
M  CHG  2   1  -1  10  -1
M  END
>  <UniqueID>  (20) 
19

>  <SMILES>  (20) 
[NH-]C(=O)c1ccccc1[N-]C(=O)CN1CCN(Cc2cccc(O)c2)CC1

>  <Energy>  (20) 
73.86385605510583

>  <Genealogy>  (20) 
[NH-]C(=O)c1ccccc1[N-]C(=O)CN1CCN(Cc2cccc(O)c2)CC1 (protonated)
[NH-]C(=O)c1ccccc1[N-]C(=O)CN1CCN(Cc2cccc(O)c2)CC1 (3D coordinates assigned)
[NH-]C(=O)c1ccccc1[N-]C(=O)CN1CCN(Cc2cccc(O)c2)CC1 (nonaromatic ring conformer: 73.86385605510583 kcal/mol)

>  <smiles>  (20) 
NC(=O)c1ccccc1NC(=O)CN1CCN(Cc2cccc(O)c2)CC1

>  <score_type>  (20) 
oracle

>  <origin>  (20) 
adg

>  <m_score__min__energy>  (20) 
-13.289999999999999

>  <m_primary>  (20) 
energy

$$$$
20:0
     RDKit          3D

 49 51  0  0  0  0  0  0  0  0999 V2000
   57.3970   25.2300   44.0430 C   0  0  0  0  0  0  0  0  0  0  0  0
   57.6320   25.0040   45.4290 O   0  0  0  0  0  0  0  0  0  0  0  0
   58.3450   25.8780   46.2640 C   0  0  0  0  0  0  0  0  0  0  0  0
   57.6540   26.9350   46.8660 C   0  0  0  0  0  0  0  0  0  0  0  0
   58.3190   27.8290   47.7090 C   0  0  0  0  0  0  0  0  0  0  0  0
   59.6890   27.6740   47.9680 C   0  0  0  0  0  0  0  0  0  0  0  0
   60.4060   28.6130   48.9020 C   0  0  0  0  0  0  0  0  0  0  0  0
   59.4600   29.5160   49.5490 N   0  0  0  0  0  0  0  0  0  0  0  0
   59.2760   30.8960   49.2070 C   0  0  0  0  0  0  0  0  0  0  0  0
   58.1410   31.4170   49.3640 O   0  0  0  0  0  0  0  0  0  0  0  0
   60.3710   31.7140   48.6520 C   0  0  0  0  0  0  0  0  0  0  0  0
   61.0620   32.5770   49.5170 C   0  0  0  0  0  0  0  0  0  0  0  0
   62.1010   33.3750   49.0370 C   0  0  0  0  0  0  0  0  0  0  0  0
   62.4750   33.3050   47.6950 C   0  0  0  0  0  0  0  0  0  0  0  0
   61.8120   32.4360   46.8270 C   0  0  0  0  0  0  0  0  0  0  0  0
   60.7460   31.6410   47.2860 C   0  0  0  0  0  0  0  0  0  0  0  0
   60.0980   30.6890   46.3440 C   0  0  0  0  0  0  0  0  0  0  0  0
   60.8750   29.6380   45.8350 C   0  0  0  0  0  0  0  0  0  0  0  0
   60.3390   28.7300   44.9280 C   0  0  0  0  0  0  0  0  0  0  0  0
   59.0250   28.8680   44.4960 C   0  0  0  0  0  0  0  0  0  0  0  0
   58.2210   29.9180   44.9650 C   0  0  0  0  0  0  0  0  0  0  0  0
   56.5660   30.0470   44.3390 S   0  0  0  0  0  0  0  0  0  0  0  0
   55.5190   28.9700   45.1940 N   0  0  0  0  0  0  0  0  0  0  0  0
   56.0490   31.4480   44.5190 O   0  0  0  0  0  0  0  0  0  0  0  0
   56.5520   29.7120   42.8740 O   0  0  0  0  0  0  0  0  0  0  0  0
   58.7450   30.8340   45.9170 C   0  0  0  0  0  0  0  0  0  0  0  0
   57.8850   31.9670   46.4350 C   0  0  0  0  0  0  0  0  0  0  0  0
   60.3860   26.6200   47.3590 C   0  0  0  0  0  0  0  0  0  0  0  0
   59.7220   25.7260   46.5140 C   0  0  0  0  0  0  0  0  0  0  0  0
   56.6088   25.9880   43.9236 H   0  0  0  0  0  0  0  0  0  0  0  0
   58.3229   25.5857   43.5673 H   0  0  0  0  0  0  0  0  0  0  0  0
   57.0777   24.2909   43.5673 H   0  0  0  0  0  0  0  0  0  0  0  0
   56.5785   27.0633   46.6741 H   0  0  0  0  0  0  0  0  0  0  0  0
   57.7653   28.6590   48.1722 H   0  0  0  0  0  0  0  0  0  0  0  0
   60.9304   28.0271   49.6713 H   0  0  0  0  0  0  0  0  0  0  0  0
   61.1253   29.2096   48.3217 H   0  0  0  0  0  0  0  0  0  0  0  0
   60.7826   32.6244   50.5799 H   0  0  0  0  0  0  0  0  0  0  0  0
   62.6262   34.0607   49.7182 H   0  0  0  0  0  0  0  0  0  0  0  0
   63.2942   33.9360   47.3200 H   0  0  0  0  0  0  0  0  0  0  0  0
   62.1258   32.3722   45.7746 H   0  0  0  0  0  0  0  0  0  0  0  0
   61.9213   29.5306   46.1572 H   0  0  0  0  0  0  0  0  0  0  0  0
   60.9562   27.9009   44.5517 H   0  0  0  0  0  0  0  0  0  0  0  0
   58.6105   28.1453   43.7778 H   0  0  0  0  0  0  0  0  0  0  0  0
   54.5590   29.3790   45.1510 H   0  0  0  0  0  0  0  0  0  0  0  0
   57.8913   31.9588   47.5350 H   0  0  0  0  0  0  0  0  0  0  0  0
   58.2848   32.9258   46.0732 H   0  0  0  0  0  0  0  0  0  0  0  0
   56.8540   31.8397   46.0732 H   0  0  0  0  0  0  0  0  0  0  0  0
   61.4626   26.4961   47.5477 H   0  0  0  0  0  0  0  0  0  0  0  0
   60.2771   24.9013   46.0431 H   0  0  0  0  0  0  0  0  0  0  0  0
  1  2  1  0
  2  3  1  0
  3  4  2  0
  4  5  1  0
  5  6  2  0
  6  7  1  0
  7  8  1  0
  8  9  1  0
  9 10  2  0
  9 11  1  0
 11 12  2  0
 12 13  1  0
 13 14  2  0
 14 15  1  0
 15 16  2  0
 16 17  1  0
 17 18  2  0
 18 19  1  0
 19 20  2  0
 20 21  1  0
 21 22  1  0
 22 23  1  0
 22 24  2  0
 22 25  2  0
 21 26  2  0
 26 27  1  0
  6 28  1  0
 28 29  2  0
 29  3  1  0
 16 11  1  0
 26 17  1  0
  1 30  1  0
  1 31  1  0
  1 32  1  0
  4 33  1  0
  5 34  1  0
  7 35  1  0
  7 36  1  0
 12 37  1  0
 13 38  1  0
 14 39  1  0
 15 40  1  0
 18 41  1  0
 19 42  1  0
 20 43  1  0
 23 44  1  0
 27 45  1  0
 27 46  1  0
 27 47  1  0
 28 48  1  0
 29 49  1  0
M  CHG  2   8  -1  23  -1
M  END
>  <UniqueID>  (21) 
20

>  <SMILES>  (21) 
COc1ccc(C[N-]C(=O)c2ccccc2-c2cccc(S([NH-])(=O)=O)c2C)cc1

>  <Energy>  (21) 
64.04990089876593

>  <Genealogy>  (21) 
COc1ccc(C[N-]C(=O)c2ccccc2-c2cccc(S([NH-])(=O)=O)c2C)cc1 (protonated)
COc1ccc(C[N-]C(=O)c2ccccc2-c2cccc(S([NH-])(=O)=O)c2C)cc1 (3D coordinates assigned)
COc1ccc(C[N-]C(=O)c2ccccc2-c2cccc(S([NH-])(=O)=O)c2C)cc1 (optimized conformer: 64.04990089876593 kcal/mol)

>  <smiles>  (21) 
COc1ccc(CNC(=O)c2ccccc2-c2cccc(S(N)(=O)=O)c2C)cc1

>  <score_type>  (21) 
oracle

>  <origin>  (21) 
adg

>  <m_score__min__energy>  (21) 
-12.17

>  <m_primary>  (21) 
energy

$$$$
21:0
     RDKit          3D

 50 52  0  0  0  0  0  0  0  0999 V2000
   60.6790   32.4400   51.8810 N   0  0  0  0  0  0  0  0  0  0  0  0
   60.5130   32.7090   50.4430 C   0  0  1  0  0  0  0  0  0  0  0  0
   59.8590   34.0890   50.1740 C   0  0  0  0  0  0  0  0  0  0  0  0
   59.3240   34.3060   48.7480 C   0  0  0  0  0  0  0  0  0  0  0  0
   60.4350   34.4530   47.7100 C   0  0  0  0  0  0  0  0  0  0  0  0
   61.0410   33.1480   47.2710 C   0  0  0  0  0  0  0  0  0  0  0  0
   60.9580   32.8390   46.0520 O   0  0  0  0  0  0  0  0  0  0  0  0
   61.6340   32.2090   48.1930 N   0  0  0  0  0  0  0  0  0  0  0  0
   61.9710   30.8740   47.6840 C   0  0  0  0  0  0  0  0  0  0  0  0
   60.7120   30.0660   47.5200 C   0  0  0  0  0  0  0  0  0  0  0  0
   60.3530   29.1090   48.4810 C   0  0  0  0  0  0  0  0  0  0  0  0
   59.2420   28.2870   48.2710 C   0  0  0  0  0  0  0  0  0  0  0  0
   58.5010   28.3940   47.0920 C   0  0  0  0  0  0  0  0  0  0  0  0
   58.8640   29.3300   46.1100 C   0  0  0  0  0  0  0  0  0  0  0  0
   58.0820   29.4270   44.8220 C   0  0  0  0  0  0  0  0  0  0  0  0
   57.0990   30.5710   44.8550 C   0  0  0  0  0  0  0  0  0  0  0  0
   55.8690   30.2980   44.8140 O   0  0  0  0  0  0  0  0  0  0  0  0
   57.5280   31.9910   44.9640 C   0  0  0  0  0  0  0  0  0  0  0  0
   58.4040   32.5710   44.0240 C   0  0  0  0  0  0  0  0  0  0  0  0
   58.8010   33.9060   44.1520 C   0  0  0  0  0  0  0  0  0  0  0  0
   58.3280   34.6790   45.2130 C   0  0  0  0  0  0  0  0  0  0  0  0
   57.4590   34.1190   46.1510 C   0  0  0  0  0  0  0  0  0  0  0  0
   57.0600   32.7850   46.0300 C   0  0  0  0  0  0  0  0  0  0  0  0
   59.9560   30.1810   46.3450 C   0  0  0  0  0  0  0  0  0  0  0  0
   61.8110   32.4580   49.6390 C   0  0  0  0  0  0  0  0  0  0  0  0
   61.3460   33.1030   52.3310 H   0  0  0  0  0  0  0  0  0  0  0  0
   61.0120   31.4610   52.0320 H   0  0  0  0  0  0  0  0  0  0  0  0
   59.7550   32.5430   52.3590 H   0  0  0  0  0  0  0  0  0  0  0  0
   59.7946   31.9700   50.0585 H   0  0  0  0  0  0  0  0  0  0  0  0
   59.0173   34.2062   50.8724 H   0  0  0  0  0  0  0  0  0  0  0  0
   60.6585   34.8320   50.3111 H   0  0  0  0  0  0  0  0  0  0  0  0
   58.6991   33.4435   48.4730 H   0  0  0  0  0  0  0  0  0  0  0  0
   58.7500   35.2444   48.7510 H   0  0  0  0  0  0  0  0  0  0  0  0
   60.0169   34.9549   46.8250 H   0  0  0  0  0  0  0  0  0  0  0  0
   61.2397   35.0325   48.1861 H   0  0  0  0  0  0  0  0  0  0  0  0
   62.4747   30.9692   46.7108 H   0  0  0  0  0  0  0  0  0  0  0  0
   62.6403   30.3688   48.3959 H   0  0  0  0  0  0  0  0  0  0  0  0
   60.9467   29.0053   49.4012 H   0  0  0  0  0  0  0  0  0  0  0  0
   58.9504   27.5534   49.0370 H   0  0  0  0  0  0  0  0  0  0  0  0
   57.6294   27.7424   46.9319 H   0  0  0  0  0  0  0  0  0  0  0  0
   58.7835   29.5828   43.9891 H   0  0  0  0  0  0  0  0  0  0  0  0
   57.5179   28.4919   44.6902 H   0  0  0  0  0  0  0  0  0  0  0  0
   58.7783   31.9688   43.1831 H   0  0  0  0  0  0  0  0  0  0  0  0
   59.4876   34.3475   43.4147 H   0  0  0  0  0  0  0  0  0  0  0  0
   58.6398   35.7294   45.3102 H   0  0  0  0  0  0  0  0  0  0  0  0
   57.0873   34.7291   46.9874 H   0  0  0  0  0  0  0  0  0  0  0  0
   56.3748   32.3512   46.7732 H   0  0  0  0  0  0  0  0  0  0  0  0
   60.2209   30.9455   45.5997 H   0  0  0  0  0  0  0  0  0  0  0  0
   62.3129   31.5809   50.0735 H   0  0  0  0  0  0  0  0  0  0  0  0
   62.3928   33.3886   49.7128 H   0  0  0  0  0  0  0  0  0  0  0  0
  1  2  1  0
  2  3  1  0
  3  4  1  0
  4  5  1  0
  5  6  1  0
  6  7  2  0
  6  8  1  0
  8  9  1  0
  9 10  1  0
 10 11  2  0
 11 12  1  0
 12 13  2  0
 13 14  1  0
 14 15  1  0
 15 16  1  0
 16 17  2  0
 16 18  1  0
 18 19  2  0
 19 20  1  0
 20 21  2  0
 21 22  1  0
 22 23  2  0
 14 24  2  0
  8 25  1  0
 25  2  1  0
 24 10  1  0
 23 18  1  0
  1 26  1  0
  1 27  1  0
  1 28  1  0
  2 29  1  6
  3 30  1  0
  3 31  1  0
  4 32  1  0
  4 33  1  0
  5 34  1  0
  5 35  1  0
  9 36  1  0
  9 37  1  0
 11 38  1  0
 12 39  1  0
 13 40  1  0
 15 41  1  0
 15 42  1  0
 19 43  1  0
 20 44  1  0
 21 45  1  0
 22 46  1  0
 23 47  1  0
 24 48  1  0
 25 49  1  0
 25 50  1  0
M  CHG  1   1   1
M  END
>  <UniqueID>  (22) 
21

>  <SMILES>  (22) 
[NH3+][C@H]1CCCC(=O)N(Cc2cccc(CC(=O)c3ccccc3)c2)C1

>  <Energy>  (22) 
56.583488346070055

>  <Genealogy>  (22) 
[NH3+]C1CCCC(=O)N(Cc2cccc(CC(=O)c3ccccc3)c2)C1 (protonated)
[NH3+][C@H]1CCCC(=O)N(Cc2cccc(CC(=O)c3ccccc3)c2)C1 (chirality)
[NH3+][C@H]1CCCC(=O)N(Cc2cccc(CC(=O)c3ccccc3)c2)C1 (3D coordinates assigned)
[NH3+][C@H]1CCCC(=O)N(Cc2cccc(CC(=O)c3ccccc3)c2)C1 (nonaromatic ring conformer: 56.583488346070055 kcal/mol)

>  <smiles>  (22) 
NC1CCCC(=O)N(Cc2cccc(CC(=O)c3ccccc3)c2)C1

>  <score_type>  (22) 
oracle

>  <origin>  (22) 
adg

>  <m_score__min__energy>  (22) 
-5.5899999999999999

>  <m_primary>  (22) 
energy

$$$$
22:0
     RDKit          3D

 53 56  0  0  0  0  0  0  0  0999 V2000
   54.7980   28.4050   44.4660 H   0  0  0  0  0  0  0  0  0  0  0  0
   55.1880   29.3470   44.2310 N   0  0  0  0  0  0  0  0  0  0  0  0
   56.2340   29.8070   44.8370 C   0  0  0  0  0  0  0  0  0  0  0  0
   56.6360   31.0930   44.7510 N   0  0  0  0  0  0  0  0  0  0  0  0
   57.7640   31.3130   45.4810 C   0  0  0  0  0  0  0  0  0  0  0  0
   58.4180   32.6610   45.4860 C   0  0  0  0  0  0  0  0  0  0  0  0
   58.5765   32.9878   46.5243 H   0  0  0  0  0  0  0  0  0  0  0  0
   59.3869   32.6004   44.9687 H   0  0  0  0  0  0  0  0  0  0  0  0
   57.7707   33.3845   44.9687 H   0  0  0  0  0  0  0  0  0  0  0  0
   58.2450   30.1860   46.1700 C   0  0  0  0  0  0  0  0  0  0  0  0
   59.4320   30.0910   47.0350 C   0  0  0  0  0  0  0  0  0  0  0  0
   60.4950   29.6210   46.5530 O   0  0  0  0  0  0  0  0  0  0  0  0
   59.3700   30.4810   48.4180 N   0  0  0  0  0  0  0  0  0  0  0  0
   58.4190   30.5670   48.8420 H   0  0  0  0  0  0  0  0  0  0  0  0
   60.5480   30.7030   49.2820 C   0  0  1  0  0  0  0  0  0  0  0  0
   61.2080   29.3290   49.6260 C   0  0  0  0  0  0  0  0  0  0  0  0
   60.6201   28.5291   49.1521 H   0  0  0  0  0  0  0  0  0  0  0  0
   62.2413   29.3565   49.2498 H   0  0  0  0  0  0  0  0  0  0  0  0
   61.2740   29.0640   51.1030 C   0  0  0  0  0  0  0  0  0  0  0  0
   60.3910   28.3500   51.6540 O   0  0  0  0  0  0  0  0  0  0  0  0
   62.2950   29.6460   51.8590 O   0  0  0  0  0  0  0  0  0  0  0  0
   63.5900   29.9080   51.3300 C   0  0  0  0  0  0  0  0  0  0  0  0
   64.3549   29.5473   52.0335 H   0  0  0  0  0  0  0  0  0  0  0  0
   63.7084   29.3888   50.3675 H   0  0  0  0  0  0  0  0  0  0  0  0
   63.7500   31.3860   51.1290 C   0  0  0  0  0  0  0  0  0  0  0  0
   62.9000   32.2880   51.7910 C   0  0  0  0  0  0  0  0  0  0  0  0
   62.0917   31.9086   52.4334 H   0  0  0  0  0  0  0  0  0  0  0  0
   63.0780   33.6660   51.6360 C   0  0  0  0  0  0  0  0  0  0  0  0
   62.4044   34.3678   52.1497 H   0  0  0  0  0  0  0  0  0  0  0  0
   64.1110   34.1540   50.8290 C   0  0  0  0  0  0  0  0  0  0  0  0
   64.2467   35.2384   50.7042 H   0  0  0  0  0  0  0  0  0  0  0  0
   64.9710   33.2620   50.1810 C   0  0  0  0  0  0  0  0  0  0  0  0
   65.7863   33.6455   49.5500 H   0  0  0  0  0  0  0  0  0  0  0  0
   64.7960   31.8830   50.3340 C   0  0  0  0  0  0  0  0  0  0  0  0
   65.4802   31.1847   49.8298 H   0  0  0  0  0  0  0  0  0  0  0  0
   61.5180   31.6780   48.5740 C   0  0  0  0  0  0  0  0  0  0  0  0
   62.6470   31.2280   47.8460 C   0  0  0  0  0  0  0  0  0  0  0  0
   62.9068   30.1591   47.8540 H   0  0  0  0  0  0  0  0  0  0  0  0
   63.4340   32.1220   47.1190 C   0  0  0  0  0  0  0  0  0  0  0  0
   64.3108   31.7548   46.5656 H   0  0  0  0  0  0  0  0  0  0  0  0
   63.1140   33.4780   47.0910 C   0  0  0  0  0  0  0  0  0  0  0  0
   63.7315   34.1767   46.5075 H   0  0  0  0  0  0  0  0  0  0  0  0
   62.0120   33.9490   47.8020 C   0  0  0  0  0  0  0  0  0  0  0  0
   61.7636   35.0203   47.7773 H   0  0  0  0  0  0  0  0  0  0  0  0
   61.2160   33.0660   48.5500 C   0  0  0  0  0  0  0  0  0  0  0  0
   60.0940   33.5880   49.3550 C   0  0  0  0  0  0  0  0  0  0  0  0
   59.6560   34.7600   49.1810 O   0  0  0  0  0  0  0  0  0  0  0  0
   59.4990   32.7290   50.3810 C   0  0  0  0  0  0  0  0  0  0  0  0
   58.5530   33.1500   51.0990 O   0  0  0  0  0  0  0  0  0  0  0  0
   60.0780   31.3660   50.6160 C   0  0  0  0  0  0  0  0  0  0  0  0
   59.3120   30.7281   51.0811 H   0  0  0  0  0  0  0  0  0  0  0  0
   60.9530   31.4727   51.2741 H   0  0  0  0  0  0  0  0  0  0  0  0
   57.2390   28.8810   45.8100 S   0  0  0  0  0  0  0  0  0  0  0  0
  1  2  1  0
  2  3  2  0
  3  4  1  0
  4  5  1  0
  5  6  1  0
  6  7  1  0
  6  8  1  0
  6  9  1  0
  5 10  2  0
 10 11  1  0
 11 12  2  0
 11 13  1  0
 13 14  1  0
 15 13  1  6
 15 16  1  0
 16 17  1  0
 16 18  1  0
 16 19  1  0
 19 20  2  0
 19 21  1  0
 21 22  1  0
 22 23  1  0
 22 24  1  0
 22 25  1  0
 25 26  2  0
 26 27  1  0
 26 28  1  0
 28 29  1  0
 28 30  2  0
 30 31  1  0
 30 32  1  0
 32 33  1  0
 32 34  2  0
 34 35  1  0
 15 36  1  0
 36 37  2  0
 37 38  1  0
 37 39  1  0
 39 40  1  0
 39 41  2  0
 41 42  1  0
 41 43  1  0
 43 44  1  0
 43 45  2  0
 45 46  1  0
 46 47  2  0
 46 48  1  0
 48 49  2  0
 48 50  1  0
 50 51  1  0
 50 52  1  0
 10 53  1  0
 53  3  1  0
 50 15  1  0
 34 25  1  0
 45 36  1  0
M  CHG  1   4  -1
M  END
>  <UniqueID>  (23) 
22

>  <SMILES>  (23) 
[H]/N=c1\[n-]c(C)c(C(=O)N[C@]2(CC(=O)OCc3ccccc3)CC(=O)C(=O)c3ccccc32)s1

>  <Energy>  (23) 
91.77810669024456

>  <Genealogy>  (23) 
Cc1[n-]c(=N)sc1C(=O)NC1(CC(=O)OCc2ccccc2)CC(=O)C(=O)c2ccccc21 (protonated)
Cc1[n-]c(=N)sc1C(=O)N[C@]1(CC(=O)OCc2ccccc2)CC(=O)C(=O)c2ccccc21 (chirality)
[H]/N=c1\[n-]c(C)c(C(=O)N[C@]2(CC(=O)OCc3ccccc3)CC(=O)C(=O)c3ccccc32)s1 (cis-trans isomerization)
[H]/N=c1\[n-]c(C)c(C(=O)N[C@]2(CC(=O)OCc3ccccc3)CC(=O)C(=O)c3ccccc32)s1 (3D coordinates assigned)
[H]/N=c1\[n-]c(C)c(C(=O)N[C@]2(CC(=O)OCc3ccccc3)CC(=O)C(=O)c3ccccc32)s1 (nonaromatic ring conformer: 91.77810669024456 kcal/mol)

>  <smiles>  (23) 
Cc1[nH]c(=N)sc1C(=O)NC1(CC(=O)OCc2ccccc2)CC(=O)C(=O)c2ccccc21

>  <score_type>  (23) 
oracle

>  <origin>  (23) 
adg

>  <m_score__min__energy>  (23) 
-10.02

>  <m_primary>  (23) 
energy

$$$$
23:0
     RDKit          3D

 49 52  0  0  0  0  0  0  0  0999 V2000
   55.6210   26.5870   44.9690 H   0  0  0  0  0  0  0  0  0  0  0  0
   55.8330   27.3420   45.6110 O   0  0  0  0  0  0  0  0  0  0  0  0
   57.0910   27.9310   45.6180 C   0  0  0  0  0  0  0  0  0  0  0  0
   57.4240   28.9630   46.4180 N   0  0  0  0  0  0  0  0  0  0  0  0
   58.7120   29.2280   46.1160 C   0  0  0  0  0  0  0  0  0  0  0  0
   59.4890   30.2910   46.7650 C   0  0  0  0  0  0  0  0  0  0  0  0
   59.7540   30.2050   47.9950 O   0  0  0  0  0  0  0  0  0  0  0  0
   59.8470   31.4640   46.0230 N   0  0  0  0  0  0  0  0  0  0  0  0
   59.6890   32.7130   46.3680 C   0  0  0  0  0  0  0  0  0  0  0  0
   60.6050   33.5750   46.9670 C   0  0  0  0  0  0  0  0  0  0  0  0
   62.0690   33.4530   47.1020 C   0  0  0  0  0  0  0  0  0  0  0  0
   62.7980   33.8150   46.1380 O   0  0  0  0  0  0  0  0  0  0  0  0
   62.6760   32.9640   48.3170 N   0  0  0  0  0  0  0  0  0  0  0  0
   61.8840   32.2470   49.3240 C   0  0  0  0  0  0  0  0  0  0  0  0
   61.4708   32.9688   50.0439 H   0  0  0  0  0  0  0  0  0  0  0  0
   61.0656   31.7090   48.8232 H   0  0  0  0  0  0  0  0  0  0  0  0
   62.7670   31.2400   50.0660 C   0  0  0  0  0  0  0  0  0  0  0  0
   62.1993   30.8131   50.9059 H   0  0  0  0  0  0  0  0  0  0  0  0
   63.0653   30.4483   49.3630 H   0  0  0  0  0  0  0  0  0  0  0  0
   63.9330   31.8650   50.5650 O   0  0  0  0  0  0  0  0  0  0  0  0
   64.7360   32.3020   49.4860 C   0  0  0  0  0  0  0  0  0  0  0  0
   65.6846   32.6963   49.8793 H   0  0  0  0  0  0  0  0  0  0  0  0
   64.9231   31.4483   48.8181 H   0  0  0  0  0  0  0  0  0  0  0  0
   64.0270   33.4020   48.6890 C   0  0  0  0  0  0  0  0  0  0  0  0
   63.9582   34.3108   49.3049 H   0  0  0  0  0  0  0  0  0  0  0  0
   64.6019   33.6121   47.7751 H   0  0  0  0  0  0  0  0  0  0  0  0
   59.8930   34.7500   47.1500 C   0  0  0  0  0  0  0  0  0  0  0  0
   60.2935   35.6676   47.6056 H   0  0  0  0  0  0  0  0  0  0  0  0
   58.6360   34.6000   46.6860 N   0  0  0  0  0  0  0  0  0  0  0  0
   58.5250   33.3730   46.2010 N   0  0  0  0  0  0  0  0  0  0  0  0
   57.2780   32.8300   45.6630 C   0  0  0  0  0  0  0  0  0  0  0  0
   56.6893   32.3932   46.4831 H   0  0  0  0  0  0  0  0  0  0  0  0
   56.7129   33.6425   45.1830 H   0  0  0  0  0  0  0  0  0  0  0  0
   57.5730   31.7460   44.6200 C   0  0  1  0  0  0  0  0  0  0  0  0
   58.5084   31.2525   44.9225 H   0  0  0  0  0  0  0  0  0  0  0  0
   56.5170   30.8110   44.5760 O   0  0  0  0  0  0  0  0  0  0  0  0
   56.2830   30.4940   43.2210 C   0  0  0  0  0  0  0  0  0  0  0  0
   55.2609   30.7940   42.9465 H   0  0  0  0  0  0  0  0  0  0  0  0
   56.4017   29.4103   43.0746 H   0  0  0  0  0  0  0  0  0  0  0  0
   57.2770   31.2310   42.3450 C   0  0  0  0  0  0  0  0  0  0  0  0
   56.7882   31.6330   41.4453 H   0  0  0  0  0  0  0  0  0  0  0  0
   58.0889   30.5868   41.9764 H   0  0  0  0  0  0  0  0  0  0  0  0
   57.7590   32.3340   43.2320 C   0  0  0  0  0  0  0  0  0  0  0  0
   57.1532   33.2428   43.1010 H   0  0  0  0  0  0  0  0  0  0  0  0
   58.7933   32.6443   43.0226 H   0  0  0  0  0  0  0  0  0  0  0  0
   59.1870   28.3710   45.1390 C   0  0  0  0  0  0  0  0  0  0  0  0
   60.1981   28.3587   44.7059 H   0  0  0  0  0  0  0  0  0  0  0  0
   58.1400   27.5370   44.8180 C   0  0  0  0  0  0  0  0  0  0  0  0
   58.1412   26.7246   44.0764 H   0  0  0  0  0  0  0  0  0  0  0  0
  1  2  1  0
  2  3  1  0
  3  4  1  0
  4  5  1  0
  5  6  1  0
  6  7  2  0
  6  8  1  0
  8  9  2  0
  9 10  1  0
 10 11  1  0
 11 12  2  0
 11 13  1  0
 13 14  1  0
 14 15  1  0
 14 16  1  0
 14 17  1  0
 17 18  1  0
 17 19  1  0
 17 20  1  0
 20 21  1  0
 21 22  1  0
 21 23  1  0
 21 24  1  0
 24 25  1  0
 24 26  1  0
 10 27  2  0
 27 28  1  0
 27 29  1  0
 29 30  1  0
 30 31  1  0
 31 32  1  0
 31 33  1  0
 31 34  1  0
 34 35  1  1
 34 36  1  0
 36 37  1  0
 37 38  1  0
 37 39  1  0
 37 40  1  0
 40 41  1  0
 40 42  1  0
 40 43  1  0
 43 44  1  0
 43 45  1  0
  5 46  2  0
 46 47  1  0
 46 48  1  0
 48 49  1  0
 48  3  2  0
 30  9  1  0
 43 34  1  0
 24 13  1  0
M  CHG  2   4  -1  29  -1
M  END
>  <UniqueID>  (24) 
23

>  <SMILES>  (24) 
O=C(/N=c1\c(C(=O)N2CCOCC2)c[n-]n1C[C@@H]1CCCO1)c1ccc(O)[n-]1

>  <Energy>  (24) 
118.21483630793992

>  <Genealogy>  (24) 
O=C(N=c1c(C(=O)N2CCOCC2)c[n-]n1CC1CCCO1)c1ccc(O)[n-]1 (protonated)
O=C(N=c1c(C(=O)N2CCOCC2)c[n-]n1C[C@@H]1CCCO1)c1ccc(O)[n-]1 (chirality)
O=C(/N=c1\c(C(=O)N2CCOCC2)c[n-]n1C[C@@H]1CCCO1)c1ccc(O)[n-]1 (cis-trans isomerization)
O=C(/N=c1\c(C(=O)N2CCOCC2)c[n-]n1C[C@@H]1CCCO1)c1ccc(O)[n-]1 (3D coordinates assigned)
O=C(/N=c1\c(C(=O)N2CCOCC2)c[n-]n1C[C@@H]1CCCO1)c1ccc(O)[n-]1 (nonaromatic ring conformer: 118.21483630793992 kcal/mol)

>  <smiles>  (24) 
O=C(N=c1c(C(=O)N2CCOCC2)c[nH]n1CC1CCCO1)c1ccc(O)[nH]1

>  <score_type>  (24) 
oracle

>  <origin>  (24) 
adg

>  <m_score__min__energy>  (24) 
-11.31

>  <m_primary>  (24) 
energy

$$$$
24:0
     RDKit          3D

 64 67  0  0  0  0  0  0  0  0999 V2000
   57.8310   24.6100   47.0970 C   0  0  0  0  0  0  0  0  0  0  0  0
   58.1060   25.3560   46.0150 C   0  0  0  0  0  0  0  0  0  0  0  0
   57.4020   25.3530   44.7980 C   0  0  0  0  0  0  0  0  0  0  0  0
   56.4850   24.4860   44.3180 C   0  0  0  0  0  0  0  0  0  0  0  0
   55.1630   24.2370   44.9200 C   0  0  0  0  0  0  0  0  0  0  0  0
   54.4450   23.1110   44.7330 N   0  0  0  0  0  0  0  0  0  0  0  0
   53.2810   23.3790   45.3580 C   0  0  0  0  0  0  0  0  0  0  0  0
   52.3380   22.5450   45.4100 O   0  0  0  0  0  0  0  0  0  0  0  0
   53.2000   24.6120   45.9090 N   0  0  0  0  0  0  0  0  0  0  0  0
   54.3960   25.1460   45.6160 C   0  0  0  0  0  0  0  0  0  0  0  0
   54.7750   26.4350   45.9670 O   0  0  0  0  0  0  0  0  0  0  0  0
   57.8380   26.4640   44.0950 C   0  0  0  0  0  0  0  0  0  0  0  0
   58.8250   27.0550   44.8540 C   0  0  0  0  0  0  0  0  0  0  0  0
   59.4180   28.3690   44.5480 C   0  0  0  0  0  0  0  0  0  0  0  0
   60.6700   28.5080   44.6760 O   0  0  0  0  0  0  0  0  0  0  0  0
   58.5890   29.4880   44.1360 N   0  0  0  0  0  0  0  0  0  0  0  0
   57.1670   29.2110   44.4240 C   0  0  0  0  0  0  0  0  0  0  0  0
   56.2840   30.3980   43.9760 C   0  0  0  0  0  0  0  0  0  0  0  0
   57.0410   31.5550   43.6600 O   0  0  0  0  0  0  0  0  0  0  0  0
   57.9590   31.8350   44.7010 C   0  0  0  0  0  0  0  0  0  0  0  0
   59.0190   30.7220   44.8310 C   0  0  0  0  0  0  0  0  0  0  0  0
   59.0060   26.3790   46.0160 N   0  0  0  0  0  0  0  0  0  0  0  0
   60.0640   26.6540   47.0060 C   0  0  0  0  0  0  0  0  0  0  0  0
   59.8270   27.9770   47.6950 C   0  0  0  0  0  0  0  0  0  0  0  0
   60.7800   28.4950   48.5910 C   0  0  0  0  0  0  0  0  0  0  0  0
   60.6090   29.7640   49.1460 C   0  0  0  0  0  0  0  0  0  0  0  0
   59.4930   30.5440   48.8150 C   0  0  0  0  0  0  0  0  0  0  0  0
   59.4040   31.8490   49.3330 O   0  0  0  0  0  0  0  0  0  0  0  0
   60.4190   32.8400   49.1860 C   0  0  0  0  0  0  0  0  0  0  0  0
   60.5020   33.2890   47.7260 C   0  0  0  0  0  0  0  0  0  0  0  0
   59.4120   34.2490   47.4340 N   0  0  0  0  0  0  0  0  0  0  0  0
   58.1130   33.5600   47.3500 C   0  0  0  0  0  0  0  0  0  0  0  0
   59.6690   34.9830   46.1770 C   0  0  0  0  0  0  0  0  0  0  0  0
   58.5160   30.0080   47.9520 C   0  0  0  0  0  0  0  0  0  0  0  0
   58.6840   28.7420   47.3930 C   0  0  0  0  0  0  0  0  0  0  0  0
   58.4552   24.6975   47.9985 H   0  0  0  0  0  0  0  0  0  0  0  0
   56.9815   23.9113   47.0819 H   0  0  0  0  0  0  0  0  0  0  0  0
   56.7441   23.9231   43.4092 H   0  0  0  0  0  0  0  0  0  0  0  0
   57.4675   26.8085   43.1182 H   0  0  0  0  0  0  0  0  0  0  0  0
   58.7000   29.6370   43.1020 H   0  0  0  0  0  0  0  0  0  0  0  0
   56.8576   28.3048   43.8826 H   0  0  0  0  0  0  0  0  0  0  0  0
   57.0448   29.0650   45.5074 H   0  0  0  0  0  0  0  0  0  0  0  0
   55.7143   30.0960   43.0848 H   0  0  0  0  0  0  0  0  0  0  0  0
   55.6209   30.6540   44.8155 H   0  0  0  0  0  0  0  0  0  0  0  0
   58.4649   32.7877   44.4854 H   0  0  0  0  0  0  0  0  0  0  0  0
   57.4016   31.8945   45.6474 H   0  0  0  0  0  0  0  0  0  0  0  0
   59.9631   31.0724   44.3884 H   0  0  0  0  0  0  0  0  0  0  0  0
   59.1524   30.4916   45.8983 H   0  0  0  0  0  0  0  0  0  0  0  0
   60.0701   25.8519   47.7588 H   0  0  0  0  0  0  0  0  0  0  0  0
   61.0311   26.6981   46.4837 H   0  0  0  0  0  0  0  0  0  0  0  0
   61.6644   27.8967   48.8554 H   0  0  0  0  0  0  0  0  0  0  0  0
   61.3577   30.1558   49.8502 H   0  0  0  0  0  0  0  0  0  0  0  0
   60.1780   33.7056   49.8205 H   0  0  0  0  0  0  0  0  0  0  0  0
   61.3869   32.4142   49.4891 H   0  0  0  0  0  0  0  0  0  0  0  0
   61.4732   33.7737   47.5476 H   0  0  0  0  0  0  0  0  0  0  0  0
   60.3995   32.4122   47.0697 H   0  0  0  0  0  0  0  0  0  0  0  0
   57.7374   33.3608   48.3645 H   0  0  0  0  0  0  0  0  0  0  0  0
   57.3949   34.1958   46.8114 H   0  0  0  0  0  0  0  0  0  0  0  0
   58.2366   32.6089   46.8114 H   0  0  0  0  0  0  0  0  0  0  0  0
   60.0242   35.9975   46.4108 H   0  0  0  0  0  0  0  0  0  0  0  0
   60.4347   34.4521   45.5924 H   0  0  0  0  0  0  0  0  0  0  0  0
   58.7393   35.0457   45.5924 H   0  0  0  0  0  0  0  0  0  0  0  0
   57.6143   30.5929   47.7178 H   0  0  0  0  0  0  0  0  0  0  0  0
   57.9197   28.3386   46.7125 H   0  0  0  0  0  0  0  0  0  0  0  0
  1  2  2  0
  2  3  1  0
  3  4  2  3
  4  5  1  0
  5  6  1  0
  6  7  1  0
  7  8  2  0
  7  9  1  0
  9 10  1  0
 10 11  1  0
  3 12  1  0
 12 13  2  0
 13 14  1  0
 14 15  2  0
 14 16  1  0
 16 17  1  0
 17 18  1  0
 18 19  1  0
 19 20  1  0
 20 21  1  0
 13 22  1  0
 22 23  1  0
 23 24  1  0
 24 25  2  0
 25 26  1  0
 26 27  2  0
 27 28  1  0
 28 29  1  0
 29 30  1  0
 30 31  1  0
 31 32  1  0
 31 33  1  0
 27 34  1  0
 34 35  2  0
 22  2  1  0
 35 24  1  0
 10  5  2  0
 21 16  1  0
  1 36  1  0
  1 37  1  0
  4 38  1  0
 12 39  1  0
 16 40  1  0
 17 41  1  0
 17 42  1  0
 18 43  1  0
 18 44  1  0
 20 45  1  0
 20 46  1  0
 21 47  1  0
 21 48  1  0
 23 49  1  0
 23 50  1  0
 25 51  1  0
 26 52  1  0
 29 53  1  0
 29 54  1  0
 30 55  1  0
 30 56  1  0
 32 57  1  0
 32 58  1  0
 32 59  1  0
 33 60  1  0
 33 61  1  0
 33 62  1  0
 34 63  1  0
 35 64  1  0
M  CHG  4   6  -1   9  -1  11  -1  16   1
M  END
>  <UniqueID>  (25) 
24

>  <SMILES>  (25) 
C=c1c(=Cc2[n-]c(=O)[n-]c2[O-])cc(C(=O)[NH+]2CCOCC2)n1Cc1ccc(OCCN(C)C)cc1

>  <Energy>  (25) 
152.45221310474614

>  <Genealogy>  (25) 
C=c1c(=Cc2[n-]c(=O)[n-]c2[O-])cc(C(=O)[NH+]2CCOCC2)n1Cc1ccc(OCCN(C)C)cc1 (protonated)
C=c1c(=Cc2[n-]c(=O)[n-]c2[O-])cc(C(=O)[NH+]2CCOCC2)n1Cc1ccc(OCCN(C)C)cc1 (3D coordinates assigned)
C=c1c(=Cc2[n-]c(=O)[n-]c2[O-])cc(C(=O)[NH+]2CCOCC2)n1Cc1ccc(OCCN(C)C)cc1 (nonaromatic ring conformer: 152.45221310474614 kcal/mol)

>  <smiles>  (25) 
C=c1c(=Cc2[nH]c(=O)[nH]c2O)cc(C(=O)N2CCOCC2)n1Cc1ccc(OCCN(C)C)cc1

>  <score_type>  (25) 
oracle

>  <origin>  (25) 
adg

>  <m_score__min__energy>  (25) 
-14.67

>  <m_primary>  (25) 
energy

$$$$
25:0
     RDKit          3D

 52 54  0  0  0  0  0  0  0  0999 V2000
   66.2720   32.7200   50.1290 C   0  0  0  0  0  0  0  0  0  0  0  0
   64.9590   32.7440   50.7550 N   0  0  0  0  0  0  0  0  0  0  0  0
   63.9770   33.7420   50.4600 C   0  0  0  0  0  0  0  0  0  0  0  0
   63.6990   34.6240   51.3180 O   0  0  0  0  0  0  0  0  0  0  0  0
   63.2820   33.7500   49.1580 C   0  0  0  0  0  0  0  0  0  0  0  0
   61.9060   34.0150   49.0670 C   0  0  0  0  0  0  0  0  0  0  0  0
   61.2830   34.0280   47.8070 C   0  0  0  0  0  0  0  0  0  0  0  0
   59.9100   34.2770   47.6600 O   0  0  0  0  0  0  0  0  0  0  0  0
   59.0420   33.5720   46.8120 C   0  0  0  0  0  0  0  0  0  0  0  0
   58.5770   34.1090   45.6020 C   0  0  0  0  0  0  0  0  0  0  0  0
   57.7230   33.3650   44.7890 C   0  0  0  0  0  0  0  0  0  0  0  0
   57.3310   32.0710   45.1900 C   0  0  0  0  0  0  0  0  0  0  0  0
   56.5410   31.3180   44.4760 N   0  0  0  0  0  0  0  0  0  0  0  0
   56.3610   29.8980   44.5740 C   0  0  0  0  0  0  0  0  0  0  0  0
   55.2150   29.4490   44.8430 O   0  0  0  0  0  0  0  0  0  0  0  0
   57.4270   28.9980   44.2300 N   0  0  0  0  0  0  0  0  0  0  0  0
   57.4430   27.6020   44.5720 C   0  0  0  0  0  0  0  0  0  0  0  0
   57.7700   26.6170   43.6240 C   0  0  0  0  0  0  0  0  0  0  0  0
   57.7580   25.2650   43.9760 C   0  0  0  0  0  0  0  0  0  0  0  0
   57.4110   24.8730   45.2790 C   0  0  0  0  0  0  0  0  0  0  0  0
   57.4140   23.4150   45.6590 C   0  0  0  0  0  0  0  0  0  0  0  0
   56.1950   22.7470   45.1960 N   0  0  0  0  0  0  0  0  0  0  0  0
   56.5090   21.6900   43.8480 S   0  0  0  0  0  0  0  0  0  0  0  0
   58.2590   21.4910   43.5720 C   0  0  0  0  0  0  0  0  0  0  0  0
   55.8840   20.3440   44.0880 O   0  0  0  0  0  0  0  0  0  0  0  0
   55.8980   22.2930   42.6150 O   0  0  0  0  0  0  0  0  0  0  0  0
   57.0600   25.8550   46.2220 C   0  0  0  0  0  0  0  0  0  0  0  0
   56.7080   25.5020   47.4840 F   0  0  0  0  0  0  0  0  0  0  0  0
   57.0700   27.2070   45.8660 C   0  0  0  0  0  0  0  0  0  0  0  0
   57.8320   31.5630   46.3490 N   0  0  0  0  0  0  0  0  0  0  0  0
   58.6660   32.2720   47.1550 C   0  0  0  0  0  0  0  0  0  0  0  0
   62.0400   33.7390   46.6700 C   0  0  0  0  0  0  0  0  0  0  0  0
   63.4050   33.4790   46.7960 C   0  0  0  0  0  0  0  0  0  0  0  0
   63.9900   33.4930   48.0220 N   0  0  0  0  0  0  0  0  0  0  0  0
   67.0491   32.7058   50.9074 H   0  0  0  0  0  0  0  0  0  0  0  0
   66.3634   31.8200   49.5031 H   0  0  0  0  0  0  0  0  0  0  0  0
   66.3963   33.6160   49.5031 H   0  0  0  0  0  0  0  0  0  0  0  0
   61.3191   34.2113   49.9764 H   0  0  0  0  0  0  0  0  0  0  0  0
   58.8867   35.1187   45.2943 H   0  0  0  0  0  0  0  0  0  0  0  0
   57.3571   33.7848   43.8404 H   0  0  0  0  0  0  0  0  0  0  0  0
   58.1920   29.3680   43.6220 H   0  0  0  0  0  0  0  0  0  0  0  0
   58.0370   26.9125   42.5986 H   0  0  0  0  0  0  0  0  0  0  0  0
   58.0220   24.5030   43.2279 H   0  0  0  0  0  0  0  0  0  0  0  0
   58.2872   22.9264   45.2020 H   0  0  0  0  0  0  0  0  0  0  0  0
   57.4588   23.3397   46.7555 H   0  0  0  0  0  0  0  0  0  0  0  0
   58.7785   21.4319   44.5398 H   0  0  0  0  0  0  0  0  0  0  0  0
   58.4377   20.5667   43.0029 H   0  0  0  0  0  0  0  0  0  0  0  0
   58.6406   22.3515   43.0029 H   0  0  0  0  0  0  0  0  0  0  0  0
   56.7830   27.9679   46.6067 H   0  0  0  0  0  0  0  0  0  0  0  0
   59.0466   31.8190   48.0823 H   0  0  0  0  0  0  0  0  0  0  0  0
   61.5624   33.7164   45.6793 H   0  0  0  0  0  0  0  0  0  0  0  0
   64.0080   33.2625   45.9018 H   0  0  0  0  0  0  0  0  0  0  0  0
  1  2  1  0
  2  3  1  0
  3  4  2  0
  3  5  1  0
  5  6  2  0
  6  7  1  0
  7  8  1  0
  8  9  1  0
  9 10  1  0
 10 11  2  0
 11 12  1  0
 12 13  2  3
 13 14  1  0
 14 15  2  0
 14 16  1  0
 16 17  1  0
 17 18  2  0
 18 19  1  0
 19 20  2  0
 20 21  1  0
 21 22  1  0
 22 23  1  0
 23 24  1  0
 23 25  2  0
 23 26  2  0
 20 27  1  0
 27 28  1  0
 27 29  2  0
 12 30  1  0
 30 31  1  0
  7 32  2  0
 32 33  1  0
 33 34  2  0
 34  5  1  0
 31  9  2  0
 29 17  1  0
  1 35  1  0
  1 36  1  0
  1 37  1  0
  6 38  1  0
 10 39  1  0
 11 40  1  0
 16 41  1  0
 18 42  1  0
 19 43  1  0
 21 44  1  0
 21 45  1  0
 24 46  1  0
 24 47  1  0
 24 48  1  0
 29 49  1  0
 31 50  1  0
 32 51  1  0
 33 52  1  0
M  CHG  3   2  -1  22  -1  30  -1
M  END
>  <UniqueID>  (26) 
25

>  <SMILES>  (26) 
C[N-]C(=O)c1cc(Oc2ccc(=NC(=O)Nc3ccc(C[N-]S(C)(=O)=O)c(F)c3)[n-]c2)ccn1

>  <Energy>  (26) 
64.96552248145107

>  <Genealogy>  (26) 
C[N-]C(=O)c1cc(Oc2ccc(=NC(=O)Nc3ccc(C[N-]S(C)(=O)=O)c(F)c3)[n-]c2)ccn1 (protonated)
C[N-]C(=O)c1cc(Oc2ccc(=NC(=O)Nc3ccc(C[N-]S(C)(=O)=O)c(F)c3)[n-]c2)ccn1 (3D coordinates assigned)
C[N-]C(=O)c1cc(Oc2ccc(=NC(=O)Nc3ccc(C[N-]S(C)(=O)=O)c(F)c3)[n-]c2)ccn1 (optimized conformer: 64.96552248145107 kcal/mol)

>  <smiles>  (26) 
CNC(=O)c1cc(Oc2ccc(=NC(=O)Nc3ccc(CNS(C)(=O)=O)c(F)c3)[nH]c2)ccn1

>  <score_type>  (26) 
oracle

>  <origin>  (26) 
adg

>  <m_score__min__energy>  (26) 
-13.09

>  <m_primary>  (26) 
energy

$$$$
26:0
     RDKit          3D

 60 64  0  0  0  0  0  0  0  0999 V2000
   55.8720   31.7200   52.3350 C   0  0  0  0  0  0  0  0  0  0  0  0
   55.2820   30.5510   52.6310 C   0  0  0  0  0  0  0  0  0  0  0  0
   53.9110   30.3180   52.8240 C   0  0  0  0  0  0  0  0  0  0  0  0
   52.8390   31.0880   52.5620 C   0  0  0  0  0  0  0  0  0  0  0  0
   52.1780   31.2150   51.2520 C   0  0  0  0  0  0  0  0  0  0  0  0
   52.1850   30.2700   50.2940 N   0  0  0  0  0  0  0  0  0  0  0  0
   51.3550   30.7720   49.3550 C   0  0  0  0  0  0  0  0  0  0  0  0
   51.1110   30.1720   48.2750 O   0  0  0  0  0  0  0  0  0  0  0  0
   50.7990   31.9620   49.6670 N   0  0  0  0  0  0  0  0  0  0  0  0
   51.3200   32.2200   50.8770 C   0  0  0  0  0  0  0  0  0  0  0  0
   51.0220   33.3550   51.6220 O   0  0  0  0  0  0  0  0  0  0  0  0
   53.8070   29.0410   53.3560 C   0  0  0  0  0  0  0  0  0  0  0  0
   55.0820   28.5180   53.3930 C   0  0  0  0  0  0  0  0  0  0  0  0
   55.4240   27.1380   53.8680 C   0  0  0  0  0  0  0  0  0  0  0  0
   55.9780   29.4320   52.9600 N   0  0  0  0  0  0  0  0  0  0  0  0
   57.4010   29.2440   52.8760 C   0  0  0  0  0  0  0  0  0  0  0  0
   58.0760   29.5600   51.6890 C   0  0  0  0  0  0  0  0  0  0  0  0
   59.4700   29.3860   51.5860 C   0  0  0  0  0  0  0  0  0  0  0  0
   60.2020   29.7210   50.3340 C   0  0  0  0  0  0  0  0  0  0  0  0
   61.4470   29.9320   50.3980 O   0  0  0  0  0  0  0  0  0  0  0  0
   59.5140   29.8560   49.0650 N   0  0  0  0  0  0  0  0  0  0  0  0
   59.7100   28.6600   48.2330 C   0  0  0  0  0  0  0  0  0  0  0  0
   58.8610   28.7270   46.9580 C   0  0  0  0  0  0  0  0  0  0  0  0
   58.7640   30.0760   46.3530 N   0  0  0  0  0  0  0  0  0  0  0  0
   58.0430   30.2300   45.0890 C   0  0  0  0  0  0  0  0  0  0  0  0
   57.2130   29.1990   44.5830 C   0  0  0  0  0  0  0  0  0  0  0  0
   56.5250   29.3520   43.3760 C   0  0  0  0  0  0  0  0  0  0  0  0
   56.6420   30.5320   42.6460 C   0  0  0  0  0  0  0  0  0  0  0  0
   57.4450   31.5670   43.1220 C   0  0  0  0  0  0  0  0  0  0  0  0
   58.1360   31.4240   44.3290 C   0  0  0  0  0  0  0  0  0  0  0  0
   59.2240   31.2900   47.0660 C   0  0  0  0  0  0  0  0  0  0  0  0
   60.0350   31.0190   48.3380 C   0  0  0  0  0  0  0  0  0  0  0  0
   60.1770   28.9080   52.7030 C   0  0  0  0  0  0  0  0  0  0  0  0
   59.5050   28.5970   53.8880 C   0  0  0  0  0  0  0  0  0  0  0  0
   58.1230   28.7630   53.9790 C   0  0  0  0  0  0  0  0  0  0  0  0
   57.4900   28.4840   55.1450 F   0  0  0  0  0  0  0  0  0  0  0  0
   56.9636   31.7687   52.2086 H   0  0  0  0  0  0  0  0  0  0  0  0
   55.2638   32.6292   52.2189 H   0  0  0  0  0  0  0  0  0  0  0  0
   52.4215   31.6713   53.3959 H   0  0  0  0  0  0  0  0  0  0  0  0
   52.8840   28.5414   53.6853 H   0  0  0  0  0  0  0  0  0  0  0  0
   55.4286   27.1194   54.9678 H   0  0  0  0  0  0  0  0  0  0  0  0
   54.6754   26.4249   53.4924 H   0  0  0  0  0  0  0  0  0  0  0  0
   56.4190   26.8570   53.4924 H   0  0  0  0  0  0  0  0  0  0  0  0
   57.5111   29.9481   50.8286 H   0  0  0  0  0  0  0  0  0  0  0  0
   58.4860   29.9650   49.2330 H   0  0  0  0  0  0  0  0  0  0  0  0
   60.7715   28.5869   47.9539 H   0  0  0  0  0  0  0  0  0  0  0  0
   59.3999   27.7778   48.8123 H   0  0  0  0  0  0  0  0  0  0  0  0
   59.3042   28.0483   46.2144 H   0  0  0  0  0  0  0  0  0  0  0  0
   57.8393   28.4406   47.2478 H   0  0  0  0  0  0  0  0  0  0  0  0
   57.1083   28.2621   45.1499 H   0  0  0  0  0  0  0  0  0  0  0  0
   55.8885   28.5369   43.0012 H   0  0  0  0  0  0  0  0  0  0  0  0
   56.1014   30.6472   41.6949 H   0  0  0  0  0  0  0  0  0  0  0  0
   57.5354   32.4997   42.5460 H   0  0  0  0  0  0  0  0  0  0  0  0
   58.7620   32.2510   44.6952 H   0  0  0  0  0  0  0  0  0  0  0  0
   59.8523   31.8740   46.3774 H   0  0  0  0  0  0  0  0  0  0  0  0
   58.3170   31.8246   47.3847 H   0  0  0  0  0  0  0  0  0  0  0  0
   61.0825   30.8288   48.0613 H   0  0  0  0  0  0  0  0  0  0  0  0
   59.9590   31.8999   48.9924 H   0  0  0  0  0  0  0  0  0  0  0  0
   61.2677   28.7778   52.6438 H   0  0  0  0  0  0  0  0  0  0  0  0
   60.0688   28.2193   54.7537 H   0  0  0  0  0  0  0  0  0  0  0  0
  1  2  2  0
  2  3  1  0
  3  4  2  3
  4  5  1  0
  5  6  1  0
  6  7  1  0
  7  8  2  0
  7  9  1  0
  9 10  1  0
 10 11  1  0
  3 12  1  0
 12 13  2  0
 13 14  1  0
 13 15  1  0
 15 16  1  0
 16 17  2  0
 17 18  1  0
 18 19  1  0
 19 20  2  0
 19 21  1  0
 21 22  1  0
 22 23  1  0
 23 24  1  0
 24 25  1  0
 25 26  2  0
 26 27  1  0
 27 28  2  0
 28 29  1  0
 29 30  2  0
 24 31  1  0
 31 32  1  0
 18 33  2  0
 33 34  1  0
 34 35  2  0
 35 36  1  0
 15  2  1  0
 35 16  1  0
 10  5  2  0
 32 21  1  0
 30 25  1  0
  1 37  1  0
  1 38  1  0
  4 39  1  0
 12 40  1  0
 14 41  1  0
 14 42  1  0
 14 43  1  0
 17 44  1  0
 21 45  1  0
 22 46  1  0
 22 47  1  0
 23 48  1  0
 23 49  1  0
 26 50  1  0
 27 51  1  0
 28 52  1  0
 29 53  1  0
 30 54  1  0
 31 55  1  0
 31 56  1  0
 32 57  1  0
 32 58  1  0
 33 59  1  0
 34 60  1  0
M  CHG  4   6  -1   9  -1  11  -1  21   1
M  END
>  <UniqueID>  (27) 
26

>  <SMILES>  (27) 
C=c1c(=Cc2[n-]c(=O)[n-]c2[O-])cc(C)n1-c1cc(C(=O)[NH+]2CCN(c3ccccc3)CC2)ccc1F

>  <Energy>  (27) 
153.06474680729295

>  <Genealogy>  (27) 
C=c1c(=Cc2[n-]c(=O)[n-]c2[O-])cc(C)n1-c1cc(C(=O)[NH+]2CCN(c3ccccc3)CC2)ccc1F (protonated)
C=c1c(=Cc2[n-]c(=O)[n-]c2[O-])cc(C)n1-c1cc(C(=O)[NH+]2CCN(c3ccccc3)CC2)ccc1F (3D coordinates assigned)
C=c1c(=Cc2[n-]c(=O)[n-]c2[O-])cc(C)n1-c1cc(C(=O)[NH+]2CCN(c3ccccc3)CC2)ccc1F (nonaromatic ring conformer: 153.06474680729295 kcal/mol)

>  <smiles>  (27) 
C=c1c(=Cc2[nH]c(=O)[nH]c2O)cc(C)n1-c1cc(C(=O)N2CCN(c3ccccc3)CC2)ccc1F

>  <score_type>  (27) 
oracle

>  <origin>  (27) 
adg

>  <m_score__min__energy>  (27) 
-17.27

>  <m_primary>  (27) 
energy

$$$$
27:0
     RDKit          3D

 43 46  0  0  0  0  0  0  0  0999 V2000
   59.0080   35.2200   47.8430 O   0  0  0  0  0  0  0  0  0  0  0  0
   59.2670   34.0220   47.5470 C   0  0  0  0  0  0  0  0  0  0  0  0
   59.9940   33.2030   48.4690 N   0  0  0  0  0  0  0  0  0  0  0  0
   60.9250   32.1560   48.0610 C   0  0  0  0  0  0  0  0  0  0  0  0
   60.1690   30.9220   47.6540 C   0  0  0  0  0  0  0  0  0  0  0  0
   59.3580   30.2430   48.5760 C   0  0  0  0  0  0  0  0  0  0  0  0
   58.6870   29.0740   48.2030 C   0  0  0  0  0  0  0  0  0  0  0  0
   58.8210   28.5590   46.9000 C   0  0  0  0  0  0  0  0  0  0  0  0
   58.1240   27.3150   46.4860 C   0  0  0  0  0  0  0  0  0  0  0  0
   58.8320   26.1450   46.1650 C   0  0  0  0  0  0  0  0  0  0  0  0
   58.1350   24.9960   45.7680 C   0  0  0  0  0  0  0  0  0  0  0  0
   58.8270   23.8160   45.4550 C   0  0  0  0  0  0  0  0  0  0  0  0
   58.1240   22.6740   45.0640 C   0  0  0  0  0  0  0  0  0  0  0  0
   56.7320   22.7020   44.9740 C   0  0  0  0  0  0  0  0  0  0  0  0
   56.0310   23.8700   45.2800 C   0  0  0  0  0  0  0  0  0  0  0  0
   56.7250   25.0280   45.6830 C   0  0  0  0  0  0  0  0  0  0  0  0
   56.0550   26.2230   45.9980 C   0  0  0  0  0  0  0  0  0  0  0  0
   54.8000   26.3020   45.9230 O   0  0  0  0  0  0  0  0  0  0  0  0
   56.7660   27.3160   46.3850 N   0  0  0  0  0  0  0  0  0  0  0  0
   59.6250   29.2510   45.9770 C   0  0  0  0  0  0  0  0  0  0  0  0
   60.3020   30.4150   46.3540 C   0  0  0  0  0  0  0  0  0  0  0  0
   58.8180   33.4680   46.2480 C   0  0  0  0  0  0  0  0  0  0  0  0
   57.8560   32.4420   46.2020 C   0  0  0  0  0  0  0  0  0  0  0  0
   57.4210   31.9320   44.9750 C   0  0  0  0  0  0  0  0  0  0  0  0
   57.9340   32.4440   43.7810 C   0  0  0  0  0  0  0  0  0  0  0  0
   57.3970   31.7940   42.2440 Cl  0  0  0  0  0  0  0  0  0  0  0  0
   58.8770   33.4760   43.8130 C   0  0  0  0  0  0  0  0  0  0  0  0
   59.3270   33.9770   45.0400 C   0  0  0  0  0  0  0  0  0  0  0  0
   61.5238   32.5130   47.2101 H   0  0  0  0  0  0  0  0  0  0  0  0
   61.5847   31.9114   48.9066 H   0  0  0  0  0  0  0  0  0  0  0  0
   59.2493   30.6327   49.5989 H   0  0  0  0  0  0  0  0  0  0  0  0
   58.0500   28.5533   48.9332 H   0  0  0  0  0  0  0  0  0  0  0  0
   59.9303   26.1308   46.2251 H   0  0  0  0  0  0  0  0  0  0  0  0
   59.9249   23.7903   45.5177 H   0  0  0  0  0  0  0  0  0  0  0  0
   58.6700   21.7491   44.8262 H   0  0  0  0  0  0  0  0  0  0  0  0
   56.1848   21.8006   44.6608 H   0  0  0  0  0  0  0  0  0  0  0  0
   54.9336   23.8862   45.2062 H   0  0  0  0  0  0  0  0  0  0  0  0
   59.7223   28.8731   44.9486 H   0  0  0  0  0  0  0  0  0  0  0  0
   60.9423   30.9355   45.6266 H   0  0  0  0  0  0  0  0  0  0  0  0
   57.4432   32.0383   47.1383 H   0  0  0  0  0  0  0  0  0  0  0  0
   56.6731   31.1258   44.9499 H   0  0  0  0  0  0  0  0  0  0  0  0
   59.2656   33.8945   42.8729 H   0  0  0  0  0  0  0  0  0  0  0  0
   60.0842   34.7746   45.0595 H   0  0  0  0  0  0  0  0  0  0  0  0
  1  2  2  0
  2  3  1  0
  3  4  1  0
  4  5  1  0
  5  6  2  0
  6  7  1  0
  7  8  2  0
  8  9  1  0
  9 10  2  0
 10 11  1  0
 11 12  2  0
 12 13  1  0
 13 14  2  0
 14 15  1  0
 15 16  2  0
 16 17  1  0
 17 18  2  0
 17 19  1  0
  8 20  1  0
 20 21  2  0
  2 22  1  0
 22 23  2  0
 23 24  1  0
 24 25  2  0
 25 26  1  0
 25 27  1  0
 27 28  2  0
 21  5  1  0
 28 22  1  0
 19  9  1  0
 16 11  1  0
  4 29  1  0
  4 30  1  0
  6 31  1  0
  7 32  1  0
 10 33  1  0
 12 34  1  0
 13 35  1  0
 14 36  1  0
 15 37  1  0
 20 38  1  0
 21 39  1  0
 23 40  1  0
 24 41  1  0
 27 42  1  0
 28 43  1  0
M  CHG  2   3  -1  19  -1
M  END
>  <UniqueID>  (28) 
27

>  <SMILES>  (28) 
O=C([N-]Cc1ccc(-c2cc3ccccc3c(=O)[n-]2)cc1)c1ccc(Cl)cc1

>  <Energy>  (28) 
55.56379374194706

>  <Genealogy>  (28) 
O=C([N-]Cc1ccc(-c2cc3ccccc3c(=O)[n-]2)cc1)c1ccc(Cl)cc1 (protonated)
O=C([N-]Cc1ccc(-c2cc3ccccc3c(=O)[n-]2)cc1)c1ccc(Cl)cc1 (3D coordinates assigned)
O=C([N-]Cc1ccc(-c2cc3ccccc3c(=O)[n-]2)cc1)c1ccc(Cl)cc1 (optimized conformer: 55.56379374194706 kcal/mol)

>  <smiles>  (28) 
O=C(NCc1ccc(-c2cc3ccccc3c(=O)[nH]2)cc1)c1ccc(Cl)cc1

>  <score_type>  (28) 
oracle

>  <origin>  (28) 
adg

>  <m_score__min__energy>  (28) 
-12.6

>  <m_primary>  (28) 
energy

$$$$
28:0
     RDKit          3D

 65 68  0  0  1  0  0  0  0  0999 V2000
   56.7250   25.5310   44.9840 C   0  0  0  0  0  0  0  0  0  0  0  0
   57.4730   26.7630   45.4530 C   0  0  0  0  0  0  0  0  0  0  0  0
   57.8430   27.6140   44.5410 C   0  0  0  0  0  0  0  0  0  0  0  0
   57.5400   29.0160   44.4410 C   0  0  0  0  0  0  0  0  0  0  0  0
   58.6590   29.8340   44.1510 C   0  0  0  0  0  0  0  0  0  0  0  0
   58.5550   31.1890   43.9880 C   0  0  0  0  0  0  0  0  0  0  0  0
   57.3400   31.8260   44.1020 C   0  0  0  0  0  0  0  0  0  0  0  0
   56.2520   31.0280   44.3840 C   0  0  0  0  0  0  0  0  0  0  0  0
   56.3570   29.6530   44.5480 C   0  0  0  0  0  0  0  0  0  0  0  0
   55.2050   28.9750   44.8190 O   0  0  0  0  0  0  0  0  0  0  0  0
   57.6790   26.8670   46.9000 C   0  0  0  0  0  0  0  0  0  0  0  0
   58.7270   27.7050   47.3170 N   0  0  0  0  0  0  0  0  0  0  0  0
   58.7830   28.2700   48.5900 C   0  0  0  0  0  0  0  0  0  0  0  0
   60.1530   28.8170   48.9670 C   0  0  0  0  0  0  0  0  0  0  0  0
   60.9000   29.3450   47.8840 N   0  0  0  0  0  0  0  0  0  0  0  0
   61.0160   30.7850   47.8590 C   0  0  0  0  0  0  0  0  0  0  0  0
   59.6880   31.4570   48.0350 C   0  0  0  0  0  0  0  0  0  0  0  0
   59.5080   32.7140   47.3120 C   0  0  0  0  0  0  0  0  0  0  0  0
   58.2670   32.9900   46.7540 C   0  0  0  0  0  0  0  0  0  0  0  0
   58.0070   34.1410   46.0410 C   0  0  0  0  0  0  0  0  0  0  0  0
   58.9970   35.0820   45.8560 C   0  0  0  0  0  0  0  0  0  0  0  0
   60.2250   34.8300   46.3980 C   0  0  0  0  0  0  0  0  0  0  0  0
   60.4870   33.6620   47.1220 C   0  0  0  0  0  0  0  0  0  0  0  0
   61.8330   33.5390   47.6530 C   0  0  0  0  0  0  0  0  0  0  0  0
   62.9530   33.2480   46.9170 C   0  0  0  0  0  0  0  0  0  0  0  0
   64.1490   33.1860   47.5410 N   0  0  0  0  0  0  0  0  0  0  0  0
   64.2740   33.4050   48.8740 C   0  0  0  0  0  0  0  0  0  0  0  0
   65.3840   33.3520   49.4690 O   0  0  0  0  0  0  0  0  0  0  0  0
   63.1910   33.6940   49.6250 N   0  0  0  0  0  0  0  0  0  0  0  0
   61.9830   33.7600   49.0170 C   0  0  0  0  0  0  0  0  0  0  0  0
   60.8090   34.0790   49.8650 C   0  0  0  0  0  0  0  0  0  0  0  0
   60.7460   28.7210   46.6160 C   0  0  0  0  0  0  0  0  0  0  0  0
   60.0200   27.3750   46.7650 C   0  0  0  0  0  0  0  0  0  0  0  0
   56.3775   24.9587   45.8567 H   0  0  0  0  0  0  0  0  0  0  0  0
   55.8596   25.8362   44.3774 H   0  0  0  0  0  0  0  0  0  0  0  0
   57.3950   24.9040   44.3774 H   0  0  0  0  0  0  0  0  0  0  0  0
   58.4732   27.2054   43.7373 H   0  0  0  0  0  0  0  0  0  0  0  0
   59.6483   29.3631   44.0531 H   0  0  0  0  0  0  0  0  0  0  0  0
   59.4562   31.7780   43.7624 H   0  0  0  0  0  0  0  0  0  0  0  0
   57.2425   32.9143   43.9748 H   0  0  0  0  0  0  0  0  0  0  0  0
   55.2626   31.4984   44.4829 H   0  0  0  0  0  0  0  0  0  0  0  0
   55.1350   27.9940   44.9740 H   0  0  0  0  0  0  0  0  0  0  0  0
   56.7477   27.2466   47.3455 H   0  0  0  0  0  0  0  0  0  0  0  0
   57.9593   25.8564   47.2317 H   0  0  0  0  0  0  0  0  0  0  0  0
   58.0573   29.0955   48.6339 H   0  0  0  0  0  0  0  0  0  0  0  0
   58.5547   27.4656   49.3047 H   0  0  0  0  0  0  0  0  0  0  0  0
   60.0100   29.6181   49.7071 H   0  0  0  0  0  0  0  0  0  0  0  0
   60.7305   27.9655   49.3560 H   0  0  0  0  0  0  0  0  0  0  0  0
   61.6852   31.1018   48.6725 H   0  0  0  0  0  0  0  0  0  0  0  0
   61.4179   31.0771   46.8776 H   0  0  0  0  0  0  0  0  0  0  0  0
   58.9091   30.7584   47.6954 H   0  0  0  0  0  0  0  0  0  0  0  0
   59.6244   31.7157   49.1022 H   0  0  0  0  0  0  0  0  0  0  0  0
   57.4561   32.2587   46.8865 H   0  0  0  0  0  0  0  0  0  0  0  0
   57.0055   34.3090   45.6181 H   0  0  0  0  0  0  0  0  0  0  0  0
   58.8044   36.0056   45.2904 H   0  0  0  0  0  0  0  0  0  0  0  0
   61.0308   35.5662   46.2614 H   0  0  0  0  0  0  0  0  0  0  0  0
   62.8782   33.0678   45.8344 H   0  0  0  0  0  0  0  0  0  0  0  0
   64.9930   32.9670   46.9900 H   0  0  0  0  0  0  0  0  0  0  0  0
   61.0910   34.0024   50.9255 H   0  0  0  0  0  0  0  0  0  0  0  0
   60.4681   35.1023   49.6493 H   0  0  0  0  0  0  0  0  0  0  0  0
   59.9971   33.3689   49.6493 H   0  0  0  0  0  0  0  0  0  0  0  0
   60.1590   29.3783   45.9577 H   0  0  0  0  0  0  0  0  0  0  0  0
   61.7414   28.5430   46.1831 H   0  0  0  0  0  0  0  0  0  0  0  0
   59.9087   26.8857   45.7861 H   0  0  0  0  0  0  0  0  0  0  0  0
   60.5759   26.6753   47.4063 H   0  0  0  0  0  0  0  0  0  0  0  0
  1  2  1  0
  2  3  2  0
  3  4  1  0
  4  5  2  0
  5  6  1  0
  6  7  2  0
  7  8  1  0
  8  9  2  0
  9 10  1  0
  2 11  1  0
 11 12  1  0
 12 13  1  0
 13 14  1  0
 14 15  1  0
 15 16  1  0
 16 17  1  0
 17 18  1  0
 18 19  2  0
 19 20  1  0
 20 21  2  0
 21 22  1  0
 22 23  2  0
 23 24  1  0
 24 25  2  0
 25 26  1  0
 26 27  1  0
 27 28  2  0
 27 29  1  0
 29 30  2  0
 30 31  1  0
 15 32  1  0
 32 33  1  0
  9  4  1  0
 33 12  1  0
 23 18  1  0
 30 24  1  0
  1 34  1  0
  1 35  1  0
  1 36  1  0
  3 37  1  0
  5 38  1  0
  6 39  1  0
  7 40  1  0
  8 41  1  0
 10 42  1  0
 11 43  1  0
 11 44  1  0
 13 45  1  0
 13 46  1  0
 14 47  1  0
 14 48  1  0
 16 49  1  0
 16 50  1  0
 17 51  1  0
 17 52  1  0
 19 53  1  0
 20 54  1  0
 21 55  1  0
 22 56  1  0
 25 57  1  0
 26 58  1  0
 31 59  1  0
 31 60  1  0
 31 61  1  0
 32 62  1  0
 32 63  1  0
 33 64  1  0
 33 65  1  0
M  END
>  <smiles>  (29) 
CC(=Cc1ccccc1O)CN1CCN(CCc2ccccc2-c2c[nH]c(=O)nc2C)CC1

>  <score_type>  (29) 
oracle

>  <origin>  (29) 
adg

>  <m_score__min__energy>  (29) 
-10.74

>  <m_primary>  (29) 
energy

$$$$
29:0
     RDKit          3D

 47 50  0  0  0  0  0  0  0  0999 V2000
   54.7580   27.2043   53.3956 H   0  0  0  0  0  0  0  0  0  0  0  0
   54.0850   28.0170   53.0850 C   0  0  0  0  0  0  0  0  0  0  0  0
   52.9995   27.8451   53.0395 H   0  0  0  0  0  0  0  0  0  0  0  0
   54.5890   29.2200   52.7610 C   0  0  0  0  0  0  0  0  0  0  0  0
   53.8570   30.3420   52.3500 C   0  0  0  0  0  0  0  0  0  0  0  0
   52.5210   30.4340   52.1910 C   0  0  0  0  0  0  0  0  0  0  0  0
   51.8792   30.1687   53.0441 H   0  0  0  0  0  0  0  0  0  0  0  0
   51.8690   30.8690   50.9420 C   0  0  0  0  0  0  0  0  0  0  0  0
   51.7470   30.0780   49.8610 N   0  0  0  0  0  0  0  0  0  0  0  0
   51.0370   30.8350   48.9960 C   0  0  0  0  0  0  0  0  0  0  0  0
   50.7260   30.4380   47.8420 O   0  0  0  0  0  0  0  0  0  0  0  0
   50.6780   32.0490   49.4680 N   0  0  0  0  0  0  0  0  0  0  0  0
   51.1970   32.0490   50.7050 C   0  0  0  0  0  0  0  0  0  0  0  0
   51.0230   33.0920   51.6130 O   0  0  0  0  0  0  0  0  0  0  0  0
   54.7890   31.3380   52.0870 C   0  0  0  0  0  0  0  0  0  0  0  0
   54.5798   32.3573   51.7302 H   0  0  0  0  0  0  0  0  0  0  0  0
   56.0280   30.7980   52.3610 C   0  0  0  0  0  0  0  0  0  0  0  0
   57.3050   31.5180   52.1770 C   0  0  0  0  0  0  0  0  0  0  0  0
   57.9830   31.7810   53.2070 O   0  0  0  0  0  0  0  0  0  0  0  0
   57.7800   31.9660   50.8770 N   0  0  0  0  0  0  0  0  0  0  0  0
   56.9410   32.3210   50.3550 H   0  0  0  0  0  0  0  0  0  0  0  0
   58.3990   30.8840   50.0740 C   0  0  0  0  0  0  0  0  0  0  0  0
   59.2729   30.4930   50.6156 H   0  0  0  0  0  0  0  0  0  0  0  0
   57.6466   30.0963   49.9207 H   0  0  0  0  0  0  0  0  0  0  0  0
   58.8550   31.3930   48.6870 C   0  0  0  0  0  0  0  0  0  0  0  0
   59.8990   31.0886   48.5215 H   0  0  0  0  0  0  0  0  0  0  0  0
   58.1908   30.9560   47.9268 H   0  0  0  0  0  0  0  0  0  0  0  0
   58.7640   32.8620   48.5860 N   0  0  0  0  0  0  0  0  0  0  0  0
   59.4060   33.3140   47.3450 C   0  0  0  0  0  0  0  0  0  0  0  0
   60.2479   32.6061   47.3530 H   0  0  0  0  0  0  0  0  0  0  0  0
   59.2500   34.8050   47.0910 C   0  0  0  0  0  0  0  0  0  0  0  0
   58.7674   35.4438   47.8454 H   0  0  0  0  0  0  0  0  0  0  0  0
   59.9358   35.6259   46.8343 H   0  0  0  0  0  0  0  0  0  0  0  0
   58.4210   33.8090   46.2960 C   0  0  0  0  0  0  0  0  0  0  0  0
   57.3388   33.7269   46.4754 H   0  0  0  0  0  0  0  0  0  0  0  0
   58.2586   33.6105   45.2263 H   0  0  0  0  0  0  0  0  0  0  0  0
   59.4340   33.4850   49.7400 C   0  0  0  0  0  0  0  0  0  0  0  0
   60.4816   33.1510   49.7727 H   0  0  0  0  0  0  0  0  0  0  0  0
   59.3847   34.5783   49.6291 H   0  0  0  0  0  0  0  0  0  0  0  0
   58.7340   33.0880   51.0590 C   0  0  0  0  0  0  0  0  0  0  0  0
   59.4999   32.7858   51.7885 H   0  0  0  0  0  0  0  0  0  0  0  0
   58.1635   33.9598   51.4118 H   0  0  0  0  0  0  0  0  0  0  0  0
   55.9120   29.5190   52.7890 N   0  0  0  0  0  0  0  0  0  0  0  0
   57.0140   28.6200   53.1460 C   0  0  0  0  0  0  0  0  0  0  0  0
   57.0939   28.5548   54.2412 H   0  0  0  0  0  0  0  0  0  0  0  0
   56.8197   27.6194   52.7323 H   0  0  0  0  0  0  0  0  0  0  0  0
   57.9551   29.0113   52.7323 H   0  0  0  0  0  0  0  0  0  0  0  0
  1  2  1  0
  2  3  1  0
  2  4  2  0
  4  5  1  0
  5  6  2  0
  6  7  1  0
  6  8  1  0
  8  9  1  0
  9 10  1  0
 10 11  2  0
 10 12  1  0
 12 13  1  0
 13 14  1  0
  5 15  1  0
 15 16  1  0
 15 17  2  0
 17 18  1  0
 18 19  2  0
 18 20  1  0
 20 21  1  0
 20 22  1  0
 22 23  1  0
 22 24  1  0
 22 25  1  0
 25 26  1  0
 25 27  1  0
 25 28  1  0
 28 29  1  0
 29 30  1  0
 29 31  1  0
 31 32  1  0
 31 33  1  0
 31 34  1  0
 34 35  1  0
 34 36  1  0
 28 37  1  0
 37 38  1  0
 37 39  1  0
 37 40  1  0
 40 41  1  0
 40 42  1  0
 17 43  1  0
 43 44  1  0
 44 45  1  0
 44 46  1  0
 44 47  1  0
 43  4  1  0
 13  8  2  0
 40 20  1  0
 34 29  1  0
M  CHG  4   9  -1  12  -1  14  -1  20   1
M  END
>  <UniqueID>  (30) 
28

>  <SMILES>  (30) 
C=c1/c(=C/c2[n-]c(=O)[n-]c2[O-])cc(C(=O)[NH+]2CCN(C3CC3)CC2)n1C

>  <Energy>  (30) 
397.05794476273525

>  <Genealogy>  (30) 
C=c1c(=Cc2[n-]c(=O)[n-]c2[O-])cc(C(=O)[NH+]2CCN(C3CC3)CC2)n1C (protonated)
C=c1/c(=C/c2[n-]c(=O)[n-]c2[O-])cc(C(=O)[NH+]2CCN(C3CC3)CC2)n1C (cis-trans isomerization)
C=c1/c(=C/c2[n-]c(=O)[n-]c2[O-])cc(C(=O)[NH+]2CCN(C3CC3)CC2)n1C (3D coordinates assigned)
C=c1/c(=C/c2[n-]c(=O)[n-]c2[O-])cc(C(=O)[NH+]2CCN(C3CC3)CC2)n1C (nonaromatic ring conformer: 397.05794476273525 kcal/mol)

>  <smiles>  (30) 
C=c1c(=Cc2[nH]c(=O)[nH]c2O)cc(C(=O)N2CCN(C3CC3)CC2)n1C

>  <score_type>  (30) 
oracle

>  <origin>  (30) 
adg

>  <m_score__min__energy>  (30) 
-16.359999999999999

>  <m_primary>  (30) 
energy

$$$$
30:0
     RDKit          3D

 35 37  0  0  0  0  0  0  0  0999 V2000
   54.5160   26.9480   46.6740 H   0  0  0  0  0  0  0  0  0  0  0  0
   55.2320   26.6420   45.9780 N   0  0  0  0  0  0  0  0  0  0  0  0
   56.2140   27.4120   45.6370 C   0  0  0  0  0  0  0  0  0  0  0  0
   55.9680   28.6840   45.2380 N   0  0  0  0  0  0  0  0  0  0  0  0
   56.9920   29.5000   44.8680 C   0  0  0  0  0  0  0  0  0  0  0  0
   56.7810   30.7320   44.5070 N   0  0  0  0  0  0  0  0  0  0  0  0
   57.4060   31.9100   45.0450 C   0  0  0  0  0  0  0  0  0  0  0  0
   57.4460   33.1250   44.3370 C   0  0  0  0  0  0  0  0  0  0  0  0
   56.9711   33.1980   43.3475 H   0  0  0  0  0  0  0  0  0  0  0  0
   58.0860   34.2390   44.8850 C   0  0  0  0  0  0  0  0  0  0  0  0
   58.0964   35.1916   44.3351 H   0  0  0  0  0  0  0  0  0  0  0  0
   58.7130   34.1460   46.1300 C   0  0  0  0  0  0  0  0  0  0  0  0
   59.1985   35.0310   46.5672 H   0  0  0  0  0  0  0  0  0  0  0  0
   58.7250   32.9270   46.8240 C   0  0  0  0  0  0  0  0  0  0  0  0
   59.3780   32.8330   48.1710 C   0  0  0  0  0  0  0  0  0  0  0  0
   58.6158   32.9427   48.9565 H   0  0  0  0  0  0  0  0  0  0  0  0
   59.8706   31.8547   48.2722 H   0  0  0  0  0  0  0  0  0  0  0  0
   60.1265   33.6327   48.2722 H   0  0  0  0  0  0  0  0  0  0  0  0
   58.0650   31.8150   46.2780 C   0  0  0  0  0  0  0  0  0  0  0  0
   58.0651   30.8597   46.8233 H   0  0  0  0  0  0  0  0  0  0  0  0
   58.2670   29.0350   44.9190 N   0  0  0  0  0  0  0  0  0  0  0  0
   58.5220   27.7630   45.3150 C   0  0  0  0  0  0  0  0  0  0  0  0
   59.7510   27.3380   45.3470 N   0  0  0  0  0  0  0  0  0  0  0  0
   60.4990   27.0390   46.5670 C   0  0  0  0  0  0  0  0  0  0  0  0
   60.2919   26.0034   46.8745 H   0  0  0  0  0  0  0  0  0  0  0  0
   61.5732   27.1662   46.3673 H   0  0  0  0  0  0  0  0  0  0  0  0
   60.0960   27.9700   47.6670 C   0  0  0  0  0  0  0  0  0  0  0  0
   60.8520   28.2450   48.7070 O   0  0  0  0  0  0  0  0  0  0  0  0
   60.1730   29.0720   49.4700 C   0  0  0  0  0  0  0  0  0  0  0  0
   60.5174   29.5026   50.4218 H   0  0  0  0  0  0  0  0  0  0  0  0
   58.9540   29.3060   48.8700 C   0  0  0  0  0  0  0  0  0  0  0  0
   58.1566   29.9556   49.2602 H   0  0  0  0  0  0  0  0  0  0  0  0
   58.9090   28.6030   47.7260 N   0  0  0  0  0  0  0  0  0  0  0  0
   58.1220   28.5560   47.0410 H   0  0  0  0  0  0  0  0  0  0  0  0
   57.4900   26.9510   45.6750 N   0  0  0  0  0  0  0  0  0  0  0  0
  1  2  1  0
  2  3  2  0
  3  4  1  0
  4  5  1  0
  5  6  2  3
  6  7  1  0
  7  8  2  0
  8  9  1  0
  8 10  1  0
 10 11  1  0
 10 12  2  0
 12 13  1  0
 12 14  1  0
 14 15  1  0
 15 16  1  0
 15 17  1  0
 15 18  1  0
 14 19  2  0
 19 20  1  0
  5 21  1  0
 21 22  1  0
 22 23  2  0
 23 24  1  0
 24 25  1  0
 24 26  1  0
 24 27  1  0
 27 28  1  0
 28 29  1  0
 29 30  1  0
 29 31  2  0
 31 32  1  0
 31 33  1  0
 33 34  1  0
 22 35  1  0
 35  3  1  0
 19  7  1  0
 33 27  2  0
M  CHG  4   4  -1  21  -1  33   1  35  -1
M  END
>  <UniqueID>  (31) 
29

>  <SMILES>  (31) 
[H]/N=c1/[n-]c(=Nc2cccc(C)c2)[n-]/c(=N/Cc2[nH+]cco2)[n-]1

>  <Energy>  (31) 
71.974893014561

>  <Genealogy>  (31) 
Cc1cccc(N=c2[n-]c(=N)[n-]c(=NCc3[nH+]cco3)[n-]2)c1 (protonated)
[H]/N=c1/[n-]c(=Nc2cccc(C)c2)[n-]/c(=N/Cc2[nH+]cco2)[n-]1 (cis-trans isomerization)
[H]/N=c1/[n-]c(=Nc2cccc(C)c2)[n-]/c(=N/Cc2[nH+]cco2)[n-]1 (3D coordinates assigned)
[H]/N=c1/[n-]c(=Nc2cccc(C)c2)[n-]/c(=N/Cc2[nH+]cco2)[n-]1 (optimized conformer: 71.974893014561 kcal/mol)

>  <smiles>  (31) 
Cc1cccc(N=c2[nH]c(=N)[nH]c(=NCc3ncco3)[nH]2)c1

>  <score_type>  (31) 
oracle

>  <origin>  (31) 
adg

>  <m_score__min__energy>  (31) 
-10.109999999999999

>  <m_primary>  (31) 
energy

$$$$
31:0
     RDKit          3D

 65 69  0  0  0  0  0  0  0  0999 V2000
   59.3170   34.3230   45.9430 C   0  0  0  0  0  0  0  0  0  0  0  0
   60.4660   34.3400   46.9220 C   0  0  0  0  0  0  0  0  0  0  0  0
   61.1160   33.0760   46.8970 N   0  0  0  0  0  0  0  0  0  0  0  0
   60.4820   32.1190   47.7100 C   0  0  0  0  0  0  0  0  0  0  0  0
   60.0530   30.8650   47.0060 C   0  0  0  0  0  0  0  0  0  0  0  0
   58.8670   30.2680   47.3300 N   0  0  0  0  0  0  0  0  0  0  0  0
   58.7010   29.1890   46.5750 C   0  0  0  0  0  0  0  0  0  0  0  0
   57.6810   28.2690   46.5150 C   0  0  0  0  0  0  0  0  0  0  0  0
   57.7290   27.2200   45.6280 C   0  0  0  0  0  0  0  0  0  0  0  0
   56.6690   26.2250   45.5310 C   0  0  0  0  0  0  0  0  0  0  0  0
   55.5220   26.5170   46.0150 O   0  0  0  0  0  0  0  0  0  0  0  0
   56.8360   24.9490   44.9340 N   0  0  0  0  0  0  0  0  0  0  0  0
   55.8130   23.9490   44.8300 C   0  0  0  0  0  0  0  0  0  0  0  0
   56.0250   22.9190   43.7790 C   0  0  0  0  0  0  0  0  0  0  0  0
   56.1900   22.0920   42.9650 N   0  0  0  0  0  0  0  0  0  0  0  0
   54.4800   24.0410   45.4140 C   0  0  0  0  0  0  0  0  0  0  0  0
   55.5250   23.2850   46.1830 C   0  0  0  0  0  0  0  0  0  0  0  0
   58.8350   27.1330   44.8100 C   0  0  0  0  0  0  0  0  0  0  0  0
   59.8720   28.0710   44.8730 C   0  0  0  0  0  0  0  0  0  0  0  0
   59.8280   29.1260   45.7610 C   0  0  0  0  0  0  0  0  0  0  0  0
   60.6500   30.1720   46.0440 N   0  0  0  0  0  0  0  0  0  0  0  0
   62.4900   33.0330   46.7470 C   0  0  0  0  0  0  0  0  0  0  0  0
   63.1700   31.7640   47.2050 C   0  0  0  0  0  0  0  0  0  0  0  0
   63.1680   31.5840   48.7030 C   0  0  0  0  0  0  0  0  0  0  0  0
   63.6100   32.7850   49.3700 N   0  0  0  0  0  0  0  0  0  0  0  0
   64.5810   32.8020   50.4080 C   0  0  0  0  0  0  0  0  0  0  0  0
   64.9060   33.9230   50.9240 O   0  0  0  0  0  0  0  0  0  0  0  0
   65.2220   31.5950   50.9140 C   0  0  0  0  0  0  0  0  0  0  0  0
   66.6120   31.5430   50.7550 C   0  0  0  0  0  0  0  0  0  0  0  0
   67.3180   30.4480   51.1970 C   0  0  0  0  0  0  0  0  0  0  0  0
   66.6400   29.3990   51.8020 C   0  0  0  0  0  0  0  0  0  0  0  0
   67.3350   28.3130   52.2430 F   0  0  0  0  0  0  0  0  0  0  0  0
   65.2560   29.4530   51.9610 C   0  0  0  0  0  0  0  0  0  0  0  0
   64.5440   30.5680   51.5090 C   0  0  0  0  0  0  0  0  0  0  0  0
   62.9870   34.0370   48.9310 C   0  0  0  0  0  0  0  0  0  0  0  0
   63.2090   34.1550   47.4570 C   0  0  0  0  0  0  0  0  0  0  0  0
   58.3654   34.3089   46.4947 H   0  0  0  0  0  0  0  0  0  0  0  0
   59.3609   35.2219   45.3105 H   0  0  0  0  0  0  0  0  0  0  0  0
   59.3875   33.4258   45.3105 H   0  0  0  0  0  0  0  0  0  0  0  0
   61.1801   35.1273   46.6385 H   0  0  0  0  0  0  0  0  0  0  0  0
   60.0875   34.5425   47.9348 H   0  0  0  0  0  0  0  0  0  0  0  0
   61.1806   31.8371   48.5116 H   0  0  0  0  0  0  0  0  0  0  0  0
   59.5599   32.5934   48.0770 H   0  0  0  0  0  0  0  0  0  0  0  0
   56.8153   28.3738   47.1855 H   0  0  0  0  0  0  0  0  0  0  0  0
   57.7830   24.7400   44.5440 H   0  0  0  0  0  0  0  0  0  0  0  0
   54.1192   25.0080   45.7944 H   0  0  0  0  0  0  0  0  0  0  0  0
   53.4702   23.7948   45.0537 H   0  0  0  0  0  0  0  0  0  0  0  0
   55.9460   23.7028   47.1094 H   0  0  0  0  0  0  0  0  0  0  0  0
   55.6214   22.2744   46.6066 H   0  0  0  0  0  0  0  0  0  0  0  0
   58.9045   26.3051   44.0891 H   0  0  0  0  0  0  0  0  0  0  0  0
   60.7376   27.9651   44.2025 H   0  0  0  0  0  0  0  0  0  0  0  0
   61.5490   30.3850   45.6080 H   0  0  0  0  0  0  0  0  0  0  0  0
   62.5735   33.1146   45.6532 H   0  0  0  0  0  0  0  0  0  0  0  0
   62.6498   30.9076   46.7512 H   0  0  0  0  0  0  0  0  0  0  0  0
   64.2217   31.8299   46.8896 H   0  0  0  0  0  0  0  0  0  0  0  0
   62.1472   31.3434   49.0348 H   0  0  0  0  0  0  0  0  0  0  0  0
   63.8593   30.7674   48.9582 H   0  0  0  0  0  0  0  0  0  0  0  0
   67.1410   32.3798   50.2755 H   0  0  0  0  0  0  0  0  0  0  0  0
   68.4100   30.4043   51.0720 H   0  0  0  0  0  0  0  0  0  0  0  0
   64.7244   28.6186   52.4419 H   0  0  0  0  0  0  0  0  0  0  0  0
   63.4519   30.6182   51.6306 H   0  0  0  0  0  0  0  0  0  0  0  0
   61.9089   34.0167   49.1483 H   0  0  0  0  0  0  0  0  0  0  0  0
   63.4268   34.8955   49.4596 H   0  0  0  0  0  0  0  0  0  0  0  0
   62.8194   35.1212   47.1039 H   0  0  0  0  0  0  0  0  0  0  0  0
   64.2862   34.0929   47.2429 H   0  0  0  0  0  0  0  0  0  0  0  0
  1  2  1  0
  2  3  1  0
  3  4  1  0
  4  5  1  0
  5  6  2  0
  6  7  1  0
  7  8  2  0
  8  9  1  0
  9 10  1  0
 10 11  2  0
 10 12  1  0
 12 13  1  0
 13 14  1  0
 14 15  3  0
 13 16  1  0
 16 17  1  0
  9 18  2  0
 18 19  1  0
 19 20  2  0
 20 21  1  0
  3 22  1  0
 22 23  1  0
 23 24  1  0
 24 25  1  0
 25 26  1  0
 26 27  2  0
 26 28  1  0
 28 29  2  0
 29 30  1  0
 30 31  2  0
 31 32  1  0
 31 33  1  0
 33 34  2  0
 25 35  1  0
 35 36  1  0
 21  5  1  0
 36 22  1  0
 20  7  1  0
 34 28  1  0
 17 13  1  0
  1 37  1  0
  1 38  1  0
  1 39  1  0
  2 40  1  0
  2 41  1  0
  4 42  1  0
  4 43  1  0
  8 44  1  0
 12 45  1  0
 16 46  1  0
 16 47  1  0
 17 48  1  0
 17 49  1  0
 18 50  1  0
 19 51  1  0
 21 52  1  0
 22 53  1  0
 23 54  1  0
 23 55  1  0
 24 56  1  0
 24 57  1  0
 29 58  1  0
 30 59  1  0
 33 60  1  0
 34 61  1  0
 35 62  1  0
 35 63  1  0
 36 64  1  0
 36 65  1  0
M  END
>  <smiles>  (32) 
CCN(Cc1nc2cc(C(=O)NC3(C#N)CC3)ccc2[nH]1)C1CCN(C(=O)c2ccc(F)cc2)CC1

>  <score_type>  (32) 
oracle

>  <origin>  (32) 
adg

>  <m_score__min__energy>  (32) 
-9.4499999999999993

>  <m_primary>  (32) 
energy

$$$$
32:0
     RDKit          3D

 34 35  0  0  1  0  0  0  0  0999 V2000
   57.6780   32.0340   42.1260 C   0  0  0  0  0  0  0  0  0  0  0  0
   57.8870   31.8770   43.4230 C   0  0  0  0  0  0  0  0  0  0  0  0
   56.8150   31.7310   44.4340 C   0  0  0  0  0  0  0  0  0  0  0  0
   56.2660   30.3960   44.5210 N   0  0  0  0  0  0  0  0  0  0  0  0
   56.8120   29.3980   45.0930 C   0  0  0  0  0  0  0  0  0  0  0  0
   56.1230   28.2570   45.2490 N   0  0  0  0  0  0  0  0  0  0  0  0
   56.6310   27.1660   45.8390 C   0  0  0  0  0  0  0  0  0  0  0  0
   55.8900   25.9550   46.0000 C   0  0  0  0  0  0  0  0  0  0  0  0
   55.2870   24.9840   46.1470 N   0  0  0  0  0  0  0  0  0  0  0  0
   57.9040   27.2090   46.3060 N   0  0  0  0  0  0  0  0  0  0  0  0
   58.6310   28.3470   46.1670 C   0  0  0  0  0  0  0  0  0  0  0  0
   59.8360   28.3500   46.6230 N   0  0  0  0  0  0  0  0  0  0  0  0
   60.6580   29.5250   46.4040 C   0  0  0  0  0  0  0  0  0  0  0  0
   60.0410   30.5980   47.2590 C   0  0  0  0  0  0  0  0  0  0  0  0
   59.6150   30.3130   48.5440 C   0  0  0  0  0  0  0  0  0  0  0  0
   59.0570   31.3400   49.2770 C   0  0  0  0  0  0  0  0  0  0  0  0
   58.9130   32.6230   48.7770 C   0  0  0  0  0  0  0  0  0  0  0  0
   59.3460   32.8850   47.4930 C   0  0  0  0  0  0  0  0  0  0  0  0
   59.9090   31.8870   46.7290 C   0  0  0  0  0  0  0  0  0  0  0  0
   58.0750   29.4270   45.5610 N   0  0  0  0  0  0  0  0  0  0  0  0
   58.5316   32.1355   41.4397 H   0  0  0  0  0  0  0  0  0  0  0  0
   56.6506   32.0630   41.7340 H   0  0  0  0  0  0  0  0  0  0  0  0
   58.9290   31.8533   43.7745 H   0  0  0  0  0  0  0  0  0  0  0  0
   57.2281   31.9998   45.4174 H   0  0  0  0  0  0  0  0  0  0  0  0
   55.9932   32.3933   44.1242 H   0  0  0  0  0  0  0  0  0  0  0  0
   55.1450   28.1890   44.9020 H   0  0  0  0  0  0  0  0  0  0  0  0
   61.6961   29.3335   46.7135 H   0  0  0  0  0  0  0  0  0  0  0  0
   60.6931   29.8122   45.3427 H   0  0  0  0  0  0  0  0  0  0  0  0
   59.7176   29.3026   48.9666 H   0  0  0  0  0  0  0  0  0  0  0  0
   58.7124   31.1309   50.3005 H   0  0  0  0  0  0  0  0  0  0  0  0
   58.4627   33.4172   49.3905 H   0  0  0  0  0  0  0  0  0  0  0  0
   59.2407   33.8979   47.0770 H   0  0  0  0  0  0  0  0  0  0  0  0
   60.2535   32.1018   45.7067 H   0  0  0  0  0  0  0  0  0  0  0  0
   58.6550   30.2750   45.4720 H   0  0  0  0  0  0  0  0  0  0  0  0
  1  2  2  0
  2  3  1  0
  3  4  1  0
  4  5  2  0
  5  6  1  0
  6  7  1  0
  7  8  1  0
  8  9  3  0
  7 10  2  0
 10 11  1  0
 11 12  2  0
 12 13  1  0
 13 14  1  0
 14 15  2  0
 15 16  1  0
 16 17  2  0
 17 18  1  0
 18 19  2  0
 11 20  1  0
 20  5  1  0
 19 14  1  0
  1 21  1  0
  1 22  1  0
  2 23  1  0
  3 24  1  0
  3 25  1  0
  6 26  1  0
 13 27  1  0
 13 28  1  0
 15 29  1  0
 16 30  1  0
 17 31  1  0
 18 32  1  0
 19 33  1  0
 20 34  1  0
M  END
>  <smiles>  (33) 
C=CCN=c1[nH]c(C#N)nc(=NCc2ccccc2)[nH]1

>  <score_type>  (33) 
oracle

>  <origin>  (33) 
adg

>  <m_score__min__energy>  (33) 
-6.8099999999999996

>  <m_primary>  (33) 
energy

$$$$
33:0
     RDKit          3D

 63 67  0  0  0  0  0  0  0  0999 V2000
   58.7810   27.5970   47.3160 C   0  0  0  0  0  0  0  0  0  0  0  0
   58.2830   28.2010   46.2250 C   0  0  0  0  0  0  0  0  0  0  0  0
   57.6560   27.5900   45.1260 C   0  0  0  0  0  0  0  0  0  0  0  0
   57.5600   26.2950   44.7680 C   0  0  0  0  0  0  0  0  0  0  0  0
   56.7270   25.2800   45.4360 C   0  0  0  0  0  0  0  0  0  0  0  0
   57.0210   23.9670   45.4980 N   0  0  0  0  0  0  0  0  0  0  0  0
   55.9250   23.4310   46.0780 C   0  0  0  0  0  0  0  0  0  0  0  0
   55.8230   22.2010   46.3300 O   0  0  0  0  0  0  0  0  0  0  0  0
   54.9420   24.3140   46.3630 N   0  0  0  0  0  0  0  0  0  0  0  0
   55.4630   25.4770   45.9330 C   0  0  0  0  0  0  0  0  0  0  0  0
   54.7950   26.6940   46.0010 O   0  0  0  0  0  0  0  0  0  0  0  0
   57.0940   28.6160   44.3820 C   0  0  0  0  0  0  0  0  0  0  0  0
   57.4450   29.7980   44.9990 C   0  0  0  0  0  0  0  0  0  0  0  0
   57.0400   31.1620   44.5290 C   0  0  0  0  0  0  0  0  0  0  0  0
   58.1650   29.5490   46.1150 N   0  0  0  0  0  0  0  0  0  0  0  0
   58.6280   30.5370   47.0510 C   0  0  0  0  0  0  0  0  0  0  0  0
   58.8830   31.8450   46.6220 C   0  0  0  0  0  0  0  0  0  0  0  0
   59.3220   32.8080   47.5300 C   0  0  0  0  0  0  0  0  0  0  0  0
   59.5150   32.4810   48.8820 C   0  0  0  0  0  0  0  0  0  0  0  0
   60.0860   33.5140   49.7770 C   0  0  0  0  0  0  0  0  0  0  0  0
   59.2960   34.2450   50.4380 O   0  0  0  0  0  0  0  0  0  0  0  0
   61.5060   33.8030   49.7680 N   0  0  1  0  0  0  0  0  0  0  0  0
   62.2660   32.6530   50.3340 C   0  0  0  0  0  0  0  0  0  0  0  0
   62.8120   31.7160   49.2440 C   0  0  0  0  0  0  0  0  0  0  0  0
   63.7900   32.4590   48.3140 C   0  0  1  0  0  0  0  0  0  0  0  0
   63.7660   31.8530   47.0460 O   0  0  0  0  0  0  0  0  0  0  0  0
   63.4480   33.9630   48.1900 C   0  0  0  0  0  0  0  0  0  0  0  0
   61.9500   34.2140   48.4070 C   0  0  0  0  0  0  0  0  0  0  0  0
   59.2250   31.1680   49.3250 C   0  0  0  0  0  0  0  0  0  0  0  0
   59.2870   30.7880   50.7470 C   0  0  0  0  0  0  0  0  0  0  0  0
   60.3350   30.2620   51.2080 O   0  0  0  0  0  0  0  0  0  0  0  0
   58.1400   30.9350   51.5870 N   0  0  0  0  0  0  0  0  0  0  0  0
   56.7340   31.3610   51.4600 C   0  0  0  0  0  0  0  0  0  0  0  0
   56.3370   31.0140   52.8570 C   0  0  0  0  0  0  0  0  0  0  0  0
   57.7640   30.5860   52.9680 C   0  0  0  0  0  0  0  0  0  0  0  0
   58.7980   30.2040   48.3990 C   0  0  0  0  0  0  0  0  0  0  0  0
   59.2503   28.1960   48.1103 H   0  0  0  0  0  0  0  0  0  0  0  0
   58.7196   26.5032   47.4154 H   0  0  0  0  0  0  0  0  0  0  0  0
   58.1546   25.9672   43.9026 H   0  0  0  0  0  0  0  0  0  0  0  0
   56.4843   28.5077   43.4728 H   0  0  0  0  0  0  0  0  0  0  0  0
   56.8483   31.8076   45.3988 H   0  0  0  0  0  0  0  0  0  0  0  0
   57.8482   31.5955   43.9216 H   0  0  0  0  0  0  0  0  0  0  0  0
   56.1262   31.0842   43.9216 H   0  0  0  0  0  0  0  0  0  0  0  0
   58.7366   32.1139   45.5655 H   0  0  0  0  0  0  0  0  0  0  0  0
   59.5190   33.8334   47.1840 H   0  0  0  0  0  0  0  0  0  0  0  0
   61.6790   34.6170   50.4060 H   0  0  0  0  0  0  0  0  0  0  0  0
   61.5978   32.0777   50.9917 H   0  0  0  0  0  0  0  0  0  0  0  0
   63.1254   33.0595   50.8873 H   0  0  0  0  0  0  0  0  0  0  0  0
   61.9719   31.3303   48.6478 H   0  0  0  0  0  0  0  0  0  0  0  0
   63.3514   30.8901   49.7308 H   0  0  0  0  0  0  0  0  0  0  0  0
   64.7973   32.3914   48.7509 H   0  0  0  0  0  0  0  0  0  0  0  0
   64.6690   31.9770   46.6510 H   0  0  0  0  0  0  0  0  0  0  0  0
   63.7280   34.3124   47.1853 H   0  0  0  0  0  0  0  0  0  0  0  0
   64.0073   34.5110   48.9626 H   0  0  0  0  0  0  0  0  0  0  0  0
   61.3820   33.6401   47.6599 H   0  0  0  0  0  0  0  0  0  0  0  0
   61.7681   35.2938   48.3023 H   0  0  0  0  0  0  0  0  0  0  0  0
   56.6335   32.4350   51.2443 H   0  0  0  0  0  0  0  0  0  0  0  0
   56.1460   30.9123   50.6458 H   0  0  0  0  0  0  0  0  0  0  0  0
   56.0452   31.8631   53.4925 H   0  0  0  0  0  0  0  0  0  0  0  0
   55.4812   30.3713   53.1109 H   0  0  0  0  0  0  0  0  0  0  0  0
   58.3232   31.1633   53.7190 H   0  0  0  0  0  0  0  0  0  0  0  0
   57.9530   29.5521   53.2925 H   0  0  0  0  0  0  0  0  0  0  0  0
   58.5951   29.1768   48.7363 H   0  0  0  0  0  0  0  0  0  0  0  0
  1  2  2  0
  2  3  1  0
  3  4  2  3
  4  5  1  0
  5  6  1  0
  6  7  1  0
  7  8  2  0
  7  9  1  0
  9 10  1  0
 10 11  1  0
  3 12  1  0
 12 13  2  0
 13 14  1  0
 13 15  1  0
 15 16  1  0
 16 17  2  0
 17 18  1  0
 18 19  2  0
 19 20  1  0
 20 21  2  0
 20 22  1  0
 22 23  1  0
 23 24  1  0
 24 25  1  0
 25 26  1  0
 25 27  1  0
 27 28  1  0
 19 29  1  0
 29 30  1  0
 30 31  2  0
 30 32  1  0
 32 33  1  0
 33 34  1  0
 34 35  1  0
 29 36  2  0
 15  2  1  0
 36 16  1  0
 10  5  2  0
 28 22  1  0
 35 32  1  0
  1 37  1  0
  1 38  1  0
  4 39  1  0
 12 40  1  0
 14 41  1  0
 14 42  1  0
 14 43  1  0
 17 44  1  0
 18 45  1  0
 22 46  1  1
 23 47  1  0
 23 48  1  0
 24 49  1  0
 24 50  1  0
 25 51  1  1
 26 52  1  0
 27 53  1  0
 27 54  1  0
 28 55  1  0
 28 56  1  0
 33 57  1  0
 33 58  1  0
 34 59  1  0
 34 60  1  0
 35 61  1  0
 35 62  1  0
 36 63  1  0
M  CHG  4   6  -1   9  -1  11  -1  22   1
M  END
>  <UniqueID>  (34) 
30

>  <SMILES>  (34) 
C=c1c(=Cc2[n-]c(=O)[n-]c2[O-])cc(C)n1-c1ccc(C(=O)[NH+]2CCC(O)CC2)c(C(=O)N2CCC2)c1

>  <Energy>  (34) 
204.4732155363395

>  <Genealogy>  (34) 
C=c1c(=Cc2[n-]c(=O)[n-]c2[O-])cc(C)n1-c1ccc(C(=O)[NH+]2CCC(O)CC2)c(C(=O)N2CCC2)c1 (protonated)
C=c1c(=Cc2[n-]c(=O)[n-]c2[O-])cc(C)n1-c1ccc(C(=O)[NH+]2CCC(O)CC2)c(C(=O)N2CCC2)c1 (3D coordinates assigned)
C=c1c(=Cc2[n-]c(=O)[n-]c2[O-])cc(C)n1-c1ccc(C(=O)[NH+]2CCC(O)CC2)c(C(=O)N2CCC2)c1 (nonaromatic ring conformer: 204.4732155363395 kcal/mol)

>  <smiles>  (34) 
C=c1c(=Cc2[nH]c(=O)[nH]c2O)cc(C)n1-c1ccc(C(=O)N2CCC(O)CC2)c(C(=O)N2CCC2)c1

>  <score_type>  (34) 
oracle

>  <origin>  (34) 
adg

>  <m_score__min__energy>  (34) 
-15.19

>  <m_primary>  (34) 
energy

$$$$
34:0
     RDKit          3D

 48 51  0  0  0  0  0  0  0  0999 V2000
   57.7072   26.1716   47.1988 H   0  0  0  0  0  0  0  0  0  0  0  0
   56.8910   26.6020   46.6000 C   0  0  0  0  0  0  0  0  0  0  0  0
   55.9298   26.0732   46.5198 H   0  0  0  0  0  0  0  0  0  0  0  0
   57.0680   27.7730   45.9670 C   0  0  0  0  0  0  0  0  0  0  0  0
   56.0120   28.2310   45.2520 N   0  0  0  0  0  0  0  0  0  0  0  0
   56.0210   29.4150   44.6030 C   0  0  0  0  0  0  0  0  0  0  0  0
   54.9850   29.7690   43.9760 O   0  0  0  0  0  0  0  0  0  0  0  0
   57.1330   30.2070   44.6280 N   0  0  0  0  0  0  0  0  0  0  0  0
   57.1560   31.4850   43.8830 C   0  0  0  0  0  0  0  0  0  0  0  0
   57.7575   31.3602   42.9705 H   0  0  0  0  0  0  0  0  0  0  0  0
   56.1234   31.7623   43.6246 H   0  0  0  0  0  0  0  0  0  0  0  0
   57.7560   32.5820   44.7250 C   0  0  0  0  0  0  0  0  0  0  0  0
   57.3790   32.7300   46.0710 C   0  0  0  0  0  0  0  0  0  0  0  0
   56.6575   32.0300   46.5176 H   0  0  0  0  0  0  0  0  0  0  0  0
   57.9170   33.7630   46.8450 C   0  0  0  0  0  0  0  0  0  0  0  0
   57.6179   33.8735   47.8978 H   0  0  0  0  0  0  0  0  0  0  0  0
   58.8340   34.6550   46.2830 C   0  0  0  0  0  0  0  0  0  0  0  0
   59.2559   35.4673   46.8930 H   0  0  0  0  0  0  0  0  0  0  0  0
   59.2150   34.5150   44.9460 C   0  0  0  0  0  0  0  0  0  0  0  0
   59.9380   35.2167   44.5046 H   0  0  0  0  0  0  0  0  0  0  0  0
   58.6790   33.4850   44.1690 C   0  0  0  0  0  0  0  0  0  0  0  0
   58.9808   33.3800   43.1164 H   0  0  0  0  0  0  0  0  0  0  0  0
   58.2550   29.7870   45.3020 C   0  0  0  0  0  0  0  0  0  0  0  0
   59.3120   30.4690   45.2010 O   0  0  0  0  0  0  0  0  0  0  0  0
   58.2540   28.5680   46.0440 C   0  0  0  0  0  0  0  0  0  0  0  0
   59.3480   28.1480   46.7480 C   0  0  0  0  0  0  0  0  0  0  0  0
   59.6371   27.0927   46.6347 H   0  0  0  0  0  0  0  0  0  0  0  0
   60.1790   28.9750   47.6460 C   0  0  0  0  0  0  0  0  0  0  0  0
   60.7340   30.1190   47.3180 O   0  0  0  0  0  0  0  0  0  0  0  0
   61.3560   30.5970   48.3710 C   0  0  0  0  0  0  0  0  0  0  0  0
   62.0970   31.8330   48.3640 N   0  0  0  0  0  0  0  0  0  0  0  0
   61.9130   32.8200   49.4360 C   0  0  0  0  0  0  0  0  0  0  0  0
   60.8471   32.8684   49.7034 H   0  0  0  0  0  0  0  0  0  0  0  0
   62.5109   32.5126   50.3067 H   0  0  0  0  0  0  0  0  0  0  0  0
   62.3810   34.2060   48.9810 C   0  0  0  0  0  0  0  0  0  0  0  0
   61.6784   34.5943   48.2290 H   0  0  0  0  0  0  0  0  0  0  0  0
   62.4131   34.8707   49.8569 H   0  0  0  0  0  0  0  0  0  0  0  0
   63.6740   34.1420   48.4160 O   0  0  0  0  0  0  0  0  0  0  0  0
   63.6280   33.3900   47.2210 C   0  0  0  0  0  0  0  0  0  0  0  0
   62.8583   33.8124   46.5583 H   0  0  0  0  0  0  0  0  0  0  0  0
   64.6151   33.4345   46.7376 H   0  0  0  0  0  0  0  0  0  0  0  0
   63.2900   31.9260   47.5140 C   0  0  0  0  0  0  0  0  0  0  0  0
   63.1004   31.4017   46.5658 H   0  0  0  0  0  0  0  0  0  0  0  0
   64.1382   31.4640   48.0404 H   0  0  0  0  0  0  0  0  0  0  0  0
   61.1920   29.7410   49.4480 C   0  0  0  0  0  0  0  0  0  0  0  0
   61.5914   29.8670   50.4652 H   0  0  0  0  0  0  0  0  0  0  0  0
   60.4230   28.6980   48.9770 C   0  0  0  0  0  0  0  0  0  0  0  0
   60.0746   27.8232   49.5456 H   0  0  0  0  0  0  0  0  0  0  0  0
  1  2  1  0
  2  3  1  0
  2  4  2  0
  4  5  1  0
  5  6  1  0
  6  7  2  0
  6  8  1  0
  8  9  1  0
  9 10  1  0
  9 11  1  0
  9 12  1  0
 12 13  2  0
 13 14  1  0
 13 15  1  0
 15 16  1  0
 15 17  2  0
 17 18  1  0
 17 19  1  0
 19 20  1  0
 19 21  2  0
 21 22  1  0
  8 23  1  0
 23 24  2  0
 23 25  1  0
 25 26  2  0
 26 27  1  0
 26 28  1  0
 28 29  1  0
 29 30  1  0
 30 31  1  0
 31 32  1  0
 32 33  1  0
 32 34  1  0
 32 35  1  0
 35 36  1  0
 35 37  1  0
 35 38  1  0
 38 39  1  0
 39 40  1  0
 39 41  1  0
 39 42  1  0
 42 43  1  0
 42 44  1  0
 30 45  2  0
 45 46  1  0
 45 47  1  0
 47 48  1  0
 25  4  1  0
 47 28  2  0
 21 12  1  0
 42 31  1  0
M  CHG  1   5  -1
M  END
>  <UniqueID>  (35) 
31

>  <SMILES>  (35) 
C=c1[n-]c(=O)n(Cc2ccccc2)c(=O)/c1=C\c1ccc(N2CCOCC2)o1

>  <Energy>  (35) 
101.53747592559056

>  <Genealogy>  (35) 
C=c1[n-]c(=O)n(Cc2ccccc2)c(=O)c1=Cc1ccc(N2CCOCC2)o1 (protonated)
C=c1[n-]c(=O)n(Cc2ccccc2)c(=O)/c1=C\c1ccc(N2CCOCC2)o1 (cis-trans isomerization)
C=c1[n-]c(=O)n(Cc2ccccc2)c(=O)/c1=C\c1ccc(N2CCOCC2)o1 (3D coordinates assigned)
C=c1[n-]c(=O)n(Cc2ccccc2)c(=O)/c1=C\c1ccc(N2CCOCC2)o1 (nonaromatic ring conformer: 101.53747592559056 kcal/mol)

>  <smiles>  (35) 
C=c1[nH]c(=O)n(Cc2ccccc2)c(=O)c1=Cc1ccc(N2CCOCC2)o1

>  <score_type>  (35) 
oracle

>  <origin>  (35) 
adg

>  <m_score__min__energy>  (35) 
-9.9700000000000006

>  <m_primary>  (35) 
energy

$$$$
35:0
     RDKit          3D

 53 56  0  0  0  0  0  0  0  0999 V2000
   57.5710   27.4640   42.5320 C   0  0  0  0  0  0  0  0  0  0  0  0
   57.6590   28.1340   43.6930 C   0  0  0  0  0  0  0  0  0  0  0  0
   58.1340   27.6380   44.9180 C   0  0  0  0  0  0  0  0  0  0  0  0
   58.4030   26.3810   45.3210 C   0  0  0  0  0  0  0  0  0  0  0  0
   57.5400   25.5550   46.1830 C   0  0  0  0  0  0  0  0  0  0  0  0
   57.9320   24.4160   46.7840 N   0  0  0  0  0  0  0  0  0  0  0  0
   56.7940   23.9440   47.3340 C   0  0  0  0  0  0  0  0  0  0  0  0
   56.7560   22.8810   48.0070 O   0  0  0  0  0  0  0  0  0  0  0  0
   55.6980   24.6950   47.1000 N   0  0  0  0  0  0  0  0  0  0  0  0
   56.1830   25.7040   46.3580 C   0  0  0  0  0  0  0  0  0  0  0  0
   55.3920   26.7340   45.8560 O   0  0  0  0  0  0  0  0  0  0  0  0
   58.2780   28.7360   45.7470 C   0  0  0  0  0  0  0  0  0  0  0  0
   57.8320   29.8340   45.0420 C   0  0  0  0  0  0  0  0  0  0  0  0
   57.7660   31.2020   45.5960 C   0  0  0  0  0  0  0  0  0  0  0  0
   56.8260   31.9580   45.2280 O   0  0  0  0  0  0  0  0  0  0  0  0
   58.7440   31.6750   46.5470 N   0  0  0  0  0  0  0  0  0  0  0  0
   58.4660   32.8420   47.3970 C   0  0  0  0  0  0  0  0  0  0  0  0
   59.6100   33.8760   47.3130 C   0  0  0  0  0  0  0  0  0  0  0  0
   60.8780   33.2970   46.8100 N   0  0  0  0  0  0  0  0  0  0  0  0
   62.0180   34.1730   47.1460 C   0  0  0  0  0  0  0  0  0  0  0  0
   62.7310   33.6630   48.3720 C   0  0  0  0  0  0  0  0  0  0  0  0
   63.9080   32.9060   48.2520 C   0  0  0  0  0  0  0  0  0  0  0  0
   64.5680   32.4460   49.3960 C   0  0  0  0  0  0  0  0  0  0  0  0
   64.0580   32.7380   50.6650 C   0  0  0  0  0  0  0  0  0  0  0  0
   62.8880   33.4930   50.7920 C   0  0  0  0  0  0  0  0  0  0  0  0
   62.3840   33.7850   52.0530 O   0  0  0  0  0  0  0  0  0  0  0  0
   62.2250   33.9550   49.6500 C   0  0  0  0  0  0  0  0  0  0  0  0
   61.0770   31.9300   47.3280 C   0  0  0  0  0  0  0  0  0  0  0  0
   60.0460   31.0020   46.6760 C   0  0  0  0  0  0  0  0  0  0  0  0
   57.4380   29.4710   43.7990 N   0  0  0  0  0  0  0  0  0  0  0  0
   57.0290   30.3700   42.7140 C   0  0  0  0  0  0  0  0  0  0  0  0
   57.1790   27.9664   41.6354 H   0  0  0  0  0  0  0  0  0  0  0  0
   57.8909   26.4129   42.4779 H   0  0  0  0  0  0  0  0  0  0  0  0
   59.3472   25.9334   44.9772 H   0  0  0  0  0  0  0  0  0  0  0  0
   54.3830   26.7160   45.9470 H   0  0  0  0  0  0  0  0  0  0  0  0
   58.6732   28.7337   46.7736 H   0  0  0  0  0  0  0  0  0  0  0  0
   57.5299   33.3141   47.0641 H   0  0  0  0  0  0  0  0  0  0  0  0
   58.3781   32.5020   48.4394 H   0  0  0  0  0  0  0  0  0  0  0  0
   59.3014   34.6859   46.6356 H   0  0  0  0  0  0  0  0  0  0  0  0
   59.7975   34.2428   48.3329 H   0  0  0  0  0  0  0  0  0  0  0  0
   62.7210   34.1929   46.3002 H   0  0  0  0  0  0  0  0  0  0  0  0
   61.6409   35.1862   47.3490 H   0  0  0  0  0  0  0  0  0  0  0  0
   64.3118   32.6743   47.2554 H   0  0  0  0  0  0  0  0  0  0  0  0
   65.4896   31.8536   49.2975 H   0  0  0  0  0  0  0  0  0  0  0  0
   64.5775   32.3736   51.5635 H   0  0  0  0  0  0  0  0  0  0  0  0
   61.3047   34.5487   49.7528 H   0  0  0  0  0  0  0  0  0  0  0  0
   62.0924   31.5855   47.0827 H   0  0  0  0  0  0  0  0  0  0  0  0
   60.9507   31.9214   48.4207 H   0  0  0  0  0  0  0  0  0  0  0  0
   60.4027   30.7125   45.6765 H   0  0  0  0  0  0  0  0  0  0  0  0
   59.9214   30.1125   47.3110 H   0  0  0  0  0  0  0  0  0  0  0  0
   56.6092   31.2927   43.1410 H   0  0  0  0  0  0  0  0  0  0  0  0
   57.9031   30.6176   42.0938 H   0  0  0  0  0  0  0  0  0  0  0  0
   56.2681   29.8737   42.0938 H   0  0  0  0  0  0  0  0  0  0  0  0
  1  2  2  0
  2  3  1  0
  3  4  2  3
  4  5  1  0
  5  6  1  0
  6  7  1  0
  7  8  2  0
  7  9  1  0
  9 10  1  0
 10 11  1  0
  3 12  1  0
 12 13  2  0
 13 14  1  0
 14 15  2  0
 14 16  1  0
 16 17  1  0
 17 18  1  0
 18 19  1  0
 19 20  1  0
 20 21  1  0
 21 22  2  0
 22 23  1  0
 23 24  2  0
 24 25  1  0
 25 26  1  0
 25 27  2  0
 19 28  1  0
 28 29  1  0
 13 30  1  0
 30 31  1  0
 30  2  1  0
 10  5  2  0
 29 16  1  0
 27 21  1  0
  1 32  1  0
  1 33  1  0
  4 34  1  0
 11 35  1  0
 12 36  1  0
 17 37  1  0
 17 38  1  0
 18 39  1  0
 18 40  1  0
 20 41  1  0
 20 42  1  0
 22 43  1  0
 23 44  1  0
 24 45  1  0
 27 46  1  0
 28 47  1  0
 28 48  1  0
 29 49  1  0
 29 50  1  0
 31 51  1  0
 31 52  1  0
 31 53  1  0
M  CHG  3   6  -1   9  -1  26  -1
M  END
>  <UniqueID>  (36) 
32

>  <SMILES>  (36) 
C=c1c(=Cc2[n-]c(=O)[n-]c2O)cc(C(=O)N2CCN(Cc3cccc([O-])c3)CC2)n1C

>  <Energy>  (36) 
136.43519868943997

>  <Genealogy>  (36) 
C=c1c(=Cc2[n-]c(=O)[n-]c2O)cc(C(=O)N2CCN(Cc3cccc([O-])c3)CC2)n1C (protonated)
C=c1c(=Cc2[n-]c(=O)[n-]c2O)cc(C(=O)N2CCN(Cc3cccc([O-])c3)CC2)n1C (3D coordinates assigned)
C=c1c(=Cc2[n-]c(=O)[n-]c2O)cc(C(=O)N2CCN(Cc3cccc([O-])c3)CC2)n1C (nonaromatic ring conformer: 136.43519868943997 kcal/mol)

>  <smiles>  (36) 
C=c1c(=Cc2[nH]c(=O)[nH]c2O)cc(C(=O)N2CCN(Cc3cccc(O)c3)CC2)n1C

>  <score_type>  (36) 
oracle

>  <origin>  (36) 
adg

>  <m_score__min__energy>  (36) 
-17.539999999999999

>  <m_primary>  (36) 
energy

$$$$
36:0
     RDKit          3D

 62 65  0  0  0  0  0  0  0  0999 V2000
   58.3610   33.2840   48.2090 H   0  0  0  0  0  0  0  0  0  0  0  0
   58.4050   33.8780   47.4150 O   0  0  0  0  0  0  0  0  0  0  0  0
   59.5170   34.7140   47.5930 C   0  0  0  0  0  0  0  0  0  0  0  0
   59.1851   35.7624   47.5683 H   0  0  0  0  0  0  0  0  0  0  0  0
   60.2351   34.5149   46.7839 H   0  0  0  0  0  0  0  0  0  0  0  0
   60.2140   34.4380   48.9440 C   0  0  0  0  0  0  0  0  0  0  0  0
   60.2283   35.3748   49.5204 H   0  0  0  0  0  0  0  0  0  0  0  0
   61.2202   34.0632   48.7050 H   0  0  0  0  0  0  0  0  0  0  0  0
   59.5640   33.3970   49.7710 N   0  0  0  0  0  0  0  0  0  0  0  0
   60.3540   32.1460   49.8710 C   0  0  0  0  0  0  0  0  0  0  0  0
   61.4211   32.4087   49.9181 H   0  0  0  0  0  0  0  0  0  0  0  0
   60.1182   31.5376   48.9854 H   0  0  0  0  0  0  0  0  0  0  0  0
   60.0010   31.3060   51.1120 C   0  0  0  0  0  0  0  0  0  0  0  0
   60.6363   31.6194   51.9536 H   0  0  0  0  0  0  0  0  0  0  0  0
   60.1715   30.2439   50.8821 H   0  0  0  0  0  0  0  0  0  0  0  0
   58.5880   31.4920   51.4770 N   0  0  0  0  0  0  0  0  0  0  0  0
   57.7000   30.3580   51.5870 C   0  0  0  0  0  0  0  0  0  0  0  0
   58.0240   29.2550   51.0720 O   0  0  0  0  0  0  0  0  0  0  0  0
   56.4070   30.4580   52.2980 C   0  0  0  0  0  0  0  0  0  0  0  0
   55.2330   30.8860   51.7130 C   0  0  0  0  0  0  0  0  0  0  0  0
   55.0979   31.1928   50.6653 H   0  0  0  0  0  0  0  0  0  0  0  0
   54.2540   30.8560   52.6980 C   0  0  0  0  0  0  0  0  0  0  0  0
   52.9480   31.1780   52.5640 C   0  0  0  0  0  0  0  0  0  0  0  0
   52.4013   31.4453   53.4804 H   0  0  0  0  0  0  0  0  0  0  0  0
   52.1880   31.2030   51.2940 C   0  0  0  0  0  0  0  0  0  0  0  0
   52.2380   30.2750   50.3210 N   0  0  0  0  0  0  0  0  0  0  0  0
   51.4020   30.7600   49.3770 C   0  0  0  0  0  0  0  0  0  0  0  0
   51.1810   30.1570   48.2950 O   0  0  0  0  0  0  0  0  0  0  0  0
   50.8270   31.9410   49.6830 N   0  0  0  0  0  0  0  0  0  0  0  0
   51.3370   32.2090   50.8960 C   0  0  0  0  0  0  0  0  0  0  0  0
   51.0300   33.3500   51.6260 O   0  0  0  0  0  0  0  0  0  0  0  0
   54.8920   30.4040   53.8600 C   0  0  0  0  0  0  0  0  0  0  0  0
   54.3170   30.2150   55.0600 C   0  0  0  0  0  0  0  0  0  0  0  0
   54.9186   29.8547   55.9075 H   0  0  0  0  0  0  0  0  0  0  0  0
   53.2448   30.4207   55.1946 H   0  0  0  0  0  0  0  0  0  0  0  0
   56.2080   30.1730   53.6070 N   0  0  0  0  0  0  0  0  0  0  0  0
   57.2160   29.6780   54.5600 C   0  0  0  0  0  0  0  0  0  0  0  0
   56.7708   29.6380   55.5651 H   0  0  0  0  0  0  0  0  0  0  0  0
   57.5376   28.6762   54.2390 H   0  0  0  0  0  0  0  0  0  0  0  0
   58.4250   30.5820   54.5920 C   0  0  0  0  0  0  0  0  0  0  0  0
   59.7180   30.0560   54.4260 C   0  0  0  0  0  0  0  0  0  0  0  0
   59.8533   28.9759   54.2678 H   0  0  0  0  0  0  0  0  0  0  0  0
   60.8330   30.8990   54.4610 C   0  0  0  0  0  0  0  0  0  0  0  0
   61.8407   30.4805   54.3221 H   0  0  0  0  0  0  0  0  0  0  0  0
   60.6720   32.2730   54.6720 C   0  0  0  0  0  0  0  0  0  0  0  0
   62.0870   33.3200   54.7130 S   0  0  0  0  0  0  0  0  0  0  0  0
   61.8700   34.4540   55.6750 O   0  0  0  0  0  0  0  0  0  0  0  0
   62.3300   33.8880   53.3420 O   0  0  0  0  0  0  0  0  0  0  0  0
   63.5050   32.3790   55.2330 C   0  0  0  0  0  0  0  0  0  0  0  0
   63.5447   32.3527   56.3320 H   0  0  0  0  0  0  0  0  0  0  0  0
   63.4268   31.3530   54.8442 H   0  0  0  0  0  0  0  0  0  0  0  0
   64.4201   32.8497   54.8442 H   0  0  0  0  0  0  0  0  0  0  0  0
   59.3870   32.8000   54.8630 C   0  0  0  0  0  0  0  0  0  0  0  0
   59.2564   33.8775   55.0415 H   0  0  0  0  0  0  0  0  0  0  0  0
   58.2710   31.9580   54.8270 C   0  0  0  0  0  0  0  0  0  0  0  0
   57.2658   32.3763   54.9838 H   0  0  0  0  0  0  0  0  0  0  0  0
   58.0760   32.8620   51.6380 C   0  0  0  0  0  0  0  0  0  0  0  0
   57.9267   33.0663   52.7085 H   0  0  0  0  0  0  0  0  0  0  0  0
   57.1246   32.9460   51.0923 H   0  0  0  0  0  0  0  0  0  0  0  0
   59.0580   33.8880   51.0650 C   0  0  0  0  0  0  0  0  0  0  0  0
   59.8981   34.0237   51.7620 H   0  0  0  0  0  0  0  0  0  0  0  0
   58.5475   34.8520   50.9229 H   0  0  0  0  0  0  0  0  0  0  0  0
  1  2  1  0
  2  3  1  0
  3  4  1  0
  3  5  1  0
  3  6  1  0
  6  7  1  0
  6  8  1  0
  6  9  1  0
  9 10  1  0
 10 11  1  0
 10 12  1  0
 10 13  1  0
 13 14  1  0
 13 15  1  0
 13 16  1  0
 16 17  1  0
 17 18  2  0
 17 19  1  0
 19 20  2  0
 20 21  1  0
 20 22  1  0
 22 23  2  0
 23 24  1  0
 23 25  1  0
 25 26  1  0
 26 27  1  0
 27 28  2  0
 27 29  1  0
 29 30  1  0
 30 31  1  0
 22 32  1  0
 32 33  2  0
 33 34  1  0
 33 35  1  0
 32 36  1  0
 36 37  1  0
 37 38  1  0
 37 39  1  0
 37 40  1  0
 40 41  2  0
 41 42  1  0
 41 43  1  0
 43 44  1  0
 43 45  2  0
 45 46  1  0
 46 47  2  0
 46 48  2  0
 46 49  1  0
 49 50  1  0
 49 51  1  0
 49 52  1  0
 45 53  1  0
 53 54  1  0
 53 55  2  0
 55 56  1  0
 16 57  1  0
 57 58  1  0
 57 59  1  0
 57 60  1  0
 60 61  1  0
 60 62  1  0
 60  9  1  0
 36 19  1  0
 55 40  1  0
 30 25  2  0
M  CHG  3  26  -1  29  -1  31  -1
M  END
>  <UniqueID>  (37) 
33

>  <SMILES>  (37) 
C=c1/c(=C/c2[n-]c(=O)[n-]c2[O-])cc(C(=O)N2CCN(CCO)CC2)n1Cc1ccc(S(C)(=O)=O)cc1

>  <Energy>  (37) 
138.37284002319586

>  <Genealogy>  (37) 
C=c1c(=Cc2[n-]c(=O)[n-]c2[O-])cc(C(=O)N2CCN(CCO)CC2)n1Cc1ccc(S(C)(=O)=O)cc1 (protonated)
C=c1/c(=C/c2[n-]c(=O)[n-]c2[O-])cc(C(=O)N2CCN(CCO)CC2)n1Cc1ccc(S(C)(=O)=O)cc1 (cis-trans isomerization)
C=c1/c(=C/c2[n-]c(=O)[n-]c2[O-])cc(C(=O)N2CCN(CCO)CC2)n1Cc1ccc(S(C)(=O)=O)cc1 (3D coordinates assigned)
C=c1/c(=C/c2[n-]c(=O)[n-]c2[O-])cc(C(=O)N2CCN(CCO)CC2)n1Cc1ccc(S(C)(=O)=O)cc1 (nonaromatic ring conformer: 138.37284002319586 kcal/mol)

>  <smiles>  (37) 
C=c1c(=Cc2[nH]c(=O)[nH]c2O)cc(C(=O)N2CCN(CCO)CC2)n1Cc1ccc(S(C)(=O)=O)cc1

>  <score_type>  (37) 
oracle

>  <origin>  (37) 
adg

>  <m_score__min__energy>  (37) 
-15.93

>  <m_primary>  (37) 
energy

$$$$
37:0
     RDKit          3D

 67 71  0  0  0  0  0  0  0  0999 V2000
   59.3840   27.3670   47.1630 C   0  0  0  0  0  0  0  0  0  0  0  0
   58.9570   26.3340   46.4150 C   0  0  0  0  0  0  0  0  0  0  0  0
   59.7680   25.2490   46.3770 N   0  0  0  0  0  0  0  0  0  0  0  0
   59.4860   24.1450   45.6540 C   0  0  0  0  0  0  0  0  0  0  0  0
   60.3080   23.1890   45.6640 O   0  0  0  0  0  0  0  0  0  0  0  0
   58.3290   24.0700   44.9310 N   0  0  0  0  0  0  0  0  0  0  0  0
   58.0360   22.8680   44.1190 C   0  0  0  0  0  0  0  0  0  0  0  0
   57.2290   21.8790   44.9200 C   0  0  0  0  0  0  0  0  0  0  0  0
   56.6460   20.7650   44.2890 C   0  0  0  0  0  0  0  0  0  0  0  0
   55.8640   19.8670   45.0240 C   0  0  0  0  0  0  0  0  0  0  0  0
   55.6540   20.0780   46.3890 C   0  0  0  0  0  0  0  0  0  0  0  0
   56.2230   21.1860   47.0240 C   0  0  0  0  0  0  0  0  0  0  0  0
   57.0060   22.0860   46.2930 C   0  0  0  0  0  0  0  0  0  0  0  0
   57.4520   25.1270   44.9340 C   0  0  0  0  0  0  0  0  0  0  0  0
   56.3600   25.0110   44.3120 O   0  0  0  0  0  0  0  0  0  0  0  0
   57.7460   26.3250   45.6550 C   0  0  0  0  0  0  0  0  0  0  0  0
   56.9030   27.4000   45.6380 C   0  0  0  0  0  0  0  0  0  0  0  0
   57.2220   28.7230   45.0660 C   0  0  0  0  0  0  0  0  0  0  0  0
   58.5560   29.0680   44.8020 C   0  0  0  0  0  0  0  0  0  0  0  0
   58.8620   30.3020   44.2240 C   0  0  0  0  0  0  0  0  0  0  0  0
   57.8440   31.2050   43.8980 C   0  0  0  0  0  0  0  0  0  0  0  0
   58.1990   32.4060   43.2630 O   0  0  0  0  0  0  0  0  0  0  0  0
   58.8260   33.5160   43.9070 C   0  0  0  0  0  0  0  0  0  0  0  0
   58.8240   33.3160   45.4000 C   0  0  0  0  0  0  0  0  0  0  0  0
   60.0210   33.0880   46.0950 C   0  0  0  0  0  0  0  0  0  0  0  0
   60.0000   32.8350   47.4700 C   0  0  0  0  0  0  0  0  0  0  0  0
   58.7820   32.8050   48.1710 C   0  0  0  0  0  0  0  0  0  0  0  0
   58.7590   32.5390   49.6270 C   0  0  0  0  0  0  0  0  0  0  0  0
   57.6650   32.2460   50.1860 O   0  0  0  0  0  0  0  0  0  0  0  0
   59.9490   32.6540   50.4230 N   0  0  0  0  0  0  0  0  0  0  0  0
   61.1670   31.9240   50.0370 C   0  0  0  0  0  0  0  0  0  0  0  0
   62.4430   32.6220   50.5650 C   0  0  0  0  0  0  0  0  0  0  0  0
   62.1710   33.7570   51.3690 O   0  0  0  0  0  0  0  0  0  0  0  0
   61.2400   33.4200   52.3760 C   0  0  0  0  0  0  0  0  0  0  0  0
   59.8530   33.2620   51.7550 C   0  0  0  0  0  0  0  0  0  0  0  0
   57.5870   33.0620   47.4780 C   0  0  0  0  0  0  0  0  0  0  0  0
   57.6080   33.3070   46.1020 C   0  0  0  0  0  0  0  0  0  0  0  0
   56.5110   30.8800   44.2100 C   0  0  0  0  0  0  0  0  0  0  0  0
   56.2000   29.6470   44.7940 C   0  0  0  0  0  0  0  0  0  0  0  0
   54.8750   29.3400   45.0850 O   0  0  0  0  0  0  0  0  0  0  0  0
   58.7751   28.2800   47.2386 H   0  0  0  0  0  0  0  0  0  0  0  0
   60.3421   27.2989   47.6991 H   0  0  0  0  0  0  0  0  0  0  0  0
   57.4652   23.1635   43.2263 H   0  0  0  0  0  0  0  0  0  0  0  0
   58.9847   22.3976   43.8213 H   0  0  0  0  0  0  0  0  0  0  0  0
   56.8055   20.5991   43.2133 H   0  0  0  0  0  0  0  0  0  0  0  0
   55.4145   18.9947   44.5269 H   0  0  0  0  0  0  0  0  0  0  0  0
   55.0396   19.3708   46.9654 H   0  0  0  0  0  0  0  0  0  0  0  0
   56.0550   21.3502   48.0986 H   0  0  0  0  0  0  0  0  0  0  0  0
   57.4490   22.9592   46.7943 H   0  0  0  0  0  0  0  0  0  0  0  0
   55.9071   27.2693   46.0863 H   0  0  0  0  0  0  0  0  0  0  0  0
   59.3638   28.3641   45.0511 H   0  0  0  0  0  0  0  0  0  0  0  0
   59.9109   30.5660   44.0236 H   0  0  0  0  0  0  0  0  0  0  0  0
   59.8638   33.6036   43.5529 H   0  0  0  0  0  0  0  0  0  0  0  0
   58.2699   34.4339   43.6656 H   0  0  0  0  0  0  0  0  0  0  0  0
   60.9798   33.1083   45.5562 H   0  0  0  0  0  0  0  0  0  0  0  0
   60.9435   32.6581   48.0071 H   0  0  0  0  0  0  0  0  0  0  0  0
   61.1195   30.9064   50.4519 H   0  0  0  0  0  0  0  0  0  0  0  0
   61.2188   31.8993   48.9385 H   0  0  0  0  0  0  0  0  0  0  0  0
   63.0137   31.8980   51.1652 H   0  0  0  0  0  0  0  0  0  0  0  0
   63.0082   32.9722   49.6887 H   0  0  0  0  0  0  0  0  0  0  0  0
   61.5393   32.4737   52.8503 H   0  0  0  0  0  0  0  0  0  0  0  0
   61.2141   34.2175   53.1332 H   0  0  0  0  0  0  0  0  0  0  0  0
   59.2384   32.6191   52.4022 H   0  0  0  0  0  0  0  0  0  0  0  0
   59.3927   34.2564   51.6583 H   0  0  0  0  0  0  0  0  0  0  0  0
   56.6304   33.0704   48.0209 H   0  0  0  0  0  0  0  0  0  0  0  0
   56.6659   33.4939   45.5657 H   0  0  0  0  0  0  0  0  0  0  0  0
   55.7081   31.6000   43.9934 H   0  0  0  0  0  0  0  0  0  0  0  0
  1  2  2  0
  2  3  1  0
  3  4  1  0
  4  5  2  0
  4  6  1  0
  6  7  1  0
  7  8  1  0
  8  9  2  0
  9 10  1  0
 10 11  2  0
 11 12  1  0
 12 13  2  0
  6 14  1  0
 14 15  2  0
 14 16  1  0
 16 17  2  3
 17 18  1  0
 18 19  2  0
 19 20  1  0
 20 21  2  0
 21 22  1  0
 22 23  1  0
 23 24  1  0
 24 25  2  0
 25 26  1  0
 26 27  2  0
 27 28  1  0
 28 29  2  0
 28 30  1  0
 30 31  1  0
 31 32  1  0
 32 33  1  0
 33 34  1  0
 34 35  1  0
 27 36  1  0
 36 37  2  0
 21 38  1  0
 38 39  2  0
 39 40  1  0
 16  2  1  0
 39 18  1  0
 13  8  1  0
 37 24  1  0
 35 30  1  0
  1 41  1  0
  1 42  1  0
  7 43  1  0
  7 44  1  0
  9 45  1  0
 10 46  1  0
 11 47  1  0
 12 48  1  0
 13 49  1  0
 17 50  1  0
 19 51  1  0
 20 52  1  0
 23 53  1  0
 23 54  1  0
 25 55  1  0
 26 56  1  0
 31 57  1  0
 31 58  1  0
 32 59  1  0
 32 60  1  0
 34 61  1  0
 34 62  1  0
 35 63  1  0
 35 64  1  0
 36 65  1  0
 37 66  1  0
 38 67  1  0
M  CHG  2   3  -1  40  -1
M  END
>  <UniqueID>  (38) 
34

>  <SMILES>  (38) 
C=c1[n-]c(=O)n(Cc2ccccc2)c(=O)c1=Cc1ccc(OCc2ccc(C(=O)N3CCOCC3)cc2)cc1[O-]

>  <Energy>  (38) 
108.00666269739365

>  <Genealogy>  (38) 
C=c1[n-]c(=O)n(Cc2ccccc2)c(=O)c1=Cc1ccc(OCc2ccc(C(=O)N3CCOCC3)cc2)cc1[O-] (protonated)
C=c1[n-]c(=O)n(Cc2ccccc2)c(=O)c1=Cc1ccc(OCc2ccc(C(=O)N3CCOCC3)cc2)cc1[O-] (3D coordinates assigned)
C=c1[n-]c(=O)n(Cc2ccccc2)c(=O)c1=Cc1ccc(OCc2ccc(C(=O)N3CCOCC3)cc2)cc1[O-] (nonaromatic ring conformer: 108.00666269739365 kcal/mol)

>  <smiles>  (38) 
C=c1[nH]c(=O)n(Cc2ccccc2)c(=O)c1=Cc1ccc(OCc2ccc(C(=O)N3CCOCC3)cc2)cc1O

>  <score_type>  (38) 
oracle

>  <origin>  (38) 
adg

>  <m_score__min__energy>  (38) 
-15.01

>  <m_primary>  (38) 
energy

$$$$
38:0
     RDKit          3D

 58 61  0  0  0  0  0  0  0  0999 V2000
   56.2540   23.3840   47.0780 C   0  0  0  0  0  0  0  0  0  0  0  0
   57.3770   24.1710   46.5300 N   0  0  0  0  0  0  0  0  0  0  0  0
   57.5720   23.7790   45.1190 C   0  0  0  0  0  0  0  0  0  0  0  0
   57.1080   25.6330   46.6680 C   0  0  2  0  0  0  0  0  0  0  0  0
   56.6300   26.2880   45.3510 C   0  0  0  0  0  0  0  0  0  0  0  0
   55.8830   27.5150   45.6210 N   0  0  0  0  0  0  0  0  0  0  0  0
   56.1790   28.7860   45.0320 C   0  0  0  0  0  0  0  0  0  0  0  0
   55.3080   29.3400   44.3120 O   0  0  0  0  0  0  0  0  0  0  0  0
   57.4800   29.4530   45.2350 C   0  0  0  0  0  0  0  0  0  0  0  0
   58.6800   28.7690   44.9770 C   0  0  0  0  0  0  0  0  0  0  0  0
   59.9090   29.3990   45.1830 C   0  0  0  0  0  0  0  0  0  0  0  0
   59.9510   30.7190   45.6400 C   0  0  0  0  0  0  0  0  0  0  0  0
   58.7620   31.4220   45.8750 C   0  0  0  0  0  0  0  0  0  0  0  0
   58.8130   33.0690   46.4950 S   0  0  0  0  0  0  0  0  0  0  0  0
   57.4300   33.5310   46.8660 O   0  0  0  0  0  0  0  0  0  0  0  0
   59.3420   33.9950   45.4350 O   0  0  0  0  0  0  0  0  0  0  0  0
   59.8610   33.1290   47.8750 N   0  0  0  0  0  0  0  0  0  0  0  0
   59.3910   33.4530   49.2210 C   0  0  0  0  0  0  0  0  0  0  0  0
   60.6590   33.6870   50.0750 C   0  0  0  0  0  0  0  0  0  0  0  0
   61.7700   33.5300   49.0920 C   0  0  0  0  0  0  0  0  0  0  0  0
   63.1410   33.6770   49.3150 C   0  0  0  0  0  0  0  0  0  0  0  0
   64.0190   33.4950   48.2340 C   0  0  0  0  0  0  0  0  0  0  0  0
   63.5150   33.1720   46.9600 C   0  0  0  0  0  0  0  0  0  0  0  0
   62.1310   33.0260   46.7610 C   0  0  0  0  0  0  0  0  0  0  0  0
   61.2780   33.2170   47.8530 C   0  0  0  0  0  0  0  0  0  0  0  0
   57.5290   30.7890   45.6630 C   0  0  0  0  0  0  0  0  0  0  0  0
   58.3450   26.3850   47.1410 C   0  0  0  0  0  0  0  0  0  0  0  0
   58.2040   27.5810   47.8670 C   0  0  0  0  0  0  0  0  0  0  0  0
   59.3320   28.3100   48.2550 C   0  0  0  0  0  0  0  0  0  0  0  0
   60.6090   27.8580   47.9160 C   0  0  0  0  0  0  0  0  0  0  0  0
   60.7620   26.6790   47.1840 C   0  0  0  0  0  0  0  0  0  0  0  0
   59.6380   25.9480   46.7900 C   0  0  0  0  0  0  0  0  0  0  0  0
   56.2903   23.4095   48.1771 H   0  0  0  0  0  0  0  0  0  0  0  0
   55.3021   23.8137   46.7325 H   0  0  0  0  0  0  0  0  0  0  0  0
   56.3330   22.3426   46.7325 H   0  0  0  0  0  0  0  0  0  0  0  0
   58.0615   22.7949   45.0762 H   0  0  0  0  0  0  0  0  0  0  0  0
   56.5957   23.7251   44.6151 H   0  0  0  0  0  0  0  0  0  0  0  0
   58.2040   24.5251   44.6151 H   0  0  0  0  0  0  0  0  0  0  0  0
   56.3030   25.7060   47.4141 H   0  0  0  0  0  0  0  0  0  0  0  0
   57.5053   26.5284   44.7297 H   0  0  0  0  0  0  0  0  0  0  0  0
   55.9693   25.5820   44.8264 H   0  0  0  0  0  0  0  0  0  0  0  0
   58.6511   27.7321   44.6109 H   0  0  0  0  0  0  0  0  0  0  0  0
   60.8449   28.8558   44.9854 H   0  0  0  0  0  0  0  0  0  0  0  0
   60.9207   31.2077   45.8158 H   0  0  0  0  0  0  0  0  0  0  0  0
   58.7718   34.3620   49.2004 H   0  0  0  0  0  0  0  0  0  0  0  0
   58.7718   32.6438   49.6354 H   0  0  0  0  0  0  0  0  0  0  0  0
   60.6591   34.6967   50.5115 H   0  0  0  0  0  0  0  0  0  0  0  0
   60.7375   32.9953   50.9267 H   0  0  0  0  0  0  0  0  0  0  0  0
   63.5244   33.9296   50.3146 H   0  0  0  0  0  0  0  0  0  0  0  0
   65.1032   33.6051   48.3833 H   0  0  0  0  0  0  0  0  0  0  0  0
   64.2071   33.0332   46.1164 H   0  0  0  0  0  0  0  0  0  0  0  0
   61.7286   32.7678   45.7704 H   0  0  0  0  0  0  0  0  0  0  0  0
   56.5940   31.3429   45.8332 H   0  0  0  0  0  0  0  0  0  0  0  0
   57.2002   27.9451   48.1312 H   0  0  0  0  0  0  0  0  0  0  0  0
   59.2134   29.2413   48.8283 H   0  0  0  0  0  0  0  0  0  0  0  0
   61.4951   28.4313   48.2259 H   0  0  0  0  0  0  0  0  0  0  0  0
   61.7687   26.3250   46.9170 H   0  0  0  0  0  0  0  0  0  0  0  0
   59.7632   25.0264   46.2026 H   0  0  0  0  0  0  0  0  0  0  0  0
  1  2  1  0
  2  3  1  0
  2  4  1  0
  4  5  1  0
  5  6  1  0
  6  7  1  0
  7  8  2  0
  7  9  1  0
  9 10  2  0
 10 11  1  0
 11 12  2  0
 12 13  1  0
 13 14  1  0
 14 15  2  0
 14 16  2  0
 14 17  1  0
 17 18  1  0
 18 19  1  0
 19 20  1  0
 20 21  2  0
 21 22  1  0
 22 23  2  0
 23 24  1  0
 24 25  2  0
 13 26  2  0
  4 27  1  0
 27 28  2  0
 28 29  1  0
 29 30  2  0
 30 31  1  0
 31 32  2  0
 26  9  1  0
 32 27  1  0
 25 17  1  0
 25 20  1  0
  1 33  1  0
  1 34  1  0
  1 35  1  0
  3 36  1  0
  3 37  1  0
  3 38  1  0
  4 39  1  1
  5 40  1  0
  5 41  1  0
 10 42  1  0
 11 43  1  0
 12 44  1  0
 18 45  1  0
 18 46  1  0
 19 47  1  0
 19 48  1  0
 21 49  1  0
 22 50  1  0
 23 51  1  0
 24 52  1  0
 26 53  1  0
 28 54  1  0
 29 55  1  0
 30 56  1  0
 31 57  1  0
 32 58  1  0
M  CHG  1   6  -1
M  END
>  <UniqueID>  (39) 
35

>  <SMILES>  (39) 
CN(C)[C@H](C[N-]C(=O)c1cccc(S(=O)(=O)N2CCc3ccccc32)c1)c1ccccc1

>  <Energy>  (39) 
85.45765626385656

>  <Genealogy>  (39) 
CN(C)C(C[N-]C(=O)c1cccc(S(=O)(=O)N2CCc3ccccc32)c1)c1ccccc1 (protonated)
CN(C)[C@H](C[N-]C(=O)c1cccc(S(=O)(=O)N2CCc3ccccc32)c1)c1ccccc1 (chirality)
CN(C)[C@H](C[N-]C(=O)c1cccc(S(=O)(=O)N2CCc3ccccc32)c1)c1ccccc1 (3D coordinates assigned)
CN(C)[C@H](C[N-]C(=O)c1cccc(S(=O)(=O)N2CCc3ccccc32)c1)c1ccccc1 (nonaromatic ring conformer: 85.45765626385656 kcal/mol)

>  <smiles>  (39) 
CN(C)C(CNC(=O)c1cccc(S(=O)(=O)N2CCc3ccccc32)c1)c1ccccc1

>  <score_type>  (39) 
oracle

>  <origin>  (39) 
adg

>  <m_score__min__energy>  (39) 
-12.17

>  <m_primary>  (39) 
energy

$$$$
39:0
     RDKit          3D

 49 52  0  0  0  0  0  0  0  0999 V2000
   57.6130   20.6580   45.5420 C   0  0  0  0  0  0  0  0  0  0  0  0
   57.3020   22.1240   45.6320 C   0  0  0  0  0  0  0  0  0  0  0  0
   55.9720   22.5670   45.6540 C   0  0  0  0  0  0  0  0  0  0  0  0
   55.6800   23.9320   45.7290 C   0  0  0  0  0  0  0  0  0  0  0  0
   56.7160   24.8830   45.7740 C   0  0  0  0  0  0  0  0  0  0  0  0
   56.4100   26.3310   45.8440 C   0  0  0  0  0  0  0  0  0  0  0  0
   55.2170   26.7150   45.9860 O   0  0  0  0  0  0  0  0  0  0  0  0
   57.4630   27.2960   45.7050 N   0  0  0  0  0  0  0  0  0  0  0  0
   57.3220   28.6510   45.2520 C   0  0  0  0  0  0  0  0  0  0  0  0
   56.3720   29.0120   44.2820 C   0  0  0  0  0  0  0  0  0  0  0  0
   56.2420   30.3450   43.8890 C   0  0  0  0  0  0  0  0  0  0  0  0
   57.0480   31.3290   44.4660 C   0  0  0  0  0  0  0  0  0  0  0  0
   57.9910   30.9910   45.4510 C   0  0  0  0  0  0  0  0  0  0  0  0
   58.8310   32.0540   46.0500 C   0  0  0  0  0  0  0  0  0  0  0  0
   58.6940   33.4220   45.8860 C   0  0  0  0  0  0  0  0  0  0  0  0
   59.6980   33.9970   46.6340 C   0  0  0  0  0  0  0  0  0  0  0  0
   60.3910   32.9480   47.2140 C   0  0  0  0  0  0  0  0  0  0  0  0
   61.5770   33.0310   48.0990 C   0  0  0  0  0  0  0  0  0  0  0  0
   62.7730   32.4170   47.6890 C   0  0  0  0  0  0  0  0  0  0  0  0
   63.9150   32.4790   48.4890 C   0  0  0  0  0  0  0  0  0  0  0  0
   63.8820   33.1500   49.7170 C   0  0  0  0  0  0  0  0  0  0  0  0
   65.3280   33.2040   50.7190 S   0  0  0  0  0  0  0  0  0  0  0  0
   66.7210   32.9350   49.7330 N   0  0  0  0  0  0  0  0  0  0  0  0
   65.4290   34.5520   51.3750 O   0  0  0  0  0  0  0  0  0  0  0  0
   65.2660   32.1480   51.7880 O   0  0  0  0  0  0  0  0  0  0  0  0
   62.6890   33.7490   50.1440 C   0  0  0  0  0  0  0  0  0  0  0  0
   61.5420   33.6920   49.3450 C   0  0  0  0  0  0  0  0  0  0  0  0
   60.3980   34.2470   49.8180 F   0  0  0  0  0  0  0  0  0  0  0  0
   59.8500   31.8090   46.8430 O   0  0  0  0  0  0  0  0  0  0  0  0
   58.1110   29.6450   45.8460 C   0  0  0  0  0  0  0  0  0  0  0  0
   58.0490   24.4350   45.7420 C   0  0  0  0  0  0  0  0  0  0  0  0
   58.3420   23.0690   45.6700 C   0  0  0  0  0  0  0  0  0  0  0  0
   59.6710   22.6580   45.6350 O   0  0  0  0  0  0  0  0  0  0  0  0
   57.7019   20.2391   46.5552 H   0  0  0  0  0  0  0  0  0  0  0  0
   56.8039   20.1440   45.0024 H   0  0  0  0  0  0  0  0  0  0  0  0
   58.5611   20.5168   45.0024 H   0  0  0  0  0  0  0  0  0  0  0  0
   55.1521   21.8349   45.6119 H   0  0  0  0  0  0  0  0  0  0  0  0
   54.6320   24.2653   45.7530 H   0  0  0  0  0  0  0  0  0  0  0  0
   55.7288   28.2420   43.8310 H   0  0  0  0  0  0  0  0  0  0  0  0
   55.5027   30.6213   43.1227 H   0  0  0  0  0  0  0  0  0  0  0  0
   56.9436   32.3765   44.1468 H   0  0  0  0  0  0  0  0  0  0  0  0
   57.9374   33.9436   45.2815 H   0  0  0  0  0  0  0  0  0  0  0  0
   59.9066   35.0711   46.7474 H   0  0  0  0  0  0  0  0  0  0  0  0
   62.8093   31.8824   46.7283 H   0  0  0  0  0  0  0  0  0  0  0  0
   64.8455   31.9982   48.1528 H   0  0  0  0  0  0  0  0  0  0  0  0
   66.4050   32.9880   48.7390 H   0  0  0  0  0  0  0  0  0  0  0  0
   62.6543   34.2673   51.1136 H   0  0  0  0  0  0  0  0  0  0  0  0
   58.8323   29.3706   46.6298 H   0  0  0  0  0  0  0  0  0  0  0  0
   58.8698   25.1666   45.7739 H   0  0  0  0  0  0  0  0  0  0  0  0
  1  2  1  0
  2  3  2  0
  3  4  1  0
  4  5  2  0
  5  6  1  0
  6  7  2  0
  6  8  1  0
  8  9  1  0
  9 10  2  0
 10 11  1  0
 11 12  2  0
 12 13  1  0
 13 14  1  0
 14 15  2  0
 15 16  1  0
 16 17  2  0
 17 18  1  0
 18 19  2  0
 19 20  1  0
 20 21  2  0
 21 22  1  0
 22 23  1  0
 22 24  2  0
 22 25  2  0
 21 26  1  0
 26 27  2  0
 27 28  1  0
 17 29  1  0
 13 30  2  0
  5 31  1  0
 31 32  2  0
 32 33  1  0
 32  2  1  0
 30  9  1  0
 29 14  1  0
 27 18  1  0
  1 34  1  0
  1 35  1  0
  1 36  1  0
  3 37  1  0
  4 38  1  0
 10 39  1  0
 11 40  1  0
 12 41  1  0
 15 42  1  0
 16 43  1  0
 19 44  1  0
 20 45  1  0
 23 46  1  0
 26 47  1  0
 30 48  1  0
 31 49  1  0
M  CHG  3   8  -1  23  -1  33  -1
M  END
>  <UniqueID>  (40) 
36

>  <SMILES>  (40) 
Cc1ccc(C(=O)[N-]c2cccc(-c3ccc(-c4ccc(S([NH-])(=O)=O)cc4F)o3)c2)cc1[O-]

>  <Energy>  (40) 
88.35662195036711

>  <Genealogy>  (40) 
Cc1ccc(C(=O)[N-]c2cccc(-c3ccc(-c4ccc(S([NH-])(=O)=O)cc4F)o3)c2)cc1[O-] (protonated)
Cc1ccc(C(=O)[N-]c2cccc(-c3ccc(-c4ccc(S([NH-])(=O)=O)cc4F)o3)c2)cc1[O-] (3D coordinates assigned)
Cc1ccc(C(=O)[N-]c2cccc(-c3ccc(-c4ccc(S([NH-])(=O)=O)cc4F)o3)c2)cc1[O-] (optimized conformer: 88.35662195036711 kcal/mol)

>  <smiles>  (40) 
Cc1ccc(C(=O)Nc2cccc(-c3ccc(-c4ccc(S(N)(=O)=O)cc4F)o3)c2)cc1O

>  <score_type>  (40) 
oracle

>  <origin>  (40) 
adg

>  <m_score__min__energy>  (40) 
-14.380000000000001

>  <m_primary>  (40) 
energy

$$$$
40:0
     RDKit          3D

 73 76  0  0  0  0  0  0  0  0999 V2000
   58.7069   26.8806   44.6015 H   0  0  0  0  0  0  0  0  0  0  0  0
   57.9680   26.6710   45.3890 C   0  0  0  0  0  0  0  0  0  0  0  0
   57.6840   25.2440   45.6640 C   0  0  0  0  0  0  0  0  0  0  0  0
   58.2180   24.3860   44.9120 O   0  0  0  0  0  0  0  0  0  0  0  0
   56.7940   24.7600   46.7760 C   0  0  0  0  0  0  0  0  0  0  0  0
   56.6340   23.6772   46.6666 H   0  0  0  0  0  0  0  0  0  0  0  0
   57.2786   24.9758   47.7396 H   0  0  0  0  0  0  0  0  0  0  0  0
   55.5390   25.4250   46.7330 O   0  0  0  0  0  0  0  0  0  0  0  0
   54.6800   25.2240   45.6720 N   0  0  0  0  0  0  0  0  0  0  0  0
   53.9100   24.1820   45.5880 C   0  0  0  0  0  0  0  0  0  0  0  0
   52.4730   24.3940   45.2040 C   0  0  0  0  0  0  0  0  0  0  0  0
   51.8601   24.4844   46.1129 H   0  0  0  0  0  0  0  0  0  0  0  0
   52.3845   25.3149   44.6090 H   0  0  0  0  0  0  0  0  0  0  0  0
   52.1223   23.5379   44.6090 H   0  0  0  0  0  0  0  0  0  0  0  0
   54.4540   22.8040   45.9090 C   0  0  0  0  0  0  0  0  0  0  0  0
   54.9178   22.8357   46.9059 H   0  0  0  0  0  0  0  0  0  0  0  0
   53.6077   22.1026   45.8665 H   0  0  0  0  0  0  0  0  0  0  0  0
   55.4830   22.3210   44.9180 C   0  0  0  0  0  0  0  0  0  0  0  0
   55.6080   22.9400   43.6630 C   0  0  0  0  0  0  0  0  0  0  0  0
   54.9299   23.7609   43.3869 H   0  0  0  0  0  0  0  0  0  0  0  0
   56.5920   22.5160   42.7630 C   0  0  0  0  0  0  0  0  0  0  0  0
   56.6817   22.9987   41.7786 H   0  0  0  0  0  0  0  0  0  0  0  0
   57.4620   21.4780   43.1150 C   0  0  0  0  0  0  0  0  0  0  0  0
   58.2357   21.1457   42.4072 H   0  0  0  0  0  0  0  0  0  0  0  0
   57.3490   20.8630   44.3650 C   0  0  0  0  0  0  0  0  0  0  0  0
   58.0342   20.0477   44.6401 H   0  0  0  0  0  0  0  0  0  0  0  0
   56.3660   21.2830   45.2660 C   0  0  0  0  0  0  0  0  0  0  0  0
   56.2828   20.7999   46.2507 H   0  0  0  0  0  0  0  0  0  0  0  0
   57.4220   27.7370   45.9960 C   0  0  0  0  0  0  0  0  0  0  0  0
   56.8814   27.5602   46.9375 H   0  0  0  0  0  0  0  0  0  0  0  0
   57.4880   29.1270   45.5030 C   0  0  0  0  0  0  0  0  0  0  0  0
   56.3330   29.6880   44.9300 C   0  0  0  0  0  0  0  0  0  0  0  0
   55.1500   28.9570   44.8700 O   0  0  0  0  0  0  0  0  0  0  0  0
   56.3520   30.9890   44.4290 C   0  0  0  0  0  0  0  0  0  0  0  0
   55.4378   31.4184   43.9933 H   0  0  0  0  0  0  0  0  0  0  0  0
   57.5190   31.7510   44.4750 C   0  0  0  0  0  0  0  0  0  0  0  0
   57.4750   33.0590   43.9690 O   0  0  0  0  0  0  0  0  0  0  0  0
   57.3620   34.2330   44.7710 C   0  0  0  0  0  0  0  0  0  0  0  0
   57.6030   35.1181   44.1640 H   0  0  0  0  0  0  0  0  0  0  0  0
   56.3341   34.3235   45.1521 H   0  0  0  0  0  0  0  0  0  0  0  0
   58.3200   34.1370   45.9210 C   0  0  0  0  0  0  0  0  0  0  0  0
   57.9310   33.5090   47.1150 C   0  0  0  0  0  0  0  0  0  0  0  0
   56.9105   33.1115   47.2178 H   0  0  0  0  0  0  0  0  0  0  0  0
   58.8360   33.3870   48.1740 C   0  0  0  0  0  0  0  0  0  0  0  0
   58.5238   32.9029   49.1111 H   0  0  0  0  0  0  0  0  0  0  0  0
   60.1370   33.8800   48.0420 C   0  0  0  0  0  0  0  0  0  0  0  0
   60.8464   33.7891   48.8777 H   0  0  0  0  0  0  0  0  0  0  0  0
   60.5380   34.4890   46.8480 C   0  0  0  0  0  0  0  0  0  0  0  0
   61.5642   34.8712   46.7433 H   0  0  0  0  0  0  0  0  0  0  0  0
   59.6350   34.6120   45.7880 C   0  0  0  0  0  0  0  0  0  0  0  0
   59.9554   35.0823   44.8467 H   0  0  0  0  0  0  0  0  0  0  0  0
   58.6860   31.1910   45.0220 C   0  0  0  0  0  0  0  0  0  0  0  0
   59.6064   31.7920   45.0642 H   0  0  0  0  0  0  0  0  0  0  0  0
   58.6960   29.8700   45.5180 C   0  0  0  0  0  0  0  0  0  0  0  0
   59.9480   29.2810   46.0720 C   0  0  0  0  0  0  0  0  0  0  0  0
   60.6090   28.7206   45.3944 H   0  0  0  0  0  0  0  0  0  0  0  0
   60.3060   29.4030   47.3600 C   0  0  0  0  0  0  0  0  0  0  0  0
   59.8643   28.6976   48.0793 H   0  0  0  0  0  0  0  0  0  0  0  0
   61.2540   30.4190   47.8880 C   0  0  0  0  0  0  0  0  0  0  0  0
   61.3250   30.5950   49.2810 C   0  0  0  0  0  0  0  0  0  0  0  0
   60.6781   29.9946   49.9375 H   0  0  0  0  0  0  0  0  0  0  0  0
   62.2070   31.5230   49.8430 C   0  0  0  0  0  0  0  0  0  0  0  0
   62.2486   31.6466   50.9352 H   0  0  0  0  0  0  0  0  0  0  0  0
   63.0410   32.2990   49.0190 C   0  0  0  0  0  0  0  0  0  0  0  0
   63.9440   33.2420   49.5340 O   0  0  0  0  0  0  0  0  0  0  0  0
   65.2730   32.9370   49.9500 C   0  0  0  0  0  0  0  0  0  0  0  0
   65.3199   32.9262   51.0489 H   0  0  0  0  0  0  0  0  0  0  0  0
   65.5614   31.9493   49.5610 H   0  0  0  0  0  0  0  0  0  0  0  0
   65.9632   33.7001   49.5610 H   0  0  0  0  0  0  0  0  0  0  0  0
   62.9760   32.1290   47.6330 C   0  0  0  0  0  0  0  0  0  0  0  0
   63.6223   32.7339   46.9800 H   0  0  0  0  0  0  0  0  0  0  0  0
   62.0980   31.1980   47.0670 C   0  0  0  0  0  0  0  0  0  0  0  0
   62.0652   31.0722   45.9747 H   0  0  0  0  0  0  0  0  0  0  0  0
  1  2  1  0
  2  3  1  0
  3  4  2  0
  3  5  1  0
  5  6  1  0
  5  7  1  0
  5  8  1  0
  8  9  1  0
  9 10  2  3
 10 11  1  0
 11 12  1  0
 11 13  1  0
 11 14  1  0
 10 15  1  0
 15 16  1  0
 15 17  1  0
 15 18  1  0
 18 19  2  0
 19 20  1  0
 19 21  1  0
 21 22  1  0
 21 23  2  0
 23 24  1  0
 23 25  1  0
 25 26  1  0
 25 27  2  0
 27 28  1  0
  2 29  2  3
 29 30  1  0
 29 31  1  0
 31 32  2  0
 32 33  1  0
 32 34  1  0
 34 35  1  0
 34 36  2  0
 36 37  1  0
 37 38  1  0
 38 39  1  0
 38 40  1  0
 38 41  1  0
 41 42  2  0
 42 43  1  0
 42 44  1  0
 44 45  1  0
 44 46  2  0
 46 47  1  0
 46 48  1  0
 48 49  1  0
 48 50  2  0
 50 51  1  0
 36 52  1  0
 52 53  1  0
 52 54  2  0
 54 55  1  0
 55 56  1  0
 55 57  2  0
 57 58  1  0
 57 59  1  0
 59 60  2  0
 60 61  1  0
 60 62  1  0
 62 63  1  0
 62 64  2  0
 64 65  1  0
 65 66  1  0
 66 67  1  0
 66 68  1  0
 66 69  1  0
 64 70  1  0
 70 71  1  0
 70 72  2  0
 72 73  1  0
 27 18  1  0
 54 31  1  0
 72 59  1  0
 50 41  1  0
M  CHG  1  33  -1
M  END
>  <UniqueID>  (41) 
37

>  <SMILES>  (41) 
COc1ccc(/C=C/c2cc(OCc3ccccc3)cc([O-])c2C=CC(=O)CON=C(C)Cc2ccccc2)cc1

>  <Energy>  (41) 
88.80715202939348

>  <Genealogy>  (41) 
COc1ccc(C=Cc2cc(OCc3ccccc3)cc([O-])c2C=CC(=O)CON=C(C)Cc2ccccc2)cc1 (protonated)
COc1ccc(/C=C/c2cc(OCc3ccccc3)cc([O-])c2C=CC(=O)CON=C(C)Cc2ccccc2)cc1 (cis-trans isomerization)
COc1ccc(/C=C/c2cc(OCc3ccccc3)cc([O-])c2C=CC(=O)CON=C(C)Cc2ccccc2)cc1 (3D coordinates assigned)
COc1ccc(/C=C/c2cc(OCc3ccccc3)cc([O-])c2C=CC(=O)CON=C(C)Cc2ccccc2)cc1 (optimized conformer: 88.80715202939348 kcal/mol)

>  <smiles>  (41) 
COc1ccc(C=Cc2cc(OCc3ccccc3)cc(O)c2C=CC(=O)CON=C(C)Cc2ccccc2)cc1

>  <score_type>  (41) 
oracle

>  <origin>  (41) 
adg

>  <m_score__min__energy>  (41) 
-13.92

>  <m_primary>  (41) 
energy

$$$$
41:0
     RDKit          3D

 44 46  0  0  0  0  0  0  0  0999 V2000
   61.4590   32.3810   47.2450 O   0  0  0  0  0  0  0  0  0  0  0  0
   60.4110   32.3180   46.5480 C   0  0  0  0  0  0  0  0  0  0  0  0
   59.7610   33.5790   46.0800 C   0  0  0  0  0  0  0  0  0  0  0  0
   57.9980   33.5540   46.5350 S   0  0  0  0  0  0  0  0  0  0  0  0
   57.5360   32.5560   45.1250 C   0  0  0  0  0  0  0  0  0  0  0  0
   57.8040   32.8850   43.8480 N   0  0  0  0  0  0  0  0  0  0  0  0
   57.3040   31.9110   43.1050 N   0  0  0  0  0  0  0  0  0  0  0  0
   56.7490   31.0320   43.9600 C   0  0  0  0  0  0  0  0  0  0  0  0
   56.0590   29.7740   43.5380 C   0  0  0  0  0  0  0  0  0  0  0  0
   55.7500   28.9420   44.6980 N   0  0  0  0  0  0  0  0  0  0  0  0
   56.7260   28.3560   45.5700 C   0  0  0  0  0  0  0  0  0  0  0  0
   57.3820   29.1010   46.3450 O   0  0  0  0  0  0  0  0  0  0  0  0
   56.9510   26.9010   45.6110 C   0  0  0  0  0  0  0  0  0  0  0  0
   56.5480   26.1820   46.7460 C   0  0  0  0  0  0  0  0  0  0  0  0
   56.7170   24.7960   46.7980 C   0  0  0  0  0  0  0  0  0  0  0  0
   57.3000   24.1220   45.7230 C   0  0  0  0  0  0  0  0  0  0  0  0
   57.7200   24.8310   44.5960 C   0  0  0  0  0  0  0  0  0  0  0  0
   57.5510   26.2200   44.5330 C   0  0  0  0  0  0  0  0  0  0  0  0
   58.1340   27.0800   43.1110 Cl  0  0  0  0  0  0  0  0  0  0  0  0
   56.8910   31.4190   45.2040 O   0  0  0  0  0  0  0  0  0  0  0  0
   59.8200   31.0480   46.2370 N   0  0  0  0  0  0  0  0  0  0  0  0
   60.3950   29.7860   46.7160 C   0  0  0  0  0  0  0  0  0  0  0  0
   59.6890   29.2880   47.9730 C   0  0  0  0  0  0  0  0  0  0  0  0
   59.7520   27.7620   47.9200 C   0  0  0  0  0  0  0  0  0  0  0  0
   60.2600   27.3850   46.5300 C   0  0  0  0  0  0  0  0  0  0  0  0
   60.2250   28.6610   45.7040 C   0  0  0  0  0  0  0  0  0  0  0  0
   60.2505   34.4424   46.5544 H   0  0  0  0  0  0  0  0  0  0  0  0
   59.8578   33.6592   44.9872 H   0  0  0  0  0  0  0  0  0  0  0  0
   55.1241   30.0314   43.0187 H   0  0  0  0  0  0  0  0  0  0  0  0
   56.7255   29.2125   42.8669 H   0  0  0  0  0  0  0  0  0  0  0  0
   56.0972   26.7113   47.5984 H   0  0  0  0  0  0  0  0  0  0  0  0
   56.3906   24.2354   47.6864 H   0  0  0  0  0  0  0  0  0  0  0  0
   57.4286   23.0303   45.7642 H   0  0  0  0  0  0  0  0  0  0  0  0
   58.1853   24.2968   43.7545 H   0  0  0  0  0  0  0  0  0  0  0  0
   58.9780   31.0330   45.6170 H   0  0  0  0  0  0  0  0  0  0  0  0
   61.4560   30.0112   46.8993 H   0  0  0  0  0  0  0  0  0  0  0  0
   60.2026   29.6600   48.8718 H   0  0  0  0  0  0  0  0  0  0  0  0
   58.6496   29.6453   48.0177 H   0  0  0  0  0  0  0  0  0  0  0  0
   60.4419   27.3853   48.6895 H   0  0  0  0  0  0  0  0  0  0  0  0
   58.7622   27.3211   48.1096 H   0  0  0  0  0  0  0  0  0  0  0  0
   61.2882   26.9990   46.5917 H   0  0  0  0  0  0  0  0  0  0  0  0
   59.6398   26.5976   46.0769 H   0  0  0  0  0  0  0  0  0  0  0  0
   61.0461   28.6712   44.9721 H   0  0  0  0  0  0  0  0  0  0  0  0
   59.2919   28.7576   45.1295 H   0  0  0  0  0  0  0  0  0  0  0  0
  1  2  2  0
  2  3  1  0
  3  4  1  0
  4  5  1  0
  5  6  2  0
  6  7  1  0
  7  8  2  0
  8  9  1  0
  9 10  1  0
 10 11  1  0
 11 12  2  0
 11 13  1  0
 13 14  2  0
 14 15  1  0
 15 16  2  0
 16 17  1  0
 17 18  2  0
 18 19  1  0
  8 20  1  0
  2 21  1  0
 21 22  1  0
 22 23  1  0
 23 24  1  0
 24 25  1  0
 25 26  1  0
 20  5  1  0
 26 22  1  0
 18 13  1  0
  3 27  1  0
  3 28  1  0
  9 29  1  0
  9 30  1  0
 14 31  1  0
 15 32  1  0
 16 33  1  0
 17 34  1  0
 21 35  1  0
 22 36  1  0
 23 37  1  0
 23 38  1  0
 24 39  1  0
 24 40  1  0
 25 41  1  0
 25 42  1  0
 26 43  1  0
 26 44  1  0
M  CHG  1  10  -1
M  END
>  <UniqueID>  (42) 
38

>  <SMILES>  (42) 
O=C(CSc1nnc(C[N-]C(=O)c2ccccc2Cl)o1)NC1CCCC1

>  <Energy>  (42) 
76.21571618400101

>  <Genealogy>  (42) 
O=C(CSc1nnc(C[N-]C(=O)c2ccccc2Cl)o1)NC1CCCC1 (protonated)
O=C(CSc1nnc(C[N-]C(=O)c2ccccc2Cl)o1)NC1CCCC1 (3D coordinates assigned)
O=C(CSc1nnc(C[N-]C(=O)c2ccccc2Cl)o1)NC1CCCC1 (nonaromatic ring conformer: 76.21571618400101 kcal/mol)

>  <smiles>  (42) 
O=C(CSc1nnc(CNC(=O)c2ccccc2Cl)o1)NC1CCCC1

>  <score_type>  (42) 
oracle

>  <origin>  (42) 
adg

>  <m_score__min__energy>  (42) 
-11.16

>  <m_primary>  (42) 
energy

$$$$
42:0
     RDKit          3D

 61 64  0  0  0  0  0  0  0  0999 V2000
   62.5160   29.1240   52.2620 C   0  0  0  0  0  0  0  0  0  0  0  0
   61.7200   29.4840   51.2410 C   0  0  0  0  0  0  0  0  0  0  0  0
   61.4890   28.5340   50.2940 N   0  0  0  0  0  0  0  0  0  0  0  0
   60.7010   28.7400   49.2090 C   0  0  0  0  0  0  0  0  0  0  0  0
   60.5250   27.7360   48.2480 O   0  0  0  0  0  0  0  0  0  0  0  0
   59.7820   27.9040   47.0730 C   0  0  0  0  0  0  0  0  0  0  0  0
   60.3670   28.4190   45.9050 C   0  0  0  0  0  0  0  0  0  0  0  0
   59.5900   28.6300   44.7630 C   0  0  0  0  0  0  0  0  0  0  0  0
   58.2190   28.3270   44.7740 C   0  0  0  0  0  0  0  0  0  0  0  0
   57.3470   28.7580   43.6280 C   0  0  0  0  0  0  0  0  0  0  0  0
   56.2160   29.5710   44.1710 C   0  0  0  0  0  0  0  0  0  0  0  0
   55.1630   29.0050   44.5680 O   0  0  0  0  0  0  0  0  0  0  0  0
   56.2830   30.9990   44.1220 N   0  0  0  0  0  0  0  0  0  0  0  0
   57.2250   31.7800   44.8710 C   0  0  0  0  0  0  0  0  0  0  0  0
   57.4650   33.1050   44.4890 C   0  0  0  0  0  0  0  0  0  0  0  0
   58.3200   33.9140   45.2430 C   0  0  0  0  0  0  0  0  0  0  0  0
   58.9320   33.4120   46.4000 C   0  0  0  0  0  0  0  0  0  0  0  0
   59.9900   34.4420   47.3680 S   0  0  0  0  0  0  0  0  0  0  0  0
   59.2450   34.9040   48.5910 O   0  0  0  0  0  0  0  0  0  0  0  0
   60.3660   35.6560   46.5660 O   0  0  0  0  0  0  0  0  0  0  0  0
   61.4470   33.6020   47.8450 N   0  0  0  0  0  0  0  0  0  0  0  0
   62.0640   34.2680   49.0020 C   0  0  0  0  0  0  0  0  0  0  0  0
   63.1980   33.4000   49.5790 C   0  0  0  0  0  0  0  0  0  0  0  0
   63.7940   32.4410   48.5330 C   0  0  0  0  0  0  0  0  0  0  0  0
   63.8030   33.0770   47.1410 C   0  0  0  0  0  0  0  0  0  0  0  0
   62.3900   33.5300   46.7080 C   0  0  0  0  0  0  0  0  0  0  0  0
   58.6890   32.0890   46.7890 C   0  0  0  0  0  0  0  0  0  0  0  0
   57.8500   31.2730   46.0260 C   0  0  0  0  0  0  0  0  0  0  0  0
   57.6470   27.7710   45.9310 C   0  0  0  0  0  0  0  0  0  0  0  0
   58.4300   27.5450   47.0660 C   0  0  0  0  0  0  0  0  0  0  0  0
   60.0910   29.9730   49.0280 C   0  0  0  0  0  0  0  0  0  0  0  0
   60.2760   30.9930   49.9630 C   0  0  0  0  0  0  0  0  0  0  0  0
   59.6000   32.1920   49.7090 O   0  0  0  0  0  0  0  0  0  0  0  0
   61.1140   30.7780   51.1000 C   0  0  0  0  0  0  0  0  0  0  0  0
   61.3240   31.7670   51.9950 C   0  0  0  0  0  0  0  0  0  0  0  0
   62.7438   29.8438   53.0620 H   0  0  0  0  0  0  0  0  0  0  0  0
   62.9398   28.1095   52.2978 H   0  0  0  0  0  0  0  0  0  0  0  0
   61.4408   28.6572   45.8890 H   0  0  0  0  0  0  0  0  0  0  0  0
   60.0542   29.0351   43.8517 H   0  0  0  0  0  0  0  0  0  0  0  0
   57.9343   29.3642   42.9226 H   0  0  0  0  0  0  0  0  0  0  0  0
   56.9567   27.8758   43.0993 H   0  0  0  0  0  0  0  0  0  0  0  0
   56.9781   33.5119   43.5905 H   0  0  0  0  0  0  0  0  0  0  0  0
   58.5136   34.9497   44.9269 H   0  0  0  0  0  0  0  0  0  0  0  0
   62.4752   35.2379   48.6852 H   0  0  0  0  0  0  0  0  0  0  0  0
   61.2987   34.4173   49.7779 H   0  0  0  0  0  0  0  0  0  0  0  0
   63.9963   34.0611   49.9473 H   0  0  0  0  0  0  0  0  0  0  0  0
   62.7735   32.7897   50.3897 H   0  0  0  0  0  0  0  0  0  0  0  0
   64.8262   32.1927   48.8208 H   0  0  0  0  0  0  0  0  0  0  0  0
   63.1725   31.5341   48.4977 H   0  0  0  0  0  0  0  0  0  0  0  0
   64.4693   33.9522   47.1537 H   0  0  0  0  0  0  0  0  0  0  0  0
   64.1554   32.3224   46.4224 H   0  0  0  0  0  0  0  0  0  0  0  0
   62.4643   34.5261   46.2472 H   0  0  0  0  0  0  0  0  0  0  0  0
   62.0022   32.7848   45.9978 H   0  0  0  0  0  0  0  0  0  0  0  0
   59.1607   31.6904   47.6993 H   0  0  0  0  0  0  0  0  0  0  0  0
   57.6770   30.2298   46.3291 H   0  0  0  0  0  0  0  0  0  0  0  0
   56.5779   27.5125   45.9432 H   0  0  0  0  0  0  0  0  0  0  0  0
   57.9814   27.0829   47.9577 H   0  0  0  0  0  0  0  0  0  0  0  0
   59.4593   30.1474   48.1445 H   0  0  0  0  0  0  0  0  0  0  0  0
   60.0180   33.0400   49.3540 H   0  0  0  0  0  0  0  0  0  0  0  0
   61.9710   31.5913   52.8671 H   0  0  0  0  0  0  0  0  0  0  0  0
   60.8481   32.7484   51.8520 H   0  0  0  0  0  0  0  0  0  0  0  0
  1  2  2  0
  2  3  1  0
  3  4  2  0
  4  5  1  0
  5  6  1  0
  6  7  2  0
  7  8  1  0
  8  9  2  0
  9 10  1  0
 10 11  1  0
 11 12  2  0
 11 13  1  0
 13 14  1  0
 14 15  2  0
 15 16  1  0
 16 17  2  0
 17 18  1  0
 18 19  2  0
 18 20  2  0
 18 21  1  0
 21 22  1  0
 22 23  1  0
 23 24  1  0
 24 25  1  0
 25 26  1  0
 17 27  1  0
 27 28  2  0
  9 29  1  0
 29 30  2  0
  4 31  1  0
 31 32  2  0
 32 33  1  0
 32 34  1  0
 34 35  2  0
 34  2  1  0
 30  6  1  0
 28 14  1  0
 26 21  1  0
  1 36  1  0
  1 37  1  0
  7 38  1  0
  8 39  1  0
 10 40  1  0
 10 41  1  0
 15 42  1  0
 16 43  1  0
 22 44  1  0
 22 45  1  0
 23 46  1  0
 23 47  1  0
 24 48  1  0
 24 49  1  0
 25 50  1  0
 25 51  1  0
 26 52  1  0
 26 53  1  0
 27 54  1  0
 28 55  1  0
 29 56  1  0
 30 57  1  0
 31 58  1  0
 33 59  1  0
 35 60  1  0
 35 61  1  0
M  CHG  1  13  -1
M  END
>  <UniqueID>  (43) 
39

>  <SMILES>  (43) 
C=c1nc(Oc2ccc(CC(=O)[N-]c3ccc(S(=O)(=O)N4CCCCC4)cc3)cc2)cc(O)c1=C

>  <Energy>  (43) 
85.72694897191491

>  <Genealogy>  (43) 
C=c1nc(Oc2ccc(CC(=O)[N-]c3ccc(S(=O)(=O)N4CCCCC4)cc3)cc2)cc(O)c1=C (protonated)
C=c1nc(Oc2ccc(CC(=O)[N-]c3ccc(S(=O)(=O)N4CCCCC4)cc3)cc2)cc(O)c1=C (3D coordinates assigned)
C=c1nc(Oc2ccc(CC(=O)[N-]c3ccc(S(=O)(=O)N4CCCCC4)cc3)cc2)cc(O)c1=C (nonaromatic ring conformer: 85.72694897191491 kcal/mol)

>  <smiles>  (43) 
C=c1nc(Oc2ccc(CC(=O)Nc3ccc(S(=O)(=O)N4CCCCC4)cc3)cc2)cc(O)c1=C

>  <score_type>  (43) 
oracle

>  <origin>  (43) 
adg

>  <m_score__min__energy>  (43) 
-11.109999999999999

>  <m_primary>  (43) 
energy

$$$$
43:0
     RDKit          3D

 73 77  0  0  0  0  0  0  0  0999 V2000
   59.1070   29.0050   54.8260 C   0  0  0  0  0  0  0  0  0  0  0  0
   58.3890   30.2890   54.7510 N   0  0  0  0  0  0  0  0  0  0  0  0
   57.1320   30.1660   53.9850 C   0  0  0  0  0  0  0  0  0  0  0  0
   57.3890   30.0190   52.4780 C   0  0  0  0  0  0  0  0  0  0  0  0
   58.3890   30.9900   52.0160 N   0  0  0  0  0  0  0  0  0  0  0  0
   58.5980   31.1710   50.6040 C   0  0  0  0  0  0  0  0  0  0  0  0
   58.2150   32.3760   49.9940 C   0  0  0  0  0  0  0  0  0  0  0  0
   58.4610   32.5970   48.6390 C   0  0  0  0  0  0  0  0  0  0  0  0
   59.1080   31.6210   47.8680 C   0  0  0  0  0  0  0  0  0  0  0  0
   59.3520   31.8460   46.4250 C   0  0  0  0  0  0  0  0  0  0  0  0
   59.5470   33.0190   46.0020 O   0  0  0  0  0  0  0  0  0  0  0  0
   59.4020   30.7490   45.4970 N   0  0  0  0  0  0  0  0  0  0  0  0
   60.4310   29.7110   45.6050 C   0  0  0  0  0  0  0  0  0  0  0  0
   59.9700   28.4040   44.9500 C   0  0  0  0  0  0  0  0  0  0  0  0
   58.8520   27.7090   45.7390 C   0  0  0  0  0  0  0  0  0  0  0  0
   57.5340   28.4950   45.7180 C   0  0  0  0  0  0  0  0  0  0  0  0
   57.4730   29.4900   44.5830 C   0  0  0  0  0  0  0  0  0  0  0  0
   56.4810   29.3580   43.5940 C   0  0  0  0  0  0  0  0  0  0  0  0
   56.3580   30.3130   42.5810 C   0  0  0  0  0  0  0  0  0  0  0  0
   57.2140   31.4140   42.5510 C   0  0  0  0  0  0  0  0  0  0  0  0
   58.2040   31.5580   43.5250 C   0  0  0  0  0  0  0  0  0  0  0  0
   58.3470   30.5980   44.5360 C   0  0  0  0  0  0  0  0  0  0  0  0
   59.4890   30.4130   48.4730 C   0  0  0  0  0  0  0  0  0  0  0  0
   59.2560   30.1860   49.8430 C   0  0  0  0  0  0  0  0  0  0  0  0
   59.6220   28.9350   50.4460 N   0  0  0  0  0  0  0  0  0  0  0  0
   60.9620   28.4260   50.4800 C   0  0  0  0  0  0  0  0  0  0  0  0
   61.1870   27.2280   50.1650 O   0  0  0  0  0  0  0  0  0  0  0  0
   62.0580   29.2420   50.9100 N   0  0  0  0  0  0  0  0  0  0  0  0
   62.2480   30.6420   50.6660 C   0  0  0  0  0  0  0  0  0  0  0  0
   62.1510   31.5960   51.6900 C   0  0  0  0  0  0  0  0  0  0  0  0
   62.3100   32.9530   51.4010 C   0  0  0  0  0  0  0  0  0  0  0  0
   62.5560   33.3720   50.0920 C   0  0  0  0  0  0  0  0  0  0  0  0
   62.6290   32.4350   49.0500 C   0  0  0  0  0  0  0  0  0  0  0  0
   62.8760   32.8830   47.6560 C   0  0  0  0  0  0  0  0  0  0  0  0
   64.2200   33.0410   47.1860 N   0  0  0  0  0  0  0  0  0  0  0  0
   61.8820   33.1470   46.8580 N   0  0  0  0  0  0  0  0  0  0  0  0
   62.4650   31.0690   49.3480 C   0  0  0  0  0  0  0  0  0  0  0  0
   58.8810   32.0140   52.9400 C   0  0  0  0  0  0  0  0  0  0  0  0
   59.2720   31.3970   54.2960 C   0  0  0  0  0  0  0  0  0  0  0  0
   59.2599   28.7315   55.8804 H   0  0  0  0  0  0  0  0  0  0  0  0
   58.5147   28.2240   54.3268 H   0  0  0  0  0  0  0  0  0  0  0  0
   60.0825   29.1007   54.3268 H   0  0  0  0  0  0  0  0  0  0  0  0
   56.5849   29.2802   54.3401 H   0  0  0  0  0  0  0  0  0  0  0  0
   56.5470   31.0842   54.1421 H   0  0  0  0  0  0  0  0  0  0  0  0
   57.7543   29.0018   52.2732 H   0  0  0  0  0  0  0  0  0  0  0  0
   56.4465   30.2059   51.9426 H   0  0  0  0  0  0  0  0  0  0  0  0
   57.7159   33.1537   50.5907 H   0  0  0  0  0  0  0  0  0  0  0  0
   58.1457   33.5421   48.1728 H   0  0  0  0  0  0  0  0  0  0  0  0
   61.3465   30.0597   45.1047 H   0  0  0  0  0  0  0  0  0  0  0  0
   60.6213   29.5184   46.6712 H   0  0  0  0  0  0  0  0  0  0  0  0
   59.6000   28.6284   43.9387 H   0  0  0  0  0  0  0  0  0  0  0  0
   60.8328   27.7221   44.9251 H   0  0  0  0  0  0  0  0  0  0  0  0
   58.6764   26.7160   45.2996 H   0  0  0  0  0  0  0  0  0  0  0  0
   59.1797   27.6386   46.7867 H   0  0  0  0  0  0  0  0  0  0  0  0
   56.7011   27.7846   45.6098 H   0  0  0  0  0  0  0  0  0  0  0  0
   57.4650   29.0579   46.6606 H   0  0  0  0  0  0  0  0  0  0  0  0
   55.7971   28.4967   43.6183 H   0  0  0  0  0  0  0  0  0  0  0  0
   55.5855   30.1963   41.8067 H   0  0  0  0  0  0  0  0  0  0  0  0
   57.1089   32.1699   41.7588 H   0  0  0  0  0  0  0  0  0  0  0  0
   58.8750   32.4292   43.4987 H   0  0  0  0  0  0  0  0  0  0  0  0
   59.9760   29.6334   47.8688 H   0  0  0  0  0  0  0  0  0  0  0  0
   61.9493   31.2746   52.7225 H   0  0  0  0  0  0  0  0  0  0  0  0
   62.2410   33.6960   52.2092 H   0  0  0  0  0  0  0  0  0  0  0  0
   62.6933   34.4419   49.8765 H   0  0  0  0  0  0  0  0  0  0  0  0
   65.0340   32.7570   47.7760 H   0  0  0  0  0  0  0  0  0  0  0  0
   64.4100   33.4020   46.2240 H   0  0  0  0  0  0  0  0  0  0  0  0
   61.7040   32.5580   46.0150 H   0  0  0  0  0  0  0  0  0  0  0  0
   61.2530   33.9650   47.0170 H   0  0  0  0  0  0  0  0  0  0  0  0
   62.5076   30.3272   48.5368 H   0  0  0  0  0  0  0  0  0  0  0  0
   59.7634   32.5011   52.4994 H   0  0  0  0  0  0  0  0  0  0  0  0
   58.0780   32.7467   53.1086 H   0  0  0  0  0  0  0  0  0  0  0  0
   60.2969   31.0064   54.2123 H   0  0  0  0  0  0  0  0  0  0  0  0
   59.1751   32.1990   55.0426 H   0  0  0  0  0  0  0  0  0  0  0  0
  1  2  1  0
  2  3  1  0
  3  4  1  0
  4  5  1  0
  5  6  1  0
  6  7  2  0
  7  8  1  0
  8  9  2  0
  9 10  1  0
 10 11  2  0
 10 12  1  0
 12 13  1  0
 13 14  1  0
 14 15  1  0
 15 16  1  0
 16 17  1  0
 17 18  2  0
 18 19  1  0
 19 20  2  0
 20 21  1  0
 21 22  2  0
  9 23  1  0
 23 24  2  0
 24 25  1  0
 25 26  1  0
 26 27  2  0
 26 28  1  0
 28 29  1  0
 29 30  2  0
 30 31  1  0
 31 32  2  0
 32 33  1  0
 33 34  1  0
 34 35  1  0
 34 36  2  0
 33 37  2  0
  5 38  1  0
 38 39  1  0
 39  2  1  0
 24  6  1  0
 37 29  1  0
 22 12  1  0
 22 17  1  0
  1 40  1  0
  1 41  1  0
  1 42  1  0
  3 43  1  0
  3 44  1  0
  4 45  1  0
  4 46  1  0
  7 47  1  0
  8 48  1  0
 13 49  1  0
 13 50  1  0
 14 51  1  0
 14 52  1  0
 15 53  1  0
 15 54  1  0
 16 55  1  0
 16 56  1  0
 18 57  1  0
 19 58  1  0
 20 59  1  0
 21 60  1  0
 23 61  1  0
 30 62  1  0
 31 63  1  0
 32 64  1  0
 35 65  1  0
 35 66  1  0
 36 67  1  0
 36 68  1  0
 37 69  1  0
 38 70  1  0
 38 71  1  0
 39 72  1  0
 39 73  1  0
M  CHG  3  25  -1  28  -1  36   1
M  END
>  <UniqueID>  (44) 
40

>  <SMILES>  (44) 
CN1CCN(c2ccc(C(=O)N3CCCCc4ccccc43)cc2[N-]C(=O)[N-]c2cccc(C(N)=[NH2+])c2)CC1

>  <Energy>  (44) 
109.24206077391406

>  <Genealogy>  (44) 
CN1CCN(c2ccc(C(=O)N3CCCCc4ccccc43)cc2[N-]C(=O)[N-]c2cccc(C(N)=[NH2+])c2)CC1 (protonated)
CN1CCN(c2ccc(C(=O)N3CCCCc4ccccc43)cc2[N-]C(=O)[N-]c2cccc(C(N)=[NH2+])c2)CC1 (3D coordinates assigned)
CN1CCN(c2ccc(C(=O)N3CCCCc4ccccc43)cc2[N-]C(=O)[N-]c2cccc(C(N)=[NH2+])c2)CC1 (nonaromatic ring conformer: 109.24206077391406 kcal/mol)

>  <smiles>  (44) 
CN1CCN(c2ccc(C(=O)N3CCCCc4ccccc43)cc2NC(=O)Nc2cccc(C(=N)N)c2)CC1

>  <score_type>  (44) 
oracle

>  <origin>  (44) 
adg

>  <m_score__min__energy>  (44) 
-8.7899999999999991

>  <m_primary>  (44) 
energy

$$$$
44:0
     RDKit          3D

 49 51  0  0  0  0  0  0  0  0999 V2000
   62.0640   33.9320   50.4400 C   0  0  0  0  0  0  0  0  0  0  0  0
   61.8030   33.8680   48.9890 N   0  0  0  0  0  0  0  0  0  0  0  0
   62.8180   33.5600   48.1170 C   0  0  0  0  0  0  0  0  0  0  0  0
   63.9790   33.3030   48.5410 O   0  0  0  0  0  0  0  0  0  0  0  0
   62.5800   33.5260   46.7450 C   0  0  0  0  0  0  0  0  0  0  0  0
   61.3110   33.8300   46.2770 C   0  0  0  0  0  0  0  0  0  0  0  0
   60.3140   34.1730   47.1490 N   0  0  0  0  0  0  0  0  0  0  0  0
   58.9950   34.5360   46.5990 C   0  0  0  0  0  0  0  0  0  0  0  0
   58.8820   34.1690   45.1080 C   0  0  0  0  0  0  0  0  0  0  0  0
   57.6390   33.3030   44.8120 C   0  0  0  0  0  0  0  0  0  0  0  0
   57.9860   31.8700   44.6370 N   0  0  0  0  0  0  0  0  0  0  0  0
   58.6980   31.3350   45.8220 C   0  0  0  0  0  0  0  0  0  0  0  0
   59.0170   29.8550   45.6190 C   0  0  0  0  0  0  0  0  0  0  0  0
   57.7640   29.0990   45.5350 N   0  0  0  0  0  0  0  0  0  0  0  0
   57.6420   27.8130   46.1740 C   0  0  0  0  0  0  0  0  0  0  0  0
   57.8670   27.7090   47.4140 O   0  0  0  0  0  0  0  0  0  0  0  0
   57.2810   26.6030   45.4010 C   0  0  0  0  0  0  0  0  0  0  0  0
   56.4110   25.6500   45.9560 C   0  0  0  0  0  0  0  0  0  0  0  0
   56.0690   24.5050   45.2340 C   0  0  0  0  0  0  0  0  0  0  0  0
   56.5750   24.3090   43.9440 C   0  0  0  0  0  0  0  0  0  0  0  0
   56.1460   22.8690   43.0420 Cl  0  0  0  0  0  0  0  0  0  0  0  0
   57.4300   25.2560   43.3790 C   0  0  0  0  0  0  0  0  0  0  0  0
   57.7800   26.4010   44.1000 C   0  0  0  0  0  0  0  0  0  0  0  0
   56.6360   29.7280   44.9070 C   0  0  0  0  0  0  0  0  0  0  0  0
   55.5140   29.1410   44.8770 O   0  0  0  0  0  0  0  0  0  0  0  0
   56.7790   31.0830   44.2330 C   0  0  0  0  0  0  0  0  0  0  0  0
   60.5610   34.2010   48.5020 C   0  0  0  0  0  0  0  0  0  0  0  0
   59.6430   34.5440   49.3040 O   0  0  0  0  0  0  0  0  0  0  0  0
   61.1384   33.7050   50.9894 H   0  0  0  0  0  0  0  0  0  0  0  0
   62.8380   33.1970   50.7061 H   0  0  0  0  0  0  0  0  0  0  0  0
   62.4102   34.9416   50.7061 H   0  0  0  0  0  0  0  0  0  0  0  0
   63.3859   33.2622   46.0443 H   0  0  0  0  0  0  0  0  0  0  0  0
   61.1042   33.7952   45.1972 H   0  0  0  0  0  0  0  0  0  0  0  0
   58.2149   33.9994   47.1588 H   0  0  0  0  0  0  0  0  0  0  0  0
   58.8697   35.6245   46.6958 H   0  0  0  0  0  0  0  0  0  0  0  0
   58.8161   35.0959   44.5193 H   0  0  0  0  0  0  0  0  0  0  0  0
   59.7730   33.5839   44.8363 H   0  0  0  0  0  0  0  0  0  0  0  0
   56.9331   33.3973   45.6504 H   0  0  0  0  0  0  0  0  0  0  0  0
   57.1926   33.6608   43.8725 H   0  0  0  0  0  0  0  0  0  0  0  0
   59.6351   31.8927   45.9658 H   0  0  0  0  0  0  0  0  0  0  0  0
   58.0561   31.4466   46.7083 H   0  0  0  0  0  0  0  0  0  0  0  0
   59.5877   29.7260   44.6875 H   0  0  0  0  0  0  0  0  0  0  0  0
   59.6150   29.4864   46.4655 H   0  0  0  0  0  0  0  0  0  0  0  0
   55.9976   25.8064   46.9633 H   0  0  0  0  0  0  0  0  0  0  0  0
   55.3998   23.7547   45.6804 H   0  0  0  0  0  0  0  0  0  0  0  0
   57.8288   25.1013   42.3656 H   0  0  0  0  0  0  0  0  0  0  0  0
   58.4490   27.1484   43.6486 H   0  0  0  0  0  0  0  0  0  0  0  0
   56.8272   30.9194   43.1463 H   0  0  0  0  0  0  0  0  0  0  0  0
   55.9077   31.6754   44.5493 H   0  0  0  0  0  0  0  0  0  0  0  0
  1  2  1  0
  2  3  1  0
  3  4  2  0
  3  5  1  0
  5  6  2  0
  6  7  1  0
  7  8  1  0
  8  9  1  0
  9 10  1  0
 10 11  1  0
 11 12  1  0
 12 13  1  0
 13 14  1  0
 14 15  1  0
 15 16  2  0
 15 17  1  0
 17 18  2  0
 18 19  1  0
 19 20  2  0
 20 21  1  0
 20 22  1  0
 22 23  2  0
 14 24  1  0
 24 25  2  0
 24 26  1  0
  7 27  1  0
 27 28  2  0
 27  2  1  0
 26 11  1  0
 23 17  1  0
  1 29  1  0
  1 30  1  0
  1 31  1  0
  5 32  1  0
  6 33  1  0
  8 34  1  0
  8 35  1  0
  9 36  1  0
  9 37  1  0
 10 38  1  0
 10 39  1  0
 12 40  1  0
 12 41  1  0
 13 42  1  0
 13 43  1  0
 18 44  1  0
 19 45  1  0
 22 46  1  0
 23 47  1  0
 26 48  1  0
 26 49  1  0
M  END
>  <UniqueID>  (45) 
41

>  <SMILES>  (45) 
Cn1c(=O)ccn(CCCN2CCN(C(=O)c3ccc(Cl)cc3)C(=O)C2)c1=O

>  <Energy>  (45) 
68.45252969664591

>  <Genealogy>  (45) 
Cn1c(=O)ccn(CCCN2CCN(C(=O)c3ccc(Cl)cc3)C(=O)C2)c1=O (3D coordinates assigned)
Cn1c(=O)ccn(CCCN2CCN(C(=O)c3ccc(Cl)cc3)C(=O)C2)c1=O (nonaromatic ring conformer: 68.45252969664591 kcal/mol)

>  <smiles>  (45) 
Cn1c(=O)ccn(CCCN2CCN(C(=O)c3ccc(Cl)cc3)C(=O)C2)c1=O

>  <score_type>  (45) 
oracle

>  <origin>  (45) 
adg

>  <m_score__min__energy>  (45) 
-9.1699999999999999

>  <m_primary>  (45) 
energy

$$$$
45:0
     RDKit          3D

 60 64  0  0  0  0  0  0  0  0999 V2000
   60.6430   26.6960   49.0000 O   0  0  0  0  0  0  0  0  0  0  0  0
   60.0890   27.6910   48.4610 C   0  0  0  0  0  0  0  0  0  0  0  0
   60.7150   29.0570   48.6160 C   0  0  0  0  0  0  0  0  0  0  0  0
   59.8660   29.9660   49.4730 C   0  0  0  0  0  0  0  0  0  0  0  0
   59.6610   29.6640   50.8330 C   0  0  0  0  0  0  0  0  0  0  0  0
   58.8820   30.5110   51.6330 C   0  0  0  0  0  0  0  0  0  0  0  0
   58.3030   31.6630   51.0850 C   0  0  0  0  0  0  0  0  0  0  0  0
   58.4980   31.9710   49.7350 C   0  0  0  0  0  0  0  0  0  0  0  0
   59.2760   31.1280   48.9300 C   0  0  0  0  0  0  0  0  0  0  0  0
   58.7980   27.5120   47.8580 N   0  0  0  0  0  0  0  0  0  0  0  0
   58.4870   27.6430   46.4640 C   0  0  0  0  0  0  0  0  0  0  0  0
   58.5420   26.5390   45.5980 C   0  0  0  0  0  0  0  0  0  0  0  0
   58.1950   26.6840   44.2530 C   0  0  0  0  0  0  0  0  0  0  0  0
   57.7760   27.9260   43.7670 C   0  0  0  0  0  0  0  0  0  0  0  0
   57.6940   29.0290   44.6300 C   0  0  0  0  0  0  0  0  0  0  0  0
   57.1310   30.5810   44.0170 S   0  0  0  0  0  0  0  0  0  0  0  0
   55.9780   31.0400   44.8690 O   0  0  0  0  0  0  0  0  0  0  0  0
   56.6350   30.4100   42.6070 O   0  0  0  0  0  0  0  0  0  0  0  0
   58.4700   31.7140   44.0930 N   0  0  0  0  0  0  0  0  0  0  0  0
   58.1370   33.0380   43.5330 C   0  0  0  0  0  0  0  0  0  0  0  0
   57.3790   33.9500   44.5260 C   0  0  0  0  0  0  0  0  0  0  0  0
   58.0020   34.0020   45.8660 N   0  0  0  0  0  0  0  0  0  0  0  0
   59.2130   34.8500   45.9130 C   0  0  0  0  0  0  0  0  0  0  0  0
   60.2350   34.2410   46.8200 C   0  0  0  0  0  0  0  0  0  0  0  0
   61.3130   33.5540   46.3560 N   0  0  0  0  0  0  0  0  0  0  0  0
   61.9480   33.2160   47.4860 C   0  0  0  0  0  0  0  0  0  0  0  0
   63.1280   32.4860   47.6150 C   0  0  0  0  0  0  0  0  0  0  0  0
   63.6070   32.2460   48.9170 C   0  0  0  0  0  0  0  0  0  0  0  0
   62.9030   32.7380   50.0420 C   0  0  0  0  0  0  0  0  0  0  0  0
   61.7130   33.4730   49.8710 C   0  0  0  0  0  0  0  0  0  0  0  0
   61.2700   33.6900   48.5690 C   0  0  0  0  0  0  0  0  0  0  0  0
   60.1720   34.3510   48.1750 N   0  0  0  0  0  0  0  0  0  0  0  0
   58.2360   32.6450   46.3910 C   0  0  0  0  0  0  0  0  0  0  0  0
   59.0840   31.8010   45.4280 C   0  0  0  0  0  0  0  0  0  0  0  0
   58.0300   28.8770   45.9830 C   0  0  0  0  0  0  0  0  0  0  0  0
   61.7035   28.9451   49.0855 H   0  0  0  0  0  0  0  0  0  0  0  0
   60.8022   29.5098   47.6173 H   0  0  0  0  0  0  0  0  0  0  0  0
   60.1134   28.7609   51.2686 H   0  0  0  0  0  0  0  0  0  0  0  0
   58.7247   30.2704   52.6948 H   0  0  0  0  0  0  0  0  0  0  0  0
   57.6943   32.3260   51.7174 H   0  0  0  0  0  0  0  0  0  0  0  0
   58.0410   32.8745   49.3051 H   0  0  0  0  0  0  0  0  0  0  0  0
   59.4279   31.3732   47.8685 H   0  0  0  0  0  0  0  0  0  0  0  0
   58.8592   25.5574   45.9800 H   0  0  0  0  0  0  0  0  0  0  0  0
   58.2515   25.8196   43.5750 H   0  0  0  0  0  0  0  0  0  0  0  0
   57.5100   28.0387   42.7056 H   0  0  0  0  0  0  0  0  0  0  0  0
   59.0721   33.5394   43.2427 H   0  0  0  0  0  0  0  0  0  0  0  0
   57.4721   32.8698   42.6730 H   0  0  0  0  0  0  0  0  0  0  0  0
   57.3529   34.9694   44.1135 H   0  0  0  0  0  0  0  0  0  0  0  0
   56.3712   33.5274   44.6518 H   0  0  0  0  0  0  0  0  0  0  0  0
   59.6332   34.9398   44.9004 H   0  0  0  0  0  0  0  0  0  0  0  0
   58.9403   35.8445   46.2959 H   0  0  0  0  0  0  0  0  0  0  0  0
   63.6657   32.1109   46.7317 H   0  0  0  0  0  0  0  0  0  0  0  0
   64.5345   31.6723   49.0609 H   0  0  0  0  0  0  0  0  0  0  0  0
   63.2867   32.5457   51.0548 H   0  0  0  0  0  0  0  0  0  0  0  0
   61.1541   33.8614   50.7352 H   0  0  0  0  0  0  0  0  0  0  0  0
   58.7609   32.7213   47.3547 H   0  0  0  0  0  0  0  0  0  0  0  0
   57.2604   32.1512   46.5111 H   0  0  0  0  0  0  0  0  0  0  0  0
   60.0789   32.2606   45.3332 H   0  0  0  0  0  0  0  0  0  0  0  0
   59.1566   30.7830   45.8383 H   0  0  0  0  0  0  0  0  0  0  0  0
   57.9343   29.7308   46.6700 H   0  0  0  0  0  0  0  0  0  0  0  0
  1  2  2  0
  2  3  1  0
  3  4  1  0
  4  5  2  0
  5  6  1  0
  6  7  2  0
  7  8  1  0
  8  9  2  0
  2 10  1  0
 10 11  1  0
 11 12  2  0
 12 13  1  0
 13 14  2  0
 14 15  1  0
 15 16  1  0
 16 17  2  0
 16 18  2  0
 16 19  1  0
 19 20  1  0
 20 21  1  0
 21 22  1  0
 22 23  1  0
 23 24  1  0
 24 25  2  0
 25 26  1  0
 26 27  2  0
 27 28  1  0
 28 29  2  0
 29 30  1  0
 30 31  2  0
 31 32  1  0
 22 33  1  0
 33 34  1  0
 15 35  2  0
  9  4  1  0
 35 11  1  0
 34 19  1  0
 32 24  1  0
 31 26  1  0
  3 36  1  0
  3 37  1  0
  5 38  1  0
  6 39  1  0
  7 40  1  0
  8 41  1  0
  9 42  1  0
 12 43  1  0
 13 44  1  0
 14 45  1  0
 20 46  1  0
 20 47  1  0
 21 48  1  0
 21 49  1  0
 23 50  1  0
 23 51  1  0
 27 52  1  0
 28 53  1  0
 29 54  1  0
 30 55  1  0
 33 56  1  0
 33 57  1  0
 34 58  1  0
 34 59  1  0
 35 60  1  0
M  CHG  2  10  -1  32  -1
M  END
>  <UniqueID>  (46) 
42

>  <SMILES>  (46) 
O=C(Cc1ccccc1)[N-]c1cccc(S(=O)(=O)N2CCN(Cc3nc4ccccc4[n-]3)CC2)c1

>  <Energy>  (46) 
113.08268137936776

>  <Genealogy>  (46) 
O=C(Cc1ccccc1)[N-]c1cccc(S(=O)(=O)N2CCN(Cc3nc4ccccc4[n-]3)CC2)c1 (protonated)
O=C(Cc1ccccc1)[N-]c1cccc(S(=O)(=O)N2CCN(Cc3nc4ccccc4[n-]3)CC2)c1 (3D coordinates assigned)
O=C(Cc1ccccc1)[N-]c1cccc(S(=O)(=O)N2CCN(Cc3nc4ccccc4[n-]3)CC2)c1 (nonaromatic ring conformer: 113.08268137936776 kcal/mol)

>  <smiles>  (46) 
O=C(Cc1ccccc1)Nc1cccc(S(=O)(=O)N2CCN(Cc3nc4ccccc4[nH]3)CC2)c1

>  <score_type>  (46) 
oracle

>  <origin>  (46) 
adg

>  <m_score__min__energy>  (46) 
-14.01

>  <m_primary>  (46) 
energy

$$$$
46:0
     RDKit          3D

 47 49  0  0  0  0  0  0  0  0999 V2000
   57.3020   29.5060   43.7550 C   0  0  0  0  0  0  0  0  0  0  0  0
   57.8520   30.6890   44.0480 C   0  0  0  0  0  0  0  0  0  0  0  0
   57.0300   31.8270   44.5840 C   0  0  0  0  0  0  0  0  0  0  0  0
   57.7100   32.4560   45.7170 N   0  0  0  0  0  0  0  0  0  0  0  0
   58.3710   31.8240   46.7080 C   0  0  0  0  0  0  0  0  0  0  0  0
   58.4640   30.4390   46.8150 O   0  0  0  0  0  0  0  0  0  0  0  0
   58.9440   32.7320   47.5820 C   0  0  0  0  0  0  0  0  0  0  0  0
   59.8090   32.4030   48.7660 C   0  0  0  0  0  0  0  0  0  0  0  0
   58.9580   32.0080   49.9420 C   0  0  0  0  0  0  0  0  0  0  0  0
   58.6180   32.9530   50.9230 C   0  0  0  0  0  0  0  0  0  0  0  0
   57.8490   32.5760   52.0280 C   0  0  0  0  0  0  0  0  0  0  0  0
   57.4120   31.2550   52.1740 C   0  0  0  0  0  0  0  0  0  0  0  0
   56.6120   30.9180   53.3160 N   0  0  0  0  0  0  0  0  0  0  0  0
   55.2700   29.8200   53.3070 S   0  0  0  0  0  0  0  0  0  0  0  0
   55.0660   29.2800   54.6940 O   0  0  0  0  0  0  0  0  0  0  0  0
   55.5780   28.6800   52.3760 O   0  0  0  0  0  0  0  0  0  0  0  0
   53.8070   30.6580   52.8010 C   0  0  0  0  0  0  0  0  0  0  0  0
   53.6960   31.1750   51.5010 C   0  0  0  0  0  0  0  0  0  0  0  0
   52.5390   31.8560   51.1120 C   0  0  0  0  0  0  0  0  0  0  0  0
   51.4850   32.0220   52.0180 C   0  0  0  0  0  0  0  0  0  0  0  0
   50.3350   32.6990   51.6310 O   0  0  0  0  0  0  0  0  0  0  0  0
   51.5890   31.5040   53.3130 C   0  0  0  0  0  0  0  0  0  0  0  0
   52.7460   30.8230   53.7040 C   0  0  0  0  0  0  0  0  0  0  0  0
   57.7670   30.3030   51.2010 C   0  0  0  0  0  0  0  0  0  0  0  0
   58.5360   30.6780   50.0960 C   0  0  0  0  0  0  0  0  0  0  0  0
   58.6310   33.9850   47.0740 C   0  0  0  0  0  0  0  0  0  0  0  0
   59.0310   35.2500   47.6120 N   0  0  0  0  0  0  0  0  0  0  0  0
   57.8730   33.7790   45.9310 C   0  0  0  0  0  0  0  0  0  0  0  0
   57.3480   34.7670   45.1000 O   0  0  0  0  0  0  0  0  0  0  0  0
   57.9278   28.6903   43.3639 H   0  0  0  0  0  0  0  0  0  0  0  0
   56.2237   29.3485   43.9050 H   0  0  0  0  0  0  0  0  0  0  0  0
   58.9315   30.8325   43.8930 H   0  0  0  0  0  0  0  0  0  0  0  0
   56.8823   32.5735   43.7897 H   0  0  0  0  0  0  0  0  0  0  0  0
   56.0580   31.4381   44.9215 H   0  0  0  0  0  0  0  0  0  0  0  0
   60.4778   31.5693   48.5060 H   0  0  0  0  0  0  0  0  0  0  0  0
   60.3998   33.2911   49.0347 H   0  0  0  0  0  0  0  0  0  0  0  0
   58.9580   33.9942   50.8218 H   0  0  0  0  0  0  0  0  0  0  0  0
   57.5852   33.3247   52.7895 H   0  0  0  0  0  0  0  0  0  0  0  0
   54.5218   31.0439   50.7862 H   0  0  0  0  0  0  0  0  0  0  0  0
   52.4567   32.2619   50.0929 H   0  0  0  0  0  0  0  0  0  0  0  0
   50.7600   31.6324   54.0245 H   0  0  0  0  0  0  0  0  0  0  0  0
   52.8245   30.4154   54.7227 H   0  0  0  0  0  0  0  0  0  0  0  0
   57.4379   29.2591   51.3104 H   0  0  0  0  0  0  0  0  0  0  0  0
   58.8124   29.9262   49.3421 H   0  0  0  0  0  0  0  0  0  0  0  0
   59.0930   36.0970   47.0060 H   0  0  0  0  0  0  0  0  0  0  0  0
   59.2810   35.3500   48.6190 H   0  0  0  0  0  0  0  0  0  0  0  0
   56.5020   35.2680   45.3340 H   0  0  0  0  0  0  0  0  0  0  0  0
  1  2  2  0
  2  3  1  0
  3  4  1  0
  4  5  1  0
  5  6  1  0
  5  7  2  0
  7  8  1  0
  8  9  1  0
  9 10  2  0
 10 11  1  0
 11 12  2  0
 12 13  1  0
 13 14  1  0
 14 15  2  0
 14 16  2  0
 14 17  1  0
 17 18  2  0
 18 19  1  0
 19 20  2  0
 20 21  1  0
 20 22  1  0
 22 23  2  0
 12 24  1  0
 24 25  2  0
  7 26  1  0
 26 27  1  0
 26 28  2  0
 28 29  1  0
 28  4  1  0
 25  9  1  0
 23 17  1  0
  1 30  1  0
  1 31  1  0
  2 32  1  0
  3 33  1  0
  3 34  1  0
  8 35  1  0
  8 36  1  0
 10 37  1  0
 11 38  1  0
 18 39  1  0
 19 40  1  0
 22 41  1  0
 23 42  1  0
 24 43  1  0
 25 44  1  0
 27 45  1  0
 27 46  1  0
 29 47  1  0
M  CHG  3   6  -1  13  -1  21  -1
M  END
>  <UniqueID>  (47) 
43

>  <SMILES>  (47) 
C=CCn1c([O-])c(Cc2ccc([N-]S(=O)(=O)c3ccc([O-])cc3)cc2)c(N)c1O

>  <Energy>  (47) 
75.72234485912162

>  <Genealogy>  (47) 
C=CCn1c([O-])c(Cc2ccc([N-]S(=O)(=O)c3ccc([O-])cc3)cc2)c(N)c1O (protonated)
C=CCn1c([O-])c(Cc2ccc([N-]S(=O)(=O)c3ccc([O-])cc3)cc2)c(N)c1O (3D coordinates assigned)
C=CCn1c([O-])c(Cc2ccc([N-]S(=O)(=O)c3ccc([O-])cc3)cc2)c(N)c1O (optimized conformer: 75.72234485912162 kcal/mol)

>  <smiles>  (47) 
C=CCn1c(O)c(N)c(Cc2ccc(NS(=O)(=O)c3ccc(O)cc3)cc2)c1O

>  <score_type>  (47) 
oracle

>  <origin>  (47) 
adg

>  <m_score__min__energy>  (47) 
-12.94

>  <m_primary>  (47) 
energy

$$$$
47:0
     RDKit          3D

 72 75  0  0  0  0  0  0  0  0999 V2000
   53.7590   27.5950   53.5740 C   0  0  0  0  0  0  0  0  0  0  0  0
   53.6030   28.8790   52.8010 C   0  0  0  0  0  0  0  0  0  0  0  0
   52.3100   29.3240   52.4680 C   0  0  0  0  0  0  0  0  0  0  0  0
   52.1280   30.5090   51.7520 C   0  0  0  0  0  0  0  0  0  0  0  0
   53.2320   31.2590   51.3530 C   0  0  0  0  0  0  0  0  0  0  0  0
   54.5220   30.8250   51.6590 C   0  0  0  0  0  0  0  0  0  0  0  0
   54.7280   29.6380   52.3860 C   0  0  0  0  0  0  0  0  0  0  0  0
   56.1390   29.2450   52.7510 C   0  0  0  0  0  0  0  0  0  0  0  0
   57.0720   30.6960   53.3540 S   0  0  0  0  0  0  0  0  0  0  0  0
   57.8240   31.0560   51.7700 C   0  0  0  0  0  0  0  0  0  0  0  0
   58.9000   30.3930   51.2780 N   0  0  0  0  0  0  0  0  0  0  0  0
   59.1680   30.9910   50.1300 N   0  0  0  0  0  0  0  0  0  0  0  0
   60.1680   30.7210   49.2510 C   0  0  0  0  0  0  0  0  0  0  0  0
   61.1300   29.5910   49.5310 C   0  0  0  0  0  0  0  0  0  0  0  0
   60.2390   31.5120   48.0640 C   0  0  0  0  0  0  0  0  0  0  0  0
   61.3480   31.2420   47.0630 C   0  0  0  0  0  0  0  0  0  0  0  0
   62.4430   32.2790   47.1210 C   0  0  0  0  0  0  0  0  0  0  0  0
   62.3050   33.3790   46.5240 O   0  0  0  0  0  0  0  0  0  0  0  0
   63.6810   32.0220   47.7970 N   0  0  0  0  0  0  0  0  0  0  0  0
   64.1610   32.7490   48.9680 C   0  0  0  0  0  0  0  0  0  0  0  0
   63.0860   32.8200   50.0210 C   0  0  0  0  0  0  0  0  0  0  0  0
   62.0730   33.7870   49.9450 C   0  0  0  0  0  0  0  0  0  0  0  0
   61.0720   33.8400   50.9190 C   0  0  0  0  0  0  0  0  0  0  0  0
   61.0600   32.9130   51.9780 C   0  0  0  0  0  0  0  0  0  0  0  0
   60.0690   32.9070   52.9740 O   0  0  0  0  0  0  0  0  0  0  0  0
   59.4560   34.0630   53.5510 C   0  0  0  0  0  0  0  0  0  0  0  0
   58.9890   33.7090   54.9630 C   0  0  0  0  0  0  0  0  0  0  0  0
   58.2630   34.5130   52.7000 C   0  0  0  0  0  0  0  0  0  0  0  0
   62.0750   31.9540   52.0540 C   0  0  0  0  0  0  0  0  0  0  0  0
   63.0760   31.8990   51.0810 C   0  0  0  0  0  0  0  0  0  0  0  0
   59.2760   32.5740   47.8990 C   0  0  0  0  0  0  0  0  0  0  0  0
   59.1990   33.5230   46.7080 C   0  0  0  0  0  0  0  0  0  0  0  0
   59.6310   34.9590   47.0450 C   0  0  0  0  0  0  0  0  0  0  0  0
   57.8700   33.4640   45.9460 C   0  0  0  0  0  0  0  0  0  0  0  0
   58.3160   32.7570   48.8540 N   0  0  0  0  0  0  0  0  0  0  0  0
   58.2810   31.9630   49.9410 C   0  0  0  0  0  0  0  0  0  0  0  0
   57.4040   32.0470   50.9490 N   0  0  0  0  0  0  0  0  0  0  0  0
   53.7328   27.8107   54.6523 H   0  0  0  0  0  0  0  0  0  0  0  0
   52.9375   26.9102   53.3170 H   0  0  0  0  0  0  0  0  0  0  0  0
   54.7206   27.1268   53.3170 H   0  0  0  0  0  0  0  0  0  0  0  0
   51.4345   28.7328   52.7746 H   0  0  0  0  0  0  0  0  0  0  0  0
   51.1124   30.8504   51.5029 H   0  0  0  0  0  0  0  0  0  0  0  0
   53.0862   32.1958   50.7952 H   0  0  0  0  0  0  0  0  0  0  0  0
   55.3879   31.4174   51.3282 H   0  0  0  0  0  0  0  0  0  0  0  0
   56.1089   28.4802   53.5410 H   0  0  0  0  0  0  0  0  0  0  0  0
   56.6400   28.8466   51.8564 H   0  0  0  0  0  0  0  0  0  0  0  0
   61.2389   29.4631   50.6181 H   0  0  0  0  0  0  0  0  0  0  0  0
   60.7420   28.6612   49.0894 H   0  0  0  0  0  0  0  0  0  0  0  0
   62.1098   29.8256   49.0894 H   0  0  0  0  0  0  0  0  0  0  0  0
   61.7846   30.2554   47.2776 H   0  0  0  0  0  0  0  0  0  0  0  0
   60.9061   31.2780   46.0563 H   0  0  0  0  0  0  0  0  0  0  0  0
   65.0390   32.2309   49.3811 H   0  0  0  0  0  0  0  0  0  0  0  0
   64.4319   33.7715   48.6661 H   0  0  0  0  0  0  0  0  0  0  0  0
   62.0663   34.5078   49.1141 H   0  0  0  0  0  0  0  0  0  0  0  0
   60.2893   34.6104   50.8576 H   0  0  0  0  0  0  0  0  0  0  0  0
   60.1811   34.8892   53.5897 H   0  0  0  0  0  0  0  0  0  0  0  0
   59.6403   34.2027   55.6992 H   0  0  0  0  0  0  0  0  0  0  0  0
   57.9528   34.0505   55.1029 H   0  0  0  0  0  0  0  0  0  0  0  0
   59.0379   32.6190   55.1029 H   0  0  0  0  0  0  0  0  0  0  0  0
   57.4390   34.8238   53.3591 H   0  0  0  0  0  0  0  0  0  0  0  0
   58.5640   35.3594   52.0651 H   0  0  0  0  0  0  0  0  0  0  0  0
   57.9300   33.6787   52.0651 H   0  0  0  0  0  0  0  0  0  0  0  0
   62.0853   31.2364   52.8876 H   0  0  0  0  0  0  0  0  0  0  0  0
   63.8603   31.1304   51.1455 H   0  0  0  0  0  0  0  0  0  0  0  0
   59.9501   33.1393   46.0018 H   0  0  0  0  0  0  0  0  0  0  0  0
   59.6686   35.0838   48.1372 H   0  0  0  0  0  0  0  0  0  0  0  0
   60.6269   35.1517   46.6195 H   0  0  0  0  0  0  0  0  0  0  0  0
   58.9067   35.6692   46.6195 H   0  0  0  0  0  0  0  0  0  0  0  0
   57.0372   33.4270   46.6637 H   0  0  0  0  0  0  0  0  0  0  0  0
   57.7698   34.3586   45.3138 H   0  0  0  0  0  0  0  0  0  0  0  0
   57.8495   32.5641   45.3138 H   0  0  0  0  0  0  0  0  0  0  0  0
   56.6140   32.7180   51.0790 H   0  0  0  0  0  0  0  0  0  0  0  0
  1  2  1  0
  2  3  2  0
  3  4  1  0
  4  5  2  0
  5  6  1  0
  6  7  2  0
  7  8  1  0
  8  9  1  0
  9 10  1  0
 10 11  2  0
 11 12  1  0
 12 13  1  0
 13 14  1  0
 13 15  2  0
 15 16  1  0
 16 17  1  0
 17 18  2  0
 17 19  1  0
 19 20  1  0
 20 21  1  0
 21 22  2  0
 22 23  1  0
 23 24  2  0
 24 25  1  0
 25 26  1  0
 26 27  1  0
 26 28  1  0
 24 29  1  0
 29 30  2  0
 15 31  1  0
 31 32  1  0
 32 33  1  0
 32 34  1  0
 31 35  2  0
 35 36  1  0
 36 37  2  0
  7  2  1  0
 37 10  1  0
 36 12  1  0
 30 21  1  0
  1 38  1  0
  1 39  1  0
  1 40  1  0
  3 41  1  0
  4 42  1  0
  5 43  1  0
  6 44  1  0
  8 45  1  0
  8 46  1  0
 14 47  1  0
 14 48  1  0
 14 49  1  0
 16 50  1  0
 16 51  1  0
 20 52  1  0
 20 53  1  0
 22 54  1  0
 23 55  1  0
 26 56  1  0
 27 57  1  0
 27 58  1  0
 27 59  1  0
 28 60  1  0
 28 61  1  0
 28 62  1  0
 29 63  1  0
 30 64  1  0
 32 65  1  0
 33 66  1  0
 33 67  1  0
 33 68  1  0
 34 69  1  0
 34 70  1  0
 34 71  1  0
 37 72  1  0
M  CHG  2  19  -1  37   1
M  END
>  <UniqueID>  (48) 
44

>  <SMILES>  (48) 
Cc1ccccc1CSc1nn2c(C)c(CC(=O)[N-]Cc3ccc(OC(C)C)cc3)c(C(C)C)nc2[nH+]1

>  <Energy>  (48) 
111.1867541731077

>  <Genealogy>  (48) 
Cc1ccccc1CSc1nn2c(C)c(CC(=O)[N-]Cc3ccc(OC(C)C)cc3)c(C(C)C)nc2[nH+]1 (protonated)
Cc1ccccc1CSc1nn2c(C)c(CC(=O)[N-]Cc3ccc(OC(C)C)cc3)c(C(C)C)nc2[nH+]1 (3D coordinates assigned)
Cc1ccccc1CSc1nn2c(C)c(CC(=O)[N-]Cc3ccc(OC(C)C)cc3)c(C(C)C)nc2[nH+]1 (optimized conformer: 111.1867541731077 kcal/mol)

>  <smiles>  (48) 
Cc1ccccc1CSc1nc2nc(C(C)C)c(CC(=O)NCc3ccc(OC(C)C)cc3)c(C)n2n1

>  <score_type>  (48) 
oracle

>  <origin>  (48) 
adg

>  <m_score__min__energy>  (48) 
-9.5199999999999996

>  <m_primary>  (48) 
energy

$$$$
48:0
     RDKit          3D

 67 70  0  0  0  0  0  0  0  0999 V2000
   63.5250   34.2900   51.4160 C   0  0  0  0  0  0  0  0  0  0  0  0
   64.2500   33.7620   50.3110 O   0  0  0  0  0  0  0  0  0  0  0  0
   63.5240   33.3250   49.2080 C   0  0  0  0  0  0  0  0  0  0  0  0
   63.0820   34.2040   48.2300 C   0  0  0  0  0  0  0  0  0  0  0  0
   62.3570   33.7320   47.1380 C   0  0  0  0  0  0  0  0  0  0  0  0
   62.0970   32.3860   47.0590 C   0  0  0  0  0  0  0  0  0  0  0  0
   62.5460   31.5390   48.0400 C   0  0  0  0  0  0  0  0  0  0  0  0
   63.2680   31.9680   49.1400 C   0  0  0  0  0  0  0  0  0  0  0  0
   63.7090   30.9890   50.1400 C   0  0  0  0  0  0  0  0  0  0  0  0
   62.7550   30.7530   51.2660 C   0  0  0  0  0  0  0  0  0  0  0  0
   61.4880   30.2170   50.7060 C   0  0  0  0  0  0  0  0  0  0  0  0
   61.4120   29.0240   50.3040 O   0  0  0  0  0  0  0  0  0  0  0  0
   60.3390   31.0470   50.6160 N   0  0  0  0  0  0  0  0  0  0  0  0
   60.3570   32.4170   51.0580 C   0  0  0  0  0  0  0  0  0  0  0  0
   59.1190   33.1360   50.5720 C   0  0  0  0  0  0  0  0  0  0  0  0
   58.9220   32.7700   49.1740 N   0  0  0  0  0  0  0  0  0  0  0  0
   59.0300   33.7800   48.2110 C   0  0  0  0  0  0  0  0  0  0  0  0
   59.2930   34.9530   48.6280 O   0  0  0  0  0  0  0  0  0  0  0  0
   58.8720   33.6220   46.7850 C   0  0  0  0  0  0  0  0  0  0  0  0
   59.3930   34.5720   45.9230 C   0  0  0  0  0  0  0  0  0  0  0  0
   59.2240   34.3880   44.5690 C   0  0  0  0  0  0  0  0  0  0  0  0
   58.5440   33.2720   44.1180 C   0  0  0  0  0  0  0  0  0  0  0  0
   58.0150   32.3130   44.9240 C   0  0  0  0  0  0  0  0  0  0  0  0
   57.3020   31.0910   44.5480 C   0  0  0  0  0  0  0  0  0  0  0  0
   58.0550   29.8380   44.4380 C   0  0  0  0  0  0  0  0  0  0  0  0
   58.0840   28.8310   45.4680 C   0  0  0  0  0  0  0  0  0  0  0  0
   59.0070   28.5940   46.4400 C   0  0  0  0  0  0  0  0  0  0  0  0
   58.9160   27.5480   47.3650 C   0  0  0  0  0  0  0  0  0  0  0  0
   59.8940   27.3710   48.3250 O   0  0  0  0  0  0  0  0  0  0  0  0
   57.8490   26.7330   47.2780 N   0  0  0  0  0  0  0  0  0  0  0  0
   56.9140   26.9440   46.3200 C   0  0  0  0  0  0  0  0  0  0  0  0
   55.8850   26.1390   46.2510 N   0  0  0  0  0  0  0  0  0  0  0  0
   57.0180   27.9440   45.4510 N   0  0  0  0  0  0  0  0  0  0  0  0
   58.1980   32.5170   46.3080 C   0  0  0  0  0  0  0  0  0  0  0  0
   58.6280   31.3790   48.9040 C   0  0  0  0  0  0  0  0  0  0  0  0
   59.0890   30.5100   50.0580 C   0  0  0  0  0  0  0  0  0  0  0  0
   63.9891   33.9520   52.3543 H   0  0  0  0  0  0  0  0  0  0  0  0
   63.5415   35.3891   51.3739 H   0  0  0  0  0  0  0  0  0  0  0  0
   62.4840   33.9370   51.3739 H   0  0  0  0  0  0  0  0  0  0  0  0
   63.3048   35.2777   48.3171 H   0  0  0  0  0  0  0  0  0  0  0  0
   62.0014   34.4210   46.3578 H   0  0  0  0  0  0  0  0  0  0  0  0
   61.5274   31.9862   46.2071 H   0  0  0  0  0  0  0  0  0  0  0  0
   62.3212   30.4662   47.9479 H   0  0  0  0  0  0  0  0  0  0  0  0
   63.8736   30.0299   49.6272 H   0  0  0  0  0  0  0  0  0  0  0  0
   64.6191   31.4072   50.5947 H   0  0  0  0  0  0  0  0  0  0  0  0
   63.1856   30.0267   51.9710 H   0  0  0  0  0  0  0  0  0  0  0  0
   62.5621   31.6950   51.8002 H   0  0  0  0  0  0  0  0  0  0  0  0
   60.3856   32.4443   52.1573 H   0  0  0  0  0  0  0  0  0  0  0  0
   61.2474   32.9159   50.6479 H   0  0  0  0  0  0  0  0  0  0  0  0
   58.2471   32.8278   51.1677 H   0  0  0  0  0  0  0  0  0  0  0  0
   59.2367   34.2248   50.6753 H   0  0  0  0  0  0  0  0  0  0  0  0
   59.9284   35.4515   46.3101 H   0  0  0  0  0  0  0  0  0  0  0  0
   59.6257   35.1210   43.8539 H   0  0  0  0  0  0  0  0  0  0  0  0
   58.4224   33.1514   43.0314 H   0  0  0  0  0  0  0  0  0  0  0  0
   56.5164   30.9307   45.3011 H   0  0  0  0  0  0  0  0  0  0  0  0
   56.9622   31.2875   43.5204 H   0  0  0  0  0  0  0  0  0  0  0  0
   57.6711   29.3354   43.5380 H   0  0  0  0  0  0  0  0  0  0  0  0
   59.0903   30.2080   44.4727 H   0  0  0  0  0  0  0  0  0  0  0  0
   59.8765   29.2649   46.5020 H   0  0  0  0  0  0  0  0  0  0  0  0
   60.2630   28.0940   48.9130 H   0  0  0  0  0  0  0  0  0  0  0  0
   55.0040   26.3480   46.7460 H   0  0  0  0  0  0  0  0  0  0  0  0
   56.2590   28.0440   44.7410 H   0  0  0  0  0  0  0  0  0  0  0  0
   57.7957   31.7812   47.0199 H   0  0  0  0  0  0  0  0  0  0  0  0
   57.5432   31.2570   48.7687 H   0  0  0  0  0  0  0  0  0  0  0  0
   59.1586   31.0719   47.9907 H   0  0  0  0  0  0  0  0  0  0  0  0
   58.3149   30.4994   50.8394 H   0  0  0  0  0  0  0  0  0  0  0  0
   59.2629   29.4861   49.6954 H   0  0  0  0  0  0  0  0  0  0  0  0
  1  2  1  0
  2  3  1  0
  3  4  2  0
  4  5  1  0
  5  6  2  0
  6  7  1  0
  7  8  2  0
  8  9  1  0
  9 10  1  0
 10 11  1  0
 11 12  2  0
 11 13  1  0
 13 14  1  0
 14 15  1  0
 15 16  1  0
 16 17  1  0
 17 18  2  0
 17 19  1  0
 19 20  2  0
 20 21  1  0
 21 22  2  0
 22 23  1  0
 23 24  1  0
 24 25  1  0
 25 26  1  0
 26 27  2  0
 27 28  1  0
 28 29  1  0
 28 30  2  0
 30 31  1  0
 31 32  2  3
 31 33  1  0
 23 34  2  0
 16 35  1  0
 35 36  1  0
  8  3  1  0
 36 13  1  0
 34 19  1  0
 33 26  1  0
  1 37  1  0
  1 38  1  0
  1 39  1  0
  4 40  1  0
  5 41  1  0
  6 42  1  0
  7 43  1  0
  9 44  1  0
  9 45  1  0
 10 46  1  0
 10 47  1  0
 14 48  1  0
 14 49  1  0
 15 50  1  0
 15 51  1  0
 20 52  1  0
 21 53  1  0
 22 54  1  0
 24 55  1  0
 24 56  1  0
 25 57  1  0
 25 58  1  0
 27 59  1  0
 29 60  1  0
 32 61  1  0
 33 62  1  0
 34 63  1  0
 35 64  1  0
 35 65  1  0
 36 66  1  0
 36 67  1  0
M  END
>  <smiles>  (49) 
COc1ccccc1CCC(=O)N1CCN(C(=O)c2cccc(CCc3cc(O)nc(=N)[nH]3)c2)CC1

>  <score_type>  (49) 
oracle

>  <origin>  (49) 
adg

>  <m_score__min__energy>  (49) 
-9.8200000000000003

>  <m_primary>  (49) 
energy

$$$$
49:0
     RDKit          3D

 46 47  0  0  0  0  0  0  0  0999 V2000
   54.1220   24.8040   45.6070 C   0  0  0  0  0  0  0  0  0  0  0  0
   54.7320   26.0410   45.9600 O   0  0  0  0  0  0  0  0  0  0  0  0
   56.1060   26.2150   46.1860 C   0  0  0  0  0  0  0  0  0  0  0  0
   56.9050   25.2030   46.7530 C   0  0  0  0  0  0  0  0  0  0  0  0
   58.2710   25.4110   46.9510 C   0  0  0  0  0  0  0  0  0  0  0  0
   58.8520   26.6300   46.6010 C   0  0  0  0  0  0  0  0  0  0  0  0
   60.5660   26.8940   46.8740 Cl  0  0  0  0  0  0  0  0  0  0  0  0
   58.0700   27.6430   46.0410 C   0  0  0  0  0  0  0  0  0  0  0  0
   56.6960   27.4340   45.8110 C   0  0  0  0  0  0  0  0  0  0  0  0
   55.8640   28.4490   45.2310 N   0  0  0  0  0  0  0  0  0  0  0  0
   56.2900   29.6730   44.6220 C   0  0  0  0  0  0  0  0  0  0  0  0
   55.5600   30.6990   44.6440 O   0  0  0  0  0  0  0  0  0  0  0  0
   57.6630   29.7600   44.0370 C   0  0  0  0  0  0  0  0  0  0  0  0
   58.3560   30.9540   44.5440 N   0  0  0  0  0  0  0  0  0  0  0  0
   58.1640   32.2420   43.8690 C   0  0  0  0  0  0  0  0  0  0  0  0
   59.2250   30.8460   45.6960 C   0  0  0  0  0  0  0  0  0  0  0  0
   60.2490   30.1100   45.6370 O   0  0  0  0  0  0  0  0  0  0  0  0
   58.9900   31.6610   46.9430 C   0  0  0  0  0  0  0  0  0  0  0  0
   58.3150   32.9210   46.6290 N   0  0  0  0  0  0  0  0  0  0  0  0
   59.4300   34.2560   46.6530 S   0  0  0  0  0  0  0  0  0  0  0  0
   59.5590   34.8060   45.2610 O   0  0  0  0  0  0  0  0  0  0  0  0
   58.8990   35.3480   47.5420 O   0  0  0  0  0  0  0  0  0  0  0  0
   61.0190   33.7470   47.2230 C   0  0  0  0  0  0  0  0  0  0  0  0
   61.1780   33.2670   48.5310 C   0  0  0  0  0  0  0  0  0  0  0  0
   62.4310   32.8290   48.9720 C   0  0  0  0  0  0  0  0  0  0  0  0
   63.5340   32.8900   48.1160 C   0  0  0  0  0  0  0  0  0  0  0  0
   63.3840   33.3810   46.8160 C   0  0  0  0  0  0  0  0  0  0  0  0
   62.1290   33.8040   46.3680 C   0  0  0  0  0  0  0  0  0  0  0  0
   53.8512   24.2548   46.5208 H   0  0  0  0  0  0  0  0  0  0  0  0
   53.2162   24.9980   45.0137 H   0  0  0  0  0  0  0  0  0  0  0  0
   54.8273   24.2035   45.0137 H   0  0  0  0  0  0  0  0  0  0  0  0
   56.4502   24.2438   47.0412 H   0  0  0  0  0  0  0  0  0  0  0  0
   58.8907   24.6119   47.3840 H   0  0  0  0  0  0  0  0  0  0  0  0
   58.5289   28.6077   45.7786 H   0  0  0  0  0  0  0  0  0  0  0  0
   58.2344   28.8623   44.3158 H   0  0  0  0  0  0  0  0  0  0  0  0
   57.5831   29.8290   42.9421 H   0  0  0  0  0  0  0  0  0  0  0  0
   58.0456   33.0360   44.6210 H   0  0  0  0  0  0  0  0  0  0  0  0
   59.0395   32.4604   43.2399 H   0  0  0  0  0  0  0  0  0  0  0  0
   57.2629   32.1955   43.2399 H   0  0  0  0  0  0  0  0  0  0  0  0
   58.3646   31.0818   47.6382 H   0  0  0  0  0  0  0  0  0  0  0  0
   59.9642   31.8906   47.3993 H   0  0  0  0  0  0  0  0  0  0  0  0
   60.3148   33.2349   49.2121 H   0  0  0  0  0  0  0  0  0  0  0  0
   62.5483   32.4364   49.9928 H   0  0  0  0  0  0  0  0  0  0  0  0
   64.5206   32.5515   48.4655 H   0  0  0  0  0  0  0  0  0  0  0  0
   64.2539   33.4346   46.1449 H   0  0  0  0  0  0  0  0  0  0  0  0
   62.0120   34.1826   45.3419 H   0  0  0  0  0  0  0  0  0  0  0  0
  1  2  1  0
  2  3  1  0
  3  4  2  0
  4  5  1  0
  5  6  2  0
  6  7  1  0
  6  8  1  0
  8  9  2  0
  9 10  1  0
 10 11  1  0
 11 12  2  0
 11 13  1  0
 13 14  1  0
 14 15  1  0
 14 16  1  0
 16 17  2  0
 16 18  1  0
 18 19  1  0
 19 20  1  0
 20 21  2  0
 20 22  2  0
 20 23  1  0
 23 24  2  0
 24 25  1  0
 25 26  2  0
 26 27  1  0
 27 28  2  0
  9  3  1  0
 28 23  1  0
  1 29  1  0
  1 30  1  0
  1 31  1  0
  4 32  1  0
  5 33  1  0
  8 34  1  0
 13 35  1  0
 13 36  1  0
 15 37  1  0
 15 38  1  0
 15 39  1  0
 18 40  1  0
 18 41  1  0
 24 42  1  0
 25 43  1  0
 26 44  1  0
 27 45  1  0
 28 46  1  0
M  CHG  2  10  -1  19  -1
M  END
>  <UniqueID>  (50) 
45

>  <SMILES>  (50) 
COc1ccc(Cl)cc1[N-]C(=O)CN(C)C(=O)C[N-]S(=O)(=O)c1ccccc1

>  <Energy>  (50) 
39.20556992718

>  <Genealogy>  (50) 
COc1ccc(Cl)cc1[N-]C(=O)CN(C)C(=O)C[N-]S(=O)(=O)c1ccccc1 (protonated)
COc1ccc(Cl)cc1[N-]C(=O)CN(C)C(=O)C[N-]S(=O)(=O)c1ccccc1 (3D coordinates assigned)
COc1ccc(Cl)cc1[N-]C(=O)CN(C)C(=O)C[N-]S(=O)(=O)c1ccccc1 (optimized conformer: 39.20556992718 kcal/mol)

>  <smiles>  (50) 
COc1ccc(Cl)cc1NC(=O)CN(C)C(=O)CNS(=O)(=O)c1ccccc1

>  <score_type>  (50) 
oracle

>  <origin>  (50) 
adg

>  <m_score__min__energy>  (50) 
-12.539999999999999

>  <m_primary>  (50) 
energy

$$$$
50:0
     RDKit          3D

 33 35  0  0  0  0  0  0  0  0999 V2000
   60.5330   30.0940   46.3650 C   0  0  0  0  0  0  0  0  0  0  0  0
   59.3590   29.6710   45.8460 C   0  0  0  0  0  0  0  0  0  0  0  0
   59.1800   28.2970   45.5550 C   0  0  0  0  0  0  0  0  0  0  0  0
   60.1320   27.4840   45.7300 O   0  0  0  0  0  0  0  0  0  0  0  0
   57.9360   27.8590   45.0440 C   0  0  0  0  0  0  0  0  0  0  0  0
   57.6390   26.5760   44.7490 C   0  0  0  0  0  0  0  0  0  0  0  0
   57.1800   25.5490   45.7080 C   0  0  0  0  0  0  0  0  0  0  0  0
   55.9220   25.6610   46.3160 C   0  0  0  0  0  0  0  0  0  0  0  0
   55.0690   26.7100   45.9920 O   0  0  0  0  0  0  0  0  0  0  0  0
   55.5230   24.7340   47.2260 N   0  0  0  0  0  0  0  0  0  0  0  0
   56.3320   23.6990   47.5720 C   0  0  0  0  0  0  0  0  0  0  0  0
   55.8240   22.6000   48.6670 S   0  0  0  0  0  0  0  0  0  0  0  0
   57.5650   23.5830   47.0170 N   0  0  0  0  0  0  0  0  0  0  0  0
   58.0100   24.4840   46.1020 C   0  0  0  0  0  0  0  0  0  0  0  0
   59.1670   24.3590   45.6210 O   0  0  0  0  0  0  0  0  0  0  0  0
   56.9730   28.7860   44.8110 N   0  0  0  0  0  0  0  0  0  0  0  0
   57.1470   30.1020   45.0730 C   0  0  0  0  0  0  0  0  0  0  0  0
   56.2020   30.9010   44.8270 O   0  0  0  0  0  0  0  0  0  0  0  0
   58.3290   30.5560   45.5940 N   0  0  0  0  0  0  0  0  0  0  0  0
   58.4600   31.9680   45.8540 C   0  0  0  0  0  0  0  0  0  0  0  0
   58.5220   32.8790   44.7880 C   0  0  0  0  0  0  0  0  0  0  0  0
   58.6480   34.2480   45.0420 C   0  0  0  0  0  0  0  0  0  0  0  0
   58.7090   34.7130   46.3590 C   0  0  0  0  0  0  0  0  0  0  0  0
   58.6450   33.8090   47.4250 C   0  0  0  0  0  0  0  0  0  0  0  0
   58.5190   32.4390   47.1740 C   0  0  0  0  0  0  0  0  0  0  0  0
   60.6809   31.1597   46.5942 H   0  0  0  0  0  0  0  0  0  0  0  0
   61.3406   29.3726   46.5582 H   0  0  0  0  0  0  0  0  0  0  0  0
   57.7485   26.2663   43.6992 H   0  0  0  0  0  0  0  0  0  0  0  0
   58.4714   32.5152   43.7511 H   0  0  0  0  0  0  0  0  0  0  0  0
   58.6992   34.9598   44.2049 H   0  0  0  0  0  0  0  0  0  0  0  0
   58.8074   35.7905   46.5574 H   0  0  0  0  0  0  0  0  0  0  0  0
   58.6938   34.1760   48.4608 H   0  0  0  0  0  0  0  0  0  0  0  0
   58.4661   31.7296   48.0130 H   0  0  0  0  0  0  0  0  0  0  0  0
  1  2  2  0
  2  3  1  0
  3  4  2  0
  3  5  1  0
  5  6  2  3
  6  7  1  0
  7  8  2  0
  8  9  1  0
  8 10  1  0
 10 11  1  0
 11 12  2  0
 11 13  1  0
 13 14  1  0
 14 15  2  0
  5 16  1  0
 16 17  1  0
 17 18  2  0
 17 19  1  0
 19 20  1  0
 20 21  2  0
 21 22  1  0
 22 23  2  0
 23 24  1  0
 24 25  2  0
 19  2  1  0
 25 20  1  0
 14  7  1  0
  1 26  1  0
  1 27  1  0
  6 28  1  0
 21 29  1  0
 22 30  1  0
 23 31  1  0
 24 32  1  0
 25 33  1  0
M  CHG  4   9  -1  10  -1  13  -1  16  -1
M  END
>  <UniqueID>  (51) 
46

>  <SMILES>  (51) 
C=c1c(=O)c(=Cc2c([O-])[n-]c(=S)[n-]c2=O)[n-]c(=O)n1-c1ccccc1

>  <Energy>  (51) 
67.12697463632556

>  <Genealogy>  (51) 
C=c1c(=O)c(=Cc2c([O-])[n-]c(=S)[n-]c2=O)[n-]c(=O)n1-c1ccccc1 (protonated)
C=c1c(=O)c(=Cc2c([O-])[n-]c(=S)[n-]c2=O)[n-]c(=O)n1-c1ccccc1 (3D coordinates assigned)
C=c1c(=O)c(=Cc2c([O-])[n-]c(=S)[n-]c2=O)[n-]c(=O)n1-c1ccccc1 (optimized conformer: 67.12697463632556 kcal/mol)

>  <smiles>  (51) 
C=c1c(=O)c(=Cc2c(O)[nH]c(=S)[nH]c2=O)[nH]c(=O)n1-c1ccccc1

>  <score_type>  (51) 
oracle

>  <origin>  (51) 
adg

>  <m_score__min__energy>  (51) 
-16.84

>  <m_primary>  (51) 
energy

$$$$
51:0
     RDKit          3D

 57 60  0  0  0  0  0  0  0  0999 V2000
   57.0030   23.8310   48.4570 C   0  0  0  0  0  0  0  0  0  0  0  0
   56.9470   23.2680   47.1120 N   0  0  0  0  0  0  0  0  0  0  0  0
   57.0290   21.9670   46.8770 N   0  0  0  0  0  0  0  0  0  0  0  0
   56.8990   21.7750   45.5500 C   0  0  0  0  0  0  0  0  0  0  0  0
   56.7280   22.9950   44.9290 C   0  0  0  0  0  0  0  0  0  0  0  0
   56.5370   23.2740   43.2080 Cl  0  0  0  0  0  0  0  0  0  0  0  0
   56.7800   23.9300   45.9430 C   0  0  0  0  0  0  0  0  0  0  0  0
   56.6320   25.3890   45.7770 C   0  0  0  0  0  0  0  0  0  0  0  0
   55.5210   25.9210   46.0470 O   0  0  0  0  0  0  0  0  0  0  0  0
   57.7300   26.1920   45.3110 N   0  0  0  0  0  0  0  0  0  0  0  0
   57.6750   27.6200   45.1570 C   0  0  0  0  0  0  0  0  0  0  0  0
   57.9280   28.4380   46.2680 C   0  0  0  0  0  0  0  0  0  0  0  0
   57.9050   29.8290   46.1430 C   0  0  0  0  0  0  0  0  0  0  0  0
   57.6380   30.4210   44.9030 C   0  0  0  0  0  0  0  0  0  0  0  0
   57.6470   32.1770   44.7520 S   0  0  0  0  0  0  0  0  0  0  0  0
   56.3250   32.7090   45.2300 O   0  0  0  0  0  0  0  0  0  0  0  0
   57.8300   32.5690   43.3120 O   0  0  0  0  0  0  0  0  0  0  0  0
   58.9350   32.8390   45.7250 N   0  0  0  0  0  0  0  0  0  0  0  0
   59.2770   34.1940   45.2570 C   0  0  0  0  0  0  0  0  0  0  0  0
   60.0910   34.9750   46.3110 C   0  0  0  0  0  0  0  0  0  0  0  0
   60.7620   34.0790   47.2830 N   0  0  0  0  0  0  0  0  0  0  0  0
   61.8690   33.2230   46.7450 C   0  0  0  0  0  0  0  0  0  0  0  0
   61.8860   31.8540   47.4690 C   0  0  0  0  0  0  0  0  0  0  0  0
   62.3980   32.0090   48.9090 C   0  0  0  0  0  0  0  0  0  0  0  0
   63.7130   32.5340   48.9230 O   0  0  0  0  0  0  0  0  0  0  0  0
   63.7170   33.8410   48.3820 C   0  0  0  0  0  0  0  0  0  0  0  0
   63.2900   33.8230   46.9050 C   0  0  0  0  0  0  0  0  0  0  0  0
   59.7370   33.2840   48.0170 C   0  0  0  0  0  0  0  0  0  0  0  0
   58.5370   32.8670   47.1380 C   0  0  0  0  0  0  0  0  0  0  0  0
   57.4180   29.6100   43.7820 C   0  0  0  0  0  0  0  0  0  0  0  0
   57.4400   28.2170   43.9060 C   0  0  0  0  0  0  0  0  0  0  0  0
   56.9225   23.0212   49.1971 H   0  0  0  0  0  0  0  0  0  0  0  0
   57.9581   24.3592   48.5939 H   0  0  0  0  0  0  0  0  0  0  0  0
   56.1706   24.5370   48.5939 H   0  0  0  0  0  0  0  0  0  0  0  0
   56.9251   20.7997   45.0419 H   0  0  0  0  0  0  0  0  0  0  0  0
   58.6460   25.7270   45.1270 H   0  0  0  0  0  0  0  0  0  0  0  0
   58.1460   27.9809   47.2445 H   0  0  0  0  0  0  0  0  0  0  0  0
   58.0974   30.4615   47.0222 H   0  0  0  0  0  0  0  0  0  0  0  0
   59.8722   34.1130   44.3355 H   0  0  0  0  0  0  0  0  0  0  0  0
   58.3396   34.7400   45.0748 H   0  0  0  0  0  0  0  0  0  0  0  0
   60.8564   35.5728   45.7946 H   0  0  0  0  0  0  0  0  0  0  0  0
   59.3913   35.6134   46.8703 H   0  0  0  0  0  0  0  0  0  0  0  0
   61.6506   33.1375   45.6703 H   0  0  0  0  0  0  0  0  0  0  0  0
   60.8655   31.4440   47.4905 H   0  0  0  0  0  0  0  0  0  0  0  0
   62.5584   31.1741   46.9253 H   0  0  0  0  0  0  0  0  0  0  0  0
   61.7317   32.6916   49.4568 H   0  0  0  0  0  0  0  0  0  0  0  0
   62.4095   31.0183   49.3869 H   0  0  0  0  0  0  0  0  0  0  0  0
   63.0167   34.4692   48.9520 H   0  0  0  0  0  0  0  0  0  0  0  0
   64.7373   34.2466   48.4487 H   0  0  0  0  0  0  0  0  0  0  0  0
   63.2916   34.8525   46.5174 H   0  0  0  0  0  0  0  0  0  0  0  0
   63.9996   33.1986   46.3424 H   0  0  0  0  0  0  0  0  0  0  0  0
   60.2158   32.3739   48.4074 H   0  0  0  0  0  0  0  0  0  0  0  0
   59.3436   33.9248   48.8199 H   0  0  0  0  0  0  0  0  0  0  0  0
   58.1948   31.8661   47.4399 H   0  0  0  0  0  0  0  0  0  0  0  0
   57.7230   33.5951   47.2694 H   0  0  0  0  0  0  0  0  0  0  0  0
   57.2274   30.0702   42.8013 H   0  0  0  0  0  0  0  0  0  0  0  0
   57.2727   27.5858   43.0208 H   0  0  0  0  0  0  0  0  0  0  0  0
  1  2  1  0
  2  3  1  0
  3  4  2  0
  4  5  1  0
  5  6  1  0
  5  7  2  0
  7  8  1  0
  8  9  2  0
  8 10  1  0
 10 11  1  0
 11 12  2  0
 12 13  1  0
 13 14  2  0
 14 15  1  0
 15 16  2  0
 15 17  2  0
 15 18  1  0
 18 19  1  0
 19 20  1  0
 20 21  1  0
 21 22  1  0
 22 23  1  0
 23 24  1  0
 24 25  1  0
 25 26  1  0
 26 27  1  0
 21 28  1  0
 28 29  1  0
 14 30  1  0
 30 31  2  0
  7  2  1  0
 31 11  1  0
 29 18  1  0
 27 22  1  0
  1 32  1  0
  1 33  1  0
  1 34  1  0
  4 35  1  0
 10 36  1  0
 12 37  1  0
 13 38  1  0
 19 39  1  0
 19 40  1  0
 20 41  1  0
 20 42  1  0
 22 43  1  0
 23 44  1  0
 23 45  1  0
 24 46  1  0
 24 47  1  0
 26 48  1  0
 26 49  1  0
 27 50  1  0
 27 51  1  0
 28 52  1  0
 28 53  1  0
 29 54  1  0
 29 55  1  0
 30 56  1  0
 31 57  1  0
M  END
>  <UniqueID>  (52) 
47

>  <SMILES>  (52) 
Cn1ncc(Cl)c1C(=O)Nc1ccc(S(=O)(=O)N2CCN(C3CCOCC3)CC2)cc1

>  <Energy>  (52) 
113.64328035806017

>  <Genealogy>  (52) 
Cn1ncc(Cl)c1C(=O)Nc1ccc(S(=O)(=O)N2CCN(C3CCOCC3)CC2)cc1 (3D coordinates assigned)
Cn1ncc(Cl)c1C(=O)Nc1ccc(S(=O)(=O)N2CCN(C3CCOCC3)CC2)cc1 (nonaromatic ring conformer: 113.64328035806017 kcal/mol)

>  <smiles>  (52) 
Cn1ncc(Cl)c1C(=O)Nc1ccc(S(=O)(=O)N2CCN(C3CCOCC3)CC2)cc1

>  <score_type>  (52) 
oracle

>  <origin>  (52) 
adg

>  <m_score__min__energy>  (52) 
-9.8800000000000008

>  <m_primary>  (52) 
energy

$$$$
52:0
     RDKit          3D

 34 35  0  0  0  0  0  0  0  0999 V2000
   56.6510   31.3010   41.8660 O   0  0  0  0  0  0  0  0  0  0  0  0
   56.6390   30.8630   43.0490 C   0  0  0  0  0  0  0  0  0  0  0  0
   55.8040   29.6660   43.3860 C   0  0  0  0  0  0  0  0  0  0  0  0
   55.7540   29.4750   44.8360 N   0  0  0  0  0  0  0  0  0  0  0  0
   57.2760   28.9000   45.4480 S   0  0  0  0  0  0  0  0  0  0  0  0
   58.3250   29.0620   44.3830 O   0  0  0  0  0  0  0  0  0  0  0  0
   57.6850   29.7170   46.6420 O   0  0  0  0  0  0  0  0  0  0  0  0
   57.1690   27.1980   45.8900 C   0  0  0  0  0  0  0  0  0  0  0  0
   58.3260   26.4410   46.1140 C   0  0  0  0  0  0  0  0  0  0  0  0
   58.2180   25.0950   46.4710 C   0  0  0  0  0  0  0  0  0  0  0  0
   56.9520   24.5200   46.5960 C   0  0  0  0  0  0  0  0  0  0  0  0
   55.8400   25.2700   46.3740 N   0  0  0  0  0  0  0  0  0  0  0  0
   55.9180   26.5830   46.0340 C   0  0  0  0  0  0  0  0  0  0  0  0
   57.3940   31.5230   44.0730 N   0  0  0  0  0  0  0  0  0  0  0  0
   58.1480   32.7490   43.8260 C   0  0  0  0  0  0  0  0  0  0  0  0
   58.5340   33.4000   45.1190 C   0  0  0  0  0  0  0  0  0  0  0  0
   59.2630   34.5980   45.1270 C   0  0  0  0  0  0  0  0  0  0  0  0
   59.6280   35.1710   46.3460 C   0  0  0  0  0  0  0  0  0  0  0  0
   59.2620   34.5510   47.5420 C   0  0  0  0  0  0  0  0  0  0  0  0
   58.5250   33.3650   47.4980 C   0  0  0  0  0  0  0  0  0  0  0  0
   58.1810   32.8200   46.3000 N   0  0  0  0  0  0  0  0  0  0  0  0
   54.7834   29.8161   43.0041 H   0  0  0  0  0  0  0  0  0  0  0  0
   56.2519   28.7747   42.9224 H   0  0  0  0  0  0  0  0  0  0  0  0
   59.3175   26.9055   46.0090 H   0  0  0  0  0  0  0  0  0  0  0  0
   59.1214   24.4940   46.6519 H   0  0  0  0  0  0  0  0  0  0  0  0
   56.8542   23.4602   46.8741 H   0  0  0  0  0  0  0  0  0  0  0  0
   54.9982   27.1640   45.8716 H   0  0  0  0  0  0  0  0  0  0  0  0
   57.3630   31.1470   45.0480 H   0  0  0  0  0  0  0  0  0  0  0  0
   59.0580   32.5056   43.2580 H   0  0  0  0  0  0  0  0  0  0  0  0
   57.5167   33.4444   43.2533 H   0  0  0  0  0  0  0  0  0  0  0  0
   59.5448   35.0820   44.1803 H   0  0  0  0  0  0  0  0  0  0  0  0
   60.2026   36.1088   46.3644 H   0  0  0  0  0  0  0  0  0  0  0  0
   59.5506   34.9912   48.5079 H   0  0  0  0  0  0  0  0  0  0  0  0
   58.2225   32.8712   48.4332 H   0  0  0  0  0  0  0  0  0  0  0  0
  1  2  2  0
  2  3  1  0
  3  4  1  0
  4  5  1  0
  5  6  2  0
  5  7  2  0
  5  8  1  0
  8  9  2  0
  9 10  1  0
 10 11  2  0
 11 12  1  0
 12 13  2  0
  2 14  1  0
 14 15  1  0
 15 16  1  0
 16 17  2  0
 17 18  1  0
 18 19  2  0
 19 20  1  0
 20 21  2  0
 13  8  1  0
 21 16  1  0
  3 22  1  0
  3 23  1  0
  9 24  1  0
 10 25  1  0
 11 26  1  0
 13 27  1  0
 14 28  1  0
 15 29  1  0
 15 30  1  0
 17 31  1  0
 18 32  1  0
 19 33  1  0
 20 34  1  0
M  CHG  1   4  -1
M  END
>  <UniqueID>  (53) 
48

>  <SMILES>  (53) 
O=C(C[N-]S(=O)(=O)c1cccnc1)NCc1ccccn1

>  <Energy>  (53) 
27.819412333575997

>  <Genealogy>  (53) 
O=C(C[N-]S(=O)(=O)c1cccnc1)NCc1ccccn1 (protonated)
O=C(C[N-]S(=O)(=O)c1cccnc1)NCc1ccccn1 (3D coordinates assigned)
O=C(C[N-]S(=O)(=O)c1cccnc1)NCc1ccccn1 (optimized conformer: 27.819412333575997 kcal/mol)

>  <smiles>  (53) 
O=C(CNS(=O)(=O)c1cccnc1)NCc1ccccn1

>  <score_type>  (53) 
oracle

>  <origin>  (53) 
adg

>  <m_score__min__energy>  (53) 
-8.9399999999999995

>  <m_primary>  (53) 
energy

$$$$
53:0
     RDKit          3D

 33 35  0  0  0  0  0  0  0  0999 V2000
   60.2397   35.0815   46.9305 H   0  0  0  0  0  0  0  0  0  0  0  0
   59.6070   35.1040   46.0310 C   0  0  0  0  0  0  0  0  0  0  0  0
   59.4887   36.0398   45.4651 H   0  0  0  0  0  0  0  0  0  0  0  0
   58.9840   33.9980   45.6270 C   0  0  0  0  0  0  0  0  0  0  0  0
   58.1670   33.9040   44.5180 C   0  0  0  0  0  0  0  0  0  0  0  0
   57.9128   34.7098   43.8137 H   0  0  0  0  0  0  0  0  0  0  0  0
   57.7340   32.5950   44.4720 C   0  0  0  0  0  0  0  0  0  0  0  0
   57.0637   32.1528   43.7202 H   0  0  0  0  0  0  0  0  0  0  0  0
   58.3070   31.9410   45.5580 C   0  0  0  0  0  0  0  0  0  0  0  0
   58.1210   30.6350   45.8590 C   0  0  0  0  0  0  0  0  0  0  0  0
   58.6300   30.1450   47.0230 N   0  0  0  0  0  0  0  0  0  0  0  0
   58.4960   28.8480   47.4070 C   0  0  0  0  0  0  0  0  0  0  0  0
   59.0040   28.4900   48.5050 O   0  0  0  0  0  0  0  0  0  0  0  0
   57.8090   27.9270   46.5830 C   0  0  0  0  0  0  0  0  0  0  0  0
   57.6730   26.6340   46.9700 C   0  0  0  0  0  0  0  0  0  0  0  0
   58.1284   26.3509   47.9305 H   0  0  0  0  0  0  0  0  0  0  0  0
   56.9700   25.5690   46.2220 C   0  0  0  0  0  0  0  0  0  0  0  0
   57.4860   24.3560   45.9330 N   0  0  0  0  0  0  0  0  0  0  0  0
   56.4860   23.6640   45.3440 C   0  0  0  0  0  0  0  0  0  0  0  0
   56.6480   22.2820   44.8080 C   0  0  0  0  0  0  0  0  0  0  0  0
   56.7312   21.5719   45.6440 H   0  0  0  0  0  0  0  0  0  0  0  0
   55.7741   22.0227   44.1923 H   0  0  0  0  0  0  0  0  0  0  0  0
   57.5582   22.2319   44.1923 H   0  0  0  0  0  0  0  0  0  0  0  0
   55.3300   24.4180   45.2560 C   0  0  0  0  0  0  0  0  0  0  0  0
   54.3666   24.1185   44.8177 H   0  0  0  0  0  0  0  0  0  0  0  0
   55.6470   25.6220   45.8350 C   0  0  0  0  0  0  0  0  0  0  0  0
   54.7840   26.6980   45.9990 O   0  0  0  0  0  0  0  0  0  0  0  0
   57.2540   28.4210   45.3840 C   0  0  0  0  0  0  0  0  0  0  0  0
   56.6896   27.7424   44.7275 H   0  0  0  0  0  0  0  0  0  0  0  0
   57.4110   29.7590   45.0190 C   0  0  0  0  0  0  0  0  0  0  0  0
   56.9802   30.1274   44.0763 H   0  0  0  0  0  0  0  0  0  0  0  0
   59.0720   32.8120   46.2600 N   0  0  0  0  0  0  0  0  0  0  0  0
   59.6290   32.6330   47.1240 H   0  0  0  0  0  0  0  0  0  0  0  0
  1  2  1  0
  2  3  1  0
  2  4  2  0
  4  5  1  0
  5  6  1  0
  5  7  2  0
  7  8  1  0
  7  9  1  0
  9 10  2  3
 10 11  1  0
 11 12  1  0
 12 13  2  0
 12 14  1  0
 14 15  2  0
 15 16  1  0
 15 17  1  0
 17 18  1  0
 18 19  1  0
 19 20  1  0
 20 21  1  0
 20 22  1  0
 20 23  1  0
 19 24  2  0
 24 25  1  0
 24 26  1  0
 26 27  1  0
 14 28  1  0
 28 29  1  0
 28 30  2  0
 30 31  1  0
  9 32  1  0
 32 33  1  0
 32  4  1  0
 30 10  1  0
 26 17  2  0
M  CHG  3  11  -1  18  -1  27  -1
M  END
>  <UniqueID>  (54) 
49

>  <SMILES>  (54) 
C=c1ccc(=c2cc/c(=C\c3[n-]c(C)cc3[O-])c(=O)[n-]2)[nH]1

>  <Energy>  (54) 
99.59754921509877

>  <Genealogy>  (54) 
C=c1ccc(=c2ccc(=Cc3[n-]c(C)cc3[O-])c(=O)[n-]2)[nH]1 (protonated)
C=c1ccc(=c2cc/c(=C\c3[n-]c(C)cc3[O-])c(=O)[n-]2)[nH]1 (cis-trans isomerization)
C=c1ccc(=c2cc/c(=C\c3[n-]c(C)cc3[O-])c(=O)[n-]2)[nH]1 (3D coordinates assigned)
C=c1ccc(=c2cc/c(=C\c3[n-]c(C)cc3[O-])c(=O)[n-]2)[nH]1 (optimized conformer: 99.59754921509877 kcal/mol)

>  <smiles>  (54) 
C=c1ccc(=c2ccc(=Cc3[nH]c(C)cc3O)c(=O)[nH]2)[nH]1

>  <score_type>  (54) 
oracle

>  <origin>  (54) 
adg

>  <m_score__min__energy>  (54) 
-13.57

>  <m_primary>  (54) 
energy

$$$$
54:0
     RDKit          3D

 49 51  0  0  0  0  0  0  0  0999 V2000
   62.0420   33.7300   47.4530 C   0  0  0  0  0  0  0  0  0  0  0  0
   61.1090   34.1580   48.5800 C   0  0  0  0  0  0  0  0  0  0  0  0
   59.8270   34.5150   48.0670 O   0  0  0  0  0  0  0  0  0  0  0  0
   59.5310   34.5740   46.6990 C   0  0  0  0  0  0  0  0  0  0  0  0
   59.6570   35.6610   46.0710 O   0  0  0  0  0  0  0  0  0  0  0  0
   59.0990   33.3850   46.0120 N   0  0  0  0  0  0  0  0  0  0  0  0
   58.7170   33.4330   44.5920 C   0  0  0  0  0  0  0  0  0  0  0  0
   57.5370   32.4920   44.3260 C   0  0  0  0  0  0  0  0  0  0  0  0
   57.7560   31.1620   44.9140 N   0  0  0  0  0  0  0  0  0  0  0  0
   56.7850   30.1260   44.6710 C   0  0  0  0  0  0  0  0  0  0  0  0
   55.5700   30.4370   44.5330 O   0  0  0  0  0  0  0  0  0  0  0  0
   57.1740   28.7010   44.5700 C   0  0  0  0  0  0  0  0  0  0  0  0
   57.7700   28.2160   43.3950 C   0  0  0  0  0  0  0  0  0  0  0  0
   58.1320   26.8710   43.2920 C   0  0  0  0  0  0  0  0  0  0  0  0
   57.9230   26.0020   44.3650 C   0  0  0  0  0  0  0  0  0  0  0  0
   57.3680   26.4810   45.5650 C   0  0  0  0  0  0  0  0  0  0  0  0
   57.1310   25.6270   46.6930 N   0  0  0  0  0  0  0  0  0  0  0  0
   57.0710   24.1950   46.6940 C   0  0  0  0  0  0  0  0  0  0  0  0
   57.3900   23.5480   47.7280 O   0  0  0  0  0  0  0  0  0  0  0  0
   56.5780   23.4610   45.5120 C   0  0  0  0  0  0  0  0  0  0  0  0
   57.5150   22.3700   44.6300 S   0  0  0  0  0  0  0  0  0  0  0  0
   56.2750   22.0260   43.5570 C   0  0  0  0  0  0  0  0  0  0  0  0
   56.3690   21.2200   42.5960 O   0  0  0  0  0  0  0  0  0  0  0  0
   55.1480   22.7130   43.8340 N   0  0  0  0  0  0  0  0  0  0  0  0
   55.3050   23.5160   44.9210 C   0  0  0  0  0  0  0  0  0  0  0  0
   54.1740   24.3710   45.4060 C   0  0  0  0  0  0  0  0  0  0  0  0
   56.9850   27.8250   45.6530 C   0  0  0  0  0  0  0  0  0  0  0  0
   58.9230   30.9190   45.7720 C   0  0  0  0  0  0  0  0  0  0  0  0
   59.1380   32.0990   46.7240 C   0  0  0  0  0  0  0  0  0  0  0  0
   62.9633   33.3074   47.8803 H   0  0  0  0  0  0  0  0  0  0  0  0
   61.5435   32.9706   46.8327 H   0  0  0  0  0  0  0  0  0  0  0  0
   62.2925   34.6032   46.8327 H   0  0  0  0  0  0  0  0  0  0  0  0
   60.9946   33.3253   49.2895 H   0  0  0  0  0  0  0  0  0  0  0  0
   61.5435   35.0335   49.0847 H   0  0  0  0  0  0  0  0  0  0  0  0
   58.4277   34.4611   44.3287 H   0  0  0  0  0  0  0  0  0  0  0  0
   59.5737   33.1140   43.9802 H   0  0  0  0  0  0  0  0  0  0  0  0
   56.6273   32.9292   44.7633 H   0  0  0  0  0  0  0  0  0  0  0  0
   57.4340   32.3719   43.2374 H   0  0  0  0  0  0  0  0  0  0  0  0
   57.9527   28.8983   42.5518 H   0  0  0  0  0  0  0  0  0  0  0  0
   58.5835   26.4948   42.3621 H   0  0  0  0  0  0  0  0  0  0  0  0
   58.1933   24.9398   44.2713 H   0  0  0  0  0  0  0  0  0  0  0  0
   54.1650   24.3778   46.5059 H   0  0  0  0  0  0  0  0  0  0  0  0
   54.3050   25.3979   45.0340 H   0  0  0  0  0  0  0  0  0  0  0  0
   53.2217   23.9650   45.0340 H   0  0  0  0  0  0  0  0  0  0  0  0
   56.5303   28.2002   46.5817 H   0  0  0  0  0  0  0  0  0  0  0  0
   58.7570   30.0042   46.3598 H   0  0  0  0  0  0  0  0  0  0  0  0
   59.8148   30.8034   45.1385 H   0  0  0  0  0  0  0  0  0  0  0  0
   58.3464   32.0900   47.4877 H   0  0  0  0  0  0  0  0  0  0  0  0
   60.1310   31.9917   47.1850 H   0  0  0  0  0  0  0  0  0  0  0  0
  1  2  1  0
  2  3  1  0
  3  4  1  0
  4  5  2  0
  4  6  1  0
  6  7  1  0
  7  8  1  0
  8  9  1  0
  9 10  1  0
 10 11  2  0
 10 12  1  0
 12 13  2  0
 13 14  1  0
 14 15  2  0
 15 16  1  0
 16 17  1  0
 17 18  1  0
 18 19  2  0
 18 20  1  0
 20 21  1  0
 21 22  1  0
 22 23  2  0
 22 24  1  0
 24 25  1  0
 25 26  1  0
 16 27  2  0
  9 28  1  0
 28 29  1  0
 29  6  1  0
 27 12  1  0
 25 20  2  0
  1 30  1  0
  1 31  1  0
  1 32  1  0
  2 33  1  0
  2 34  1  0
  7 35  1  0
  7 36  1  0
  8 37  1  0
  8 38  1  0
 13 39  1  0
 14 40  1  0
 15 41  1  0
 26 42  1  0
 26 43  1  0
 26 44  1  0
 27 45  1  0
 28 46  1  0
 28 47  1  0
 29 48  1  0
 29 49  1  0
M  CHG  2  17  -1  24  -1
M  END
>  <UniqueID>  (55) 
50

>  <SMILES>  (55) 
CCOC(=O)N1CCN(C(=O)c2cccc([N-]C(=O)c3sc(=O)[n-]c3C)c2)CC1

>  <Energy>  (55) 
83.34168927600025

>  <Genealogy>  (55) 
CCOC(=O)N1CCN(C(=O)c2cccc([N-]C(=O)c3sc(=O)[n-]c3C)c2)CC1 (protonated)
CCOC(=O)N1CCN(C(=O)c2cccc([N-]C(=O)c3sc(=O)[n-]c3C)c2)CC1 (3D coordinates assigned)
CCOC(=O)N1CCN(C(=O)c2cccc([N-]C(=O)c3sc(=O)[n-]c3C)c2)CC1 (nonaromatic ring conformer: 83.34168927600025 kcal/mol)

>  <smiles>  (55) 
CCOC(=O)N1CCN(C(=O)c2cccc(NC(=O)c3sc(=O)[nH]c3C)c2)CC1

>  <score_type>  (55) 
oracle

>  <origin>  (55) 
adg

>  <m_score__min__energy>  (55) 
-11.91

>  <m_primary>  (55) 
energy

$$$$
55:0
     RDKit          3D

 34 36  0  0  0  0  0  0  0  0999 V2000
   56.4923   28.6801   43.1365 H   0  0  0  0  0  0  0  0  0  0  0  0
   56.6580   29.6830   43.5570 C   0  0  0  0  0  0  0  0  0  0  0  0
   56.3042   30.5722   43.0146 H   0  0  0  0  0  0  0  0  0  0  0  0
   57.2930   29.8220   44.7340 C   0  0  0  0  0  0  0  0  0  0  0  0
   57.4550   31.0910   45.1790 N   0  0  0  0  0  0  0  0  0  0  0  0
   58.0270   31.3860   46.3660 C   0  0  0  0  0  0  0  0  0  0  0  0
   58.1220   32.5970   46.7060 O   0  0  0  0  0  0  0  0  0  0  0  0
   58.4910   30.3880   47.1750 N   0  0  0  0  0  0  0  0  0  0  0  0
   59.1570   30.7180   48.4540 C   0  0  0  0  0  0  0  0  0  0  0  0
   58.4742   31.3196   49.0719 H   0  0  0  0  0  0  0  0  0  0  0  0
   59.4144   29.7815   48.9705 H   0  0  0  0  0  0  0  0  0  0  0  0
   60.4220   31.5000   48.2100 C   0  0  0  0  0  0  0  0  0  0  0  0
   61.5450   30.8800   47.6340 C   0  0  0  0  0  0  0  0  0  0  0  0
   61.5083   29.8109   47.3779 H   0  0  0  0  0  0  0  0  0  0  0  0
   62.7080   31.6150   47.3850 C   0  0  0  0  0  0  0  0  0  0  0  0
   63.5830   31.1232   46.9350 H   0  0  0  0  0  0  0  0  0  0  0  0
   62.7600   32.9730   47.7070 C   0  0  0  0  0  0  0  0  0  0  0  0
   63.6752   33.5505   47.5097 H   0  0  0  0  0  0  0  0  0  0  0  0
   61.6490   33.5980   48.2800 C   0  0  0  0  0  0  0  0  0  0  0  0
   61.6913   34.6674   48.5341 H   0  0  0  0  0  0  0  0  0  0  0  0
   60.4840   32.8670   48.5310 C   0  0  0  0  0  0  0  0  0  0  0  0
   59.6122   33.3638   48.9816 H   0  0  0  0  0  0  0  0  0  0  0  0
   58.3900   29.0790   46.7710 C   0  0  0  0  0  0  0  0  0  0  0  0
   58.9310   28.1840   47.4770 O   0  0  0  0  0  0  0  0  0  0  0  0
   57.7480   28.7350   45.5440 C   0  0  0  0  0  0  0  0  0  0  0  0
   57.6230   27.4390   45.1320 C   0  0  0  0  0  0  0  0  0  0  0  0
   57.8540   27.2293   44.0772 H   0  0  0  0  0  0  0  0  0  0  0  0
   57.2080   26.2910   45.9640 C   0  0  0  0  0  0  0  0  0  0  0  0
   58.0510   25.4470   46.5880 N   0  0  0  0  0  0  0  0  0  0  0  0
   57.2270   24.6670   47.3220 C   0  0  0  0  0  0  0  0  0  0  0  0
   57.6500   23.7290   48.0470 O   0  0  0  0  0  0  0  0  0  0  0  0
   55.9180   24.9800   47.2270 N   0  0  0  0  0  0  0  0  0  0  0  0
   55.9250   26.0180   46.3750 C   0  0  0  0  0  0  0  0  0  0  0  0
   54.7830   26.7060   45.9850 O   0  0  0  0  0  0  0  0  0  0  0  0
  1  2  1  0
  2  3  1  0
  2  4  2  0
  4  5  1  0
  5  6  1  0
  6  7  2  0
  6  8  1  0
  8  9  1  0
  9 10  1  0
  9 11  1  0
  9 12  1  0
 12 13  2  0
 13 14  1  0
 13 15  1  0
 15 16  1  0
 15 17  2  0
 17 18  1  0
 17 19  1  0
 19 20  1  0
 19 21  2  0
 21 22  1  0
  8 23  1  0
 23 24  2  0
 23 25  1  0
 25 26  2  0
 26 27  1  0
 26 28  1  0
 28 29  1  0
 29 30  1  0
 30 31  2  0
 30 32  1  0
 32 33  1  0
 33 34  1  0
 25  4  1  0
 33 28  2  0
 21 12  1  0
M  CHG  4   5  -1  29  -1  32  -1  34  -1
M  END
>  <UniqueID>  (56) 
51

>  <SMILES>  (56) 
C=c1[n-]c(=O)n(Cc2ccccc2)c(=O)/c1=C\c1[n-]c(=O)[n-]c1[O-]

>  <Energy>  (56) 
89.71785121673135

>  <Genealogy>  (56) 
C=c1[n-]c(=O)n(Cc2ccccc2)c(=O)c1=Cc1[n-]c(=O)[n-]c1[O-] (protonated)
C=c1[n-]c(=O)n(Cc2ccccc2)c(=O)/c1=C\c1[n-]c(=O)[n-]c1[O-] (cis-trans isomerization)
C=c1[n-]c(=O)n(Cc2ccccc2)c(=O)/c1=C\c1[n-]c(=O)[n-]c1[O-] (3D coordinates assigned)
C=c1[n-]c(=O)n(Cc2ccccc2)c(=O)/c1=C\c1[n-]c(=O)[n-]c1[O-] (optimized conformer: 89.71785121673135 kcal/mol)

>  <smiles>  (56) 
C=c1[nH]c(=O)n(Cc2ccccc2)c(=O)c1=Cc1[nH]c(=O)[nH]c1O

>  <score_type>  (56) 
oracle

>  <origin>  (56) 
adg

>  <m_score__min__energy>  (56) 
-16.870000000000001

>  <m_primary>  (56) 
energy

$$$$
56:0
     RDKit          3D

 18 18  0  0  0  0  0  0  0  0999 V2000
   50.8430   29.7510   54.3910 C   0  0  0  0  0  0  0  0  0  0  0  0
   50.7970   30.8310   53.5960 C   0  0  0  0  0  0  0  0  0  0  0  0
   50.4080   32.0680   54.1330 C   0  0  0  0  0  0  0  0  0  0  0  0
   50.3580   33.2000   53.3130 C   0  0  0  0  0  0  0  0  0  0  0  0
   49.9450   34.5230   53.8760 C   0  0  0  0  0  0  0  0  0  0  0  0
   50.6850   33.0970   51.9990 N   0  0  0  0  0  0  0  0  0  0  0  0
   51.0680   31.9210   51.4310 C   0  0  0  0  0  0  0  0  0  0  0  0
   51.3740   31.9080   50.1290 C   0  0  0  0  0  0  0  0  0  0  0  0
   51.1330   30.7540   52.2250 C   0  0  0  0  0  0  0  0  0  0  0  0
   51.4870   29.6530   51.7130 O   0  0  0  0  0  0  0  0  0  0  0  0
   51.1467   28.7773   53.9790 H   0  0  0  0  0  0  0  0  0  0  0  0
   50.5770   29.8393   55.4547 H   0  0  0  0  0  0  0  0  0  0  0  0
   50.1427   32.1471   55.1976 H   0  0  0  0  0  0  0  0  0  0  0  0
   49.9601   34.4747   54.9748 H   0  0  0  0  0  0  0  0  0  0  0  0
   50.6430   35.3012   53.5336 H   0  0  0  0  0  0  0  0  0  0  0  0
   48.9283   34.7659   53.5336 H   0  0  0  0  0  0  0  0  0  0  0  0
   51.6863   30.9700   49.6468 H   0  0  0  0  0  0  0  0  0  0  0  0
   51.3134   32.8353   49.5405 H   0  0  0  0  0  0  0  0  0  0  0  0
  1  2  2  0
  2  3  1  0
  3  4  2  0
  4  5  1  0
  4  6  1  0
  6  7  1  0
  7  8  2  0
  7  9  1  0
  9 10  2  0
  9  2  1  0
  1 11  1  0
  1 12  1  0
  3 13  1  0
  5 14  1  0
  5 15  1  0
  5 16  1  0
  8 17  1  0
  8 18  1  0
M  CHG  1   6  -1
M  END
>  <UniqueID>  (57) 
52

>  <SMILES>  (57) 
C=c1cc(C)[n-]c(=C)c1=O

>  <Energy>  (57) 
19.18579563316541

>  <Genealogy>  (57) 
C=c1cc(C)[n-]c(=C)c1=O (protonated)
C=c1cc(C)[n-]c(=C)c1=O (3D coordinates assigned)
C=c1cc(C)[n-]c(=C)c1=O (optimized conformer: 19.18579563316541 kcal/mol)

>  <smiles>  (57) 
C=c1cc(C)[nH]c(=C)c1=O

>  <score_type>  (57) 
oracle

>  <origin>  (57) 
adg

>  <m_score__min__energy>  (57) 
-7.6900000000000004

>  <m_primary>  (57) 
energy

$$$$
57:0
     RDKit          3D

 37 38  0  0  0  0  0  0  0  0999 V2000
   64.1140   32.7920   48.8150 C   0  0  0  0  0  0  0  0  0  0  0  0
   63.4170   33.3150   47.6060 C   0  0  0  0  0  0  0  0  0  0  0  0
   63.9460   33.1690   46.4710 O   0  0  0  0  0  0  0  0  0  0  0  0
   62.1330   33.8600   47.7440 O   0  0  0  0  0  0  0  0  0  0  0  0
   60.9870   33.4330   47.0560 C   0  0  0  0  0  0  0  0  0  0  0  0
   60.2660   34.3790   46.3160 C   0  0  0  0  0  0  0  0  0  0  0  0
   59.1290   34.0010   45.5970 C   0  0  0  0  0  0  0  0  0  0  0  0
   58.7050   32.6620   45.5930 C   0  0  0  0  0  0  0  0  0  0  0  0
   57.4310   32.2650   44.9010 C   0  0  0  0  0  0  0  0  0  0  0  0
   57.0230   30.9840   45.3710 O   0  0  0  0  0  0  0  0  0  0  0  0
   56.4210   30.0350   44.5400 C   0  0  0  0  0  0  0  0  0  0  0  0
   55.1640   29.9570   44.4550 O   0  0  0  0  0  0  0  0  0  0  0  0
   57.2780   29.0220   43.8570 C   0  0  0  0  0  0  0  0  0  0  0  0
   57.7840   28.0440   44.8850 C   0  0  0  0  0  0  0  0  0  0  0  0
   59.1700   27.8810   45.0700 C   0  0  0  0  0  0  0  0  0  0  0  0
   59.6560   27.0460   46.0790 C   0  0  0  0  0  0  0  0  0  0  0  0
   58.7670   26.3690   46.9170 C   0  0  0  0  0  0  0  0  0  0  0  0
   57.3880   26.5330   46.7530 C   0  0  0  0  0  0  0  0  0  0  0  0
   56.8940   27.3730   45.7480 C   0  0  0  0  0  0  0  0  0  0  0  0
   55.5200   27.5440   45.6200 O   0  0  0  0  0  0  0  0  0  0  0  0
   59.4280   31.7110   46.3300 C   0  0  0  0  0  0  0  0  0  0  0  0
   60.5670   32.0890   47.0480 C   0  0  0  0  0  0  0  0  0  0  0  0
   63.6125   33.1683   49.7188 H   0  0  0  0  0  0  0  0  0  0  0  0
   64.0829   31.6925   48.8093 H   0  0  0  0  0  0  0  0  0  0  0  0
   65.1610   33.1292   48.8093 H   0  0  0  0  0  0  0  0  0  0  0  0
   60.5975   35.4277   46.3008 H   0  0  0  0  0  0  0  0  0  0  0  0
   58.5632   34.7559   45.0313 H   0  0  0  0  0  0  0  0  0  0  0  0
   56.6469   33.0045   45.1208 H   0  0  0  0  0  0  0  0  0  0  0  0
   57.5975   32.2245   43.8144 H   0  0  0  0  0  0  0  0  0  0  0  0
   56.6868   28.4884   43.0982 H   0  0  0  0  0  0  0  0  0  0  0  0
   58.1263   29.5200   43.3647 H   0  0  0  0  0  0  0  0  0  0  0  0
   59.8750   28.4147   44.4157 H   0  0  0  0  0  0  0  0  0  0  0  0
   60.7406   26.9215   46.2138 H   0  0  0  0  0  0  0  0  0  0  0  0
   59.1518   25.7065   47.7063 H   0  0  0  0  0  0  0  0  0  0  0  0
   56.6896   26.0006   47.4154 H   0  0  0  0  0  0  0  0  0  0  0  0
   59.0967   30.6622   46.3429 H   0  0  0  0  0  0  0  0  0  0  0  0
   61.1370   31.3335   47.6087 H   0  0  0  0  0  0  0  0  0  0  0  0
  1  2  1  0
  2  3  2  0
  2  4  1  0
  4  5  1  0
  5  6  2  0
  6  7  1  0
  7  8  2  0
  8  9  1  0
  9 10  1  0
 10 11  1  0
 11 12  2  0
 11 13  1  0
 13 14  1  0
 14 15  2  0
 15 16  1  0
 16 17  2  0
 17 18  1  0
 18 19  2  0
 19 20  1  0
  8 21  1  0
 21 22  2  0
 22  5  1  0
 19 14  1  0
  1 23  1  0
  1 24  1  0
  1 25  1  0
  6 26  1  0
  7 27  1  0
  9 28  1  0
  9 29  1  0
 13 30  1  0
 13 31  1  0
 15 32  1  0
 16 33  1  0
 17 34  1  0
 18 35  1  0
 21 36  1  0
 22 37  1  0
M  CHG  1  20  -1
M  END
>  <UniqueID>  (58) 
53

>  <SMILES>  (58) 
CC(=O)Oc1ccc(COC(=O)Cc2ccccc2[O-])cc1

>  <Energy>  (58) 
34.7007561598455

>  <Genealogy>  (58) 
CC(=O)Oc1ccc(COC(=O)Cc2ccccc2[O-])cc1 (protonated)
CC(=O)Oc1ccc(COC(=O)Cc2ccccc2[O-])cc1 (3D coordinates assigned)
CC(=O)Oc1ccc(COC(=O)Cc2ccccc2[O-])cc1 (optimized conformer: 34.7007561598455 kcal/mol)

>  <smiles>  (58) 
CC(=O)Oc1ccc(COC(=O)Cc2ccccc2O)cc1

>  <score_type>  (58) 
oracle

>  <origin>  (58) 
adg

>  <m_score__min__energy>  (58) 
-11.140000000000001

>  <m_primary>  (58) 
energy

$$$$
58:0
     RDKit          3D

 67 70  0  0  0  0  0  0  0  0999 V2000
   60.2060   26.0450   46.3510 C   0  0  0  0  0  0  0  0  0  0  0  0
   59.3500   27.3000   46.4590 C   0  0  0  0  0  0  0  0  0  0  0  0
   59.8610   28.4710   45.5950 C   0  0  0  0  0  0  0  0  0  0  0  0
   58.7520   29.4210   45.1200 C   0  0  0  0  0  0  0  0  0  0  0  0
   57.8530   28.9920   44.0980 C   0  0  0  0  0  0  0  0  0  0  0  0
   58.0630   27.7110   43.3170 C   0  0  0  0  0  0  0  0  0  0  0  0
   56.7730   29.8260   43.7720 C   0  0  0  0  0  0  0  0  0  0  0  0
   55.9240   29.4830   42.9050 O   0  0  0  0  0  0  0  0  0  0  0  0
   56.6300   31.0170   44.3860 N   0  0  0  0  0  0  0  0  0  0  0  0
   57.5160   31.4600   45.3040 C   0  0  0  0  0  0  0  0  0  0  0  0
   57.3230   32.5940   45.8200 O   0  0  0  0  0  0  0  0  0  0  0  0
   58.5990   30.6900   45.6660 N   0  0  0  0  0  0  0  0  0  0  0  0
   59.5960   31.2880   46.5920 C   0  0  0  0  0  0  0  0  0  0  0  0
   59.2390   31.0930   48.0500 C   0  0  0  0  0  0  0  0  0  0  0  0
   59.5390   29.8910   48.7190 C   0  0  0  0  0  0  0  0  0  0  0  0
   59.2010   29.7260   50.0640 C   0  0  0  0  0  0  0  0  0  0  0  0
   58.5260   30.7430   50.7500 C   0  0  0  0  0  0  0  0  0  0  0  0
   58.1530   30.5590   52.1200 N   0  0  0  0  0  0  0  0  0  0  0  0
   59.0450   30.0140   53.1230 C   0  0  0  0  0  0  0  0  0  0  0  0
   58.1550   29.6780   54.3120 C   0  0  0  0  0  0  0  0  0  0  0  0
   56.8440   30.4680   54.1040 C   0  0  2  0  0  0  0  0  0  0  0  0
   55.6450   29.7490   54.6310 N   0  0  2  0  0  0  0  0  0  0  0  0
   56.0120   28.7350   55.6430 C   0  0  0  0  0  0  0  0  0  0  0  0
   54.8120   29.1440   53.5540 C   0  0  0  0  0  0  0  0  0  0  0  0
   53.8080   30.0980   52.9290 C   0  0  0  0  0  0  0  0  0  0  0  0
   52.7510   30.6320   53.6880 C   0  0  0  0  0  0  0  0  0  0  0  0
   51.8260   31.5020   53.1010 C   0  0  0  0  0  0  0  0  0  0  0  0
   51.9410   31.8390   51.7470 C   0  0  0  0  0  0  0  0  0  0  0  0
   51.0190   32.6970   51.1610 O   0  0  0  0  0  0  0  0  0  0  0  0
   52.9790   31.3030   50.9810 C   0  0  0  0  0  0  0  0  0  0  0  0
   53.9040   30.4320   51.5660 C   0  0  0  0  0  0  0  0  0  0  0  0
   56.7880   30.6990   52.5840 C   0  0  0  0  0  0  0  0  0  0  0  0
   58.1800   31.9200   50.0810 C   0  0  0  0  0  0  0  0  0  0  0  0
   58.5400   32.1030   48.7420 C   0  0  0  0  0  0  0  0  0  0  0  0
   58.2000   33.2610   48.1200 F   0  0  0  0  0  0  0  0  0  0  0  0
   60.4535   25.6821   47.3595 H   0  0  0  0  0  0  0  0  0  0  0  0
   59.6494   25.2671   45.8078 H   0  0  0  0  0  0  0  0  0  0  0  0
   61.1334   26.2793   45.8078 H   0  0  0  0  0  0  0  0  0  0  0  0
   58.3271   27.0521   46.1392 H   0  0  0  0  0  0  0  0  0  0  0  0
   59.3915   27.6301   47.5075 H   0  0  0  0  0  0  0  0  0  0  0  0
   60.5833   29.0505   46.1886 H   0  0  0  0  0  0  0  0  0  0  0  0
   60.3133   28.0308   44.6941 H   0  0  0  0  0  0  0  0  0  0  0  0
   58.2003   26.8733   44.0166 H   0  0  0  0  0  0  0  0  0  0  0  0
   57.1843   27.5195   42.6836 H   0  0  0  0  0  0  0  0  0  0  0  0
   58.9569   27.8101   42.6836 H   0  0  0  0  0  0  0  0  0  0  0  0
   60.5736   30.8199   46.4047 H   0  0  0  0  0  0  0  0  0  0  0  0
   59.6163   32.3709   46.3997 H   0  0  0  0  0  0  0  0  0  0  0  0
   60.0431   29.0762   48.1786 H   0  0  0  0  0  0  0  0  0  0  0  0
   59.4658   28.7946   50.5858 H   0  0  0  0  0  0  0  0  0  0  0  0
   59.5419   29.1081   52.7455 H   0  0  0  0  0  0  0  0  0  0  0  0
   59.8405   30.7239   53.3937 H   0  0  0  0  0  0  0  0  0  0  0  0
   57.9490   28.5978   54.3413 H   0  0  0  0  0  0  0  0  0  0  0  0
   58.6382   29.9454   55.2633 H   0  0  0  0  0  0  0  0  0  0  0  0
   56.8330   31.4136   54.6659 H   0  0  0  0  0  0  0  0  0  0  0  0
   55.0380   30.4490   55.1190 H   0  0  0  0  0  0  0  0  0  0  0  0
   55.8615   29.1509   56.6501 H   0  0  0  0  0  0  0  0  0  0  0  0
   55.3792   27.8443   55.5158 H   0  0  0  0  0  0  0  0  0  0  0  0
   57.0683   28.4556   55.5158 H   0  0  0  0  0  0  0  0  0  0  0  0
   55.4835   28.7827   52.7612 H   0  0  0  0  0  0  0  0  0  0  0  0
   54.2298   28.3367   54.0223 H   0  0  0  0  0  0  0  0  0  0  0  0
   52.6511   30.3638   54.7501 H   0  0  0  0  0  0  0  0  0  0  0  0
   51.0074   31.9218   53.7040 H   0  0  0  0  0  0  0  0  0  0  0  0
   53.0690   31.5662   49.9167 H   0  0  0  0  0  0  0  0  0  0  0  0
   54.7130   30.0048   50.9553 H   0  0  0  0  0  0  0  0  0  0  0  0
   56.1405   29.9498   52.1050 H   0  0  0  0  0  0  0  0  0  0  0  0
   56.3726   31.6871   52.3367 H   0  0  0  0  0  0  0  0  0  0  0  0
   57.6218   32.7064   50.6101 H   0  0  0  0  0  0  0  0  0  0  0  0
  1  2  1  0
  2  3  1  0
  3  4  1  0
  4  5  2  0
  5  6  1  0
  5  7  1  0
  7  8  2  0
  7  9  1  0
  9 10  1  0
 10 11  2  0
 10 12  1  0
 12 13  1  0
 13 14  1  0
 14 15  2  0
 15 16  1  0
 16 17  2  0
 17 18  1  0
 18 19  1  0
 19 20  1  0
 20 21  1  0
 21 22  1  0
 22 23  1  0
 22 24  1  0
 24 25  1  0
 25 26  2  0
 26 27  1  0
 27 28  2  0
 28 29  1  0
 28 30  1  0
 30 31  2  0
 21 32  1  0
 17 33  1  0
 33 34  2  0
 34 35  1  0
 12  4  1  0
 34 14  1  0
 32 18  1  0
 31 25  1  0
  1 36  1  0
  1 37  1  0
  1 38  1  0
  2 39  1  0
  2 40  1  0
  3 41  1  0
  3 42  1  0
  6 43  1  0
  6 44  1  0
  6 45  1  0
 13 46  1  0
 13 47  1  0
 15 48  1  0
 16 49  1  0
 19 50  1  0
 19 51  1  0
 20 52  1  0
 20 53  1  0
 21 54  1  1
 22 55  1  1
 23 56  1  0
 23 57  1  0
 23 58  1  0
 24 59  1  0
 24 60  1  0
 26 61  1  0
 27 62  1  0
 30 63  1  0
 31 64  1  0
 32 65  1  0
 32 66  1  0
 33 67  1  0
M  CHG  3   9  -1  22   1  29  -1
M  END
>  <UniqueID>  (59) 
54

>  <SMILES>  (59) 
CCCc1c(C)c(=O)[n-]c(=O)n1Cc1ccc(N2CC[C@H]([N@H+](C)Cc3ccc([O-])cc3)C2)cc1F

>  <Energy>  (59) 
93.391019319797

>  <Genealogy>  (59) 
CCCc1c(C)c(=O)[n-]c(=O)n1Cc1ccc(N2CCC([NH+](C)Cc3ccc([O-])cc3)C2)cc1F (protonated)
CCCc1c(C)c(=O)[n-]c(=O)n1Cc1ccc(N2CC[C@H]([N@H+](C)Cc3ccc([O-])cc3)C2)cc1F (chirality)
CCCc1c(C)c(=O)[n-]c(=O)n1Cc1ccc(N2CC[C@H]([N@H+](C)Cc3ccc([O-])cc3)C2)cc1F (3D coordinates assigned)
CCCc1c(C)c(=O)[n-]c(=O)n1Cc1ccc(N2CC[C@H]([N@H+](C)Cc3ccc([O-])cc3)C2)cc1F (nonaromatic ring conformer: 93.391019319797 kcal/mol)

>  <smiles>  (59) 
CCCc1c(C)c(=O)[nH]c(=O)n1Cc1ccc(N2CCC(N(C)Cc3ccc(O)cc3)C2)cc1F

>  <score_type>  (59) 
oracle

>  <origin>  (59) 
adg

>  <m_score__min__energy>  (59) 
-13.130000000000001

>  <m_primary>  (59) 
energy

$$$$
59:0
     RDKit          3D

 65 68  0  0  0  0  0  0  0  0999 V2000
   57.6520   21.3890   43.6040 C   0  0  0  0  0  0  0  0  0  0  0  0
   56.2380   21.7770   43.7470 N   0  0  0  0  0  0  0  0  0  0  0  0
   55.8170   21.8230   45.1730 C   0  0  0  0  0  0  0  0  0  0  0  0
   55.6590   23.2500   45.7310 C   0  0  0  0  0  0  0  0  0  0  0  0
   56.6190   24.1540   45.0900 N   0  0  0  0  0  0  0  0  0  0  0  0
   57.5800   24.9020   45.8610 C   0  0  0  0  0  0  0  0  0  0  0  0
   58.8470   25.2030   45.3300 C   0  0  0  0  0  0  0  0  0  0  0  0
   59.7580   25.9670   46.0640 C   0  0  0  0  0  0  0  0  0  0  0  0
   59.4080   26.4650   47.3260 C   0  0  0  0  0  0  0  0  0  0  0  0
   60.3490   27.3010   48.0920 C   0  0  0  0  0  0  0  0  0  0  0  0
   60.7510   26.8920   49.2120 O   0  0  0  0  0  0  0  0  0  0  0  0
   60.7890   28.5850   47.6270 N   0  0  0  0  0  0  0  0  0  0  0  0
   60.0840   29.8590   47.7930 C   0  0  2  0  0  0  0  0  0  0  0  0
   59.8380   30.4790   46.4060 C   0  0  0  0  0  0  0  0  0  0  0  0
   58.4810   30.0950   45.8700 C   0  0  0  0  0  0  0  0  0  0  0  0
   57.9430   28.8270   46.1470 C   0  0  0  0  0  0  0  0  0  0  0  0
   56.7070   28.4530   45.6100 C   0  0  0  0  0  0  0  0  0  0  0  0
   56.0020   29.3390   44.7890 C   0  0  0  0  0  0  0  0  0  0  0  0
   54.7730   28.9680   44.2570 O   0  0  0  0  0  0  0  0  0  0  0  0
   56.5360   30.5990   44.5020 C   0  0  0  0  0  0  0  0  0  0  0  0
   57.7720   30.9760   45.0370 C   0  0  0  0  0  0  0  0  0  0  0  0
   60.8570   30.8310   48.6650 C   0  0  0  0  0  0  0  0  0  0  0  0
   60.8990   30.6090   49.9060 O   0  0  0  0  0  0  0  0  0  0  0  0
   61.5260   31.9990   48.1440 N   0  0  0  0  0  0  0  0  0  0  0  0
   61.4700   33.2510   48.9100 C   0  0  0  0  0  0  0  0  0  0  0  0
   62.8220   33.5280   49.5910 C   0  0  0  0  0  0  0  0  0  0  0  0
   64.0340   33.0830   48.7420 C   0  0  0  0  0  0  0  0  0  0  0  0
   63.6750   32.9030   47.2640 C   0  0  0  0  0  0  0  0  0  0  0  0
   62.5640   31.8520   47.1100 C   0  0  0  0  0  0  0  0  0  0  0  0
   58.1580   26.1420   47.8720 C   0  0  0  0  0  0  0  0  0  0  0  0
   57.2470   25.3770   47.1410 C   0  0  0  0  0  0  0  0  0  0  0  0
   56.6190   24.2450   43.6250 C   0  0  0  0  0  0  0  0  0  0  0  0
   55.9320   23.0170   43.0020 C   0  0  0  0  0  0  0  0  0  0  0  0
   58.1010   21.2658   44.6006 H   0  0  0  0  0  0  0  0  0  0  0  0
   57.7177   20.4396   43.0523 H   0  0  0  0  0  0  0  0  0  0  0  0
   58.1931   22.1719   43.0523 H   0  0  0  0  0  0  0  0  0  0  0  0
   54.8506   21.3058   45.2657 H   0  0  0  0  0  0  0  0  0  0  0  0
   56.6131   21.3380   45.7569 H   0  0  0  0  0  0  0  0  0  0  0  0
   54.6371   23.6061   45.5337 H   0  0  0  0  0  0  0  0  0  0  0  0
   55.8490   23.2346   46.8144 H   0  0  0  0  0  0  0  0  0  0  0  0
   59.1225   24.8347   44.3308 H   0  0  0  0  0  0  0  0  0  0  0  0
   60.7546   26.1785   45.6491 H   0  0  0  0  0  0  0  0  0  0  0  0
   59.1281   29.6587   48.2991 H   0  0  0  0  0  0  0  0  0  0  0  0
   59.8948   31.5745   46.4874 H   0  0  0  0  0  0  0  0  0  0  0  0
   60.6055   30.1013   45.7144 H   0  0  0  0  0  0  0  0  0  0  0  0
   58.4962   28.1256   46.7888 H   0  0  0  0  0  0  0  0  0  0  0  0
   56.2887   27.4605   45.8337 H   0  0  0  0  0  0  0  0  0  0  0  0
   55.9829   31.2950   43.8542 H   0  0  0  0  0  0  0  0  0  0  0  0
   58.1905   31.9664   44.8045 H   0  0  0  0  0  0  0  0  0  0  0  0
   61.2309   34.0813   48.2293 H   0  0  0  0  0  0  0  0  0  0  0  0
   60.6941   33.1595   49.6843 H   0  0  0  0  0  0  0  0  0  0  0  0
   62.9042   34.6089   49.7781 H   0  0  0  0  0  0  0  0  0  0  0  0
   62.8440   32.9443   50.5231 H   0  0  0  0  0  0  0  0  0  0  0  0
   64.8223   33.8458   48.8240 H   0  0  0  0  0  0  0  0  0  0  0  0
   64.3743   32.1100   49.1261 H   0  0  0  0  0  0  0  0  0  0  0  0
   63.3258   33.8629   46.8557 H   0  0  0  0  0  0  0  0  0  0  0  0
   64.5673   32.5638   46.7174 H   0  0  0  0  0  0  0  0  0  0  0  0
   62.0992   31.9675   46.1197 H   0  0  0  0  0  0  0  0  0  0  0  0
   63.0176   30.8559   47.2197 H   0  0  0  0  0  0  0  0  0  0  0  0
   57.8937   26.4927   48.8806 H   0  0  0  0  0  0  0  0  0  0  0  0
   56.2613   25.1444   47.5702 H   0  0  0  0  0  0  0  0  0  0  0  0
   56.0794   25.1537   43.3200 H   0  0  0  0  0  0  0  0  0  0  0  0
   57.6607   24.2827   43.2737 H   0  0  0  0  0  0  0  0  0  0  0  0
   54.8437   23.1767   43.0090 H   0  0  0  0  0  0  0  0  0  0  0  0
   56.3090   22.8997   41.9753 H   0  0  0  0  0  0  0  0  0  0  0  0
  1  2  1  0
  2  3  1  0
  3  4  1  0
  4  5  1  0
  5  6  1  0
  6  7  2  0
  7  8  1  0
  8  9  2  0
  9 10  1  0
 10 11  2  0
 10 12  1  0
 12 13  1  0
 13 14  1  0
 14 15  1  0
 15 16  2  0
 16 17  1  0
 17 18  2  0
 18 19  1  0
 18 20  1  0
 20 21  2  0
 13 22  1  0
 22 23  2  0
 22 24  1  0
 24 25  1  0
 25 26  1  0
 26 27  1  0
 27 28  1  0
 28 29  1  0
  9 30  1  0
 30 31  2  0
  5 32  1  0
 32 33  1  0
 33  2  1  0
 31  6  1  0
 21 15  1  0
 29 24  1  0
  1 34  1  0
  1 35  1  0
  1 36  1  0
  3 37  1  0
  3 38  1  0
  4 39  1  0
  4 40  1  0
  7 41  1  0
  8 42  1  0
 13 43  1  1
 14 44  1  0
 14 45  1  0
 16 46  1  0
 17 47  1  0
 20 48  1  0
 21 49  1  0
 25 50  1  0
 25 51  1  0
 26 52  1  0
 26 53  1  0
 27 54  1  0
 27 55  1  0
 28 56  1  0
 28 57  1  0
 29 58  1  0
 29 59  1  0
 30 60  1  0
 31 61  1  0
 32 62  1  0
 32 63  1  0
 33 64  1  0
 33 65  1  0
M  CHG  2  12  -1  19  -1
M  END
>  <UniqueID>  (60) 
55

>  <SMILES>  (60) 
CN1CCN(c2ccc(C(=O)[N-][C@H](Cc3ccc([O-])cc3)C(=O)N3CCCCC3)cc2)CC1

>  <Energy>  (60) 
87.3521796623162

>  <Genealogy>  (60) 
CN1CCN(c2ccc(C(=O)[N-]C(Cc3ccc([O-])cc3)C(=O)N3CCCCC3)cc2)CC1 (protonated)
CN1CCN(c2ccc(C(=O)[N-][C@H](Cc3ccc([O-])cc3)C(=O)N3CCCCC3)cc2)CC1 (chirality)
CN1CCN(c2ccc(C(=O)[N-][C@H](Cc3ccc([O-])cc3)C(=O)N3CCCCC3)cc2)CC1 (3D coordinates assigned)
CN1CCN(c2ccc(C(=O)[N-][C@H](Cc3ccc([O-])cc3)C(=O)N3CCCCC3)cc2)CC1 (nonaromatic ring conformer: 87.3521796623162 kcal/mol)

>  <smiles>  (60) 
CN1CCN(c2ccc(C(=O)NC(Cc3ccc(O)cc3)C(=O)N3CCCCC3)cc2)CC1

>  <score_type>  (60) 
oracle

>  <origin>  (60) 
adg

>  <m_score__min__energy>  (60) 
-12.640000000000001

>  <m_primary>  (60) 
energy

$$$$
60:0
     RDKit          3D

 57 61  0  0  0  0  0  0  0  0999 V2000
   64.2390   31.9330   46.9130 H   0  0  0  0  0  0  0  0  0  0  0  0
   63.2620   32.0390   47.0490 O   0  0  0  0  0  0  0  0  0  0  0  0
   63.0920   32.9380   48.1120 C   0  0  0  0  0  0  0  0  0  0  0  0
   63.9813   33.5808   48.1887 H   0  0  0  0  0  0  0  0  0  0  0  0
   62.9560   32.3680   49.0429 H   0  0  0  0  0  0  0  0  0  0  0  0
   61.8520   33.8150   47.8790 C   0  0  2  0  0  0  0  0  0  0  0  0
   62.0281   34.7145   48.4872 H   0  0  0  0  0  0  0  0  0  0  0  0
   60.6090   33.1380   48.2840 N   0  0  0  0  0  0  0  0  0  0  0  0
   60.3320   32.7050   49.6300 C   0  0  0  0  0  0  0  0  0  0  0  0
   59.3670   33.2250   50.2530 O   0  0  0  0  0  0  0  0  0  0  0  0
   61.1410   31.6640   50.3140 C   0  0  0  0  0  0  0  0  0  0  0  0
   61.8160   32.0130   51.5000 C   0  0  0  0  0  0  0  0  0  0  0  0
   61.7693   33.0484   51.8684 H   0  0  0  0  0  0  0  0  0  0  0  0
   62.5430   31.0590   52.2120 C   0  0  0  0  0  0  0  0  0  0  0  0
   63.0621   31.3448   53.1387 H   0  0  0  0  0  0  0  0  0  0  0  0
   62.6140   29.7440   51.7530 C   0  0  0  0  0  0  0  0  0  0  0  0
   63.1775   28.9916   52.3242 H   0  0  0  0  0  0  0  0  0  0  0  0
   61.9700   29.3830   50.5690 C   0  0  0  0  0  0  0  0  0  0  0  0
   62.0282   28.3446   50.2108 H   0  0  0  0  0  0  0  0  0  0  0  0
   61.2490   30.3340   49.8320 C   0  0  0  0  0  0  0  0  0  0  0  0
   60.6500   29.9260   48.5910 N   0  0  0  0  0  0  0  0  0  0  0  0
   59.3700   29.5290   48.3800 C   0  0  0  0  0  0  0  0  0  0  0  0
   58.4620   29.4090   49.3620 C   0  0  0  0  0  0  0  0  0  0  0  0
   58.7306   29.6750   50.3950 H   0  0  0  0  0  0  0  0  0  0  0  0
   57.4496   29.0447   49.1334 H   0  0  0  0  0  0  0  0  0  0  0  0
   59.2220   29.2430   47.0100 C   0  0  0  0  0  0  0  0  0  0  0  0
   58.1560   28.8250   46.2960 C   0  0  0  0  0  0  0  0  0  0  0  0
   57.7795   29.4977   45.5113 H   0  0  0  0  0  0  0  0  0  0  0  0
   57.4540   27.5420   46.4800 C   0  0  0  0  0  0  0  0  0  0  0  0
   56.1750   27.3340   45.9380 C   0  0  0  0  0  0  0  0  0  0  0  0
   55.5220   28.3500   45.2490 O   0  0  0  0  0  0  0  0  0  0  0  0
   55.5660   26.1300   46.0870 N   0  0  0  0  0  0  0  0  0  0  0  0
   56.1800   25.1100   46.7390 C   0  0  0  0  0  0  0  0  0  0  0  0
   55.5950   24.0040   46.8690 O   0  0  0  0  0  0  0  0  0  0  0  0
   57.4280   25.2800   47.2480 N   0  0  0  0  0  0  0  0  0  0  0  0
   58.0800   26.4660   47.1260 C   0  0  0  0  0  0  0  0  0  0  0  0
   59.2410   26.5860   47.5990 O   0  0  0  0  0  0  0  0  0  0  0  0
   60.4830   29.4890   46.4730 C   0  0  0  0  0  0  0  0  0  0  0  0
   60.9060   29.3220   45.0450 C   0  0  0  0  0  0  0  0  0  0  0  0
   61.9286   28.9183   45.0103 H   0  0  0  0  0  0  0  0  0  0  0  0
   60.2201   28.6272   44.5383 H   0  0  0  0  0  0  0  0  0  0  0  0
   60.8797   30.2980   44.5383 H   0  0  0  0  0  0  0  0  0  0  0  0
   61.3040   29.9250   47.4430 N   0  0  0  0  0  0  0  0  0  0  0  0
   62.3040   30.2060   47.3260 H   0  0  0  0  0  0  0  0  0  0  0  0
   59.6480   33.3530   47.2530 C   0  0  0  0  0  0  0  0  0  0  0  0
   58.2620   33.1390   47.3080 C   0  0  0  0  0  0  0  0  0  0  0  0
   57.7913   32.7404   48.2188 H   0  0  0  0  0  0  0  0  0  0  0  0
   57.4890   33.4440   46.1770 C   0  0  0  0  0  0  0  0  0  0  0  0
   56.4045   33.2604   46.1890 H   0  0  0  0  0  0  0  0  0  0  0  0
   58.0960   33.9840   45.0270 C   0  0  0  0  0  0  0  0  0  0  0  0
   57.4879   34.2053   44.1375 H   0  0  0  0  0  0  0  0  0  0  0  0
   59.4740   34.2400   45.0140 C   0  0  0  0  0  0  0  0  0  0  0  0
   59.9551   34.6793   44.1277 H   0  0  0  0  0  0  0  0  0  0  0  0
   60.2230   33.9260   46.1490 C   0  0  0  0  0  0  0  0  0  0  0  0
   61.6680   34.1800   46.3800 C   0  0  0  0  0  0  0  0  0  0  0  0
   62.2897   33.5388   45.7378 H   0  0  0  0  0  0  0  0  0  0  0  0
   61.9698   35.2113   46.1449 H   0  0  0  0  0  0  0  0  0  0  0  0
  1  2  1  0
  2  3  1  0
  3  4  1  0
  3  5  1  0
  3  6  1  0
  6  7  1  1
  6  8  1  0
  8  9  1  0
  9 10  2  0
  9 11  1  0
 11 12  2  0
 12 13  1  0
 12 14  1  0
 14 15  1  0
 14 16  2  0
 16 17  1  0
 16 18  1  0
 18 19  1  0
 18 20  2  0
 20 21  1  0
 21 22  1  0
 22 23  2  0
 23 24  1  0
 23 25  1  0
 22 26  1  0
 26 27  2  0
 27 28  1  0
 27 29  1  0
 29 30  2  0
 30 31  1  0
 30 32  1  0
 32 33  1  0
 33 34  2  0
 33 35  1  0
 35 36  1  0
 36 37  2  0
 26 38  1  0
 38 39  1  0
 39 40  1  0
 39 41  1  0
 39 42  1  0
 38 43  2  0
 43 44  1  0
  8 45  1  0
 45 46  2  0
 46 47  1  0
 46 48  1  0
 48 49  1  0
 48 50  2  0
 50 51  1  0
 50 52  1  0
 52 53  1  0
 52 54  2  0
 54 55  1  0
 55 56  1  0
 55 57  1  0
 55  6  1  0
 20 11  1  0
 43 21  1  0
 54 45  1  0
 36 29  1  0
M  CHG  4  31  -1  32  -1  35  -1  43   1
M  END
>  <UniqueID>  (61) 
56

>  <SMILES>  (61) 
C=c1/c(=C\c2c([O-])[n-]c(=O)[n-]c2=O)c(C)[nH+]n1-c1ccccc1C(=O)N1c2ccccc2C[C@@H]1CO

>  <Energy>  (61) 
133.00994062681838

>  <Genealogy>  (61) 
C=c1c(=Cc2c([O-])[n-]c(=O)[n-]c2=O)c(C)[nH+]n1-c1ccccc1C(=O)N1c2ccccc2CC1CO (protonated)
C=c1c(=Cc2c([O-])[n-]c(=O)[n-]c2=O)c(C)[nH+]n1-c1ccccc1C(=O)N1c2ccccc2C[C@@H]1CO (chirality)
C=c1/c(=C\c2c([O-])[n-]c(=O)[n-]c2=O)c(C)[nH+]n1-c1ccccc1C(=O)N1c2ccccc2C[C@@H]1CO (cis-trans isomerization)
C=c1/c(=C\c2c([O-])[n-]c(=O)[n-]c2=O)c(C)[nH+]n1-c1ccccc1C(=O)N1c2ccccc2C[C@@H]1CO (3D coordinates assigned)
C=c1/c(=C\c2c([O-])[n-]c(=O)[n-]c2=O)c(C)[nH+]n1-c1ccccc1C(=O)N1c2ccccc2C[C@@H]1CO (nonaromatic ring conformer: 133.00994062681838 kcal/mol)

>  <smiles>  (61) 
C=c1c(=Cc2c(O)[nH]c(=O)[nH]c2=O)c(C)nn1-c1ccccc1C(=O)N1c2ccccc2CC1CO

>  <score_type>  (61) 
oracle

>  <origin>  (61) 
adg

>  <m_score__min__energy>  (61) 
-16.129999999999999

>  <m_primary>  (61) 
energy

$$$$
61:0
     RDKit          3D

 45 47  0  0  0  0  0  0  0  0999 V2000
   59.4560   29.7440   49.6530 C   0  0  0  0  0  0  0  0  0  0  0  0
   59.5250   29.7420   48.1980 N   0  0  0  0  0  0  0  0  0  0  0  0
   59.7750   28.5410   47.4580 C   0  0  0  0  0  0  0  0  0  0  0  0
   60.0160   27.4620   48.0650 O   0  0  0  0  0  0  0  0  0  0  0  0
   59.7650   28.5580   45.9560 C   0  0  0  0  0  0  0  0  0  0  0  0
   58.5440   29.2210   45.4460 N   0  0  0  0  0  0  0  0  0  0  0  0
   57.4260   28.4760   45.1430 C   0  0  0  0  0  0  0  0  0  0  0  0
   57.3940   27.0050   45.2830 C   0  0  0  0  0  0  0  0  0  0  0  0
   57.0100   26.4230   46.5000 C   0  0  0  0  0  0  0  0  0  0  0  0
   56.9870   25.0310   46.6360 C   0  0  0  0  0  0  0  0  0  0  0  0
   57.3540   24.2160   45.5610 C   0  0  0  0  0  0  0  0  0  0  0  0
   57.7480   24.7910   44.3500 C   0  0  0  0  0  0  0  0  0  0  0  0
   57.7750   26.1820   44.2090 C   0  0  0  0  0  0  0  0  0  0  0  0
   58.1550   26.7280   43.0250 F   0  0  0  0  0  0  0  0  0  0  0  0
   56.2660   29.1170   44.7050 C   0  0  0  0  0  0  0  0  0  0  0  0
   56.2490   30.4620   44.5680 N   0  0  0  0  0  0  0  0  0  0  0  0
   57.3290   31.2300   44.8510 C   0  0  0  0  0  0  0  0  0  0  0  0
   57.2090   32.5210   44.6770 N   0  0  0  0  0  0  0  0  0  0  0  0
   57.0770   33.5980   45.6620 C   0  0  0  0  0  0  0  0  0  0  0  0
   58.3620   33.8040   46.4330 C   0  0  0  0  0  0  0  0  0  0  0  0
   58.4820   33.3360   47.7580 C   0  0  0  0  0  0  0  0  0  0  0  0
   57.4460   32.7050   48.3670 F   0  0  0  0  0  0  0  0  0  0  0  0
   59.6780   33.5100   48.4600 C   0  0  0  0  0  0  0  0  0  0  0  0
   60.7680   34.1320   47.8490 C   0  0  0  0  0  0  0  0  0  0  0  0
   60.6710   34.5730   46.5290 C   0  0  0  0  0  0  0  0  0  0  0  0
   59.4800   34.4040   45.8160 C   0  0  0  0  0  0  0  0  0  0  0  0
   59.4200   34.8230   44.5270 F   0  0  0  0  0  0  0  0  0  0  0  0
   58.5090   30.5940   45.3180 C   0  0  0  0  0  0  0  0  0  0  0  0
   59.5210   31.2760   45.6320 O   0  0  0  0  0  0  0  0  0  0  0  0
   60.4741   29.7145   50.0684 H   0  0  0  0  0  0  0  0  0  0  0  0
   58.9469   30.6573   49.9947 H   0  0  0  0  0  0  0  0  0  0  0  0
   58.8949   28.8617   49.9947 H   0  0  0  0  0  0  0  0  0  0  0  0
   59.3740   30.6410   47.6870 H   0  0  0  0  0  0  0  0  0  0  0  0
   60.6492   29.1042   45.5956 H   0  0  0  0  0  0  0  0  0  0  0  0
   59.7811   27.5203   45.5915 H   0  0  0  0  0  0  0  0  0  0  0  0
   56.7264   27.0623   47.3490 H   0  0  0  0  0  0  0  0  0  0  0  0
   56.6798   24.5771   47.5898 H   0  0  0  0  0  0  0  0  0  0  0  0
   57.3326   23.1215   45.6686 H   0  0  0  0  0  0  0  0  0  0  0  0
   58.0376   24.1481   43.5057 H   0  0  0  0  0  0  0  0  0  0  0  0
   55.3665   28.5284   44.4715 H   0  0  0  0  0  0  0  0  0  0  0  0
   56.8202   34.5311   45.1392 H   0  0  0  0  0  0  0  0  0  0  0  0
   56.2873   33.3189   46.3751 H   0  0  0  0  0  0  0  0  0  0  0  0
   59.7606   33.1554   49.4980 H   0  0  0  0  0  0  0  0  0  0  0  0
   61.7042   34.2746   48.4087 H   0  0  0  0  0  0  0  0  0  0  0  0
   61.5344   35.0553   46.0474 H   0  0  0  0  0  0  0  0  0  0  0  0
  1  2  1  0
  2  3  1  0
  3  4  2  0
  3  5  1  0
  5  6  1  0
  6  7  1  0
  7  8  1  0
  8  9  2  0
  9 10  1  0
 10 11  2  0
 11 12  1  0
 12 13  2  0
 13 14  1  0
  7 15  2  0
 15 16  1  0
 16 17  1  0
 17 18  2  3
 18 19  1  0
 19 20  1  0
 20 21  2  0
 21 22  1  0
 21 23  1  0
 23 24  2  0
 24 25  1  0
 25 26  2  0
 26 27  1  0
 17 28  1  0
 28 29  2  0
 28  6  1  0
 13  8  1  0
 26 20  1  0
  1 30  1  0
  1 31  1  0
  1 32  1  0
  2 33  1  0
  5 34  1  0
  5 35  1  0
  9 36  1  0
 10 37  1  0
 11 38  1  0
 12 39  1  0
 15 40  1  0
 19 41  1  0
 19 42  1  0
 23 43  1  0
 24 44  1  0
 25 45  1  0
M  CHG  1  16  -1
M  END
>  <UniqueID>  (62) 
57

>  <SMILES>  (62) 
CNC(=O)Cn1c(-c2ccccc2F)c[n-]c(=NCc2c(F)cccc2F)c1=O

>  <Energy>  (62) 
63.37594013881436

>  <Genealogy>  (62) 
CNC(=O)Cn1c(-c2ccccc2F)c[n-]c(=NCc2c(F)cccc2F)c1=O (protonated)
CNC(=O)Cn1c(-c2ccccc2F)c[n-]c(=NCc2c(F)cccc2F)c1=O (3D coordinates assigned)
CNC(=O)Cn1c(-c2ccccc2F)c[n-]c(=NCc2c(F)cccc2F)c1=O (optimized conformer: 63.37594013881436 kcal/mol)

>  <smiles>  (62) 
CNC(=O)Cn1c(-c2ccccc2F)c[nH]c(=NCc2c(F)cccc2F)c1=O

>  <score_type>  (62) 
oracle

>  <origin>  (62) 
adg

>  <m_score__min__energy>  (62) 
-8.6099999999999994

>  <m_primary>  (62) 
energy

$$$$
62:0
     RDKit          3D

 53 55  0  0  0  0  0  0  0  0999 V2000
   56.8656   32.9787   53.1274 H   0  0  0  0  0  0  0  0  0  0  0  0
   57.4660   32.5490   52.3120 C   0  0  0  0  0  0  0  0  0  0  0  0
   57.0390   31.4060   51.6520 C   0  0  0  0  0  0  0  0  0  0  0  0
   55.7150   30.7950   51.9820 C   0  0  0  0  0  0  0  0  0  0  0  0
   55.5981   30.7411   53.0744 H   0  0  0  0  0  0  0  0  0  0  0  0
   54.9100   31.4127   51.5572 H   0  0  0  0  0  0  0  0  0  0  0  0
   55.6627   29.7817   51.5572 H   0  0  0  0  0  0  0  0  0  0  0  0
   57.7410   30.9440   50.5860 N   0  0  0  0  0  0  0  0  0  0  0  0
   58.9050   31.5030   50.1460 C   0  0  0  0  0  0  0  0  0  0  0  0
   59.3420   31.0440   49.0050 N   0  0  0  0  0  0  0  0  0  0  0  0
   59.8040   31.7580   47.4900 S   0  0  0  0  0  0  0  0  0  0  0  0
   61.2090   31.3450   47.1410 O   0  0  0  0  0  0  0  0  0  0  0  0
   59.7030   33.2600   47.5320 O   0  0  0  0  0  0  0  0  0  0  0  0
   58.6210   31.2010   46.2630 C   0  0  0  0  0  0  0  0  0  0  0  0
   58.3610   29.8040   46.1320 C   0  0  0  0  0  0  0  0  0  0  0  0
   59.0450   28.7660   46.9900 C   0  0  0  0  0  0  0  0  0  0  0  0
   58.8869   29.0059   48.0518 H   0  0  0  0  0  0  0  0  0  0  0  0
   58.6232   27.7739   46.7715 H   0  0  0  0  0  0  0  0  0  0  0  0
   60.1231   28.7623   46.7715 H   0  0  0  0  0  0  0  0  0  0  0  0
   57.4820   29.3490   45.1370 C   0  0  0  0  0  0  0  0  0  0  0  0
   57.3095   28.2691   45.0185 H   0  0  0  0  0  0  0  0  0  0  0  0
   56.8230   30.2480   44.2950 C   0  0  0  0  0  0  0  0  0  0  0  0
   55.8890   29.7270   43.2360 C   0  0  0  0  0  0  0  0  0  0  0  0
   55.0242   29.2446   43.7149 H   0  0  0  0  0  0  0  0  0  0  0  0
   55.5426   30.5622   42.6095 H   0  0  0  0  0  0  0  0  0  0  0  0
   56.4176   28.9934   42.6095 H   0  0  0  0  0  0  0  0  0  0  0  0
   57.0540   31.6190   44.4230 C   0  0  0  0  0  0  0  0  0  0  0  0
   56.5506   32.3217   43.7426 H   0  0  0  0  0  0  0  0  0  0  0  0
   57.9220   32.1100   45.4110 C   0  0  0  0  0  0  0  0  0  0  0  0
   58.0800   33.6070   45.5110 C   0  0  0  0  0  0  0  0  0  0  0  0
   58.1112   33.9025   46.5701 H   0  0  0  0  0  0  0  0  0  0  0  0
   59.0152   33.9108   45.0179 H   0  0  0  0  0  0  0  0  0  0  0  0
   57.2288   34.0993   45.0179 H   0  0  0  0  0  0  0  0  0  0  0  0
   59.4380   32.6180   50.8750 C   0  0  0  0  0  0  0  0  0  0  0  0
   60.7840   33.2460   50.7310 C   0  0  0  0  0  0  0  0  0  0  0  0
   61.2610   33.8490   51.7410 O   0  0  0  0  0  0  0  0  0  0  0  0
   61.6480   32.9450   49.6050 N   0  0  0  0  0  0  0  0  0  0  0  0
   61.1280   32.3340   48.9270 H   0  0  0  0  0  0  0  0  0  0  0  0
   62.0770   34.1960   48.9360 C   0  0  0  0  0  0  0  0  0  0  0  0
   61.1923   34.7293   48.5579 H   0  0  0  0  0  0  0  0  0  0  0  0
   62.6115   34.8287   49.6598 H   0  0  0  0  0  0  0  0  0  0  0  0
   63.0120   33.8680   47.7650 C   0  0  0  0  0  0  0  0  0  0  0  0
   62.4796   33.2298   47.0444 H   0  0  0  0  0  0  0  0  0  0  0  0
   63.3218   34.8070   47.2830 H   0  0  0  0  0  0  0  0  0  0  0  0
   64.1700   33.1850   48.2290 O   0  0  0  0  0  0  0  0  0  0  0  0
   63.7980   31.9710   48.8590 C   0  0  0  0  0  0  0  0  0  0  0  0
   63.2853   31.3304   48.1264 H   0  0  0  0  0  0  0  0  0  0  0  0
   64.7095   31.4832   49.2348 H   0  0  0  0  0  0  0  0  0  0  0  0
   62.8550   32.2210   50.0530 C   0  0  0  0  0  0  0  0  0  0  0  0
   62.5588   31.2563   50.4907 H   0  0  0  0  0  0  0  0  0  0  0  0
   63.3802   32.8283   50.8049 H   0  0  0  0  0  0  0  0  0  0  0  0
   58.6640   33.1450   51.9290 C   0  0  0  0  0  0  0  0  0  0  0  0
   59.0134   34.0437   52.4584 H   0  0  0  0  0  0  0  0  0  0  0  0
  1  2  1  0
  2  3  2  0
  3  4  1  0
  4  5  1  0
  4  6  1  0
  4  7  1  0
  3  8  1  0
  8  9  1  0
  9 10  2  0
 10 11  1  0
 11 12  2  0
 11 13  2  0
 11 14  1  0
 14 15  2  0
 15 16  1  0
 16 17  1  0
 16 18  1  0
 16 19  1  0
 15 20  1  0
 20 21  1  0
 20 22  2  0
 22 23  1  0
 23 24  1  0
 23 25  1  0
 23 26  1  0
 22 27  1  0
 27 28  1  0
 27 29  2  0
 29 30  1  0
 30 31  1  0
 30 32  1  0
 30 33  1  0
  9 34  1  0
 34 35  1  0
 35 36  2  0
 35 37  1  0
 37 38  1  0
 37 39  1  0
 39 40  1  0
 39 41  1  0
 39 42  1  0
 42 43  1  0
 42 44  1  0
 42 45  1  0
 45 46  1  0
 46 47  1  0
 46 48  1  0
 46 49  1  0
 49 50  1  0
 49 51  1  0
 34 52  2  0
 52 53  1  0
 52  2  1  0
 29 14  1  0
 49 37  1  0
M  CHG  2   8  -1  37   1
M  END
>  <UniqueID>  (63) 
58

>  <SMILES>  (63) 
Cc1cc(C)c(S(=O)(=O)/N=c2/[n-]c(C)ccc2C(=O)[NH+]2CCOCC2)c(C)c1

>  <Energy>  (63) 
94.39630854463618

>  <Genealogy>  (63) 
Cc1cc(C)c(S(=O)(=O)N=c2[n-]c(C)ccc2C(=O)[NH+]2CCOCC2)c(C)c1 (protonated)
Cc1cc(C)c(S(=O)(=O)/N=c2/[n-]c(C)ccc2C(=O)[NH+]2CCOCC2)c(C)c1 (cis-trans isomerization)
Cc1cc(C)c(S(=O)(=O)/N=c2/[n-]c(C)ccc2C(=O)[NH+]2CCOCC2)c(C)c1 (3D coordinates assigned)
Cc1cc(C)c(S(=O)(=O)/N=c2/[n-]c(C)ccc2C(=O)[NH+]2CCOCC2)c(C)c1 (nonaromatic ring conformer: 94.39630854463618 kcal/mol)

>  <smiles>  (63) 
Cc1cc(C)c(S(=O)(=O)N=c2[nH]c(C)ccc2C(=O)N2CCOCC2)c(C)c1

>  <score_type>  (63) 
oracle

>  <origin>  (63) 
adg

>  <m_score__min__energy>  (63) 
-7.29

>  <m_primary>  (63) 
energy

$$$$
63:0
     RDKit          3D

 60 63  0  0  0  0  0  0  0  0999 V2000
   55.6830   23.9940   45.0170 C   0  0  0  0  0  0  0  0  0  0  0  0
   55.9870   25.4170   46.0410 S   0  0  0  0  0  0  0  0  0  0  0  0
   54.8050   26.3430   45.9990 O   0  0  0  0  0  0  0  0  0  0  0  0
   56.1950   24.9610   47.4570 O   0  0  0  0  0  0  0  0  0  0  0  0
   57.4150   26.2440   45.5090 N   0  0  0  0  0  0  0  0  0  0  0  0
   57.7700   27.5990   45.8210 C   0  0  0  0  0  0  0  0  0  0  0  0
   57.1270   28.6310   45.1270 C   0  0  0  0  0  0  0  0  0  0  0  0
   57.4290   29.9720   45.3870 C   0  0  0  0  0  0  0  0  0  0  0  0
   56.7490   30.9590   44.6540 O   0  0  0  0  0  0  0  0  0  0  0  0
   57.3080   32.2000   44.2230 C   0  0  0  0  0  0  0  0  0  0  0  0
   57.0030   33.3120   45.2320 C   0  0  0  0  0  0  0  0  0  0  0  0
   58.2160   33.6050   46.0700 C   0  0  0  0  0  0  0  0  0  0  0  0
   59.4160   34.0060   45.4650 C   0  0  0  0  0  0  0  0  0  0  0  0
   60.5590   34.2170   46.2430 C   0  0  0  0  0  0  0  0  0  0  0  0
   60.5130   34.0220   47.6270 C   0  0  0  0  0  0  0  0  0  0  0  0
   59.3220   33.6140   48.2350 C   0  0  0  0  0  0  0  0  0  0  0  0
   58.1780   33.4050   47.4600 C   0  0  0  0  0  0  0  0  0  0  0  0
   58.4020   30.2820   46.3580 C   0  0  0  0  0  0  0  0  0  0  0  0
   59.0530   29.2600   47.0710 C   0  0  0  0  0  0  0  0  0  0  0  0
   60.0640   29.5950   48.1080 C   0  0  0  0  0  0  0  0  0  0  0  0
   61.0030   30.6210   47.8880 C   0  0  0  0  0  0  0  0  0  0  0  0
   61.9550   30.9320   48.8620 C   0  0  0  0  0  0  0  0  0  0  0  0
   61.9810   30.2360   50.0820 C   0  0  0  0  0  0  0  0  0  0  0  0
   63.0060   30.5420   51.1040 C   0  0  0  0  0  0  0  0  0  0  0  0
   62.7980   30.2110   52.3030 O   0  0  0  0  0  0  0  0  0  0  0  0
   64.2340   31.2040   50.7590 N   0  0  0  0  0  0  0  0  0  0  0  0
   64.2990   32.3740   49.9000 C   0  0  0  0  0  0  0  0  0  0  0  0
   65.7720   32.7400   49.8230 C   0  0  0  0  0  0  0  0  0  0  0  0
   66.4370   32.0480   51.0120 C   0  0  0  0  0  0  0  0  0  0  0  0
   65.4860   30.9360   51.4390 C   0  0  0  0  0  0  0  0  0  0  0  0
   61.0540   29.2020   50.2980 C   0  0  0  0  0  0  0  0  0  0  0  0
   60.1030   28.8890   49.3230 C   0  0  0  0  0  0  0  0  0  0  0  0
   58.7310   27.9180   46.7950 C   0  0  0  0  0  0  0  0  0  0  0  0
   55.4957   23.1171   45.6541 H   0  0  0  0  0  0  0  0  0  0  0  0
   54.8044   24.1802   44.3819 H   0  0  0  0  0  0  0  0  0  0  0  0
   56.5610   23.8050   44.3819 H   0  0  0  0  0  0  0  0  0  0  0  0
   56.3727   28.3836   44.3655 H   0  0  0  0  0  0  0  0  0  0  0  0
   58.3982   32.0903   44.1254 H   0  0  0  0  0  0  0  0  0  0  0  0
   56.8629   32.4704   43.2541 H   0  0  0  0  0  0  0  0  0  0  0  0
   56.7082   34.2226   44.6899 H   0  0  0  0  0  0  0  0  0  0  0  0
   56.1852   32.9829   45.8900 H   0  0  0  0  0  0  0  0  0  0  0  0
   59.4584   34.1549   44.3760 H   0  0  0  0  0  0  0  0  0  0  0  0
   61.4965   34.5372   45.7650 H   0  0  0  0  0  0  0  0  0  0  0  0
   61.4131   34.1895   48.2367 H   0  0  0  0  0  0  0  0  0  0  0  0
   59.2854   33.4575   49.3232 H   0  0  0  0  0  0  0  0  0  0  0  0
   57.2428   33.0822   47.9409 H   0  0  0  0  0  0  0  0  0  0  0  0
   58.6546   31.3334   46.5600 H   0  0  0  0  0  0  0  0  0  0  0  0
   60.9868   31.1820   46.9419 H   0  0  0  0  0  0  0  0  0  0  0  0
   62.6900   31.7281   48.6721 H   0  0  0  0  0  0  0  0  0  0  0  0
   63.9087   32.1381   48.8990 H   0  0  0  0  0  0  0  0  0  0  0  0
   63.6926   33.2032   50.2933 H   0  0  0  0  0  0  0  0  0  0  0  0
   66.2069   32.3807   48.8787 H   0  0  0  0  0  0  0  0  0  0  0  0
   65.9201   33.8295   49.8547 H   0  0  0  0  0  0  0  0  0  0  0  0
   67.4083   31.6264   50.7141 H   0  0  0  0  0  0  0  0  0  0  0  0
   66.6253   32.7539   51.8343 H   0  0  0  0  0  0  0  0  0  0  0  0
   65.8833   29.9555   51.1377 H   0  0  0  0  0  0  0  0  0  0  0  0
   65.3563   30.9114   52.5311 H   0  0  0  0  0  0  0  0  0  0  0  0
   61.0771   28.6354   51.2406 H   0  0  0  0  0  0  0  0  0  0  0  0
   59.3781   28.0826   49.5080 H   0  0  0  0  0  0  0  0  0  0  0  0
   59.2363   27.1116   47.3468 H   0  0  0  0  0  0  0  0  0  0  0  0
  1  2  1  0
  2  3  2  0
  2  4  2  0
  2  5  1  0
  5  6  1  0
  6  7  2  0
  7  8  1  0
  8  9  1  0
  9 10  1  0
 10 11  1  0
 11 12  1  0
 12 13  2  0
 13 14  1  0
 14 15  2  0
 15 16  1  0
 16 17  2  0
  8 18  2  0
 18 19  1  0
 19 20  1  0
 20 21  2  0
 21 22  1  0
 22 23  2  0
 23 24  1  0
 24 25  2  0
 24 26  1  0
 26 27  1  0
 27 28  1  0
 28 29  1  0
 29 30  1  0
 23 31  1  0
 31 32  2  0
 19 33  2  0
 33  6  1  0
 17 12  1  0
 32 20  1  0
 30 26  1  0
  1 34  1  0
  1 35  1  0
  1 36  1  0
  7 37  1  0
 10 38  1  0
 10 39  1  0
 11 40  1  0
 11 41  1  0
 13 42  1  0
 14 43  1  0
 15 44  1  0
 16 45  1  0
 17 46  1  0
 18 47  1  0
 21 48  1  0
 22 49  1  0
 27 50  1  0
 27 51  1  0
 28 52  1  0
 28 53  1  0
 29 54  1  0
 29 55  1  0
 30 56  1  0
 30 57  1  0
 31 58  1  0
 32 59  1  0
 33 60  1  0
M  CHG  1   5  -1
M  END
>  <UniqueID>  (64) 
59

>  <SMILES>  (64) 
CS(=O)(=O)[N-]c1cc(OCCc2ccccc2)cc(-c2ccc(C(=O)N3CCCC3)cc2)c1

>  <Energy>  (64) 
69.48323684531728

>  <Genealogy>  (64) 
CS(=O)(=O)[N-]c1cc(OCCc2ccccc2)cc(-c2ccc(C(=O)N3CCCC3)cc2)c1 (protonated)
CS(=O)(=O)[N-]c1cc(OCCc2ccccc2)cc(-c2ccc(C(=O)N3CCCC3)cc2)c1 (3D coordinates assigned)
CS(=O)(=O)[N-]c1cc(OCCc2ccccc2)cc(-c2ccc(C(=O)N3CCCC3)cc2)c1 (nonaromatic ring conformer: 69.48323684531728 kcal/mol)

>  <smiles>  (64) 
CS(=O)(=O)Nc1cc(OCCc2ccccc2)cc(-c2ccc(C(=O)N3CCCC3)cc2)c1

>  <score_type>  (64) 
oracle

>  <origin>  (64) 
adg

>  <m_score__min__energy>  (64) 
-11.4

>  <m_primary>  (64) 
energy

$$$$
64:0
     RDKit          3D

 58 60  0  0  0  0  0  0  0  0999 V2000
   54.6300   24.5450   45.6300 C   0  0  0  0  0  0  0  0  0  0  0  0
   55.2590   25.6160   46.3260 O   0  0  0  0  0  0  0  0  0  0  0  0
   56.5390   26.1100   46.0300 C   0  0  0  0  0  0  0  0  0  0  0  0
   57.7140   25.3940   46.3260 C   0  0  0  0  0  0  0  0  0  0  0  0
   58.9630   25.9250   45.9930 C   0  0  0  0  0  0  0  0  0  0  0  0
   59.0530   27.1740   45.3740 C   0  0  0  0  0  0  0  0  0  0  0  0
   57.8950   27.9100   45.0990 C   0  0  0  0  0  0  0  0  0  0  0  0
   58.0150   29.1900   44.4620 N   0  0  0  0  0  0  0  0  0  0  0  0
   57.2230   30.3410   44.7750 C   0  0  0  0  0  0  0  0  0  0  0  0
   55.9980   30.3390   44.4830 O   0  0  0  0  0  0  0  0  0  0  0  0
   57.8090   31.5080   45.3750 N   0  0  0  0  0  0  0  0  0  0  0  0
   57.3880   32.8430   44.9260 C   0  0  0  0  0  0  0  0  0  0  0  0
   58.2000   33.9520   45.6060 C   0  0  0  0  0  0  0  0  0  0  0  0
   58.2130   33.7910   47.1360 C   0  0  0  0  0  0  0  0  0  0  0  0
   58.4620   32.3280   47.6020 C   0  0  2  0  0  0  0  0  0  0  0  0
   59.4620   32.2020   48.7380 C   0  0  0  0  0  0  0  0  0  0  0  0
   60.3370   31.2970   48.6450 O   0  0  0  0  0  0  0  0  0  0  0  0
   59.4520   33.0410   49.9160 N   0  0  0  0  0  0  0  0  0  0  0  0
   58.6200   32.6220   51.0480 C   0  0  0  0  0  0  0  0  0  0  0  0
   60.3230   34.2170   50.0770 C   0  0  0  0  0  0  0  0  0  0  0  0
   61.0250   34.5800   48.7620 C   0  0  0  0  0  0  0  0  0  0  0  0
   62.3450   33.8850   48.6280 C   0  0  0  0  0  0  0  0  0  0  0  0
   62.8830   33.3190   47.4870 C   0  0  0  0  0  0  0  0  0  0  0  0
   64.1080   32.8480   47.7850 N   0  0  0  0  0  0  0  0  0  0  0  0
   64.3660   33.1090   49.0560 N   0  0  0  0  0  0  0  0  0  0  0  0
   65.5760   32.6900   49.7540 C   0  0  0  0  0  0  0  0  0  0  0  0
   63.3090   33.7340   49.6090 C   0  0  0  0  0  0  0  0  0  0  0  0
   58.7920   31.3610   46.4540 C   0  0  0  0  0  0  0  0  0  0  0  0
   56.6390   27.3620   45.4120 C   0  0  0  0  0  0  0  0  0  0  0  0
   54.2113   23.8320   46.3555 H   0  0  0  0  0  0  0  0  0  0  0  0
   53.8219   24.9426   44.9984 H   0  0  0  0  0  0  0  0  0  0  0  0
   55.3708   24.0329   44.9984 H   0  0  0  0  0  0  0  0  0  0  0  0
   57.6490   24.4137   46.8208 H   0  0  0  0  0  0  0  0  0  0  0  0
   59.8780   25.3578   46.2190 H   0  0  0  0  0  0  0  0  0  0  0  0
   60.0381   27.5807   45.1016 H   0  0  0  0  0  0  0  0  0  0  0  0
   57.5293   32.9140   43.8374 H   0  0  0  0  0  0  0  0  0  0  0  0
   56.3301   32.9778   45.1957 H   0  0  0  0  0  0  0  0  0  0  0  0
   59.2348   33.9149   45.2348 H   0  0  0  0  0  0  0  0  0  0  0  0
   57.7298   34.9172   45.3667 H   0  0  0  0  0  0  0  0  0  0  0  0
   59.0102   34.4280   47.5467 H   0  0  0  0  0  0  0  0  0  0  0  0
   57.2173   34.0827   47.5013 H   0  0  0  0  0  0  0  0  0  0  0  0
   57.4889   32.0164   48.0094 H   0  0  0  0  0  0  0  0  0  0  0  0
   59.1271   32.8774   51.9901 H   0  0  0  0  0  0  0  0  0  0  0  0
   57.6503   33.1393   51.0016 H   0  0  0  0  0  0  0  0  0  0  0  0
   58.4583   31.5349   51.0016 H   0  0  0  0  0  0  0  0  0  0  0  0
   59.7129   35.0717   50.4044 H   0  0  0  0  0  0  0  0  0  0  0  0
   61.0931   33.9768   50.8248 H   0  0  0  0  0  0  0  0  0  0  0  0
   60.3802   34.2857   47.9208 H   0  0  0  0  0  0  0  0  0  0  0  0
   61.2070   35.6648   48.7588 H   0  0  0  0  0  0  0  0  0  0  0  0
   62.3934   33.2632   46.5036 H   0  0  0  0  0  0  0  0  0  0  0  0
   64.7560   32.3550   47.1300 H   0  0  0  0  0  0  0  0  0  0  0  0
   65.4112   32.7471   50.8401 H   0  0  0  0  0  0  0  0  0  0  0  0
   65.8208   31.6547   49.4742 H   0  0  0  0  0  0  0  0  0  0  0  0
   66.4086   33.3521   49.4742 H   0  0  0  0  0  0  0  0  0  0  0  0
   63.2267   34.0655   50.6546 H   0  0  0  0  0  0  0  0  0  0  0  0
   59.7960   31.5865   46.0652 H   0  0  0  0  0  0  0  0  0  0  0  0
   58.7612   30.3284   46.8319 H   0  0  0  0  0  0  0  0  0  0  0  0
   55.7247   27.9231   45.1686 H   0  0  0  0  0  0  0  0  0  0  0  0
  1  2  1  0
  2  3  1  0
  3  4  2  0
  4  5  1  0
  5  6  2  0
  6  7  1  0
  7  8  1  0
  8  9  1  0
  9 10  2  0
  9 11  1  0
 11 12  1  0
 12 13  1  0
 13 14  1  0
 14 15  1  0
 15 16  1  0
 16 17  2  0
 16 18  1  0
 18 19  1  0
 18 20  1  0
 20 21  1  0
 21 22  1  0
 22 23  1  0
 23 24  2  0
 24 25  1  0
 25 26  1  0
 25 27  1  0
 15 28  1  0
  7 29  2  0
 29  3  1  0
 28 11  1  0
 27 22  2  0
  1 30  1  0
  1 31  1  0
  1 32  1  0
  4 33  1  0
  5 34  1  0
  6 35  1  0
 12 36  1  0
 12 37  1  0
 13 38  1  0
 13 39  1  0
 14 40  1  0
 14 41  1  0
 15 42  1  1
 19 43  1  0
 19 44  1  0
 19 45  1  0
 20 46  1  0
 20 47  1  0
 21 48  1  0
 21 49  1  0
 23 50  1  0
 24 51  1  0
 26 52  1  0
 26 53  1  0
 26 54  1  0
 27 55  1  0
 28 56  1  0
 28 57  1  0
 29 58  1  0
M  CHG  2   8  -1  24   1
M  END
>  <UniqueID>  (65) 
60

>  <SMILES>  (65) 
COc1cccc([N-]C(=O)N2CCC[C@H](C(=O)N(C)CCc3c[nH+]n(C)c3)C2)c1

>  <Energy>  (65) 
90.84903823762927

>  <Genealogy>  (65) 
COc1cccc([N-]C(=O)N2CCCC(C(=O)N(C)CCc3c[nH+]n(C)c3)C2)c1 (protonated)
COc1cccc([N-]C(=O)N2CCC[C@H](C(=O)N(C)CCc3c[nH+]n(C)c3)C2)c1 (chirality)
COc1cccc([N-]C(=O)N2CCC[C@H](C(=O)N(C)CCc3c[nH+]n(C)c3)C2)c1 (3D coordinates assigned)
COc1cccc([N-]C(=O)N2CCC[C@H](C(=O)N(C)CCc3c[nH+]n(C)c3)C2)c1 (nonaromatic ring conformer: 90.84903823762927 kcal/mol)

>  <smiles>  (65) 
COc1cccc(NC(=O)N2CCCC(C(=O)N(C)CCc3cnn(C)c3)C2)c1

>  <score_type>  (65) 
oracle

>  <origin>  (65) 
adg

>  <m_score__min__energy>  (65) 
-9.1699999999999999

>  <m_primary>  (65) 
energy

$$$$
65:0
     RDKit          3D

 22 23  0  0  0  0  0  0  0  0999 V2000
   58.0720   28.2860   44.1370 C   0  0  0  0  0  0  0  0  0  0  0  0
   57.6140   29.6350   44.4440 N   0  0  0  0  0  0  0  0  0  0  0  0
   58.3840   30.6250   44.8520 N   0  0  0  0  0  0  0  0  0  0  0  0
   57.5690   31.6670   45.1070 C   0  0  0  0  0  0  0  0  0  0  0  0
   58.0520   33.0150   45.5480 C   0  0  0  0  0  0  0  0  0  0  0  0
   58.4820   33.1950   47.0040 C   0  0  0  0  0  0  0  0  0  0  0  0
   57.3820   34.2080   44.8810 C   0  0  0  0  0  0  0  0  0  0  0  0
   58.8080   33.8250   44.5040 C   0  0  0  0  0  0  0  0  0  0  0  0
   56.2680   31.3750   44.8690 N   0  0  0  0  0  0  0  0  0  0  0  0
   56.3490   30.0890   44.4700 C   0  0  0  0  0  0  0  0  0  0  0  0
   55.3440   29.3950   44.1600 O   0  0  0  0  0  0  0  0  0  0  0  0
   58.2575   27.7397   45.0736 H   0  0  0  0  0  0  0  0  0  0  0  0
   57.3016   27.7613   43.5528 H   0  0  0  0  0  0  0  0  0  0  0  0
   59.0026   28.3388   43.5528 H   0  0  0  0  0  0  0  0  0  0  0  0
   59.4230   30.5870   44.9560 H   0  0  0  0  0  0  0  0  0  0  0  0
   57.6740   32.8568   47.6694 H   0  0  0  0  0  0  0  0  0  0  0  0
   59.3875   32.6004   47.1951 H   0  0  0  0  0  0  0  0  0  0  0  0
   58.6939   34.2574   47.1951 H   0  0  0  0  0  0  0  0  0  0  0  0
   56.5622   34.0491   44.1650 H   0  0  0  0  0  0  0  0  0  0  0  0
   56.8916   35.1253   45.2388 H   0  0  0  0  0  0  0  0  0  0  0  0
   59.0177   33.3896   43.5159 H   0  0  0  0  0  0  0  0  0  0  0  0
   59.7736   34.3511   44.4769 H   0  0  0  0  0  0  0  0  0  0  0  0
  1  2  1  0
  2  3  1  0
  3  4  1  0
  4  5  1  0
  5  6  1  0
  5  7  1  0
  7  8  1  0
  4  9  2  0
  9 10  1  0
 10 11  2  0
 10  2  1  0
  8  5  1  0
  1 12  1  0
  1 13  1  0
  1 14  1  0
  3 15  1  0
  6 16  1  0
  6 17  1  0
  6 18  1  0
  7 19  1  0
  7 20  1  0
  8 21  1  0
  8 22  1  0
M  END
>  <UniqueID>  (66) 
61

>  <SMILES>  (66) 
Cn1[nH]c(C2(C)CC2)nc1=O

>  <Energy>  (66) 
319.44179646185216

>  <Genealogy>  (66) 
Cn1[nH]c(C2(C)CC2)nc1=O (3D coordinates assigned)
Cn1[nH]c(C2(C)CC2)nc1=O (nonaromatic ring conformer: 319.44179646185216 kcal/mol)

>  <smiles>  (66) 
Cn1[nH]c(C2(C)CC2)nc1=O

>  <score_type>  (66) 
oracle

>  <origin>  (66) 
adg

>  <m_score__min__energy>  (66) 
-5.0899999999999999

>  <m_primary>  (66) 
energy

$$$$
66:0
     RDKit          3D

 51 53  0  0  0  0  0  0  0  0999 V2000
   60.8730   28.8920   44.8420 C   0  0  0  0  0  0  0  0  0  0  0  0
   60.0740   28.1670   45.8780 C   0  0  0  0  0  0  0  0  0  0  0  0
   59.5530   26.8980   45.6090 C   0  0  0  0  0  0  0  0  0  0  0  0
   58.8150   26.2550   46.6050 C   0  0  0  0  0  0  0  0  0  0  0  0
   58.2370   24.8970   46.3680 C   0  0  0  0  0  0  0  0  0  0  0  0
   58.6290   26.8690   47.8030 N   0  0  0  0  0  0  0  0  0  0  0  0
   59.1300   28.1110   48.0500 C   0  0  0  0  0  0  0  0  0  0  0  0
   58.9510   28.6960   49.1990 N   0  0  0  0  0  0  0  0  0  0  0  0
   59.5570   29.9200   49.6410 C   0  0  0  0  0  0  0  0  0  0  0  0
   59.1820   30.4220   50.7350 O   0  0  0  0  0  0  0  0  0  0  0  0
   60.6230   30.5350   48.8970 N   0  0  0  0  0  0  0  0  0  0  0  0
   61.1380   31.8760   49.1920 C   0  0  0  0  0  0  0  0  0  0  0  0
   59.9640   32.8250   49.5580 C   0  0  0  0  0  0  0  0  0  0  0  0
   59.6960   33.9200   48.5140 C   0  0  0  0  0  0  0  0  0  0  0  0
   59.8440   33.3880   47.1540 N   0  0  0  0  0  0  0  0  0  0  0  0
   58.9420   33.8200   46.1230 C   0  0  0  0  0  0  0  0  0  0  0  0
   58.5990   35.0330   46.0670 O   0  0  0  0  0  0  0  0  0  0  0  0
   58.3960   32.8640   45.1330 C   0  0  0  0  0  0  0  0  0  0  0  0
   58.4880   33.1390   43.7620 C   0  0  0  0  0  0  0  0  0  0  0  0
   57.9610   32.2450   42.8280 C   0  0  0  0  0  0  0  0  0  0  0  0
   57.3280   31.0720   43.2480 C   0  0  0  0  0  0  0  0  0  0  0  0
   56.8420   30.2270   42.3040 F   0  0  0  0  0  0  0  0  0  0  0  0
   57.2080   30.7840   44.6250 C   0  0  0  0  0  0  0  0  0  0  0  0
   56.5280   29.5550   45.1070 C   0  0  0  0  0  0  0  0  0  0  0  0
   55.1400   29.3380   44.8560 N   0  0  0  0  0  0  0  0  0  0  0  0
   57.1730   28.6860   45.7540 O   0  0  0  0  0  0  0  0  0  0  0  0
   57.7440   31.6940   45.5570 C   0  0  0  0  0  0  0  0  0  0  0  0
   61.0670   32.6620   46.7790 C   0  0  0  0  0  0  0  0  0  0  0  0
   61.9610   32.3900   47.9980 C   0  0  0  0  0  0  0  0  0  0  0  0
   59.8550   28.7430   47.0910 N   0  0  0  0  0  0  0  0  0  0  0  0
   61.6008   29.5524   45.3361 H   0  0  0  0  0  0  0  0  0  0  0  0
   61.4064   28.1632   44.2140 H   0  0  0  0  0  0  0  0  0  0  0  0
   60.1994   29.4935   44.2140 H   0  0  0  0  0  0  0  0  0  0  0  0
   59.7207   26.4166   44.6343 H   0  0  0  0  0  0  0  0  0  0  0  0
   58.0308   24.4126   47.3338 H   0  0  0  0  0  0  0  0  0  0  0  0
   57.3010   24.9913   45.7979 H   0  0  0  0  0  0  0  0  0  0  0  0
   58.9538   24.2878   45.7979 H   0  0  0  0  0  0  0  0  0  0  0  0
   61.1470   29.9530   48.2070 H   0  0  0  0  0  0  0  0  0  0  0  0
   61.8095   31.8401   50.0625 H   0  0  0  0  0  0  0  0  0  0  0  0
   59.0516   32.2203   49.6668 H   0  0  0  0  0  0  0  0  0  0  0  0
   60.2472   33.3365   50.4898 H   0  0  0  0  0  0  0  0  0  0  0  0
   58.6717   34.2996   48.6437 H   0  0  0  0  0  0  0  0  0  0  0  0
   60.4249   34.7313   48.6575 H   0  0  0  0  0  0  0  0  0  0  0  0
   58.9774   34.0630   43.4203 H   0  0  0  0  0  0  0  0  0  0  0  0
   58.0447   32.4656   41.7536 H   0  0  0  0  0  0  0  0  0  0  0  0
   54.4450   29.3590   45.6360 H   0  0  0  0  0  0  0  0  0  0  0  0
   57.6507   31.4855   46.6330 H   0  0  0  0  0  0  0  0  0  0  0  0
   60.7858   31.7020   46.3215 H   0  0  0  0  0  0  0  0  0  0  0  0
   61.6326   33.2849   46.0704 H   0  0  0  0  0  0  0  0  0  0  0  0
   62.7130   31.6335   47.7291 H   0  0  0  0  0  0  0  0  0  0  0  0
   62.4450   33.3334   48.2907 H   0  0  0  0  0  0  0  0  0  0  0  0
  1  2  1  0
  2  3  1  0
  3  4  2  0
  4  5  1  0
  4  6  1  0
  6  7  1  0
  7  8  2  3
  8  9  1  0
  9 10  2  0
  9 11  1  0
 11 12  1  0
 12 13  1  0
 13 14  1  0
 14 15  1  0
 15 16  1  0
 16 17  2  0
 16 18  1  0
 18 19  2  0
 19 20  1  0
 20 21  2  0
 21 22  1  0
 21 23  1  0
 23 24  1  0
 24 25  1  0
 24 26  2  0
 23 27  2  0
 15 28  1  0
 28 29  1  0
  7 30  1  0
 30  2  2  0
 29 12  1  0
 27 18  1  0
  1 31  1  0
  1 32  1  0
  1 33  1  0
  3 34  1  0
  5 35  1  0
  5 36  1  0
  5 37  1  0
 11 38  1  0
 12 39  1  0
 13 40  1  0
 13 41  1  0
 14 42  1  0
 14 43  1  0
 19 44  1  0
 20 45  1  0
 25 46  1  0
 27 47  1  0
 28 48  1  0
 28 49  1  0
 29 50  1  0
 29 51  1  0
M  CHG  2   6  -1  25  -1
M  END
>  <UniqueID>  (67) 
62

>  <SMILES>  (67) 
Cc1cc(C)[n-]c(=NC(=O)NC2CCN(C(=O)c3ccc(F)c(C([NH-])=O)c3)CC2)n1

>  <Energy>  (67) 
59.87040760610314

>  <Genealogy>  (67) 
Cc1cc(C)[n-]c(=NC(=O)NC2CCN(C(=O)c3ccc(F)c(C([NH-])=O)c3)CC2)n1 (protonated)
Cc1cc(C)[n-]c(=NC(=O)NC2CCN(C(=O)c3ccc(F)c(C([NH-])=O)c3)CC2)n1 (3D coordinates assigned)
Cc1cc(C)[n-]c(=NC(=O)NC2CCN(C(=O)c3ccc(F)c(C([NH-])=O)c3)CC2)n1 (nonaromatic ring conformer: 59.87040760610314 kcal/mol)

>  <smiles>  (67) 
Cc1cc(C)[nH]c(=NC(=O)NC2CCN(C(=O)c3ccc(F)c(C(N)=O)c3)CC2)n1

>  <score_type>  (67) 
oracle

>  <origin>  (67) 
adg

>  <m_score__min__energy>  (67) 
-12.880000000000001

>  <m_primary>  (67) 
energy

$$$$
67:0
     RDKit          3D

 52 55  0  0  0  0  0  0  0  0999 V2000
   57.6010   28.4100   44.4250 C   0  0  0  0  0  0  0  0  0  0  0  0
   58.0450   27.4960   45.3030 C   0  0  0  0  0  0  0  0  0  0  0  0
   57.6980   26.1360   45.3670 C   0  0  0  0  0  0  0  0  0  0  0  0
   56.9950   25.3590   44.5190 C   0  0  0  0  0  0  0  0  0  0  0  0
   55.7540   24.6310   44.8470 C   0  0  0  0  0  0  0  0  0  0  0  0
   54.7460   25.2550   45.5950 C   0  0  0  0  0  0  0  0  0  0  0  0
   54.8780   26.5800   45.9940 O   0  0  0  0  0  0  0  0  0  0  0  0
   53.6250   24.5660   45.9310 N   0  0  0  0  0  0  0  0  0  0  0  0
   53.4640   23.2680   45.5650 C   0  0  0  0  0  0  0  0  0  0  0  0
   52.4150   22.6510   45.8820 O   0  0  0  0  0  0  0  0  0  0  0  0
   54.4370   22.6340   44.8620 N   0  0  0  0  0  0  0  0  0  0  0  0
   55.5780   23.2780   44.5040 C   0  0  0  0  0  0  0  0  0  0  0  0
   56.4700   22.6510   43.8720 O   0  0  0  0  0  0  0  0  0  0  0  0
   58.2430   25.6530   46.5460 C   0  0  0  0  0  0  0  0  0  0  0  0
   58.9430   26.6920   47.1210 C   0  0  0  0  0  0  0  0  0  0  0  0
   59.7010   26.5960   48.4100 C   0  0  0  0  0  0  0  0  0  0  0  0
   58.8220   27.8100   46.3720 N   0  0  0  0  0  0  0  0  0  0  0  0
   59.4020   29.0920   46.6800 C   0  0  0  0  0  0  0  0  0  0  0  0
   58.5990   30.1260   47.1780 C   0  0  0  0  0  0  0  0  0  0  0  0
   59.1570   31.3740   47.4690 C   0  0  0  0  0  0  0  0  0  0  0  0
   60.5290   31.6050   47.2690 C   0  0  0  0  0  0  0  0  0  0  0  0
   61.1030   32.8950   47.5520 N   0  0  0  0  0  0  0  0  0  0  0  0
   61.7000   33.7140   46.4920 C   0  0  0  0  0  0  0  0  0  0  0  0
   63.1520   34.0780   46.8510 C   0  0  0  0  0  0  0  0  0  0  0  0
   63.3970   34.2180   48.3110 N   0  0  0  0  0  0  0  0  0  0  0  0
   64.1200   33.0580   48.8590 C   0  0  0  0  0  0  0  0  0  0  0  0
   62.1720   34.5170   49.0840 C   0  0  0  0  0  0  0  0  0  0  0  0
   61.1110   33.4140   48.9240 C   0  0  0  0  0  0  0  0  0  0  0  0
   61.3290   30.5660   46.7600 C   0  0  0  0  0  0  0  0  0  0  0  0
   60.7690   29.3190   46.4710 C   0  0  0  0  0  0  0  0  0  0  0  0
   57.9557   29.4494   44.4864 H   0  0  0  0  0  0  0  0  0  0  0  0
   56.8826   28.1192   43.6444 H   0  0  0  0  0  0  0  0  0  0  0  0
   57.3798   25.2589   43.4934 H   0  0  0  0  0  0  0  0  0  0  0  0
   58.1371   24.6341   46.9468 H   0  0  0  0  0  0  0  0  0  0  0  0
   59.0014   26.6846   49.2542 H   0  0  0  0  0  0  0  0  0  0  0  0
   60.2162   25.6254   48.4610 H   0  0  0  0  0  0  0  0  0  0  0  0
   60.4419   27.4075   48.4610 H   0  0  0  0  0  0  0  0  0  0  0  0
   57.5246   29.9551   47.3408 H   0  0  0  0  0  0  0  0  0  0  0  0
   58.5181   32.1809   47.8572 H   0  0  0  0  0  0  0  0  0  0  0  0
   61.6904   33.1491   45.5482 H   0  0  0  0  0  0  0  0  0  0  0  0
   61.1157   34.6397   46.3834 H   0  0  0  0  0  0  0  0  0  0  0  0
   63.8125   33.2883   46.4636 H   0  0  0  0  0  0  0  0  0  0  0  0
   63.3552   35.0598   46.3986 H   0  0  0  0  0  0  0  0  0  0  0  0
   64.0959   33.0967   49.9581 H   0  0  0  0  0  0  0  0  0  0  0  0
   63.6399   32.1303   48.5141 H   0  0  0  0  0  0  0  0  0  0  0  0
   65.1643   33.0805   48.5141 H   0  0  0  0  0  0  0  0  0  0  0  0
   62.4355   34.6057   50.1483 H   0  0  0  0  0  0  0  0  0  0  0  0
   61.7478   35.4571   48.7017 H   0  0  0  0  0  0  0  0  0  0  0  0
   61.3373   32.5922   49.6193 H   0  0  0  0  0  0  0  0  0  0  0  0
   60.1218   33.8411   49.1455 H   0  0  0  0  0  0  0  0  0  0  0  0
   62.4021   30.7363   46.5884 H   0  0  0  0  0  0  0  0  0  0  0  0
   61.4041   28.5116   46.0776 H   0  0  0  0  0  0  0  0  0  0  0  0
  1  2  2  0
  2  3  1  0
  3  4  2  3
  4  5  1  0
  5  6  2  0
  6  7  1  0
  6  8  1  0
  8  9  1  0
  9 10  2  0
  9 11  1  0
 11 12  1  0
 12 13  2  0
  3 14  1  0
 14 15  2  0
 15 16  1  0
 15 17  1  0
 17 18  1  0
 18 19  2  0
 19 20  1  0
 20 21  2  0
 21 22  1  0
 22 23  1  0
 23 24  1  0
 24 25  1  0
 25 26  1  0
 25 27  1  0
 27 28  1  0
 21 29  1  0
 29 30  2  0
 17  2  1  0
 30 18  1  0
 12  5  1  0
 28 22  1  0
  1 31  1  0
  1 32  1  0
  4 33  1  0
 14 34  1  0
 16 35  1  0
 16 36  1  0
 16 37  1  0
 19 38  1  0
 20 39  1  0
 23 40  1  0
 23 41  1  0
 24 42  1  0
 24 43  1  0
 26 44  1  0
 26 45  1  0
 26 46  1  0
 27 47  1  0
 27 48  1  0
 28 49  1  0
 28 50  1  0
 29 51  1  0
 30 52  1  0
M  CHG  3   7  -1   8  -1  11  -1
M  END
>  <UniqueID>  (68) 
63

>  <SMILES>  (68) 
C=c1c(=Cc2c([O-])[n-]c(=O)[n-]c2=O)cc(C)n1-c1ccc(N2CCN(C)CC2)cc1

>  <Energy>  (68) 
115.59309641264447

>  <Genealogy>  (68) 
C=c1c(=Cc2c([O-])[n-]c(=O)[n-]c2=O)cc(C)n1-c1ccc(N2CCN(C)CC2)cc1 (protonated)
C=c1c(=Cc2c([O-])[n-]c(=O)[n-]c2=O)cc(C)n1-c1ccc(N2CCN(C)CC2)cc1 (3D coordinates assigned)
C=c1c(=Cc2c([O-])[n-]c(=O)[n-]c2=O)cc(C)n1-c1ccc(N2CCN(C)CC2)cc1 (nonaromatic ring conformer: 115.59309641264447 kcal/mol)

>  <smiles>  (68) 
C=c1c(=Cc2c(O)[nH]c(=O)[nH]c2=O)cc(C)n1-c1ccc(N2CCN(C)CC2)cc1

>  <score_type>  (68) 
oracle

>  <origin>  (68) 
adg

>  <m_score__min__energy>  (68) 
-15.74

>  <m_primary>  (68) 
energy

$$$$
68:0
     RDKit          3D

 50 53  0  0  0  0  0  0  0  0999 V2000
   56.0030   30.8630   44.2220 O   0  0  0  0  0  0  0  0  0  0  0  0
   57.0780   31.1240   44.8200 C   0  0  0  0  0  0  0  0  0  0  0  0
   57.9930   32.1760   44.2570 C   0  0  0  0  0  0  0  0  0  0  0  0
   57.5770   33.8160   44.9440 S   0  0  0  0  0  0  0  0  0  0  0  0
   58.9060   33.8040   46.1470 C   0  0  0  0  0  0  0  0  0  0  0  0
   58.6140   33.8120   47.4810 N   0  0  0  0  0  0  0  0  0  0  0  0
   59.6040   33.8260   48.4150 C   0  0  0  0  0  0  0  0  0  0  0  0
   59.3180   33.8520   49.6420 O   0  0  0  0  0  0  0  0  0  0  0  0
   60.9300   33.8220   47.9860 C   0  0  0  0  0  0  0  0  0  0  0  0
   61.1990   33.8070   46.6480 C   0  0  0  0  0  0  0  0  0  0  0  0
   60.2040   33.8010   45.7270 N   0  0  0  0  0  0  0  0  0  0  0  0
   62.6470   33.8200   46.3570 C   0  0  0  0  0  0  0  0  0  0  0  0
   63.3000   33.8090   47.7540 C   0  0  0  0  0  0  0  0  0  0  0  0
   62.1660   33.8490   48.8020 C   0  0  0  0  0  0  0  0  0  0  0  0
   57.4460   30.3360   45.9600 N   0  0  0  0  0  0  0  0  0  0  0  0
   58.1070   29.0660   45.9140 C   0  0  0  0  0  0  0  0  0  0  0  0
   59.5060   28.9740   45.9620 C   0  0  0  0  0  0  0  0  0  0  0  0
   60.1290   27.7240   45.9490 C   0  0  0  0  0  0  0  0  0  0  0  0
   59.3590   26.5590   45.9100 C   0  0  0  0  0  0  0  0  0  0  0  0
   57.9590   26.6380   45.9010 C   0  0  0  0  0  0  0  0  0  0  0  0
   56.9860   25.1640   45.8910 S   0  0  0  0  0  0  0  0  0  0  0  0
   55.5320   25.5310   46.0040 O   0  0  0  0  0  0  0  0  0  0  0  0
   57.3460   24.3230   47.0840 O   0  0  0  0  0  0  0  0  0  0  0  0
   57.2320   24.2370   44.4280 N   0  0  0  0  0  0  0  0  0  0  0  0
   57.8880   22.9410   44.7060 C   0  0  0  0  0  0  0  0  0  0  0  0
   56.8930   21.7670   44.6390 C   0  0  0  0  0  0  0  0  0  0  0  0
   56.2430   21.6510   43.3800 O   0  0  0  0  0  0  0  0  0  0  0  0
   56.0270   22.8960   42.7280 C   0  0  0  0  0  0  0  0  0  0  0  0
   55.9660   24.0980   43.6840 C   0  0  0  0  0  0  0  0  0  0  0  0
   57.3380   27.8960   45.9070 C   0  0  0  0  0  0  0  0  0  0  0  0
   59.0329   31.9279   44.5158 H   0  0  0  0  0  0  0  0  0  0  0  0
   57.8721   32.2060   43.1641 H   0  0  0  0  0  0  0  0  0  0  0  0
   62.9393   32.9301   45.7802 H   0  0  0  0  0  0  0  0  0  0  0  0
   62.9524   34.6852   45.7502 H   0  0  0  0  0  0  0  0  0  0  0  0
   63.8963   32.8935   47.8818 H   0  0  0  0  0  0  0  0  0  0  0  0
   63.9671   34.6752   47.8746 H   0  0  0  0  0  0  0  0  0  0  0  0
   62.2158   32.9741   49.4669 H   0  0  0  0  0  0  0  0  0  0  0  0
   62.2237   34.7302   49.4579 H   0  0  0  0  0  0  0  0  0  0  0  0
   60.1143   29.8893   46.0100 H   0  0  0  0  0  0  0  0  0  0  0  0
   61.2268   27.6568   45.9695 H   0  0  0  0  0  0  0  0  0  0  0  0
   59.8527   25.5763   45.8863 H   0  0  0  0  0  0  0  0  0  0  0  0
   58.6816   22.7774   43.9620 H   0  0  0  0  0  0  0  0  0  0  0  0
   58.3011   22.9798   45.7248 H   0  0  0  0  0  0  0  0  0  0  0  0
   57.4407   20.8337   44.8363 H   0  0  0  0  0  0  0  0  0  0  0  0
   56.1135   21.9577   45.3914 H   0  0  0  0  0  0  0  0  0  0  0  0
   56.8491   23.0612   42.0161 H   0  0  0  0  0  0  0  0  0  0  0  0
   55.0464   22.8314   42.2337 H   0  0  0  0  0  0  0  0  0  0  0  0
   55.7870   25.0139   43.1016 H   0  0  0  0  0  0  0  0  0  0  0  0
   55.1491   23.9371   44.4029 H   0  0  0  0  0  0  0  0  0  0  0  0
   56.2401   27.9636   45.9062 H   0  0  0  0  0  0  0  0  0  0  0  0
  1  2  2  0
  2  3  1  0
  3  4  1  0
  4  5  1  0
  5  6  2  0
  6  7  1  0
  7  8  2  0
  7  9  1  0
  9 10  2  0
 10 11  1  0
 10 12  1  0
 12 13  1  0
 13 14  1  0
  2 15  1  0
 15 16  1  0
 16 17  2  0
 17 18  1  0
 18 19  2  0
 19 20  1  0
 20 21  1  0
 21 22  2  0
 21 23  2  0
 21 24  1  0
 24 25  1  0
 25 26  1  0
 26 27  1  0
 27 28  1  0
 28 29  1  0
 20 30  2  0
 11  5  1  0
 30 16  1  0
 14  9  1  0
 29 24  1  0
  3 31  1  0
  3 32  1  0
 12 33  1  0
 12 34  1  0
 13 35  1  0
 13 36  1  0
 14 37  1  0
 14 38  1  0
 17 39  1  0
 18 40  1  0
 19 41  1  0
 25 42  1  0
 25 43  1  0
 26 44  1  0
 26 45  1  0
 28 46  1  0
 28 47  1  0
 29 48  1  0
 29 49  1  0
 30 50  1  0
M  CHG  2  11  -1  15  -1
M  END
>  <UniqueID>  (69) 
64

>  <SMILES>  (69) 
O=C(CSc1nc(=O)c2c([n-]1)CCC2)[N-]c1cccc(S(=O)(=O)N2CCOCC2)c1

>  <Energy>  (69) 
75.12108704415952

>  <Genealogy>  (69) 
O=C(CSc1nc(=O)c2c([n-]1)CCC2)[N-]c1cccc(S(=O)(=O)N2CCOCC2)c1 (protonated)
O=C(CSc1nc(=O)c2c([n-]1)CCC2)[N-]c1cccc(S(=O)(=O)N2CCOCC2)c1 (3D coordinates assigned)
O=C(CSc1nc(=O)c2c([n-]1)CCC2)[N-]c1cccc(S(=O)(=O)N2CCOCC2)c1 (nonaromatic ring conformer: 75.12108704415952 kcal/mol)

>  <smiles>  (69) 
O=C(CSc1nc(=O)c2c([nH]1)CCC2)Nc1cccc(S(=O)(=O)N2CCOCC2)c1

>  <score_type>  (69) 
oracle

>  <origin>  (69) 
adg

>  <m_score__min__energy>  (69) 
-13.43

>  <m_primary>  (69) 
energy

$$$$
69:0
     RDKit          3D

 59 62  0  0  0  0  0  0  0  0999 V2000
   57.4435   28.2003   48.0461 H   0  0  0  0  0  0  0  0  0  0  0  0
   58.3450   28.5100   47.4970 C   0  0  0  0  0  0  0  0  0  0  0  0
   59.0860   29.6000   47.7630 N   0  0  0  0  0  0  0  0  0  0  0  0
   60.0650   29.5600   46.8330 C   0  0  0  0  0  0  0  0  0  0  0  0
   61.1490   30.5860   46.7490 C   0  0  0  0  0  0  0  0  0  0  0  0
   61.1623   31.0196   45.7381 H   0  0  0  0  0  0  0  0  0  0  0  0
   62.1159   30.1072   46.9630 H   0  0  0  0  0  0  0  0  0  0  0  0
   60.9130   31.6440   47.7250 N   0  0  0  0  0  0  0  0  0  0  0  0
   60.1620   31.4930   48.4320 H   0  0  0  0  0  0  0  0  0  0  0  0
   61.7200   32.8320   47.7690 C   0  0  0  0  0  0  0  0  0  0  0  0
   62.8020   32.8820   47.1270 O   0  0  0  0  0  0  0  0  0  0  0  0
   61.3170   33.9720   48.5270 N   0  0  0  0  0  0  0  0  0  0  0  0
   59.9590   34.5040   48.5570 C   0  0  0  0  0  0  0  0  0  0  0  0
   59.4069   34.0385   49.3867 H   0  0  0  0  0  0  0  0  0  0  0  0
   60.0088   35.5940   48.6963 H   0  0  0  0  0  0  0  0  0  0  0  0
   59.2460   34.2130   47.2640 C   0  0  0  0  0  0  0  0  0  0  0  0
   58.1590   33.3270   47.2340 C   0  0  0  0  0  0  0  0  0  0  0  0
   57.8448   32.8136   48.1547 H   0  0  0  0  0  0  0  0  0  0  0  0
   57.4730   33.0940   46.0370 C   0  0  0  0  0  0  0  0  0  0  0  0
   56.6272   32.3910   46.0157 H   0  0  0  0  0  0  0  0  0  0  0  0
   57.8620   33.7540   44.8690 C   0  0  0  0  0  0  0  0  0  0  0  0
   57.3114   33.5818   43.9324 H   0  0  0  0  0  0  0  0  0  0  0  0
   58.9470   34.6310   44.8870 C   0  0  0  0  0  0  0  0  0  0  0  0
   59.2588   35.1395   43.9628 H   0  0  0  0  0  0  0  0  0  0  0  0
   59.6400   34.8640   46.0840 C   0  0  0  0  0  0  0  0  0  0  0  0
   60.4935   35.5578   46.0983 H   0  0  0  0  0  0  0  0  0  0  0  0
   59.9830   28.5070   45.9930 N   0  0  0  0  0  0  0  0  0  0  0  0
   58.8970   27.8450   46.4270 C   0  0  0  0  0  0  0  0  0  0  0  0
   58.3260   26.6340   45.7540 C   0  0  0  0  0  0  0  0  0  0  0  0
   58.7060   26.5864   44.7228 H   0  0  0  0  0  0  0  0  0  0  0  0
   58.6315   25.7462   46.3271 H   0  0  0  0  0  0  0  0  0  0  0  0
   56.7940   26.6770   45.7180 C   0  0  0  0  0  0  0  0  0  0  0  0
   56.4497   27.6038   46.2002 H   0  0  0  0  0  0  0  0  0  0  0  0
   56.4694   26.6423   44.6676 H   0  0  0  0  0  0  0  0  0  0  0  0
   56.2150   25.5300   46.4200 N   0  0  0  0  0  0  0  0  0  0  0  0
   55.2070   24.8200   46.0050 C   0  0  0  0  0  0  0  0  0  0  0  0
   54.0380   25.4350   45.6730 N   0  0  0  0  0  0  0  0  0  0  0  0
   52.9560   24.7450   45.2380 C   0  0  0  0  0  0  0  0  0  0  0  0
   52.0252   25.2727   44.9828 H   0  0  0  0  0  0  0  0  0  0  0  0
   53.0360   23.3630   45.1180 C   0  0  0  0  0  0  0  0  0  0  0  0
   52.1710   22.7860   44.7592 H   0  0  0  0  0  0  0  0  0  0  0  0
   54.1890   22.7330   45.4470 N   0  0  0  0  0  0  0  0  0  0  0  0
   55.2860   23.4020   45.8910 C   0  0  0  0  0  0  0  0  0  0  0  0
   56.3340   22.6860   46.2000 N   0  0  0  0  0  0  0  0  0  0  0  0
   57.5730   22.4270   45.4560 C   0  0  0  0  0  0  0  0  0  0  0  0
   58.4325   22.7825   46.0433 H   0  0  0  0  0  0  0  0  0  0  0  0
   57.6860   20.9200   45.2080 C   0  0  0  0  0  0  0  0  0  0  0  0
   58.6721   20.7017   44.7721 H   0  0  0  0  0  0  0  0  0  0  0  0
   57.5612   20.3999   46.1692 H   0  0  0  0  0  0  0  0  0  0  0  0
   56.5860   20.4250   44.2390 C   0  0  0  0  0  0  0  0  0  0  0  0
   57.0410   19.7177   43.5300 H   0  0  0  0  0  0  0  0  0  0  0  0
   55.8028   19.9587   44.8548 H   0  0  0  0  0  0  0  0  0  0  0  0
   55.9660   21.4630   43.4990 O   0  0  0  0  0  0  0  0  0  0  0  0
   56.9400   22.3420   42.9770 C   0  0  0  0  0  0  0  0  0  0  0  0
   57.7273   21.7558   42.4805 H   0  0  0  0  0  0  0  0  0  0  0  0
   56.4580   23.0184   42.2557 H   0  0  0  0  0  0  0  0  0  0  0  0
   57.5690   23.1830   44.1040 C   0  0  0  0  0  0  0  0  0  0  0  0
   58.6061   23.4263   43.8296 H   0  0  0  0  0  0  0  0  0  0  0  0
   56.9663   24.0951   44.2254 H   0  0  0  0  0  0  0  0  0  0  0  0
  1  2  1  0
  2  3  1  0
  3  4  1  0
  4  5  1  0
  5  6  1  0
  5  7  1  0
  5  8  1  0
  8  9  1  0
  8 10  1  0
 10 11  2  0
 10 12  1  0
 12 13  1  0
 13 14  1  0
 13 15  1  0
 13 16  1  0
 16 17  2  0
 17 18  1  0
 17 19  1  0
 19 20  1  0
 19 21  2  0
 21 22  1  0
 21 23  1  0
 23 24  1  0
 23 25  2  0
 25 26  1  0
  4 27  2  0
 27 28  1  0
 28 29  1  0
 29 30  1  0
 29 31  1  0
 29 32  1  0
 32 33  1  0
 32 34  1  0
 32 35  1  0
 35 36  2  0
 36 37  1  0
 37 38  1  0
 38 39  1  0
 38 40  2  0
 40 41  1  0
 40 42  1  0
 42 43  1  0
 43 44  2  0
 44 45  1  0
 45 46  1  0
 45 47  1  0
 47 48  1  0
 47 49  1  0
 47 50  1  0
 50 51  1  0
 50 52  1  0
 50 53  1  0
 53 54  1  0
 54 55  1  0
 54 56  1  0
 54 57  1  0
 57 58  1  0
 57 59  1  0
 28  2  2  0
 43 36  1  0
 57 45  1  0
 25 16  1  0
M  CHG  4   3  -1  12  -1  37  -1  42  -1
M  END
>  <UniqueID>  (70) 
65

>  <SMILES>  (70) 
O=C([N-]Cc1ccccc1)NCc1nc(CC/N=c2\[n-]cc[n-]\c2=N\C2CCOCC2)c[n-]1

>  <Energy>  (70) 
94.30810144487

>  <Genealogy>  (70) 
O=C([N-]Cc1ccccc1)NCc1nc(CCN=c2[n-]cc[n-]c2=NC2CCOCC2)c[n-]1 (protonated)
O=C([N-]Cc1ccccc1)NCc1nc(CC/N=c2\[n-]cc[n-]\c2=N\C2CCOCC2)c[n-]1 (cis-trans isomerization)
O=C([N-]Cc1ccccc1)NCc1nc(CC/N=c2\[n-]cc[n-]\c2=N\C2CCOCC2)c[n-]1 (3D coordinates assigned)
O=C([N-]Cc1ccccc1)NCc1nc(CC/N=c2\[n-]cc[n-]\c2=N\C2CCOCC2)c[n-]1 (nonaromatic ring conformer: 94.30810144487 kcal/mol)

>  <smiles>  (70) 
O=C(NCc1ccccc1)NCc1nc(CCN=c2[nH]cc[nH]c2=NC2CCOCC2)c[nH]1

>  <score_type>  (70) 
oracle

>  <origin>  (70) 
adg

>  <m_score__min__energy>  (70) 
-14.5

>  <m_primary>  (70) 
energy

$$$$
70:0
     RDKit          3D

 54 57  0  0  0  0  0  0  0  0999 V2000
   60.1338   35.6576   46.3269 H   0  0  0  0  0  0  0  0  0  0  0  0
   59.6510   35.3610   45.3840 C   0  0  0  0  0  0  0  0  0  0  0  0
   59.6381   36.0550   44.5307 H   0  0  0  0  0  0  0  0  0  0  0  0
   59.0790   34.1550   45.2750 C   0  0  0  0  0  0  0  0  0  0  0  0
   58.5090   33.8420   44.1180 O   0  0  0  0  0  0  0  0  0  0  0  0
   57.9250   32.6740   43.8760 C   0  0  0  0  0  0  0  0  0  0  0  0
   57.4030   32.4910   42.7420 O   0  0  0  0  0  0  0  0  0  0  0  0
   57.8840   31.6650   44.8670 C   0  0  0  0  0  0  0  0  0  0  0  0
   57.2590   30.4880   44.6060 C   0  0  0  0  0  0  0  0  0  0  0  0
   56.2653   30.5364   44.1367 H   0  0  0  0  0  0  0  0  0  0  0  0
   57.8050   29.1500   44.9010 C   0  0  0  0  0  0  0  0  0  0  0  0
   59.1890   28.9470   44.8900 C   0  0  0  0  0  0  0  0  0  0  0  0
   59.8652   29.7848   44.6646 H   0  0  0  0  0  0  0  0  0  0  0  0
   59.7140   27.6810   45.1650 C   0  0  0  0  0  0  0  0  0  0  0  0
   60.8030   27.5259   45.1626 H   0  0  0  0  0  0  0  0  0  0  0  0
   58.8580   26.6120   45.4430 C   0  0  0  0  0  0  0  0  0  0  0  0
   59.2778   25.6191   45.6619 H   0  0  0  0  0  0  0  0  0  0  0  0
   57.4650   26.7960   45.4450 C   0  0  0  0  0  0  0  0  0  0  0  0
   56.5670   25.6500   45.7190 C   0  0  0  0  0  0  0  0  0  0  0  0
   55.6220   25.8000   46.5420 O   0  0  0  0  0  0  0  0  0  0  0  0
   56.7330   24.3770   45.0620 N   0  0  0  0  0  0  0  0  0  0  0  0
   56.5260   23.1420   45.8370 C   0  0  0  0  0  0  0  0  0  0  0  0
   57.4862   22.8440   46.2834 H   0  0  0  0  0  0  0  0  0  0  0  0
   55.7653   23.3587   46.6014 H   0  0  0  0  0  0  0  0  0  0  0  0
   55.9950   21.9650   44.9780 C   0  0  0  0  0  0  0  0  0  0  0  0
   56.7476   21.1628   44.9843 H   0  0  0  0  0  0  0  0  0  0  0  0
   55.0402   21.6469   45.4221 H   0  0  0  0  0  0  0  0  0  0  0  0
   55.7300   22.3180   43.6360 O   0  0  0  0  0  0  0  0  0  0  0  0
   56.8740   22.9190   43.0770 C   0  0  0  0  0  0  0  0  0  0  0  0
   57.7672   22.3387   43.3516 H   0  0  0  0  0  0  0  0  0  0  0  0
   56.7832   22.9440   41.9810 H   0  0  0  0  0  0  0  0  0  0  0  0
   57.0010   24.3380   43.6160 C   0  0  0  0  0  0  0  0  0  0  0  0
   58.0212   24.7042   43.4289 H   0  0  0  0  0  0  0  0  0  0  0  0
   56.2640   24.9750   43.1050 H   0  0  0  0  0  0  0  0  0  0  0  0
   56.9450   28.0640   45.1380 C   0  0  0  0  0  0  0  0  0  0  0  0
   55.8559   28.2083   45.0826 H   0  0  0  0  0  0  0  0  0  0  0  0
   58.5330   31.9460   46.0960 C   0  0  0  0  0  0  0  0  0  0  0  0
   58.6750   30.9710   47.0800 O   0  0  0  0  0  0  0  0  0  0  0  0
   59.0860   33.2130   46.3270 C   0  0  0  0  0  0  0  0  0  0  0  0
   59.6650   33.5160   47.6560 C   0  0  0  0  0  0  0  0  0  0  0  0
   58.8940   33.8060   48.6080 O   0  0  0  0  0  0  0  0  0  0  0  0
   61.0890   33.5350   47.8570 N   0  0  0  0  0  0  0  0  0  0  0  0
   62.0630   33.4630   46.7820 C   0  0  0  0  0  0  0  0  0  0  0  0
   62.0329   32.4728   46.3040 H   0  0  0  0  0  0  0  0  0  0  0  0
   61.8568   34.2080   45.9994 H   0  0  0  0  0  0  0  0  0  0  0  0
   63.4190   33.6960   47.4320 C   0  0  0  0  0  0  0  0  0  0  0  0
   64.1393   32.9366   47.0937 H   0  0  0  0  0  0  0  0  0  0  0  0
   63.8283   34.6808   47.1624 H   0  0  0  0  0  0  0  0  0  0  0  0
   63.1960   33.5800   48.9400 C   0  0  0  0  0  0  0  0  0  0  0  0
   63.5356   32.5983   49.3018 H   0  0  0  0  0  0  0  0  0  0  0  0
   63.7629   34.3454   49.4902 H   0  0  0  0  0  0  0  0  0  0  0  0
   61.6970   33.7340   49.1580 C   0  0  0  0  0  0  0  0  0  0  0  0
   61.3335   32.9791   49.8708 H   0  0  0  0  0  0  0  0  0  0  0  0
   61.4467   34.7200   49.5766 H   0  0  0  0  0  0  0  0  0  0  0  0
  1  2  1  0
  2  3  1  0
  2  4  2  0
  4  5  1  0
  5  6  1  0
  6  7  2  0
  6  8  1  0
  8  9  2  0
  9 10  1  0
  9 11  1  0
 11 12  2  0
 12 13  1  0
 12 14  1  0
 14 15  1  0
 14 16  2  0
 16 17  1  0
 16 18  1  0
 18 19  1  0
 19 20  2  0
 19 21  1  0
 21 22  1  0
 22 23  1  0
 22 24  1  0
 22 25  1  0
 25 26  1  0
 25 27  1  0
 25 28  1  0
 28 29  1  0
 29 30  1  0
 29 31  1  0
 29 32  1  0
 32 33  1  0
 32 34  1  0
 18 35  2  0
 35 36  1  0
  8 37  1  0
 37 38  1  0
 37 39  2  0
 39 40  1  0
 40 41  2  0
 40 42  1  0
 42 43  1  0
 43 44  1  0
 43 45  1  0
 43 46  1  0
 46 47  1  0
 46 48  1  0
 46 49  1  0
 49 50  1  0
 49 51  1  0
 49 52  1  0
 52 53  1  0
 52 54  1  0
 39  4  1  0
 52 42  1  0
 35 11  1  0
 32 21  1  0
M  CHG  1  38  -1
M  END
>  <UniqueID>  (71) 
66

>  <SMILES>  (71) 
C=c1oc(=O)/c(=C/c2cccc(C(=O)N3CCOCC3)c2)c([O-])c1C(=O)N1CCCC1

>  <Energy>  (71) 
89.31538983416827

>  <Genealogy>  (71) 
C=c1oc(=O)c(=Cc2cccc(C(=O)N3CCOCC3)c2)c([O-])c1C(=O)N1CCCC1 (protonated)
C=c1oc(=O)/c(=C/c2cccc(C(=O)N3CCOCC3)c2)c([O-])c1C(=O)N1CCCC1 (cis-trans isomerization)
C=c1oc(=O)/c(=C/c2cccc(C(=O)N3CCOCC3)c2)c([O-])c1C(=O)N1CCCC1 (3D coordinates assigned)
C=c1oc(=O)/c(=C/c2cccc(C(=O)N3CCOCC3)c2)c([O-])c1C(=O)N1CCCC1 (nonaromatic ring conformer: 89.31538983416827 kcal/mol)

>  <smiles>  (71) 
C=c1oc(=O)c(=Cc2cccc(C(=O)N3CCOCC3)c2)c(O)c1C(=O)N1CCCC1

>  <score_type>  (71) 
oracle

>  <origin>  (71) 
adg

>  <m_score__min__energy>  (71) 
-12.890000000000001

>  <m_primary>  (71) 
energy

$$$$
71:0
     RDKit          3D

 56 59  0  0  0  0  0  0  0  0999 V2000
   65.8120   30.4210   52.2290 C   0  0  0  0  0  0  0  0  0  0  0  0
   66.7760   30.3600   51.0480 C   0  0  0  0  0  0  0  0  0  0  0  0
   67.0230   31.7520   50.4590 C   0  0  0  0  0  0  0  0  0  0  0  0
   65.7460   32.4680   50.2860 N   0  0  0  0  0  0  0  0  0  0  0  0
   64.8410   31.9800   49.3850 C   0  0  0  0  0  0  0  0  0  0  0  0
   63.5980   32.6040   49.1870 C   0  0  0  0  0  0  0  0  0  0  0  0
   62.6340   32.0510   48.2010 C   0  0  0  0  0  0  0  0  0  0  0  0
   63.0750   31.4590   47.1780 O   0  0  0  0  0  0  0  0  0  0  0  0
   61.2160   32.2050   48.3900 N   0  0  0  0  0  0  0  0  0  0  0  0
   60.2250   31.6250   47.5250 C   0  0  0  0  0  0  0  0  0  0  0  0
   58.9720   32.2320   47.3350 C   0  0  0  0  0  0  0  0  0  0  0  0
   58.0320   31.6590   46.4730 C   0  0  0  0  0  0  0  0  0  0  0  0
   58.3320   30.4770   45.7710 C   0  0  0  0  0  0  0  0  0  0  0  0
   57.3320   29.8670   44.8630 C   0  0  0  0  0  0  0  0  0  0  0  0
   57.1990   30.3070   43.6890 O   0  0  0  0  0  0  0  0  0  0  0  0
   56.5530   28.7460   45.3020 N   0  0  0  0  0  0  0  0  0  0  0  0
   57.0460   27.4350   45.6210 C   0  0  0  0  0  0  0  0  0  0  0  0
   58.4140   27.1160   45.5310 C   0  0  0  0  0  0  0  0  0  0  0  0
   58.8570   25.8210   45.8220 C   0  0  0  0  0  0  0  0  0  0  0  0
   57.9400   24.8350   46.1930 C   0  0  0  0  0  0  0  0  0  0  0  0
   56.5790   25.1380   46.2630 C   0  0  0  0  0  0  0  0  0  0  0  0
   56.1300   26.4310   45.9710 C   0  0  0  0  0  0  0  0  0  0  0  0
   54.7700   26.7150   46.0370 O   0  0  0  0  0  0  0  0  0  0  0  0
   59.5980   29.8890   45.9440 C   0  0  0  0  0  0  0  0  0  0  0  0
   60.5360   30.4630   46.8060 C   0  0  0  0  0  0  0  0  0  0  0  0
   63.2800   33.7370   49.9550 C   0  0  0  0  0  0  0  0  0  0  0  0
   62.1730   34.3230   49.7930 O   0  0  0  0  0  0  0  0  0  0  0  0
   64.2020   34.2220   50.8980 C   0  0  0  0  0  0  0  0  0  0  0  0
   63.9250   35.3450   51.6970 C   0  0  0  0  0  0  0  0  0  0  0  0
   64.8640   35.7910   52.6270 C   0  0  0  0  0  0  0  0  0  0  0  0
   66.0780   35.1130   52.7590 C   0  0  0  0  0  0  0  0  0  0  0  0
   67.1020   35.5750   53.7460 C   0  0  0  0  0  0  0  0  0  0  0  0
   66.3340   34.0310   51.9750 N   0  0  0  0  0  0  0  0  0  0  0  0
   65.4450   33.5660   51.0520 C   0  0  0  0  0  0  0  0  0  0  0  0
   66.3815   30.3850   53.1694 H   0  0  0  0  0  0  0  0  0  0  0  0
   65.2365   31.3574   52.1845 H   0  0  0  0  0  0  0  0  0  0  0  0
   65.1230   29.5647   52.1845 H   0  0  0  0  0  0  0  0  0  0  0  0
   67.7339   29.9399   51.3886 H   0  0  0  0  0  0  0  0  0  0  0  0
   66.3291   29.7269   50.2673 H   0  0  0  0  0  0  0  0  0  0  0  0
   67.6707   32.3243   51.1394 H   0  0  0  0  0  0  0  0  0  0  0  0
   67.5089   31.6445   49.4780 H   0  0  0  0  0  0  0  0  0  0  0  0
   65.0912   31.0805   48.8033 H   0  0  0  0  0  0  0  0  0  0  0  0
   60.8720   32.8120   49.1670 H   0  0  0  0  0  0  0  0  0  0  0  0
   58.7292   33.1634   47.8675 H   0  0  0  0  0  0  0  0  0  0  0  0
   57.0496   32.1363   46.3425 H   0  0  0  0  0  0  0  0  0  0  0  0
   59.1378   27.8879   45.2307 H   0  0  0  0  0  0  0  0  0  0  0  0
   59.9282   25.5793   45.7585 H   0  0  0  0  0  0  0  0  0  0  0  0
   58.2902   23.8195   46.4301 H   0  0  0  0  0  0  0  0  0  0  0  0
   55.8575   24.3583   46.5485 H   0  0  0  0  0  0  0  0  0  0  0  0
   59.8518   28.9695   45.3961 H   0  0  0  0  0  0  0  0  0  0  0  0
   61.5267   29.9990   46.9212 H   0  0  0  0  0  0  0  0  0  0  0  0
   62.9661   35.8729   51.5886 H   0  0  0  0  0  0  0  0  0  0  0  0
   64.6500   36.6705   53.2521 H   0  0  0  0  0  0  0  0  0  0  0  0
   66.7291   35.4068   54.7671 H   0  0  0  0  0  0  0  0  0  0  0  0
   68.0344   35.0104   53.5985 H   0  0  0  0  0  0  0  0  0  0  0  0
   67.2957   36.6477   53.5985 H   0  0  0  0  0  0  0  0  0  0  0  0
  1  2  1  0
  2  3  1  0
  3  4  1  0
  4  5  1  0
  5  6  2  0
  6  7  1  0
  7  8  2  0
  7  9  1  0
  9 10  1  0
 10 11  2  0
 11 12  1  0
 12 13  2  0
 13 14  1  0
 14 15  2  0
 14 16  1  0
 16 17  1  0
 17 18  2  0
 18 19  1  0
 19 20  2  0
 20 21  1  0
 21 22  2  0
 22 23  1  0
 13 24  1  0
 24 25  2  0
  6 26  1  0
 26 27  2  0
 26 28  1  0
 28 29  2  0
 29 30  1  0
 30 31  2  0
 31 32  1  0
 31 33  1  0
 33 34  2  0
 34  4  1  0
 25 10  1  0
 34 28  1  0
 22 17  1  0
  1 35  1  0
  1 36  1  0
  1 37  1  0
  2 38  1  0
  2 39  1  0
  3 40  1  0
  3 41  1  0
  5 42  1  0
  9 43  1  0
 11 44  1  0
 12 45  1  0
 18 46  1  0
 19 47  1  0
 20 48  1  0
 21 49  1  0
 24 50  1  0
 25 51  1  0
 29 52  1  0
 30 53  1  0
 32 54  1  0
 32 55  1  0
 32 56  1  0
M  CHG  2  16  -1  23  -1
M  END
>  <UniqueID>  (72) 
67

>  <SMILES>  (72) 
CCCn1cc(C(=O)Nc2ccc(C(=O)[N-]c3ccccc3[O-])cc2)c(=O)c2ccc(C)nc21

>  <Energy>  (72) 
73.99290617147143

>  <Genealogy>  (72) 
CCCn1cc(C(=O)Nc2ccc(C(=O)[N-]c3ccccc3[O-])cc2)c(=O)c2ccc(C)nc21 (protonated)
CCCn1cc(C(=O)Nc2ccc(C(=O)[N-]c3ccccc3[O-])cc2)c(=O)c2ccc(C)nc21 (3D coordinates assigned)
CCCn1cc(C(=O)Nc2ccc(C(=O)[N-]c3ccccc3[O-])cc2)c(=O)c2ccc(C)nc21 (optimized conformer: 73.99290617147143 kcal/mol)

>  <smiles>  (72) 
CCCn1cc(C(=O)Nc2ccc(C(=O)Nc3ccccc3O)cc2)c(=O)c2ccc(C)nc21

>  <score_type>  (72) 
oracle

>  <origin>  (72) 
adg

>  <m_score__min__energy>  (72) 
-13.470000000000001

>  <m_primary>  (72) 
energy

$$$$
72:0
     RDKit          3D

 44 46  0  0  0  0  0  0  0  0999 V2000
   59.2050   34.7010   44.8790 N   0  0  0  0  0  0  0  0  0  0  0  0
   58.5970   33.4160   44.6840 C   0  0  0  0  0  0  0  0  0  0  0  0
   58.1320   33.0780   43.4040 C   0  0  0  0  0  0  0  0  0  0  0  0
   57.4690   31.8690   43.1840 C   0  0  0  0  0  0  0  0  0  0  0  0
   57.2590   30.9810   44.2420 C   0  0  0  0  0  0  0  0  0  0  0  0
   56.4110   29.4620   43.9610 S   0  0  0  0  0  0  0  0  0  0  0  0
   57.1270   28.6210   42.9420 O   0  0  0  0  0  0  0  0  0  0  0  0
   55.0370   29.7780   43.4420 O   0  0  0  0  0  0  0  0  0  0  0  0
   56.2520   28.5670   45.4430 N   0  0  0  0  0  0  0  0  0  0  0  0
   56.6860   27.3740   45.7470 C   0  0  0  0  0  0  0  0  0  0  0  0
   58.0350   27.1980   45.8100 N   0  0  0  0  0  0  0  0  0  0  0  0
   58.6080   26.0030   46.1110 C   0  0  0  0  0  0  0  0  0  0  0  0
   57.8090   24.8930   46.3680 C   0  0  0  0  0  0  0  0  0  0  0  0
   56.4230   25.0260   46.3170 C   0  0  0  0  0  0  0  0  0  0  0  0
   55.8440   26.2610   46.0100 C   0  0  0  0  0  0  0  0  0  0  0  0
   54.4580   26.3400   45.9820 O   0  0  0  0  0  0  0  0  0  0  0  0
   57.7360   31.2960   45.5190 C   0  0  0  0  0  0  0  0  0  0  0  0
   58.4120   32.5070   45.7550 C   0  0  0  0  0  0  0  0  0  0  0  0
   58.9420   32.7690   47.1110 C   0  0  0  0  0  0  0  0  0  0  0  0
   58.9380   33.9440   47.5690 O   0  0  0  0  0  0  0  0  0  0  0  0
   59.4940   31.6990   47.8920 N   0  0  0  0  0  0  0  0  0  0  0  0
   60.1100   31.9440   49.1950 C   0  0  0  0  0  0  0  0  0  0  0  0
   61.4950   32.5120   49.0290 C   0  0  0  0  0  0  0  0  0  0  0  0
   62.3010   32.0960   47.9550 C   0  0  0  0  0  0  0  0  0  0  0  0
   63.6010   32.5900   47.8170 C   0  0  0  0  0  0  0  0  0  0  0  0
   64.1110   33.4920   48.7530 C   0  0  0  0  0  0  0  0  0  0  0  0
   63.3230   33.8990   49.8330 C   0  0  0  0  0  0  0  0  0  0  0  0
   62.0210   33.4080   49.9770 C   0  0  0  0  0  0  0  0  0  0  0  0
   61.2780   33.8010   51.0440 F   0  0  0  0  0  0  0  0  0  0  0  0
   59.6220   35.2420   44.0900 H   0  0  0  0  0  0  0  0  0  0  0  0
   59.3330   35.0840   45.8410 H   0  0  0  0  0  0  0  0  0  0  0  0
   58.2913   33.7722   42.5657 H   0  0  0  0  0  0  0  0  0  0  0  0
   57.1112   31.6151   42.1753 H   0  0  0  0  0  0  0  0  0  0  0  0
   59.7036   25.9132   46.1515 H   0  0  0  0  0  0  0  0  0  0  0  0
   58.2663   23.9219   46.6086 H   0  0  0  0  0  0  0  0  0  0  0  0
   55.7815   24.1556   46.5192 H   0  0  0  0  0  0  0  0  0  0  0  0
   57.5808   30.5892   46.3474 H   0  0  0  0  0  0  0  0  0  0  0  0
   59.4280   30.7210   47.5270 H   0  0  0  0  0  0  0  0  0  0  0  0
   59.4916   32.6582   49.7585 H   0  0  0  0  0  0  0  0  0  0  0  0
   60.1810   30.9902   49.7383 H   0  0  0  0  0  0  0  0  0  0  0  0
   61.9068   31.3786   47.2201 H   0  0  0  0  0  0  0  0  0  0  0  0
   64.2237   32.2677   46.9694 H   0  0  0  0  0  0  0  0  0  0  0  0
   65.1332   33.8823   48.6402 H   0  0  0  0  0  0  0  0  0  0  0  0
   63.7274   34.6069   50.5714 H   0  0  0  0  0  0  0  0  0  0  0  0
  1  2  1  0
  2  3  2  0
  3  4  1  0
  4  5  2  0
  5  6  1  0
  6  7  2  0
  6  8  2  0
  6  9  1  0
  9 10  2  3
 10 11  1  0
 11 12  1  0
 12 13  2  0
 13 14  1  0
 14 15  2  0
 15 16  1  0
  5 17  1  0
 17 18  2  0
 18 19  1  0
 19 20  2  0
 19 21  1  0
 21 22  1  0
 22 23  1  0
 23 24  2  0
 24 25  1  0
 25 26  2  0
 26 27  1  0
 27 28  2  0
 28 29  1  0
 18  2  1  0
 28 23  1  0
 15 10  1  0
  1 30  1  0
  1 31  1  0
  3 32  1  0
  4 33  1  0
 12 34  1  0
 13 35  1  0
 14 36  1  0
 17 37  1  0
 21 38  1  0
 22 39  1  0
 22 40  1  0
 24 41  1  0
 25 42  1  0
 26 43  1  0
 27 44  1  0
M  CHG  2  11  -1  16  -1
M  END
>  <UniqueID>  (73) 
68

>  <SMILES>  (73) 
Nc1ccc(S(=O)(=O)N=c2[n-]cccc2[O-])cc1C(=O)NCc1ccccc1F

>  <Energy>  (73) 
60.936530677054826

>  <Genealogy>  (73) 
Nc1ccc(S(=O)(=O)N=c2[n-]cccc2[O-])cc1C(=O)NCc1ccccc1F (protonated)
Nc1ccc(S(=O)(=O)N=c2[n-]cccc2[O-])cc1C(=O)NCc1ccccc1F (3D coordinates assigned)
Nc1ccc(S(=O)(=O)N=c2[n-]cccc2[O-])cc1C(=O)NCc1ccccc1F (optimized conformer: 60.936530677054826 kcal/mol)

>  <smiles>  (73) 
Nc1ccc(S(=O)(=O)N=c2[nH]cccc2O)cc1C(=O)NCc1ccccc1F

>  <score_type>  (73) 
oracle

>  <origin>  (73) 
adg

>  <m_score__min__energy>  (73) 
-13.85

>  <m_primary>  (73) 
energy

$$$$
73:0
     RDKit          3D

 60 63  0  0  0  0  0  0  0  0999 V2000
   63.2600   33.8510   46.6420 C   0  0  0  0  0  0  0  0  0  0  0  0
   63.6960   32.4490   47.0570 C   0  0  0  0  0  0  0  0  0  0  0  0
   63.0010   32.0290   48.3450 C   0  0  0  0  0  0  0  0  0  0  0  0
   61.7480   31.3450   48.3750 C   0  0  0  0  0  0  0  0  0  0  0  0
   60.9050   31.2490   47.0980 C   0  0  0  0  0  0  0  0  0  0  0  0
   60.7260   29.7990   46.6040 C   0  0  0  0  0  0  0  0  0  0  0  0
   59.3920   29.5550   45.9550 C   0  0  0  0  0  0  0  0  0  0  0  0
   58.8750   30.4750   45.0290 C   0  0  0  0  0  0  0  0  0  0  0  0
   57.6180   30.2640   44.4530 C   0  0  0  0  0  0  0  0  0  0  0  0
   56.8710   29.1340   44.7980 C   0  0  0  0  0  0  0  0  0  0  0  0
   57.3790   28.2130   45.7180 C   0  0  0  0  0  0  0  0  0  0  0  0
   58.6350   28.4190   46.2950 C   0  0  0  0  0  0  0  0  0  0  0  0
   61.2920   30.8180   49.5780 N   0  0  0  0  0  0  0  0  0  0  0  0
   60.1100   29.9190   49.6470 C   0  0  0  0  0  0  0  0  0  0  0  0
   59.0770   30.3940   50.6520 C   0  0  0  0  0  0  0  0  0  0  0  0
   58.6730   29.5180   51.6790 C   0  0  0  0  0  0  0  0  0  0  0  0
   57.7780   29.9370   52.6640 C   0  0  0  0  0  0  0  0  0  0  0  0
   57.2630   31.2310   52.6370 C   0  0  0  0  0  0  0  0  0  0  0  0
   57.6220   32.1040   51.6090 C   0  0  0  0  0  0  0  0  0  0  0  0
   58.5030   31.6930   50.5960 C   0  0  0  0  0  0  0  0  0  0  0  0
   58.8010   32.6470   49.5110 C   0  0  0  0  0  0  0  0  0  0  0  0
   59.5150   33.6560   49.7620 O   0  0  0  0  0  0  0  0  0  0  0  0
   58.2740   32.4330   48.1900 N   0  0  0  0  0  0  0  0  0  0  0  0
   58.5170   33.3060   47.0750 C   0  0  0  0  0  0  0  0  0  0  0  0
   57.5980   33.3400   46.0160 C   0  0  0  0  0  0  0  0  0  0  0  0
   57.8010   34.1950   44.9290 C   0  0  0  0  0  0  0  0  0  0  0  0
   58.9160   35.0360   44.9000 C   0  0  0  0  0  0  0  0  0  0  0  0
   59.8250   35.0290   45.9620 C   0  0  0  0  0  0  0  0  0  0  0  0
   59.6260   34.1730   47.0500 C   0  0  0  0  0  0  0  0  0  0  0  0
   61.9910   31.0640   50.7370 C   0  0  0  0  0  0  0  0  0  0  0  0
   61.5740   30.6440   51.8500 O   0  0  0  0  0  0  0  0  0  0  0  0
   63.1500   31.7570   50.7090 N   0  0  0  0  0  0  0  0  0  0  0  0
   63.6770   32.2210   49.5600 C   0  0  0  0  0  0  0  0  0  0  0  0
   64.7860   32.8200   49.5980 O   0  0  0  0  0  0  0  0  0  0  0  0
   63.0715   34.4573   47.5403 H   0  0  0  0  0  0  0  0  0  0  0  0
   64.0547   34.3200   46.0433 H   0  0  0  0  0  0  0  0  0  0  0  0
   62.3395   33.7865   46.0433 H   0  0  0  0  0  0  0  0  0  0  0  0
   63.4362   31.7387   46.2582 H   0  0  0  0  0  0  0  0  0  0  0  0
   64.7829   32.4520   47.2261 H   0  0  0  0  0  0  0  0  0  0  0  0
   59.9116   31.6759   47.3004 H   0  0  0  0  0  0  0  0  0  0  0  0
   61.4360   31.8029   46.3098 H   0  0  0  0  0  0  0  0  0  0  0  0
   61.5166   29.5791   45.8715 H   0  0  0  0  0  0  0  0  0  0  0  0
   60.7855   29.1436   47.4854 H   0  0  0  0  0  0  0  0  0  0  0  0
   59.4607   31.3650   44.7555 H   0  0  0  0  0  0  0  0  0  0  0  0
   57.2170   30.9877   43.7281 H   0  0  0  0  0  0  0  0  0  0  0  0
   55.8823   28.9696   44.3448 H   0  0  0  0  0  0  0  0  0  0  0  0
   56.7894   27.3246   45.9884 H   0  0  0  0  0  0  0  0  0  0  0  0
   59.0329   27.6908   47.0171 H   0  0  0  0  0  0  0  0  0  0  0  0
   59.6412   29.8756   48.6529 H   0  0  0  0  0  0  0  0  0  0  0  0
   60.4617   28.9286   49.9716 H   0  0  0  0  0  0  0  0  0  0  0  0
   59.0679   28.4916   51.7045 H   0  0  0  0  0  0  0  0  0  0  0  0
   57.4784   29.2438   53.4638 H   0  0  0  0  0  0  0  0  0  0  0  0
   56.5732   31.5648   53.4261 H   0  0  0  0  0  0  0  0  0  0  0  0
   57.2107   33.1241   51.5923 H   0  0  0  0  0  0  0  0  0  0  0  0
   57.7670   31.5390   48.0040 H   0  0  0  0  0  0  0  0  0  0  0  0
   56.7114   32.6894   46.0410 H   0  0  0  0  0  0  0  0  0  0  0  0
   57.0825   34.2056   44.0961 H   0  0  0  0  0  0  0  0  0  0  0  0
   59.0788   35.7039   44.0413 H   0  0  0  0  0  0  0  0  0  0  0  0
   60.6981   35.6978   45.9419 H   0  0  0  0  0  0  0  0  0  0  0  0
   60.3379   34.1772   47.8885 H   0  0  0  0  0  0  0  0  0  0  0  0
  1  2  1  0
  2  3  1  0
  3  4  2  0
  4  5  1  0
  5  6  1  0
  6  7  1  0
  7  8  2  0
  8  9  1  0
  9 10  2  0
 10 11  1  0
 11 12  2  0
  4 13  1  0
 13 14  1  0
 14 15  1  0
 15 16  2  0
 16 17  1  0
 17 18  2  0
 18 19  1  0
 19 20  2  0
 20 21  1  0
 21 22  2  0
 21 23  1  0
 23 24  1  0
 24 25  2  0
 25 26  1  0
 26 27  2  0
 27 28  1  0
 28 29  2  0
 13 30  1  0
 30 31  2  0
 30 32  1  0
 32 33  1  0
 33 34  2  0
 33  3  1  0
 12  7  1  0
 20 15  1  0
 29 24  1  0
  1 35  1  0
  1 36  1  0
  1 37  1  0
  2 38  1  0
  2 39  1  0
  5 40  1  0
  5 41  1  0
  6 42  1  0
  6 43  1  0
  8 44  1  0
  9 45  1  0
 10 46  1  0
 11 47  1  0
 12 48  1  0
 14 49  1  0
 14 50  1  0
 16 51  1  0
 17 52  1  0
 18 53  1  0
 19 54  1  0
 23 55  1  0
 25 56  1  0
 26 57  1  0
 27 58  1  0
 28 59  1  0
 29 60  1  0
M  CHG  1  32  -1
M  END
>  <UniqueID>  (74) 
69

>  <SMILES>  (74) 
CCc1c(CCc2ccccc2)n(Cc2ccccc2C(=O)Nc2ccccc2)c(=O)[n-]c1=O

>  <Energy>  (74) 
81.35576423327204

>  <Genealogy>  (74) 
CCc1c(CCc2ccccc2)n(Cc2ccccc2C(=O)Nc2ccccc2)c(=O)[n-]c1=O (protonated)
CCc1c(CCc2ccccc2)n(Cc2ccccc2C(=O)Nc2ccccc2)c(=O)[n-]c1=O (3D coordinates assigned)
CCc1c(CCc2ccccc2)n(Cc2ccccc2C(=O)Nc2ccccc2)c(=O)[n-]c1=O (optimized conformer: 81.35576423327204 kcal/mol)

>  <smiles>  (74) 
CCc1c(CCc2ccccc2)n(Cc2ccccc2C(=O)Nc2ccccc2)c(=O)[nH]c1=O

>  <score_type>  (74) 
oracle

>  <origin>  (74) 
adg

>  <m_score__min__energy>  (74) 
-9.6600000000000001

>  <m_primary>  (74) 
energy

$$$$
74:0
     RDKit          3D

 59 62  0  0  0  0  0  0  0  0999 V2000
   58.0100   31.2040   45.3480 H   0  0  0  0  0  0  0  0  0  0  0  0
   57.4180   30.4150   45.2290 O   0  0  0  0  0  0  0  0  0  0  0  0
   58.2000   29.2800   45.4940 C   0  0  1  0  0  0  0  0  0  0  0  0
   57.7811   28.7337   46.3520 H   0  0  0  0  0  0  0  0  0  0  0  0
   58.1810   28.3620   44.2700 C   0  0  0  0  0  0  0  0  0  0  0  0
   58.1593   27.3126   44.5990 H   0  0  0  0  0  0  0  0  0  0  0  0
   57.2871   28.5753   43.6655 H   0  0  0  0  0  0  0  0  0  0  0  0
   59.0830   28.5381   43.6655 H   0  0  0  0  0  0  0  0  0  0  0  0
   59.6340   29.6870   45.8710 C   0  0  0  0  0  0  0  0  0  0  0  0
   60.2019   29.9012   44.9536 H   0  0  0  0  0  0  0  0  0  0  0  0
   60.1031   28.8604   46.4249 H   0  0  0  0  0  0  0  0  0  0  0  0
   59.6250   30.8950   46.7320 N   0  0  0  0  0  0  0  0  0  0  0  0
   58.5040   30.9230   47.6970 C   0  0  0  0  0  0  0  0  0  0  0  0
   57.5814   30.6307   47.1742 H   0  0  0  0  0  0  0  0  0  0  0  0
   58.4354   31.9445   48.0992 H   0  0  0  0  0  0  0  0  0  0  0  0
   58.7220   29.9690   48.8820 C   0  0  0  0  0  0  0  0  0  0  0  0
   58.6348   28.9291   48.5343 H   0  0  0  0  0  0  0  0  0  0  0  0
   57.9622   30.1675   49.6522 H   0  0  0  0  0  0  0  0  0  0  0  0
   60.0550   30.1810   49.4520 N   0  0  0  0  0  0  0  0  0  0  0  0
   60.2380   30.4700   50.8520 C   0  0  0  0  0  0  0  0  0  0  0  0
   61.0810   31.3460   51.1990 O   0  0  0  0  0  0  0  0  0  0  0  0
   59.4570   29.7700   51.8960 C   0  0  0  0  0  0  0  0  0  0  0  0
   60.1010   28.9630   52.8530 C   0  0  0  0  0  0  0  0  0  0  0  0
   61.1946   28.8481   52.8245 H   0  0  0  0  0  0  0  0  0  0  0  0
   59.3590   28.3070   53.8390 C   0  0  0  0  0  0  0  0  0  0  0  0
   59.8692   27.6719   54.5782 H   0  0  0  0  0  0  0  0  0  0  0  0
   57.9710   28.4560   53.8880 C   0  0  0  0  0  0  0  0  0  0  0  0
   57.3889   27.9341   54.6618 H   0  0  0  0  0  0  0  0  0  0  0  0
   57.3210   29.2690   52.9530 C   0  0  0  0  0  0  0  0  0  0  0  0
   55.8960   29.4330   53.0100 N   0  0  0  0  0  0  0  0  0  0  0  0
   55.0170   28.4830   53.3930 C   0  0  0  0  0  0  0  0  0  0  0  0
   55.3990   27.1120   53.8590 C   0  0  0  0  0  0  0  0  0  0  0  0
   55.4059   27.0872   54.9587 H   0  0  0  0  0  0  0  0  0  0  0  0
   54.6706   26.3798   53.4803 H   0  0  0  0  0  0  0  0  0  0  0  0
   56.4010   26.8620   53.4803 H   0  0  0  0  0  0  0  0  0  0  0  0
   53.7240   28.9380   53.2370 C   0  0  0  0  0  0  0  0  0  0  0  0
   52.8017   28.3745   53.4415 H   0  0  0  0  0  0  0  0  0  0  0  0
   53.8100   30.2420   52.7730 C   0  0  0  0  0  0  0  0  0  0  0  0
   52.7270   31.0220   52.5850 C   0  0  0  0  0  0  0  0  0  0  0  0
   52.3956   31.6330   53.4375 H   0  0  0  0  0  0  0  0  0  0  0  0
   51.9480   31.1290   51.3400 C   0  0  0  0  0  0  0  0  0  0  0  0
   51.9920   30.2400   50.3290 N   0  0  0  0  0  0  0  0  0  0  0  0
   51.2580   30.8330   49.3610 C   0  0  0  0  0  0  0  0  0  0  0  0
   51.0490   30.2950   48.2430 O   0  0  0  0  0  0  0  0  0  0  0  0
   50.7770   32.0530   49.6790 N   0  0  0  0  0  0  0  0  0  0  0  0
   51.2390   32.2320   50.9300 C   0  0  0  0  0  0  0  0  0  0  0  0
   51.0210   33.3810   51.6770 O   0  0  0  0  0  0  0  0  0  0  0  0
   55.1780   30.5050   52.5920 C   0  0  0  0  0  0  0  0  0  0  0  0
   55.7300   31.5590   51.9730 C   0  0  0  0  0  0  0  0  0  0  0  0
   56.8244   31.6433   51.9008 H   0  0  0  0  0  0  0  0  0  0  0  0
   55.0883   32.3391   51.5375 H   0  0  0  0  0  0  0  0  0  0  0  0
   58.0620   29.9280   51.9630 C   0  0  0  0  0  0  0  0  0  0  0  0
   57.5490   30.5727   51.2341 H   0  0  0  0  0  0  0  0  0  0  0  0
   61.1940   30.1750   48.5340 C   0  0  0  0  0  0  0  0  0  0  0  0
   61.3328   29.1624   48.1273 H   0  0  0  0  0  0  0  0  0  0  0  0
   62.1034   30.4792   49.0730 H   0  0  0  0  0  0  0  0  0  0  0  0
   60.9250   31.1550   47.3870 C   0  0  0  0  0  0  0  0  0  0  0  0
   61.7258   31.0558   46.6395 H   0  0  0  0  0  0  0  0  0  0  0  0
   60.8976   32.1714   47.8068 H   0  0  0  0  0  0  0  0  0  0  0  0
  1  2  1  0
  2  3  1  0
  3  4  1  1
  3  5  1  0
  5  6  1  0
  5  7  1  0
  5  8  1  0
  3  9  1  0
  9 10  1  0
  9 11  1  0
  9 12  1  0
 12 13  1  0
 13 14  1  0
 13 15  1  0
 13 16  1  0
 16 17  1  0
 16 18  1  0
 16 19  1  0
 19 20  1  0
 20 21  2  0
 20 22  1  0
 22 23  2  0
 23 24  1  0
 23 25  1  0
 25 26  1  0
 25 27  2  0
 27 28  1  0
 27 29  1  0
 29 30  1  0
 30 31  1  0
 31 32  1  0
 32 33  1  0
 32 34  1  0
 32 35  1  0
 31 36  2  0
 36 37  1  0
 36 38  1  0
 38 39  2  0
 39 40  1  0
 39 41  1  0
 41 42  1  0
 42 43  1  0
 43 44  2  0
 43 45  1  0
 45 46  1  0
 46 47  1  0
 38 48  1  0
 48 49  2  0
 49 50  1  0
 49 51  1  0
 29 52  2  0
 52 53  1  0
 19 54  1  0
 54 55  1  0
 54 56  1  0
 54 57  1  0
 57 58  1  0
 57 59  1  0
 57 12  1  0
 52 22  1  0
 48 30  1  0
 46 41  2  0
M  CHG  3  42  -1  45  -1  47  -1
M  END
>  <UniqueID>  (75) 
70

>  <SMILES>  (75) 
C=c1/c(=C\c2[n-]c(=O)[n-]c2[O-])cc(C)n1-c1cccc(C(=O)N2CCN(C[C@H](C)O)CC2)c1

>  <Energy>  (75) 
143.3180557544909

>  <Genealogy>  (75) 
C=c1c(=Cc2[n-]c(=O)[n-]c2[O-])cc(C)n1-c1cccc(C(=O)N2CCN(CC(C)O)CC2)c1 (protonated)
C=c1c(=Cc2[n-]c(=O)[n-]c2[O-])cc(C)n1-c1cccc(C(=O)N2CCN(C[C@H](C)O)CC2)c1 (chirality)
C=c1/c(=C\c2[n-]c(=O)[n-]c2[O-])cc(C)n1-c1cccc(C(=O)N2CCN(C[C@H](C)O)CC2)c1 (cis-trans isomerization)
C=c1/c(=C\c2[n-]c(=O)[n-]c2[O-])cc(C)n1-c1cccc(C(=O)N2CCN(C[C@H](C)O)CC2)c1 (3D coordinates assigned)
C=c1/c(=C\c2[n-]c(=O)[n-]c2[O-])cc(C)n1-c1cccc(C(=O)N2CCN(C[C@H](C)O)CC2)c1 (nonaromatic ring conformer: 143.3180557544909 kcal/mol)

>  <smiles>  (75) 
C=c1c(=Cc2[nH]c(=O)[nH]c2O)cc(C)n1-c1cccc(C(=O)N2CCN(CC(C)O)CC2)c1

>  <score_type>  (75) 
oracle

>  <origin>  (75) 
adg

>  <m_score__min__energy>  (75) 
-17.32

>  <m_primary>  (75) 
energy

$$$$
75:0
     RDKit          3D

 51 54  0  0  1  0  0  0  0  0999 V2000
   56.1890   30.5510   44.6930 O   0  0  0  0  0  0  0  0  0  0  0  0
   57.4330   30.5940   44.9280 C   0  0  0  0  0  0  0  0  0  0  0  0
   58.1010   29.3550   44.9440 N   0  0  0  0  0  0  0  0  0  0  0  0
   57.3810   28.0960   44.6970 C   0  0  1  0  0  0  0  0  0  0  0  0
   58.4150   27.0740   44.3580 C   0  0  0  0  0  0  0  0  0  0  0  0
   57.7660   25.7120   44.4790 C   0  0  0  0  0  0  0  0  0  0  0  0
   56.8670   25.9370   46.0190 S   0  0  0  0  0  0  0  0  0  0  0  0
   57.6880   25.5180   47.1980 O   0  0  0  0  0  0  0  0  0  0  0  0
   55.5250   25.2700   45.9600 O   0  0  0  0  0  0  0  0  0  0  0  0
   56.7300   27.7110   46.0000 C   0  0  0  0  0  0  0  0  0  0  0  0
   58.0590   31.8860   45.1560 C   0  0  0  0  0  0  0  0  0  0  0  0
   58.5370   32.1730   46.4110 C   0  0  0  0  0  0  0  0  0  0  0  0
   59.1570   33.3790   46.7420 C   0  0  0  0  0  0  0  0  0  0  0  0
   59.5910   33.5180   48.1500 C   0  0  0  0  0  0  0  0  0  0  0  0
   59.1910   32.4430   49.0450 C   0  0  0  0  0  0  0  0  0  0  0  0
   58.1810   32.7160   49.9260 N   0  0  0  0  0  0  0  0  0  0  0  0
   57.7330   31.7960   50.7520 N   0  0  0  0  0  0  0  0  0  0  0  0
   58.1940   30.5410   50.8220 C   0  0  0  0  0  0  0  0  0  0  0  0
   57.7230   29.6970   51.6370 O   0  0  0  0  0  0  0  0  0  0  0  0
   59.2130   30.1950   49.9630 C   0  0  0  0  0  0  0  0  0  0  0  0
   59.6920   31.1690   49.0860 C   0  0  0  0  0  0  0  0  0  0  0  0
   60.8110   30.7480   48.2080 C   0  0  0  0  0  0  0  0  0  0  0  0
   60.3540   29.4110   47.6190 C   0  0  0  0  0  0  0  0  0  0  0  0
   60.4890   28.4120   48.7520 C   0  0  0  0  0  0  0  0  0  0  0  0
   59.7560   28.8140   49.9940 C   0  0  0  0  0  0  0  0  0  0  0  0
   59.2850   34.3040   45.7660 C   0  0  0  0  0  0  0  0  0  0  0  0
   58.8260   34.0720   44.4930 C   0  0  0  0  0  0  0  0  0  0  0  0
   58.2110   32.8580   44.1930 C   0  0  0  0  0  0  0  0  0  0  0  0
   57.7840   32.6930   42.9410 F   0  0  0  0  0  0  0  0  0  0  0  0
   59.1110   29.2600   45.1280 H   0  0  0  0  0  0  0  0  0  0  0  0
   56.6337   28.1801   43.8942 H   0  0  0  0  0  0  0  0  0  0  0  0
   58.7733   27.2292   43.3296 H   0  0  0  0  0  0  0  0  0  0  0  0
   59.2762   27.1543   45.0376 H   0  0  0  0  0  0  0  0  0  0  0  0
   57.0893   25.5051   43.6368 H   0  0  0  0  0  0  0  0  0  0  0  0
   58.4636   24.8616   44.4676 H   0  0  0  0  0  0  0  0  0  0  0  0
   55.6760   28.0249   46.0215 H   0  0  0  0  0  0  0  0  0  0  0  0
   57.1997   28.1880   46.8728 H   0  0  0  0  0  0  0  0  0  0  0  0
   58.4253   31.4119   47.1973 H   0  0  0  0  0  0  0  0  0  0  0  0
   60.6895   33.5748   48.1605 H   0  0  0  0  0  0  0  0  0  0  0  0
   59.0926   34.4227   48.5283 H   0  0  0  0  0  0  0  0  0  0  0  0
   56.9560   32.0460   51.4110 H   0  0  0  0  0  0  0  0  0  0  0  0
   60.9789   31.4870   47.4107 H   0  0  0  0  0  0  0  0  0  0  0  0
   61.7616   30.6611   48.7546 H   0  0  0  0  0  0  0  0  0  0  0  0
   59.3085   29.4745   47.2829 H   0  0  0  0  0  0  0  0  0  0  0  0
   60.9515   29.1219   46.7418 H   0  0  0  0  0  0  0  0  0  0  0  0
   60.0924   27.4441   48.4117 H   0  0  0  0  0  0  0  0  0  0  0  0
   61.5570   28.3582   49.0100 H   0  0  0  0  0  0  0  0  0  0  0  0
   58.9173   28.1173   50.1398 H   0  0  0  0  0  0  0  0  0  0  0  0
   60.4868   28.7813   50.8155 H   0  0  0  0  0  0  0  0  0  0  0  0
   59.7680   35.2651   45.9964 H   0  0  0  0  0  0  0  0  0  0  0  0
   58.9430   34.8401   43.7143 H   0  0  0  0  0  0  0  0  0  0  0  0
  1  2  2  0
  2  3  1  0
  3  4  1  0
  4  5  1  0
  5  6  1  0
  6  7  1  0
  7  8  2  0
  7  9  2  0
  7 10  1  0
  2 11  1  0
 11 12  2  0
 12 13  1  0
 13 14  1  0
 14 15  1  0
 15 16  2  0
 16 17  1  0
 17 18  1  0
 18 19  2  0
 18 20  1  0
 20 21  2  0
 21 22  1  0
 22 23  1  0
 23 24  1  0
 24 25  1  0
 13 26  2  0
 26 27  1  0
 27 28  2  0
 28 29  1  0
 10  4  1  0
 28 11  1  0
 21 15  1  0
 25 20  1  0
  3 30  1  0
  4 31  1  6
  5 32  1  0
  5 33  1  0
  6 34  1  0
  6 35  1  0
 10 36  1  0
 10 37  1  0
 12 38  1  0
 14 39  1  0
 14 40  1  0
 17 41  1  0
 22 42  1  0
 22 43  1  0
 23 44  1  0
 23 45  1  0
 24 46  1  0
 24 47  1  0
 25 48  1  0
 25 49  1  0
 26 50  1  0
 27 51  1  0
M  END
>  <smiles>  (76) 
O=C(NC1CCS(=O)(=O)C1)c1cc(Cc2n[nH]c(=O)c3c2CCCC3)ccc1F

>  <score_type>  (76) 
oracle

>  <origin>  (76) 
adg

>  <m_score__min__energy>  (76) 
-10.24

>  <m_primary>  (76) 
energy

$$$$
76:0
     RDKit          3D

 50 54  0  0  0  0  0  0  0  0999 V2000
   66.2980   32.9970   50.5060 C   0  0  0  0  0  0  0  0  0  0  0  0
   65.1640   33.8540   50.4430 O   0  0  0  0  0  0  0  0  0  0  0  0
   64.0290   33.6090   49.6550 C   0  0  0  0  0  0  0  0  0  0  0  0
   62.7830   34.2050   49.9200 C   0  0  0  0  0  0  0  0  0  0  0  0
   61.6800   33.9330   49.1040 C   0  0  0  0  0  0  0  0  0  0  0  0
   61.8010   33.0610   48.0050 C   0  0  0  0  0  0  0  0  0  0  0  0
   60.6440   32.7560   47.1220 C   0  0  0  0  0  0  0  0  0  0  0  0
   59.9660   33.7050   46.3500 C   0  0  0  0  0  0  0  0  0  0  0  0
   58.7450   32.9140   45.5080 S   0  0  0  0  0  0  0  0  0  0  0  0
   59.1170   31.4050   46.1480 C   0  0  0  0  0  0  0  0  0  0  0  0
   58.4250   30.1410   45.8480 C   0  0  0  0  0  0  0  0  0  0  0  0
   58.9830   28.6180   46.2960 S   0  0  0  0  0  0  0  0  0  0  0  0
   57.6770   27.8090   45.5980 C   0  0  0  0  0  0  0  0  0  0  0  0
   57.4790   26.3790   45.5850 N   0  0  0  0  0  0  0  0  0  0  0  0
   57.2310   25.6920   46.8610 C   0  0  0  0  0  0  0  0  0  0  0  0
   56.8320   24.2220   46.6530 C   0  0  0  0  0  0  0  0  0  0  0  0
   55.8890   24.0440   45.4380 C   0  0  0  0  0  0  0  0  0  0  0  0
   56.5450   24.5860   44.1290 C   0  0  0  0  0  0  0  0  0  0  0  0
   57.6950   25.5840   44.3680 C   0  0  0  0  0  0  0  0  0  0  0  0
   55.4720   22.5480   45.2970 C   0  0  0  0  0  0  0  0  0  0  0  0
   54.0260   22.5420   45.6520 C   0  0  0  0  0  0  0  0  0  0  0  0
   53.3360   21.4930   45.7380 O   0  0  0  0  0  0  0  0  0  0  0  0
   53.4750   23.8260   45.8630 N   0  0  0  0  0  0  0  0  0  0  0  0
   54.5610   24.7180   45.6990 C   0  0  0  0  0  0  0  0  0  0  0  0
   54.4030   25.9660   45.7510 O   0  0  0  0  0  0  0  0  0  0  0  0
   56.8150   28.6780   45.0210 N   0  0  0  0  0  0  0  0  0  0  0  0
   57.2250   29.9680   45.1580 C   0  0  0  0  0  0  0  0  0  0  0  0
   56.4840   31.0240   44.6380 O   0  0  0  0  0  0  0  0  0  0  0  0
   60.1630   31.4860   46.9980 N   0  0  0  0  0  0  0  0  0  0  0  0
   63.0490   32.4630   47.7520 C   0  0  0  0  0  0  0  0  0  0  0  0
   64.1490   32.7380   48.5690 C   0  0  0  0  0  0  0  0  0  0  0  0
   66.5536   32.8038   51.5583 H   0  0  0  0  0  0  0  0  0  0  0  0
   66.0670   32.0458   50.0042 H   0  0  0  0  0  0  0  0  0  0  0  0
   67.1501   33.4788   50.0042 H   0  0  0  0  0  0  0  0  0  0  0  0
   62.6752   34.8894   50.7744 H   0  0  0  0  0  0  0  0  0  0  0  0
   60.7103   34.4040   49.3225 H   0  0  0  0  0  0  0  0  0  0  0  0
   60.1922   34.7804   46.3022 H   0  0  0  0  0  0  0  0  0  0  0  0
   58.1471   25.7292   47.4687 H   0  0  0  0  0  0  0  0  0  0  0  0
   56.3983   26.2028   47.3668 H   0  0  0  0  0  0  0  0  0  0  0  0
   57.7421   23.6270   46.4865 H   0  0  0  0  0  0  0  0  0  0  0  0
   56.2955   23.8848   47.5521 H   0  0  0  0  0  0  0  0  0  0  0  0
   56.9418   23.7311   43.5618 H   0  0  0  0  0  0  0  0  0  0  0  0
   55.7606   25.1307   43.5831 H   0  0  0  0  0  0  0  0  0  0  0  0
   58.6370   25.0251   44.4695 H   0  0  0  0  0  0  0  0  0  0  0  0
   57.7361   26.2723   43.5109 H   0  0  0  0  0  0  0  0  0  0  0  0
   55.6229   22.1956   44.2660 H   0  0  0  0  0  0  0  0  0  0  0  0
   56.0677   21.8804   45.9368 H   0  0  0  0  0  0  0  0  0  0  0  0
   55.9020   31.5940   45.2390 H   0  0  0  0  0  0  0  0  0  0  0  0
   63.1601   31.7724   46.9030 H   0  0  0  0  0  0  0  0  0  0  0  0
   65.1185   32.2643   48.3551 H   0  0  0  0  0  0  0  0  0  0  0  0
  1  2  1  0
  2  3  1  0
  3  4  2  0
  4  5  1  0
  5  6  2  0
  6  7  1  0
  7  8  2  0
  8  9  1  0
  9 10  1  0
 10 11  1  0
 11 12  1  0
 12 13  1  0
 13 14  1  0
 14 15  1  0
 15 16  1  0
 16 17  1  0
 17 18  1  0
 18 19  1  0
 17 20  1  0
 20 21  1  0
 21 22  2  0
 21 23  1  0
 23 24  1  0
 24 25  2  0
 13 26  2  0
 26 27  1  0
 27 28  1  0
 10 29  2  0
  6 30  1  0
 30 31  2  0
 31  3  1  0
 29  7  1  0
 27 11  2  0
 19 14  1  0
 24 17  1  0
  1 32  1  0
  1 33  1  0
  1 34  1  0
  4 35  1  0
  5 36  1  0
  8 37  1  0
 15 38  1  0
 15 39  1  0
 16 40  1  0
 16 41  1  0
 18 42  1  0
 18 43  1  0
 19 44  1  0
 19 45  1  0
 20 46  1  0
 20 47  1  0
 28 48  1  0
 30 49  1  0
 31 50  1  0
M  CHG  1  23  -1
M  END
>  <UniqueID>  (77) 
71

>  <SMILES>  (77) 
COc1ccc(-c2csc(-c3sc(N4CCC5(CC4)CC(=O)[N-]C5=O)nc3O)n2)cc1

>  <Energy>  (77) 
133.11463443057247

>  <Genealogy>  (77) 
COc1ccc(-c2csc(-c3sc(N4CCC5(CC4)CC(=O)[N-]C5=O)nc3O)n2)cc1 (protonated)
COc1ccc(-c2csc(-c3sc(N4CCC5(CC4)CC(=O)[N-]C5=O)nc3O)n2)cc1 (3D coordinates assigned)
COc1ccc(-c2csc(-c3sc(N4CCC5(CC4)CC(=O)[N-]C5=O)nc3O)n2)cc1 (nonaromatic ring conformer: 133.11463443057247 kcal/mol)

>  <smiles>  (77) 
COc1ccc(-c2csc(-c3sc(N4CCC5(CC4)CC(=O)NC5=O)nc3O)n2)cc1

>  <score_type>  (77) 
oracle

>  <origin>  (77) 
adg

>  <m_score__min__energy>  (77) 
-11.06

>  <m_primary>  (77) 
energy

$$$$
77:0
     RDKit          3D

 50 53  0  0  0  0  0  0  0  0999 V2000
   56.4890   29.3820   42.6290 N   0  0  0  0  0  0  0  0  0  0  0  0
   56.5310   29.7440   44.3170 S   0  0  0  0  0  0  0  0  0  0  0  0
   55.1690   29.5180   44.9120 O   0  0  0  0  0  0  0  0  0  0  0  0
   56.9130   31.1840   44.5180 O   0  0  0  0  0  0  0  0  0  0  0  0
   57.7110   28.7040   45.1090 C   0  0  0  0  0  0  0  0  0  0  0  0
   57.9750   27.4230   44.6060 C   0  0  0  0  0  0  0  0  0  0  0  0
   58.9190   26.6070   45.2300 C   0  0  0  0  0  0  0  0  0  0  0  0
   59.6080   27.0640   46.3560 C   0  0  0  0  0  0  0  0  0  0  0  0
   59.3630   28.3490   46.8700 C   0  0  0  0  0  0  0  0  0  0  0  0
   60.1040   28.8220   48.0630 C   0  0  0  0  0  0  0  0  0  0  0  0
   60.0920   30.0870   48.6210 C   0  0  0  0  0  0  0  0  0  0  0  0
   60.9090   30.0320   49.6860 N   0  0  0  0  0  0  0  0  0  0  0  0
   61.2050   31.1160   50.6190 C   0  0  0  0  0  0  0  0  0  0  0  0
   62.3270   31.9430   50.1230 N   0  0  0  0  0  0  0  0  0  0  0  0
   62.6830   31.6090   48.7190 C   0  0  0  0  0  0  0  0  0  0  0  0
   62.1720   32.6230   47.6730 C   0  0  0  0  0  0  0  0  0  0  0  0
   60.9630   33.3030   48.1440 N   0  0  0  0  0  0  0  0  0  0  0  0
   59.8930   33.5790   47.2270 C   0  0  0  0  0  0  0  0  0  0  0  0
   60.1610   34.2470   46.0200 C   0  0  0  0  0  0  0  0  0  0  0  0
   59.1290   34.5160   45.1180 C   0  0  0  0  0  0  0  0  0  0  0  0
   57.8210   34.1230   45.4120 C   0  0  0  0  0  0  0  0  0  0  0  0
   57.5430   33.4600   46.6100 C   0  0  0  0  0  0  0  0  0  0  0  0
   58.5720   33.1870   47.5200 C   0  0  0  0  0  0  0  0  0  0  0  0
   58.1700   32.3860   49.0330 Cl  0  0  0  0  0  0  0  0  0  0  0  0
   60.9560   33.9250   49.4710 C   0  0  0  0  0  0  0  0  0  0  0  0
   62.1150   33.3930   50.3260 C   0  0  0  0  0  0  0  0  0  0  0  0
   61.3970   28.8070   49.7830 N   0  0  0  0  0  0  0  0  0  0  0  0
   60.9250   28.0480   48.8060 N   0  0  0  0  0  0  0  0  0  0  0  0
   58.4080   29.1650   46.2330 C   0  0  0  0  0  0  0  0  0  0  0  0
   56.3470   28.3500   42.5420 H   0  0  0  0  0  0  0  0  0  0  0  0
   57.4390   29.5870   42.2470 H   0  0  0  0  0  0  0  0  0  0  0  0
   57.4371   27.0602   43.7177 H   0  0  0  0  0  0  0  0  0  0  0  0
   59.1214   25.6008   44.8342 H   0  0  0  0  0  0  0  0  0  0  0  0
   60.3482   26.4130   46.8442 H   0  0  0  0  0  0  0  0  0  0  0  0
   59.5277   30.9615   48.2649 H   0  0  0  0  0  0  0  0  0  0  0  0
   60.3124   31.7490   50.7316 H   0  0  0  0  0  0  0  0  0  0  0  0
   61.4893   30.6800   51.5881 H   0  0  0  0  0  0  0  0  0  0  0  0
   63.7794   31.5606   48.6443 H   0  0  0  0  0  0  0  0  0  0  0  0
   62.1949   30.6499   48.4910 H   0  0  0  0  0  0  0  0  0  0  0  0
   62.9557   33.3720   47.4861 H   0  0  0  0  0  0  0  0  0  0  0  0
   61.9288   32.0786   46.7486 H   0  0  0  0  0  0  0  0  0  0  0  0
   61.1890   34.5597   45.7843 H   0  0  0  0  0  0  0  0  0  0  0  0
   59.3465   35.0382   44.1746 H   0  0  0  0  0  0  0  0  0  0  0  0
   57.0098   34.3356   44.7001 H   0  0  0  0  0  0  0  0  0  0  0  0
   56.5124   33.1514   46.8393 H   0  0  0  0  0  0  0  0  0  0  0  0
   61.0599   35.0144   49.3597 H   0  0  0  0  0  0  0  0  0  0  0  0
   60.0069   33.6811   49.9708 H   0  0  0  0  0  0  0  0  0  0  0  0
   63.0354   33.9293   50.0515 H   0  0  0  0  0  0  0  0  0  0  0  0
   61.8626   33.5568   51.3840 H   0  0  0  0  0  0  0  0  0  0  0  0
   58.2076   30.1742   46.6220 H   0  0  0  0  0  0  0  0  0  0  0  0
  1  2  1  0
  2  3  2  0
  2  4  2  0
  2  5  1  0
  5  6  2  0
  6  7  1  0
  7  8  2  0
  8  9  1  0
  9 10  1  0
 10 11  2  0
 11 12  1  0
 12 13  1  0
 13 14  1  0
 14 15  1  0
 15 16  1  0
 16 17  1  0
 17 18  1  0
 18 19  2  0
 19 20  1  0
 20 21  2  0
 21 22  1  0
 22 23  2  0
 23 24  1  0
 17 25  1  0
 25 26  1  0
 12 27  1  0
 27 28  2  0
  9 29  2  0
 29  5  1  0
 28 10  1  0
 26 14  1  0
 23 18  1  0
  1 30  1  0
  1 31  1  0
  6 32  1  0
  7 33  1  0
  8 34  1  0
 11 35  1  0
 13 36  1  0
 13 37  1  0
 15 38  1  0
 15 39  1  0
 16 40  1  0
 16 41  1  0
 19 42  1  0
 20 43  1  0
 21 44  1  0
 22 45  1  0
 25 46  1  0
 25 47  1  0
 26 48  1  0
 26 49  1  0
 29 50  1  0
M  END
>  <UniqueID>  (78) 
72

>  <SMILES>  (78) 
NS(=O)(=O)c1cccc(-c2cn(CN3CCN(c4ccccc4Cl)CC3)nn2)c1

>  <Energy>  (78) 
100.94239984914266

>  <Genealogy>  (78) 
NS(=O)(=O)c1cccc(-c2cn(CN3CCN(c4ccccc4Cl)CC3)nn2)c1 (3D coordinates assigned)
NS(=O)(=O)c1cccc(-c2cn(CN3CCN(c4ccccc4Cl)CC3)nn2)c1 (nonaromatic ring conformer: 100.94239984914266 kcal/mol)

>  <smiles>  (78) 
NS(=O)(=O)c1cccc(-c2cn(CN3CCN(c4ccccc4Cl)CC3)nn2)c1

>  <score_type>  (78) 
oracle

>  <origin>  (78) 
adg

>  <m_score__min__energy>  (78) 
-10.470000000000001

>  <m_primary>  (78) 
energy

$$$$
78:0
     RDKit          3D

 63 66  0  0  0  0  0  0  0  0999 V2000
   57.7560   25.9740   43.1910 C   0  0  0  0  0  0  0  0  0  0  0  0
   57.7800   26.1920   44.6780 C   0  0  0  0  0  0  0  0  0  0  0  0
   58.3630   27.3580   45.2010 C   0  0  0  0  0  0  0  0  0  0  0  0
   58.4070   27.5830   46.5860 C   0  0  0  0  0  0  0  0  0  0  0  0
   58.9790   28.8050   47.0850 N   0  0  0  0  0  0  0  0  0  0  0  0
   60.2950   29.2670   46.7410 C   0  0  0  0  0  0  0  0  0  0  0  0
   60.8070   28.9270   45.6380 O   0  0  0  0  0  0  0  0  0  0  0  0
   61.0410   30.1780   47.6430 C   0  0  0  0  0  0  0  0  0  0  0  0
   61.0980   29.9340   49.0260 C   0  0  0  0  0  0  0  0  0  0  0  0
   61.8150   30.7880   49.8690 C   0  0  0  0  0  0  0  0  0  0  0  0
   62.4910   31.9040   49.3480 C   0  0  0  0  0  0  0  0  0  0  0  0
   63.2600   32.8020   50.2420 C   0  0  0  0  0  0  0  0  0  0  0  0
   62.8530   34.1370   50.4010 C   0  0  0  0  0  0  0  0  0  0  0  0
   63.5680   34.9980   51.2320 C   0  0  0  0  0  0  0  0  0  0  0  0
   64.7070   34.5450   51.8980 C   0  0  0  0  0  0  0  0  0  0  0  0
   65.1480   33.2260   51.7380 C   0  0  0  0  0  0  0  0  0  0  0  0
   66.3370   32.8260   52.4350 N   0  0  0  0  0  0  0  0  0  0  0  0
   67.8500   32.3960   51.7000 S   0  0  0  0  0  0  0  0  0  0  0  0
   69.2130   32.9050   52.7310 C   0  0  0  0  0  0  0  0  0  0  0  0
   67.9640   33.0180   50.3360 O   0  0  0  0  0  0  0  0  0  0  0  0
   67.9040   30.9020   51.5580 O   0  0  0  0  0  0  0  0  0  0  0  0
   64.3950   32.3380   50.9410 C   0  0  0  0  0  0  0  0  0  0  0  0
   64.7320   30.9900   50.8800 O   0  0  0  0  0  0  0  0  0  0  0  0
   62.4500   32.1400   47.9640 C   0  0  0  0  0  0  0  0  0  0  0  0
   61.7320   31.2870   47.1200 C   0  0  0  0  0  0  0  0  0  0  0  0
   57.8370   26.6350   47.4520 C   0  0  0  0  0  0  0  0  0  0  0  0
   57.2650   25.4690   46.9420 C   0  0  0  0  0  0  0  0  0  0  0  0
   57.2440   25.2300   45.5610 C   0  0  0  0  0  0  0  0  0  0  0  0
   56.6680   24.0120   45.0700 N   0  0  0  0  0  0  0  0  0  0  0  0
   55.5330   24.0460   44.1470 C   0  0  0  0  0  0  0  0  0  0  0  0
   55.7940   23.0680   42.9950 C   0  0  0  0  0  0  0  0  0  0  0  0
   56.1660   21.7000   43.4470 N   0  0  0  0  0  0  0  0  0  0  0  0
   57.2860   21.1630   42.6560 C   0  0  0  0  0  0  0  0  0  0  0  0
   56.4150   21.5620   44.9020 C   0  0  0  0  0  0  0  0  0  0  0  0
   57.2440   22.7250   45.4700 C   0  0  0  0  0  0  0  0  0  0  0  0
   57.6379   24.9010   42.9796 H   0  0  0  0  0  0  0  0  0  0  0  0
   56.9135   26.5290   42.7526 H   0  0  0  0  0  0  0  0  0  0  0  0
   58.6990   26.3325   42.7526 H   0  0  0  0  0  0  0  0  0  0  0  0
   58.7909   28.1049   44.5161 H   0  0  0  0  0  0  0  0  0  0  0  0
   58.3750   29.4290   47.6660 H   0  0  0  0  0  0  0  0  0  0  0  0
   60.5741   29.0639   49.4485 H   0  0  0  0  0  0  0  0  0  0  0  0
   61.8502   30.5845   50.9494 H   0  0  0  0  0  0  0  0  0  0  0  0
   61.9648   34.5052   49.8666 H   0  0  0  0  0  0  0  0  0  0  0  0
   63.2332   36.0376   51.3630 H   0  0  0  0  0  0  0  0  0  0  0  0
   65.2634   35.2301   52.5545 H   0  0  0  0  0  0  0  0  0  0  0  0
   68.9315   32.7999   53.7892 H   0  0  0  0  0  0  0  0  0  0  0  0
   70.0883   32.2732   52.5199 H   0  0  0  0  0  0  0  0  0  0  0  0
   69.4599   33.9559   52.5199 H   0  0  0  0  0  0  0  0  0  0  0  0
   62.9866   33.0021   47.5410 H   0  0  0  0  0  0  0  0  0  0  0  0
   61.7070   31.4844   46.0382 H   0  0  0  0  0  0  0  0  0  0  0  0
   57.8417   26.8128   48.5375 H   0  0  0  0  0  0  0  0  0  0  0  0
   56.8267   24.7308   47.6297 H   0  0  0  0  0  0  0  0  0  0  0  0
   54.6164   23.7520   44.6793 H   0  0  0  0  0  0  0  0  0  0  0  0
   55.4096   25.0638   43.7485 H   0  0  0  0  0  0  0  0  0  0  0  0
   54.8808   22.9966   42.3859 H   0  0  0  0  0  0  0  0  0  0  0  0
   56.6479   23.4623   42.4246 H   0  0  0  0  0  0  0  0  0  0  0  0
   58.0672   20.7884   43.3338 H   0  0  0  0  0  0  0  0  0  0  0  0
   56.9254   20.3398   42.0217 H   0  0  0  0  0  0  0  0  0  0  0  0
   57.7020   21.9596   42.0217 H   0  0  0  0  0  0  0  0  0  0  0  0
   55.4473   21.5305   45.4241 H   0  0  0  0  0  0  0  0  0  0  0  0
   56.9882   20.6360   45.0567 H   0  0  0  0  0  0  0  0  0  0  0  0
   57.2545   22.6592   46.5680 H   0  0  0  0  0  0  0  0  0  0  0  0
   58.2684   22.6566   45.0751 H   0  0  0  0  0  0  0  0  0  0  0  0
  1  2  1  0
  2  3  2  0
  3  4  1  0
  4  5  1  0
  5  6  1  0
  6  7  2  0
  6  8  1  0
  8  9  2  0
  9 10  1  0
 10 11  2  0
 11 12  1  0
 12 13  2  0
 13 14  1  0
 14 15  2  0
 15 16  1  0
 16 17  1  0
 17 18  1  0
 18 19  1  0
 18 20  2  0
 18 21  2  0
 16 22  2  0
 22 23  1  0
 11 24  1  0
 24 25  2  0
  4 26  2  0
 26 27  1  0
 27 28  2  0
 28 29  1  0
 29 30  1  0
 30 31  1  0
 31 32  1  0
 32 33  1  0
 32 34  1  0
 34 35  1  0
 28  2  1  0
 35 29  1  0
 25  8  1  0
 22 12  1  0
  1 36  1  0
  1 37  1  0
  1 38  1  0
  3 39  1  0
  5 40  1  0
  9 41  1  0
 10 42  1  0
 13 43  1  0
 14 44  1  0
 15 45  1  0
 19 46  1  0
 19 47  1  0
 19 48  1  0
 24 49  1  0
 25 50  1  0
 26 51  1  0
 27 52  1  0
 30 53  1  0
 30 54  1  0
 31 55  1  0
 31 56  1  0
 33 57  1  0
 33 58  1  0
 33 59  1  0
 34 60  1  0
 34 61  1  0
 35 62  1  0
 35 63  1  0
M  CHG  2  17  -1  23  -1
M  END
>  <UniqueID>  (79) 
73

>  <SMILES>  (79) 
Cc1cc(NC(=O)c2ccc(-c3cccc([N-]S(C)(=O)=O)c3[O-])cc2)ccc1N1CCN(C)CC1

>  <Energy>  (79) 
93.25046194928514

>  <Genealogy>  (79) 
Cc1cc(NC(=O)c2ccc(-c3cccc([N-]S(C)(=O)=O)c3[O-])cc2)ccc1N1CCN(C)CC1 (protonated)
Cc1cc(NC(=O)c2ccc(-c3cccc([N-]S(C)(=O)=O)c3[O-])cc2)ccc1N1CCN(C)CC1 (3D coordinates assigned)
Cc1cc(NC(=O)c2ccc(-c3cccc([N-]S(C)(=O)=O)c3[O-])cc2)ccc1N1CCN(C)CC1 (nonaromatic ring conformer: 93.25046194928514 kcal/mol)

>  <smiles>  (79) 
Cc1cc(NC(=O)c2ccc(-c3cccc(NS(C)(=O)=O)c3O)cc2)ccc1N1CCN(C)CC1

>  <score_type>  (79) 
oracle

>  <origin>  (79) 
adg

>  <m_score__min__energy>  (79) 
-13.57

>  <m_primary>  (79) 
energy

$$$$
79:0
     RDKit          3D

 56 59  0  0  0  0  0  0  0  0999 V2000
   59.0170   31.4630   49.7150 C   0  0  0  0  0  0  0  0  0  0  0  0
   58.6640   32.1060   48.3750 C   0  0  0  0  0  0  0  0  0  0  0  0
   58.1680   31.1300   47.4590 O   0  0  0  0  0  0  0  0  0  0  0  0
   58.9510   30.3110   46.6260 C   0  0  0  0  0  0  0  0  0  0  0  0
   60.3600   30.2830   46.7110 C   0  0  0  0  0  0  0  0  0  0  0  0
   61.0990   29.4160   45.9030 C   0  0  0  0  0  0  0  0  0  0  0  0
   60.4480   28.5680   45.0050 C   0  0  0  0  0  0  0  0  0  0  0  0
   59.0560   28.5830   44.9140 C   0  0  0  0  0  0  0  0  0  0  0  0
   58.3040   29.4640   45.7020 C   0  0  0  0  0  0  0  0  0  0  0  0
   56.8750   29.4230   45.5970 N   0  0  0  0  0  0  0  0  0  0  0  0
   56.1150   29.8910   44.4780 C   0  0  0  0  0  0  0  0  0  0  0  0
   55.0030   29.3640   44.2060 O   0  0  0  0  0  0  0  0  0  0  0  0
   56.6400   30.9980   43.5960 C   0  0  0  0  0  0  0  0  0  0  0  0
   57.4220   32.0400   44.3020 N   0  0  0  0  0  0  0  0  0  0  0  0
   58.1290   32.9750   43.4060 C   0  0  0  0  0  0  0  0  0  0  0  0
   59.1520   33.8060   44.2070 C   0  0  0  0  0  0  0  0  0  0  0  0
   58.8350   33.8500   45.6590 N   0  0  0  0  0  0  0  0  0  0  0  0
   59.5480   34.9570   46.3300 C   0  0  0  0  0  0  0  0  0  0  0  0
   60.7480   34.4500   47.0710 C   0  0  0  0  0  0  0  0  0  0  0  0
   61.8380   34.0170   46.3810 N   0  0  0  0  0  0  0  0  0  0  0  0
   62.9310   33.5250   47.0190 C   0  0  0  0  0  0  0  0  0  0  0  0
   63.9180   33.1350   46.3400 O   0  0  0  0  0  0  0  0  0  0  0  0
   62.9440   33.4550   48.4220 C   0  0  0  0  0  0  0  0  0  0  0  0
   64.0450   32.9590   49.1440 C   0  0  0  0  0  0  0  0  0  0  0  0
   64.0020   32.9150   50.5430 C   0  0  0  0  0  0  0  0  0  0  0  0
   62.8660   33.3580   51.2270 C   0  0  0  0  0  0  0  0  0  0  0  0
   61.7660   33.8490   50.5180 C   0  0  0  0  0  0  0  0  0  0  0  0
   61.7990   33.9020   49.1180 C   0  0  0  0  0  0  0  0  0  0  0  0
   60.7320   34.3820   48.4280 N   0  0  0  0  0  0  0  0  0  0  0  0
   57.3810   33.9860   45.8680 C   0  0  0  0  0  0  0  0  0  0  0  0
   56.6540   32.7300   45.3600 C   0  0  0  0  0  0  0  0  0  0  0  0
   58.6639   32.1061   50.5346 H   0  0  0  0  0  0  0  0  0  0  0  0
   58.5333   30.4777   49.7876 H   0  0  0  0  0  0  0  0  0  0  0  0
   60.1079   31.3422   49.7876 H   0  0  0  0  0  0  0  0  0  0  0  0
   57.8933   32.8742   48.5356 H   0  0  0  0  0  0  0  0  0  0  0  0
   59.5727   32.5578   47.9507 H   0  0  0  0  0  0  0  0  0  0  0  0
   60.8786   30.9477   47.4175 H   0  0  0  0  0  0  0  0  0  0  0  0
   62.1966   29.4012   45.9743 H   0  0  0  0  0  0  0  0  0  0  0  0
   61.0331   27.8876   44.3688 H   0  0  0  0  0  0  0  0  0  0  0  0
   58.5460   27.8992   44.2196 H   0  0  0  0  0  0  0  0  0  0  0  0
   57.2865   30.5464   42.8291 H   0  0  0  0  0  0  0  0  0  0  0  0
   55.7575   31.5045   43.1781 H   0  0  0  0  0  0  0  0  0  0  0  0
   58.6547   32.4043   42.6263 H   0  0  0  0  0  0  0  0  0  0  0  0
   57.3969   33.6537   42.9440 H   0  0  0  0  0  0  0  0  0  0  0  0
   60.1489   33.3598   44.0766 H   0  0  0  0  0  0  0  0  0  0  0  0
   59.1184   34.8371   43.8253 H   0  0  0  0  0  0  0  0  0  0  0  0
   59.8736   35.6863   45.5737 H   0  0  0  0  0  0  0  0  0  0  0  0
   58.8642   35.4294   47.0506 H   0  0  0  0  0  0  0  0  0  0  0  0
   64.9393   32.6059   48.6097 H   0  0  0  0  0  0  0  0  0  0  0  0
   64.8653   32.5304   51.1059 H   0  0  0  0  0  0  0  0  0  0  0  0
   62.8378   33.3201   52.3260 H   0  0  0  0  0  0  0  0  0  0  0  0
   60.8731   34.1943   51.0598 H   0  0  0  0  0  0  0  0  0  0  0  0
   57.1783   34.1145   46.9415 H   0  0  0  0  0  0  0  0  0  0  0  0
   57.0178   34.8621   45.3108 H   0  0  0  0  0  0  0  0  0  0  0  0
   56.5081   32.0380   46.2026 H   0  0  0  0  0  0  0  0  0  0  0  0
   55.6897   33.0429   44.9330 H   0  0  0  0  0  0  0  0  0  0  0  0
  1  2  1  0
  2  3  1  0
  3  4  1  0
  4  5  2  0
  5  6  1  0
  6  7  2  0
  7  8  1  0
  8  9  2  0
  9 10  1  0
 10 11  1  0
 11 12  2  0
 11 13  1  0
 13 14  1  0
 14 15  1  0
 15 16  1  0
 16 17  1  0
 17 18  1  0
 18 19  1  0
 19 20  2  0
 20 21  1  0
 21 22  2  0
 21 23  1  0
 23 24  2  0
 24 25  1  0
 25 26  2  0
 26 27  1  0
 27 28  2  0
 28 29  1  0
 17 30  1  0
 30 31  1  0
  9  4  1  0
 31 14  1  0
 29 19  1  0
 28 23  1  0
  1 32  1  0
  1 33  1  0
  1 34  1  0
  2 35  1  0
  2 36  1  0
  5 37  1  0
  6 38  1  0
  7 39  1  0
  8 40  1  0
 13 41  1  0
 13 42  1  0
 15 43  1  0
 15 44  1  0
 16 45  1  0
 16 46  1  0
 18 47  1  0
 18 48  1  0
 24 49  1  0
 25 50  1  0
 26 51  1  0
 27 52  1  0
 30 53  1  0
 30 54  1  0
 31 55  1  0
 31 56  1  0
M  CHG  2  10  -1  29  -1
M  END
>  <UniqueID>  (80) 
74

>  <SMILES>  (80) 
CCOc1ccccc1[N-]C(=O)CN1CCN(Cc2nc(=O)c3ccccc3[n-]2)CC1

>  <Energy>  (80) 
79.24769996051998

>  <Genealogy>  (80) 
CCOc1ccccc1[N-]C(=O)CN1CCN(Cc2nc(=O)c3ccccc3[n-]2)CC1 (protonated)
CCOc1ccccc1[N-]C(=O)CN1CCN(Cc2nc(=O)c3ccccc3[n-]2)CC1 (3D coordinates assigned)
CCOc1ccccc1[N-]C(=O)CN1CCN(Cc2nc(=O)c3ccccc3[n-]2)CC1 (nonaromatic ring conformer: 79.24769996051998 kcal/mol)

>  <smiles>  (80) 
CCOc1ccccc1NC(=O)CN1CCN(Cc2nc(=O)c3ccccc3[nH]2)CC1

>  <score_type>  (80) 
oracle

>  <origin>  (80) 
adg

>  <m_score__min__energy>  (80) 
-13.07

>  <m_primary>  (80) 
energy

$$$$
80:0
     RDKit          3D

 71 75  0  0  0  0  0  0  0  0999 V2000
   51.9440   24.0250   44.5510 C   0  0  0  0  0  0  0  0  0  0  0  0
   53.0280   23.1030   44.5920 O   0  0  0  0  0  0  0  0  0  0  0  0
   54.3640   23.4600   44.8290 C   0  0  0  0  0  0  0  0  0  0  0  0
   55.2760   23.3720   43.7700 C   0  0  0  0  0  0  0  0  0  0  0  0
   56.6200   23.7060   43.9590 C   0  0  0  0  0  0  0  0  0  0  0  0
   57.0700   24.1380   45.2160 C   0  0  0  0  0  0  0  0  0  0  0  0
   58.5250   24.4800   45.4180 C   0  0  0  0  0  0  0  0  0  0  0  0
   58.7630   25.9310   45.2590 N   0  0  0  0  0  0  0  0  0  0  0  0
   58.3710   26.6780   46.4840 C   0  0  0  0  0  0  0  0  0  0  0  0
   56.9890   27.3330   46.3580 C   0  0  0  0  0  0  0  0  0  0  0  0
   56.9660   28.3640   45.2060 C   0  0  0  0  0  0  0  0  0  0  0  0
   57.3320   29.6600   45.6910 O   0  0  0  0  0  0  0  0  0  0  0  0
   57.6260   30.7790   44.8940 C   0  0  0  0  0  0  0  0  0  0  0  0
   57.4310   30.7890   43.5010 C   0  0  0  0  0  0  0  0  0  0  0  0
   57.7130   31.9380   42.7610 C   0  0  0  0  0  0  0  0  0  0  0  0
   58.1820   33.0890   43.3960 C   0  0  0  0  0  0  0  0  0  0  0  0
   58.3950   33.0970   44.7870 C   0  0  0  0  0  0  0  0  0  0  0  0
   58.8270   34.3340   45.4870 C   0  0  0  0  0  0  0  0  0  0  0  0
   59.2040   35.3290   44.8110 O   0  0  0  0  0  0  0  0  0  0  0  0
   58.8970   34.4160   46.9160 N   0  0  0  0  0  0  0  0  0  0  0  0
   60.0460   34.1000   47.7120 C   0  0  0  0  0  0  0  0  0  0  0  0
   61.2580   33.8210   47.0720 C   0  0  0  0  0  0  0  0  0  0  0  0
   62.3980   33.5250   47.8220 C   0  0  0  0  0  0  0  0  0  0  0  0
   62.3440   33.5300   49.2230 C   0  0  0  0  0  0  0  0  0  0  0  0
   63.5300   33.2680   49.9860 N   0  0  0  0  0  0  0  0  0  0  0  0
   64.5400   32.3270   49.5030 C   0  0  0  0  0  0  0  0  0  0  0  0
   65.9270   32.8790   49.8340 C   0  0  0  0  0  0  0  0  0  0  0  0
   66.0290   33.1730   51.2150 O   0  0  0  0  0  0  0  0  0  0  0  0
   65.1400   34.2220   51.5560 C   0  0  0  0  0  0  0  0  0  0  0  0
   63.6810   33.8010   51.3420 C   0  0  0  0  0  0  0  0  0  0  0  0
   61.1350   33.8350   49.8670 C   0  0  0  0  0  0  0  0  0  0  0  0
   59.9890   34.1100   49.1170 C   0  0  0  0  0  0  0  0  0  0  0  0
   58.1190   31.9290   45.5230 C   0  0  0  0  0  0  0  0  0  0  0  0
   57.9300   27.9690   44.0680 C   0  0  0  0  0  0  0  0  0  0  0  0
   58.1350   26.4490   44.0150 C   0  0  0  0  0  0  0  0  0  0  0  0
   56.1580   24.2330   46.2790 C   0  0  0  0  0  0  0  0  0  0  0  0
   54.8150   23.8970   46.0910 C   0  0  0  0  0  0  0  0  0  0  0  0
   51.6421   24.2818   45.5771 H   0  0  0  0  0  0  0  0  0  0  0  0
   52.2581   24.9369   44.0221 H   0  0  0  0  0  0  0  0  0  0  0  0
   51.0943   23.5686   44.0221 H   0  0  0  0  0  0  0  0  0  0  0  0
   54.9316   23.0370   42.7805 H   0  0  0  0  0  0  0  0  0  0  0  0
   57.3271   23.6300   43.1198 H   0  0  0  0  0  0  0  0  0  0  0  0
   58.8272   24.1762   46.4311 H   0  0  0  0  0  0  0  0  0  0  0  0
   59.1158   23.9460   44.6591 H   0  0  0  0  0  0  0  0  0  0  0  0
   58.3534   25.9786   47.3328 H   0  0  0  0  0  0  0  0  0  0  0  0
   59.1079   27.4806   46.6353 H   0  0  0  0  0  0  0  0  0  0  0  0
   56.2388   26.5538   46.1581 H   0  0  0  0  0  0  0  0  0  0  0  0
   56.7620   27.8550   47.2993 H   0  0  0  0  0  0  0  0  0  0  0  0
   55.9402   28.3839   44.8093 H   0  0  0  0  0  0  0  0  0  0  0  0
   57.0551   29.8884   42.9934 H   0  0  0  0  0  0  0  0  0  0  0  0
   57.5648   31.9366   41.6710 H   0  0  0  0  0  0  0  0  0  0  0  0
   58.3862   33.9947   42.8060 H   0  0  0  0  0  0  0  0  0  0  0  0
   61.3133   33.8348   45.9735 H   0  0  0  0  0  0  0  0  0  0  0  0
   63.3427   33.2868   47.3113 H   0  0  0  0  0  0  0  0  0  0  0  0
   64.4028   31.3528   49.9951 H   0  0  0  0  0  0  0  0  0  0  0  0
   64.4396   32.1970   48.4153 H   0  0  0  0  0  0  0  0  0  0  0  0
   66.6874   32.1305   49.5665 H   0  0  0  0  0  0  0  0  0  0  0  0
   66.0866   33.8045   49.2614 H   0  0  0  0  0  0  0  0  0  0  0  0
   65.2860   34.4870   52.6136 H   0  0  0  0  0  0  0  0  0  0  0  0
   65.3531   35.0850   50.9081 H   0  0  0  0  0  0  0  0  0  0  0  0
   63.4099   33.0265   52.0745 H   0  0  0  0  0  0  0  0  0  0  0  0
   63.0210   34.6711   51.4738 H   0  0  0  0  0  0  0  0  0  0  0  0
   61.0896   33.8576   50.9658 H   0  0  0  0  0  0  0  0  0  0  0  0
   59.0403   34.3348   49.6264 H   0  0  0  0  0  0  0  0  0  0  0  0
   58.2933   31.9196   46.6091 H   0  0  0  0  0  0  0  0  0  0  0  0
   57.5108   28.3079   43.1091 H   0  0  0  0  0  0  0  0  0  0  0  0
   58.9037   28.4449   44.2562 H   0  0  0  0  0  0  0  0  0  0  0  0
   57.1575   25.9627   43.8809 H   0  0  0  0  0  0  0  0  0  0  0  0
   58.8079   26.2247   43.1743 H   0  0  0  0  0  0  0  0  0  0  0  0
   56.5030   24.5742   47.2662 H   0  0  0  0  0  0  0  0  0  0  0  0
   54.1077   23.9737   46.9300 H   0  0  0  0  0  0  0  0  0  0  0  0
  1  2  1  0
  2  3  1  0
  3  4  2  0
  4  5  1  0
  5  6  2  0
  6  7  1  0
  7  8  1  0
  8  9  1  0
  9 10  1  0
 10 11  1  0
 11 12  1  0
 12 13  1  0
 13 14  2  0
 14 15  1  0
 15 16  2  0
 16 17  1  0
 17 18  1  0
 18 19  2  0
 18 20  1  0
 20 21  1  0
 21 22  2  0
 22 23  1  0
 23 24  2  0
 24 25  1  0
 25 26  1  0
 26 27  1  0
 27 28  1  0
 28 29  1  0
 29 30  1  0
 24 31  1  0
 31 32  2  0
 17 33  2  0
 11 34  1  0
 34 35  1  0
  6 36  1  0
 36 37  2  0
 37  3  1  0
 35  8  1  0
 33 13  1  0
 32 21  1  0
 30 25  1  0
  1 38  1  0
  1 39  1  0
  1 40  1  0
  4 41  1  0
  5 42  1  0
  7 43  1  0
  7 44  1  0
  9 45  1  0
  9 46  1  0
 10 47  1  0
 10 48  1  0
 11 49  1  0
 14 50  1  0
 15 51  1  0
 16 52  1  0
 22 53  1  0
 23 54  1  0
 26 55  1  0
 26 56  1  0
 27 57  1  0
 27 58  1  0
 29 59  1  0
 29 60  1  0
 30 61  1  0
 30 62  1  0
 31 63  1  0
 32 64  1  0
 33 65  1  0
 34 66  1  0
 34 67  1  0
 35 68  1  0
 35 69  1  0
 36 70  1  0
 37 71  1  0
M  CHG  1  20  -1
M  END
>  <UniqueID>  (81) 
75

>  <SMILES>  (81) 
COc1ccc(CN2CCC(Oc3cccc(C(=O)[N-]c4ccc(N5CCOCC5)cc4)c3)CC2)cc1

>  <Energy>  (81) 
97.104220950641

>  <Genealogy>  (81) 
COc1ccc(CN2CCC(Oc3cccc(C(=O)[N-]c4ccc(N5CCOCC5)cc4)c3)CC2)cc1 (protonated)
COc1ccc(CN2CCC(Oc3cccc(C(=O)[N-]c4ccc(N5CCOCC5)cc4)c3)CC2)cc1 (3D coordinates assigned)
COc1ccc(CN2CCC(Oc3cccc(C(=O)[N-]c4ccc(N5CCOCC5)cc4)c3)CC2)cc1 (nonaromatic ring conformer: 97.104220950641 kcal/mol)

>  <smiles>  (81) 
COc1ccc(CN2CCC(Oc3cccc(C(=O)Nc4ccc(N5CCOCC5)cc4)c3)CC2)cc1

>  <score_type>  (81) 
oracle

>  <origin>  (81) 
adg

>  <m_score__min__energy>  (81) 
-10.859999999999999

>  <m_primary>  (81) 
energy

$$$$
81:0
     RDKit          3D

 49 51  0  0  0  0  0  0  0  0999 V2000
   54.9860   26.2540   45.9970 N   0  0  0  0  0  0  0  0  0  0  0  0
   56.6830   25.9460   46.1190 S   0  0  0  0  0  0  0  0  0  0  0  0
   56.9930   25.5200   47.5270 O   0  0  0  0  0  0  0  0  0  0  0  0
   57.0440   24.8410   45.1680 O   0  0  0  0  0  0  0  0  0  0  0  0
   57.6170   27.3940   45.7170 C   0  0  0  0  0  0  0  0  0  0  0  0
   56.9690   28.4950   45.1340 C   0  0  0  0  0  0  0  0  0  0  0  0
   57.6880   29.6540   44.7960 C   0  0  0  0  0  0  0  0  0  0  0  0
   57.0120   30.7910   44.1380 C   0  0  0  0  0  0  0  0  0  0  0  0
   56.4650   30.6190   43.0170 O   0  0  0  0  0  0  0  0  0  0  0  0
   56.9240   32.0790   44.7570 N   0  0  0  0  0  0  0  0  0  0  0  0
   57.4860   33.3030   44.1950 C   0  0  0  0  0  0  0  0  0  0  0  0
   57.4420   34.4250   45.2340 C   0  0  0  0  0  0  0  0  0  0  0  0
   58.4080   34.1550   46.3600 C   0  0  0  0  0  0  0  0  0  0  0  0
   59.6790   34.7480   46.3570 C   0  0  0  0  0  0  0  0  0  0  0  0
   60.5990   34.4530   47.3660 C   0  0  0  0  0  0  0  0  0  0  0  0
   60.2660   33.5480   48.3860 C   0  0  0  0  0  0  0  0  0  0  0  0
   61.2600   33.1940   49.4280 C   0  0  0  0  0  0  0  0  0  0  0  0
   60.9700   33.5260   50.7640 C   0  0  0  0  0  0  0  0  0  0  0  0
   61.8220   33.1300   51.7960 C   0  0  0  0  0  0  0  0  0  0  0  0
   62.9690   32.3940   51.5100 C   0  0  0  0  0  0  0  0  0  0  0  0
   63.2800   32.0640   50.1900 C   0  0  0  0  0  0  0  0  0  0  0  0
   62.4470   32.4710   49.1330 C   0  0  0  0  0  0  0  0  0  0  0  0
   62.8610   32.1510   47.7470 C   0  0  0  0  0  0  0  0  0  0  0  0
   64.1300   32.5670   47.2400 N   0  0  0  0  0  0  0  0  0  0  0  0
   62.1000   31.4630   47.0140 O   0  0  0  0  0  0  0  0  0  0  0  0
   58.9990   32.9440   48.3820 C   0  0  0  0  0  0  0  0  0  0  0  0
   58.0750   33.2500   47.3800 C   0  0  0  0  0  0  0  0  0  0  0  0
   59.0710   29.6940   45.0190 C   0  0  0  0  0  0  0  0  0  0  0  0
   59.7220   28.6030   45.5980 C   0  0  0  0  0  0  0  0  0  0  0  0
   59.0070   27.4540   45.9490 C   0  0  0  0  0  0  0  0  0  0  0  0
   59.9860   25.9940   46.7180 Br  0  0  0  0  0  0  0  0  0  0  0  0
   54.7790   27.0520   46.6360 H   0  0  0  0  0  0  0  0  0  0  0  0
   55.8872   28.4497   44.9399 H   0  0  0  0  0  0  0  0  0  0  0  0
   58.5297   33.1219   43.8986 H   0  0  0  0  0  0  0  0  0  0  0  0
   56.8948   33.6013   43.3167 H   0  0  0  0  0  0  0  0  0  0  0  0
   57.7106   35.3752   44.7493 H   0  0  0  0  0  0  0  0  0  0  0  0
   56.4249   34.4791   45.6494 H   0  0  0  0  0  0  0  0  0  0  0  0
   59.9531   35.4496   45.5553 H   0  0  0  0  0  0  0  0  0  0  0  0
   61.5891   34.9322   47.3612 H   0  0  0  0  0  0  0  0  0  0  0  0
   60.0631   34.1032   50.9974 H   0  0  0  0  0  0  0  0  0  0  0  0
   61.5872   33.3995   52.8363 H   0  0  0  0  0  0  0  0  0  0  0  0
   63.6318   32.0718   52.3266 H   0  0  0  0  0  0  0  0  0  0  0  0
   64.1864   31.4793   49.9744 H   0  0  0  0  0  0  0  0  0  0  0  0
   64.8420   33.0060   47.8640 H   0  0  0  0  0  0  0  0  0  0  0  0
   64.3870   32.3700   46.2480 H   0  0  0  0  0  0  0  0  0  0  0  0
   58.7324   32.2262   49.1717 H   0  0  0  0  0  0  0  0  0  0  0  0
   57.0809   32.7791   47.3904 H   0  0  0  0  0  0  0  0  0  0  0  0
   59.6458   30.5884   44.7368 H   0  0  0  0  0  0  0  0  0  0  0  0
   60.8060   28.6478   45.7794 H   0  0  0  0  0  0  0  0  0  0  0  0
  1  2  1  0
  2  3  2  0
  2  4  2  0
  2  5  1  0
  5  6  2  0
  6  7  1  0
  7  8  1  0
  8  9  2  0
  8 10  1  0
 10 11  1  0
 11 12  1  0
 12 13  1  0
 13 14  2  0
 14 15  1  0
 15 16  2  0
 16 17  1  0
 17 18  2  0
 18 19  1  0
 19 20  2  0
 20 21  1  0
 21 22  2  0
 22 23  1  0
 23 24  1  0
 23 25  2  0
 16 26  1  0
 26 27  2  0
  7 28  2  0
 28 29  1  0
 29 30  2  0
 30 31  1  0
 30  5  1  0
 27 13  1  0
 22 17  1  0
  1 32  1  0
  6 33  1  0
 11 34  1  0
 11 35  1  0
 12 36  1  0
 12 37  1  0
 14 38  1  0
 15 39  1  0
 18 40  1  0
 19 41  1  0
 20 42  1  0
 21 43  1  0
 24 44  1  0
 24 45  1  0
 26 46  1  0
 27 47  1  0
 28 48  1  0
 29 49  1  0
M  CHG  2   1  -1  10  -1
M  END
>  <UniqueID>  (82) 
76

>  <SMILES>  (82) 
[NH-]S(=O)(=O)c1cc(C(=O)[N-]CCc2ccc(-c3ccccc3C(N)=O)cc2)ccc1Br

>  <Energy>  (82) 
63.69659678707083

>  <Genealogy>  (82) 
[NH-]S(=O)(=O)c1cc(C(=O)[N-]CCc2ccc(-c3ccccc3C(N)=O)cc2)ccc1Br (protonated)
[NH-]S(=O)(=O)c1cc(C(=O)[N-]CCc2ccc(-c3ccccc3C(N)=O)cc2)ccc1Br (3D coordinates assigned)
[NH-]S(=O)(=O)c1cc(C(=O)[N-]CCc2ccc(-c3ccccc3C(N)=O)cc2)ccc1Br (optimized conformer: 63.69659678707083 kcal/mol)

>  <smiles>  (82) 
NC(=O)c1ccccc1-c1ccc(CCNC(=O)c2ccc(Br)c(S(N)(=O)=O)c2)cc1

>  <score_type>  (82) 
oracle

>  <origin>  (82) 
adg

>  <m_score__min__energy>  (82) 
-14.27

>  <m_primary>  (82) 
energy

$$$$
82:0
     RDKit          3D

 39 41  0  0  0  0  0  0  0  0999 V2000
   61.5120   30.8410   48.7840 C   0  0  0  0  0  0  0  0  0  0  0  0
   62.2340   31.9170   48.0410 C   0  0  0  0  0  0  0  0  0  0  0  0
   63.2850   31.6960   47.2860 O   0  0  0  0  0  0  0  0  0  0  0  0
   63.6820   32.8350   46.7660 C   0  0  0  0  0  0  0  0  0  0  0  0
   62.8590   33.8560   47.1930 C   0  0  0  0  0  0  0  0  0  0  0  0
   61.9210   33.2670   48.0230 C   0  0  0  0  0  0  0  0  0  0  0  0
   60.7920   33.9450   48.6970 C   0  0  0  0  0  0  0  0  0  0  0  0
   60.8320   34.1340   49.9410 O   0  0  0  0  0  0  0  0  0  0  0  0
   59.6140   34.3370   47.9790 N   0  0  0  0  0  0  0  0  0  0  0  0
   58.9330   33.5290   47.0110 C   0  0  0  0  0  0  0  0  0  0  0  0
   58.3580   34.1420   45.8930 C   0  0  0  0  0  0  0  0  0  0  0  0
   57.6450   33.3820   44.9630 C   0  0  0  0  0  0  0  0  0  0  0  0
   57.5120   31.9940   45.1360 C   0  0  0  0  0  0  0  0  0  0  0  0
   56.7260   31.2010   44.2380 N   0  0  0  0  0  0  0  0  0  0  0  0
   56.3350   29.8410   44.4770 C   0  0  0  0  0  0  0  0  0  0  0  0
   55.1620   29.5990   44.8590 O   0  0  0  0  0  0  0  0  0  0  0  0
   57.2680   28.7590   44.3450 N   0  0  0  0  0  0  0  0  0  0  0  0
   57.7870   28.0140   45.2840 C   0  0  0  0  0  0  0  0  0  0  0  0
   59.1160   28.1570   45.5410 N   0  0  0  0  0  0  0  0  0  0  0  0
   59.7700   27.3990   46.4600 C   0  0  0  0  0  0  0  0  0  0  0  0
   59.0790   26.4300   47.1840 C   0  0  0  0  0  0  0  0  0  0  0  0
   57.7110   26.2760   46.9800 C   0  0  0  0  0  0  0  0  0  0  0  0
   57.0390   27.0800   46.0490 C   0  0  0  0  0  0  0  0  0  0  0  0
   55.6550   26.9720   45.9320 O   0  0  0  0  0  0  0  0  0  0  0  0
   58.1530   31.3710   46.2140 C   0  0  0  0  0  0  0  0  0  0  0  0
   58.8520   32.1330   47.1530 C   0  0  0  0  0  0  0  0  0  0  0  0
   61.6222   31.0052   49.8661 H   0  0  0  0  0  0  0  0  0  0  0  0
   60.4452   30.8631   48.5165 H   0  0  0  0  0  0  0  0  0  0  0  0
   61.9369   29.8622   48.5165 H   0  0  0  0  0  0  0  0  0  0  0  0
   64.5421   32.9563   46.0910 H   0  0  0  0  0  0  0  0  0  0  0  0
   62.9330   34.9210   46.9280 H   0  0  0  0  0  0  0  0  0  0  0  0
   58.4677   35.2265   45.7456 H   0  0  0  0  0  0  0  0  0  0  0  0
   57.1858   33.8720   44.0918 H   0  0  0  0  0  0  0  0  0  0  0  0
   60.8458   27.5507   46.6323 H   0  0  0  0  0  0  0  0  0  0  0  0
   59.6085   25.7939   47.9086 H   0  0  0  0  0  0  0  0  0  0  0  0
   57.1542   25.5194   47.5523 H   0  0  0  0  0  0  0  0  0  0  0  0
   55.1300   27.5280   45.2670 H   0  0  0  0  0  0  0  0  0  0  0  0
   58.1058   30.2773   46.3217 H   0  0  0  0  0  0  0  0  0  0  0  0
   59.3404   31.6392   48.0060 H   0  0  0  0  0  0  0  0  0  0  0  0
  1  2  1  0
  2  3  1  0
  3  4  1  0
  4  5  2  0
  5  6  1  0
  6  7  1  0
  7  8  2  0
  7  9  1  0
  9 10  1  0
 10 11  2  0
 11 12  1  0
 12 13  2  0
 13 14  1  0
 14 15  1  0
 15 16  2  0
 15 17  1  0
 17 18  2  3
 18 19  1  0
 19 20  1  0
 20 21  2  0
 21 22  1  0
 22 23  2  0
 23 24  1  0
 13 25  1  0
 25 26  2  0
  6  2  2  0
 26 10  1  0
 23 18  1  0
  1 27  1  0
  1 28  1  0
  1 29  1  0
  4 30  1  0
  5 31  1  0
 11 32  1  0
 12 33  1  0
 20 34  1  0
 21 35  1  0
 22 36  1  0
 24 37  1  0
 25 38  1  0
 26 39  1  0
M  CHG  3   9  -1  14  -1  19  -1
M  END
>  <UniqueID>  (83) 
77

>  <SMILES>  (83) 
Cc1occc1C(=O)[N-]c1ccc([N-]C(=O)N=c2[n-]cccc2O)cc1

>  <Energy>  (83) 
86.42531747321085

>  <Genealogy>  (83) 
Cc1occc1C(=O)[N-]c1ccc([N-]C(=O)N=c2[n-]cccc2O)cc1 (protonated)
Cc1occc1C(=O)[N-]c1ccc([N-]C(=O)N=c2[n-]cccc2O)cc1 (3D coordinates assigned)
Cc1occc1C(=O)[N-]c1ccc([N-]C(=O)N=c2[n-]cccc2O)cc1 (optimized conformer: 86.42531747321085 kcal/mol)

>  <smiles>  (83) 
Cc1occc1C(=O)Nc1ccc(NC(=O)N=c2[nH]cccc2O)cc1

>  <score_type>  (83) 
oracle

>  <origin>  (83) 
adg

>  <m_score__min__energy>  (83) 
-12.01

>  <m_primary>  (83) 
energy

$$$$
83:0
     RDKit          3D

 63 67  0  0  1  0  0  0  0  0999 V2000
   56.8010   31.2250   44.8730 O   0  0  0  0  0  0  0  0  0  0  0  0
   57.9620   31.3740   45.3280 C   0  0  0  0  0  0  0  0  0  0  0  0
   58.8780   30.3030   45.4860 N   0  0  0  0  0  0  0  0  0  0  0  0
   58.5990   28.9480   45.1590 C   0  0  0  0  0  0  0  0  0  0  0  0
   58.0100   28.5560   43.9760 C   0  0  0  0  0  0  0  0  0  0  0  0
   57.7670   27.2480   43.6320 C   0  0  0  0  0  0  0  0  0  0  0  0
   58.1360   26.2660   44.5290 C   0  0  0  0  0  0  0  0  0  0  0  0
   58.7300   26.5860   45.7320 C   0  0  0  0  0  0  0  0  0  0  0  0
   58.9520   27.9150   46.0310 C   0  0  0  0  0  0  0  0  0  0  0  0
   59.5820   28.3080   47.2970 C   0  0  0  0  0  0  0  0  0  0  0  0
   59.0480   28.0320   48.3950 O   0  0  0  0  0  0  0  0  0  0  0  0
   60.8110   29.0150   47.2670 N   0  0  0  0  0  0  0  0  0  0  0  0
   61.1290   29.9410   48.0850 C   0  0  0  0  0  0  0  0  0  0  0  0
   61.9140   31.0500   47.8380 C   0  0  0  0  0  0  0  0  0  0  0  0
   61.9540   31.7230   49.0390 C   0  0  0  0  0  0  0  0  0  0  0  0
   62.6450   32.9920   49.3830 C   0  0  0  0  0  0  0  0  0  0  0  0
   63.3020   33.7910   48.3170 C   0  0  0  0  0  0  0  0  0  0  0  0
   61.9890   34.2110   48.8260 C   0  0  0  0  0  0  0  0  0  0  0  0
   61.2220   31.0430   49.9620 N   0  0  0  0  0  0  0  0  0  0  0  0
   60.7160   29.9560   49.3880 N   0  0  0  0  0  0  0  0  0  0  0  0
   58.4630   32.7050   45.7420 C   0  0  0  0  0  0  0  0  0  0  0  0
   58.6190   33.6160   44.7020 C   0  0  0  0  0  0  0  0  0  0  0  0
   59.0510   34.9040   45.0060 C   0  0  0  0  0  0  0  0  0  0  0  0
   59.3090   35.2420   46.3130 C   0  0  0  0  0  0  0  0  0  0  0  0
   59.1440   34.3170   47.3150 C   0  0  0  0  0  0  0  0  0  0  0  0
   58.7130   33.0050   47.0570 C   0  0  0  0  0  0  0  0  0  0  0  0
   58.6170   32.0980   48.1770 C   0  0  0  0  0  0  0  0  0  0  0  0
   58.4890   32.7190   49.5150 C   0  0  0  0  0  0  0  0  0  0  0  0
   59.0090   32.1120   50.6800 N   0  0  0  0  0  0  0  0  0  0  0  0
   58.0690   31.0380   51.1450 C   0  0  0  0  0  0  0  0  0  0  0  0
   56.7860   31.6030   51.6500 C   0  0  0  0  0  0  0  0  0  0  0  0
   57.0980   32.3110   52.8430 O   0  0  0  0  0  0  0  0  0  0  0  0
   57.8000   33.4190   52.4200 C   0  0  0  0  0  0  0  0  0  0  0  0
   59.1460   33.0160   51.8310 C   0  0  0  0  0  0  0  0  0  0  0  0
   59.8510   30.4700   45.8850 H   0  0  0  0  0  0  0  0  0  0  0  0
   57.7159   29.3397   43.2623 H   0  0  0  0  0  0  0  0  0  0  0  0
   57.2937   26.9918   42.6727 H   0  0  0  0  0  0  0  0  0  0  0  0
   57.9532   25.2102   44.2802 H   0  0  0  0  0  0  0  0  0  0  0  0
   59.0215   25.7964   46.4402 H   0  0  0  0  0  0  0  0  0  0  0  0
   62.3994   31.3329   46.8923 H   0  0  0  0  0  0  0  0  0  0  0  0
   62.9870   32.6220   50.3608 H   0  0  0  0  0  0  0  0  0  0  0  0
   64.1967   34.3866   48.5510 H   0  0  0  0  0  0  0  0  0  0  0  0
   63.7097   33.5652   47.3206 H   0  0  0  0  0  0  0  0  0  0  0  0
   61.9030   35.1186   49.4416 H   0  0  0  0  0  0  0  0  0  0  0  0
   61.0119   34.4272   48.3693 H   0  0  0  0  0  0  0  0  0  0  0  0
   61.0590   31.2950   50.9570 H   0  0  0  0  0  0  0  0  0  0  0  0
   60.1060   29.2350   49.8440 H   0  0  0  0  0  0  0  0  0  0  0  0
   58.4058   33.3250   43.6628 H   0  0  0  0  0  0  0  0  0  0  0  0
   59.1850   35.6464   44.2054 H   0  0  0  0  0  0  0  0  0  0  0  0
   59.6495   36.2589   46.5580 H   0  0  0  0  0  0  0  0  0  0  0  0
   59.3562   34.6131   48.3529 H   0  0  0  0  0  0  0  0  0  0  0  0
   57.7347   31.4607   48.0175 H   0  0  0  0  0  0  0  0  0  0  0  0
   59.5728   31.5538   48.1965 H   0  0  0  0  0  0  0  0  0  0  0  0
   58.9696   33.7058   49.4425 H   0  0  0  0  0  0  0  0  0  0  0  0
   57.4048   32.6606   49.6913 H   0  0  0  0  0  0  0  0  0  0  0  0
   57.8538   30.3645   50.3023 H   0  0  0  0  0  0  0  0  0  0  0  0
   58.5520   30.4967   51.9719 H   0  0  0  0  0  0  0  0  0  0  0  0
   56.3524   32.2864   50.9050 H   0  0  0  0  0  0  0  0  0  0  0  0
   56.0493   30.8086   51.8402 H   0  0  0  0  0  0  0  0  0  0  0  0
   57.2139   33.9456   51.6524 H   0  0  0  0  0  0  0  0  0  0  0  0
   57.9766   34.0752   53.2850 H   0  0  0  0  0  0  0  0  0  0  0  0
   59.6746   33.9240   51.5054 H   0  0  0  0  0  0  0  0  0  0  0  0
   59.7055   32.4802   52.6119 H   0  0  0  0  0  0  0  0  0  0  0  0
  1  2  2  0
  2  3  1  0
  3  4  1  0
  4  5  2  0
  5  6  1  0
  6  7  2  0
  7  8  1  0
  8  9  2  0
  9 10  1  0
 10 11  2  0
 10 12  1  0
 12 13  2  0
 13 14  1  0
 14 15  2  0
 15 16  1  0
 16 17  1  0
 17 18  1  0
 15 19  1  0
 19 20  1  0
  2 21  1  0
 21 22  2  0
 22 23  1  0
 23 24  2  0
 24 25  1  0
 25 26  2  0
 26 27  1  0
 27 28  1  0
 28 29  1  0
 29 30  1  0
 30 31  1  0
 31 32  1  0
 32 33  1  0
 33 34  1  0
  9  4  1  0
 20 13  1  0
 26 21  1  0
 34 29  1  0
 18 16  1  0
  3 35  1  0
  5 36  1  0
  6 37  1  0
  7 38  1  0
  8 39  1  0
 14 40  1  0
 16 41  1  0
 17 42  1  0
 17 43  1  0
 18 44  1  0
 18 45  1  0
 19 46  1  0
 20 47  1  0
 22 48  1  0
 23 49  1  0
 24 50  1  0
 25 51  1  0
 27 52  1  0
 27 53  1  0
 28 54  1  0
 28 55  1  0
 30 56  1  0
 30 57  1  0
 31 58  1  0
 31 59  1  0
 33 60  1  0
 33 61  1  0
 34 62  1  0
 34 63  1  0
M  END
>  <smiles>  (84) 
O=C(Nc1ccccc1C(=O)N=c1cc(C2CC2)[nH][nH]1)c1ccccc1CCN1CCOCC1

>  <score_type>  (84) 
oracle

>  <origin>  (84) 
adg

>  <m_score__min__energy>  (84) 
-9.0600000000000005

>  <m_primary>  (84) 
energy

$$$$
84:0
     RDKit          3D

 41 43  0  0  0  0  0  0  0  0999 V2000
   59.1630   28.7090   47.4470 C   0  0  0  0  0  0  0  0  0  0  0  0
   58.3490   29.3330   46.5830 C   0  0  0  0  0  0  0  0  0  0  0  0
   57.7240   28.8010   45.4440 C   0  0  0  0  0  0  0  0  0  0  0  0
   57.6550   27.5370   44.9750 C   0  0  0  0  0  0  0  0  0  0  0  0
   57.4740   26.3280   45.7980 C   0  0  0  0  0  0  0  0  0  0  0  0
   56.2020   25.9400   46.2520 C   0  0  0  0  0  0  0  0  0  0  0  0
   55.0830   26.7170   45.9650 O   0  0  0  0  0  0  0  0  0  0  0  0
   56.0610   24.7970   46.9740 N   0  0  0  0  0  0  0  0  0  0  0  0
   57.1300   24.0070   47.2520 C   0  0  0  0  0  0  0  0  0  0  0  0
   56.9760   22.9550   47.9250 O   0  0  0  0  0  0  0  0  0  0  0  0
   58.3640   24.3480   46.8010 N   0  0  0  0  0  0  0  0  0  0  0  0
   58.5580   25.4800   46.0770 C   0  0  0  0  0  0  0  0  0  0  0  0
   59.7160   25.7620   45.6670 O   0  0  0  0  0  0  0  0  0  0  0  0
   57.1300   29.9050   44.8420 C   0  0  0  0  0  0  0  0  0  0  0  0
   56.3190   29.9150   43.5830 C   0  0  0  0  0  0  0  0  0  0  0  0
   57.3430   31.0070   45.5830 N   0  0  0  0  0  0  0  0  0  0  0  0
   58.0720   30.6600   46.6320 N   0  0  0  0  0  0  0  0  0  0  0  0
   58.5250   31.6360   47.6290 C   0  0  0  0  0  0  0  0  0  0  0  0
   59.9120   32.1690   47.3080 C   0  0  0  0  0  0  0  0  0  0  0  0
   61.0350   31.4110   47.6990 C   0  0  0  0  0  0  0  0  0  0  0  0
   62.3280   31.8560   47.4320 C   0  0  0  0  0  0  0  0  0  0  0  0
   62.5270   33.0550   46.7560 C   0  0  0  0  0  0  0  0  0  0  0  0
   61.4340   33.8030   46.3200 C   0  0  0  0  0  0  0  0  0  0  0  0
   60.1140   33.3660   46.5600 C   0  0  0  0  0  0  0  0  0  0  0  0
   58.9540   34.1900   46.0330 C   0  0  0  0  0  0  0  0  0  0  0  0
   58.3820   33.5480   44.9500 F   0  0  0  0  0  0  0  0  0  0  0  0
   59.3960   35.4420   45.6460 F   0  0  0  0  0  0  0  0  0  0  0  0
   57.9730   34.3700   46.9940 F   0  0  0  0  0  0  0  0  0  0  0  0
   59.5827   29.2588   48.3024 H   0  0  0  0  0  0  0  0  0  0  0  0
   59.4110   27.6474   47.3003 H   0  0  0  0  0  0  0  0  0  0  0  0
   57.7411   27.3978   43.8872 H   0  0  0  0  0  0  0  0  0  0  0  0
   55.1390   27.4910   45.3140 H   0  0  0  0  0  0  0  0  0  0  0  0
   55.2487   29.9282   43.8364 H   0  0  0  0  0  0  0  0  0  0  0  0
   56.5674   30.8102   42.9939 H   0  0  0  0  0  0  0  0  0  0  0  0
   56.5453   29.0140   42.9939 H   0  0  0  0  0  0  0  0  0  0  0  0
   57.8166   32.4773   47.6511 H   0  0  0  0  0  0  0  0  0  0  0  0
   58.5703   31.1313   48.6054 H   0  0  0  0  0  0  0  0  0  0  0  0
   60.8880   30.4547   48.2223 H   0  0  0  0  0  0  0  0  0  0  0  0
   63.1926   31.2582   47.7563 H   0  0  0  0  0  0  0  0  0  0  0  0
   63.5490   33.4141   46.5648 H   0  0  0  0  0  0  0  0  0  0  0  0
   61.6032   34.7471   45.7814 H   0  0  0  0  0  0  0  0  0  0  0  0
  1  2  2  0
  2  3  1  0
  3  4  2  3
  4  5  1  0
  5  6  2  0
  6  7  1  0
  6  8  1  0
  8  9  1  0
  9 10  2  0
  9 11  1  0
 11 12  1  0
 12 13  2  0
  3 14  1  0
 14 15  1  0
 14 16  2  0
 16 17  1  0
 17 18  1  0
 18 19  1  0
 19 20  2  0
 20 21  1  0
 21 22  2  0
 22 23  1  0
 23 24  2  0
 24 25  1  0
 25 26  1  0
 25 27  1  0
 25 28  1  0
 17  2  1  0
 24 19  1  0
 12  5  1  0
  1 29  1  0
  1 30  1  0
  4 31  1  0
  7 32  1  0
 15 33  1  0
 15 34  1  0
 15 35  1  0
 18 36  1  0
 18 37  1  0
 20 38  1  0
 21 39  1  0
 22 40  1  0
 23 41  1  0
M  CHG  2   8  -1  11  -1
M  END
>  <UniqueID>  (85) 
78

>  <SMILES>  (85) 
C=c1c(=Cc2c(O)[n-]c(=O)[n-]c2=O)c(C)nn1Cc1ccccc1C(F)(F)F

>  <Energy>  (85) 
92.61206225861223

>  <Genealogy>  (85) 
C=c1c(=Cc2c(O)[n-]c(=O)[n-]c2=O)c(C)nn1Cc1ccccc1C(F)(F)F (protonated)
C=c1c(=Cc2c(O)[n-]c(=O)[n-]c2=O)c(C)nn1Cc1ccccc1C(F)(F)F (3D coordinates assigned)
C=c1c(=Cc2c(O)[n-]c(=O)[n-]c2=O)c(C)nn1Cc1ccccc1C(F)(F)F (optimized conformer: 92.61206225861223 kcal/mol)

>  <smiles>  (85) 
C=c1c(=Cc2c(O)[nH]c(=O)[nH]c2=O)c(C)nn1Cc1ccccc1C(F)(F)F

>  <score_type>  (85) 
oracle

>  <origin>  (85) 
adg

>  <m_score__min__energy>  (85) 
-13.18

>  <m_primary>  (85) 
energy

$$$$
85:0
     RDKit          3D

 39 41  0  0  0  0  0  0  0  0999 V2000
   57.6580   24.2660   45.2140 C   0  0  0  0  0  0  0  0  0  0  0  0
   56.3440   24.4450   45.3740 C   0  0  0  0  0  0  0  0  0  0  0  0
   55.4380   23.5260   44.9960 N   0  0  0  0  0  0  0  0  0  0  0  0
   54.2600   24.0930   45.3200 C   0  0  0  0  0  0  0  0  0  0  0  0
   53.1570   23.5260   45.1180 O   0  0  0  0  0  0  0  0  0  0  0  0
   54.3600   25.3130   45.8830 N   0  0  0  0  0  0  0  0  0  0  0  0
   55.6860   25.5440   45.9170 C   0  0  0  0  0  0  0  0  0  0  0  0
   56.2490   26.6590   46.4160 C   0  0  0  0  0  0  0  0  0  0  0  0
   57.0470   27.6220   45.6270 C   0  0  0  0  0  0  0  0  0  0  0  0
   58.7320   27.6980   45.4880 S   0  0  0  0  0  0  0  0  0  0  0  0
   58.6990   29.0870   44.5470 C   0  0  0  0  0  0  0  0  0  0  0  0
   59.7270   29.6840   44.1300 O   0  0  0  0  0  0  0  0  0  0  0  0
   57.4330   29.5120   44.3180 N   0  0  0  0  0  0  0  0  0  0  0  0
   57.0900   30.7630   43.6340 C   0  0  0  0  0  0  0  0  0  0  0  0
   57.6670   31.9130   44.3930 C   0  0  0  0  0  0  0  0  0  0  0  0
   58.2990   32.8160   43.7830 O   0  0  0  0  0  0  0  0  0  0  0  0
   57.4520   32.0080   45.8040 N   0  0  0  0  0  0  0  0  0  0  0  0
   58.2520   32.7940   46.6970 C   0  0  0  0  0  0  0  0  0  0  0  0
   58.4910   34.1360   46.3760 C   0  0  0  0  0  0  0  0  0  0  0  0
   59.2770   34.9350   47.2080 C   0  0  0  0  0  0  0  0  0  0  0  0
   59.8440   34.3930   48.3620 C   0  0  0  0  0  0  0  0  0  0  0  0
   59.6410   33.0480   48.6780 C   0  0  0  0  0  0  0  0  0  0  0  0
   58.8580   32.2280   47.8410 C   0  0  0  0  0  0  0  0  0  0  0  0
   58.6880   30.8580   48.1000 O   0  0  0  0  0  0  0  0  0  0  0  0
   59.7060   29.8740   47.9600 C   0  0  0  0  0  0  0  0  0  0  0  0
   56.5160   28.7050   44.9250 C   0  0  0  0  0  0  0  0  0  0  0  0
   55.1490   28.9620   44.8660 O   0  0  0  0  0  0  0  0  0  0  0  0
   58.3628   25.0457   45.5384 H   0  0  0  0  0  0  0  0  0  0  0  0
   58.0353   23.3389   44.7578 H   0  0  0  0  0  0  0  0  0  0  0  0
   56.1058   26.8693   47.4862 H   0  0  0  0  0  0  0  0  0  0  0  0
   57.5038   30.7503   42.6149 H   0  0  0  0  0  0  0  0  0  0  0  0
   55.9962   30.8670   43.5813 H   0  0  0  0  0  0  0  0  0  0  0  0
   58.0558   34.5639   45.4608 H   0  0  0  0  0  0  0  0  0  0  0  0
   59.4493   35.9913   46.9541 H   0  0  0  0  0  0  0  0  0  0  0  0
   60.4522   35.0266   49.0243 H   0  0  0  0  0  0  0  0  0  0  0  0
   60.0954   32.6257   49.5864 H   0  0  0  0  0  0  0  0  0  0  0  0
   60.0417   29.5495   48.9560 H   0  0  0  0  0  0  0  0  0  0  0  0
   59.3075   29.0101   47.4079 H   0  0  0  0  0  0  0  0  0  0  0  0
   60.5559   30.3016   47.4079 H   0  0  0  0  0  0  0  0  0  0  0  0
  1  2  2  0
  2  3  1  0
  3  4  1  0
  4  5  2  0
  4  6  1  0
  6  7  1  0
  7  8  2  3
  8  9  1  0
  9 10  1  0
 10 11  1  0
 11 12  2  0
 11 13  1  0
 13 14  1  0
 14 15  1  0
 15 16  2  0
 15 17  1  0
 17 18  1  0
 18 19  2  0
 19 20  1  0
 20 21  2  0
 21 22  1  0
 22 23  2  0
 23 24  1  0
 24 25  1  0
 13 26  1  0
 26 27  1  0
  7  2  1  0
 26  9  2  0
 23 18  1  0
  1 28  1  0
  1 29  1  0
  8 30  1  0
 14 31  1  0
 14 32  1  0
 19 33  1  0
 20 34  1  0
 21 35  1  0
 22 36  1  0
 25 37  1  0
 25 38  1  0
 25 39  1  0
M  CHG  4   3  -1   6  -1  17  -1  27  -1
M  END
>  <UniqueID>  (86) 
79

>  <SMILES>  (86) 
C=c1[n-]c(=O)[n-]c1=Cc1sc(=O)n(CC(=O)[N-]c2ccccc2OC)c1[O-]

>  <Energy>  (86) 
107.46983970268603

>  <Genealogy>  (86) 
C=c1[n-]c(=O)[n-]c1=Cc1sc(=O)n(CC(=O)[N-]c2ccccc2OC)c1[O-] (protonated)
C=c1[n-]c(=O)[n-]c1=Cc1sc(=O)n(CC(=O)[N-]c2ccccc2OC)c1[O-] (3D coordinates assigned)
C=c1[n-]c(=O)[n-]c1=Cc1sc(=O)n(CC(=O)[N-]c2ccccc2OC)c1[O-] (optimized conformer: 107.46983970268603 kcal/mol)

>  <smiles>  (86) 
C=c1[nH]c(=O)[nH]c1=Cc1sc(=O)n(CC(=O)Nc2ccccc2OC)c1O

>  <score_type>  (86) 
oracle

>  <origin>  (86) 
adg

>  <m_score__min__energy>  (86) 
-15.52

>  <m_primary>  (86) 
energy

$$$$
86:0
     RDKit          3D

 43 46  0  0  0  0  0  0  0  0999 V2000
   60.4260   27.4280   45.7020 C   0  0  0  0  0  0  0  0  0  0  0  0
   59.3040   28.0960   45.3810 C   0  0  0  0  0  0  0  0  0  0  0  0
   58.1510   27.5390   44.8080 C   0  0  0  0  0  0  0  0  0  0  0  0
   57.7760   26.2550   44.6350 C   0  0  0  0  0  0  0  0  0  0  0  0
   57.2300   25.3730   45.6800 C   0  0  0  0  0  0  0  0  0  0  0  0
   57.8850   24.3220   46.2080 N   0  0  0  0  0  0  0  0  0  0  0  0
   57.0700   23.9120   47.2030 C   0  0  0  0  0  0  0  0  0  0  0  0
   57.3370   22.9230   47.9340 O   0  0  0  0  0  0  0  0  0  0  0  0
   55.9510   24.6510   47.3590 N   0  0  0  0  0  0  0  0  0  0  0  0
   56.0730   25.5810   46.3970 C   0  0  0  0  0  0  0  0  0  0  0  0
   55.1390   26.5930   46.1860 O   0  0  0  0  0  0  0  0  0  0  0  0
   57.3490   28.5990   44.4430 C   0  0  0  0  0  0  0  0  0  0  0  0
   57.9810   29.7540   44.8560 C   0  0  0  0  0  0  0  0  0  0  0  0
   57.3760   31.0980   44.6980 C   0  0  0  0  0  0  0  0  0  0  0  0
   56.1240   31.2170   44.8080 O   0  0  0  0  0  0  0  0  0  0  0  0
   58.1850   32.2420   44.3870 N   0  0  0  0  0  0  0  0  0  0  0  0
   58.5670   33.1640   45.2190 C   0  0  0  0  0  0  0  0  0  0  0  0
   59.5410   34.0660   44.9660 N   0  0  0  0  0  0  0  0  0  0  0  0
   59.7240   34.9070   46.0180 C   0  0  0  0  0  0  0  0  0  0  0  0
   58.8940   34.6760   47.1110 C   0  0  0  0  0  0  0  0  0  0  0  0
   57.8970   33.3700   46.7440 S   0  0  0  0  0  0  0  0  0  0  0  0
   59.1770   29.4560   45.4370 N   0  0  0  0  0  0  0  0  0  0  0  0
   60.0930   30.4180   46.0800 C   0  0  0  0  0  0  0  0  0  0  0  0
   59.7830   30.5680   47.5500 C   0  0  0  0  0  0  0  0  0  0  0  0
   60.3050   31.6540   48.2740 C   0  0  0  0  0  0  0  0  0  0  0  0
   60.0380   31.7850   49.6390 C   0  0  0  0  0  0  0  0  0  0  0  0
   59.2670   30.8240   50.2980 C   0  0  0  0  0  0  0  0  0  0  0  0
   58.7680   29.7260   49.5930 C   0  0  0  0  0  0  0  0  0  0  0  0
   59.0310   29.5920   48.2270 C   0  0  0  0  0  0  0  0  0  0  0  0
   61.2763   27.9639   46.1490 H   0  0  0  0  0  0  0  0  0  0  0  0
   60.4935   26.3457   45.5176 H   0  0  0  0  0  0  0  0  0  0  0  0
   57.8877   25.8302   43.6265 H   0  0  0  0  0  0  0  0  0  0  0  0
   54.3150   26.6790   46.7680 H   0  0  0  0  0  0  0  0  0  0  0  0
   56.3837   28.5358   43.9193 H   0  0  0  0  0  0  0  0  0  0  0  0
   60.4737   35.7118   46.0063 H   0  0  0  0  0  0  0  0  0  0  0  0
   58.8901   35.2473   48.0510 H   0  0  0  0  0  0  0  0  0  0  0  0
   61.1269   30.0602   45.9660 H   0  0  0  0  0  0  0  0  0  0  0  0
   59.9659   31.3973   45.5955 H   0  0  0  0  0  0  0  0  0  0  0  0
   60.9266   32.4042   47.7633 H   0  0  0  0  0  0  0  0  0  0  0  0
   60.4355   32.6463   50.1960 H   0  0  0  0  0  0  0  0  0  0  0  0
   59.0530   30.9320   51.3716 H   0  0  0  0  0  0  0  0  0  0  0  0
   58.1672   28.9658   50.1138 H   0  0  0  0  0  0  0  0  0  0  0  0
   58.6478   28.7187   47.6789 H   0  0  0  0  0  0  0  0  0  0  0  0
  1  2  2  0
  2  3  1  0
  3  4  2  3
  4  5  1  0
  5  6  1  0
  6  7  1  0
  7  8  2  0
  7  9  1  0
  9 10  1  0
 10 11  1  0
  3 12  1  0
 12 13  2  0
 13 14  1  0
 14 15  2  0
 14 16  1  0
 16 17  2  3
 17 18  1  0
 18 19  1  0
 19 20  2  0
 20 21  1  0
 13 22  1  0
 22 23  1  0
 23 24  1  0
 24 25  2  0
 25 26  1  0
 26 27  2  0
 27 28  1  0
 28 29  2  0
 22  2  1  0
 29 24  1  0
 10  5  2  0
 21 17  1  0
  1 30  1  0
  1 31  1  0
  4 32  1  0
 11 33  1  0
 12 34  1  0
 19 35  1  0
 20 36  1  0
 23 37  1  0
 23 38  1  0
 25 39  1  0
 26 40  1  0
 27 41  1  0
 28 42  1  0
 29 43  1  0
M  CHG  3   6  -1   9  -1  18  -1
M  END
>  <UniqueID>  (87) 
80

>  <SMILES>  (87) 
C=c1c(=Cc2[n-]c(=O)[n-]c2O)cc(C(=O)N=c2[n-]ccs2)n1Cc1ccccc1

>  <Energy>  (87) 
151.2829168619331

>  <Genealogy>  (87) 
C=c1c(=Cc2[n-]c(=O)[n-]c2O)cc(C(=O)N=c2[n-]ccs2)n1Cc1ccccc1 (protonated)
C=c1c(=Cc2[n-]c(=O)[n-]c2O)cc(C(=O)N=c2[n-]ccs2)n1Cc1ccccc1 (3D coordinates assigned)
C=c1c(=Cc2[n-]c(=O)[n-]c2O)cc(C(=O)N=c2[n-]ccs2)n1Cc1ccccc1 (optimized conformer: 151.2829168619331 kcal/mol)

>  <smiles>  (87) 
C=c1c(=Cc2[nH]c(=O)[nH]c2O)cc(C(=O)N=c2[nH]ccs2)n1Cc1ccccc1

>  <score_type>  (87) 
oracle

>  <origin>  (87) 
adg

>  <m_score__min__energy>  (87) 
-14.34

>  <m_primary>  (87) 
energy

$$$$
87:0
     RDKit          3D

 49 52  0  0  0  0  0  0  0  0999 V2000
   57.2639   34.3023   45.0090 H   0  0  0  0  0  0  0  0  0  0  0  0
   57.0150   33.2380   44.8850 C   0  0  0  0  0  0  0  0  0  0  0  0
   56.1340   32.9442   44.2954 H   0  0  0  0  0  0  0  0  0  0  0  0
   57.7820   32.3030   45.4500 C   0  0  0  0  0  0  0  0  0  0  0  0
   57.5040   30.9880   45.3170 N   0  0  0  0  0  0  0  0  0  0  0  0
   58.4810   30.2940   45.8800 N   0  0  0  0  0  0  0  0  0  0  0  0
   58.5210   28.8540   45.8990 C   0  0  0  0  0  0  0  0  0  0  0  0
   59.7520   28.1910   46.0190 C   0  0  0  0  0  0  0  0  0  0  0  0
   60.6798   28.7744   46.1129 H   0  0  0  0  0  0  0  0  0  0  0  0
   59.8070   26.7960   46.0200 C   0  0  0  0  0  0  0  0  0  0  0  0
   60.7767   26.2855   46.1156 H   0  0  0  0  0  0  0  0  0  0  0  0
   58.6350   26.0470   45.9000 C   0  0  0  0  0  0  0  0  0  0  0  0
   58.6855   24.9482   45.8955 H   0  0  0  0  0  0  0  0  0  0  0  0
   57.3920   26.6900   45.7850 C   0  0  0  0  0  0  0  0  0  0  0  0
   56.1570   25.8900   45.6340 C   0  0  0  0  0  0  0  0  0  0  0  0
   55.0770   26.3420   46.1060 O   0  0  0  0  0  0  0  0  0  0  0  0
   56.1570   24.6160   44.9600 N   0  0  0  0  0  0  0  0  0  0  0  0
   57.0370   24.3830   43.8090 C   0  0  0  0  0  0  0  0  0  0  0  0
   58.0432   24.1166   44.1647 H   0  0  0  0  0  0  0  0  0  0  0  0
   56.6338   23.5607   43.1997 H   0  0  0  0  0  0  0  0  0  0  0  0
   57.0936   25.2971   43.1997 H   0  0  0  0  0  0  0  0  0  0  0  0
   55.1410   23.6210   45.3130 C   0  0  0  0  0  0  0  0  0  0  0  0
   55.0653   23.5468   46.4079 H   0  0  0  0  0  0  0  0  0  0  0  0
   54.1691   23.9263   44.8981 H   0  0  0  0  0  0  0  0  0  0  0  0
   55.4259   22.6429   44.8981 H   0  0  0  0  0  0  0  0  0  0  0  0
   57.3460   28.0930   45.7600 C   0  0  0  0  0  0  0  0  0  0  0  0
   56.3801   28.6031   45.6302 H   0  0  0  0  0  0  0  0  0  0  0  0
   59.4020   31.1540   46.3640 C   0  0  0  0  0  0  0  0  0  0  0  0
   60.4820   30.8060   46.9140 O   0  0  0  0  0  0  0  0  0  0  0  0
   58.9950   32.4570   46.1410 C   0  0  0  0  0  0  0  0  0  0  0  0
   59.6770   33.5550   46.5260 C   0  0  0  0  0  0  0  0  0  0  0  0
   59.5057   34.4819   45.9590 H   0  0  0  0  0  0  0  0  0  0  0  0
   60.6320   33.6120   47.6440 C   0  0  0  0  0  0  0  0  0  0  0  0
   60.2160   34.1110   48.8850 C   0  0  0  0  0  0  0  0  0  0  0  0
   59.1744   34.4375   49.0209 H   0  0  0  0  0  0  0  0  0  0  0  0
   61.1150   34.1970   49.9520 C   0  0  0  0  0  0  0  0  0  0  0  0
   60.7756   34.5738   50.9281 H   0  0  0  0  0  0  0  0  0  0  0  0
   62.4490   33.8030   49.7780 C   0  0  0  0  0  0  0  0  0  0  0  0
   63.3670   33.8690   50.8320 C   0  0  0  0  0  0  0  0  0  0  0  0
   63.0434   34.2204   51.8229 H   0  0  0  0  0  0  0  0  0  0  0  0
   64.6920   33.4890   50.6250 C   0  0  0  0  0  0  0  0  0  0  0  0
   65.4179   33.5374   51.4501 H   0  0  0  0  0  0  0  0  0  0  0  0
   65.0910   33.0460   49.3610 C   0  0  0  0  0  0  0  0  0  0  0  0
   66.1371   32.7518   49.1905 H   0  0  0  0  0  0  0  0  0  0  0  0
   64.1940   32.9760   48.3390 N   0  0  0  0  0  0  0  0  0  0  0  0
   64.5260   32.6370   47.4050 H   0  0  0  0  0  0  0  0  0  0  0  0
   62.8890   33.3370   48.5140 C   0  0  0  0  0  0  0  0  0  0  0  0
   61.9760   33.2530   47.4510 C   0  0  0  0  0  0  0  0  0  0  0  0
   62.3143   32.9049   46.4639 H   0  0  0  0  0  0  0  0  0  0  0  0
  1  2  1  0
  2  3  1  0
  2  4  2  0
  4  5  1  0
  5  6  1  0
  6  7  1  0
  7  8  2  0
  8  9  1  0
  8 10  1  0
 10 11  1  0
 10 12  2  0
 12 13  1  0
 12 14  1  0
 14 15  1  0
 15 16  2  0
 15 17  1  0
 17 18  1  0
 18 19  1  0
 18 20  1  0
 18 21  1  0
 17 22  1  0
 22 23  1  0
 22 24  1  0
 22 25  1  0
 14 26  2  0
 26 27  1  0
  6 28  1  0
 28 29  2  0
 28 30  1  0
 30 31  2  0
 31 32  1  0
 31 33  1  0
 33 34  2  0
 34 35  1  0
 34 36  1  0
 36 37  1  0
 36 38  2  0
 38 39  1  0
 39 40  1  0
 39 41  2  0
 41 42  1  0
 41 43  1  0
 43 44  1  0
 43 45  2  0
 45 46  1  0
 45 47  1  0
 47 48  2  0
 48 49  1  0
 30  4  1  0
 48 33  1  0
 26  7  1  0
 47 38  1  0
M  CHG  2   5  -1  45   1
M  END
>  <UniqueID>  (88) 
81

>  <SMILES>  (88) 
C=c1[n-]n(-c2cccc(C(=O)N(C)C)c2)c(=O)/c1=C/c1ccc2ccc[nH+]c2c1

>  <Energy>  (88) 
108.59880777349272

>  <Genealogy>  (88) 
C=c1[n-]n(-c2cccc(C(=O)N(C)C)c2)c(=O)c1=Cc1ccc2ccc[nH+]c2c1 (protonated)
C=c1[n-]n(-c2cccc(C(=O)N(C)C)c2)c(=O)/c1=C/c1ccc2ccc[nH+]c2c1 (cis-trans isomerization)
C=c1[n-]n(-c2cccc(C(=O)N(C)C)c2)c(=O)/c1=C/c1ccc2ccc[nH+]c2c1 (3D coordinates assigned)
C=c1[n-]n(-c2cccc(C(=O)N(C)C)c2)c(=O)/c1=C/c1ccc2ccc[nH+]c2c1 (optimized conformer: 108.59880777349272 kcal/mol)

>  <smiles>  (88) 
C=c1[nH]n(-c2cccc(C(=O)N(C)C)c2)c(=O)c1=Cc1ccc2cccnc2c1

>  <score_type>  (88) 
oracle

>  <origin>  (88) 
adg

>  <m_score__min__energy>  (88) 
-9.5500000000000007

>  <m_primary>  (88) 
energy

$$$$
88:0
     RDKit          3D

 34 36  0  0  1  0  0  0  0  0999 V2000
   58.8150   34.7130   47.6000 O   0  0  0  0  0  0  0  0  0  0  0  0
   58.5170   33.6760   46.9860 C   0  0  0  0  0  0  0  0  0  0  0  0
   57.2720   33.3610   46.5950 N   0  0  0  0  0  0  0  0  0  0  0  0
   57.3800   32.1990   45.9840 N   0  0  0  0  0  0  0  0  0  0  0  0
   58.6300   31.7350   45.9530 C   0  0  0  0  0  0  0  0  0  0  0  0
   59.2530   30.5440   45.4290 C   0  0  0  0  0  0  0  0  0  0  0  0
   59.4000   29.4050   46.0430 C   0  0  0  0  0  0  0  0  0  0  0  0
   58.6110   28.2190   45.9090 C   0  0  0  0  0  0  0  0  0  0  0  0
   59.3120   27.0340   45.6500 C   0  0  0  0  0  0  0  0  0  0  0  0
   58.6770   25.8190   45.5900 C   0  0  0  0  0  0  0  0  0  0  0  0
   57.3350   25.6880   45.7780 C   0  0  0  0  0  0  0  0  0  0  0  0
   56.6160   26.8330   46.0360 C   0  0  0  0  0  0  0  0  0  0  0  0
   55.2560   26.7190   46.2280 O   0  0  0  0  0  0  0  0  0  0  0  0
   57.2630   28.0730   46.0980 C   0  0  0  0  0  0  0  0  0  0  0  0
   59.3430   32.6900   46.5960 N   0  0  0  0  0  0  0  0  0  0  0  0
   60.7450   32.7290   46.8640 C   0  0  0  0  0  0  0  0  0  0  0  0
   61.5680   33.7320   46.4180 C   0  0  0  0  0  0  0  0  0  0  0  0
   62.9170   33.6570   46.7450 C   0  0  0  0  0  0  0  0  0  0  0  0
   63.3920   32.6050   47.4890 C   0  0  0  0  0  0  0  0  0  0  0  0
   62.5760   31.5810   47.9510 C   0  0  0  0  0  0  0  0  0  0  0  0
   61.2440   31.6640   47.6230 C   0  0  0  0  0  0  0  0  0  0  0  0
   56.3750   33.8870   46.7230 H   0  0  0  0  0  0  0  0  0  0  0  0
   59.6451   30.6043   44.4030 H   0  0  0  0  0  0  0  0  0  0  0  0
   60.2367   29.3475   46.7548 H   0  0  0  0  0  0  0  0  0  0  0  0
   60.3995   27.0787   45.4906 H   0  0  0  0  0  0  0  0  0  0  0  0
   59.2737   24.9185   45.3825 H   0  0  0  0  0  0  0  0  0  0  0  0
   56.8442   24.7050   45.7257 H   0  0  0  0  0  0  0  0  0  0  0  0
   54.7940   26.7200   47.1190 H   0  0  0  0  0  0  0  0  0  0  0  0
   56.6615   28.9698   46.3079 H   0  0  0  0  0  0  0  0  0  0  0  0
   61.1735   34.5678   45.8215 H   0  0  0  0  0  0  0  0  0  0  0  0
   63.6071   34.4438   46.4063 H   0  0  0  0  0  0  0  0  0  0  0  0
   64.4649   32.5722   47.7292 H   0  0  0  0  0  0  0  0  0  0  0  0
   62.9746   30.7475   48.5479 H   0  0  0  0  0  0  0  0  0  0  0  0
   60.5555   30.8769   47.9641 H   0  0  0  0  0  0  0  0  0  0  0  0
  1  2  2  0
  2  3  1  0
  3  4  1  0
  4  5  2  0
  5  6  1  0
  6  7  2  0
  7  8  1  0
  8  9  2  0
  9 10  1  0
 10 11  2  0
 11 12  1  0
 12 13  1  0
 12 14  2  0
  5 15  1  0
 15 16  1  0
 16 17  2  0
 17 18  1  0
 18 19  2  0
 19 20  1  0
 20 21  2  0
 15  2  1  0
 21 16  1  0
 14  8  1  0
  3 22  1  0
  6 23  1  0
  7 24  1  0
  9 25  1  0
 10 26  1  0
 11 27  1  0
 13 28  1  0
 14 29  1  0
 17 30  1  0
 18 31  1  0
 19 32  1  0
 20 33  1  0
 21 34  1  0
M  END
>  <smiles>  (89) 
O=c1[nH]nc(C=Cc2cccc(O)c2)n1-c1ccccc1

>  <score_type>  (89) 
oracle

>  <origin>  (89) 
adg

>  <m_score__min__energy>  (89) 
-8.5800000000000001

>  <m_primary>  (89) 
energy

$$$$
