0:0
     RDKit          3D

 54 57  0  0  1  0  0  0  0  0999 V2000
   56.1590   28.6900   44.8720 O   0  0  0  0  0  0  0  0  0  0  0  0
   57.2650   29.2000   44.5350 C   0  0  0  0  0  0  0  0  0  0  0  0
   58.1280   28.4540   43.6560 N   0  0  0  0  0  0  0  0  0  0  0  0
   57.8190   27.1580   43.1420 C   0  0  0  0  0  0  0  0  0  0  0  0
   57.7730   26.0480   44.0850 C   0  0  0  0  0  0  0  0  0  0  0  0
   58.1140   26.1950   45.4190 C   0  0  0  0  0  0  0  0  0  0  0  0
   58.0840   25.1370   46.3160 C   0  0  0  0  0  0  0  0  0  0  0  0
   57.7010   23.8580   45.9070 C   0  0  0  0  0  0  0  0  0  0  0  0
   57.3550   23.7000   44.5650 C   0  0  0  0  0  0  0  0  0  0  0  0
   57.3930   24.7700   43.6900 C   0  0  0  0  0  0  0  0  0  0  0  0
   57.6280   30.5140   45.0410 C   0  0  0  0  0  0  0  0  0  0  0  0
   57.0160   31.5870   44.3950 C   0  0  0  0  0  0  0  0  0  0  0  0
   57.2480   32.8350   44.8430 N   0  0  0  0  0  0  0  0  0  0  0  0
   58.0610   33.0570   45.9060 C   0  0  0  0  0  0  0  0  0  0  0  0
   58.2630   34.2750   46.3290 N   0  0  0  0  0  0  0  0  0  0  0  0
   59.5630   34.8440   46.4680 C   0  0  0  0  0  0  0  0  0  0  0  0
   60.2360   34.5920   47.7970 C   0  0  0  0  0  0  0  0  0  0  0  0
   61.2420   33.5130   47.7160 C   0  0  0  0  0  0  0  0  0  0  0  0
   62.4430   33.8580   47.0840 C   0  0  0  0  0  0  0  0  0  0  0  0
   63.4260   32.8830   46.9690 C   0  0  0  0  0  0  0  0  0  0  0  0
   63.2310   31.6150   47.4610 C   0  0  0  0  0  0  0  0  0  0  0  0
   62.0140   31.3420   48.0780 C   0  0  0  0  0  0  0  0  0  0  0  0
   61.0400   32.2620   48.2070 N   0  0  0  0  0  0  0  0  0  0  0  0
   58.6310   32.0020   46.4970 N   0  0  0  0  0  0  0  0  0  0  0  0
   58.4620   30.7210   46.1240 C   0  0  0  0  0  0  0  0  0  0  0  0
   59.1000   29.6700   46.8950 C   0  0  0  0  0  0  0  0  0  0  0  0
   58.9610   29.6540   48.2700 C   0  0  0  0  0  0  0  0  0  0  0  0
   59.5900   28.7020   49.0750 C   0  0  0  0  0  0  0  0  0  0  0  0
   60.3830   27.7260   48.5270 C   0  0  0  0  0  0  0  0  0  0  0  0
   60.5360   27.7230   47.1640 C   0  0  0  0  0  0  0  0  0  0  0  0
   59.9020   28.6830   46.3660 C   0  0  0  0  0  0  0  0  0  0  0  0
   59.0450   28.9290   43.3930 H   0  0  0  0  0  0  0  0  0  0  0  0
   56.8315   27.2221   42.6617 H   0  0  0  0  0  0  0  0  0  0  0  0
   58.6572   26.9181   42.4713 H   0  0  0  0  0  0  0  0  0  0  0  0
   58.4201   27.1876   45.7810 H   0  0  0  0  0  0  0  0  0  0  0  0
   58.3662   25.3083   47.3653 H   0  0  0  0  0  0  0  0  0  0  0  0
   57.6734   23.0134   46.6112 H   0  0  0  0  0  0  0  0  0  0  0  0
   57.0475   22.7099   44.1975 H   0  0  0  0  0  0  0  0  0  0  0  0
   57.1115   24.6037   42.6397 H   0  0  0  0  0  0  0  0  0  0  0  0
   56.3542   31.4166   43.5331 H   0  0  0  0  0  0  0  0  0  0  0  0
   60.2037   34.4264   45.6774 H   0  0  0  0  0  0  0  0  0  0  0  0
   59.4291   35.9334   46.3950 H   0  0  0  0  0  0  0  0  0  0  0  0
   60.7338   35.5170   48.1233 H   0  0  0  0  0  0  0  0  0  0  0  0
   59.4624   34.2801   48.5141 H   0  0  0  0  0  0  0  0  0  0  0  0
   62.6036   34.8723   46.6897 H   0  0  0  0  0  0  0  0  0  0  0  0
   64.3773   33.1305   46.4753 H   0  0  0  0  0  0  0  0  0  0  0  0
   64.0094   30.8430   47.3703 H   0  0  0  0  0  0  0  0  0  0  0  0
   61.8406   30.3317   48.4771 H   0  0  0  0  0  0  0  0  0  0  0  0
   59.2640   32.1840   47.2920 H   0  0  0  0  0  0  0  0  0  0  0  0
   58.3317   30.4193   48.7478 H   0  0  0  0  0  0  0  0  0  0  0  0
   59.4474   28.7352   50.1652 H   0  0  0  0  0  0  0  0  0  0  0  0
   60.8782   26.9731   49.1578 H   0  0  0  0  0  0  0  0  0  0  0  0
   61.1659   26.9553   46.6910 H   0  0  0  0  0  0  0  0  0  0  0  0
   60.0498   28.6477   45.2766 H   0  0  0  0  0  0  0  0  0  0  0  0
  1  2  2  0
  2  3  1  0
  3  4  1  0
  4  5  1  0
  5  6  2  0
  6  7  1  0
  7  8  2  0
  8  9  1  0
  9 10  2  0
  2 11  1  0
 11 12  1  0
 12 13  2  0
 13 14  1  0
 14 15  2  0
 15 16  1  0
 16 17  1  0
 17 18  1  0
 18 19  2  0
 19 20  1  0
 20 21  2  0
 21 22  1  0
 22 23  2  0
 14 24  1  0
 24 25  1  0
 25 26  1  0
 26 27  2  0
 27 28  1  0
 28 29  2  0
 29 30  1  0
 30 31  2  0
 10  5  1  0
 25 11  2  0
 31 26  1  0
 23 18  1  0
  3 32  1  0
  4 33  1  0
  4 34  1  0
  6 35  1  0
  7 36  1  0
  8 37  1  0
  9 38  1  0
 10 39  1  0
 12 40  1  0
 16 41  1  0
 16 42  1  0
 17 43  1  0
 17 44  1  0
 19 45  1  0
 20 46  1  0
 21 47  1  0
 22 48  1  0
 24 49  1  0
 27 50  1  0
 28 51  1  0
 29 52  1  0
 30 53  1  0
 31 54  1  0
M  END
>  <smiles>  (1) 
O=C(NCc1ccccc1)c1cnc(=NCCc2ccccn2)[nH]c1-c1ccccc1

>  <score_type>  (1) 
oracle

>  <origin>  (1) 
adg

>  <m_score__min__energy>  (1) 
-9.2799999999999994

>  <m_primary>  (1) 
energy

$$$$
1:0
     RDKit          3D

 45 47  0  0  0  0  0  0  0  0999 V2000
   57.0410   34.1960   44.9340 C   0  0  0  0  0  0  0  0  0  0  0  0
   58.3490   34.2590   45.6450 C   0  0  0  0  0  0  0  0  0  0  0  0
   58.5220   34.3120   47.0120 C   0  0  0  0  0  0  0  0  0  0  0  0
   59.8840   34.4640   47.1540 C   0  0  0  0  0  0  0  0  0  0  0  0
   60.6320   34.5690   48.4430 C   0  0  0  0  0  0  0  0  0  0  0  0
   60.5850   33.3010   49.1580 N   0  0  0  0  0  0  0  0  0  0  0  0
   59.4710   32.8830   49.9520 C   0  0  0  0  0  0  0  0  0  0  0  0
   58.4660   32.3440   49.4120 O   0  0  0  0  0  0  0  0  0  0  0  0
   59.4850   33.1210   51.4300 C   0  0  0  0  0  0  0  0  0  0  0  0
   58.0640   33.2220   51.9970 C   0  0  0  0  0  0  0  0  0  0  0  0
   57.6120   31.9180   52.6050 C   0  0  0  0  0  0  0  0  0  0  0  0
   58.3660   31.3200   53.6270 C   0  0  0  0  0  0  0  0  0  0  0  0
   57.9770   30.0890   54.1580 C   0  0  0  0  0  0  0  0  0  0  0  0
   56.8300   29.4510   53.6830 C   0  0  0  0  0  0  0  0  0  0  0  0
   56.0530   30.0440   52.6810 C   0  0  0  0  0  0  0  0  0  0  0  0
   54.8930   29.3490   52.2030 N   0  0  0  0  0  0  0  0  0  0  0  0
   53.5300   29.6160   52.5580 C   0  0  0  0  0  0  0  0  0  0  0  0
   52.8310   28.6760   53.0210 O   0  0  0  0  0  0  0  0  0  0  0  0
   52.9280   30.9900   52.4240 C   0  0  0  0  0  0  0  0  0  0  0  0
   52.1450   31.1140   51.1530 C   0  0  0  0  0  0  0  0  0  0  0  0
   52.1330   29.9880   49.9020 S   0  0  0  0  0  0  0  0  0  0  0  0
   51.0280   30.8790   49.0010 C   0  0  0  0  0  0  0  0  0  0  0  0
   50.5860   30.5310   47.8750 O   0  0  0  0  0  0  0  0  0  0  0  0
   50.6480   32.0170   49.6190 N   0  0  0  0  0  0  0  0  0  0  0  0
   51.2690   32.1470   50.8210 C   0  0  0  0  0  0  0  0  0  0  0  0
   51.0330   33.2360   51.6510 O   0  0  0  0  0  0  0  0  0  0  0  0
   56.4650   31.2660   52.1210 C   0  0  0  0  0  0  0  0  0  0  0  0
   60.4390   34.4900   45.9640 O   0  0  0  0  0  0  0  0  0  0  0  0
   59.5420   34.3800   45.0270 N   0  0  0  0  0  0  0  0  0  0  0  0
   56.2249   34.1567   45.6705 H   0  0  0  0  0  0  0  0  0  0  0  0
   56.9231   35.0895   44.3033 H   0  0  0  0  0  0  0  0  0  0  0  0
   57.0095   33.2953   44.3033 H   0  0  0  0  0  0  0  0  0  0  0  0
   57.7567   34.2483   47.7996 H   0  0  0  0  0  0  0  0  0  0  0  0
   61.6801   34.8296   48.2344 H   0  0  0  0  0  0  0  0  0  0  0  0
   60.1671   35.3484   49.0646 H   0  0  0  0  0  0  0  0  0  0  0  0
   60.0073   32.2868   51.9213 H   0  0  0  0  0  0  0  0  0  0  0  0
   60.0010   34.0735   51.6211 H   0  0  0  0  0  0  0  0  0  0  0  0
   58.0440   34.0025   52.7719 H   0  0  0  0  0  0  0  0  0  0  0  0
   57.3818   33.4696   51.1704 H   0  0  0  0  0  0  0  0  0  0  0  0
   59.2660   31.8229   54.0105 H   0  0  0  0  0  0  0  0  0  0  0  0
   58.5760   29.6205   54.9529 H   0  0  0  0  0  0  0  0  0  0  0  0
   56.5349   28.4762   54.0986 H   0  0  0  0  0  0  0  0  0  0  0  0
   52.2589   31.1739   53.2775 H   0  0  0  0  0  0  0  0  0  0  0  0
   53.7432   31.7284   52.4057 H   0  0  0  0  0  0  0  0  0  0  0  0
   55.8865   31.7141   51.2997 H   0  0  0  0  0  0  0  0  0  0  0  0
  1  2  1  0
  2  3  1  0
  3  4  2  0
  4  5  1  0
  5  6  1  0
  6  7  1  0
  7  8  2  0
  7  9  1  0
  9 10  1  0
 10 11  1  0
 11 12  2  0
 12 13  1  0
 13 14  2  0
 14 15  1  0
 15 16  1  0
 16 17  1  0
 17 18  2  0
 17 19  1  0
 19 20  1  0
 20 21  1  0
 21 22  1  0
 22 23  2  0
 22 24  1  0
 24 25  1  0
 25 26  1  0
 15 27  2  0
  4 28  1  0
 28 29  1  0
 29  2  2  0
 27 11  1  0
 25 20  2  0
  1 30  1  0
  1 31  1  0
  1 32  1  0
  3 33  1  0
  5 34  1  0
  5 35  1  0
  9 36  1  0
  9 37  1  0
 10 38  1  0
 10 39  1  0
 12 40  1  0
 13 41  1  0
 14 42  1  0
 19 43  1  0
 19 44  1  0
 27 45  1  0
M  CHG  4   6  -1  16  -1  24  -1  26  -1
M  END
>  <UniqueID>  (2) 
1

>  <SMILES>  (2) 
Cc1cc(C[N-]C(=O)CCc2cccc([N-]C(=O)Cc3sc(=O)[n-]c3[O-])c2)on1

>  <Energy>  (2) 
99.0767523685263

>  <Genealogy>  (2) 
Cc1cc(C[N-]C(=O)CCc2cccc([N-]C(=O)Cc3sc(=O)[n-]c3[O-])c2)on1 (protonated)
Cc1cc(C[N-]C(=O)CCc2cccc([N-]C(=O)Cc3sc(=O)[n-]c3[O-])c2)on1 (3D coordinates assigned)
Cc1cc(C[N-]C(=O)CCc2cccc([N-]C(=O)Cc3sc(=O)[n-]c3[O-])c2)on1 (optimized conformer: 99.0767523685263 kcal/mol)

>  <smiles>  (2) 
Cc1cc(CNC(=O)CCc2cccc(NC(=O)Cc3sc(=O)[nH]c3O)c2)on1

>  <score_type>  (2) 
oracle

>  <origin>  (2) 
adg

>  <m_score__min__energy>  (2) 
-18.75

>  <m_primary>  (2) 
energy

$$$$
2:0
     RDKit          3D

 76 80  0  0  0  0  0  0  0  0999 V2000
   56.7090   19.8690   45.5510 C   0  0  0  0  0  0  0  0  0  0  0  0
   56.6520   21.1670   44.8010 C   0  0  0  0  0  0  0  0  0  0  0  0
   56.6310   21.1640   43.3990 C   0  0  0  0  0  0  0  0  0  0  0  0
   56.6100   22.3680   42.6940 C   0  0  0  0  0  0  0  0  0  0  0  0
   56.6090   23.5850   43.3820 C   0  0  0  0  0  0  0  0  0  0  0  0
   56.6250   23.6110   44.7880 C   0  0  0  0  0  0  0  0  0  0  0  0
   56.6170   24.9180   45.4980 C   0  0  0  0  0  0  0  0  0  0  0  0
   55.5260   25.3390   45.9780 O   0  0  0  0  0  0  0  0  0  0  0  0
   57.8180   25.7160   45.6510 N   0  0  2  0  0  0  0  0  0  0  0  0
   57.7470   26.5540   46.8840 C   0  0  0  0  0  0  0  0  0  0  0  0
   57.5170   28.0370   46.5700 C   0  0  0  0  0  0  0  0  0  0  0  0
   58.7180   28.6210   45.7550 C   0  0  1  0  0  0  0  0  0  0  0  0
   58.2240   29.9460   45.1210 C   0  0  0  0  0  0  0  0  0  0  0  0
   59.9460   28.8280   46.6050 N   0  0  0  0  0  0  0  0  0  0  0  0
   61.0730   29.5750   45.9750 C   0  0  0  0  0  0  0  0  0  0  0  0
   61.5650   30.7790   46.8050 C   0  0  0  0  0  0  0  0  0  0  0  0
   60.3920   31.4980   47.5010 C   0  0  0  0  0  0  0  0  0  0  0  0
   60.8290   32.7060   48.2390 N   0  0  0  0  0  0  0  0  0  0  0  0
   60.0220   33.9390   48.3230 C   0  0  0  0  0  0  0  0  0  0  0  0
   59.1230   34.0780   47.1260 C   0  0  0  0  0  0  0  0  0  0  0  0
   59.5680   34.7880   45.9960 C   0  0  0  0  0  0  0  0  0  0  0  0
   58.7580   34.8780   44.8590 C   0  0  0  0  0  0  0  0  0  0  0  0
   57.5020   34.2660   44.8430 C   0  0  0  0  0  0  0  0  0  0  0  0
   57.0520   33.5640   45.9640 C   0  0  0  0  0  0  0  0  0  0  0  0
   57.8570   33.4710   47.1030 C   0  0  0  0  0  0  0  0  0  0  0  0
   62.1130   32.6900   48.8890 C   0  0  0  0  0  0  0  0  0  0  0  0
   62.2330   32.1900   50.1960 C   0  0  0  0  0  0  0  0  0  0  0  0
   63.4770   32.1750   50.8340 C   0  0  0  0  0  0  0  0  0  0  0  0
   64.6080   32.6620   50.1720 C   0  0  0  0  0  0  0  0  0  0  0  0
   64.4960   33.1650   48.8730 C   0  0  0  0  0  0  0  0  0  0  0  0
   63.2530   33.1820   48.2330 C   0  0  0  0  0  0  0  0  0  0  0  0
   59.5790   30.5340   48.4030 C   0  0  0  0  0  0  0  0  0  0  0  0
   59.8350   29.0590   48.0650 C   0  0  0  0  0  0  0  0  0  0  0  0
   59.0910   27.6030   44.6160 C   0  0  0  0  0  0  0  0  0  0  0  0
   58.0500   26.4900   44.4040 C   0  0  0  0  0  0  0  0  0  0  0  0
   56.6640   22.3910   45.4910 C   0  0  0  0  0  0  0  0  0  0  0  0
   56.7002   20.0697   46.6325 H   0  0  0  0  0  0  0  0  0  0  0  0
   55.8370   19.2534   45.2852 H   0  0  0  0  0  0  0  0  0  0  0  0
   57.6316   19.3322   45.2852 H   0  0  0  0  0  0  0  0  0  0  0  0
   56.6311   20.2091   42.8529 H   0  0  0  0  0  0  0  0  0  0  0  0
   56.5942   22.3595   41.5941 H   0  0  0  0  0  0  0  0  0  0  0  0
   56.5956   24.5299   42.8190 H   0  0  0  0  0  0  0  0  0  0  0  0
   58.6370   25.0760   45.7790 H   0  0  0  0  0  0  0  0  0  0  0  0
   56.9175   26.1925   47.5096 H   0  0  0  0  0  0  0  0  0  0  0  0
   58.7120   26.4671   47.4048 H   0  0  0  0  0  0  0  0  0  0  0  0
   56.5946   28.1426   45.9801 H   0  0  0  0  0  0  0  0  0  0  0  0
   57.4291   28.5901   47.5168 H   0  0  0  0  0  0  0  0  0  0  0  0
   57.9589   30.6570   45.9173 H   0  0  0  0  0  0  0  0  0  0  0  0
   59.0228   30.3745   44.4978 H   0  0  0  0  0  0  0  0  0  0  0  0
   57.3397   29.7470   44.4978 H   0  0  0  0  0  0  0  0  0  0  0  0
   61.9153   28.8809   45.8383 H   0  0  0  0  0  0  0  0  0  0  0  0
   60.6978   29.9757   45.0218 H   0  0  0  0  0  0  0  0  0  0  0  0
   62.2708   30.4224   47.5696 H   0  0  0  0  0  0  0  0  0  0  0  0
   62.0543   31.4920   46.1251 H   0  0  0  0  0  0  0  0  0  0  0  0
   59.7178   31.8440   46.7036 H   0  0  0  0  0  0  0  0  0  0  0  0
   59.4057   33.9040   49.2335 H   0  0  0  0  0  0  0  0  0  0  0  0
   60.7033   34.8021   48.3513 H   0  0  0  0  0  0  0  0  0  0  0  0
   60.5550   35.2735   46.0065 H   0  0  0  0  0  0  0  0  0  0  0  0
   59.1104   35.4315   43.9761 H   0  0  0  0  0  0  0  0  0  0  0  0
   56.8672   34.3369   43.9474 H   0  0  0  0  0  0  0  0  0  0  0  0
   56.0625   33.0836   45.9503 H   0  0  0  0  0  0  0  0  0  0  0  0
   57.4974   32.9202   47.9846 H   0  0  0  0  0  0  0  0  0  0  0  0
   61.3443   31.8085   50.7200 H   0  0  0  0  0  0  0  0  0  0  0  0
   63.5658   31.7800   51.8568 H   0  0  0  0  0  0  0  0  0  0  0  0
   65.5867   32.6492   50.6740 H   0  0  0  0  0  0  0  0  0  0  0  0
   65.3867   33.5480   48.3535 H   0  0  0  0  0  0  0  0  0  0  0  0
   63.1678   33.5822   47.2119 H   0  0  0  0  0  0  0  0  0  0  0  0
   59.8606   30.7099   49.4517 H   0  0  0  0  0  0  0  0  0  0  0  0
   58.5113   30.7362   48.2324 H   0  0  0  0  0  0  0  0  0  0  0  0
   60.7729   28.7435   48.5455 H   0  0  0  0  0  0  0  0  0  0  0  0
   58.9787   28.4754   48.4341 H   0  0  0  0  0  0  0  0  0  0  0  0
   59.1965   28.1615   43.6742 H   0  0  0  0  0  0  0  0  0  0  0  0
   60.0249   27.1100   44.9239 H   0  0  0  0  0  0  0  0  0  0  0  0
   57.1009   26.9447   44.0838 H   0  0  0  0  0  0  0  0  0  0  0  0
   58.4330   25.8011   43.6367 H   0  0  0  0  0  0  0  0  0  0  0  0
   56.7042   22.3965   46.5903 H   0  0  0  0  0  0  0  0  0  0  0  0
  1  2  1  0
  2  3  2  0
  3  4  1  0
  4  5  2  0
  5  6  1  0
  6  7  1  0
  7  8  2  0
  7  9  1  0
  9 10  1  0
 10 11  1  0
 11 12  1  0
 12 13  1  6
 12 14  1  0
 14 15  1  0
 15 16  1  0
 16 17  1  0
 17 18  1  0
 18 19  1  0
 19 20  1  0
 20 21  2  0
 21 22  1  0
 22 23  2  0
 23 24  1  0
 24 25  2  0
 18 26  1  0
 26 27  2  0
 27 28  1  0
 28 29  2  0
 29 30  1  0
 30 31  2  0
 17 32  1  0
 32 33  1  0
 12 34  1  0
 34 35  1  0
  6 36  2  0
 36  2  1  0
 35  9  1  0
 33 14  1  0
 25 20  1  0
 31 26  1  0
  1 37  1  0
  1 38  1  0
  1 39  1  0
  3 40  1  0
  4 41  1  0
  5 42  1  0
  9 43  1  1
 10 44  1  0
 10 45  1  0
 11 46  1  0
 11 47  1  0
 13 48  1  0
 13 49  1  0
 13 50  1  0
 15 51  1  0
 15 52  1  0
 16 53  1  0
 16 54  1  0
 17 55  1  0
 19 56  1  0
 19 57  1  0
 21 58  1  0
 22 59  1  0
 23 60  1  0
 24 61  1  0
 25 62  1  0
 27 63  1  0
 28 64  1  0
 29 65  1  0
 30 66  1  0
 31 67  1  0
 32 68  1  0
 32 69  1  0
 33 70  1  0
 33 71  1  0
 34 72  1  0
 34 73  1  0
 35 74  1  0
 35 75  1  0
 36 76  1  0
M  CHG  1   9   1
M  END
>  <UniqueID>  (3) 
2

>  <SMILES>  (3) 
Cc1cccc(C(=O)[NH+]2CCC(C)(N3CCC(N(Cc4ccccc4)c4ccccc4)CC3)CC2)c1

>  <Energy>  (3) 
122.73613930471524

>  <Genealogy>  (3) 
Cc1cccc(C(=O)[NH+]2CCC(C)(N3CCC(N(Cc4ccccc4)c4ccccc4)CC3)CC2)c1 (protonated)
Cc1cccc(C(=O)[NH+]2CCC(C)(N3CCC(N(Cc4ccccc4)c4ccccc4)CC3)CC2)c1 (3D coordinates assigned)
Cc1cccc(C(=O)[NH+]2CCC(C)(N3CCC(N(Cc4ccccc4)c4ccccc4)CC3)CC2)c1 (nonaromatic ring conformer: 122.73613930471524 kcal/mol)

>  <smiles>  (3) 
Cc1cccc(C(=O)N2CCC(C)(N3CCC(N(Cc4ccccc4)c4ccccc4)CC3)CC2)c1

>  <score_type>  (3) 
oracle

>  <origin>  (3) 
adg

>  <m_score__min__energy>  (3) 
-8.7799999999999994

>  <m_primary>  (3) 
energy

$$$$
3:0
     RDKit          3D

 44 46  0  0  0  0  0  0  0  0999 V2000
   54.8140   26.3400   45.9980 N   0  0  0  0  0  0  0  0  0  0  0  0
   56.0300   25.8410   46.5550 C   0  0  0  0  0  0  0  0  0  0  0  0
   56.0240   24.7340   47.1570 O   0  0  0  0  0  0  0  0  0  0  0  0
   57.2760   26.6360   46.4580 C   0  0  0  0  0  0  0  0  0  0  0  0
   58.4460   26.1330   47.0580 C   0  0  0  0  0  0  0  0  0  0  0  0
   59.6690   26.7860   46.8900 C   0  0  0  0  0  0  0  0  0  0  0  0
   59.7450   27.9460   46.1140 C   0  0  0  0  0  0  0  0  0  0  0  0
   58.5920   28.4710   45.5300 C   0  0  0  0  0  0  0  0  0  0  0  0
   57.3500   27.8490   45.7190 C   0  0  0  0  0  0  0  0  0  0  0  0
   56.1920   28.4830   45.1580 N   0  0  0  0  0  0  0  0  0  0  0  0
   56.2340   29.4800   44.1290 C   0  0  0  0  0  0  0  0  0  0  0  0
   56.3210   29.1460   42.9160 O   0  0  0  0  0  0  0  0  0  0  0  0
   56.1400   30.9290   44.4940 C   0  0  0  0  0  0  0  0  0  0  0  0
   57.3550   31.6840   44.0230 C   0  0  0  0  0  0  0  0  0  0  0  0
   57.4690   31.9380   42.7930 O   0  0  0  0  0  0  0  0  0  0  0  0
   58.3250   32.2220   44.9430 N   0  0  0  0  0  0  0  0  0  0  0  0
   59.1070   31.3520   45.5890 N   0  0  0  0  0  0  0  0  0  0  0  0
   60.0590   31.7420   46.4740 C   0  0  0  0  0  0  0  0  0  0  0  0
   60.2520   33.1050   46.7400 C   0  0  0  0  0  0  0  0  0  0  0  0
   61.2690   33.5510   47.6680 N   0  0  0  0  0  0  0  0  0  0  0  0
   62.6990   33.4750   47.4050 C   0  0  0  0  0  0  0  0  0  0  0  0
   63.3840   33.8630   48.7080 C   0  0  0  0  0  0  0  0  0  0  0  0
   62.3220   34.5710   49.5360 C   0  0  0  0  0  0  0  0  0  0  0  0
   60.9830   34.1010   48.9840 C   0  0  0  0  0  0  0  0  0  0  0  0
   59.4200   34.0220   46.0830 C   0  0  0  0  0  0  0  0  0  0  0  0
   58.4460   33.5660   45.1930 C   0  0  0  0  0  0  0  0  0  0  0  0
   57.6710   34.4030   44.6580 O   0  0  0  0  0  0  0  0  0  0  0  0
   54.7840   26.7230   45.0250 H   0  0  0  0  0  0  0  0  0  0  0  0
   58.3964   25.2169   47.6649 H   0  0  0  0  0  0  0  0  0  0  0  0
   60.5747   26.3864   47.3696 H   0  0  0  0  0  0  0  0  0  0  0  0
   60.7138   28.4449   45.9638 H   0  0  0  0  0  0  0  0  0  0  0  0
   58.6580   29.3811   44.9157 H   0  0  0  0  0  0  0  0  0  0  0  0
   55.2438   31.3608   44.0246 H   0  0  0  0  0  0  0  0  0  0  0  0
   56.0789   31.0113   45.5892 H   0  0  0  0  0  0  0  0  0  0  0  0
   60.6790   30.9890   46.9825 H   0  0  0  0  0  0  0  0  0  0  0  0
   62.9808   32.4522   47.1144 H   0  0  0  0  0  0  0  0  0  0  0  0
   62.9939   34.1402   46.5800 H   0  0  0  0  0  0  0  0  0  0  0  0
   63.7454   32.9665   49.2332 H   0  0  0  0  0  0  0  0  0  0  0  0
   64.2577   34.5075   48.5313 H   0  0  0  0  0  0  0  0  0  0  0  0
   62.4168   34.2956   50.5967 H   0  0  0  0  0  0  0  0  0  0  0  0
   62.4236   35.6646   49.4746 H   0  0  0  0  0  0  0  0  0  0  0  0
   60.5495   33.3286   49.6362 H   0  0  0  0  0  0  0  0  0  0  0  0
   60.2555   34.9243   48.9298 H   0  0  0  0  0  0  0  0  0  0  0  0
   59.5345   35.1002   46.2686 H   0  0  0  0  0  0  0  0  0  0  0  0
  1  2  1  0
  2  3  2  0
  2  4  1  0
  4  5  2  0
  5  6  1  0
  6  7  2  0
  7  8  1  0
  8  9  2  0
  9 10  1  0
 10 11  1  0
 11 12  2  0
 11 13  1  0
 13 14  1  0
 14 15  2  0
 14 16  1  0
 16 17  1  0
 17 18  2  0
 18 19  1  0
 19 20  1  0
 20 21  1  0
 21 22  1  0
 22 23  1  0
 23 24  1  0
 19 25  2  0
 25 26  1  0
 26 27  2  0
  9  4  1  0
 26 16  1  0
 24 20  1  0
  1 28  1  0
  5 29  1  0
  6 30  1  0
  7 31  1  0
  8 32  1  0
 13 33  1  0
 13 34  1  0
 18 35  1  0
 21 36  1  0
 21 37  1  0
 22 38  1  0
 22 39  1  0
 23 40  1  0
 23 41  1  0
 24 42  1  0
 24 43  1  0
 25 44  1  0
M  CHG  2   1  -1  10  -1
M  END
>  <UniqueID>  (4) 
3

>  <SMILES>  (4) 
[NH-]C(=O)c1ccccc1[N-]C(=O)CC(=O)n1ncc(N2CCCC2)cc1=O

>  <Energy>  (4) 
61.31866620047946

>  <Genealogy>  (4) 
[NH-]C(=O)c1ccccc1[N-]C(=O)CC(=O)n1ncc(N2CCCC2)cc1=O (protonated)
[NH-]C(=O)c1ccccc1[N-]C(=O)CC(=O)n1ncc(N2CCCC2)cc1=O (3D coordinates assigned)
[NH-]C(=O)c1ccccc1[N-]C(=O)CC(=O)n1ncc(N2CCCC2)cc1=O (nonaromatic ring conformer: 61.31866620047946 kcal/mol)

>  <smiles>  (4) 
NC(=O)c1ccccc1NC(=O)CC(=O)n1ncc(N2CCCC2)cc1=O

>  <score_type>  (4) 
oracle

>  <origin>  (4) 
adg

>  <m_score__min__energy>  (4) 
-13.789999999999999

>  <m_primary>  (4) 
energy

$$$$
4:0
     RDKit          3D

 47 50  0  0  0  0  0  0  0  0999 V2000
   51.7710   32.0950   49.1800 H   0  0  0  0  0  0  0  0  0  0  0  0
   51.3790   32.7030   49.8880 O   0  0  0  0  0  0  0  0  0  0  0  0
   51.2500   32.2690   51.2030 C   0  0  0  0  0  0  0  0  0  0  0  0
   50.3220   32.7280   52.0600 N   0  0  0  0  0  0  0  0  0  0  0  0
   50.6060   32.0520   53.1930 C   0  0  0  0  0  0  0  0  0  0  0  0
   49.9530   32.2070   54.2570 O   0  0  0  0  0  0  0  0  0  0  0  0
   51.6540   31.2050   53.1000 N   0  0  0  0  0  0  0  0  0  0  0  0
   52.0400   31.3290   51.8170 C   0  0  0  0  0  0  0  0  0  0  0  0
   53.2450   30.7090   51.2420 C   0  0  0  0  0  0  0  0  0  0  0  0
   53.2195   30.4588   50.1711 H   0  0  0  0  0  0  0  0  0  0  0  0
   54.3750   30.4220   51.9140 C   0  0  0  0  0  0  0  0  0  0  0  0
   55.5870   31.0400   51.6570 C   0  0  0  0  0  0  0  0  0  0  0  0
   55.7983   31.7800   50.8710 H   0  0  0  0  0  0  0  0  0  0  0  0
   56.4780   30.5390   52.5880 C   0  0  0  0  0  0  0  0  0  0  0  0
   57.8770   30.9590   52.7840 C   0  0  0  0  0  0  0  0  0  0  0  0
   58.3922   30.5828   53.6801 H   0  0  0  0  0  0  0  0  0  0  0  0
   58.5840   31.7660   51.9600 C   0  0  0  0  0  0  0  0  0  0  0  0
   59.1010   33.0990   52.3560 C   0  0  0  0  0  0  0  0  0  0  0  0
   58.6690   33.6950   53.3770 O   0  0  0  0  0  0  0  0  0  0  0  0
   60.0470   33.7660   51.5240 N   0  0  0  0  0  0  0  0  0  0  0  0
   60.4200   33.2450   50.2510 C   0  0  0  0  0  0  0  0  0  0  0  0
   61.2990   33.8490   49.5790 O   0  0  0  0  0  0  0  0  0  0  0  0
   59.7920   32.0530   49.7380 N   0  0  0  0  0  0  0  0  0  0  0  0
   60.1830   31.5090   48.4270 C   0  0  0  0  0  0  0  0  0  0  0  0
   60.9626   32.1506   47.9905 H   0  0  0  0  0  0  0  0  0  0  0  0
   60.5591   30.4857   48.5730 H   0  0  0  0  0  0  0  0  0  0  0  0
   58.9850   31.4540   47.4680 C   0  0  0  0  0  0  0  0  0  0  0  0
   59.0824   30.5659   46.8263 H   0  0  0  0  0  0  0  0  0  0  0  0
   58.0655   31.4061   48.0699 H   0  0  0  0  0  0  0  0  0  0  0  0
   58.9130   32.6800   46.5970 C   0  0  0  0  0  0  0  0  0  0  0  0
   59.5360   33.8720   47.0010 C   0  0  0  0  0  0  0  0  0  0  0  0
   60.0478   33.9206   47.9735 H   0  0  0  0  0  0  0  0  0  0  0  0
   59.5080   34.9980   46.1710 C   0  0  0  0  0  0  0  0  0  0  0  0
   59.9929   35.9309   46.4944 H   0  0  0  0  0  0  0  0  0  0  0  0
   58.8650   34.9390   44.9320 C   0  0  0  0  0  0  0  0  0  0  0  0
   58.8419   35.8258   44.2815 H   0  0  0  0  0  0  0  0  0  0  0  0
   58.2510   33.7530   44.5190 C   0  0  0  0  0  0  0  0  0  0  0  0
   57.7483   33.7061   43.5417 H   0  0  0  0  0  0  0  0  0  0  0  0
   58.2750   32.6270   45.3460 C   0  0  0  0  0  0  0  0  0  0  0  0
   57.7924   31.6951   45.0164 H   0  0  0  0  0  0  0  0  0  0  0  0
   58.8440   31.3370   50.5600 C   0  0  0  0  0  0  0  0  0  0  0  0
   58.2500   30.3270   50.0900 O   0  0  0  0  0  0  0  0  0  0  0  0
   55.8770   29.6610   53.3560 O   0  0  0  0  0  0  0  0  0  0  0  0
   54.6290   29.5330   52.9670 C   0  0  0  0  0  0  0  0  0  0  0  0
   53.8210   28.6140   53.5000 C   0  0  0  0  0  0  0  0  0  0  0  0
   52.7801   28.5299   53.1543 H   0  0  0  0  0  0  0  0  0  0  0  0
   54.1960   27.9408   54.2849 H   0  0  0  0  0  0  0  0  0  0  0  0
  1  2  1  0
  2  3  1  0
  3  4  1  0
  4  5  1  0
  5  6  2  0
  5  7  1  0
  7  8  1  0
  8  9  1  0
  9 10  1  0
  9 11  2  3
 11 12  1  0
 12 13  1  0
 12 14  2  0
 14 15  1  0
 15 16  1  0
 15 17  2  0
 17 18  1  0
 18 19  2  0
 18 20  1  0
 20 21  1  0
 21 22  2  0
 21 23  1  0
 23 24  1  0
 24 25  1  0
 24 26  1  0
 24 27  1  0
 27 28  1  0
 27 29  1  0
 27 30  1  0
 30 31  2  0
 31 32  1  0
 31 33  1  0
 33 34  1  0
 33 35  2  0
 35 36  1  0
 35 37  1  0
 37 38  1  0
 37 39  2  0
 39 40  1  0
 23 41  1  0
 41 42  2  0
 14 43  1  0
 43 44  1  0
 44 45  2  0
 45 46  1  0
 45 47  1  0
  8  3  2  0
 44 11  1  0
 41 17  1  0
 39 30  1  0
M  CHG  3   4  -1   7  -1  20  -1
M  END
>  <UniqueID>  (5) 
4

>  <SMILES>  (5) 
C=c1oc(/C=C2\C(=O)[N-]C(=O)N(CCc3ccccc3)C2=O)cc1=Cc1[n-]c(=O)[n-]c1O

>  <Energy>  (5) 
123.10223285813919

>  <Genealogy>  (5) 
C=c1oc(C=C2C(=O)[N-]C(=O)N(CCc3ccccc3)C2=O)cc1=Cc1[n-]c(=O)[n-]c1O (protonated)
C=c1oc(/C=C2\C(=O)[N-]C(=O)N(CCc3ccccc3)C2=O)cc1=Cc1[n-]c(=O)[n-]c1O (cis-trans isomerization)
C=c1oc(/C=C2\C(=O)[N-]C(=O)N(CCc3ccccc3)C2=O)cc1=Cc1[n-]c(=O)[n-]c1O (3D coordinates assigned)
C=c1oc(/C=C2\C(=O)[N-]C(=O)N(CCc3ccccc3)C2=O)cc1=Cc1[n-]c(=O)[n-]c1O (nonaromatic ring conformer: 123.10223285813919 kcal/mol)

>  <smiles>  (5) 
C=c1oc(C=C2C(=O)NC(=O)N(CCc3ccccc3)C2=O)cc1=Cc1[nH]c(=O)[nH]c1O

>  <score_type>  (5) 
oracle

>  <origin>  (5) 
adg

>  <m_score__min__energy>  (5) 
-15.390000000000001

>  <m_primary>  (5) 
energy

$$$$
5:0
     RDKit          3D

 50 53  0  0  0  0  0  0  0  0999 V2000
   54.8420   23.6450   47.6130 H   0  0  0  0  0  0  0  0  0  0  0  0
   54.6550   24.0250   46.6580 N   0  0  0  0  0  0  0  0  0  0  0  0
   55.5310   24.7030   45.9850 C   0  0  0  0  0  0  0  0  0  0  0  0
   55.8400   25.9670   46.3810 N   0  0  0  0  0  0  0  0  0  0  0  0
   56.7500   26.7280   45.7190 C   0  0  0  0  0  0  0  0  0  0  0  0
   56.9785   27.7431   46.0759 H   0  0  0  0  0  0  0  0  0  0  0  0
   57.3990   26.2250   44.5830 C   0  0  0  0  0  0  0  0  0  0  0  0
   58.4350   27.0450   43.8650 C   0  0  0  0  0  0  0  0  0  0  0  0
   59.4266   26.5954   44.0219 H   0  0  0  0  0  0  0  0  0  0  0  0
   58.1961   27.0639   42.7914 H   0  0  0  0  0  0  0  0  0  0  0  0
   58.4400   28.4550   44.3910 C   0  0  0  0  0  0  0  0  0  0  0  0
   59.4660   28.8880   45.2460 C   0  0  0  0  0  0  0  0  0  0  0  0
   60.2859   28.2035   45.5090 H   0  0  0  0  0  0  0  0  0  0  0  0
   59.4490   30.1860   45.7640 C   0  0  0  0  0  0  0  0  0  0  0  0
   60.2660   30.5226   46.4191 H   0  0  0  0  0  0  0  0  0  0  0  0
   58.4010   31.0610   45.4560 C   0  0  0  0  0  0  0  0  0  0  0  0
   58.4290   32.3590   45.9860 O   0  0  0  0  0  0  0  0  0  0  0  0
   58.7800   32.6920   47.3020 C   0  0  0  0  0  0  0  0  0  0  0  0
   59.3220   33.9160   47.5430 N   0  0  0  0  0  0  0  0  0  0  0  0
   59.7120   34.3020   48.7860 C   0  0  0  0  0  0  0  0  0  0  0  0
   60.1281   35.3082   48.9422 H   0  0  0  0  0  0  0  0  0  0  0  0
   59.5860   33.4230   49.8690 C   0  0  0  0  0  0  0  0  0  0  0  0
   60.0280   33.8350   51.2140 C   0  0  0  0  0  0  0  0  0  0  0  0
   59.2590   34.5380   51.9210 O   0  0  0  0  0  0  0  0  0  0  0  0
   61.3230   33.4950   51.7280 N   0  0  0  0  0  0  0  0  0  0  0  0
   62.6040   33.8660   51.1270 C   0  0  0  0  0  0  0  0  0  0  0  0
   62.6801   34.9627   51.0880 H   0  0  0  0  0  0  0  0  0  0  0  0
   63.4158   33.4478   51.7402 H   0  0  0  0  0  0  0  0  0  0  0  0
   62.7190   33.3130   49.7310 C   0  0  0  0  0  0  0  0  0  0  0  0
   63.0410   34.1530   48.6530 C   0  0  0  0  0  0  0  0  0  0  0  0
   63.1929   35.2302   48.8158 H   0  0  0  0  0  0  0  0  0  0  0  0
   63.1670   33.6100   47.3720 C   0  0  0  0  0  0  0  0  0  0  0  0
   63.4251   34.2600   46.5230 H   0  0  0  0  0  0  0  0  0  0  0  0
   62.9710   32.2790   47.1730 N   0  0  0  0  0  0  0  0  0  0  0  0
   62.6510   31.4450   48.1970 C   0  0  0  0  0  0  0  0  0  0  0  0
   62.4956   30.3733   48.0037 H   0  0  0  0  0  0  0  0  0  0  0  0
   62.5190   31.9450   49.4940 C   0  0  0  0  0  0  0  0  0  0  0  0
   62.2601   31.2710   50.3239 H   0  0  0  0  0  0  0  0  0  0  0  0
   59.0260   32.1590   49.6490 C   0  0  0  0  0  0  0  0  0  0  0  0
   58.8963   31.4611   50.4893 H   0  0  0  0  0  0  0  0  0  0  0  0
   58.6320   31.7840   48.3630 C   0  0  0  0  0  0  0  0  0  0  0  0
   58.2089   30.7848   48.1823 H   0  0  0  0  0  0  0  0  0  0  0  0
   57.3790   30.6320   44.5900 C   0  0  0  0  0  0  0  0  0  0  0  0
   56.5647   31.3206   44.3201 H   0  0  0  0  0  0  0  0  0  0  0  0
   57.3940   29.3340   44.0710 C   0  0  0  0  0  0  0  0  0  0  0  0
   56.5818   29.0001   43.4085 H   0  0  0  0  0  0  0  0  0  0  0  0
   57.1050   24.9190   44.1630 C   0  0  0  0  0  0  0  0  0  0  0  0
   57.6144   24.4974   43.2839 H   0  0  0  0  0  0  0  0  0  0  0  0
   56.1680   24.1540   44.8580 C   0  0  0  0  0  0  0  0  0  0  0  0
   55.8880   22.8930   44.4390 F   0  0  0  0  0  0  0  0  0  0  0  0
  1  2  1  0
  2  3  2  0
  3  4  1  0
  4  5  1  0
  5  6  1  0
  5  7  2  0
  7  8  1  0
  8  9  1  0
  8 10  1  0
  8 11  1  0
 11 12  2  0
 12 13  1  0
 12 14  1  0
 14 15  1  0
 14 16  2  0
 16 17  1  0
 17 18  1  0
 18 19  2  0
 19 20  1  0
 20 21  1  0
 20 22  2  0
 22 23  1  0
 23 24  2  0
 23 25  1  0
 25 26  1  0
 26 27  1  0
 26 28  1  0
 26 29  1  0
 29 30  2  0
 30 31  1  0
 30 32  1  0
 32 33  1  0
 32 34  2  0
 34 35  1  0
 35 36  1  0
 35 37  2  0
 37 38  1  0
 22 39  1  0
 39 40  1  0
 39 41  2  0
 41 42  1  0
 16 43  1  0
 43 44  1  0
 43 45  2  0
 45 46  1  0
  7 47  1  0
 47 48  1  0
 47 49  2  0
 49 50  1  0
 49  3  1  0
 45 11  1  0
 41 18  1  0
 37 29  1  0
M  CHG  2   4  -1  25  -1
M  END
>  <UniqueID>  (6) 
5

>  <SMILES>  (6) 
[H]/N=c1/[n-]cc(Cc2ccc(Oc3ccc(C(=O)[N-]Cc4ccncc4)cn3)cc2)cc1F

>  <Energy>  (6) 
65.53390450700485

>  <Genealogy>  (6) 
N=c1[n-]cc(Cc2ccc(Oc3ccc(C(=O)[N-]Cc4ccncc4)cn3)cc2)cc1F (protonated)
[H]/N=c1/[n-]cc(Cc2ccc(Oc3ccc(C(=O)[N-]Cc4ccncc4)cn3)cc2)cc1F (cis-trans isomerization)
[H]/N=c1/[n-]cc(Cc2ccc(Oc3ccc(C(=O)[N-]Cc4ccncc4)cn3)cc2)cc1F (3D coordinates assigned)
[H]/N=c1/[n-]cc(Cc2ccc(Oc3ccc(C(=O)[N-]Cc4ccncc4)cn3)cc2)cc1F (optimized conformer: 65.53390450700485 kcal/mol)

>  <smiles>  (6) 
N=c1[nH]cc(Cc2ccc(Oc3ccc(C(=O)NCc4ccncc4)cn3)cc2)cc1F

>  <score_type>  (6) 
oracle

>  <origin>  (6) 
adg

>  <m_score__min__energy>  (6) 
-11.539999999999999

>  <m_primary>  (6) 
energy

$$$$
6:0
     RDKit          3D

 52 55  0  0  0  0  0  0  0  0999 V2000
   58.1410   21.6250   44.3240 C   0  0  0  0  0  0  0  0  0  0  0  0
   58.2620   22.8780   44.7810 C   0  0  0  0  0  0  0  0  0  0  0  0
   59.3160   23.2580   45.5320 N   0  0  0  0  0  0  0  0  0  0  0  0
   59.2550   24.5930   45.6640 C   0  0  0  0  0  0  0  0  0  0  0  0
   60.2950   25.4010   46.3800 C   0  0  0  0  0  0  0  0  0  0  0  0
   58.1460   25.0950   45.0030 C   0  0  0  0  0  0  0  0  0  0  0  0
   57.7570   26.5250   44.9480 C   0  0  0  0  0  0  0  0  0  0  0  0
   57.6890   27.0950   43.8280 O   0  0  0  0  0  0  0  0  0  0  0  0
   57.4900   27.2950   46.1270 N   0  0  0  0  0  0  0  0  0  0  0  0
   58.1390   28.5070   46.5360 C   0  0  0  0  0  0  0  0  0  0  0  0
   59.1130   28.5280   47.5500 C   0  0  0  0  0  0  0  0  0  0  0  0
   59.7140   29.7330   47.9220 C   0  0  0  0  0  0  0  0  0  0  0  0
   59.3300   30.9280   47.3090 C   0  0  0  0  0  0  0  0  0  0  0  0
   58.3260   30.9290   46.3280 C   0  0  0  0  0  0  0  0  0  0  0  0
   57.8920   32.1930   45.6910 C   0  0  0  0  0  0  0  0  0  0  0  0
   56.9380   32.1670   44.8650 O   0  0  0  0  0  0  0  0  0  0  0  0
   58.5400   33.4460   45.9890 N   0  0  0  0  0  0  0  0  0  0  0  0
   58.4920   34.5260   45.0000 C   0  0  0  0  0  0  0  0  0  0  0  0
   59.6260   35.5290   45.2530 C   0  0  0  0  0  0  0  0  0  0  0  0
   59.6430   35.9510   46.6050 O   0  0  0  0  0  0  0  0  0  0  0  0
   59.9260   34.8450   47.4420 C   0  0  0  0  0  0  0  0  0  0  0  0
   58.7900   33.8230   47.3860 C   0  0  0  0  0  0  0  0  0  0  0  0
   57.7440   29.7110   45.9400 C   0  0  0  0  0  0  0  0  0  0  0  0
   57.4660   23.9940   44.4720 C   0  0  0  0  0  0  0  0  0  0  0  0
   56.2690   24.0580   43.8520 C   0  0  0  0  0  0  0  0  0  0  0  0
   54.9660   23.9960   44.5280 C   0  0  0  0  0  0  0  0  0  0  0  0
   54.1730   22.9080   44.5440 N   0  0  0  0  0  0  0  0  0  0  0  0
   53.1710   23.2680   45.3760 C   0  0  0  0  0  0  0  0  0  0  0  0
   52.2020   22.5060   45.6410 O   0  0  0  0  0  0  0  0  0  0  0  0
   53.2920   24.5050   45.9090 N   0  0  0  0  0  0  0  0  0  0  0  0
   54.4400   24.9480   45.3710 C   0  0  0  0  0  0  0  0  0  0  0  0
   54.9810   26.2010   45.6440 O   0  0  0  0  0  0  0  0  0  0  0  0
   57.2702   21.3439   43.7136 H   0  0  0  0  0  0  0  0  0  0  0  0
   58.9124   20.8769   44.5591 H   0  0  0  0  0  0  0  0  0  0  0  0
   60.0820   22.6400   45.8860 H   0  0  0  0  0  0  0  0  0  0  0  0
   60.1582   25.2947   47.4663 H   0  0  0  0  0  0  0  0  0  0  0  0
   61.2960   25.0413   46.0996 H   0  0  0  0  0  0  0  0  0  0  0  0
   60.1939   26.4598   46.0996 H   0  0  0  0  0  0  0  0  0  0  0  0
   59.4025   27.5929   48.0518 H   0  0  0  0  0  0  0  0  0  0  0  0
   60.4918   29.7408   48.6998 H   0  0  0  0  0  0  0  0  0  0  0  0
   59.8163   31.8720   47.5962 H   0  0  0  0  0  0  0  0  0  0  0  0
   58.6021   34.1002   43.9917 H   0  0  0  0  0  0  0  0  0  0  0  0
   57.5270   35.0471   45.0850 H   0  0  0  0  0  0  0  0  0  0  0  0
   60.5877   35.0515   45.0138 H   0  0  0  0  0  0  0  0  0  0  0  0
   59.4616   36.4097   44.6148 H   0  0  0  0  0  0  0  0  0  0  0  0
   60.8587   34.3675   47.1071 H   0  0  0  0  0  0  0  0  0  0  0  0
   60.0314   35.2016   48.4772 H   0  0  0  0  0  0  0  0  0  0  0  0
   59.0718   32.9294   47.9622 H   0  0  0  0  0  0  0  0  0  0  0  0
   57.8784   34.2637   47.8159 H   0  0  0  0  0  0  0  0  0  0  0  0
   56.9692   29.7028   45.1592 H   0  0  0  0  0  0  0  0  0  0  0  0
   56.2689   24.1647   42.7572 H   0  0  0  0  0  0  0  0  0  0  0  0
   55.7360   26.5810   45.0820 H   0  0  0  0  0  0  0  0  0  0  0  0
  1  2  2  0
  2  3  1  0
  3  4  1  0
  4  5  1  0
  4  6  2  0
  6  7  1  0
  7  8  2  0
  7  9  1  0
  9 10  1  0
 10 11  2  0
 11 12  1  0
 12 13  2  0
 13 14  1  0
 14 15  1  0
 15 16  2  0
 15 17  1  0
 17 18  1  0
 18 19  1  0
 19 20  1  0
 20 21  1  0
 21 22  1  0
 14 23  2  0
  6 24  1  0
 24 25  2  3
 25 26  1  0
 26 27  1  0
 27 28  1  0
 28 29  2  0
 28 30  1  0
 30 31  1  0
 31 32  1  0
 24  2  1  0
 31 26  2  0
 23 10  1  0
 22 17  1  0
  1 33  1  0
  1 34  1  0
  3 35  1  0
  5 36  1  0
  5 37  1  0
  5 38  1  0
 11 39  1  0
 12 40  1  0
 13 41  1  0
 18 42  1  0
 18 43  1  0
 19 44  1  0
 19 45  1  0
 21 46  1  0
 21 47  1  0
 22 48  1  0
 22 49  1  0
 23 50  1  0
 25 51  1  0
 32 52  1  0
M  CHG  3   9  -1  27  -1  30  -1
M  END
>  <UniqueID>  (7) 
6

>  <SMILES>  (7) 
C=c1[nH]c(C)c(C(=O)[N-]c2cccc(C(=O)N3CCOCC3)c2)c1=Cc1[n-]c(=O)[n-]c1O

>  <Energy>  (7) 
134.52619292981188

>  <Genealogy>  (7) 
C=c1[nH]c(C)c(C(=O)[N-]c2cccc(C(=O)N3CCOCC3)c2)c1=Cc1[n-]c(=O)[n-]c1O (protonated)
C=c1[nH]c(C)c(C(=O)[N-]c2cccc(C(=O)N3CCOCC3)c2)c1=Cc1[n-]c(=O)[n-]c1O (3D coordinates assigned)
C=c1[nH]c(C)c(C(=O)[N-]c2cccc(C(=O)N3CCOCC3)c2)c1=Cc1[n-]c(=O)[n-]c1O (nonaromatic ring conformer: 134.52619292981188 kcal/mol)

>  <smiles>  (7) 
C=c1[nH]c(C)c(C(=O)Nc2cccc(C(=O)N3CCOCC3)c2)c1=Cc1[nH]c(=O)[nH]c1O

>  <score_type>  (7) 
oracle

>  <origin>  (7) 
adg

>  <m_score__min__energy>  (7) 
-14.9

>  <m_primary>  (7) 
energy

$$$$
7:0
     RDKit          3D

 42 44  0  0  0  0  0  0  0  0999 V2000
   57.7316   31.3215   43.6128 H   0  0  0  0  0  0  0  0  0  0  0  0
   57.9360   30.3370   44.0590 C   0  0  0  0  0  0  0  0  0  0  0  0
   57.8049   29.4238   43.4600 H   0  0  0  0  0  0  0  0  0  0  0  0
   58.3460   30.2500   45.3360 C   0  0  0  0  0  0  0  0  0  0  0  0
   58.6400   29.0680   46.0250 C   0  0  0  0  0  0  0  0  0  0  0  0
   58.4930   27.8040   45.5810 C   0  0  0  0  0  0  0  0  0  0  0  0
   59.3253   27.3536   45.0202 H   0  0  0  0  0  0  0  0  0  0  0  0
   57.2850   26.9880   45.8010 C   0  0  0  0  0  0  0  0  0  0  0  0
   57.3140   25.7620   46.3500 N   0  0  0  0  0  0  0  0  0  0  0  0
   56.0080   25.4270   46.4420 C   0  0  0  0  0  0  0  0  0  0  0  0
   55.6220   24.3220   46.9040 O   0  0  0  0  0  0  0  0  0  0  0  0
   55.1490   26.3740   46.0100 N   0  0  0  0  0  0  0  0  0  0  0  0
   55.9710   27.3620   45.6180 C   0  0  0  0  0  0  0  0  0  0  0  0
   55.5250   28.5910   45.1510 O   0  0  0  0  0  0  0  0  0  0  0  0
   59.0730   29.4500   47.2850 C   0  0  0  0  0  0  0  0  0  0  0  0
   59.3935   28.7837   48.0995 H   0  0  0  0  0  0  0  0  0  0  0  0
   59.0240   30.8270   47.3190 C   0  0  0  0  0  0  0  0  0  0  0  0
   59.4230   31.6260   48.4930 C   0  0  0  0  0  0  0  0  0  0  0  0
   58.5550   32.3600   49.0380 O   0  0  0  0  0  0  0  0  0  0  0  0
   60.8080   31.6680   48.9220 N   0  0  0  0  0  0  0  0  0  0  0  0
   60.9860   30.8160   49.5060 H   0  0  0  0  0  0  0  0  0  0  0  0
   61.7300   31.5770   47.7690 C   0  0  0  0  0  0  0  0  0  0  0  0
   62.7108   31.2296   48.1258 H   0  0  0  0  0  0  0  0  0  0  0  0
   61.2966   30.8727   47.0437 H   0  0  0  0  0  0  0  0  0  0  0  0
   61.9100   32.9290   47.0650 C   0  0  0  0  0  0  0  0  0  0  0  0
   62.6528   32.8223   46.2607 H   0  0  0  0  0  0  0  0  0  0  0  0
   60.9424   33.2447   46.6479 H   0  0  0  0  0  0  0  0  0  0  0  0
   62.3540   33.9080   47.9810 O   0  0  0  0  0  0  0  0  0  0  0  0
   61.3580   34.1220   48.9590 C   0  0  0  0  0  0  0  0  0  0  0  0
   61.6874   34.9221   49.6382 H   0  0  0  0  0  0  0  0  0  0  0  0
   60.4247   34.4061   48.4509 H   0  0  0  0  0  0  0  0  0  0  0  0
   61.1000   32.8420   49.7770 C   0  0  0  0  0  0  0  0  0  0  0  0
   61.9930   32.6242   50.3813 H   0  0  0  0  0  0  0  0  0  0  0  0
   60.2170   33.0223   50.4077 H   0  0  0  0  0  0  0  0  0  0  0  0
   58.5780   31.3220   46.1400 N   0  0  0  0  0  0  0  0  0  0  0  0
   58.5410   32.7430   45.7570 C   0  0  0  0  0  0  0  0  0  0  0  0
   59.4372   33.2470   46.1479 H   0  0  0  0  0  0  0  0  0  0  0  0
   58.5140   32.8157   44.6597 H   0  0  0  0  0  0  0  0  0  0  0  0
   57.2980   33.4160   46.3270 C   0  0  0  0  0  0  0  0  0  0  0  0
   57.3400   33.3932   47.4260 H   0  0  0  0  0  0  0  0  0  0  0  0
   57.2560   34.4601   45.9832 H   0  0  0  0  0  0  0  0  0  0  0  0
   56.4008   32.8804   45.9832 H   0  0  0  0  0  0  0  0  0  0  0  0
  1  2  1  0
  2  3  1  0
  2  4  2  0
  4  5  1  0
  5  6  2  0
  6  7  1  0
  6  8  1  0
  8  9  1  0
  9 10  1  0
 10 11  2  0
 10 12  1  0
 12 13  1  0
 13 14  1  0
  5 15  1  0
 15 16  1  0
 15 17  2  0
 17 18  1  0
 18 19  2  0
 18 20  1  0
 20 21  1  0
 20 22  1  0
 22 23  1  0
 22 24  1  0
 22 25  1  0
 25 26  1  0
 25 27  1  0
 25 28  1  0
 28 29  1  0
 29 30  1  0
 29 31  1  0
 29 32  1  0
 32 33  1  0
 32 34  1  0
 17 35  1  0
 35 36  1  0
 36 37  1  0
 36 38  1  0
 36 39  1  0
 39 40  1  0
 39 41  1  0
 39 42  1  0
 35  4  1  0
 13  8  2  0
 32 20  1  0
M  CHG  4   9  -1  12  -1  14  -1  20   1
M  END
>  <UniqueID>  (8) 
7

>  <SMILES>  (8) 
C=c1/c(=C/c2[n-]c(=O)[n-]c2[O-])cc(C(=O)[NH+]2CCOCC2)n1CC

>  <Energy>  (8) 
118.91787564708758

>  <Genealogy>  (8) 
C=c1c(=Cc2[n-]c(=O)[n-]c2[O-])cc(C(=O)[NH+]2CCOCC2)n1CC (protonated)
C=c1/c(=C/c2[n-]c(=O)[n-]c2[O-])cc(C(=O)[NH+]2CCOCC2)n1CC (cis-trans isomerization)
C=c1/c(=C/c2[n-]c(=O)[n-]c2[O-])cc(C(=O)[NH+]2CCOCC2)n1CC (3D coordinates assigned)
C=c1/c(=C/c2[n-]c(=O)[n-]c2[O-])cc(C(=O)[NH+]2CCOCC2)n1CC (nonaromatic ring conformer: 118.91787564708758 kcal/mol)

>  <smiles>  (8) 
C=c1c(=Cc2[nH]c(=O)[nH]c2O)cc(C(=O)N2CCOCC2)n1CC

>  <score_type>  (8) 
oracle

>  <origin>  (8) 
adg

>  <m_score__min__energy>  (8) 
-15.06

>  <m_primary>  (8) 
energy

$$$$
8:0
     RDKit          3D

 45 47  0  0  0  0  0  0  0  0999 V2000
   59.0910   28.5600   48.5960 C   0  0  0  0  0  0  0  0  0  0  0  0
   59.3330   29.8760   48.4590 C   0  0  0  0  0  0  0  0  0  0  0  0
   59.6420   30.2960   47.2040 N   0  0  0  0  0  0  0  0  0  0  0  0
   59.9670   31.5740   46.9040 C   0  0  0  0  0  0  0  0  0  0  0  0
   59.9790   32.5510   47.8990 C   0  0  0  0  0  0  0  0  0  0  0  0
   60.3420   33.9500   47.5440 C   0  0  0  0  0  0  0  0  0  0  0  0
   61.4900   34.3950   47.8260 O   0  0  0  0  0  0  0  0  0  0  0  0
   59.4130   34.7840   46.9100 O   0  0  0  0  0  0  0  0  0  0  0  0
   58.8300   34.4740   45.6500 C   0  0  0  0  0  0  0  0  0  0  0  0
   57.4760   33.8160   45.8650 C   0  0  0  0  0  0  0  0  0  0  0  0
   59.6200   32.1820   49.2120 C   0  0  0  0  0  0  0  0  0  0  0  0
   59.4890   33.0910   50.0770 O   0  0  0  0  0  0  0  0  0  0  0  0
   59.3300   30.8210   49.5380 C   0  0  0  0  0  0  0  0  0  0  0  0
   59.0080   30.4440   50.8110 C   0  0  0  0  0  0  0  0  0  0  0  0
   57.7040   30.6460   51.4740 C   0  0  0  0  0  0  0  0  0  0  0  0
   56.7870   29.7160   51.6240 O   0  0  0  0  0  0  0  0  0  0  0  0
   55.7380   30.2500   52.2120 C   0  0  0  0  0  0  0  0  0  0  0  0
   54.4850   29.4960   52.5230 C   0  0  0  0  0  0  0  0  0  0  0  0
   53.2950   30.4010   52.3750 C   0  0  0  0  0  0  0  0  0  0  0  0
   53.0590   31.0640   51.1600 C   0  0  0  0  0  0  0  0  0  0  0  0
   51.9770   31.9410   51.0350 C   0  0  0  0  0  0  0  0  0  0  0  0
   51.1360   32.1760   52.1280 C   0  0  0  0  0  0  0  0  0  0  0  0
   50.0650   33.0530   52.0030 O   0  0  0  0  0  0  0  0  0  0  0  0
   51.3740   31.5300   53.3440 C   0  0  0  0  0  0  0  0  0  0  0  0
   52.4520   30.6480   53.4700 C   0  0  0  0  0  0  0  0  0  0  0  0
   55.9510   31.5960   52.4500 C   0  0  0  0  0  0  0  0  0  0  0  0
   57.2160   31.8410   51.9680 C   0  0  0  0  0  0  0  0  0  0  0  0
   57.8650   33.0720   51.9880 O   0  0  0  0  0  0  0  0  0  0  0  0
   58.8345   28.1478   49.5831 H   0  0  0  0  0  0  0  0  0  0  0  0
   59.1495   27.8960   47.7210 H   0  0  0  0  0  0  0  0  0  0  0  0
   60.2234   31.8444   45.8690 H   0  0  0  0  0  0  0  0  0  0  0  0
   58.6999   35.3989   45.0689 H   0  0  0  0  0  0  0  0  0  0  0  0
   59.4889   33.7852   45.1011 H   0  0  0  0  0  0  0  0  0  0  0  0
   57.2814   33.7214   46.9435 H   0  0  0  0  0  0  0  0  0  0  0  0
   56.6910   34.4331   45.4035 H   0  0  0  0  0  0  0  0  0  0  0  0
   57.4762   32.8175   45.4035 H   0  0  0  0  0  0  0  0  0  0  0  0
   59.7931   29.9434   51.3967 H   0  0  0  0  0  0  0  0  0  0  0  0
   54.3874   28.6483   51.8289 H   0  0  0  0  0  0  0  0  0  0  0  0
   54.5322   29.1252   53.5575 H   0  0  0  0  0  0  0  0  0  0  0  0
   53.7276   30.8929   50.3034 H   0  0  0  0  0  0  0  0  0  0  0  0
   51.7870   32.4464   50.0766 H   0  0  0  0  0  0  0  0  0  0  0  0
   50.7126   31.7154   54.2032 H   0  0  0  0  0  0  0  0  0  0  0  0
   52.6400   30.1460   54.4306 H   0  0  0  0  0  0  0  0  0  0  0  0
   55.2613   32.3121   52.9206 H   0  0  0  0  0  0  0  0  0  0  0  0
   58.7610   33.2030   51.5360 H   0  0  0  0  0  0  0  0  0  0  0  0
  1  2  2  0
  2  3  1  0
  3  4  1  0
  4  5  2  0
  5  6  1  0
  6  7  2  0
  6  8  1  0
  8  9  1  0
  9 10  1  0
  5 11  1  0
 11 12  2  0
 11 13  1  0
 13 14  2  3
 14 15  1  0
 15 16  1  0
 16 17  1  0
 17 18  1  0
 18 19  1  0
 19 20  2  0
 20 21  1  0
 21 22  2  0
 22 23  1  0
 22 24  1  0
 24 25  2  0
 17 26  2  0
 26 27  1  0
 27 28  1  0
 13  2  1  0
 27 15  2  0
 25 19  1  0
  1 29  1  0
  1 30  1  0
  4 31  1  0
  9 32  1  0
  9 33  1  0
 10 34  1  0
 10 35  1  0
 10 36  1  0
 14 37  1  0
 18 38  1  0
 18 39  1  0
 20 40  1  0
 21 41  1  0
 24 42  1  0
 25 43  1  0
 26 44  1  0
 28 45  1  0
M  CHG  2   3  -1  23  -1
M  END
>  <UniqueID>  (9) 
8

>  <SMILES>  (9) 
C=c1[n-]cc(C(=O)OCC)c(=O)c1=Cc1oc(Cc2ccc([O-])cc2)cc1O

>  <Energy>  (9) 
90.01101127750702

>  <Genealogy>  (9) 
C=c1[n-]cc(C(=O)OCC)c(=O)c1=Cc1oc(Cc2ccc([O-])cc2)cc1O (protonated)
C=c1[n-]cc(C(=O)OCC)c(=O)c1=Cc1oc(Cc2ccc([O-])cc2)cc1O (3D coordinates assigned)
C=c1[n-]cc(C(=O)OCC)c(=O)c1=Cc1oc(Cc2ccc([O-])cc2)cc1O (optimized conformer: 90.01101127750702 kcal/mol)

>  <smiles>  (9) 
C=c1[nH]cc(C(=O)OCC)c(=O)c1=Cc1oc(Cc2ccc(O)cc2)cc1O

>  <score_type>  (9) 
oracle

>  <origin>  (9) 
adg

>  <m_score__min__energy>  (9) 
-12.619999999999999

>  <m_primary>  (9) 
energy

$$$$
9:0
     RDKit          3D

 42 44  0  0  0  0  0  0  0  0999 V2000
   54.7840   26.1570   45.9380 N   0  0  0  0  0  0  0  0  0  0  0  0
   54.6800   24.7370   45.8740 C   0  0  0  0  0  0  0  0  0  0  0  0
   53.6190   24.1800   46.2640 O   0  0  0  0  0  0  0  0  0  0  0  0
   55.7810   23.9180   45.3060 C   0  0  0  0  0  0  0  0  0  0  0  0
   55.5150   23.1530   44.1540 C   0  0  0  0  0  0  0  0  0  0  0  0
   56.5270   22.4180   43.5310 C   0  0  0  0  0  0  0  0  0  0  0  0
   56.2610   21.6740   42.3830 O   0  0  0  0  0  0  0  0  0  0  0  0
   57.8170   22.4280   44.0580 C   0  0  0  0  0  0  0  0  0  0  0  0
   58.1020   23.1580   45.2130 C   0  0  0  0  0  0  0  0  0  0  0  0
   59.3910   23.1070   45.7380 O   0  0  0  0  0  0  0  0  0  0  0  0
   57.0940   23.9110   45.8500 C   0  0  0  0  0  0  0  0  0  0  0  0
   57.4170   24.6160   47.1130 C   0  0  0  0  0  0  0  0  0  0  0  0
   57.1950   24.0410   48.2120 O   0  0  0  0  0  0  0  0  0  0  0  0
   58.0490   25.9030   47.1240 N   0  0  0  0  0  0  0  0  0  0  0  0
   58.0560   26.8590   46.0540 C   0  0  0  0  0  0  0  0  0  0  0  0
   58.4880   26.5210   44.7590 C   0  0  0  0  0  0  0  0  0  0  0  0
   58.4780   27.4790   43.7430 C   0  0  0  0  0  0  0  0  0  0  0  0
   58.0150   28.7720   44.0000 C   0  0  0  0  0  0  0  0  0  0  0  0
   57.5340   29.1070   45.2770 C   0  0  0  0  0  0  0  0  0  0  0  0
   57.0540   30.4270   45.5800 N   0  0  0  0  0  0  0  0  0  0  0  0
   57.3580   31.6240   44.8520 C   0  0  0  0  0  0  0  0  0  0  0  0
   57.0500   31.6810   43.6320 O   0  0  0  0  0  0  0  0  0  0  0  0
   58.0700   32.7650   45.4750 C   0  0  0  0  0  0  0  0  0  0  0  0
   58.2140   32.8260   46.8730 C   0  0  0  0  0  0  0  0  0  0  0  0
   58.8810   33.9010   47.4680 C   0  0  0  0  0  0  0  0  0  0  0  0
   59.4010   34.9280   46.6770 C   0  0  0  0  0  0  0  0  0  0  0  0
   59.2490   34.8850   45.2890 C   0  0  0  0  0  0  0  0  0  0  0  0
   58.5820   33.8140   44.6900 C   0  0  0  0  0  0  0  0  0  0  0  0
   57.5690   28.1500   46.2990 C   0  0  0  0  0  0  0  0  0  0  0  0
   54.0380   26.7300   46.3910 H   0  0  0  0  0  0  0  0  0  0  0  0
   54.4965   23.1338   43.7389 H   0  0  0  0  0  0  0  0  0  0  0  0
   56.3820   22.0680   41.4570 H   0  0  0  0  0  0  0  0  0  0  0  0
   58.6152   21.8573   43.5609 H   0  0  0  0  0  0  0  0  0  0  0  0
   58.8348   25.4991   44.5458 H   0  0  0  0  0  0  0  0  0  0  0  0
   58.8358   27.2148   42.7370 H   0  0  0  0  0  0  0  0  0  0  0  0
   58.0271   29.5286   43.2016 H   0  0  0  0  0  0  0  0  0  0  0  0
   57.7997   32.0237   47.5013 H   0  0  0  0  0  0  0  0  0  0  0  0
   58.9965   33.9381   48.5613 H   0  0  0  0  0  0  0  0  0  0  0  0
   59.9300   35.7703   47.1468 H   0  0  0  0  0  0  0  0  0  0  0  0
   59.6553   35.6960   44.6668 H   0  0  0  0  0  0  0  0  0  0  0  0
   58.4563   33.7907   43.5975 H   0  0  0  0  0  0  0  0  0  0  0  0
   57.2104   28.4145   47.3047 H   0  0  0  0  0  0  0  0  0  0  0  0
  1  2  1  0
  2  3  2  0
  2  4  1  0
  4  5  2  0
  5  6  1  0
  6  7  1  0
  6  8  2  0
  8  9  1  0
  9 10  1  0
  9 11  2  0
 11 12  1  0
 12 13  2  0
 12 14  1  0
 14 15  1  0
 15 16  2  0
 16 17  1  0
 17 18  2  0
 18 19  1  0
 19 20  1  0
 20 21  1  0
 21 22  2  0
 21 23  1  0
 23 24  2  0
 24 25  1  0
 25 26  2  0
 26 27  1  0
 27 28  2  0
 19 29  2  0
 11  4  1  0
 29 15  1  0
 28 23  1  0
  1 30  1  0
  5 31  1  0
  7 32  1  0
  8 33  1  0
 16 34  1  0
 17 35  1  0
 18 36  1  0
 24 37  1  0
 25 38  1  0
 26 39  1  0
 27 40  1  0
 28 41  1  0
 29 42  1  0
M  CHG  4   1  -1  10  -1  14  -1  20  -1
M  END
>  <UniqueID>  (10) 
9

>  <SMILES>  (10) 
[NH-]C(=O)c1cc(O)cc([O-])c1C(=O)[N-]c1cccc([N-]C(=O)c2ccccc2)c1

>  <Energy>  (10) 
65.57768629975475

>  <Genealogy>  (10) 
[NH-]C(=O)c1cc(O)cc([O-])c1C(=O)[N-]c1cccc([N-]C(=O)c2ccccc2)c1 (protonated)
[NH-]C(=O)c1cc(O)cc([O-])c1C(=O)[N-]c1cccc([N-]C(=O)c2ccccc2)c1 (3D coordinates assigned)
[NH-]C(=O)c1cc(O)cc([O-])c1C(=O)[N-]c1cccc([N-]C(=O)c2ccccc2)c1 (optimized conformer: 65.57768629975475 kcal/mol)

>  <smiles>  (10) 
NC(=O)c1cc(O)cc(O)c1C(=O)Nc1cccc(NC(=O)c2ccccc2)c1

>  <score_type>  (10) 
oracle

>  <origin>  (10) 
adg

>  <m_score__min__energy>  (10) 
-17.190000000000001

>  <m_primary>  (10) 
energy

$$$$
10:0
     RDKit          3D

 57 60  0  0  0  0  0  0  0  0999 V2000
   58.1190   31.6470   50.5130 C   0  0  0  0  0  0  0  0  0  0  0  0
   59.3120   30.7370   50.4990 C   0  0  0  0  0  0  0  0  0  0  0  0
   60.5260   31.1400   51.0770 C   0  0  0  0  0  0  0  0  0  0  0  0
   61.6520   30.3050   51.0140 C   0  0  0  0  0  0  0  0  0  0  0  0
   62.9520   30.7210   51.6400 C   0  0  0  0  0  0  0  0  0  0  0  0
   61.5530   29.0570   50.3840 C   0  0  0  0  0  0  0  0  0  0  0  0
   60.3430   28.6400   49.8200 C   0  0  0  0  0  0  0  0  0  0  0  0
   60.2840   27.3740   49.1540 N   0  0  0  0  0  0  0  0  0  0  0  0
   60.0670   27.1710   47.7500 C   0  0  0  0  0  0  0  0  0  0  0  0
   60.1220   25.9950   47.3000 O   0  0  0  0  0  0  0  0  0  0  0  0
   59.7010   28.3230   46.8290 C   0  0  0  0  0  0  0  0  0  0  0  0
   60.0270   28.0230   45.3550 C   0  0  0  0  0  0  0  0  0  0  0  0
   59.5390   29.1840   44.4860 C   0  0  0  0  0  0  0  0  0  0  0  0
   58.0740   29.3810   44.5650 N   0  0  0  0  0  0  0  0  0  0  0  0
   57.6410   31.0690   44.4050 S   0  0  0  0  0  0  0  0  0  0  0  0
   58.0420   31.5680   43.0440 O   0  0  0  0  0  0  0  0  0  0  0  0
   56.1480   31.2070   44.5280 O   0  0  0  0  0  0  0  0  0  0  0  0
   58.4200   32.0620   45.6390 C   0  0  0  0  0  0  0  0  0  0  0  0
   57.8500   33.2800   46.0300 C   0  0  0  0  0  0  0  0  0  0  0  0
   58.4840   34.0800   46.9840 C   0  0  0  0  0  0  0  0  0  0  0  0
   59.6980   33.6750   47.5490 C   0  0  0  0  0  0  0  0  0  0  0  0
   60.2780   32.4500   47.1630 C   0  0  0  0  0  0  0  0  0  0  0  0
   59.6250   31.6410   46.2230 C   0  0  0  0  0  0  0  0  0  0  0  0
   61.5300   31.9620   47.8510 C   0  0  0  0  0  0  0  0  0  0  0  0
   62.4630   33.1180   48.2340 C   0  0  0  0  0  0  0  0  0  0  0  0
   61.7050   34.2220   48.9100 C   0  0  0  0  0  0  0  0  0  0  0  0
   62.2720   34.9420   49.7720 O   0  0  0  0  0  0  0  0  0  0  0  0
   60.3590   34.5060   48.5120 N   0  0  0  0  0  0  0  0  0  0  0  0
   57.3960   28.7350   45.7120 C   0  0  0  0  0  0  0  0  0  0  0  0
   58.2200   28.7480   47.0140 C   0  0  0  0  0  0  0  0  0  0  0  0
   59.2310   29.4960   49.8540 C   0  0  0  0  0  0  0  0  0  0  0  0
   57.8352   31.8635   51.5535 H   0  0  0  0  0  0  0  0  0  0  0  0
   58.3683   32.5864   49.9979 H   0  0  0  0  0  0  0  0  0  0  0  0
   57.2789   31.1582   49.9979 H   0  0  0  0  0  0  0  0  0  0  0  0
   60.5950   32.1149   51.5817 H   0  0  0  0  0  0  0  0  0  0  0  0
   62.8577   30.6908   52.7355 H   0  0  0  0  0  0  0  0  0  0  0  0
   63.7490   30.0330   51.3215 H   0  0  0  0  0  0  0  0  0  0  0  0
   63.2016   31.7439   51.3215 H   0  0  0  0  0  0  0  0  0  0  0  0
   62.4339   28.4003   50.3327 H   0  0  0  0  0  0  0  0  0  0  0  0
   60.3312   29.1760   47.1209 H   0  0  0  0  0  0  0  0  0  0  0  0
   61.1141   27.9052   45.2351 H   0  0  0  0  0  0  0  0  0  0  0  0
   59.5250   27.0940   45.0469 H   0  0  0  0  0  0  0  0  0  0  0  0
   60.0365   30.1066   44.8197 H   0  0  0  0  0  0  0  0  0  0  0  0
   59.7858   28.9434   43.4414 H   0  0  0  0  0  0  0  0  0  0  0  0
   56.8994   33.6081   45.5843 H   0  0  0  0  0  0  0  0  0  0  0  0
   58.0268   35.0319   47.2920 H   0  0  0  0  0  0  0  0  0  0  0  0
   60.0594   30.6705   45.9413 H   0  0  0  0  0  0  0  0  0  0  0  0
   61.2448   31.4185   48.7638 H   0  0  0  0  0  0  0  0  0  0  0  0
   62.0696   31.3076   47.1505 H   0  0  0  0  0  0  0  0  0  0  0  0
   63.2379   32.7426   48.9185 H   0  0  0  0  0  0  0  0  0  0  0  0
   62.9189   33.5180   47.3163 H   0  0  0  0  0  0  0  0  0  0  0  0
   59.8730   35.3430   48.9080 H   0  0  0  0  0  0  0  0  0  0  0  0
   56.4489   29.2632   45.8965 H   0  0  0  0  0  0  0  0  0  0  0  0
   57.2458   27.6797   45.4404 H   0  0  0  0  0  0  0  0  0  0  0  0
   58.2018   29.7684   47.4245 H   0  0  0  0  0  0  0  0  0  0  0  0
   57.7598   28.0112   47.6888 H   0  0  0  0  0  0  0  0  0  0  0  0
   58.2908   29.1907   49.3715 H   0  0  0  0  0  0  0  0  0  0  0  0
  1  2  1  0
  2  3  2  0
  3  4  1  0
  4  5  1  0
  4  6  2  0
  6  7  1  0
  7  8  1  0
  8  9  1  0
  9 10  2  0
  9 11  1  0
 11 12  1  0
 12 13  1  0
 13 14  1  0
 14 15  1  0
 15 16  2  0
 15 17  2  0
 15 18  1  0
 18 19  2  0
 19 20  1  0
 20 21  2  0
 21 22  1  0
 22 23  2  0
 22 24  1  0
 24 25  1  0
 25 26  1  0
 26 27  2  0
 26 28  1  0
 14 29  1  0
 29 30  1  0
  7 31  2  0
 31  2  1  0
 30 11  1  0
 23 18  1  0
 28 21  1  0
  1 32  1  0
  1 33  1  0
  1 34  1  0
  3 35  1  0
  5 36  1  0
  5 37  1  0
  5 38  1  0
  6 39  1  0
 11 40  1  0
 12 41  1  0
 12 42  1  0
 13 43  1  0
 13 44  1  0
 19 45  1  0
 20 46  1  0
 23 47  1  0
 24 48  1  0
 24 49  1  0
 25 50  1  0
 25 51  1  0
 28 52  1  0
 29 53  1  0
 29 54  1  0
 30 55  1  0
 30 56  1  0
 31 57  1  0
M  CHG  1   8  -1
M  END
>  <UniqueID>  (11) 
10

>  <SMILES>  (11) 
Cc1cc(C)cc([N-]C(=O)C2CCN(S(=O)(=O)c3ccc4c(c3)CCC(=O)N4)CC2)c1

>  <Energy>  (11) 
65.94348374734356

>  <Genealogy>  (11) 
Cc1cc(C)cc([N-]C(=O)C2CCN(S(=O)(=O)c3ccc4c(c3)CCC(=O)N4)CC2)c1 (protonated)
Cc1cc(C)cc([N-]C(=O)C2CCN(S(=O)(=O)c3ccc4c(c3)CCC(=O)N4)CC2)c1 (3D coordinates assigned)
Cc1cc(C)cc([N-]C(=O)C2CCN(S(=O)(=O)c3ccc4c(c3)CCC(=O)N4)CC2)c1 (nonaromatic ring conformer: 65.94348374734356 kcal/mol)

>  <smiles>  (11) 
Cc1cc(C)cc(NC(=O)C2CCN(S(=O)(=O)c3ccc4c(c3)CCC(=O)N4)CC2)c1

>  <score_type>  (11) 
oracle

>  <origin>  (11) 
adg

>  <m_score__min__energy>  (11) 
-11.710000000000001

>  <m_primary>  (11) 
energy

$$$$
11:0
     RDKit          3D

 57 60  0  0  0  0  0  0  0  0999 V2000
   58.6150   33.5170   45.0650 O   0  0  0  0  0  0  0  0  0  0  0  0
   58.8950   32.4110   45.5920 C   0  0  0  0  0  0  0  0  0  0  0  0
   58.7530   31.2030   44.8470 N   0  0  0  0  0  0  0  0  0  0  0  0
   57.6520   30.3320   45.1220 C   0  0  0  0  0  0  0  0  0  0  0  0
   56.4810   30.7110   44.8430 O   0  0  0  0  0  0  0  0  0  0  0  0
   57.8790   29.0280   45.7780 C   0  0  0  0  0  0  0  0  0  0  0  0
   58.8850   28.8780   46.7440 C   0  0  0  0  0  0  0  0  0  0  0  0
   59.0450   27.6680   47.4190 C   0  0  0  0  0  0  0  0  0  0  0  0
   58.1840   26.5980   47.1500 C   0  0  0  0  0  0  0  0  0  0  0  0
   57.1630   26.7300   46.1960 C   0  0  0  0  0  0  0  0  0  0  0  0
   56.0520   25.3950   45.8830 S   0  0  0  0  0  0  0  0  0  0  0  0
   55.9690   24.5260   47.1050 O   0  0  0  0  0  0  0  0  0  0  0  0
   54.6820   25.9600   45.6270 O   0  0  0  0  0  0  0  0  0  0  0  0
   56.5380   24.4210   44.5180 N   0  0  0  0  0  0  0  0  0  0  0  0
   55.5370   23.4170   44.1530 C   0  0  0  0  0  0  0  0  0  0  0  0
   56.2950   22.2870   43.4650 C   0  0  0  0  0  0  0  0  0  0  0  0
   57.7530   22.4790   43.8640 C   0  0  0  0  0  0  0  0  0  0  0  0
   57.7570   23.6680   44.8090 C   0  0  0  0  0  0  0  0  0  0  0  0
   57.0210   27.9430   45.5090 C   0  0  0  0  0  0  0  0  0  0  0  0
   59.4290   32.3510   46.9190 N   0  0  0  0  0  0  0  0  0  0  0  0
   60.7630   32.7830   47.2550 C   0  0  0  0  0  0  0  0  0  0  0  0
   61.4870   33.6420   46.4030 C   0  0  0  0  0  0  0  0  0  0  0  0
   62.8270   33.9370   46.6700 C   0  0  0  0  0  0  0  0  0  0  0  0
   63.4570   33.3950   47.7900 C   0  0  0  0  0  0  0  0  0  0  0  0
   62.7520   32.5510   48.6450 C   0  0  0  0  0  0  0  0  0  0  0  0
   61.4080   32.2400   48.3870 C   0  0  0  0  0  0  0  0  0  0  0  0
   60.7040   31.3740   49.2880 N   0  0  0  0  0  0  0  0  0  0  0  0
   60.9770   29.9560   49.3890 C   0  0  0  0  0  0  0  0  0  0  0  0
   59.8580   29.3830   50.2530 C   0  0  0  0  0  0  0  0  0  0  0  0
   59.1430   30.5850   50.8740 C   0  0  0  0  0  0  0  0  0  0  0  0
   59.5140   31.7820   50.0140 C   0  0  0  0  0  0  0  0  0  0  0  0
   59.6510   30.7690   44.5320 H   0  0  0  0  0  0  0  0  0  0  0  0
   59.5533   29.7217   46.9711 H   0  0  0  0  0  0  0  0  0  0  0  0
   59.8477   27.5548   48.1626 H   0  0  0  0  0  0  0  0  0  0  0  0
   58.3082   25.6475   47.6896 H   0  0  0  0  0  0  0  0  0  0  0  0
   55.0283   23.0416   45.0532 H   0  0  0  0  0  0  0  0  0  0  0  0
   54.7670   23.8420   43.4924 H   0  0  0  0  0  0  0  0  0  0  0  0
   55.9266   21.3098   43.8104 H   0  0  0  0  0  0  0  0  0  0  0  0
   56.1624   22.3096   42.3733 H   0  0  0  0  0  0  0  0  0  0  0  0
   58.1346   21.5814   44.3726 H   0  0  0  0  0  0  0  0  0  0  0  0
   58.3985   22.6482   42.9895 H   0  0  0  0  0  0  0  0  0  0  0  0
   57.7536   23.3250   45.8542 H   0  0  0  0  0  0  0  0  0  0  0  0
   58.6551   24.2881   44.6711 H   0  0  0  0  0  0  0  0  0  0  0  0
   56.2308   28.0495   44.7512 H   0  0  0  0  0  0  0  0  0  0  0  0
   58.9710   31.6570   47.5560 H   0  0  0  0  0  0  0  0  0  0  0  0
   60.9947   34.0824   45.5234 H   0  0  0  0  0  0  0  0  0  0  0  0
   63.3871   34.5996   45.9937 H   0  0  0  0  0  0  0  0  0  0  0  0
   64.5104   33.6339   47.9982 H   0  0  0  0  0  0  0  0  0  0  0  0
   63.2518   32.1257   49.5278 H   0  0  0  0  0  0  0  0  0  0  0  0
   60.9684   29.4914   48.3920 H   0  0  0  0  0  0  0  0  0  0  0  0
   61.9679   29.7625   49.8256 H   0  0  0  0  0  0  0  0  0  0  0  0
   59.1589   28.8004   49.6351 H   0  0  0  0  0  0  0  0  0  0  0  0
   60.2531   28.7073   51.0259 H   0  0  0  0  0  0  0  0  0  0  0  0
   58.0541   30.4295   50.8636 H   0  0  0  0  0  0  0  0  0  0  0  0
   59.4407   30.7339   51.9224 H   0  0  0  0  0  0  0  0  0  0  0  0
   58.6992   32.0225   49.3153 H   0  0  0  0  0  0  0  0  0  0  0  0
   59.6897   32.6842   50.6183 H   0  0  0  0  0  0  0  0  0  0  0  0
  1  2  2  0
  2  3  1  0
  3  4  1  0
  4  5  2  0
  4  6  1  0
  6  7  2  0
  7  8  1  0
  8  9  2  0
  9 10  1  0
 10 11  1  0
 11 12  2  0
 11 13  2  0
 11 14  1  0
 14 15  1  0
 15 16  1  0
 16 17  1  0
 17 18  1  0
 10 19  2  0
  2 20  1  0
 20 21  1  0
 21 22  2  0
 22 23  1  0
 23 24  2  0
 24 25  1  0
 25 26  2  0
 26 27  1  0
 27 28  1  0
 28 29  1  0
 29 30  1  0
 30 31  1  0
 19  6  1  0
 26 21  1  0
 31 27  1  0
 18 14  1  0
  3 32  1  0
  7 33  1  0
  8 34  1  0
  9 35  1  0
 15 36  1  0
 15 37  1  0
 16 38  1  0
 16 39  1  0
 17 40  1  0
 17 41  1  0
 18 42  1  0
 18 43  1  0
 19 44  1  0
 20 45  1  0
 22 46  1  0
 23 47  1  0
 24 48  1  0
 25 49  1  0
 28 50  1  0
 28 51  1  0
 29 52  1  0
 29 53  1  0
 30 54  1  0
 30 55  1  0
 31 56  1  0
 31 57  1  0
M  END
>  <UniqueID>  (12) 
11

>  <SMILES>  (12) 
O=C(NC(=O)c1cccc(S(=O)(=O)N2CCCC2)c1)Nc1ccccc1N1CCCC1

>  <Energy>  (12) 
86.93585913787433

>  <Genealogy>  (12) 
O=C(NC(=O)c1cccc(S(=O)(=O)N2CCCC2)c1)Nc1ccccc1N1CCCC1 (3D coordinates assigned)
O=C(NC(=O)c1cccc(S(=O)(=O)N2CCCC2)c1)Nc1ccccc1N1CCCC1 (nonaromatic ring conformer: 86.93585913787433 kcal/mol)

>  <smiles>  (12) 
O=C(NC(=O)c1cccc(S(=O)(=O)N2CCCC2)c1)Nc1ccccc1N1CCCC1

>  <score_type>  (12) 
oracle

>  <origin>  (12) 
adg

>  <m_score__min__energy>  (12) 
-10.199999999999999

>  <m_primary>  (12) 
energy

$$$$
12:0
     RDKit          3D

 52 54  0  0  0  0  0  0  0  0999 V2000
   60.4240   27.7310   49.1240 C   0  0  0  0  0  0  0  0  0  0  0  0
   59.8650   27.4550   47.7330 C   0  0  0  0  0  0  0  0  0  0  0  0
   60.1320   28.6040   46.8330 N   0  0  0  0  0  0  0  0  0  0  0  0
   59.6490   29.8870   47.3910 C   0  0  0  0  0  0  0  0  0  0  0  0
   60.0570   31.1160   46.5530 C   0  0  0  0  0  0  0  0  0  0  0  0
   61.2530   31.7920   47.1670 C   0  0  0  0  0  0  0  0  0  0  0  0
   61.5980   33.1010   46.7910 C   0  0  0  0  0  0  0  0  0  0  0  0
   62.6810   33.7460   47.3970 C   0  0  0  0  0  0  0  0  0  0  0  0
   63.4210   33.0920   48.3860 C   0  0  0  0  0  0  0  0  0  0  0  0
   63.0770   31.7940   48.7740 C   0  0  0  0  0  0  0  0  0  0  0  0
   61.9950   31.1460   48.1710 C   0  0  0  0  0  0  0  0  0  0  0  0
   59.6590   28.3840   45.4470 C   0  0  0  0  0  0  0  0  0  0  0  0
   58.1660   28.2460   45.4090 C   0  0  0  0  0  0  0  0  0  0  0  0
   57.5030   27.2070   45.9510 N   0  0  0  0  0  0  0  0  0  0  0  0
   56.2150   27.4610   45.6370 C   0  0  0  0  0  0  0  0  0  0  0  0
   55.2700   26.7100   45.9910 O   0  0  0  0  0  0  0  0  0  0  0  0
   56.0210   28.5850   44.9170 N   0  0  0  0  0  0  0  0  0  0  0  0
   57.2650   29.0710   44.7590 C   0  0  0  0  0  0  0  0  0  0  0  0
   57.5660   30.3410   44.0150 C   0  0  0  0  0  0  0  0  0  0  0  0
   56.6990   31.5060   44.5080 C   0  0  0  0  0  0  0  0  0  0  0  0
   57.5410   32.6470   45.0220 C   0  0  0  0  0  0  0  0  0  0  0  0
   57.4060   33.0880   46.3500 C   0  0  0  0  0  0  0  0  0  0  0  0
   58.1490   34.1800   46.8100 C   0  0  0  0  0  0  0  0  0  0  0  0
   59.0310   34.8430   45.9500 C   0  0  0  0  0  0  0  0  0  0  0  0
   59.7650   35.9300   46.4210 O   0  0  0  0  0  0  0  0  0  0  0  0
   59.1680   34.4080   44.6230 C   0  0  0  0  0  0  0  0  0  0  0  0
   58.4250   33.3180   44.1610 C   0  0  0  0  0  0  0  0  0  0  0  0
   59.7099   27.3784   49.8828 H   0  0  0  0  0  0  0  0  0  0  0  0
   61.3804   27.2016   49.2465 H   0  0  0  0  0  0  0  0  0  0  0  0
   60.5851   28.8122   49.2465 H   0  0  0  0  0  0  0  0  0  0  0  0
   60.3431   26.5536   47.3221 H   0  0  0  0  0  0  0  0  0  0  0  0
   58.7779   27.3044   47.8078 H   0  0  0  0  0  0  0  0  0  0  0  0
   58.5509   29.8516   47.4449 H   0  0  0  0  0  0  0  0  0  0  0  0
   60.1124   30.0033   48.3818 H   0  0  0  0  0  0  0  0  0  0  0  0
   60.3074   30.7923   45.5320 H   0  0  0  0  0  0  0  0  0  0  0  0
   59.2178   31.8267   46.5274 H   0  0  0  0  0  0  0  0  0  0  0  0
   61.0141   33.6206   46.0170 H   0  0  0  0  0  0  0  0  0  0  0  0
   62.9506   34.7688   47.0950 H   0  0  0  0  0  0  0  0  0  0  0  0
   64.2747   33.5991   48.8593 H   0  0  0  0  0  0  0  0  0  0  0  0
   63.6584   31.2818   49.5548 H   0  0  0  0  0  0  0  0  0  0  0  0
   61.7233   30.1269   48.4833 H   0  0  0  0  0  0  0  0  0  0  0  0
   59.9580   29.2398   44.8239 H   0  0  0  0  0  0  0  0  0  0  0  0
   60.1086   27.4559   45.0643 H   0  0  0  0  0  0  0  0  0  0  0  0
   58.6254   30.5978   44.1621 H   0  0  0  0  0  0  0  0  0  0  0  0
   57.3448   30.1754   42.9503 H   0  0  0  0  0  0  0  0  0  0  0  0
   56.0792   31.8673   43.6742 H   0  0  0  0  0  0  0  0  0  0  0  0
   56.0719   31.1418   45.3351 H   0  0  0  0  0  0  0  0  0  0  0  0
   56.7128   32.5718   47.0305 H   0  0  0  0  0  0  0  0  0  0  0  0
   58.0395   34.5185   47.8509 H   0  0  0  0  0  0  0  0  0  0  0  0
   59.3960   36.5480   47.1340 H   0  0  0  0  0  0  0  0  0  0  0  0
   59.8618   34.9261   43.9447 H   0  0  0  0  0  0  0  0  0  0  0  0
   58.5330   32.9841   43.1185 H   0  0  0  0  0  0  0  0  0  0  0  0
  1  2  1  0
  2  3  1  0
  3  4  1  0
  4  5  1  0
  5  6  1  0
  6  7  2  0
  7  8  1  0
  8  9  2  0
  9 10  1  0
 10 11  2  0
  3 12  1  0
 12 13  1  0
 13 14  1  0
 14 15  1  0
 15 16  2  0
 15 17  1  0
 17 18  1  0
 18 19  1  0
 19 20  1  0
 20 21  1  0
 21 22  2  0
 22 23  1  0
 23 24  2  0
 24 25  1  0
 24 26  1  0
 26 27  2  0
 11  6  1  0
 18 13  2  0
 27 21  1  0
  1 28  1  0
  1 29  1  0
  1 30  1  0
  2 31  1  0
  2 32  1  0
  4 33  1  0
  4 34  1  0
  5 35  1  0
  5 36  1  0
  7 37  1  0
  8 38  1  0
  9 39  1  0
 10 40  1  0
 11 41  1  0
 12 42  1  0
 12 43  1  0
 19 44  1  0
 19 45  1  0
 20 46  1  0
 20 47  1  0
 22 48  1  0
 23 49  1  0
 25 50  1  0
 26 51  1  0
 27 52  1  0
M  CHG  2  14  -1  17  -1
M  END
>  <UniqueID>  (13) 
12

>  <SMILES>  (13) 
CCN(CCc1ccccc1)Cc1[n-]c(=O)[n-]c1CCc1ccc(O)cc1

>  <Energy>  (13) 
77.24652838822469

>  <Genealogy>  (13) 
CCN(CCc1ccccc1)Cc1[n-]c(=O)[n-]c1CCc1ccc(O)cc1 (protonated)
CCN(CCc1ccccc1)Cc1[n-]c(=O)[n-]c1CCc1ccc(O)cc1 (3D coordinates assigned)
CCN(CCc1ccccc1)Cc1[n-]c(=O)[n-]c1CCc1ccc(O)cc1 (optimized conformer: 77.24652838822469 kcal/mol)

>  <smiles>  (13) 
CCN(CCc1ccccc1)Cc1[nH]c(=O)[nH]c1CCc1ccc(O)cc1

>  <score_type>  (13) 
oracle

>  <origin>  (13) 
adg

>  <m_score__min__energy>  (13) 
-12.49

>  <m_primary>  (13) 
energy

$$$$
13:0
     RDKit          3D

 67 70  0  0  0  0  0  0  0  0999 V2000
   58.8980   28.1860   47.1660 C   0  0  0  0  0  0  0  0  0  0  0  0
   58.5870   28.7730   45.9930 C   0  0  0  0  0  0  0  0  0  0  0  0
   58.8570   30.1570   45.8450 C   0  0  0  0  0  0  0  0  0  0  0  0
   59.6770   30.8030   46.7920 O   0  0  0  0  0  0  0  0  0  0  0  0
   59.2240   31.4680   47.9740 C   0  0  0  0  0  0  0  0  0  0  0  0
   59.8470   30.8650   49.2000 C   0  0  0  0  0  0  0  0  0  0  0  0
   59.4000   31.1810   50.3380 O   0  0  0  0  0  0  0  0  0  0  0  0
   60.9420   29.9400   49.0800 N   0  0  0  0  0  0  0  0  0  0  0  0
   61.5020   29.2420   50.2000 C   0  0  0  0  0  0  0  0  0  0  0  0
   61.1040   27.9310   50.5100 C   0  0  0  0  0  0  0  0  0  0  0  0
   61.6630   27.2660   51.6040 C   0  0  0  0  0  0  0  0  0  0  0  0
   62.6350   27.8960   52.3950 C   0  0  0  0  0  0  0  0  0  0  0  0
   63.2510   27.1730   53.5250 C   0  0  0  0  0  0  0  0  0  0  0  0
   62.5270   26.4100   54.2200 O   0  0  0  0  0  0  0  0  0  0  0  0
   64.6610   27.2930   53.8170 N   0  0  0  0  0  0  0  0  0  0  0  0
   65.1820   26.9180   55.1380 C   0  0  0  0  0  0  0  0  0  0  0  0
   66.1870   25.7730   54.9840 C   0  0  0  0  0  0  0  0  0  0  0  0
   67.1450   26.0320   53.8960 N   0  0  0  0  0  0  0  0  0  0  0  0
   68.1970   25.0680   53.6630 C   0  0  0  0  0  0  0  0  0  0  0  0
   69.2090   25.2400   52.5680 C   0  0  0  0  0  0  0  0  0  0  0  0
   68.2750   24.0390   54.3890 O   0  0  0  0  0  0  0  0  0  0  0  0
   67.0630   27.2980   53.1450 C   0  0  0  0  0  0  0  0  0  0  0  0
   65.6130   27.5780   52.7280 C   0  0  0  0  0  0  0  0  0  0  0  0
   62.9960   29.2230   52.1140 C   0  0  0  0  0  0  0  0  0  0  0  0
   62.4300   29.8920   51.0260 C   0  0  0  0  0  0  0  0  0  0  0  0
   58.2740   30.8700   44.7840 C   0  0  0  0  0  0  0  0  0  0  0  0
   57.4070   30.2410   43.8890 C   0  0  0  0  0  0  0  0  0  0  0  0
   56.6820   31.0460   42.8430 C   0  0  0  0  0  0  0  0  0  0  0  0
   57.6330   32.0380   42.1780 C   0  0  0  0  0  0  0  0  0  0  0  0
   57.1860   28.8670   43.9970 C   0  0  0  0  0  0  0  0  0  0  0  0
   57.8450   28.0900   44.9720 C   0  0  0  0  0  0  0  0  0  0  0  0
   57.7350   26.7420   44.8530 C   0  0  0  0  0  0  0  0  0  0  0  0
   57.1990   25.8170   45.8740 C   0  0  0  0  0  0  0  0  0  0  0  0
   57.8660   24.7760   46.4060 N   0  0  0  0  0  0  0  0  0  0  0  0
   56.9480   24.1950   47.2080 C   0  0  0  0  0  0  0  0  0  0  0  0
   57.2020   23.1800   47.9040 O   0  0  0  0  0  0  0  0  0  0  0  0
   55.7330   24.7830   47.1980 N   0  0  0  0  0  0  0  0  0  0  0  0
   55.9080   25.8020   46.3420 C   0  0  0  0  0  0  0  0  0  0  0  0
   54.9070   26.7010   45.9970 O   0  0  0  0  0  0  0  0  0  0  0  0
   58.7015   27.1138   47.3136 H   0  0  0  0  0  0  0  0  0  0  0  0
   59.3483   28.7792   47.9755 H   0  0  0  0  0  0  0  0  0  0  0  0
   59.4985   32.5316   47.9165 H   0  0  0  0  0  0  0  0  0  0  0  0
   58.1319   31.3564   48.0435 H   0  0  0  0  0  0  0  0  0  0  0  0
   61.2410   29.6440   48.1230 H   0  0  0  0  0  0  0  0  0  0  0  0
   60.3494   27.4261   49.8890 H   0  0  0  0  0  0  0  0  0  0  0  0
   61.3392   26.2430   51.8463 H   0  0  0  0  0  0  0  0  0  0  0  0
   65.6813   27.7851   55.5949 H   0  0  0  0  0  0  0  0  0  0  0  0
   64.3510   26.5925   55.7810 H   0  0  0  0  0  0  0  0  0  0  0  0
   66.7414   25.6560   55.9268 H   0  0  0  0  0  0  0  0  0  0  0  0
   65.6288   24.8574   54.7388 H   0  0  0  0  0  0  0  0  0  0  0  0
   70.2021   25.4088   53.0098 H   0  0  0  0  0  0  0  0  0  0  0  0
   69.2338   24.3332   51.9459 H   0  0  0  0  0  0  0  0  0  0  0  0
   68.9328   26.1041   51.9459 H   0  0  0  0  0  0  0  0  0  0  0  0
   67.4230   28.1206   53.7804 H   0  0  0  0  0  0  0  0  0  0  0  0
   67.6857   27.2187   52.2417 H   0  0  0  0  0  0  0  0  0  0  0  0
   65.5228   28.6373   52.4455 H   0  0  0  0  0  0  0  0  0  0  0  0
   65.3691   26.9187   51.8819 H   0  0  0  0  0  0  0  0  0  0  0  0
   63.7278   29.7385   52.7533 H   0  0  0  0  0  0  0  0  0  0  0  0
   62.7138   30.9339   50.8163 H   0  0  0  0  0  0  0  0  0  0  0  0
   58.5039   31.9382   44.6569 H   0  0  0  0  0  0  0  0  0  0  0  0
   56.2763   30.3659   42.0795 H   0  0  0  0  0  0  0  0  0  0  0  0
   55.8661   31.6040   43.3256 H   0  0  0  0  0  0  0  0  0  0  0  0
   58.1740   32.6024   42.9518 H   0  0  0  0  0  0  0  0  0  0  0  0
   58.3534   31.4917   41.5515 H   0  0  0  0  0  0  0  0  0  0  0  0
   57.0568   32.7347   41.5515 H   0  0  0  0  0  0  0  0  0  0  0  0
   56.4822   28.3795   43.3063 H   0  0  0  0  0  0  0  0  0  0  0  0
   58.0771   26.2960   43.9075 H   0  0  0  0  0  0  0  0  0  0  0  0
  1  2  2  0
  2  3  1  0
  3  4  1  0
  4  5  1  0
  5  6  1  0
  6  7  2  0
  6  8  1  0
  8  9  1  0
  9 10  2  0
 10 11  1  0
 11 12  2  0
 12 13  1  0
 13 14  2  0
 13 15  1  0
 15 16  1  0
 16 17  1  0
 17 18  1  0
 18 19  1  0
 19 20  1  0
 19 21  2  0
 18 22  1  0
 22 23  1  0
 12 24  1  0
 24 25  2  0
  3 26  2  0
 26 27  1  0
 27 28  1  0
 28 29  1  0
 27 30  2  0
 30 31  1  0
 31 32  2  3
 32 33  1  0
 33 34  1  0
 34 35  1  0
 35 36  2  0
 35 37  1  0
 37 38  1  0
 38 39  1  0
 31  2  1  0
 38 33  2  0
 25  9  1  0
 23 15  1  0
  1 40  1  0
  1 41  1  0
  5 42  1  0
  5 43  1  0
  8 44  1  0
 10 45  1  0
 11 46  1  0
 16 47  1  0
 16 48  1  0
 17 49  1  0
 17 50  1  0
 20 51  1  0
 20 52  1  0
 20 53  1  0
 22 54  1  0
 22 55  1  0
 23 56  1  0
 23 57  1  0
 24 58  1  0
 25 59  1  0
 26 60  1  0
 28 61  1  0
 28 62  1  0
 29 63  1  0
 29 64  1  0
 29 65  1  0
 30 66  1  0
 32 67  1  0
M  CHG  3  34  -1  37  -1  39  -1
M  END
>  <UniqueID>  (14) 
13

>  <SMILES>  (14) 
C=c1c(OCC(=O)Nc2ccc(C(=O)N3CCN(C(C)=O)CC3)cc2)cc(CC)cc1=Cc1[n-]c(=O)[n-]c1[O-]

>  <Energy>  (14) 
126.24359452138268

>  <Genealogy>  (14) 
C=c1c(OCC(=O)Nc2ccc(C(=O)N3CCN(C(C)=O)CC3)cc2)cc(CC)cc1=Cc1[n-]c(=O)[n-]c1[O-] (protonated)
C=c1c(OCC(=O)Nc2ccc(C(=O)N3CCN(C(C)=O)CC3)cc2)cc(CC)cc1=Cc1[n-]c(=O)[n-]c1[O-] (3D coordinates assigned)
C=c1c(OCC(=O)Nc2ccc(C(=O)N3CCN(C(C)=O)CC3)cc2)cc(CC)cc1=Cc1[n-]c(=O)[n-]c1[O-] (nonaromatic ring conformer: 126.24359452138268 kcal/mol)

>  <smiles>  (14) 
C=c1c(OCC(=O)Nc2ccc(C(=O)N3CCN(C(C)=O)CC3)cc2)cc(CC)cc1=Cc1[nH]c(=O)[nH]c1O

>  <score_type>  (14) 
oracle

>  <origin>  (14) 
adg

>  <m_score__min__energy>  (14) 
-18.920000000000002

>  <m_primary>  (14) 
energy

$$$$
14:0
     RDKit          3D

 57 60  0  0  0  0  0  0  0  0999 V2000
   58.5380   34.4550   45.2830 C   0  0  0  0  0  0  0  0  0  0  0  0
   57.6990   33.4290   45.9860 C   0  0  0  0  0  0  0  0  0  0  0  0
   57.7450   33.3730   47.2430 O   0  0  0  0  0  0  0  0  0  0  0  0
   56.8420   32.5070   45.2890 N   0  0  0  0  0  0  0  0  0  0  0  0
   57.1200   31.3070   44.8720 C   0  0  0  0  0  0  0  0  0  0  0  0
   56.1970   30.3830   44.5150 N   0  0  0  0  0  0  0  0  0  0  0  0
   56.7800   29.2170   44.1290 C   0  0  0  0  0  0  0  0  0  0  0  0
   58.1680   29.2240   44.1770 C   0  0  0  0  0  0  0  0  0  0  0  0
   59.2380   27.8480   43.7710 S   0  0  0  0  0  0  0  0  0  0  0  0
   58.9290   27.0120   45.3340 C   0  0  0  0  0  0  0  0  0  0  0  0
   59.5610   27.4990   46.4850 C   0  0  0  0  0  0  0  0  0  0  0  0
   59.3600   26.8840   47.7300 C   0  0  0  0  0  0  0  0  0  0  0  0
   60.0280   27.4170   48.9390 C   0  0  0  0  0  0  0  0  0  0  0  0
   60.4820   26.6050   49.7920 O   0  0  0  0  0  0  0  0  0  0  0  0
   60.1730   28.8340   49.1650 N   0  0  0  0  0  0  0  0  0  0  0  0
   59.1460   29.7830   48.7150 C   0  0  0  0  0  0  0  0  0  0  0  0
   58.9510   30.8720   49.7780 C   0  0  0  0  0  0  0  0  0  0  0  0
   60.2140   31.5870   50.1250 N   0  0  0  0  0  0  0  0  0  0  0  0
   60.2580   32.8880   49.4840 C   0  0  0  0  0  0  0  0  0  0  0  0
   59.3450   33.7280   49.7220 O   0  0  0  0  0  0  0  0  0  0  0  0
   61.3440   33.2620   48.5380 C   0  0  0  0  0  0  0  0  0  0  0  0
   61.0570   33.3920   47.1650 C   0  0  0  0  0  0  0  0  0  0  0  0
   62.0610   33.7430   46.2590 C   0  0  0  0  0  0  0  0  0  0  0  0
   63.3650   33.9600   46.7080 C   0  0  0  0  0  0  0  0  0  0  0  0
   63.6700   33.8170   48.0650 C   0  0  0  0  0  0  0  0  0  0  0  0
   62.6680   33.4650   48.9760 C   0  0  0  0  0  0  0  0  0  0  0  0
   61.4560   30.8370   49.8040 C   0  0  0  0  0  0  0  0  0  0  0  0
   61.2830   29.3250   49.9910 C   0  0  0  0  0  0  0  0  0  0  0  0
   58.4890   25.7890   47.8160 C   0  0  0  0  0  0  0  0  0  0  0  0
   57.8610   25.2920   46.6730 C   0  0  0  0  0  0  0  0  0  0  0  0
   58.0870   25.8820   45.4200 C   0  0  0  0  0  0  0  0  0  0  0  0
   57.3900   25.3280   44.2060 C   0  0  0  0  0  0  0  0  0  0  0  0
   58.6890   30.7250   44.7280 S   0  0  0  0  0  0  0  0  0  0  0  0
   59.0507   35.0820   46.0274 H   0  0  0  0  0  0  0  0  0  0  0  0
   59.2845   33.9491   44.6531 H   0  0  0  0  0  0  0  0  0  0  0  0
   57.8940   35.0862   44.6531 H   0  0  0  0  0  0  0  0  0  0  0  0
   56.2000   28.3402   43.8053 H   0  0  0  0  0  0  0  0  0  0  0  0
   60.2231   28.3744   46.4121 H   0  0  0  0  0  0  0  0  0  0  0  0
   59.4649   30.2468   47.7699 H   0  0  0  0  0  0  0  0  0  0  0  0
   58.1970   29.2486   48.5608 H   0  0  0  0  0  0  0  0  0  0  0  0
   58.2265   31.6068   49.3970 H   0  0  0  0  0  0  0  0  0  0  0  0
   58.5940   30.3761   50.6927 H   0  0  0  0  0  0  0  0  0  0  0  0
   60.1900   31.7230   51.1630 H   0  0  0  0  0  0  0  0  0  0  0  0
   60.0334   33.2156   46.8030 H   0  0  0  0  0  0  0  0  0  0  0  0
   61.8236   33.8486   45.1901 H   0  0  0  0  0  0  0  0  0  0  0  0
   64.1525   34.2435   45.9942 H   0  0  0  0  0  0  0  0  0  0  0  0
   64.6991   33.9815   48.4169 H   0  0  0  0  0  0  0  0  0  0  0  0
   62.9154   33.3459   50.0412 H   0  0  0  0  0  0  0  0  0  0  0  0
   61.7295   31.0357   48.7572 H   0  0  0  0  0  0  0  0  0  0  0  0
   62.2431   31.1752   50.4940 H   0  0  0  0  0  0  0  0  0  0  0  0
   62.2106   28.8139   49.6936 H   0  0  0  0  0  0  0  0  0  0  0  0
   61.0615   29.1179   51.0484 H   0  0  0  0  0  0  0  0  0  0  0  0
   58.2991   25.3179   48.7917 H   0  0  0  0  0  0  0  0  0  0  0  0
   57.1827   24.4299   46.7551 H   0  0  0  0  0  0  0  0  0  0  0  0
   56.5656   24.6727   44.5237 H   0  0  0  0  0  0  0  0  0  0  0  0
   56.9887   26.1564   43.6037 H   0  0  0  0  0  0  0  0  0  0  0  0
   58.1064   24.7501   43.6037 H   0  0  0  0  0  0  0  0  0  0  0  0
  1  2  1  0
  2  3  2  0
  2  4  1  0
  4  5  2  3
  5  6  1  0
  6  7  1  0
  7  8  2  0
  8  9  1  0
  9 10  1  0
 10 11  2  0
 11 12  1  0
 12 13  1  0
 13 14  2  0
 13 15  1  0
 15 16  1  0
 16 17  1  0
 17 18  1  0
 18 19  1  0
 19 20  2  0
 19 21  1  0
 21 22  2  0
 22 23  1  0
 23 24  2  0
 24 25  1  0
 25 26  2  0
 18 27  1  0
 27 28  1  0
 12 29  2  0
 29 30  1  0
 30 31  2  0
 31 32  1  0
  8 33  1  0
 33  5  1  0
 31 10  1  0
 28 15  1  0
 26 21  1  0
  1 34  1  0
  1 35  1  0
  1 36  1  0
  7 37  1  0
 11 38  1  0
 16 39  1  0
 16 40  1  0
 17 41  1  0
 17 42  1  0
 18 43  1  0
 22 44  1  0
 23 45  1  0
 24 46  1  0
 25 47  1  0
 26 48  1  0
 27 49  1  0
 27 50  1  0
 28 51  1  0
 28 52  1  0
 29 53  1  0
 30 54  1  0
 32 55  1  0
 32 56  1  0
 32 57  1  0
M  CHG  2   6  -1  18   1
M  END
>  <UniqueID>  (15) 
14

>  <SMILES>  (15) 
CC(=O)N=c1[n-]cc(Sc2cc(C(=O)N3CC[NH+](C(=O)c4ccccc4)CC3)ccc2C)s1

>  <Energy>  (15) 
105.31444523307528

>  <Genealogy>  (15) 
CC(=O)N=c1[n-]cc(Sc2cc(C(=O)N3CC[NH+](C(=O)c4ccccc4)CC3)ccc2C)s1 (protonated)
CC(=O)N=c1[n-]cc(Sc2cc(C(=O)N3CC[NH+](C(=O)c4ccccc4)CC3)ccc2C)s1 (3D coordinates assigned)
CC(=O)N=c1[n-]cc(Sc2cc(C(=O)N3CC[NH+](C(=O)c4ccccc4)CC3)ccc2C)s1 (nonaromatic ring conformer: 105.31444523307528 kcal/mol)

>  <smiles>  (15) 
CC(=O)N=c1[nH]cc(Sc2cc(C(=O)N3CCN(C(=O)c4ccccc4)CC3)ccc2C)s1

>  <score_type>  (15) 
oracle

>  <origin>  (15) 
adg

>  <m_score__min__energy>  (15) 
-10.289999999999999

>  <m_primary>  (15) 
energy

$$$$
15:0
     RDKit          3D

 51 54  0  0  0  0  0  0  0  0999 V2000
   57.4017   20.1472   46.6424 H   0  0  0  0  0  0  0  0  0  0  0  0
   57.5210   21.1820   46.2890 C   0  0  0  0  0  0  0  0  0  0  0  0
   57.3920   22.2540   47.1150 N   0  0  0  0  0  0  0  0  0  0  0  0
   57.5910   23.4150   46.4500 C   0  0  0  0  0  0  0  0  0  0  0  0
   57.4930   24.5920   46.9910 N   0  0  0  0  0  0  0  0  0  0  0  0
   56.8220   25.7220   46.4140 C   0  0  0  0  0  0  0  0  0  0  0  0
   55.5620   25.7240   46.3910 O   0  0  0  0  0  0  0  0  0  0  0  0
   57.5590   26.8510   45.7970 C   0  0  0  0  0  0  0  0  0  0  0  0
   58.9550   26.8000   45.6400 C   0  0  0  0  0  0  0  0  0  0  0  0
   59.5133   25.9210   45.9945 H   0  0  0  0  0  0  0  0  0  0  0  0
   59.6370   27.8580   45.0370 C   0  0  0  0  0  0  0  0  0  0  0  0
   60.7310   27.8158   44.9299 H   0  0  0  0  0  0  0  0  0  0  0  0
   58.9330   28.9710   44.5690 C   0  0  0  0  0  0  0  0  0  0  0  0
   59.4750   29.8053   44.0997 H   0  0  0  0  0  0  0  0  0  0  0  0
   57.5390   29.0270   44.6960 C   0  0  0  0  0  0  0  0  0  0  0  0
   56.6450   30.4120   44.0630 S   0  0  0  0  0  0  0  0  0  0  0  0
   55.1720   30.1170   44.1150 O   0  0  0  0  0  0  0  0  0  0  0  0
   57.0230   30.6310   42.6240 O   0  0  0  0  0  0  0  0  0  0  0  0
   56.9750   31.8650   44.9800 N   0  0  0  0  0  0  0  0  0  0  0  0
   57.5500   32.9100   44.1080 C   0  0  0  0  0  0  0  0  0  0  0  0
   58.2481   32.4424   43.3981 H   0  0  0  0  0  0  0  0  0  0  0  0
   56.7302   33.4082   43.5698 H   0  0  0  0  0  0  0  0  0  0  0  0
   58.3010   33.9580   44.9320 C   0  0  0  0  0  0  0  0  0  0  0  0
   58.6516   34.7577   44.2630 H   0  0  0  0  0  0  0  0  0  0  0  0
   57.6160   34.3630   45.6914 H   0  0  0  0  0  0  0  0  0  0  0  0
   59.4650   33.3580   45.6200 N   0  0  0  0  0  0  0  0  0  0  0  0
   59.9150   34.3370   46.9960 S   0  0  0  0  0  0  0  0  0  0  0  0
   59.9200   35.7910   46.6090 O   0  0  0  0  0  0  0  0  0  0  0  0
   58.9220   34.1390   48.1090 O   0  0  0  0  0  0  0  0  0  0  0  0
   61.5120   33.8560   47.5690 C   0  0  0  0  0  0  0  0  0  0  0  0
   62.5050   33.4670   46.6560 C   0  0  0  0  0  0  0  0  0  0  0  0
   62.2928   33.4785   45.5767 H   0  0  0  0  0  0  0  0  0  0  0  0
   63.7630   33.0650   47.1150 C   0  0  0  0  0  0  0  0  0  0  0  0
   64.5396   32.7641   46.3964 H   0  0  0  0  0  0  0  0  0  0  0  0
   64.0350   33.0450   48.4860 C   0  0  0  0  0  0  0  0  0  0  0  0
   65.0258   32.7302   48.8456 H   0  0  0  0  0  0  0  0  0  0  0  0
   63.0480   33.4250   49.4000 C   0  0  0  0  0  0  0  0  0  0  0  0
   63.2628   33.4070   50.4787 H   0  0  0  0  0  0  0  0  0  0  0  0
   61.7880   33.8280   48.9460 C   0  0  0  0  0  0  0  0  0  0  0  0
   60.8380   34.1820   49.8490 F   0  0  0  0  0  0  0  0  0  0  0  0
   59.2650   31.9430   46.0140 C   0  0  0  0  0  0  0  0  0  0  0  0
   59.6957   31.2967   45.2350 H   0  0  0  0  0  0  0  0  0  0  0  0
   59.7603   31.7956   46.9851 H   0  0  0  0  0  0  0  0  0  0  0  0
   57.7800   31.5790   46.1900 C   0  0  0  0  0  0  0  0  0  0  0  0
   57.7052   30.5053   46.4170 H   0  0  0  0  0  0  0  0  0  0  0  0
   57.3810   32.1961   47.0085 H   0  0  0  0  0  0  0  0  0  0  0  0
   56.8570   27.9690   45.3130 C   0  0  0  0  0  0  0  0  0  0  0  0
   55.7631   28.0139   45.4194 H   0  0  0  0  0  0  0  0  0  0  0  0
   57.9150   23.1620   44.8230 S   0  0  0  0  0  0  0  0  0  0  0  0
   57.8150   21.4890   44.9640 C   0  0  0  0  0  0  0  0  0  0  0  0
   57.9574   20.7632   44.1498 H   0  0  0  0  0  0  0  0  0  0  0  0
  1  2  1  0
  2  3  1  0
  3  4  1  0
  4  5  2  0
  5  6  1  0
  6  7  2  0
  6  8  1  0
  8  9  2  0
  9 10  1  0
  9 11  1  0
 11 12  1  0
 11 13  2  0
 13 14  1  0
 13 15  1  0
 15 16  1  0
 16 17  2  0
 16 18  2  0
 16 19  1  0
 19 20  1  0
 20 21  1  0
 20 22  1  0
 20 23  1  0
 23 24  1  0
 23 25  1  0
 23 26  1  0
 26 27  1  0
 27 28  2  0
 27 29  2  0
 27 30  1  0
 30 31  2  0
 31 32  1  0
 31 33  1  0
 33 34  1  0
 33 35  2  0
 35 36  1  0
 35 37  1  0
 37 38  1  0
 37 39  2  0
 39 40  1  0
 26 41  1  0
 41 42  1  0
 41 43  1  0
 41 44  1  0
 44 45  1  0
 44 46  1  0
 15 47  2  0
 47 48  1  0
  4 49  1  0
 49 50  1  0
 50 51  1  0
 50  2  2  0
 47  8  1  0
 44 19  1  0
 39 30  1  0
M  CHG  1   3  -1
M  END
>  <UniqueID>  (16) 
15

>  <SMILES>  (16) 
O=C(/N=c1\[n-]ccs1)c1cccc(S(=O)(=O)N2CCN(S(=O)(=O)c3ccccc3F)CC2)c1

>  <Energy>  (16) 
101.05640676103671

>  <Genealogy>  (16) 
O=C(N=c1[n-]ccs1)c1cccc(S(=O)(=O)N2CCN(S(=O)(=O)c3ccccc3F)CC2)c1 (protonated)
O=C(/N=c1\[n-]ccs1)c1cccc(S(=O)(=O)N2CCN(S(=O)(=O)c3ccccc3F)CC2)c1 (cis-trans isomerization)
O=C(/N=c1\[n-]ccs1)c1cccc(S(=O)(=O)N2CCN(S(=O)(=O)c3ccccc3F)CC2)c1 (3D coordinates assigned)
O=C(/N=c1\[n-]ccs1)c1cccc(S(=O)(=O)N2CCN(S(=O)(=O)c3ccccc3F)CC2)c1 (nonaromatic ring conformer: 101.05640676103671 kcal/mol)

>  <smiles>  (16) 
O=C(N=c1[nH]ccs1)c1cccc(S(=O)(=O)N2CCN(S(=O)(=O)c3ccccc3F)CC2)c1

>  <score_type>  (16) 
oracle

>  <origin>  (16) 
adg

>  <m_score__min__energy>  (16) 
-13.41

>  <m_primary>  (16) 
energy

$$$$
16:0
     RDKit          3D

 44 46  0  0  0  0  0  0  0  0999 V2000
   55.0570   29.4710   44.2090 N   0  0  0  0  0  0  0  0  0  0  0  0
   56.2420   30.0630   44.7460 C   0  0  0  0  0  0  0  0  0  0  0  0
   56.4790   31.2760   44.5050 O   0  0  0  0  0  0  0  0  0  0  0  0
   57.1850   29.2720   45.5760 C   0  0  0  0  0  0  0  0  0  0  0  0
   58.4140   29.8300   45.9740 C   0  0  0  0  0  0  0  0  0  0  0  0
   59.3130   29.0990   46.7660 C   0  0  0  0  0  0  0  0  0  0  0  0
   60.6310   29.7110   47.1680 C   0  0  0  0  0  0  0  0  0  0  0  0
   60.4150   30.8410   48.0960 N   0  0  0  0  0  0  0  0  0  0  0  0
   60.7380   32.1590   47.4830 C   0  0  0  0  0  0  0  0  0  0  0  0
   61.6860   33.0280   48.3310 C   0  0  0  0  0  0  0  0  0  0  0  0
   62.9610   32.2490   48.7580 C   0  0  0  0  0  0  0  0  0  0  0  0
   63.7630   32.0430   47.6140 O   0  0  0  0  0  0  0  0  0  0  0  0
   63.8330   33.0350   49.7490 C   0  0  0  0  0  0  0  0  0  0  0  0
   65.2120   32.8000   49.9490 C   0  0  0  0  0  0  0  0  0  0  0  0
   65.9300   33.5490   50.8830 C   0  0  0  0  0  0  0  0  0  0  0  0
   65.2740   34.5260   51.6290 C   0  0  0  0  0  0  0  0  0  0  0  0
   65.9580   35.2590   52.5400 F   0  0  0  0  0  0  0  0  0  0  0  0
   63.9460   34.7370   51.4500 N   0  0  0  0  0  0  0  0  0  0  0  0
   63.2220   34.0240   50.5480 C   0  0  0  0  0  0  0  0  0  0  0  0
   62.5640   30.8710   49.3930 C   0  0  0  0  0  0  0  0  0  0  0  0
   61.0490   30.6080   49.4110 C   0  0  0  0  0  0  0  0  0  0  0  0
   58.9800   27.7970   47.1650 C   0  0  0  0  0  0  0  0  0  0  0  0
   57.7610   27.2360   46.7820 C   0  0  0  0  0  0  0  0  0  0  0  0
   56.8640   27.9620   45.9940 C   0  0  0  0  0  0  0  0  0  0  0  0
   55.6650   27.3650   45.6180 O   0  0  0  0  0  0  0  0  0  0  0  0
   54.4330   30.0270   43.5820 H   0  0  0  0  0  0  0  0  0  0  0  0
   54.7500   28.5130   44.4860 H   0  0  0  0  0  0  0  0  0  0  0  0
   58.6734   30.8520   45.6604 H   0  0  0  0  0  0  0  0  0  0  0  0
   61.2482   28.9477   47.6644 H   0  0  0  0  0  0  0  0  0  0  0  0
   61.1403   30.0829   46.2668 H   0  0  0  0  0  0  0  0  0  0  0  0
   61.2130   31.9797   46.5072 H   0  0  0  0  0  0  0  0  0  0  0  0
   59.7906   32.7113   47.3974 H   0  0  0  0  0  0  0  0  0  0  0  0
   61.9869   33.9060   47.7406 H   0  0  0  0  0  0  0  0  0  0  0  0
   61.1488   33.3279   49.2428 H   0  0  0  0  0  0  0  0  0  0  0  0
   64.5610   31.5140   47.8680 H   0  0  0  0  0  0  0  0  0  0  0  0
   65.7235   32.0211   49.3644 H   0  0  0  0  0  0  0  0  0  0  0  0
   67.0054   33.3692   51.0289 H   0  0  0  0  0  0  0  0  0  0  0  0
   62.1452   34.2206   50.4394 H   0  0  0  0  0  0  0  0  0  0  0  0
   63.0479   30.0704   48.8142 H   0  0  0  0  0  0  0  0  0  0  0  0
   62.8971   30.8940   50.4411 H   0  0  0  0  0  0  0  0  0  0  0  0
   60.8766   29.5620   49.7046 H   0  0  0  0  0  0  0  0  0  0  0  0
   60.5978   31.3105   50.1271 H   0  0  0  0  0  0  0  0  0  0  0  0
   59.6815   27.2160   47.7817 H   0  0  0  0  0  0  0  0  0  0  0  0
   57.5045   26.2155   47.1025 H   0  0  0  0  0  0  0  0  0  0  0  0
  1  2  1  0
  2  3  2  0
  2  4  1  0
  4  5  2  0
  5  6  1  0
  6  7  1  0
  7  8  1  0
  8  9  1  0
  9 10  1  0
 10 11  1  0
 11 12  1  0
 11 13  1  0
 13 14  2  0
 14 15  1  0
 15 16  2  0
 16 17  1  0
 16 18  1  0
 18 19  2  0
 11 20  1  0
 20 21  1  0
  6 22  2  0
 22 23  1  0
 23 24  2  0
 24 25  1  0
 24  4  1  0
 21  8  1  0
 19 13  1  0
  1 26  1  0
  1 27  1  0
  5 28  1  0
  7 29  1  0
  7 30  1  0
  9 31  1  0
  9 32  1  0
 10 33  1  0
 10 34  1  0
 12 35  1  0
 14 36  1  0
 15 37  1  0
 19 38  1  0
 20 39  1  0
 20 40  1  0
 21 41  1  0
 21 42  1  0
 22 43  1  0
 23 44  1  0
M  CHG  1  25  -1
M  END
>  <UniqueID>  (17) 
16

>  <SMILES>  (17) 
NC(=O)c1cc(CN2CCC(O)(c3ccc(F)nc3)CC2)ccc1[O-]

>  <Energy>  (17) 
68.00802822781657

>  <Genealogy>  (17) 
NC(=O)c1cc(CN2CCC(O)(c3ccc(F)nc3)CC2)ccc1[O-] (protonated)
NC(=O)c1cc(CN2CCC(O)(c3ccc(F)nc3)CC2)ccc1[O-] (3D coordinates assigned)
NC(=O)c1cc(CN2CCC(O)(c3ccc(F)nc3)CC2)ccc1[O-] (nonaromatic ring conformer: 68.00802822781657 kcal/mol)

>  <smiles>  (17) 
NC(=O)c1cc(CN2CCC(O)(c3ccc(F)nc3)CC2)ccc1O

>  <score_type>  (17) 
oracle

>  <origin>  (17) 
adg

>  <m_score__min__energy>  (17) 
-11.130000000000001

>  <m_primary>  (17) 
energy

$$$$
17:0
     RDKit          3D

 57 59  0  0  0  0  0  0  0  0999 V2000
   56.6880   30.2700   43.6990 C   0  0  0  0  0  0  0  0  0  0  0  0
   56.4630   31.1110   44.8260 O   0  0  0  0  0  0  0  0  0  0  0  0
   57.3970   32.0310   45.3350 C   0  0  0  0  0  0  0  0  0  0  0  0
   57.1160   33.4080   45.4580 C   0  0  0  0  0  0  0  0  0  0  0  0
   58.0700   34.2760   46.0000 C   0  0  0  0  0  0  0  0  0  0  0  0
   59.3050   33.7840   46.4280 C   0  0  0  0  0  0  0  0  0  0  0  0
   59.6100   32.4200   46.2900 C   0  0  0  0  0  0  0  0  0  0  0  0
   60.9390   31.8870   46.7680 C   0  0  0  0  0  0  0  0  0  0  0  0
   60.8160   31.2420   48.1320 C   0  0  0  0  0  0  0  0  0  0  0  0
   60.7180   29.9390   48.1640 N   0  0  0  0  0  0  0  0  0  0  0  0
   59.5200   29.1520   48.2260 C   0  0  0  0  0  0  0  0  0  0  0  0
   58.8790   29.0540   49.3080 O   0  0  0  0  0  0  0  0  0  0  0  0
   59.0800   28.3780   47.0450 C   0  0  0  0  0  0  0  0  0  0  0  0
   59.6630   28.6150   45.7890 C   0  0  0  0  0  0  0  0  0  0  0  0
   59.1980   27.9390   44.6560 C   0  0  0  0  0  0  0  0  0  0  0  0
   58.1610   27.0130   44.7700 C   0  0  0  0  0  0  0  0  0  0  0  0
   57.5880   26.7440   46.0210 C   0  0  0  0  0  0  0  0  0  0  0  0
   56.2950   25.5560   46.1470 S   0  0  0  0  0  0  0  0  0  0  0  0
   54.7710   26.3370   45.9230 N   0  0  0  0  0  0  0  0  0  0  0  0
   56.3410   24.9120   47.5050 O   0  0  0  0  0  0  0  0  0  0  0  0
   56.4630   24.4900   45.0990 O   0  0  0  0  0  0  0  0  0  0  0  0
   58.0470   27.4300   47.1550 C   0  0  0  0  0  0  0  0  0  0  0  0
   60.8840   32.0600   49.3780 C   0  0  0  0  0  0  0  0  0  0  0  0
   61.9320   32.7290   49.6010 O   0  0  0  0  0  0  0  0  0  0  0  0
   59.8220   32.0660   50.3620 N   0  0  0  0  0  0  0  0  0  0  0  0
   58.4200   31.8720   49.9670 C   0  0  0  0  0  0  0  0  0  0  0  0
   57.4590   32.0590   51.1530 C   0  0  0  0  0  0  0  0  0  0  0  0
   57.8830   31.3070   52.3550 N   0  0  0  0  0  0  0  0  0  0  0  0
   57.4280   29.9040   52.3160 C   0  0  0  0  0  0  0  0  0  0  0  0
   59.3330   31.4020   52.6750 C   0  0  0  0  0  0  0  0  0  0  0  0
   60.1090   32.3720   51.7700 C   0  0  0  0  0  0  0  0  0  0  0  0
   58.6470   31.5500   45.7420 C   0  0  0  0  0  0  0  0  0  0  0  0
   56.9580   29.2606   44.0428 H   0  0  0  0  0  0  0  0  0  0  0  0
   55.7722   30.2178   43.0918 H   0  0  0  0  0  0  0  0  0  0  0  0
   57.5075   30.6820   43.0918 H   0  0  0  0  0  0  0  0  0  0  0  0
   56.1434   33.8006   45.1266 H   0  0  0  0  0  0  0  0  0  0  0  0
   57.8467   35.3494   46.0893 H   0  0  0  0  0  0  0  0  0  0  0  0
   60.0418   34.4676   46.8750 H   0  0  0  0  0  0  0  0  0  0  0  0
   61.3039   31.1383   46.0495 H   0  0  0  0  0  0  0  0  0  0  0  0
   61.6427   32.7289   46.8449 H   0  0  0  0  0  0  0  0  0  0  0  0
   60.4890   29.3355   45.6960 H   0  0  0  0  0  0  0  0  0  0  0  0
   59.6509   28.1380   43.6735 H   0  0  0  0  0  0  0  0  0  0  0  0
   57.7913   26.4917   43.8747 H   0  0  0  0  0  0  0  0  0  0  0  0
   54.7050   27.0900   46.6450 H   0  0  0  0  0  0  0  0  0  0  0  0
   57.5959   27.2251   48.1371 H   0  0  0  0  0  0  0  0  0  0  0  0
   58.1664   32.6030   49.1851 H   0  0  0  0  0  0  0  0  0  0  0  0
   58.3093   30.8418   49.5976 H   0  0  0  0  0  0  0  0  0  0  0  0
   57.4145   33.1289   51.4047 H   0  0  0  0  0  0  0  0  0  0  0  0
   56.4755   31.6718   50.8483 H   0  0  0  0  0  0  0  0  0  0  0  0
   57.3065   29.5293   53.3430 H   0  0  0  0  0  0  0  0  0  0  0  0
   56.4648   29.8454   51.7879 H   0  0  0  0  0  0  0  0  0  0  0  0
   58.1735   29.2913   51.7879 H   0  0  0  0  0  0  0  0  0  0  0  0
   59.4362   31.7421   53.7160 H   0  0  0  0  0  0  0  0  0  0  0  0
   59.7617   30.4021   52.5125 H   0  0  0  0  0  0  0  0  0  0  0  0
   59.8011   33.4047   51.9907 H   0  0  0  0  0  0  0  0  0  0  0  0
   61.1876   32.2626   51.9559 H   0  0  0  0  0  0  0  0  0  0  0  0
   58.8800   30.4805   45.6327 H   0  0  0  0  0  0  0  0  0  0  0  0
  1  2  1  0
  2  3  1  0
  3  4  2  0
  4  5  1  0
  5  6  2  0
  6  7  1  0
  7  8  1  0
  8  9  1  0
  9 10  2  3
 10 11  1  0
 11 12  2  0
 11 13  1  0
 13 14  2  0
 14 15  1  0
 15 16  2  0
 16 17  1  0
 17 18  1  0
 18 19  1  0
 18 20  2  0
 18 21  2  0
 17 22  2  0
  9 23  1  0
 23 24  2  0
 23 25  1  0
 25 26  1  0
 26 27  1  0
 27 28  1  0
 28 29  1  0
 28 30  1  0
 30 31  1  0
  7 32  2  0
 32  3  1  0
 22 13  1  0
 31 25  1  0
  1 33  1  0
  1 34  1  0
  1 35  1  0
  4 36  1  0
  5 37  1  0
  6 38  1  0
  8 39  1  0
  8 40  1  0
 14 41  1  0
 15 42  1  0
 16 43  1  0
 19 44  1  0
 22 45  1  0
 26 46  1  0
 26 47  1  0
 27 48  1  0
 27 49  1  0
 29 50  1  0
 29 51  1  0
 29 52  1  0
 30 53  1  0
 30 54  1  0
 31 55  1  0
 31 56  1  0
 32 57  1  0
M  CHG  1  19  -1
M  END
>  <UniqueID>  (18) 
17

>  <SMILES>  (18) 
COc1cccc(CC(=NC(=O)c2cccc(S([NH-])(=O)=O)c2)C(=O)N2CCN(C)CC2)c1

>  <Energy>  (18) 
82.33452445182346

>  <Genealogy>  (18) 
COc1cccc(CC(=NC(=O)c2cccc(S([NH-])(=O)=O)c2)C(=O)N2CCN(C)CC2)c1 (protonated)
COc1cccc(CC(=NC(=O)c2cccc(S([NH-])(=O)=O)c2)C(=O)N2CCN(C)CC2)c1 (3D coordinates assigned)
COc1cccc(CC(=NC(=O)c2cccc(S([NH-])(=O)=O)c2)C(=O)N2CCN(C)CC2)c1 (nonaromatic ring conformer: 82.33452445182346 kcal/mol)

>  <smiles>  (18) 
COc1cccc(CC(=NC(=O)c2cccc(S(N)(=O)=O)c2)C(=O)N2CCN(C)CC2)c1

>  <score_type>  (18) 
oracle

>  <origin>  (18) 
adg

>  <m_score__min__energy>  (18) 
-12.380000000000001

>  <m_primary>  (18) 
energy

$$$$
18:0
     RDKit          3D

 74 78  0  0  0  0  0  0  0  0999 V2000
   55.9940   24.0800   44.4450 C   0  0  0  0  0  0  0  0  0  0  0  0
   55.6450   25.1320   45.8360 S   0  0  0  0  0  0  0  0  0  0  0  0
   55.5050   24.2460   47.0450 O   0  0  0  0  0  0  0  0  0  0  0  0
   54.3670   25.8890   45.6360 O   0  0  0  0  0  0  0  0  0  0  0  0
   56.9620   26.2750   46.0880 C   0  0  0  0  0  0  0  0  0  0  0  0
   58.1010   25.8880   46.8180 C   0  0  0  0  0  0  0  0  0  0  0  0
   59.1110   26.8150   47.0960 C   0  0  0  0  0  0  0  0  0  0  0  0
   59.0020   28.1280   46.6230 C   0  0  0  0  0  0  0  0  0  0  0  0
   59.9910   29.1460   47.0160 C   0  0  0  0  0  0  0  0  0  0  0  0
   61.1260   29.1060   46.4520 O   0  0  0  0  0  0  0  0  0  0  0  0
   59.7470   29.9900   48.1780 N   0  0  1  0  0  0  0  0  0  0  0  0
   60.5870   29.5650   49.2860 C   0  0  0  0  0  0  0  0  0  0  0  0
   60.4410   28.2580   49.8030 C   0  0  0  0  0  0  0  0  0  0  0  0
   61.2290   27.8240   50.8650 C   0  0  0  0  0  0  0  0  0  0  0  0
   62.1910   28.6710   51.4370 C   0  0  0  0  0  0  0  0  0  0  0  0
   62.9560   28.2270   52.6470 C   0  0  0  0  0  0  0  0  0  0  0  0
   64.3790   27.9470   52.2550 C   0  0  0  0  0  0  0  0  0  0  0  0
   65.2730   29.0050   52.0080 C   0  0  0  0  0  0  0  0  0  0  0  0
   66.5800   28.7380   51.5820 C   0  0  0  0  0  0  0  0  0  0  0  0
   67.0000   27.4180   51.3870 C   0  0  0  0  0  0  0  0  0  0  0  0
   66.1090   26.3590   51.6130 C   0  0  0  0  0  0  0  0  0  0  0  0
   64.8020   26.6260   52.0460 C   0  0  0  0  0  0  0  0  0  0  0  0
   62.3510   29.9690   50.9270 C   0  0  0  0  0  0  0  0  0  0  0  0
   61.5700   30.4060   49.8610 C   0  0  0  0  0  0  0  0  0  0  0  0
   59.7630   31.4660   47.9000 C   0  0  0  0  0  0  0  0  0  0  0  0
   58.6050   32.2990   48.5210 C   0  0  0  0  0  0  0  0  0  0  0  0
   58.8870   33.7890   48.2740 C   0  0  0  0  0  0  0  0  0  0  0  0
   59.1260   34.1250   46.8440 N   0  0  0  0  0  0  0  0  0  0  0  0
   60.3600   34.9170   46.6460 C   0  0  0  0  0  0  0  0  0  0  0  0
   61.5410   34.2130   47.2580 C   0  0  0  0  0  0  0  0  0  0  0  0
   61.7210   34.2290   48.6520 C   0  0  0  0  0  0  0  0  0  0  0  0
   62.8060   33.5650   49.2260 C   0  0  0  0  0  0  0  0  0  0  0  0
   63.7150   32.8820   48.4170 C   0  0  0  0  0  0  0  0  0  0  0  0
   63.5500   32.8750   47.0290 C   0  0  0  0  0  0  0  0  0  0  0  0
   62.4660   33.5340   46.4470 C   0  0  0  0  0  0  0  0  0  0  0  0
   59.0260   32.9760   45.9070 C   0  0  0  0  0  0  0  0  0  0  0  0
   59.8670   31.7580   46.3640 C   0  0  0  0  0  0  0  0  0  0  0  0
   57.8690   28.5170   45.8810 C   0  0  0  0  0  0  0  0  0  0  0  0
   56.8550   27.5930   45.6080 C   0  0  0  0  0  0  0  0  0  0  0  0
   56.3213   23.0933   44.8045 H   0  0  0  0  0  0  0  0  0  0  0  0
   55.0858   23.9652   43.8351 H   0  0  0  0  0  0  0  0  0  0  0  0
   56.7907   24.5308   43.8351 H   0  0  0  0  0  0  0  0  0  0  0  0
   58.1977   24.8510   47.1719 H   0  0  0  0  0  0  0  0  0  0  0  0
   59.9893   26.5128   47.6852 H   0  0  0  0  0  0  0  0  0  0  0  0
   58.7440   29.8040   48.4350 H   0  0  0  0  0  0  0  0  0  0  0  0
   59.6978   27.5774   49.3621 H   0  0  0  0  0  0  0  0  0  0  0  0
   61.0964   26.8061   51.2604 H   0  0  0  0  0  0  0  0  0  0  0  0
   62.9333   29.0204   53.4085 H   0  0  0  0  0  0  0  0  0  0  0  0
   62.4995   27.3151   53.0594 H   0  0  0  0  0  0  0  0  0  0  0  0
   64.9443   30.0451   52.1500 H   0  0  0  0  0  0  0  0  0  0  0  0
   67.2782   29.5684   51.4002 H   0  0  0  0  0  0  0  0  0  0  0  0
   68.0286   27.2109   51.0566 H   0  0  0  0  0  0  0  0  0  0  0  0
   66.4346   25.3208   51.4510 H   0  0  0  0  0  0  0  0  0  0  0  0
   64.1042   25.7942   52.2228 H   0  0  0  0  0  0  0  0  0  0  0  0
   63.0971   30.6439   51.3719 H   0  0  0  0  0  0  0  0  0  0  0  0
   61.7187   31.4193   49.4596 H   0  0  0  0  0  0  0  0  0  0  0  0
   60.6689   31.8093   48.4210 H   0  0  0  0  0  0  0  0  0  0  0  0
   57.6520   32.0188   48.0486 H   0  0  0  0  0  0  0  0  0  0  0  0
   58.5379   32.1029   49.6013 H   0  0  0  0  0  0  0  0  0  0  0  0
   58.0216   34.3691   48.6268 H   0  0  0  0  0  0  0  0  0  0  0  0
   59.8094   34.0358   48.8201 H   0  0  0  0  0  0  0  0  0  0  0  0
   60.5361   35.0498   45.5683 H   0  0  0  0  0  0  0  0  0  0  0  0
   60.2371   35.8956   47.1331 H   0  0  0  0  0  0  0  0  0  0  0  0
   61.0052   34.7660   49.2917 H   0  0  0  0  0  0  0  0  0  0  0  0
   62.9448   33.5800   50.3171 H   0  0  0  0  0  0  0  0  0  0  0  0
   64.5625   32.3484   48.8721 H   0  0  0  0  0  0  0  0  0  0  0  0
   64.2769   32.3483   46.3932 H   0  0  0  0  0  0  0  0  0  0  0  0
   62.3360   33.5218   45.3548 H   0  0  0  0  0  0  0  0  0  0  0  0
   57.9719   32.6696   45.8369 H   0  0  0  0  0  0  0  0  0  0  0  0
   59.4191   33.3053   44.9338 H   0  0  0  0  0  0  0  0  0  0  0  0
   59.5188   30.8697   45.8166 H   0  0  0  0  0  0  0  0  0  0  0  0
   60.9200   31.9942   46.1507 H   0  0  0  0  0  0  0  0  0  0  0  0
   57.7817   29.5507   45.5152 H   0  0  0  0  0  0  0  0  0  0  0  0
   55.9764   27.8961   45.0196 H   0  0  0  0  0  0  0  0  0  0  0  0
  1  2  1  0
  2  3  2  0
  2  4  2  0
  2  5  1  0
  5  6  2  0
  6  7  1  0
  7  8  2  0
  8  9  1  0
  9 10  2  0
  9 11  1  0
 11 12  1  0
 12 13  2  0
 13 14  1  0
 14 15  2  0
 15 16  1  0
 16 17  1  0
 17 18  2  0
 18 19  1  0
 19 20  2  0
 20 21  1  0
 21 22  2  0
 15 23  1  0
 23 24  2  0
 11 25  1  0
 25 26  1  0
 26 27  1  0
 27 28  1  0
 28 29  1  0
 29 30  1  0
 30 31  2  0
 31 32  1  0
 32 33  2  0
 33 34  1  0
 34 35  2  0
 28 36  1  0
 36 37  1  0
  8 38  1  0
 38 39  2  0
 39  5  1  0
 24 12  1  0
 37 25  1  0
 22 17  1  0
 35 30  1  0
  1 40  1  0
  1 41  1  0
  1 42  1  0
  6 43  1  0
  7 44  1  0
 11 45  1  1
 13 46  1  0
 14 47  1  0
 16 48  1  0
 16 49  1  0
 18 50  1  0
 19 51  1  0
 20 52  1  0
 21 53  1  0
 22 54  1  0
 23 55  1  0
 24 56  1  0
 25 57  1  0
 26 58  1  0
 26 59  1  0
 27 60  1  0
 27 61  1  0
 29 62  1  0
 29 63  1  0
 31 64  1  0
 32 65  1  0
 33 66  1  0
 34 67  1  0
 35 68  1  0
 36 69  1  0
 36 70  1  0
 37 71  1  0
 37 72  1  0
 38 73  1  0
 39 74  1  0
M  CHG  1  11   1
M  END
>  <UniqueID>  (19) 
18

>  <SMILES>  (19) 
CS(=O)(=O)c1ccc(C(=O)[N@@H+](c2ccc(Cc3ccccc3)cc2)C2CCN(Cc3ccccc3)CC2)cc1

>  <Energy>  (19) 
111.13484551933274

>  <Genealogy>  (19) 
CS(=O)(=O)c1ccc(C(=O)[NH+](c2ccc(Cc3ccccc3)cc2)C2CCN(Cc3ccccc3)CC2)cc1 (protonated)
CS(=O)(=O)c1ccc(C(=O)[N@@H+](c2ccc(Cc3ccccc3)cc2)C2CCN(Cc3ccccc3)CC2)cc1 (chirality)
CS(=O)(=O)c1ccc(C(=O)[N@@H+](c2ccc(Cc3ccccc3)cc2)C2CCN(Cc3ccccc3)CC2)cc1 (3D coordinates assigned)
CS(=O)(=O)c1ccc(C(=O)[N@@H+](c2ccc(Cc3ccccc3)cc2)C2CCN(Cc3ccccc3)CC2)cc1 (nonaromatic ring conformer: 111.13484551933274 kcal/mol)

>  <smiles>  (19) 
CS(=O)(=O)c1ccc(C(=O)N(c2ccc(Cc3ccccc3)cc2)C2CCN(Cc3ccccc3)CC2)cc1

>  <score_type>  (19) 
oracle

>  <origin>  (19) 
adg

>  <m_score__min__energy>  (19) 
-9.4399999999999995

>  <m_primary>  (19) 
energy

$$$$
19:0
     RDKit          3D

 45 47  0  0  0  0  0  0  0  0999 V2000
   55.2070   29.0860   44.8770 O   0  0  0  0  0  0  0  0  0  0  0  0
   56.3600   29.5260   44.6320 C   0  0  0  0  0  0  0  0  0  0  0  0
   57.4060   28.5690   44.1180 C   0  0  0  0  0  0  0  0  0  0  0  0
   58.0750   27.8610   45.2070 N   0  0  0  0  0  0  0  0  0  0  0  0
   57.4510   26.9220   46.0940 C   0  0  0  0  0  0  0  0  0  0  0  0
   57.3500   27.2090   47.3150 O   0  0  0  0  0  0  0  0  0  0  0  0
   56.9710   25.6120   45.6210 C   0  0  0  0  0  0  0  0  0  0  0  0
   57.9150   24.6450   45.2390 C   0  0  0  0  0  0  0  0  0  0  0  0
   57.4950   23.4050   44.7510 C   0  0  0  0  0  0  0  0  0  0  0  0
   56.1330   23.1180   44.6490 C   0  0  0  0  0  0  0  0  0  0  0  0
   55.1860   24.0660   45.0430 C   0  0  0  0  0  0  0  0  0  0  0  0
   55.5940   25.3110   45.5410 C   0  0  0  0  0  0  0  0  0  0  0  0
   54.6140   26.2130   45.9610 O   0  0  0  0  0  0  0  0  0  0  0  0
   56.6130   30.9280   44.8120 N   0  0  0  0  0  0  0  0  0  0  0  0
   57.7320   31.5150   45.4880 C   0  0  0  0  0  0  0  0  0  0  0  0
   57.9880   32.8790   45.3170 C   0  0  0  0  0  0  0  0  0  0  0  0
   59.0670   33.4830   45.9690 C   0  0  0  0  0  0  0  0  0  0  0  0
   59.8930   32.7320   46.8200 C   0  0  0  0  0  0  0  0  0  0  0  0
   61.0080   33.3580   47.4830 N   0  0  0  0  0  0  0  0  0  0  0  0
   60.7920   34.1900   48.6710 C   0  0  0  0  0  0  0  0  0  0  0  0
   62.0410   34.1630   49.5540 C   0  0  0  0  0  0  0  0  0  0  0  0
   63.1950   34.5000   48.8060 O   0  0  0  0  0  0  0  0  0  0  0  0
   63.4310   33.5110   47.8200 C   0  0  0  0  0  0  0  0  0  0  0  0
   62.2960   33.4850   46.7930 C   0  0  0  0  0  0  0  0  0  0  0  0
   59.6190   31.3670   47.0100 C   0  0  0  0  0  0  0  0  0  0  0  0
   58.5390   30.7650   46.3570 C   0  0  0  0  0  0  0  0  0  0  0  0
   56.9223   27.8331   43.4589 H   0  0  0  0  0  0  0  0  0  0  0  0
   58.1633   29.1508   43.5721 H   0  0  0  0  0  0  0  0  0  0  0  0
   58.9895   24.8647   45.3243 H   0  0  0  0  0  0  0  0  0  0  0  0
   58.2389   22.6539   44.4468 H   0  0  0  0  0  0  0  0  0  0  0  0
   55.8049   22.1437   44.2577 H   0  0  0  0  0  0  0  0  0  0  0  0
   54.1138   23.8342   44.9620 H   0  0  0  0  0  0  0  0  0  0  0  0
   54.7740   27.2120   46.0000 H   0  0  0  0  0  0  0  0  0  0  0  0
   57.3366   33.4802   44.6657 H   0  0  0  0  0  0  0  0  0  0  0  0
   59.2700   34.5530   45.8143 H   0  0  0  0  0  0  0  0  0  0  0  0
   60.5864   35.2249   48.3601 H   0  0  0  0  0  0  0  0  0  0  0  0
   59.9357   33.7978   49.2394 H   0  0  0  0  0  0  0  0  0  0  0  0
   61.9187   34.8867   50.3734 H   0  0  0  0  0  0  0  0  0  0  0  0
   62.1663   33.1465   49.9552 H   0  0  0  0  0  0  0  0  0  0  0  0
   64.3776   33.7333   47.3057 H   0  0  0  0  0  0  0  0  0  0  0  0
   63.4838   32.5285   48.3119 H   0  0  0  0  0  0  0  0  0  0  0  0
   62.3084   34.4181   46.2106 H   0  0  0  0  0  0  0  0  0  0  0  0
   62.4343   32.6269   46.1188 H   0  0  0  0  0  0  0  0  0  0  0  0
   60.2578   30.7686   47.6762 H   0  0  0  0  0  0  0  0  0  0  0  0
   58.3213   29.6999   46.5251 H   0  0  0  0  0  0  0  0  0  0  0  0
  1  2  2  0
  2  3  1  0
  3  4  1  0
  4  5  1  0
  5  6  2  0
  5  7  1  0
  7  8  2  0
  8  9  1  0
  9 10  2  0
 10 11  1  0
 11 12  2  0
 12 13  1  0
  2 14  1  0
 14 15  1  0
 15 16  2  0
 16 17  1  0
 17 18  2  0
 18 19  1  0
 19 20  1  0
 20 21  1  0
 21 22  1  0
 22 23  1  0
 23 24  1  0
 18 25  1  0
 25 26  2  0
 12  7  1  0
 26 15  1  0
 24 19  1  0
  3 27  1  0
  3 28  1  0
  8 29  1  0
  9 30  1  0
 10 31  1  0
 11 32  1  0
 13 33  1  0
 16 34  1  0
 17 35  1  0
 20 36  1  0
 20 37  1  0
 21 38  1  0
 21 39  1  0
 23 40  1  0
 23 41  1  0
 24 42  1  0
 24 43  1  0
 25 44  1  0
 26 45  1  0
M  CHG  2   4  -1  14  -1
M  END
>  <UniqueID>  (20) 
19

>  <SMILES>  (20) 
O=C(C[N-]C(=O)c1ccccc1O)[N-]c1ccc(N2CCOCC2)cc1

>  <Energy>  (20) 
60.79828461984777

>  <Genealogy>  (20) 
O=C(C[N-]C(=O)c1ccccc1O)[N-]c1ccc(N2CCOCC2)cc1 (protonated)
O=C(C[N-]C(=O)c1ccccc1O)[N-]c1ccc(N2CCOCC2)cc1 (3D coordinates assigned)
O=C(C[N-]C(=O)c1ccccc1O)[N-]c1ccc(N2CCOCC2)cc1 (nonaromatic ring conformer: 60.79828461984777 kcal/mol)

>  <smiles>  (20) 
O=C(CNC(=O)c1ccccc1O)Nc1ccc(N2CCOCC2)cc1

>  <score_type>  (20) 
oracle

>  <origin>  (20) 
adg

>  <m_score__min__energy>  (20) 
-12.57

>  <m_primary>  (20) 
energy

$$$$
20:0
     RDKit          3D

 65 69  0  0  0  0  0  0  0  0999 V2000
   58.9520   33.8580   54.2010 C   0  0  0  0  0  0  0  0  0  0  0  0
   58.6820   33.0250   53.1870 C   0  0  0  0  0  0  0  0  0  0  0  0
   57.5480   32.3020   53.1400 N   0  0  0  0  0  0  0  0  0  0  0  0
   57.5880   31.5640   52.0200 C   0  0  0  0  0  0  0  0  0  0  0  0
   56.4930   30.6070   51.6520 C   0  0  0  0  0  0  0  0  0  0  0  0
   58.7530   31.8250   51.3000 C   0  0  0  0  0  0  0  0  0  0  0  0
   59.0100   31.3590   49.9110 C   0  0  0  0  0  0  0  0  0  0  0  0
   58.3600   31.8830   48.9680 O   0  0  0  0  0  0  0  0  0  0  0  0
   60.0460   30.3700   49.6340 N   0  0  0  0  0  0  0  0  0  0  0  0
   60.9160   30.6980   48.4900 C   0  0  0  0  0  0  0  0  0  0  0  0
   60.1940   30.6550   47.1340 C   0  0  0  0  0  0  0  0  0  0  0  0
   59.1170   29.6450   47.0250 N   0  0  0  0  0  0  0  0  0  0  0  0
   58.4110   29.5010   45.7520 C   0  0  0  0  0  0  0  0  0  0  0  0
   57.6700   30.5720   45.1940 C   0  0  0  0  0  0  0  0  0  0  0  0
   57.0010   30.4290   43.9750 C   0  0  0  0  0  0  0  0  0  0  0  0
   57.0440   29.2170   43.2870 C   0  0  0  0  0  0  0  0  0  0  0  0
   57.7600   28.1430   43.8160 C   0  0  0  0  0  0  0  0  0  0  0  0
   58.4420   28.2800   45.0280 C   0  0  0  0  0  0  0  0  0  0  0  0
   58.6260   28.8980   48.2040 C   0  0  0  0  0  0  0  0  0  0  0  0
   59.5020   29.0190   49.4530 C   0  0  0  0  0  0  0  0  0  0  0  0
   59.4870   32.7470   52.0730 C   0  0  0  0  0  0  0  0  0  0  0  0
   60.7020   33.2940   51.8430 C   0  0  0  0  0  0  0  0  0  0  0  0
   61.8590   32.6000   51.2600 C   0  0  0  0  0  0  0  0  0  0  0  0
   62.1780   31.2760   51.4640 C   0  0  0  0  0  0  0  0  0  0  0  0
   61.5180   30.4130   52.3280 O   0  0  0  0  0  0  0  0  0  0  0  0
   63.1930   30.8990   50.6630 N   0  0  0  0  0  0  0  0  0  0  0  0
   63.4300   32.0110   49.9350 C   0  0  0  0  0  0  0  0  0  0  0  0
   64.3220   32.0610   49.0460 O   0  0  0  0  0  0  0  0  0  0  0  0
   62.6130   33.0480   50.2330 N   0  0  0  0  0  0  0  0  0  0  0  0
   62.4840   34.3100   49.4890 C   0  0  0  0  0  0  0  0  0  0  0  0
   61.4180   34.2060   48.4160 C   0  0  0  0  0  0  0  0  0  0  0  0
   60.0960   34.5730   48.7320 C   0  0  0  0  0  0  0  0  0  0  0  0
   59.0780   34.4580   47.7820 C   0  0  0  0  0  0  0  0  0  0  0  0
   59.3670   33.9850   46.5030 C   0  0  0  0  0  0  0  0  0  0  0  0
   60.6750   33.6310   46.1660 C   0  0  0  0  0  0  0  0  0  0  0  0
   61.7060   33.7410   47.1110 C   0  0  0  0  0  0  0  0  0  0  0  0
   63.0460   33.3890   46.7090 C   0  0  0  0  0  0  0  0  0  0  0  0
   64.1190   33.1050   46.3790 N   0  0  0  0  0  0  0  0  0  0  0  0
   59.8896   34.4332   54.2055 H   0  0  0  0  0  0  0  0  0  0  0  0
   58.2360   33.9667   55.0290 H   0  0  0  0  0  0  0  0  0  0  0  0
   56.7750   32.3060   53.8450 H   0  0  0  0  0  0  0  0  0  0  0  0
   56.0338   30.2057   52.5675 H   0  0  0  0  0  0  0  0  0  0  0  0
   55.7301   31.1331   51.0593 H   0  0  0  0  0  0  0  0  0  0  0  0
   56.9122   29.7805   51.0593 H   0  0  0  0  0  0  0  0  0  0  0  0
   60.6780   30.3260   50.4630 H   0  0  0  0  0  0  0  0  0  0  0  0
   61.3174   31.7114   48.6380 H   0  0  0  0  0  0  0  0  0  0  0  0
   61.7072   29.9345   48.4579 H   0  0  0  0  0  0  0  0  0  0  0  0
   59.7513   31.6455   46.9527 H   0  0  0  0  0  0  0  0  0  0  0  0
   60.9548   30.3712   46.3920 H   0  0  0  0  0  0  0  0  0  0  0  0
   57.6203   31.5319   45.7289 H   0  0  0  0  0  0  0  0  0  0  0  0
   56.4381   31.2764   43.5566 H   0  0  0  0  0  0  0  0  0  0  0  0
   56.5144   29.1080   42.3291 H   0  0  0  0  0  0  0  0  0  0  0  0
   57.7879   27.1845   43.2770 H   0  0  0  0  0  0  0  0  0  0  0  0
   59.0120   27.4282   45.4275 H   0  0  0  0  0  0  0  0  0  0  0  0
   57.6223   29.2732   48.4527 H   0  0  0  0  0  0  0  0  0  0  0  0
   58.6354   27.8348   47.9219 H   0  0  0  0  0  0  0  0  0  0  0  0
   58.8957   28.7627   50.3343 H   0  0  0  0  0  0  0  0  0  0  0  0
   60.3522   28.3319   49.3306 H   0  0  0  0  0  0  0  0  0  0  0  0
   60.8363   34.3510   52.1162 H   0  0  0  0  0  0  0  0  0  0  0  0
   62.2114   35.1133   50.1892 H   0  0  0  0  0  0  0  0  0  0  0  0
   63.4468   34.5291   49.0041 H   0  0  0  0  0  0  0  0  0  0  0  0
   59.8622   34.9541   49.7370 H   0  0  0  0  0  0  0  0  0  0  0  0
   58.0477   34.7409   48.0435 H   0  0  0  0  0  0  0  0  0  0  0  0
   58.5633   33.8905   45.7579 H   0  0  0  0  0  0  0  0  0  0  0  0
   60.8983   33.2637   45.1535 H   0  0  0  0  0  0  0  0  0  0  0  0
  1  2  2  0
  2  3  1  0
  3  4  1  0
  4  5  1  0
  4  6  2  0
  6  7  1  0
  7  8  2  0
  7  9  1  0
  9 10  1  0
 10 11  1  0
 11 12  1  0
 12 13  1  0
 13 14  2  0
 14 15  1  0
 15 16  2  0
 16 17  1  0
 17 18  2  0
 12 19  1  0
 19 20  1  0
  6 21  1  0
 21 22  2  3
 22 23  1  0
 23 24  2  0
 24 25  1  0
 24 26  1  0
 26 27  1  0
 27 28  2  0
 27 29  1  0
 29 30  1  0
 30 31  1  0
 31 32  2  0
 32 33  1  0
 33 34  2  0
 34 35  1  0
 35 36  2  0
 36 37  1  0
 37 38  3  0
 21  2  1  0
 29 23  1  0
 36 31  1  0
 20  9  1  0
 18 13  1  0
  1 39  1  0
  1 40  1  0
  3 41  1  0
  5 42  1  0
  5 43  1  0
  5 44  1  0
  9 45  1  0
 10 46  1  0
 10 47  1  0
 11 48  1  0
 11 49  1  0
 14 50  1  0
 15 51  1  0
 16 52  1  0
 17 53  1  0
 18 54  1  0
 19 55  1  0
 19 56  1  0
 20 57  1  0
 20 58  1  0
 22 59  1  0
 30 60  1  0
 30 61  1  0
 32 62  1  0
 33 63  1  0
 34 64  1  0
 35 65  1  0
M  CHG  3   9   1  25  -1  26  -1
M  END
>  <UniqueID>  (21) 
20

>  <SMILES>  (21) 
C=c1[nH]c(C)c(C(=O)[NH+]2CCN(c3ccccc3)CC2)c1=Cc1c([O-])[n-]c(=O)n1Cc1ccccc1C#N

>  <Energy>  (21) 
158.88148487317466

>  <Genealogy>  (21) 
C=c1[nH]c(C)c(C(=O)[NH+]2CCN(c3ccccc3)CC2)c1=Cc1c([O-])[n-]c(=O)n1Cc1ccccc1C#N (protonated)
C=c1[nH]c(C)c(C(=O)[NH+]2CCN(c3ccccc3)CC2)c1=Cc1c([O-])[n-]c(=O)n1Cc1ccccc1C#N (3D coordinates assigned)
C=c1[nH]c(C)c(C(=O)[NH+]2CCN(c3ccccc3)CC2)c1=Cc1c([O-])[n-]c(=O)n1Cc1ccccc1C#N (nonaromatic ring conformer: 158.88148487317466 kcal/mol)

>  <smiles>  (21) 
C=c1[nH]c(C)c(C(=O)N2CCN(c3ccccc3)CC2)c1=Cc1c(O)[nH]c(=O)n1Cc1ccccc1C#N

>  <score_type>  (21) 
oracle

>  <origin>  (21) 
adg

>  <m_score__min__energy>  (21) 
-11.890000000000001

>  <m_primary>  (21) 
energy

$$$$
21:0
     RDKit          3D

 40 42  0  0  0  0  0  0  0  0999 V2000
   58.8290   31.9260   49.3270 C   0  0  0  0  0  0  0  0  0  0  0  0
   59.0790   30.7110   49.8290 C   0  0  0  0  0  0  0  0  0  0  0  0
   59.2120   29.5420   48.8930 C   0  0  0  0  0  0  0  0  0  0  0  0
   59.3720   30.5250   51.2720 C   0  0  0  0  0  0  0  0  0  0  0  0
   60.3830   31.0970   51.7650 O   0  0  0  0  0  0  0  0  0  0  0  0
   58.5310   29.6730   52.1510 C   0  0  0  0  0  0  0  0  0  0  0  0
   59.1330   28.6930   52.9520 C   0  0  0  0  0  0  0  0  0  0  0  0
   58.3600   27.8930   53.7870 C   0  0  0  0  0  0  0  0  0  0  0  0
   56.9750   28.0540   53.8570 C   0  0  0  0  0  0  0  0  0  0  0  0
   56.2740   27.1850   54.6980 O   0  0  0  0  0  0  0  0  0  0  0  0
   56.3420   29.0670   53.0840 C   0  0  0  0  0  0  0  0  0  0  0  0
   54.8380   29.2970   53.1330 C   0  0  2  0  0  0  0  0  0  0  0  0
   54.4430   30.2330   52.1290 O   0  0  0  0  0  0  0  0  0  0  0  0
   53.1840   30.8410   52.1290 C   0  0  0  0  0  0  0  0  0  0  0  0
   52.7350   31.4850   50.9740 C   0  0  0  0  0  0  0  0  0  0  0  0
   51.4700   32.0790   50.9460 C   0  0  0  0  0  0  0  0  0  0  0  0
   51.0250   32.7100   49.7910 O   0  0  0  0  0  0  0  0  0  0  0  0
   50.6550   32.0360   52.0790 C   0  0  0  0  0  0  0  0  0  0  0  0
   51.1000   31.4120   53.2490 C   0  0  0  0  0  0  0  0  0  0  0  0
   50.2690   31.4020   54.3640 O   0  0  0  0  0  0  0  0  0  0  0  0
   52.3780   30.8120   53.2850 C   0  0  0  0  0  0  0  0  0  0  0  0
   52.9310   30.1820   54.5090 C   0  0  0  0  0  0  0  0  0  0  0  0
   52.2290   30.0650   55.5500 O   0  0  0  0  0  0  0  0  0  0  0  0
   54.3780   29.7510   54.5390 C   0  0  1  0  0  0  0  0  0  0  0  0
   54.5800   28.7250   55.4820 O   0  0  0  0  0  0  0  0  0  0  0  0
   57.1360   29.8580   52.2190 C   0  0  0  0  0  0  0  0  0  0  0  0
   56.5370   30.8200   51.4070 O   0  0  0  0  0  0  0  0  0  0  0  0
   58.7294   32.7897   50.0009 H   0  0  0  0  0  0  0  0  0  0  0  0
   58.7231   32.0611   48.2405 H   0  0  0  0  0  0  0  0  0  0  0  0
   59.3174   28.6154   49.4763 H   0  0  0  0  0  0  0  0  0  0  0  0
   58.3156   29.4761   48.2589 H   0  0  0  0  0  0  0  0  0  0  0  0
   60.1003   29.6792   48.2589 H   0  0  0  0  0  0  0  0  0  0  0  0
   60.2239   28.5556   52.9201 H   0  0  0  0  0  0  0  0  0  0  0  0
   58.8474   27.1218   54.4015 H   0  0  0  0  0  0  0  0  0  0  0  0
   55.3260   27.3350   55.0130 H   0  0  0  0  0  0  0  0  0  0  0  0
   54.3403   28.3385   52.9245 H   0  0  0  0  0  0  0  0  0  0  0  0
   53.3791   31.5249   50.0832 H   0  0  0  0  0  0  0  0  0  0  0  0
   49.6562   32.4960   52.0512 H   0  0  0  0  0  0  0  0  0  0  0  0
   54.9857   30.6161   54.8429 H   0  0  0  0  0  0  0  0  0  0  0  0
   53.7130   28.5590   55.9380 H   0  0  0  0  0  0  0  0  0  0  0  0
  1  2  2  0
  2  3  1  0
  2  4  1  0
  4  5  2  0
  4  6  1  0
  6  7  2  0
  7  8  1  0
  8  9  2  0
  9 10  1  0
  9 11  1  0
 11 12  1  0
 12 13  1  0
 13 14  1  0
 14 15  2  0
 15 16  1  0
 16 17  1  0
 16 18  2  0
 18 19  1  0
 19 20  1  0
 19 21  2  0
 21 22  1  0
 22 23  2  0
 22 24  1  0
 24 25  1  0
 11 26  2  0
 26 27  1  0
 26  6  1  0
 24 12  1  0
 21 14  1  0
  1 28  1  0
  1 29  1  0
  3 30  1  0
  3 31  1  0
  3 32  1  0
  7 33  1  0
  8 34  1  0
 10 35  1  0
 12 36  1  6
 15 37  1  0
 18 38  1  0
 24 39  1  1
 25 40  1  0
M  CHG  3  17  -1  20  -1  27  -1
M  END
>  <UniqueID>  (22) 
21

>  <SMILES>  (22) 
C=C(C)C(=O)c1ccc(O)c([C@@H]2Oc3cc([O-])cc([O-])c3C(=O)[C@H]2O)c1[O-]

>  <Energy>  (22) 
56.04506951198708

>  <Genealogy>  (22) 
C=C(C)C(=O)c1ccc(O)c(C2Oc3cc([O-])cc([O-])c3C(=O)C2O)c1[O-] (protonated)
C=C(C)C(=O)c1ccc(O)c([C@@H]2Oc3cc([O-])cc([O-])c3C(=O)[C@H]2O)c1[O-] (chirality)
C=C(C)C(=O)c1ccc(O)c([C@@H]2Oc3cc([O-])cc([O-])c3C(=O)[C@H]2O)c1[O-] (3D coordinates assigned)
C=C(C)C(=O)c1ccc(O)c([C@@H]2Oc3cc([O-])cc([O-])c3C(=O)[C@H]2O)c1[O-] (nonaromatic ring conformer: 56.04506951198708 kcal/mol)

>  <smiles>  (22) 
C=C(C)C(=O)c1ccc(O)c(C2Oc3cc(O)cc(O)c3C(=O)C2O)c1O

>  <score_type>  (22) 
oracle

>  <origin>  (22) 
adg

>  <m_score__min__energy>  (22) 
-12.85

>  <m_primary>  (22) 
energy

$$$$
22:0
     RDKit          3D

 59 62  0  0  0  0  0  0  0  0999 V2000
   59.9660   33.7250   49.8760 C   0  0  0  0  0  0  0  0  0  0  0  0
   59.5240   33.7540   48.4500 C   0  0  0  0  0  0  0  0  0  0  0  0
   60.0060   34.6030   47.4610 C   0  0  0  0  0  0  0  0  0  0  0  0
   59.3570   34.4390   46.2310 C   0  0  0  0  0  0  0  0  0  0  0  0
   58.3560   33.4720   46.2620 C   0  0  0  0  0  0  0  0  0  0  0  0
   57.4870   33.0930   45.1420 C   0  0  0  0  0  0  0  0  0  0  0  0
   57.4080   33.8430   44.1320 O   0  0  0  0  0  0  0  0  0  0  0  0
   56.7390   31.8730   45.1950 N   0  0  0  0  0  0  0  0  0  0  0  0
   56.6020   30.9640   44.0620 C   0  0  0  0  0  0  0  0  0  0  0  0
   56.4500   29.5560   44.5440 C   0  0  0  0  0  0  0  0  0  0  0  0
   55.3100   29.1260   44.8660 O   0  0  0  0  0  0  0  0  0  0  0  0
   57.6170   28.7440   44.7190 N   0  0  0  0  0  0  0  0  0  0  0  0
   57.7380   27.5760   45.5460 C   0  0  0  0  0  0  0  0  0  0  0  0
   57.0220   26.3970   45.2610 C   0  0  0  0  0  0  0  0  0  0  0  0
   57.1370   25.2750   46.0900 C   0  0  0  0  0  0  0  0  0  0  0  0
   56.1880   23.8320   45.7390 S   0  0  0  0  0  0  0  0  0  0  0  0
   55.1150   23.7060   46.7860 O   0  0  0  0  0  0  0  0  0  0  0  0
   55.5240   23.9710   44.3970 O   0  0  0  0  0  0  0  0  0  0  0  0
   57.2010   22.4020   45.7800 N   0  0  0  0  0  0  0  0  0  0  0  0
   58.0990   22.3270   44.6130 C   0  0  0  0  0  0  0  0  0  0  0  0
   57.3400   21.9550   43.3160 C   0  0  0  0  0  0  0  0  0  0  0  0
   56.0790   21.3490   43.5480 O   0  0  0  0  0  0  0  0  0  0  0  0
   56.1650   20.4310   44.6140 C   0  0  0  0  0  0  0  0  0  0  0  0
   56.3990   21.1700   45.9450 C   0  0  0  0  0  0  0  0  0  0  0  0
   57.9780   25.3210   47.2070 C   0  0  0  0  0  0  0  0  0  0  0  0
   58.7170   26.4730   47.4810 C   0  0  0  0  0  0  0  0  0  0  0  0
   58.6120   27.6010   46.6520 C   0  0  0  0  0  0  0  0  0  0  0  0
   59.3840   28.7750   46.9490 N   0  0  0  0  0  0  0  0  0  0  0  0
   59.4480   29.3720   48.2730 C   0  0  0  0  0  0  0  0  0  0  0  0
   60.6080   30.3580   48.2210 C   0  0  0  0  0  0  0  0  0  0  0  0
   60.9080   30.5740   46.7410 C   0  0  0  0  0  0  0  0  0  0  0  0
   60.3300   29.3650   46.0190 C   0  0  0  0  0  0  0  0  0  0  0  0
   58.2780   32.8210   47.8140 S   0  0  0  0  0  0  0  0  0  0  0  0
   59.0862   33.7827   50.5338 H   0  0  0  0  0  0  0  0  0  0  0  0
   60.5099   32.7892   50.0723 H   0  0  0  0  0  0  0  0  0  0  0  0
   60.6275   34.5817   50.0723 H   0  0  0  0  0  0  0  0  0  0  0  0
   60.8148   35.3297   47.6274 H   0  0  0  0  0  0  0  0  0  0  0  0
   59.6126   35.0165   45.3304 H   0  0  0  0  0  0  0  0  0  0  0  0
   55.7146   31.2451   43.4760 H   0  0  0  0  0  0  0  0  0  0  0  0
   57.5035   31.0333   43.4355 H   0  0  0  0  0  0  0  0  0  0  0  0
   56.3663   26.3576   44.3787 H   0  0  0  0  0  0  0  0  0  0  0  0
   58.5812   23.3057   44.4733 H   0  0  0  0  0  0  0  0  0  0  0  0
   58.8420   21.5397   44.8079 H   0  0  0  0  0  0  0  0  0  0  0  0
   57.1819   22.8728   42.7306 H   0  0  0  0  0  0  0  0  0  0  0  0
   57.9577   21.2181   42.7818 H   0  0  0  0  0  0  0  0  0  0  0  0
   55.2267   19.8604   44.6769 H   0  0  0  0  0  0  0  0  0  0  0  0
   57.0105   19.7516   44.4310 H   0  0  0  0  0  0  0  0  0  0  0  0
   55.4228   21.4403   46.3739 H   0  0  0  0  0  0  0  0  0  0  0  0
   56.9605   20.4938   46.6065 H   0  0  0  0  0  0  0  0  0  0  0  0
   58.0571   24.4474   47.8708 H   0  0  0  0  0  0  0  0  0  0  0  0
   59.3868   26.4972   48.3532 H   0  0  0  0  0  0  0  0  0  0  0  0
   58.5087   29.8958   48.5040 H   0  0  0  0  0  0  0  0  0  0  0  0
   59.5933   28.6128   49.0557 H   0  0  0  0  0  0  0  0  0  0  0  0
   60.3238   31.3084   48.6963 H   0  0  0  0  0  0  0  0  0  0  0  0
   61.4875   29.9752   48.7594 H   0  0  0  0  0  0  0  0  0  0  0  0
   60.4294   31.4979   46.3842 H   0  0  0  0  0  0  0  0  0  0  0  0
   61.9878   30.6764   46.5579 H   0  0  0  0  0  0  0  0  0  0  0  0
   59.8189   29.6763   45.0960 H   0  0  0  0  0  0  0  0  0  0  0  0
   61.1138   28.6511   45.7255 H   0  0  0  0  0  0  0  0  0  0  0  0
  1  2  1  0
  2  3  2  0
  3  4  1  0
  4  5  2  0
  5  6  1  0
  6  7  2  0
  6  8  1  0
  8  9  1  0
  9 10  1  0
 10 11  2  0
 10 12  1  0
 12 13  1  0
 13 14  2  0
 14 15  1  0
 15 16  1  0
 16 17  2  0
 16 18  2  0
 16 19  1  0
 19 20  1  0
 20 21  1  0
 21 22  1  0
 22 23  1  0
 23 24  1  0
 15 25  2  0
 25 26  1  0
 26 27  2  0
 27 28  1  0
 28 29  1  0
 29 30  1  0
 30 31  1  0
 31 32  1  0
  5 33  1  0
 33  2  1  0
 27 13  1  0
 32 28  1  0
 24 19  1  0
  1 34  1  0
  1 35  1  0
  1 36  1  0
  3 37  1  0
  4 38  1  0
  9 39  1  0
  9 40  1  0
 14 41  1  0
 20 42  1  0
 20 43  1  0
 21 44  1  0
 21 45  1  0
 23 46  1  0
 23 47  1  0
 24 48  1  0
 24 49  1  0
 25 50  1  0
 26 51  1  0
 29 52  1  0
 29 53  1  0
 30 54  1  0
 30 55  1  0
 31 56  1  0
 31 57  1  0
 32 58  1  0
 32 59  1  0
M  CHG  2   8  -1  12  -1
M  END
>  <UniqueID>  (23) 
22

>  <SMILES>  (23) 
Cc1ccc(C(=O)[N-]CC(=O)[N-]c2cc(S(=O)(=O)N3CCOCC3)ccc2N2CCCC2)s1

>  <Energy>  (23) 
101.4781436653336

>  <Genealogy>  (23) 
Cc1ccc(C(=O)[N-]CC(=O)[N-]c2cc(S(=O)(=O)N3CCOCC3)ccc2N2CCCC2)s1 (protonated)
Cc1ccc(C(=O)[N-]CC(=O)[N-]c2cc(S(=O)(=O)N3CCOCC3)ccc2N2CCCC2)s1 (3D coordinates assigned)
Cc1ccc(C(=O)[N-]CC(=O)[N-]c2cc(S(=O)(=O)N3CCOCC3)ccc2N2CCCC2)s1 (nonaromatic ring conformer: 101.4781436653336 kcal/mol)

>  <smiles>  (23) 
Cc1ccc(C(=O)NCC(=O)Nc2cc(S(=O)(=O)N3CCOCC3)ccc2N2CCCC2)s1

>  <score_type>  (23) 
oracle

>  <origin>  (23) 
adg

>  <m_score__min__energy>  (23) 
-12.43

>  <m_primary>  (23) 
energy

$$$$
23:0
     RDKit          3D

 37 39  0  0  0  0  0  0  0  0999 V2000
   61.1558   30.7036   48.4176 H   0  0  0  0  0  0  0  0  0  0  0  0
   60.5440   30.0760   47.7530 C   0  0  0  0  0  0  0  0  0  0  0  0
   59.5590   29.2420   48.2900 C   0  0  0  0  0  0  0  0  0  0  0  0
   59.4004   29.2086   49.3780 H   0  0  0  0  0  0  0  0  0  0  0  0
   58.7750   28.4500   47.4450 C   0  0  0  0  0  0  0  0  0  0  0  0
   57.9958   27.8006   47.8705 H   0  0  0  0  0  0  0  0  0  0  0  0
   58.9780   28.4800   46.0560 C   0  0  0  0  0  0  0  0  0  0  0  0
   58.0960   27.6660   45.1440 C   0  0  0  0  0  0  0  0  0  0  0  0
   58.4734   26.6331   45.1164 H   0  0  0  0  0  0  0  0  0  0  0  0
   58.1230   28.1306   44.1473 H   0  0  0  0  0  0  0  0  0  0  0  0
   56.6330   27.6450   45.6130 C   0  0  0  0  0  0  0  0  0  0  0  0
   56.6101   27.6275   46.7126 H   0  0  0  0  0  0  0  0  0  0  0  0
   56.1497   26.7484   45.1977 H   0  0  0  0  0  0  0  0  0  0  0  0
   55.9020   28.8230   45.1400 N   0  0  0  0  0  0  0  0  0  0  0  0
   56.4460   29.8940   44.6430 C   0  0  0  0  0  0  0  0  0  0  0  0
   57.0360   30.8180   45.4500 N   0  0  0  0  0  0  0  0  0  0  0  0
   57.6460   31.9240   44.9480 C   0  0  0  0  0  0  0  0  0  0  0  0
   58.3060   32.8660   45.8850 C   0  0  0  0  0  0  0  0  0  0  0  0
   58.8730   34.0700   45.4260 C   0  0  0  0  0  0  0  0  0  0  0  0
   58.8009   34.3460   44.3636 H   0  0  0  0  0  0  0  0  0  0  0  0
   59.5270   34.9110   46.3270 C   0  0  0  0  0  0  0  0  0  0  0  0
   59.9694   35.8554   45.9771 H   0  0  0  0  0  0  0  0  0  0  0  0
   59.6190   34.5530   47.6710 C   0  0  0  0  0  0  0  0  0  0  0  0
   60.1311   35.2117   48.3879 H   0  0  0  0  0  0  0  0  0  0  0  0
   59.0550   33.3510   48.0970 C   0  0  0  0  0  0  0  0  0  0  0  0
   59.1226   33.0586   49.1553 H   0  0  0  0  0  0  0  0  0  0  0  0
   58.4210   32.5380   47.2080 N   0  0  0  0  0  0  0  0  0  0  0  0
   58.0130   31.6440   47.5640 H   0  0  0  0  0  0  0  0  0  0  0  0
   57.6400   32.1310   43.5600 C   0  0  0  0  0  0  0  0  0  0  0  0
   58.1160   33.0212   43.1230 H   0  0  0  0  0  0  0  0  0  0  0  0
   57.0170   31.1830   42.7450 C   0  0  0  0  0  0  0  0  0  0  0  0
   56.9900   31.3420   41.4970 O   0  0  0  0  0  0  0  0  0  0  0  0
   56.4390   30.0860   43.3000 N   0  0  0  0  0  0  0  0  0  0  0  0
   59.9740   29.3160   45.5230 C   0  0  0  0  0  0  0  0  0  0  0  0
   60.1431   29.3447   44.4365 H   0  0  0  0  0  0  0  0  0  0  0  0
   60.7510   30.1120   46.3720 C   0  0  0  0  0  0  0  0  0  0  0  0
   61.5270   30.7680   45.9507 H   0  0  0  0  0  0  0  0  0  0  0  0
  1  2  1  0
  2  3  2  0
  3  4  1  0
  3  5  1  0
  5  6  1  0
  5  7  2  0
  7  8  1  0
  8  9  1  0
  8 10  1  0
  8 11  1  0
 11 12  1  0
 11 13  1  0
 11 14  1  0
 14 15  2  0
 15 16  1  0
 16 17  1  0
 17 18  1  0
 18 19  2  0
 19 20  1  0
 19 21  1  0
 21 22  1  0
 21 23  2  0
 23 24  1  0
 23 25  1  0
 25 26  1  0
 25 27  2  0
 27 28  1  0
 17 29  2  0
 29 30  1  0
 29 31  1  0
 31 32  2  0
 31 33  1  0
  7 34  1  0
 34 35  1  0
 34 36  2  0
 36 37  1  0
 36  2  1  0
 33 15  1  0
 27 18  1  0
M  CHG  3  16  -1  27   1  33  -1
M  END
>  <UniqueID>  (24) 
23

>  <SMILES>  (24) 
O=c1cc(-c2cccc[nH+]2)[n-]/c(=N\CCc2ccccc2)[n-]1

>  <Energy>  (24) 
38.378648441746705

>  <Genealogy>  (24) 
O=c1cc(-c2cccc[nH+]2)[n-]c(=NCCc2ccccc2)[n-]1 (protonated)
O=c1cc(-c2cccc[nH+]2)[n-]/c(=N\CCc2ccccc2)[n-]1 (cis-trans isomerization)
O=c1cc(-c2cccc[nH+]2)[n-]/c(=N\CCc2ccccc2)[n-]1 (3D coordinates assigned)
O=c1cc(-c2cccc[nH+]2)[n-]/c(=N\CCc2ccccc2)[n-]1 (optimized conformer: 38.378648441746705 kcal/mol)

>  <smiles>  (24) 
O=c1cc(-c2ccccn2)[nH]c(=NCCc2ccccc2)[nH]1

>  <score_type>  (24) 
oracle

>  <origin>  (24) 
adg

>  <m_score__min__energy>  (24) 
-9.4100000000000001

>  <m_primary>  (24) 
energy

$$$$
24:0
     RDKit          3D

 57 60  0  0  0  0  0  0  0  0999 V2000
   57.0210   28.9600   43.1290 N   0  0  0  0  0  0  0  0  0  0  0  0
   56.5240   29.4600   44.3720 C   0  0  0  0  0  0  0  0  0  0  0  0
   55.2970   29.3490   44.6390 O   0  0  0  0  0  0  0  0  0  0  0  0
   57.4300   30.0960   45.3410 C   0  0  0  0  0  0  0  0  0  0  0  0
   58.1540   31.2480   45.1420 C   0  0  0  0  0  0  0  0  0  0  0  0
   58.8610   31.5160   46.2530 N   0  0  0  0  0  0  0  0  0  0  0  0
   58.5420   30.5100   47.0990 C   0  0  0  0  0  0  0  0  0  0  0  0
   59.1060   30.3860   48.4610 C   0  0  0  0  0  0  0  0  0  0  0  0
   59.1590   31.5020   49.3150 C   0  0  0  0  0  0  0  0  0  0  0  0
   59.6760   31.3810   50.6070 C   0  0  0  0  0  0  0  0  0  0  0  0
   60.1430   30.1430   51.0720 C   0  0  0  0  0  0  0  0  0  0  0  0
   60.7230   30.0200   52.4550 C   0  0  0  0  0  0  0  0  0  0  0  0
   59.6060   29.8860   53.5000 C   0  0  0  0  0  0  0  0  0  0  0  0
   59.0670   31.2180   53.9680 C   0  0  0  0  0  0  0  0  0  0  0  0
   59.8610   32.1480   54.2780 O   0  0  0  0  0  0  0  0  0  0  0  0
   57.6580   31.4690   54.0620 N   0  0  0  0  0  0  0  0  0  0  0  0
   56.8710   31.7020   53.0550 C   0  0  0  0  0  0  0  0  0  0  0  0
   56.3020   30.5830   52.2850 C   0  0  0  0  0  0  0  0  0  0  0  0
   56.9010   30.1760   51.2520 O   0  0  0  0  0  0  0  0  0  0  0  0
   55.0590   29.9630   52.6840 N   0  0  0  0  0  0  0  0  0  0  0  0
   55.0500   28.6270   53.2310 C   0  0  0  0  0  0  0  0  0  0  0  0
   56.2010   28.1050   53.8440 C   0  0  0  0  0  0  0  0  0  0  0  0
   56.1930   26.8110   54.3760 C   0  0  0  0  0  0  0  0  0  0  0  0
   55.0350   26.0310   54.3010 C   0  0  0  0  0  0  0  0  0  0  0  0
   53.8840   26.5440   53.6980 C   0  0  0  0  0  0  0  0  0  0  0  0
   53.8880   27.8370   53.1660 C   0  0  0  0  0  0  0  0  0  0  0  0
   53.8140   30.6750   52.5110 C   0  0  0  0  0  0  0  0  0  0  0  0
   53.4680   31.2110   51.2580 C   0  0  0  0  0  0  0  0  0  0  0  0
   52.2560   31.8890   51.0870 C   0  0  0  0  0  0  0  0  0  0  0  0
   51.3790   32.0360   52.1660 C   0  0  0  0  0  0  0  0  0  0  0  0
   50.1750   32.7090   51.9950 O   0  0  0  0  0  0  0  0  0  0  0  0
   51.7130   31.5060   53.4160 C   0  0  0  0  0  0  0  0  0  0  0  0
   52.9230   30.8280   53.5890 C   0  0  0  0  0  0  0  0  0  0  0  0
   60.1130   29.0320   50.2150 C   0  0  0  0  0  0  0  0  0  0  0  0
   59.5920   29.1510   48.9230 C   0  0  0  0  0  0  0  0  0  0  0  0
   57.6710   29.6200   46.5750 N   0  0  0  0  0  0  0  0  0  0  0  0
   56.3720   28.5140   42.4450 H   0  0  0  0  0  0  0  0  0  0  0  0
   58.0360   29.0260   42.8890 H   0  0  0  0  0  0  0  0  0  0  0  0
   58.1544   31.8521   44.2227 H   0  0  0  0  0  0  0  0  0  0  0  0
   58.7908   32.4770   48.9631 H   0  0  0  0  0  0  0  0  0  0  0  0
   59.7171   32.2623   51.2639 H   0  0  0  0  0  0  0  0  0  0  0  0
   61.3676   29.1297   52.4987 H   0  0  0  0  0  0  0  0  0  0  0  0
   61.3082   30.9249   52.6757 H   0  0  0  0  0  0  0  0  0  0  0  0
   58.7798   29.3105   53.0571 H   0  0  0  0  0  0  0  0  0  0  0  0
   60.0371   29.3810   54.3770 H   0  0  0  0  0  0  0  0  0  0  0  0
   56.6289   32.7383   52.7766 H   0  0  0  0  0  0  0  0  0  0  0  0
   57.1132   28.7166   53.9061 H   0  0  0  0  0  0  0  0  0  0  0  0
   57.0980   26.4072   54.8534 H   0  0  0  0  0  0  0  0  0  0  0  0
   55.0303   25.0127   54.7171 H   0  0  0  0  0  0  0  0  0  0  0  0
   52.9732   25.9298   53.6417 H   0  0  0  0  0  0  0  0  0  0  0  0
   52.9786   28.2381   52.6947 H   0  0  0  0  0  0  0  0  0  0  0  0
   54.1548   31.0965   50.4064 H   0  0  0  0  0  0  0  0  0  0  0  0
   51.9932   32.3063   50.1038 H   0  0  0  0  0  0  0  0  0  0  0  0
   51.0226   31.6228   54.2644 H   0  0  0  0  0  0  0  0  0  0  0  0
   53.1802   30.4115   54.5741 H   0  0  0  0  0  0  0  0  0  0  0  0
   60.5013   28.0629   50.5615 H   0  0  0  0  0  0  0  0  0  0  0  0
   59.5623   28.2713   48.2632 H   0  0  0  0  0  0  0  0  0  0  0  0
  1  2  1  0
  2  3  2  0
  2  4  1  0
  4  5  2  0
  5  6  1  0
  6  7  1  0
  7  8  1  0
  8  9  2  0
  9 10  1  0
 10 11  2  0
 11 12  1  0
 12 13  1  0
 13 14  1  0
 14 15  2  0
 14 16  1  0
 16 17  2  3
 17 18  1  0
 18 19  2  0
 18 20  1  0
 20 21  1  0
 21 22  2  0
 22 23  1  0
 23 24  2  0
 24 25  1  0
 25 26  2  0
 20 27  1  0
 27 28  2  0
 28 29  1  0
 29 30  2  0
 30 31  1  0
 30 32  1  0
 32 33  2  0
 11 34  1  0
 34 35  2  0
  7 36  2  0
 36  4  1  0
 35  8  1  0
 26 21  1  0
 33 27  1  0
  1 37  1  0
  1 38  1  0
  5 39  1  0
  9 40  1  0
 10 41  1  0
 12 42  1  0
 12 43  1  0
 13 44  1  0
 13 45  1  0
 17 46  1  0
 22 47  1  0
 23 48  1  0
 24 49  1  0
 25 50  1  0
 26 51  1  0
 28 52  1  0
 29 53  1  0
 32 54  1  0
 33 55  1  0
 34 56  1  0
 35 57  1  0
M  CHG  2   6  -1  31  -1
M  END
>  <UniqueID>  (25) 
24

>  <SMILES>  (25) 
NC(=O)c1c[n-]c(-c2ccc(CCC(=O)N=CC(=O)N(c3ccccc3)c3ccc([O-])cc3)cc2)n1

>  <Energy>  (25) 
95.81962671642444

>  <Genealogy>  (25) 
NC(=O)c1c[n-]c(-c2ccc(CCC(=O)N=CC(=O)N(c3ccccc3)c3ccc([O-])cc3)cc2)n1 (protonated)
NC(=O)c1c[n-]c(-c2ccc(CCC(=O)N=CC(=O)N(c3ccccc3)c3ccc([O-])cc3)cc2)n1 (3D coordinates assigned)
NC(=O)c1c[n-]c(-c2ccc(CCC(=O)N=CC(=O)N(c3ccccc3)c3ccc([O-])cc3)cc2)n1 (optimized conformer: 95.81962671642444 kcal/mol)

>  <smiles>  (25) 
NC(=O)c1c[nH]c(-c2ccc(CCC(=O)N=CC(=O)N(c3ccccc3)c3ccc(O)cc3)cc2)n1

>  <score_type>  (25) 
oracle

>  <origin>  (25) 
adg

>  <m_score__min__energy>  (25) 
-14.789999999999999

>  <m_primary>  (25) 
energy

$$$$
25:0
     RDKit          3D

 61 64  0  0  0  0  0  0  0  0999 V2000
   67.2850   33.7900   50.9610 C   0  0  0  0  0  0  0  0  0  0  0  0
   66.3770   32.5800   50.9600 C   0  0  0  0  0  0  0  0  0  0  0  0
   66.8710   31.5590   50.4730 O   0  0  0  0  0  0  0  0  0  0  0  0
   65.0950   32.4790   51.7390 N   0  0  0  0  0  0  0  0  0  0  0  0
   64.2390   31.4140   51.1740 C   0  0  0  0  0  0  0  0  0  0  0  0
   63.8540   31.6670   49.7250 C   0  0  0  0  0  0  0  0  0  0  0  0
   63.5230   33.0820   49.4590 N   0  0  0  0  0  0  0  0  0  0  0  0
   62.9950   33.3980   48.1570 C   0  0  0  0  0  0  0  0  0  0  0  0
   63.4670   34.3820   47.5270 O   0  0  0  0  0  0  0  0  0  0  0  0
   61.9210   32.5980   47.5370 C   0  0  0  0  0  0  0  0  0  0  0  0
   62.1080   31.2340   47.2550 C   0  0  0  0  0  0  0  0  0  0  0  0
   61.0720   30.4890   46.6760 C   0  0  0  0  0  0  0  0  0  0  0  0
   59.8500   31.1100   46.3660 C   0  0  0  0  0  0  0  0  0  0  0  0
   58.6800   30.2910   45.8870 C   0  0  0  0  0  0  0  0  0  0  0  0
   59.0940   29.2070   44.9930 N   0  0  0  0  0  0  0  0  0  0  0  0
   58.5880   28.0260   44.8430 C   0  0  0  0  0  0  0  0  0  0  0  0
   58.2880   27.4620   43.5710 C   0  0  0  0  0  0  0  0  0  0  0  0
   57.7900   26.1570   43.5050 C   0  0  0  0  0  0  0  0  0  0  0  0
   57.5880   25.4140   44.6770 C   0  0  0  0  0  0  0  0  0  0  0  0
   57.1970   23.9910   44.6060 C   0  0  0  0  0  0  0  0  0  0  0  0
   57.9310   23.1520   43.7380 C   0  0  0  0  0  0  0  0  0  0  0  0
   57.6030   21.7990   43.6300 C   0  0  0  0  0  0  0  0  0  0  0  0
   56.5450   21.2680   44.3620 C   0  0  0  0  0  0  0  0  0  0  0  0
   55.7930   22.0870   45.2070 C   0  0  0  0  0  0  0  0  0  0  0  0
   56.1040   23.4550   45.3370 C   0  0  0  0  0  0  0  0  0  0  0  0
   55.0540   24.4380   46.3810 S   0  0  0  0  0  0  0  0  0  0  0  0
   54.6970   25.9560   45.6280 N   0  0  0  0  0  0  0  0  0  0  0  0
   53.7580   23.7060   46.6160 O   0  0  0  0  0  0  0  0  0  0  0  0
   55.7390   24.6830   47.7010 O   0  0  0  0  0  0  0  0  0  0  0  0
   57.9030   25.9940   45.9170 C   0  0  0  0  0  0  0  0  0  0  0  0
   58.3790   27.2620   45.9650 N   0  0  0  0  0  0  0  0  0  0  0  0
   59.6720   32.4720   46.6440 C   0  0  0  0  0  0  0  0  0  0  0  0
   60.7020   33.2130   47.2220 C   0  0  0  0  0  0  0  0  0  0  0  0
   63.7340   34.1850   50.4070 C   0  0  0  0  0  0  0  0  0  0  0  0
   64.2700   33.7380   51.7910 C   0  0  0  0  0  0  0  0  0  0  0  0
   67.5047   34.0827   51.9983 H   0  0  0  0  0  0  0  0  0  0  0  0
   68.2237   33.5445   50.4427 H   0  0  0  0  0  0  0  0  0  0  0  0
   66.7869   34.6226   50.4427 H   0  0  0  0  0  0  0  0  0  0  0  0
   65.3110   32.1900   52.7460 H   0  0  0  0  0  0  0  0  0  0  0  0
   64.7834   30.4598   51.2305 H   0  0  0  0  0  0  0  0  0  0  0  0
   63.3097   31.3922   51.7622 H   0  0  0  0  0  0  0  0  0  0  0  0
   64.6974   31.3764   49.0814 H   0  0  0  0  0  0  0  0  0  0  0  0
   62.9542   31.0709   49.5126 H   0  0  0  0  0  0  0  0  0  0  0  0
   63.0682   30.7509   47.4889 H   0  0  0  0  0  0  0  0  0  0  0  0
   61.2151   29.4191   46.4643 H   0  0  0  0  0  0  0  0  0  0  0  0
   58.1709   29.8559   46.7597 H   0  0  0  0  0  0  0  0  0  0  0  0
   58.0093   30.9565   45.3237 H   0  0  0  0  0  0  0  0  0  0  0  0
   58.4459   28.0452   42.6518 H   0  0  0  0  0  0  0  0  0  0  0  0
   57.5552   25.7104   42.5275 H   0  0  0  0  0  0  0  0  0  0  0  0
   58.7616   23.5650   43.1468 H   0  0  0  0  0  0  0  0  0  0  0  0
   58.1852   21.1479   42.9613 H   0  0  0  0  0  0  0  0  0  0  0  0
   56.3002   20.1991   44.2746 H   0  0  0  0  0  0  0  0  0  0  0  0
   54.9525   21.6613   45.7747 H   0  0  0  0  0  0  0  0  0  0  0  0
   54.7410   26.6800   46.3770 H   0  0  0  0  0  0  0  0  0  0  0  0
   57.7638   25.4211   46.8457 H   0  0  0  0  0  0  0  0  0  0  0  0
   58.7150   32.9588   46.4050 H   0  0  0  0  0  0  0  0  0  0  0  0
   60.5573   34.2832   47.4313 H   0  0  0  0  0  0  0  0  0  0  0  0
   64.4586   34.8853   49.9660 H   0  0  0  0  0  0  0  0  0  0  0  0
   62.7501   34.6447   50.5820 H   0  0  0  0  0  0  0  0  0  0  0  0
   64.8940   34.5463   52.2001 H   0  0  0  0  0  0  0  0  0  0  0  0
   63.3951   33.5250   52.4228 H   0  0  0  0  0  0  0  0  0  0  0  0
  1  2  1  0
  2  3  2  0
  2  4  1  0
  4  5  1  0
  5  6  1  0
  6  7  1  0
  7  8  1  0
  8  9  2  0
  8 10  1  0
 10 11  2  0
 11 12  1  0
 12 13  2  0
 13 14  1  0
 14 15  1  0
 15 16  2  3
 16 17  1  0
 17 18  2  0
 18 19  1  0
 19 20  1  0
 20 21  2  0
 21 22  1  0
 22 23  2  0
 23 24  1  0
 24 25  2  0
 25 26  1  0
 26 27  1  0
 26 28  2  0
 26 29  2  0
 19 30  2  0
 30 31  1  0
 13 32  1  0
 32 33  2  0
  7 34  1  0
 34 35  1  0
 35  4  1  0
 33 10  1  0
 31 16  1  0
 25 20  1  0
  1 36  1  0
  1 37  1  0
  1 38  1  0
  4 39  1  0
  5 40  1  0
  5 41  1  0
  6 42  1  0
  6 43  1  0
 11 44  1  0
 12 45  1  0
 14 46  1  0
 14 47  1  0
 17 48  1  0
 18 49  1  0
 21 50  1  0
 22 51  1  0
 23 52  1  0
 24 53  1  0
 27 54  1  0
 30 55  1  0
 32 56  1  0
 33 57  1  0
 34 58  1  0
 34 59  1  0
 35 60  1  0
 35 61  1  0
M  CHG  3   4   1  27  -1  31  -1
M  END
>  <UniqueID>  (26) 
25

>  <SMILES>  (26) 
CC(=O)[NH+]1CCN(C(=O)c2ccc(CN=c3ccc(-c4ccccc4S([NH-])(=O)=O)c[n-]3)cc2)CC1

>  <Energy>  (26) 
100.36014781795416

>  <Genealogy>  (26) 
CC(=O)[NH+]1CCN(C(=O)c2ccc(CN=c3ccc(-c4ccccc4S([NH-])(=O)=O)c[n-]3)cc2)CC1 (protonated)
CC(=O)[NH+]1CCN(C(=O)c2ccc(CN=c3ccc(-c4ccccc4S([NH-])(=O)=O)c[n-]3)cc2)CC1 (3D coordinates assigned)
CC(=O)[NH+]1CCN(C(=O)c2ccc(CN=c3ccc(-c4ccccc4S([NH-])(=O)=O)c[n-]3)cc2)CC1 (nonaromatic ring conformer: 100.36014781795416 kcal/mol)

>  <smiles>  (26) 
CC(=O)N1CCN(C(=O)c2ccc(CN=c3ccc(-c4ccccc4S(N)(=O)=O)c[nH]3)cc2)CC1

>  <score_type>  (26) 
oracle

>  <origin>  (26) 
adg

>  <m_score__min__energy>  (26) 
-12.029999999999999

>  <m_primary>  (26) 
energy

$$$$
26:0
     RDKit          3D

 49 52  0  0  0  0  0  0  0  0999 V2000
   52.3991   28.7630   52.3185 H   0  0  0  0  0  0  0  0  0  0  0  0
   53.2990   28.5900   52.9270 C   0  0  0  0  0  0  0  0  0  0  0  0
   53.3566   27.7113   53.5862 H   0  0  0  0  0  0  0  0  0  0  0  0
   54.3290   29.4530   52.8650 C   0  0  0  0  0  0  0  0  0  0  0  0
   55.4520   29.1760   53.6680 C   0  0  0  0  0  0  0  0  0  0  0  0
   55.3792   28.4124   54.4565 H   0  0  0  0  0  0  0  0  0  0  0  0
   56.6530   29.8540   53.4790 C   0  0  0  0  0  0  0  0  0  0  0  0
   57.5103   29.6438   54.1354 H   0  0  0  0  0  0  0  0  0  0  0  0
   56.7730   30.7990   52.4600 C   0  0  0  0  0  0  0  0  0  0  0  0
   58.0650   31.4830   52.2480 C   0  0  0  0  0  0  0  0  0  0  0  0
   58.1420   32.6900   52.6060 O   0  0  0  0  0  0  0  0  0  0  0  0
   59.2360   30.8470   51.6560 N   0  0  0  0  0  0  0  0  0  0  0  0
   59.5420   30.1220   52.3480 H   0  0  0  0  0  0  0  0  0  0  0  0
   60.4110   31.7220   51.4240 C   0  0  0  0  0  0  0  0  0  0  0  0
   60.5666   32.3438   52.3180 H   0  0  0  0  0  0  0  0  0  0  0  0
   61.2724   31.0683   51.2225 H   0  0  0  0  0  0  0  0  0  0  0  0
   60.2420   32.6490   50.2050 C   0  0  0  0  0  0  0  0  0  0  0  0
   59.4343   33.3684   50.4052 H   0  0  0  0  0  0  0  0  0  0  0  0
   61.1869   33.1836   50.0278 H   0  0  0  0  0  0  0  0  0  0  0  0
   59.9030   31.8560   49.0000 N   0  0  0  0  0  0  0  0  0  0  0  0
   59.7970   32.6030   47.7150 C   0  0  0  0  0  0  0  0  0  0  0  0
   60.0561   31.7623   47.0547 H   0  0  0  0  0  0  0  0  0  0  0  0
   58.4940   33.3750   47.4750 C   0  0  0  0  0  0  0  0  0  0  0  0
   58.0141   33.1595   46.5089 H   0  0  0  0  0  0  0  0  0  0  0  0
   57.6254   33.2256   48.1331 H   0  0  0  0  0  0  0  0  0  0  0  0
   59.2750   34.6840   47.5060 C   0  0  0  0  0  0  0  0  0  0  0  0
   59.2105   35.2653   46.5744 H   0  0  0  0  0  0  0  0  0  0  0  0
   59.0046   35.4716   48.2247 H   0  0  0  0  0  0  0  0  0  0  0  0
   60.5830   33.9150   47.6680 C   0  0  0  0  0  0  0  0  0  0  0  0
   61.2650   34.0007   46.8092 H   0  0  0  0  0  0  0  0  0  0  0  0
   61.2880   34.1737   48.4718 H   0  0  0  0  0  0  0  0  0  0  0  0
   58.6740   31.0800   49.2340 C   0  0  0  0  0  0  0  0  0  0  0  0
   57.8459   31.7681   49.4595 H   0  0  0  0  0  0  0  0  0  0  0  0
   58.4380   30.4960   48.3322 H   0  0  0  0  0  0  0  0  0  0  0  0
   58.8760   30.1230   50.4160 C   0  0  0  0  0  0  0  0  0  0  0  0
   57.9425   29.5668   50.5870 H   0  0  0  0  0  0  0  0  0  0  0  0
   59.7028   29.4419   50.1662 H   0  0  0  0  0  0  0  0  0  0  0  0
   55.6430   31.1600   51.7180 C   0  0  0  0  0  0  0  0  0  0  0  0
   55.7336   31.9342   50.9419 H   0  0  0  0  0  0  0  0  0  0  0  0
   54.3890   30.5520   51.9440 C   0  0  0  0  0  0  0  0  0  0  0  0
   53.3270   31.0780   51.2810 C   0  0  0  0  0  0  0  0  0  0  0  0
   53.3660   31.0524   50.1820 H   0  0  0  0  0  0  0  0  0  0  0  0
   52.1270   31.6800   51.8900 C   0  0  0  0  0  0  0  0  0  0  0  0
   51.7940   31.5200   53.1820 N   0  0  0  0  0  0  0  0  0  0  0  0
   50.5950   32.1370   53.2750 C   0  0  0  0  0  0  0  0  0  0  0  0
   49.9550   32.2130   54.3560 O   0  0  0  0  0  0  0  0  0  0  0  0
   50.1320   32.6540   52.1170 N   0  0  0  0  0  0  0  0  0  0  0  0
   51.1050   32.3450   51.2470 C   0  0  0  0  0  0  0  0  0  0  0  0
   51.0440   32.6350   49.8890 O   0  0  0  0  0  0  0  0  0  0  0  0
  1  2  1  0
  2  3  1  0
  2  4  2  0
  4  5  1  0
  5  6  1  0
  5  7  2  0
  7  8  1  0
  7  9  1  0
  9 10  1  0
 10 11  2  0
 10 12  1  0
 12 13  1  0
 12 14  1  0
 14 15  1  0
 14 16  1  0
 14 17  1  0
 17 18  1  0
 17 19  1  0
 17 20  1  0
 20 21  1  0
 21 22  1  0
 21 23  1  0
 23 24  1  0
 23 25  1  0
 23 26  1  0
 26 27  1  0
 26 28  1  0
 26 29  1  0
 29 30  1  0
 29 31  1  0
 20 32  1  0
 32 33  1  0
 32 34  1  0
 32 35  1  0
 35 36  1  0
 35 37  1  0
  9 38  2  0
 38 39  1  0
 38 40  1  0
 40 41  2  0
 41 42  1  0
 41 43  1  0
 43 44  1  0
 44 45  1  0
 45 46  2  0
 45 47  1  0
 47 48  1  0
 48 49  1  0
 40  4  1  0
 48 43  2  0
 35 12  1  0
 29 21  1  0
M  CHG  4  12   1  44  -1  47  -1  49  -1
M  END
>  <UniqueID>  (27) 
26

>  <SMILES>  (27) 
C=c1ccc(C(=O)[NH+]2CCN(C3CCC3)CC2)c/c1=C/c1[n-]c(=O)[n-]c1[O-]

>  <Energy>  (27) 
184.2862959853967

>  <Genealogy>  (27) 
C=c1ccc(C(=O)[NH+]2CCN(C3CCC3)CC2)cc1=Cc1[n-]c(=O)[n-]c1[O-] (protonated)
C=c1ccc(C(=O)[NH+]2CCN(C3CCC3)CC2)c/c1=C/c1[n-]c(=O)[n-]c1[O-] (cis-trans isomerization)
C=c1ccc(C(=O)[NH+]2CCN(C3CCC3)CC2)c/c1=C/c1[n-]c(=O)[n-]c1[O-] (3D coordinates assigned)
C=c1ccc(C(=O)[NH+]2CCN(C3CCC3)CC2)c/c1=C/c1[n-]c(=O)[n-]c1[O-] (nonaromatic ring conformer: 184.2862959853967 kcal/mol)

>  <smiles>  (27) 
C=c1ccc(C(=O)N2CCN(C3CCC3)CC2)cc1=Cc1[nH]c(=O)[nH]c1O

>  <score_type>  (27) 
oracle

>  <origin>  (27) 
adg

>  <m_score__min__energy>  (27) 
-16.75

>  <m_primary>  (27) 
energy

$$$$
27:0
     RDKit          3D

 42 45  0  0  0  0  0  0  0  0999 V2000
   59.5100   29.5940   48.9340 C   0  0  0  0  0  0  0  0  0  0  0  0
   59.6750   30.8120   48.1420 N   0  0  0  0  0  0  0  0  0  0  0  0
   58.5820   31.4780   47.7600 N   0  0  0  0  0  0  0  0  0  0  0  0
   58.6320   32.6330   47.0410 C   0  0  0  0  0  0  0  0  0  0  0  0
   59.8950   33.1750   46.7230 C   0  0  0  0  0  0  0  0  0  0  0  0
   61.0410   32.4730   47.1160 C   0  0  0  0  0  0  0  0  0  0  0  0
   60.9170   31.2890   47.8380 C   0  0  0  0  0  0  0  0  0  0  0  0
   61.9560   30.6730   48.2050 O   0  0  0  0  0  0  0  0  0  0  0  0
   60.0490   34.4600   45.9580 C   0  0  0  0  0  0  0  0  0  0  0  0
   59.5840   34.2940   44.5100 C   0  0  0  0  0  0  0  0  0  0  0  0
   58.1750   33.8700   44.3950 N   0  0  0  0  0  0  0  0  0  0  0  0
   57.8460   32.7510   43.4930 C   0  0  0  0  0  0  0  0  0  0  0  0
   57.6880   31.4560   44.2270 C   0  0  0  0  0  0  0  0  0  0  0  0
   58.7010   30.6660   44.6200 N   0  0  0  0  0  0  0  0  0  0  0  0
   58.0620   29.6470   45.2260 C   0  0  0  0  0  0  0  0  0  0  0  0
   58.7350   28.5080   45.8590 C   0  0  0  0  0  0  0  0  0  0  0  0
   58.1310   27.5550   46.6690 C   0  0  0  0  0  0  0  0  0  0  0  0
   59.0300   26.5980   47.1560 C   0  0  0  0  0  0  0  0  0  0  0  0
   60.3380   26.7930   46.7310 C   0  0  0  0  0  0  0  0  0  0  0  0
   60.3770   28.1580   45.7500 S   0  0  0  0  0  0  0  0  0  0  0  0
   56.7230   29.8130   45.2010 N   0  0  0  0  0  0  0  0  0  0  0  0
   56.5330   30.9400   44.5780 O   0  0  0  0  0  0  0  0  0  0  0  0
   57.2310   34.2120   45.4720 C   0  0  0  0  0  0  0  0  0  0  0  0
   57.3060   33.2860   46.7060 C   0  0  0  0  0  0  0  0  0  0  0  0
   59.5440   29.8452   50.0044 H   0  0  0  0  0  0  0  0  0  0  0  0
   58.5409   29.1308   48.6967 H   0  0  0  0  0  0  0  0  0  0  0  0
   60.3209   28.8897   48.6967 H   0  0  0  0  0  0  0  0  0  0  0  0
   62.0383   32.8566   46.8546 H   0  0  0  0  0  0  0  0  0  0  0  0
   59.4455   35.2418   46.4424 H   0  0  0  0  0  0  0  0  0  0  0  0
   61.1124   34.7412   45.9550 H   0  0  0  0  0  0  0  0  0  0  0  0
   59.7021   35.2575   43.9926 H   0  0  0  0  0  0  0  0  0  0  0  0
   60.2005   33.5030   44.0582 H   0  0  0  0  0  0  0  0  0  0  0  0
   56.9037   32.9805   42.9740 H   0  0  0  0  0  0  0  0  0  0  0  0
   58.6783   32.6356   42.7832 H   0  0  0  0  0  0  0  0  0  0  0  0
   59.7270   30.8040   44.4850 H   0  0  0  0  0  0  0  0  0  0  0  0
   57.0564   27.5522   46.9040 H   0  0  0  0  0  0  0  0  0  0  0  0
   58.7285   25.7693   47.8136 H   0  0  0  0  0  0  0  0  0  0  0  0
   61.2007   26.1623   46.9916 H   0  0  0  0  0  0  0  0  0  0  0  0
   57.4422   35.2403   45.8005 H   0  0  0  0  0  0  0  0  0  0  0  0
   56.2210   34.0939   45.0526 H   0  0  0  0  0  0  0  0  0  0  0  0
   57.0091   33.8847   47.5797 H   0  0  0  0  0  0  0  0  0  0  0  0
   56.6478   32.4427   46.4500 H   0  0  0  0  0  0  0  0  0  0  0  0
  1  2  1  0
  2  3  1  0
  3  4  2  0
  4  5  1  0
  5  6  2  0
  6  7  1  0
  7  8  2  0
  5  9  1  0
  9 10  1  0
 10 11  1  0
 11 12  1  0
 12 13  1  0
 13 14  2  0
 14 15  1  0
 15 16  1  0
 16 17  2  0
 17 18  1  0
 18 19  2  0
 19 20  1  0
 15 21  2  0
 21 22  1  0
 11 23  1  0
 23 24  1  0
  7  2  1  0
 22 13  1  0
 24  4  1  0
 20 16  1  0
  1 25  1  0
  1 26  1  0
  1 27  1  0
  6 28  1  0
  9 29  1  0
  9 30  1  0
 10 31  1  0
 10 32  1  0
 12 33  1  0
 12 34  1  0
 14 35  1  0
 17 36  1  0
 18 37  1  0
 19 38  1  0
 23 39  1  0
 23 40  1  0
 24 41  1  0
 24 42  1  0
M  CHG  1  14   1
M  END
>  <UniqueID>  (28) 
27

>  <SMILES>  (28) 
Cn1nc2c(cc1=O)CCN(Cc1[nH+]c(-c3cccs3)no1)CC2

>  <Energy>  (28) 
121.4545894947889

>  <Genealogy>  (28) 
Cn1nc2c(cc1=O)CCN(Cc1[nH+]c(-c3cccs3)no1)CC2 (protonated)
Cn1nc2c(cc1=O)CCN(Cc1[nH+]c(-c3cccs3)no1)CC2 (3D coordinates assigned)
Cn1nc2c(cc1=O)CCN(Cc1[nH+]c(-c3cccs3)no1)CC2 (nonaromatic ring conformer: 121.4545894947889 kcal/mol)

>  <smiles>  (28) 
Cn1nc2c(cc1=O)CCN(Cc1nc(-c3cccs3)no1)CC2

>  <score_type>  (28) 
oracle

>  <origin>  (28) 
adg

>  <m_score__min__energy>  (28) 
-5.3099999999999996

>  <m_primary>  (28) 
energy

$$$$
28:0
     RDKit          3D

 45 47  0  0  0  0  0  0  0  0999 V2000
   58.6150   33.2670   45.7410 C   0  0  0  0  0  0  0  0  0  0  0  0
   58.0350   32.4200   44.6470 C   0  0  0  0  0  0  0  0  0  0  0  0
   58.1760   32.8000   43.3050 C   0  0  0  0  0  0  0  0  0  0  0  0
   57.6470   32.0000   42.2870 C   0  0  0  0  0  0  0  0  0  0  0  0
   57.7780   32.3890   40.9600 O   0  0  0  0  0  0  0  0  0  0  0  0
   56.9870   30.8090   42.6030 C   0  0  0  0  0  0  0  0  0  0  0  0
   56.8630   30.4010   43.9410 C   0  0  0  0  0  0  0  0  0  0  0  0
   56.1000   29.1490   44.2830 C   0  0  0  0  0  0  0  0  0  0  0  0
   57.0280   28.1360   44.9040 C   0  0  0  0  0  0  0  0  0  0  0  0
   58.4010   28.1880   44.6180 C   0  0  0  0  0  0  0  0  0  0  0  0
   59.2640   27.2100   45.1130 C   0  0  0  0  0  0  0  0  0  0  0  0
   58.7630   26.1560   45.8790 C   0  0  0  0  0  0  0  0  0  0  0  0
   57.3920   26.0780   46.1720 C   0  0  0  0  0  0  0  0  0  0  0  0
   56.8540   24.8820   46.9200 C   0  0  0  0  0  0  0  0  0  0  0  0
   56.7670   23.6860   46.0010 C   0  0  0  0  0  0  0  0  0  0  0  0
   56.4480   23.8720   44.6460 C   0  0  0  0  0  0  0  0  0  0  0  0
   56.4280   22.7850   43.7640 C   0  0  0  0  0  0  0  0  0  0  0  0
   56.1240   22.9710   42.4170 O   0  0  0  0  0  0  0  0  0  0  0  0
   56.7220   21.5020   44.2330 C   0  0  0  0  0  0  0  0  0  0  0  0
   57.0350   21.2950   45.5850 C   0  0  0  0  0  0  0  0  0  0  0  0
   57.3620   19.9130   46.0800 C   0  0  0  0  0  0  0  0  0  0  0  0
   57.0660   22.3900   46.4680 C   0  0  0  0  0  0  0  0  0  0  0  0
   57.3920   22.1860   47.8060 O   0  0  0  0  0  0  0  0  0  0  0  0
   56.5250   27.0800   45.6900 C   0  0  0  0  0  0  0  0  0  0  0  0
   55.1670   27.0260   45.9900 O   0  0  0  0  0  0  0  0  0  0  0  0
   57.3930   31.2110   44.9580 C   0  0  0  0  0  0  0  0  0  0  0  0
   58.3295   32.8500   46.7180 H   0  0  0  0  0  0  0  0  0  0  0  0
   59.7115   33.2786   45.6536 H   0  0  0  0  0  0  0  0  0  0  0  0
   58.2294   34.2935   45.6536 H   0  0  0  0  0  0  0  0  0  0  0  0
   58.7046   33.7308   43.0517 H   0  0  0  0  0  0  0  0  0  0  0  0
   56.5628   30.1885   41.7999 H   0  0  0  0  0  0  0  0  0  0  0  0
   55.2980   29.3937   44.9950 H   0  0  0  0  0  0  0  0  0  0  0  0
   55.6659   28.7272   43.3645 H   0  0  0  0  0  0  0  0  0  0  0  0
   58.7994   29.0056   43.9993 H   0  0  0  0  0  0  0  0  0  0  0  0
   60.3414   27.2695   44.8993 H   0  0  0  0  0  0  0  0  0  0  0  0
   59.4470   25.3812   46.2557 H   0  0  0  0  0  0  0  0  0  0  0  0
   57.5249   24.6469   47.7594 H   0  0  0  0  0  0  0  0  0  0  0  0
   55.8480   25.1181   47.2971 H   0  0  0  0  0  0  0  0  0  0  0  0
   56.2119   24.8801   44.2746 H   0  0  0  0  0  0  0  0  0  0  0  0
   56.6790   23.5800   41.8270 H   0  0  0  0  0  0  0  0  0  0  0  0
   56.7080   20.6493   43.5382 H   0  0  0  0  0  0  0  0  0  0  0  0
   57.3631   19.9082   47.1800 H   0  0  0  0  0  0  0  0  0  0  0  0
   56.6070   19.2032   45.7110 H   0  0  0  0  0  0  0  0  0  0  0  0
   58.3550   19.6168   45.7110 H   0  0  0  0  0  0  0  0  0  0  0  0
   57.3044   30.8954   46.0080 H   0  0  0  0  0  0  0  0  0  0  0  0
  1  2  1  0
  2  3  2  0
  3  4  1  0
  4  5  1  0
  4  6  2  0
  6  7  1  0
  7  8  1  0
  8  9  1  0
  9 10  2  0
 10 11  1  0
 11 12  2  0
 12 13  1  0
 13 14  1  0
 14 15  1  0
 15 16  2  0
 16 17  1  0
 17 18  1  0
 17 19  2  0
 19 20  1  0
 20 21  1  0
 20 22  2  0
 22 23  1  0
 13 24  2  0
 24 25  1  0
  7 26  2  0
 26  2  1  0
 24  9  1  0
 22 15  1  0
  1 27  1  0
  1 28  1  0
  1 29  1  0
  3 30  1  0
  6 31  1  0
  8 32  1  0
  8 33  1  0
 10 34  1  0
 11 35  1  0
 12 36  1  0
 14 37  1  0
 14 38  1  0
 16 39  1  0
 18 40  1  0
 19 41  1  0
 21 42  1  0
 21 43  1  0
 21 44  1  0
 26 45  1  0
M  CHG  3   5  -1  23  -1  25  -1
M  END
>  <UniqueID>  (29) 
28

>  <SMILES>  (29) 
Cc1cc([O-])cc(Cc2cccc(Cc3cc(O)cc(C)c3[O-])c2[O-])c1

>  <Energy>  (29) 
45.09230338317022

>  <Genealogy>  (29) 
Cc1cc([O-])cc(Cc2cccc(Cc3cc(O)cc(C)c3[O-])c2[O-])c1 (protonated)
Cc1cc([O-])cc(Cc2cccc(Cc3cc(O)cc(C)c3[O-])c2[O-])c1 (3D coordinates assigned)
Cc1cc([O-])cc(Cc2cccc(Cc3cc(O)cc(C)c3[O-])c2[O-])c1 (optimized conformer: 45.09230338317022 kcal/mol)

>  <smiles>  (29) 
Cc1cc(O)cc(Cc2cccc(Cc3cc(O)cc(C)c3O)c2O)c1

>  <score_type>  (29) 
oracle

>  <origin>  (29) 
adg

>  <m_score__min__energy>  (29) 
-14.77

>  <m_primary>  (29) 
energy

$$$$
29:0
     RDKit          3D

 42 44  0  0  0  0  0  0  0  0999 V2000
   63.3320   33.3750   47.5950 C   0  0  0  0  0  0  0  0  0  0  0  0
   61.9390   33.8210   47.3050 C   0  0  0  0  0  0  0  0  0  0  0  0
   61.4020   33.8290   46.0670 N   0  0  0  0  0  0  0  0  0  0  0  0
   60.0970   34.2200   46.0840 C   0  0  0  0  0  0  0  0  0  0  0  0
   59.2800   34.2910   44.8310 C   0  0  0  0  0  0  0  0  0  0  0  0
   58.0130   33.6600   45.0180 O   0  0  0  0  0  0  0  0  0  0  0  0
   57.7950   32.2730   45.0430 C   0  0  0  0  0  0  0  0  0  0  0  0
   57.3520   31.5530   43.9180 C   0  0  0  0  0  0  0  0  0  0  0  0
   57.1550   30.1720   43.9970 C   0  0  0  0  0  0  0  0  0  0  0  0
   57.3770   29.4880   45.2010 C   0  0  0  0  0  0  0  0  0  0  0  0
   57.1890   28.0630   45.2490 N   0  0  0  0  0  0  0  0  0  0  0  0
   58.0030   27.1740   46.0340 C   0  0  0  0  0  0  0  0  0  0  0  0
   58.7350   27.6370   46.9500 O   0  0  0  0  0  0  0  0  0  0  0  0
   57.9090   25.7090   45.8400 C   0  0  0  0  0  0  0  0  0  0  0  0
   56.7870   24.9990   45.7040 C   0  0  0  0  0  0  0  0  0  0  0  0
   55.4030   25.4810   45.9060 C   0  0  0  0  0  0  0  0  0  0  0  0
   55.1460   26.7100   46.0010 O   0  0  0  0  0  0  0  0  0  0  0  0
   54.3730   24.5620   46.0630 O   0  0  0  0  0  0  0  0  0  0  0  0
   57.0670   23.5690   45.3990 C   0  0  0  0  0  0  0  0  0  0  0  0
   58.5860   23.4950   45.2490 C   0  0  0  0  0  0  0  0  0  0  0  0
   59.1190   24.8500   45.7090 C   0  0  0  0  0  0  0  0  0  0  0  0
   57.8370   30.2060   46.3190 C   0  0  0  0  0  0  0  0  0  0  0  0
   58.0360   31.5860   46.2390 C   0  0  0  0  0  0  0  0  0  0  0  0
   59.5790   34.4930   47.3480 C   0  0  0  0  0  0  0  0  0  0  0  0
   60.8070   34.2520   48.4700 S   0  0  0  0  0  0  0  0  0  0  0  0
   63.4824   33.3268   48.6836 H   0  0  0  0  0  0  0  0  0  0  0  0
   63.4967   32.3792   47.1577 H   0  0  0  0  0  0  0  0  0  0  0  0
   64.0445   34.0900   47.1577 H   0  0  0  0  0  0  0  0  0  0  0  0
   59.1218   35.3459   44.5624 H   0  0  0  0  0  0  0  0  0  0  0  0
   59.8197   33.7691   44.0270 H   0  0  0  0  0  0  0  0  0  0  0  0
   57.1599   32.0800   42.9718 H   0  0  0  0  0  0  0  0  0  0  0  0
   56.8230   29.6166   43.1074 H   0  0  0  0  0  0  0  0  0  0  0  0
   56.3720   27.6660   44.7340 H   0  0  0  0  0  0  0  0  0  0  0  0
   56.7264   22.9230   46.2216 H   0  0  0  0  0  0  0  0  0  0  0  0
   56.5422   23.2255   44.4954 H   0  0  0  0  0  0  0  0  0  0  0  0
   58.9937   22.6900   45.8780 H   0  0  0  0  0  0  0  0  0  0  0  0
   58.8790   23.2771   44.2114 H   0  0  0  0  0  0  0  0  0  0  0  0
   59.6342   24.7559   46.6763 H   0  0  0  0  0  0  0  0  0  0  0  0
   59.8522   25.2693   45.0043 H   0  0  0  0  0  0  0  0  0  0  0  0
   58.0413   29.6778   47.2620 H   0  0  0  0  0  0  0  0  0  0  0  0
   58.3853   32.1384   47.1238 H   0  0  0  0  0  0  0  0  0  0  0  0
   58.5497   34.8098   47.5719 H   0  0  0  0  0  0  0  0  0  0  0  0
  1  2  1  0
  2  3  2  0
  3  4  1  0
  4  5  1  0
  5  6  1  0
  6  7  1  0
  7  8  2  0
  8  9  1  0
  9 10  2  0
 10 11  1  0
 11 12  1  0
 12 13  2  0
 12 14  1  0
 14 15  2  0
 15 16  1  0
 16 17  2  0
 16 18  1  0
 15 19  1  0
 19 20  1  0
 20 21  1  0
 10 22  1  0
 22 23  2  0
  4 24  2  0
 24 25  1  0
 25  2  1  0
 23  7  1  0
 21 14  1  0
  1 26  1  0
  1 27  1  0
  1 28  1  0
  5 29  1  0
  5 30  1  0
  8 31  1  0
  9 32  1  0
 11 33  1  0
 19 34  1  0
 19 35  1  0
 20 36  1  0
 20 37  1  0
 21 38  1  0
 21 39  1  0
 22 40  1  0
 23 41  1  0
 24 42  1  0
M  CHG  1  18  -1
M  END
>  <UniqueID>  (30) 
29

>  <SMILES>  (30) 
Cc1nc(COc2ccc(NC(=O)C3=C(C(=O)[O-])CCC3)cc2)cs1

>  <Energy>  (30) 
82.73193619842033

>  <Genealogy>  (30) 
Cc1nc(COc2ccc(NC(=O)C3=C(C(=O)[O-])CCC3)cc2)cs1 (protonated)
Cc1nc(COc2ccc(NC(=O)C3=C(C(=O)[O-])CCC3)cc2)cs1 (3D coordinates assigned)
Cc1nc(COc2ccc(NC(=O)C3=C(C(=O)[O-])CCC3)cc2)cs1 (nonaromatic ring conformer: 82.73193619842033 kcal/mol)

>  <smiles>  (30) 
Cc1nc(COc2ccc(NC(=O)C3=C(C(=O)O)CCC3)cc2)cs1

>  <score_type>  (30) 
oracle

>  <origin>  (30) 
adg

>  <m_score__min__energy>  (30) 
-11.32

>  <m_primary>  (30) 
energy

$$$$
30:0
     RDKit          3D

 40 42  0  0  0  0  0  0  0  0999 V2000
   54.2220   26.7110   46.7480 H   0  0  0  0  0  0  0  0  0  0  0  0
   54.8950   26.5650   46.0070 O   0  0  0  0  0  0  0  0  0  0  0  0
   56.0010   25.7370   46.1750 C   0  0  0  0  0  0  0  0  0  0  0  0
   55.9960   24.6550   46.9710 N   0  0  0  0  0  0  0  0  0  0  0  0
   57.2660   24.2070   46.8760 C   0  0  0  0  0  0  0  0  0  0  0  0
   57.6730   23.1890   47.4950 O   0  0  0  0  0  0  0  0  0  0  0  0
   58.0670   24.9400   46.0730 N   0  0  0  0  0  0  0  0  0  0  0  0
   57.2500   25.9000   45.6080 C   0  0  0  0  0  0  0  0  0  0  0  0
   57.7080   26.9930   44.7320 C   0  0  0  0  0  0  0  0  0  0  0  0
   57.9047   26.7343   43.6811 H   0  0  0  0  0  0  0  0  0  0  0  0
   57.9120   28.2870   45.0900 C   0  0  0  0  0  0  0  0  0  0  0  0
   58.9490   28.5370   46.0100 C   0  0  0  0  0  0  0  0  0  0  0  0
   59.6314   27.7193   46.2850 H   0  0  0  0  0  0  0  0  0  0  0  0
   59.1320   29.8020   46.5830 C   0  0  0  0  0  0  0  0  0  0  0  0
   60.2010   29.9790   47.6360 C   0  0  0  0  0  0  0  0  0  0  0  0
   59.7653   30.4853   48.5100 H   0  0  0  0  0  0  0  0  0  0  0  0
   60.5842   28.9872   47.9179 H   0  0  0  0  0  0  0  0  0  0  0  0
   61.3610   30.8160   47.1000 C   0  0  0  0  0  0  0  0  0  0  0  0
   61.9345   31.2298   47.9425 H   0  0  0  0  0  0  0  0  0  0  0  0
   62.0174   30.1821   46.4858 H   0  0  0  0  0  0  0  0  0  0  0  0
   60.9664   31.6388   46.4858 H   0  0  0  0  0  0  0  0  0  0  0  0
   58.2840   30.8510   46.1830 C   0  0  0  0  0  0  0  0  0  0  0  0
   58.4000   32.1710   46.7340 N   0  0  0  0  0  0  0  0  0  0  0  0
   58.4740   32.4180   48.1650 C   0  0  0  0  0  0  0  0  0  0  0  0
   57.4640   32.4841   48.5958 H   0  0  0  0  0  0  0  0  0  0  0  0
   58.9961   31.6055   48.6915 H   0  0  0  0  0  0  0  0  0  0  0  0
   59.2040   33.7470   48.3150 C   0  0  0  0  0  0  0  0  0  0  0  0
   58.7113   34.3721   49.0742 H   0  0  0  0  0  0  0  0  0  0  0  0
   60.2449   33.6050   48.6413 H   0  0  0  0  0  0  0  0  0  0  0  0
   59.1280   34.4140   46.9450 C   0  0  0  0  0  0  0  0  0  0  0  0
   58.2865   35.1215   46.9080 H   0  0  0  0  0  0  0  0  0  0  0  0
   60.0390   34.9876   46.7192 H   0  0  0  0  0  0  0  0  0  0  0  0
   58.9140   33.2810   45.9530 C   0  0  0  0  0  0  0  0  0  0  0  0
   58.1872   33.5774   45.1823 H   0  0  0  0  0  0  0  0  0  0  0  0
   59.8452   33.0152   45.4313 H   0  0  0  0  0  0  0  0  0  0  0  0
   57.3440   30.6200   45.2310 N   0  0  0  0  0  0  0  0  0  0  0  0
   57.1480   29.4100   44.6410 C   0  0  0  0  0  0  0  0  0  0  0  0
   56.3160   29.3880   43.5900 C   0  0  0  0  0  0  0  0  0  0  0  0
   56.1145   28.4411   43.0678 H   0  0  0  0  0  0  0  0  0  0  0  0
   55.8349   30.3169   43.2498 H   0  0  0  0  0  0  0  0  0  0  0  0
  1  2  1  0
  2  3  1  0
  3  4  1  0
  4  5  1  0
  5  6  2  0
  5  7  1  0
  7  8  1  0
  8  9  1  0
  9 10  1  0
  9 11  2  0
 11 12  1  0
 12 13  1  0
 12 14  2  0
 14 15  1  0
 15 16  1  0
 15 17  1  0
 15 18  1  0
 18 19  1  0
 18 20  1  0
 18 21  1  0
 14 22  1  0
 22 23  1  0
 23 24  1  0
 24 25  1  0
 24 26  1  0
 24 27  1  0
 27 28  1  0
 27 29  1  0
 27 30  1  0
 30 31  1  0
 30 32  1  0
 30 33  1  0
 33 34  1  0
 33 35  1  0
 22 36  2  0
 36 37  1  0
 37 38  2  0
 38 39  1  0
 38 40  1  0
  8  3  2  0
 37 11  1  0
 33 23  1  0
M  CHG  2   4  -1   7  -1
M  END
>  <UniqueID>  (31) 
30

>  <SMILES>  (31) 
C=c1nc(N2CCCC2)c(CC)c/c1=C/c1[n-]c(=O)[n-]c1O

>  <Energy>  (31) 
93.20902289962252

>  <Genealogy>  (31) 
C=c1nc(N2CCCC2)c(CC)cc1=Cc1[n-]c(=O)[n-]c1O (protonated)
C=c1nc(N2CCCC2)c(CC)c/c1=C/c1[n-]c(=O)[n-]c1O (cis-trans isomerization)
C=c1nc(N2CCCC2)c(CC)c/c1=C/c1[n-]c(=O)[n-]c1O (3D coordinates assigned)
C=c1nc(N2CCCC2)c(CC)c/c1=C/c1[n-]c(=O)[n-]c1O (nonaromatic ring conformer: 93.20902289962252 kcal/mol)

>  <smiles>  (31) 
C=c1nc(N2CCCC2)c(CC)cc1=Cc1[nH]c(=O)[nH]c1O

>  <score_type>  (31) 
oracle

>  <origin>  (31) 
adg

>  <m_score__min__energy>  (31) 
-12.56

>  <m_primary>  (31) 
energy

$$$$
31:0
     RDKit          3D

 47 49  0  0  0  0  0  0  0  0999 V2000
   59.2980   29.1850   44.4540 C   0  0  0  0  0  0  0  0  0  0  0  0
   59.2040   28.8230   45.7430 C   0  0  0  0  0  0  0  0  0  0  0  0
   58.7140   27.6050   46.2430 C   0  0  0  0  0  0  0  0  0  0  0  0
   58.0520   26.6010   45.6350 C   0  0  0  0  0  0  0  0  0  0  0  0
   57.3150   25.5260   46.3190 C   0  0  0  0  0  0  0  0  0  0  0  0
   57.8740   24.3860   46.7650 N   0  0  0  0  0  0  0  0  0  0  0  0
   56.8130   23.6590   47.1800 C   0  0  0  0  0  0  0  0  0  0  0  0
   56.9340   22.5140   47.6850 O   0  0  0  0  0  0  0  0  0  0  0  0
   55.6150   24.2540   47.0010 N   0  0  0  0  0  0  0  0  0  0  0  0
   55.9470   25.4300   46.4430 C   0  0  0  0  0  0  0  0  0  0  0  0
   55.0120   26.3860   46.0580 O   0  0  0  0  0  0  0  0  0  0  0  0
   59.0030   27.5960   47.5960 C   0  0  0  0  0  0  0  0  0  0  0  0
   59.5800   28.8130   47.8900 C   0  0  0  0  0  0  0  0  0  0  0  0
   60.0130   29.2330   49.2630 C   0  0  0  0  0  0  0  0  0  0  0  0
   59.7080   29.5610   46.7690 N   0  0  0  0  0  0  0  0  0  0  0  0
   60.2670   30.9200   46.7030 C   0  0  0  0  0  0  0  0  0  0  0  0
   59.3350   31.9340   47.3710 C   0  0  0  0  0  0  0  0  0  0  0  0
   59.9810   33.1990   47.4990 O   0  0  0  0  0  0  0  0  0  0  0  0
   59.5720   34.3570   46.8260 C   0  0  0  0  0  0  0  0  0  0  0  0
   59.3450   35.4170   47.4690 O   0  0  0  0  0  0  0  0  0  0  0  0
   59.4450   34.3820   45.3560 C   0  0  0  0  0  0  0  0  0  0  0  0
   58.3030   34.2430   44.6650 C   0  0  0  0  0  0  0  0  0  0  0  0
   57.7760   32.9680   44.1400 C   0  0  0  0  0  0  0  0  0  0  0  0
   57.0910   32.0690   44.9770 C   0  0  0  0  0  0  0  0  0  0  0  0
   56.5710   30.8820   44.4540 C   0  0  0  0  0  0  0  0  0  0  0  0
   56.7140   30.5920   43.0950 C   0  0  0  0  0  0  0  0  0  0  0  0
   57.3690   31.4970   42.2530 C   0  0  0  0  0  0  0  0  0  0  0  0
   57.8890   32.6870   42.7710 C   0  0  0  0  0  0  0  0  0  0  0  0
   59.7018   30.1731   44.1883 H   0  0  0  0  0  0  0  0  0  0  0  0
   58.9712   28.4936   43.6633 H   0  0  0  0  0  0  0  0  0  0  0  0
   58.0633   26.5833   44.5352 H   0  0  0  0  0  0  0  0  0  0  0  0
   54.0530   26.3460   46.3800 H   0  0  0  0  0  0  0  0  0  0  0  0
   58.8094   26.7749   48.3020 H   0  0  0  0  0  0  0  0  0  0  0  0
   59.4373   28.6746   50.0159 H   0  0  0  0  0  0  0  0  0  0  0  0
   61.0850   29.0215   49.3901 H   0  0  0  0  0  0  0  0  0  0  0  0
   59.8343   30.3109   49.3901 H   0  0  0  0  0  0  0  0  0  0  0  0
   61.2395   30.9335   47.2169 H   0  0  0  0  0  0  0  0  0  0  0  0
   60.3839   31.1980   45.6451 H   0  0  0  0  0  0  0  0  0  0  0  0
   58.4289   32.0508   46.7584 H   0  0  0  0  0  0  0  0  0  0  0  0
   59.0708   31.5669   48.3737 H   0  0  0  0  0  0  0  0  0  0  0  0
   60.3679   34.5274   44.7754 H   0  0  0  0  0  0  0  0  0  0  0  0
   57.7127   35.1515   44.4747 H   0  0  0  0  0  0  0  0  0  0  0  0
   56.9644   32.3005   46.0449 H   0  0  0  0  0  0  0  0  0  0  0  0
   56.0479   30.1744   45.1140 H   0  0  0  0  0  0  0  0  0  0  0  0
   56.3119   29.6528   42.6873 H   0  0  0  0  0  0  0  0  0  0  0  0
   57.4751   31.2720   41.1815 H   0  0  0  0  0  0  0  0  0  0  0  0
   58.3879   33.4045   42.1029 H   0  0  0  0  0  0  0  0  0  0  0  0
  1  2  2  0
  2  3  1  0
  3  4  2  3
  4  5  1  0
  5  6  1  0
  6  7  1  0
  7  8  2  0
  7  9  1  0
  9 10  1  0
 10 11  1  0
  3 12  1  0
 12 13  2  0
 13 14  1  0
 13 15  1  0
 15 16  1  0
 16 17  1  0
 17 18  1  0
 18 19  1  0
 19 20  2  0
 19 21  1  0
 21 22  2  3
 22 23  1  0
 23 24  2  0
 24 25  1  0
 25 26  2  0
 26 27  1  0
 27 28  2  0
 15  2  1  0
 28 23  1  0
 10  5  2  0
  1 29  1  0
  1 30  1  0
  4 31  1  0
 11 32  1  0
 12 33  1  0
 14 34  1  0
 14 35  1  0
 14 36  1  0
 16 37  1  0
 16 38  1  0
 17 39  1  0
 17 40  1  0
 21 41  1  0
 22 42  1  0
 24 43  1  0
 25 44  1  0
 26 45  1  0
 27 46  1  0
 28 47  1  0
M  CHG  2   6  -1   9  -1
M  END
>  <UniqueID>  (32) 
31

>  <SMILES>  (32) 
C=c1c(=Cc2[n-]c(=O)[n-]c2O)cc(C)n1CCOC(=O)C=Cc1ccccc1

>  <Energy>  (32) 
118.64453815019995

>  <Genealogy>  (32) 
C=c1c(=Cc2[n-]c(=O)[n-]c2O)cc(C)n1CCOC(=O)C=Cc1ccccc1 (protonated)
C=c1c(=Cc2[n-]c(=O)[n-]c2O)cc(C)n1CCOC(=O)C=Cc1ccccc1 (3D coordinates assigned)
C=c1c(=Cc2[n-]c(=O)[n-]c2O)cc(C)n1CCOC(=O)C=Cc1ccccc1 (optimized conformer: 118.64453815019995 kcal/mol)

>  <smiles>  (32) 
C=c1c(=Cc2[nH]c(=O)[nH]c2O)cc(C)n1CCOC(=O)C=Cc1ccccc1

>  <score_type>  (32) 
oracle

>  <origin>  (32) 
adg

>  <m_score__min__energy>  (32) 
-14.119999999999999

>  <m_primary>  (32) 
energy

$$$$
32:0
     RDKit          3D

 32 34  0  0  0  0  0  0  0  0999 V2000
   57.8681   33.7820   43.8521 H   0  0  0  0  0  0  0  0  0  0  0  0
   57.8800   32.7420   43.4940 C   0  0  0  0  0  0  0  0  0  0  0  0
   57.7460   32.5273   42.4235 H   0  0  0  0  0  0  0  0  0  0  0  0
   58.0570   31.7410   44.3580 C   0  0  0  0  0  0  0  0  0  0  0  0
   58.0890   30.1250   43.9000 S   0  0  0  0  0  0  0  0  0  0  0  0
   58.3450   29.5440   45.4580 C   0  0  0  0  0  0  0  0  0  0  0  0
   58.4480   28.2330   45.7360 C   0  0  0  0  0  0  0  0  0  0  0  0
   59.4604   27.8028   45.7418 H   0  0  0  0  0  0  0  0  0  0  0  0
   57.3310   27.3170   46.0340 C   0  0  0  0  0  0  0  0  0  0  0  0
   57.4470   26.0970   46.5880 N   0  0  0  0  0  0  0  0  0  0  0  0
   56.1890   25.6090   46.5460 C   0  0  0  0  0  0  0  0  0  0  0  0
   55.8870   24.4720   46.9930 O   0  0  0  0  0  0  0  0  0  0  0  0
   55.2820   26.4330   45.9780 N   0  0  0  0  0  0  0  0  0  0  0  0
   56.0240   27.5030   45.6490 C   0  0  0  0  0  0  0  0  0  0  0  0
   55.5180   28.6240   45.0060 O   0  0  0  0  0  0  0  0  0  0  0  0
   58.3750   30.6550   46.3180 C   0  0  0  0  0  0  0  0  0  0  0  0
   58.4810   30.5550   47.5690 O   0  0  0  0  0  0  0  0  0  0  0  0
   58.2290   31.8710   45.7040 N   0  0  0  0  0  0  0  0  0  0  0  0
   58.2040   33.1490   46.4400 C   0  0  0  0  0  0  0  0  0  0  0  0
   57.9874   33.9665   45.7365 H   0  0  0  0  0  0  0  0  0  0  0  0
   57.4251   33.0953   47.2148 H   0  0  0  0  0  0  0  0  0  0  0  0
   59.5330   33.4080   47.1060 C   0  0  0  0  0  0  0  0  0  0  0  0
   59.6100   33.5480   48.5020 C   0  0  0  0  0  0  0  0  0  0  0  0
   58.6971   33.4700   49.1107 H   0  0  0  0  0  0  0  0  0  0  0  0
   60.8410   33.7860   49.1220 C   0  0  0  0  0  0  0  0  0  0  0  0
   60.8936   33.8999   50.2148 H   0  0  0  0  0  0  0  0  0  0  0  0
   62.0040   33.8790   48.3530 C   0  0  0  0  0  0  0  0  0  0  0  0
   63.1980   34.1090   48.9550 F   0  0  0  0  0  0  0  0  0  0  0  0
   61.9390   33.7300   46.9650 C   0  0  0  0  0  0  0  0  0  0  0  0
   62.8559   33.8001   46.3613 H   0  0  0  0  0  0  0  0  0  0  0  0
   60.7100   33.4920   46.3430 C   0  0  0  0  0  0  0  0  0  0  0  0
   60.6640   33.3699   45.2508 H   0  0  0  0  0  0  0  0  0  0  0  0
  1  2  1  0
  2  3  1  0
  2  4  2  0
  4  5  1  0
  5  6  1  0
  6  7  2  0
  7  8  1  0
  7  9  1  0
  9 10  1  0
 10 11  1  0
 11 12  2  0
 11 13  1  0
 13 14  1  0
 14 15  1  0
  6 16  1  0
 16 17  2  0
 16 18  1  0
 18 19  1  0
 19 20  1  0
 19 21  1  0
 19 22  1  0
 22 23  2  0
 23 24  1  0
 23 25  1  0
 25 26  1  0
 25 27  2  0
 27 28  1  0
 27 29  1  0
 29 30  1  0
 29 31  2  0
 31 32  1  0
 18  4  1  0
 31 22  1  0
 14  9  2  0
M  CHG  3  10  -1  13  -1  15  -1
M  END
>  <UniqueID>  (33) 
32

>  <SMILES>  (33) 
C=c1s/c(=C/c2[n-]c(=O)[n-]c2[O-])c(=O)n1Cc1ccc(F)cc1

>  <Energy>  (33) 
102.25734614686091

>  <Genealogy>  (33) 
C=c1sc(=Cc2[n-]c(=O)[n-]c2[O-])c(=O)n1Cc1ccc(F)cc1 (protonated)
C=c1s/c(=C/c2[n-]c(=O)[n-]c2[O-])c(=O)n1Cc1ccc(F)cc1 (cis-trans isomerization)
C=c1s/c(=C/c2[n-]c(=O)[n-]c2[O-])c(=O)n1Cc1ccc(F)cc1 (3D coordinates assigned)
C=c1s/c(=C/c2[n-]c(=O)[n-]c2[O-])c(=O)n1Cc1ccc(F)cc1 (optimized conformer: 102.25734614686091 kcal/mol)

>  <smiles>  (33) 
C=c1sc(=Cc2[nH]c(=O)[nH]c2O)c(=O)n1Cc1ccc(F)cc1

>  <score_type>  (33) 
oracle

>  <origin>  (33) 
adg

>  <m_score__min__energy>  (33) 
-15.550000000000001

>  <m_primary>  (33) 
energy

$$$$
33:0
     RDKit          3D

 41 43  0  0  0  0  0  0  0  0999 V2000
   60.4960   27.2270   47.8990 C   0  0  0  0  0  0  0  0  0  0  0  0
   59.8840   28.3080   47.1200 N   0  0  0  0  0  0  0  0  0  0  0  0
   59.0850   28.0180   45.9500 C   0  0  0  0  0  0  0  0  0  0  0  0
   59.5100   28.3360   44.8070 O   0  0  0  0  0  0  0  0  0  0  0  0
   57.7830   27.3210   46.0490 C   0  0  0  0  0  0  0  0  0  0  0  0
   57.6470   26.0440   46.4460 N   0  0  0  0  0  0  0  0  0  0  0  0
   56.3380   25.7770   46.2550 C   0  0  0  0  0  0  0  0  0  0  0  0
   55.6390   26.8140   45.7470 N   0  0  0  0  0  0  0  0  0  0  0  0
   56.5540   27.7920   45.6270 C   0  0  0  0  0  0  0  0  0  0  0  0
   56.2380   29.1370   45.1190 C   0  0  0  0  0  0  0  0  0  0  0  0
   55.1370   29.3320   44.5410 O   0  0  0  0  0  0  0  0  0  0  0  0
   57.1540   30.2280   45.2570 N   0  0  0  0  0  0  0  0  0  0  0  0
   57.2430   31.3400   44.3150 C   0  0  0  0  0  0  0  0  0  0  0  0
   57.8540   32.5310   44.9970 C   0  0  0  0  0  0  0  0  0  0  0  0
   57.6690   32.7270   46.3750 C   0  0  0  0  0  0  0  0  0  0  0  0
   58.2180   33.8470   47.0070 C   0  0  0  0  0  0  0  0  0  0  0  0
   58.9540   34.7770   46.2680 C   0  0  0  0  0  0  0  0  0  0  0  0
   59.1440   34.5890   44.8970 C   0  0  0  0  0  0  0  0  0  0  0  0
   58.5980   33.4700   44.2610 C   0  0  0  0  0  0  0  0  0  0  0  0
   60.1600   29.6710   47.4970 C   0  0  0  0  0  0  0  0  0  0  0  0
   61.0560   30.4450   46.7390 C   0  0  0  0  0  0  0  0  0  0  0  0
   61.3430   31.7610   47.1120 C   0  0  0  0  0  0  0  0  0  0  0  0
   60.7450   32.3140   48.2480 C   0  0  0  0  0  0  0  0  0  0  0  0
   59.8610   31.5500   49.0130 C   0  0  0  0  0  0  0  0  0  0  0  0
   59.5700   30.2340   48.6430 C   0  0  0  0  0  0  0  0  0  0  0  0
   60.3776   27.4362   48.9724 H   0  0  0  0  0  0  0  0  0  0  0  0
   60.0032   26.2744   47.6545 H   0  0  0  0  0  0  0  0  0  0  0  0
   61.5663   27.1594   47.6545 H   0  0  0  0  0  0  0  0  0  0  0  0
   55.8827   24.8040   46.4915 H   0  0  0  0  0  0  0  0  0  0  0  0
   57.8698   31.0463   43.4601 H   0  0  0  0  0  0  0  0  0  0  0  0
   56.2346   31.5998   43.9604 H   0  0  0  0  0  0  0  0  0  0  0  0
   57.0901   31.9968   46.9595 H   0  0  0  0  0  0  0  0  0  0  0  0
   58.0704   33.9961   48.0868 H   0  0  0  0  0  0  0  0  0  0  0  0
   59.3842   35.6581   46.7665 H   0  0  0  0  0  0  0  0  0  0  0  0
   59.7238   35.3221   44.3171 H   0  0  0  0  0  0  0  0  0  0  0  0
   58.7509   33.3238   43.1815 H   0  0  0  0  0  0  0  0  0  0  0  0
   61.5338   30.0125   45.8475 H   0  0  0  0  0  0  0  0  0  0  0  0
   62.0406   32.3625   46.5107 H   0  0  0  0  0  0  0  0  0  0  0  0
   60.9706   33.3505   48.5393 H   0  0  0  0  0  0  0  0  0  0  0  0
   59.3929   31.9848   49.9084 H   0  0  0  0  0  0  0  0  0  0  0  0
   58.8759   29.6354   49.2512 H   0  0  0  0  0  0  0  0  0  0  0  0
  1  2  1  0
  2  3  1  0
  3  4  2  0
  3  5  1  0
  5  6  1  0
  6  7  1  0
  7  8  2  0
  8  9  1  0
  9 10  1  0
 10 11  2  0
 10 12  1  0
 12 13  1  0
 13 14  1  0
 14 15  2  0
 15 16  1  0
 16 17  2  0
 17 18  1  0
 18 19  2  0
  2 20  1  0
 20 21  2  0
 21 22  1  0
 22 23  2  0
 23 24  1  0
 24 25  2  0
  9  5  2  0
 19 14  1  0
 25 20  1  0
  1 26  1  0
  1 27  1  0
  1 28  1  0
  7 29  1  0
 13 30  1  0
 13 31  1  0
 15 32  1  0
 16 33  1  0
 17 34  1  0
 18 35  1  0
 19 36  1  0
 21 37  1  0
 22 38  1  0
 23 39  1  0
 24 40  1  0
 25 41  1  0
M  CHG  2   6  -1  12  -1
M  END
>  <UniqueID>  (34) 
33

>  <SMILES>  (34) 
CN(C(=O)c1[n-]cnc1C(=O)[N-]Cc1ccccc1)c1ccccc1

>  <Energy>  (34) 
82.69589443651687

>  <Genealogy>  (34) 
CN(C(=O)c1[n-]cnc1C(=O)[N-]Cc1ccccc1)c1ccccc1 (protonated)
CN(C(=O)c1[n-]cnc1C(=O)[N-]Cc1ccccc1)c1ccccc1 (3D coordinates assigned)
CN(C(=O)c1[n-]cnc1C(=O)[N-]Cc1ccccc1)c1ccccc1 (optimized conformer: 82.69589443651687 kcal/mol)

>  <smiles>  (34) 
CN(C(=O)c1[nH]cnc1C(=O)NCc1ccccc1)c1ccccc1

>  <score_type>  (34) 
oracle

>  <origin>  (34) 
adg

>  <m_score__min__energy>  (34) 
-11.279999999999999

>  <m_primary>  (34) 
energy

$$$$
34:0
     RDKit          3D

 52 54  0  0  0  0  0  0  0  0999 V2000
   55.0530   23.7170   45.2750 C   0  0  0  0  0  0  0  0  0  0  0  0
   55.8670   25.1150   46.0200 S   0  0  0  0  0  0  0  0  0  0  0  0
   56.1920   24.7770   47.4480 O   0  0  0  0  0  0  0  0  0  0  0  0
   54.9460   26.3040   45.9980 O   0  0  0  0  0  0  0  0  0  0  0  0
   57.3540   25.4640   45.1770 N   0  0  0  0  0  0  0  0  0  0  0  0
   58.3050   26.1840   46.0260 C   0  0  0  0  0  0  0  0  0  0  0  0
   58.1010   27.6740   45.9370 C   0  0  0  0  0  0  0  0  0  0  0  0
   57.1570   28.2130   45.0490 C   0  0  0  0  0  0  0  0  0  0  0  0
   56.9900   29.5980   44.9500 C   0  0  0  0  0  0  0  0  0  0  0  0
   57.7560   30.4680   45.7450 C   0  0  0  0  0  0  0  0  0  0  0  0
   57.6160   31.9330   45.6000 C   0  0  0  0  0  0  0  0  0  0  0  0
   56.6930   32.4050   44.8800 O   0  0  0  0  0  0  0  0  0  0  0  0
   58.5460   32.8310   46.2270 N   0  0  0  0  0  0  0  0  0  0  0  0
   58.6870   32.8250   47.6920 C   0  0  0  0  0  0  0  0  0  0  0  0
   59.6980   33.8810   48.1520 C   0  0  0  0  0  0  0  0  0  0  0  0
   60.8790   33.8430   47.2790 N   0  0  0  0  0  0  0  0  0  0  0  0
   62.2110   33.7460   47.8180 C   0  0  0  0  0  0  0  0  0  0  0  0
   63.1810   34.2080   47.1560 O   0  0  0  0  0  0  0  0  0  0  0  0
   62.4540   33.0510   49.0540 N   0  0  0  0  0  0  0  0  0  0  0  0
   63.6940   33.1080   49.7820 C   0  0  0  0  0  0  0  0  0  0  0  0
   63.8130   33.9810   50.8750 C   0  0  0  0  0  0  0  0  0  0  0  0
   65.0140   34.0660   51.5890 C   0  0  0  0  0  0  0  0  0  0  0  0
   66.1100   33.2890   51.2090 C   0  0  0  0  0  0  0  0  0  0  0  0
   67.7530   33.4070   52.1800 Br  0  0  0  0  0  0  0  0  0  0  0  0
   66.0100   32.4330   50.1070 C   0  0  0  0  0  0  0  0  0  0  0  0
   64.8130   32.3470   49.3900 C   0  0  0  0  0  0  0  0  0  0  0  0
   60.7050   33.9230   45.8200 C   0  0  0  0  0  0  0  0  0  0  0  0
   59.2260   33.8490   45.4200 C   0  0  0  0  0  0  0  0  0  0  0  0
   58.6950   29.9240   46.6400 C   0  0  0  0  0  0  0  0  0  0  0  0
   58.8580   28.5400   46.7410 C   0  0  0  0  0  0  0  0  0  0  0  0
   54.6671   23.0543   46.0636 H   0  0  0  0  0  0  0  0  0  0  0  0
   54.2184   24.0686   44.6506 H   0  0  0  0  0  0  0  0  0  0  0  0
   55.7707   23.1647   44.6506 H   0  0  0  0  0  0  0  0  0  0  0  0
   58.1660   25.8652   47.0696 H   0  0  0  0  0  0  0  0  0  0  0  0
   59.3231   25.9522   45.6800 H   0  0  0  0  0  0  0  0  0  0  0  0
   56.5453   27.5424   44.4276 H   0  0  0  0  0  0  0  0  0  0  0  0
   56.2534   30.0097   44.2444 H   0  0  0  0  0  0  0  0  0  0  0  0
   57.7095   33.0404   48.1481 H   0  0  0  0  0  0  0  0  0  0  0  0
   59.0489   31.8344   48.0047 H   0  0  0  0  0  0  0  0  0  0  0  0
   59.2359   34.8779   48.1001 H   0  0  0  0  0  0  0  0  0  0  0  0
   60.0016   33.6704   49.1881 H   0  0  0  0  0  0  0  0  0  0  0  0
   61.7420   32.3490   49.3640 H   0  0  0  0  0  0  0  0  0  0  0  0
   62.9559   34.6030   51.1726 H   0  0  0  0  0  0  0  0  0  0  0  0
   65.0944   34.7456   52.4502 H   0  0  0  0  0  0  0  0  0  0  0  0
   66.8757   31.8259   49.8038 H   0  0  0  0  0  0  0  0  0  0  0  0
   64.7445   31.6824   48.5161 H   0  0  0  0  0  0  0  0  0  0  0  0
   61.1237   34.8754   45.4628 H   0  0  0  0  0  0  0  0  0  0  0  0
   61.2264   33.0679   45.3651 H   0  0  0  0  0  0  0  0  0  0  0  0
   58.7519   34.8270   45.5899 H   0  0  0  0  0  0  0  0  0  0  0  0
   59.1495   33.5812   44.3559 H   0  0  0  0  0  0  0  0  0  0  0  0
   59.3052   30.5928   47.2647 H   0  0  0  0  0  0  0  0  0  0  0  0
   59.5847   28.1263   47.4557 H   0  0  0  0  0  0  0  0  0  0  0  0
  1  2  1  0
  2  3  2  0
  2  4  2  0
  2  5  1  0
  5  6  1  0
  6  7  1  0
  7  8  2  0
  8  9  1  0
  9 10  2  0
 10 11  1  0
 11 12  2  0
 11 13  1  0
 13 14  1  0
 14 15  1  0
 15 16  1  0
 16 17  1  0
 17 18  2  0
 17 19  1  0
 19 20  1  0
 20 21  2  0
 21 22  1  0
 22 23  2  0
 23 24  1  0
 23 25  1  0
 25 26  2  0
 16 27  1  0
 27 28  1  0
 10 29  1  0
 29 30  2  0
 30  7  1  0
 28 13  1  0
 26 20  1  0
  1 31  1  0
  1 32  1  0
  1 33  1  0
  6 34  1  0
  6 35  1  0
  8 36  1  0
  9 37  1  0
 14 38  1  0
 14 39  1  0
 15 40  1  0
 15 41  1  0
 19 42  1  0
 21 43  1  0
 22 44  1  0
 25 45  1  0
 26 46  1  0
 27 47  1  0
 27 48  1  0
 28 49  1  0
 28 50  1  0
 29 51  1  0
 30 52  1  0
M  CHG  1   5  -1
M  END
>  <UniqueID>  (35) 
34

>  <SMILES>  (35) 
CS(=O)(=O)[N-]Cc1ccc(C(=O)N2CCN(C(=O)Nc3ccc(Br)cc3)CC2)cc1

>  <Energy>  (35) 
57.85732919247191

>  <Genealogy>  (35) 
CS(=O)(=O)[N-]Cc1ccc(C(=O)N2CCN(C(=O)Nc3ccc(Br)cc3)CC2)cc1 (protonated)
CS(=O)(=O)[N-]Cc1ccc(C(=O)N2CCN(C(=O)Nc3ccc(Br)cc3)CC2)cc1 (3D coordinates assigned)
CS(=O)(=O)[N-]Cc1ccc(C(=O)N2CCN(C(=O)Nc3ccc(Br)cc3)CC2)cc1 (nonaromatic ring conformer: 57.85732919247191 kcal/mol)

>  <smiles>  (35) 
CS(=O)(=O)NCc1ccc(C(=O)N2CCN(C(=O)Nc3ccc(Br)cc3)CC2)cc1

>  <score_type>  (35) 
oracle

>  <origin>  (35) 
adg

>  <m_score__min__energy>  (35) 
-11.470000000000001

>  <m_primary>  (35) 
energy

$$$$
35:0
     RDKit          3D

 69 73  0  0  0  0  0  0  0  0999 V2000
   60.3710   30.4460   49.9930 O   0  0  0  0  0  0  0  0  0  0  0  0
   60.7560   29.9950   48.8780 C   0  0  0  0  0  0  0  0  0  0  0  0
   61.8600   30.6160   48.2030 N   0  0  0  0  0  0  0  0  0  0  0  0
   62.8250   31.4490   48.8660 C   0  0  0  0  0  0  0  0  0  0  0  0
   63.2300   32.6520   48.2680 C   0  0  0  0  0  0  0  0  0  0  0  0
   64.1680   33.4760   48.8980 C   0  0  0  0  0  0  0  0  0  0  0  0
   64.7190   33.0980   50.1250 C   0  0  0  0  0  0  0  0  0  0  0  0
   64.3420   31.8880   50.7230 C   0  0  0  0  0  0  0  0  0  0  0  0
   65.0620   31.3820   52.2490 S   0  0  0  0  0  0  0  0  0  0  0  0
   64.4660   30.0570   52.6370 O   0  0  0  0  0  0  0  0  0  0  0  0
   64.7240   32.3820   53.3210 O   0  0  0  0  0  0  0  0  0  0  0  0
   66.7950   31.2100   52.0600 N   0  0  0  0  0  0  0  0  0  0  0  0
   67.4580   30.7410   53.2930 C   0  0  0  0  0  0  0  0  0  0  0  0
   67.3710   29.2160   53.4550 C   0  0  0  0  0  0  0  0  0  0  0  0
   67.8750   28.5580   52.3120 O   0  0  0  0  0  0  0  0  0  0  0  0
   67.0800   28.8830   51.1910 C   0  0  0  0  0  0  0  0  0  0  0  0
   67.1520   30.3880   50.8870 C   0  0  0  0  0  0  0  0  0  0  0  0
   63.4060   31.0610   50.0870 C   0  0  0  0  0  0  0  0  0  0  0  0
   60.0220   28.8670   48.2570 C   0  0  0  0  0  0  0  0  0  0  0  0
   60.2840   27.5450   48.6580 C   0  0  0  0  0  0  0  0  0  0  0  0
   59.5950   26.4770   48.0780 C   0  0  0  0  0  0  0  0  0  0  0  0
   58.6400   26.7150   47.0870 C   0  0  0  0  0  0  0  0  0  0  0  0
   58.3780   28.0240   46.6630 C   0  0  0  0  0  0  0  0  0  0  0  0
   57.2210   28.3020   45.3630 S   0  0  0  0  0  0  0  0  0  0  0  0
   57.8150   27.8760   44.0510 O   0  0  0  0  0  0  0  0  0  0  0  0
   55.9790   27.4950   45.6150 O   0  0  0  0  0  0  0  0  0  0  0  0
   56.7970   29.9770   45.3000 N   0  0  0  0  0  0  0  0  0  0  0  0
   57.1310   30.7810   44.1670 C   0  0  0  0  0  0  0  0  0  0  0  0
   56.6700   30.4090   42.8970 C   0  0  0  0  0  0  0  0  0  0  0  0
   56.9440   31.2120   41.7880 C   0  0  0  0  0  0  0  0  0  0  0  0
   57.6810   32.3880   41.9410 C   0  0  0  0  0  0  0  0  0  0  0  0
   58.1450   32.7660   43.2050 C   0  0  0  0  0  0  0  0  0  0  0  0
   57.8770   31.9650   44.3260 C   0  0  0  0  0  0  0  0  0  0  0  0
   58.3300   32.3750   45.6270 N   0  0  0  0  0  0  0  0  0  0  0  0
   57.4370   33.1320   46.5130 C   0  0  0  0  0  0  0  0  0  0  0  0
   58.2260   34.1540   47.3660 C   0  0  0  0  0  0  0  0  0  0  0  0
   59.6350   34.0170   47.2700 O   0  0  0  0  0  0  0  0  0  0  0  0
   60.0050   32.6620   47.4000 C   0  0  0  0  0  0  0  0  0  0  0  0
   59.6300   31.9130   46.1210 C   0  0  0  0  0  0  0  0  0  0  0  0
   59.0720   29.0960   47.2440 C   0  0  0  0  0  0  0  0  0  0  0  0
   61.9000   30.5560   47.1610 H   0  0  0  0  0  0  0  0  0  0  0  0
   62.8068   32.9490   47.2971 H   0  0  0  0  0  0  0  0  0  0  0  0
   64.4722   34.4224   48.4272 H   0  0  0  0  0  0  0  0  0  0  0  0
   65.4504   33.7517   50.6228 H   0  0  0  0  0  0  0  0  0  0  0  0
   68.5178   31.0336   53.2585 H   0  0  0  0  0  0  0  0  0  0  0  0
   66.9430   31.2013   54.1491 H   0  0  0  0  0  0  0  0  0  0  0  0
   67.9594   28.9131   54.3336 H   0  0  0  0  0  0  0  0  0  0  0  0
   66.3151   28.9362   53.5844 H   0  0  0  0  0  0  0  0  0  0  0  0
   67.4420   28.3211   50.3174 H   0  0  0  0  0  0  0  0  0  0  0  0
   66.0354   28.6180   51.4115 H   0  0  0  0  0  0  0  0  0  0  0  0
   68.1774   30.6385   50.5774 H   0  0  0  0  0  0  0  0  0  0  0  0
   66.4286   30.6067   50.0877 H   0  0  0  0  0  0  0  0  0  0  0  0
   63.1238   30.1019   50.5458 H   0  0  0  0  0  0  0  0  0  0  0  0
   61.0379   27.3501   49.4350 H   0  0  0  0  0  0  0  0  0  0  0  0
   59.8050   25.4471   48.4023 H   0  0  0  0  0  0  0  0  0  0  0  0
   58.0926   25.8728   46.6386 H   0  0  0  0  0  0  0  0  0  0  0  0
   56.0908   29.4820   42.7734 H   0  0  0  0  0  0  0  0  0  0  0  0
   56.5789   30.9178   40.7929 H   0  0  0  0  0  0  0  0  0  0  0  0
   57.8971   33.0183   41.0658 H   0  0  0  0  0  0  0  0  0  0  0  0
   58.7224   33.6950   43.3212 H   0  0  0  0  0  0  0  0  0  0  0  0
   56.6976   33.6703   45.9018 H   0  0  0  0  0  0  0  0  0  0  0  0
   56.9391   32.4239   47.1917 H   0  0  0  0  0  0  0  0  0  0  0  0
   57.9530   35.1665   47.0337 H   0  0  0  0  0  0  0  0  0  0  0  0
   57.9580   33.9676   48.4164 H   0  0  0  0  0  0  0  0  0  0  0  0
   61.0906   32.5911   47.5629 H   0  0  0  0  0  0  0  0  0  0  0  0
   59.4789   32.2160   48.2569 H   0  0  0  0  0  0  0  0  0  0  0  0
   60.3966   32.0972   45.3539 H   0  0  0  0  0  0  0  0  0  0  0  0
   59.5691   30.8367   46.3399 H   0  0  0  0  0  0  0  0  0  0  0  0
   58.8722   30.1233   46.9053 H   0  0  0  0  0  0  0  0  0  0  0  0
  1  2  2  0
  2  3  1  0
  3  4  1  0
  4  5  2  0
  5  6  1  0
  6  7  2  0
  7  8  1  0
  8  9  1  0
  9 10  2  0
  9 11  2  0
  9 12  1  0
 12 13  1  0
 13 14  1  0
 14 15  1  0
 15 16  1  0
 16 17  1  0
  8 18  2  0
  2 19  1  0
 19 20  2  0
 20 21  1  0
 21 22  2  0
 22 23  1  0
 23 24  1  0
 24 25  2  0
 24 26  2  0
 24 27  1  0
 27 28  1  0
 28 29  2  0
 29 30  1  0
 30 31  2  0
 31 32  1  0
 32 33  2  0
 33 34  1  0
 34 35  1  0
 35 36  1  0
 36 37  1  0
 37 38  1  0
 38 39  1  0
 23 40  2  0
 18  4  1  0
 40 19  1  0
 17 12  1  0
 33 28  1  0
 39 34  1  0
  3 41  1  0
  5 42  1  0
  6 43  1  0
  7 44  1  0
 13 45  1  0
 13 46  1  0
 14 47  1  0
 14 48  1  0
 16 49  1  0
 16 50  1  0
 17 51  1  0
 17 52  1  0
 18 53  1  0
 20 54  1  0
 21 55  1  0
 22 56  1  0
 29 57  1  0
 30 58  1  0
 31 59  1  0
 32 60  1  0
 35 61  1  0
 35 62  1  0
 36 63  1  0
 36 64  1  0
 38 65  1  0
 38 66  1  0
 39 67  1  0
 39 68  1  0
 40 69  1  0
M  CHG  1  27  -1
M  END
>  <UniqueID>  (36) 
35

>  <SMILES>  (36) 
O=C(Nc1cccc(S(=O)(=O)N2CCOCC2)c1)c1cccc(S(=O)(=O)[N-]c2ccccc2N2CCOCC2)c1

>  <Energy>  (36) 
102.56093893492015

>  <Genealogy>  (36) 
O=C(Nc1cccc(S(=O)(=O)N2CCOCC2)c1)c1cccc(S(=O)(=O)[N-]c2ccccc2N2CCOCC2)c1 (protonated)
O=C(Nc1cccc(S(=O)(=O)N2CCOCC2)c1)c1cccc(S(=O)(=O)[N-]c2ccccc2N2CCOCC2)c1 (3D coordinates assigned)
O=C(Nc1cccc(S(=O)(=O)N2CCOCC2)c1)c1cccc(S(=O)(=O)[N-]c2ccccc2N2CCOCC2)c1 (nonaromatic ring conformer: 102.56093893492015 kcal/mol)

>  <smiles>  (36) 
O=C(Nc1cccc(S(=O)(=O)N2CCOCC2)c1)c1cccc(S(=O)(=O)Nc2ccccc2N2CCOCC2)c1

>  <score_type>  (36) 
oracle

>  <origin>  (36) 
adg

>  <m_score__min__energy>  (36) 
-12.17

>  <m_primary>  (36) 
energy

$$$$
36:0
     RDKit          3D

 54 57  0  0  0  0  0  0  0  0999 V2000
   56.0480   29.0950   44.8490 C   0  0  0  0  0  0  0  0  0  0  0  0
   57.3760   28.9710   44.9950 C   0  0  0  0  0  0  0  0  0  0  0  0
   58.1200   27.7780   45.0420 C   0  0  0  0  0  0  0  0  0  0  0  0
   57.7840   26.5070   44.7490 C   0  0  0  0  0  0  0  0  0  0  0  0
   57.2610   25.5020   45.6940 C   0  0  0  0  0  0  0  0  0  0  0  0
   57.9830   24.5080   46.2440 N   0  0  0  0  0  0  0  0  0  0  0  0
   57.1300   23.9630   47.1390 C   0  0  0  0  0  0  0  0  0  0  0  0
   57.4330   22.9700   47.8490 O   0  0  0  0  0  0  0  0  0  0  0  0
   55.9270   24.5700   47.2180 N   0  0  0  0  0  0  0  0  0  0  0  0
   56.0320   25.5520   46.3050 C   0  0  0  0  0  0  0  0  0  0  0  0
   55.0300   26.4830   46.0460 O   0  0  0  0  0  0  0  0  0  0  0  0
   59.3860   28.1330   45.4760 C   0  0  0  0  0  0  0  0  0  0  0  0
   59.3980   29.5050   45.6120 C   0  0  0  0  0  0  0  0  0  0  0  0
   60.5610   30.3050   46.1110 C   0  0  0  0  0  0  0  0  0  0  0  0
   58.1810   30.0120   45.3230 N   0  0  0  0  0  0  0  0  0  0  0  0
   57.7940   31.3790   45.5260 C   0  0  0  0  0  0  0  0  0  0  0  0
   57.0410   31.9380   44.6860 O   0  0  0  0  0  0  0  0  0  0  0  0
   58.2660   32.1040   46.6770 N   0  0  0  0  0  0  0  0  0  0  0  0
   58.2410   33.5710   46.7020 C   0  0  0  0  0  0  0  0  0  0  0  0
   59.5000   34.1230   47.4080 C   0  0  0  0  0  0  0  0  0  0  0  0
   59.9590   33.3290   48.5890 N   0  0  0  0  0  0  0  0  0  0  0  0
   61.3480   32.8050   48.4060 C   0  0  0  0  0  0  0  0  0  0  0  0
   61.8920   33.2690   47.0260 C   0  0  0  0  0  0  0  0  0  0  0  0
   63.4250   33.3550   46.9900 C   0  0  0  0  0  0  0  0  0  0  0  0
   63.9850   32.3910   47.8520 O   0  0  0  0  0  0  0  0  0  0  0  0
   63.7810   32.7660   49.2030 C   0  0  0  0  0  0  0  0  0  0  0  0
   62.3420   33.2470   49.5090 C   0  0  0  0  0  0  0  0  0  0  0  0
   58.9480   32.3420   49.0300 C   0  0  0  0  0  0  0  0  0  0  0  0
   58.5990   31.3700   47.9010 C   0  0  0  0  0  0  0  0  0  0  0  0
   55.5879   30.0939   44.8280 H   0  0  0  0  0  0  0  0  0  0  0  0
   55.4194   28.1977   44.7503 H   0  0  0  0  0  0  0  0  0  0  0  0
   57.9119   26.1875   43.7042 H   0  0  0  0  0  0  0  0  0  0  0  0
   54.3300   26.6980   46.7460 H   0  0  0  0  0  0  0  0  0  0  0  0
   60.2244   27.4492   45.6749 H   0  0  0  0  0  0  0  0  0  0  0  0
   60.5610   30.3050   47.2110 H   0  0  0  0  0  0  0  0  0  0  0  0
   61.4972   29.8589   45.7443 H   0  0  0  0  0  0  0  0  0  0  0  0
   60.4792   31.3389   45.7443 H   0  0  0  0  0  0  0  0  0  0  0  0
   58.2096   33.9499   45.6698 H   0  0  0  0  0  0  0  0  0  0  0  0
   57.3497   33.9017   47.2553 H   0  0  0  0  0  0  0  0  0  0  0  0
   60.3193   34.1490   46.6745 H   0  0  0  0  0  0  0  0  0  0  0  0
   59.2274   35.1171   47.7919 H   0  0  0  0  0  0  0  0  0  0  0  0
   61.2741   31.7093   48.4688 H   0  0  0  0  0  0  0  0  0  0  0  0
   61.5619   32.5529   46.2591 H   0  0  0  0  0  0  0  0  0  0  0  0
   61.4987   34.2788   46.8370 H   0  0  0  0  0  0  0  0  0  0  0  0
   63.7755   33.1724   45.9635 H   0  0  0  0  0  0  0  0  0  0  0  0
   63.7370   34.3570   47.3197 H   0  0  0  0  0  0  0  0  0  0  0  0
   63.9986   31.8965   49.8406 H   0  0  0  0  0  0  0  0  0  0  0  0
   64.4513   33.6148   49.4039 H   0  0  0  0  0  0  0  0  0  0  0  0
   62.0202   32.8219   50.4711 H   0  0  0  0  0  0  0  0  0  0  0  0
   62.3470   34.3463   49.5482 H   0  0  0  0  0  0  0  0  0  0  0  0
   59.3485   31.7738   49.8825 H   0  0  0  0  0  0  0  0  0  0  0  0
   58.0352   32.8826   49.3207 H   0  0  0  0  0  0  0  0  0  0  0  0
   59.4615   30.7153   47.7073 H   0  0  0  0  0  0  0  0  0  0  0  0
   57.7283   30.7700   48.2043 H   0  0  0  0  0  0  0  0  0  0  0  0
  1  2  2  0
  2  3  1  0
  3  4  2  3
  4  5  1  0
  5  6  1  0
  6  7  1  0
  7  8  2  0
  7  9  1  0
  9 10  1  0
 10 11  1  0
  3 12  1  0
 12 13  2  0
 13 14  1  0
 13 15  1  0
 15 16  1  0
 16 17  2  0
 16 18  1  0
 18 19  1  0
 19 20  1  0
 20 21  1  0
 21 22  1  0
 22 23  1  0
 23 24  1  0
 24 25  1  0
 25 26  1  0
 26 27  1  0
 21 28  1  0
 28 29  1  0
 15  2  1  0
 29 18  1  0
 10  5  2  0
 27 22  1  0
  1 30  1  0
  1 31  1  0
  4 32  1  0
 11 33  1  0
 12 34  1  0
 14 35  1  0
 14 36  1  0
 14 37  1  0
 19 38  1  0
 19 39  1  0
 20 40  1  0
 20 41  1  0
 22 42  1  0
 23 43  1  0
 23 44  1  0
 24 45  1  0
 24 46  1  0
 26 47  1  0
 26 48  1  0
 27 49  1  0
 27 50  1  0
 28 51  1  0
 28 52  1  0
 29 53  1  0
 29 54  1  0
M  CHG  2   6  -1   9  -1
M  END
>  <UniqueID>  (37) 
36

>  <SMILES>  (37) 
C=c1c(=Cc2[n-]c(=O)[n-]c2O)cc(C)n1C(=O)N1CCN(C2CCOCC2)CC1

>  <Energy>  (37) 
150.21134445812922

>  <Genealogy>  (37) 
C=c1c(=Cc2[n-]c(=O)[n-]c2O)cc(C)n1C(=O)N1CCN(C2CCOCC2)CC1 (protonated)
C=c1c(=Cc2[n-]c(=O)[n-]c2O)cc(C)n1C(=O)N1CCN(C2CCOCC2)CC1 (3D coordinates assigned)
C=c1c(=Cc2[n-]c(=O)[n-]c2O)cc(C)n1C(=O)N1CCN(C2CCOCC2)CC1 (nonaromatic ring conformer: 150.21134445812922 kcal/mol)

>  <smiles>  (37) 
C=c1c(=Cc2[nH]c(=O)[nH]c2O)cc(C)n1C(=O)N1CCN(C2CCOCC2)CC1

>  <score_type>  (37) 
oracle

>  <origin>  (37) 
adg

>  <m_score__min__energy>  (37) 
-14.039999999999999

>  <m_primary>  (37) 
energy

$$$$
37:0
     RDKit          3D

 48 50  0  0  0  0  0  0  0  0999 V2000
   60.8292   30.8302   46.6353 H   0  0  0  0  0  0  0  0  0  0  0  0
   60.0130   30.4330   46.0140 C   0  0  0  0  0  0  0  0  0  0  0  0
   59.8759   29.3461   45.9153 H   0  0  0  0  0  0  0  0  0  0  0  0
   59.1840   31.2750   45.3760 C   0  0  0  0  0  0  0  0  0  0  0  0
   58.1040   30.9170   44.5530 C   0  0  0  0  0  0  0  0  0  0  0  0
   57.7580   29.7310   44.0140 C   0  0  0  0  0  0  0  0  0  0  0  0
   57.6474   29.6871   42.9205 H   0  0  0  0  0  0  0  0  0  0  0  0
   57.5150   28.4850   44.7700 C   0  0  0  0  0  0  0  0  0  0  0  0
   56.2350   28.1580   45.2520 C   0  0  0  0  0  0  0  0  0  0  0  0
   55.1520   28.9960   45.0060 O   0  0  0  0  0  0  0  0  0  0  0  0
   56.0500   27.0180   45.9700 N   0  0  0  0  0  0  0  0  0  0  0  0
   55.0900   26.7840   46.3120 H   0  0  0  0  0  0  0  0  0  0  0  0
   57.0950   26.1940   46.2530 C   0  0  0  0  0  0  0  0  0  0  0  0
   56.8620   24.8270   47.1210 S   0  0  0  0  0  0  0  0  0  0  0  0
   58.3440   26.5080   45.8250 N   0  0  0  0  0  0  0  0  0  0  0  0
   58.5780   27.6330   45.1010 C   0  0  0  0  0  0  0  0  0  0  0  0
   59.7530   27.8930   44.7250 O   0  0  0  0  0  0  0  0  0  0  0  0
   57.3780   32.0740   44.3450 C   0  0  0  0  0  0  0  0  0  0  0  0
   56.4365   32.1642   43.7834 H   0  0  0  0  0  0  0  0  0  0  0  0
   58.0580   33.0930   44.9750 C   0  0  0  0  0  0  0  0  0  0  0  0
   57.5760   34.5140   45.0320 C   0  0  0  0  0  0  0  0  0  0  0  0
   57.4710   34.8237   46.0823 H   0  0  0  0  0  0  0  0  0  0  0  0
   58.3025   35.1681   44.5277 H   0  0  0  0  0  0  0  0  0  0  0  0
   56.6014   34.5911   44.5277 H   0  0  0  0  0  0  0  0  0  0  0  0
   59.1850   32.6240   45.5640 N   0  0  0  0  0  0  0  0  0  0  0  0
   60.1350   33.4310   46.3540 C   0  0  0  0  0  0  0  0  0  0  0  0
   61.0288   33.6220   45.7420 H   0  0  0  0  0  0  0  0  0  0  0  0
   59.6265   34.3657   46.6326 H   0  0  0  0  0  0  0  0  0  0  0  0
   60.5660   32.7350   47.6470 C   0  0  0  0  0  0  0  0  0  0  0  0
   59.5980   32.3450   48.6170 C   0  0  0  0  0  0  0  0  0  0  0  0
   58.1290   32.6530   48.4570 C   0  0  0  0  0  0  0  0  0  0  0  0
   57.6646   32.7504   49.4494 H   0  0  0  0  0  0  0  0  0  0  0  0
   58.0103   33.5956   47.9025 H   0  0  0  0  0  0  0  0  0  0  0  0
   57.6417   31.8375   47.9025 H   0  0  0  0  0  0  0  0  0  0  0  0
   60.0030   31.6420   49.7630 C   0  0  0  0  0  0  0  0  0  0  0  0
   59.2467   31.3082   50.4887 H   0  0  0  0  0  0  0  0  0  0  0  0
   61.3500   31.3600   49.9960 C   0  0  0  0  0  0  0  0  0  0  0  0
   61.7570   30.5650   51.2010 C   0  0  0  0  0  0  0  0  0  0  0  0
   61.4768   31.1123   52.1131 H   0  0  0  0  0  0  0  0  0  0  0  0
   61.2469   29.5905   51.1868 H   0  0  0  0  0  0  0  0  0  0  0  0
   62.8458   30.4091   51.1868 H   0  0  0  0  0  0  0  0  0  0  0  0
   62.3090   31.7820   49.0740 C   0  0  0  0  0  0  0  0  0  0  0  0
   63.3693   31.5495   49.2517 H   0  0  0  0  0  0  0  0  0  0  0  0
   61.9430   32.4980   47.9240 C   0  0  0  0  0  0  0  0  0  0  0  0
   63.0440   32.9650   47.0080 C   0  0  0  0  0  0  0  0  0  0  0  0
   63.8925   33.3249   47.6084 H   0  0  0  0  0  0  0  0  0  0  0  0
   63.3724   32.1287   46.3734 H   0  0  0  0  0  0  0  0  0  0  0  0
   62.6710   33.7824   46.3734 H   0  0  0  0  0  0  0  0  0  0  0  0
  1  2  1  0
  2  3  1  0
  2  4  2  0
  4  5  1  0
  5  6  2  0
  6  7  1  0
  6  8  1  0
  8  9  2  0
  9 10  1  0
  9 11  1  0
 11 12  1  0
 11 13  1  0
 13 14  2  0
 13 15  1  0
 15 16  1  0
 16 17  2  0
  5 18  1  0
 18 19  1  0
 18 20  2  0
 20 21  1  0
 21 22  1  0
 21 23  1  0
 21 24  1  0
 20 25  1  0
 25 26  1  0
 26 27  1  0
 26 28  1  0
 26 29  1  0
 29 30  2  0
 30 31  1  0
 31 32  1  0
 31 33  1  0
 31 34  1  0
 30 35  1  0
 35 36  1  0
 35 37  2  0
 37 38  1  0
 38 39  1  0
 38 40  1  0
 38 41  1  0
 37 42  1  0
 42 43  1  0
 42 44  2  0
 44 45  1  0
 45 46  1  0
 45 47  1  0
 45 48  1  0
 25  4  1  0
 44 29  1  0
 16  8  1  0
M  CHG  2  10  -1  15  -1
M  END
>  <UniqueID>  (38) 
37

>  <SMILES>  (38) 
C=c1/c(=C\c2c([O-])[nH]c(=S)[n-]c2=O)cc(C)n1Cc1c(C)cc(C)cc1C

>  <Energy>  (38) 
95.91459223155582

>  <Genealogy>  (38) 
C=c1c(=Cc2c([O-])[nH]c(=S)[n-]c2=O)cc(C)n1Cc1c(C)cc(C)cc1C (protonated)
C=c1/c(=C\c2c([O-])[nH]c(=S)[n-]c2=O)cc(C)n1Cc1c(C)cc(C)cc1C (cis-trans isomerization)
C=c1/c(=C\c2c([O-])[nH]c(=S)[n-]c2=O)cc(C)n1Cc1c(C)cc(C)cc1C (3D coordinates assigned)
C=c1/c(=C\c2c([O-])[nH]c(=S)[n-]c2=O)cc(C)n1Cc1c(C)cc(C)cc1C (optimized conformer: 95.91459223155582 kcal/mol)

>  <smiles>  (38) 
C=c1c(=Cc2c(O)[nH]c(=S)[nH]c2=O)cc(C)n1Cc1c(C)cc(C)cc1C

>  <score_type>  (38) 
oracle

>  <origin>  (38) 
adg

>  <m_score__min__energy>  (38) 
-14.119999999999999

>  <m_primary>  (38) 
energy

$$$$
38:0
     RDKit          3D

 55 57  0  0  0  0  0  0  0  0999 V2000
   56.0096   30.0211   42.3477 H   0  0  0  0  0  0  0  0  0  0  0  0
   56.2590   30.0680   43.4180 C   0  0  0  0  0  0  0  0  0  0  0  0
   55.4669   29.9543   44.1728 H   0  0  0  0  0  0  0  0  0  0  0  0
   57.5230   30.2630   43.8010 C   0  0  0  0  0  0  0  0  0  0  0  0
   58.3048   30.3751   43.0353 H   0  0  0  0  0  0  0  0  0  0  0  0
   57.9030   30.3330   45.2520 C   0  0  0  0  0  0  0  0  0  0  0  0
   58.4455   31.2713   45.4395 H   0  0  0  0  0  0  0  0  0  0  0  0
   56.9884   30.2961   45.8620 H   0  0  0  0  0  0  0  0  0  0  0  0
   58.7620   29.1970   45.6130 N   0  0  0  0  0  0  0  0  0  0  0  0
   60.1960   29.2670   45.4440 C   0  0  0  0  0  0  0  0  0  0  0  0
   60.7350   28.7600   44.4230 O   0  0  0  0  0  0  0  0  0  0  0  0
   61.0740   29.9200   46.4340 C   0  0  0  0  0  0  0  0  0  0  0  0
   61.9068   29.3292   46.8432 H   0  0  0  0  0  0  0  0  0  0  0  0
   60.9330   31.1810   46.8730 C   0  0  0  0  0  0  0  0  0  0  0  0
   60.0059   31.7082   46.6037 H   0  0  0  0  0  0  0  0  0  0  0  0
   61.9250   31.9230   47.6920 C   0  0  0  0  0  0  0  0  0  0  0  0
   63.2140   32.1650   47.1780 C   0  0  0  0  0  0  0  0  0  0  0  0
   63.5009   31.7374   46.2060 H   0  0  0  0  0  0  0  0  0  0  0  0
   64.1310   32.9410   47.8880 C   0  0  0  0  0  0  0  0  0  0  0  0
   65.1413   33.1040   47.4847 H   0  0  0  0  0  0  0  0  0  0  0  0
   63.7680   33.5100   49.1080 C   0  0  0  0  0  0  0  0  0  0  0  0
   64.4940   34.1178   49.6679 H   0  0  0  0  0  0  0  0  0  0  0  0
   62.4860   33.3100   49.6200 C   0  0  0  0  0  0  0  0  0  0  0  0
   62.2019   33.7775   50.5743 H   0  0  0  0  0  0  0  0  0  0  0  0
   61.5520   32.5160   48.9280 C   0  0  0  0  0  0  0  0  0  0  0  0
   60.2100   32.3250   49.5250 C   0  0  0  0  0  0  0  0  0  0  0  0
   59.9080   31.2160   50.0460 O   0  0  0  0  0  0  0  0  0  0  0  0
   59.2440   33.3820   49.4820 N   0  0  0  0  0  0  0  0  0  0  0  0
   59.3790   34.5690   48.6480 C   0  0  0  0  0  0  0  0  0  0  0  0
   58.7693   35.3818   49.0695 H   0  0  0  0  0  0  0  0  0  0  0  0
   60.4359   34.8724   48.6194 H   0  0  0  0  0  0  0  0  0  0  0  0
   58.9130   34.2700   47.2510 C   0  0  0  0  0  0  0  0  0  0  0  0
   59.6520   34.7380   46.1520 C   0  0  0  0  0  0  0  0  0  0  0  0
   60.5823   35.3012   46.3173 H   0  0  0  0  0  0  0  0  0  0  0  0
   59.2100   34.4910   44.8490 C   0  0  0  0  0  0  0  0  0  0  0  0
   59.7909   34.8622   43.9918 H   0  0  0  0  0  0  0  0  0  0  0  0
   58.0310   33.7730   44.6350 C   0  0  0  0  0  0  0  0  0  0  0  0
   57.6865   33.5759   43.6091 H   0  0  0  0  0  0  0  0  0  0  0  0
   57.2890   33.3050   45.7220 C   0  0  0  0  0  0  0  0  0  0  0  0
   56.3608   32.7400   45.5512 H   0  0  0  0  0  0  0  0  0  0  0  0
   57.7250   33.5540   47.0270 C   0  0  0  0  0  0  0  0  0  0  0  0
   57.1360   33.1882   47.8810 H   0  0  0  0  0  0  0  0  0  0  0  0
   58.1370   27.9430   45.9450 C   0  0  0  0  0  0  0  0  0  0  0  0
   58.9120   26.8860   46.4340 C   0  0  0  0  0  0  0  0  0  0  0  0
   59.9963   27.0175   46.5640 H   0  0  0  0  0  0  0  0  0  0  0  0
   58.3170   25.6650   46.7580 C   0  0  0  0  0  0  0  0  0  0  0  0
   58.9400   24.8382   47.1298 H   0  0  0  0  0  0  0  0  0  0  0  0
   56.9270   25.4800   46.6140 C   0  0  0  0  0  0  0  0  0  0  0  0
   56.3190   24.1700   46.9640 C   0  0  0  0  0  0  0  0  0  0  0  0
   57.0340   23.2370   47.4180 O   0  0  0  0  0  0  0  0  0  0  0  0
   54.9580   23.9450   46.8000 O   0  0  0  0  0  0  0  0  0  0  0  0
   56.1470   26.5570   46.1400 C   0  0  0  0  0  0  0  0  0  0  0  0
   54.7690   26.4400   45.9900 O   0  0  0  0  0  0  0  0  0  0  0  0
   56.7520   27.7750   45.8100 C   0  0  0  0  0  0  0  0  0  0  0  0
   56.1352   28.6079   45.4414 H   0  0  0  0  0  0  0  0  0  0  0  0
  1  2  1  0
  2  3  1  0
  2  4  2  0
  4  5  1  0
  4  6  1  0
  6  7  1  0
  6  8  1  0
  6  9  1  0
  9 10  1  0
 10 11  2  0
 10 12  1  0
 12 13  1  0
 12 14  2  0
 14 15  1  0
 14 16  1  0
 16 17  2  0
 17 18  1  0
 17 19  1  0
 19 20  1  0
 19 21  2  0
 21 22  1  0
 21 23  1  0
 23 24  1  0
 23 25  2  0
 25 26  1  0
 26 27  2  0
 26 28  1  0
 28 29  1  0
 29 30  1  0
 29 31  1  0
 29 32  1  0
 32 33  2  0
 33 34  1  0
 33 35  1  0
 35 36  1  0
 35 37  2  0
 37 38  1  0
 37 39  1  0
 39 40  1  0
 39 41  2  0
 41 42  1  0
  9 43  1  0
 43 44  2  0
 44 45  1  0
 44 46  1  0
 46 47  1  0
 46 48  2  0
 48 49  1  0
 49 50  2  0
 49 51  1  0
 48 52  1  0
 52 53  1  0
 52 54  2  0
 54 55  1  0
 25 16  1  0
 41 32  1  0
 54 43  1  0
M  CHG  3  28  -1  51  -1  53  -1
M  END
>  <UniqueID>  (39) 
38

>  <SMILES>  (39) 
C=CCN(C(=O)/C=C\c1ccccc1C(=O)[N-]Cc1ccccc1)c1ccc(C(=O)[O-])c([O-])c1

>  <Energy>  (39) 
73.80615560022417

>  <Genealogy>  (39) 
C=CCN(C(=O)C=Cc1ccccc1C(=O)[N-]Cc1ccccc1)c1ccc(C(=O)[O-])c([O-])c1 (protonated)
C=CCN(C(=O)/C=C\c1ccccc1C(=O)[N-]Cc1ccccc1)c1ccc(C(=O)[O-])c([O-])c1 (cis-trans isomerization)
C=CCN(C(=O)/C=C\c1ccccc1C(=O)[N-]Cc1ccccc1)c1ccc(C(=O)[O-])c([O-])c1 (3D coordinates assigned)
C=CCN(C(=O)/C=C\c1ccccc1C(=O)[N-]Cc1ccccc1)c1ccc(C(=O)[O-])c([O-])c1 (optimized conformer: 73.80615560022417 kcal/mol)

>  <smiles>  (39) 
C=CCN(C(=O)C=Cc1ccccc1C(=O)NCc1ccccc1)c1ccc(C(=O)O)c(O)c1

>  <score_type>  (39) 
oracle

>  <origin>  (39) 
adg

>  <m_score__min__energy>  (39) 
-16.059999999999999

>  <m_primary>  (39) 
energy

$$$$
39:0
     RDKit          3D

 47 50  0  0  0  0  0  0  0  0999 V2000
   60.9630   34.2200   49.8810 H   0  0  0  0  0  0  0  0  0  0  0  0
   61.0170   34.5910   48.9410 O   0  0  0  0  0  0  0  0  0  0  0  0
   60.0850   34.2400   47.9640 C   0  0  0  0  0  0  0  0  0  0  0  0
   59.9440   35.0250   46.8130 C   0  0  0  0  0  0  0  0  0  0  0  0
   60.5841   35.9083   46.6717 H   0  0  0  0  0  0  0  0  0  0  0  0
   58.9930   34.6920   45.8410 C   0  0  0  0  0  0  0  0  0  0  0  0
   58.8966   35.3068   44.9340 H   0  0  0  0  0  0  0  0  0  0  0  0
   58.1660   33.5800   46.0210 C   0  0  0  0  0  0  0  0  0  0  0  0
   57.1920   33.2360   44.9740 C   0  0  0  0  0  0  0  0  0  0  0  0
   56.2519   33.8060   44.9378 H   0  0  0  0  0  0  0  0  0  0  0  0
   57.3770   32.2720   44.0610 C   0  0  0  0  0  0  0  0  0  0  0  0
   57.3902   32.5668   43.0013 H   0  0  0  0  0  0  0  0  0  0  0  0
   57.5640   30.8440   44.3780 C   0  0  0  0  0  0  0  0  0  0  0  0
   56.5760   30.0840   44.9210 N   0  0  0  0  0  0  0  0  0  0  0  0
   57.1840   28.9030   45.1060 C   0  0  0  0  0  0  0  0  0  0  0  0
   56.6430   27.7350   45.6400 C   0  0  0  0  0  0  0  0  0  0  0  0
   55.5895   27.6889   45.9530 H   0  0  0  0  0  0  0  0  0  0  0  0
   57.4940   26.6080   45.7670 C   0  0  0  0  0  0  0  0  0  0  0  0
   56.9650   25.3480   46.3790 C   0  0  0  0  0  0  0  0  0  0  0  0
   56.9996   25.4303   47.4754 H   0  0  0  0  0  0  0  0  0  0  0  0
   55.9253   25.1917   46.0556 H   0  0  0  0  0  0  0  0  0  0  0  0
   57.5815   24.4963   46.0556 H   0  0  0  0  0  0  0  0  0  0  0  0
   58.8590   26.7030   45.3840 C   0  0  0  0  0  0  0  0  0  0  0  0
   59.5247   25.8361   45.5076 H   0  0  0  0  0  0  0  0  0  0  0  0
   59.3630   27.9050   44.8460 C   0  0  0  0  0  0  0  0  0  0  0  0
   60.4171   27.9947   44.5445 H   0  0  0  0  0  0  0  0  0  0  0  0
   58.4820   28.9750   44.7090 C   0  0  0  0  0  0  0  0  0  0  0  0
   58.7540   30.2010   44.2460 N   0  0  0  0  0  0  0  0  0  0  0  0
   58.2760   32.8120   47.1890 C   0  0  0  0  0  0  0  0  0  0  0  0
   57.5846   31.9740   47.3614 H   0  0  0  0  0  0  0  0  0  0  0  0
   59.2680   33.1100   48.1410 C   0  0  0  0  0  0  0  0  0  0  0  0
   59.4420   32.2350   49.3150 C   0  0  0  0  0  0  0  0  0  0  0  0
   59.4010   32.7540   50.4680 O   0  0  0  0  0  0  0  0  0  0  0  0
   59.6550   30.8100   49.1660 N   0  0  0  0  0  0  0  0  0  0  0  0
   60.4620   30.0840   50.1550 C   0  0  0  0  0  0  0  0  0  0  0  0
   61.5195   30.1137   49.8535 H   0  0  0  0  0  0  0  0  0  0  0  0
   60.3385   30.5606   51.1387 H   0  0  0  0  0  0  0  0  0  0  0  0
   60.0010   28.6220   50.2450 C   0  0  0  0  0  0  0  0  0  0  0  0
   60.7044   28.0606   50.8774 H   0  0  0  0  0  0  0  0  0  0  0  0
   58.9909   28.5975   50.6797 H   0  0  0  0  0  0  0  0  0  0  0  0
   59.9560   28.0270   48.9590 O   0  0  0  0  0  0  0  0  0  0  0  0
   58.9750   28.6740   48.1710 C   0  0  0  0  0  0  0  0  0  0  0  0
   58.8770   28.1441   47.2120 H   0  0  0  0  0  0  0  0  0  0  0  0
   58.0209   28.6601   48.7183 H   0  0  0  0  0  0  0  0  0  0  0  0
   59.3610   30.1300   47.9010 C   0  0  0  0  0  0  0  0  0  0  0  0
   60.2517   30.1578   47.2561 H   0  0  0  0  0  0  0  0  0  0  0  0
   58.5245   30.6401   47.4010 H   0  0  0  0  0  0  0  0  0  0  0  0
  1  2  1  0
  2  3  1  0
  3  4  2  0
  4  5  1  0
  4  6  1  0
  6  7  1  0
  6  8  2  0
  8  9  1  0
  9 10  1  0
  9 11  2  0
 11 12  1  0
 11 13  1  0
 13 14  2  0
 14 15  1  0
 15 16  2  0
 16 17  1  0
 16 18  1  0
 18 19  1  0
 19 20  1  0
 19 21  1  0
 19 22  1  0
 18 23  2  0
 23 24  1  0
 23 25  1  0
 25 26  1  0
 25 27  2  0
 27 28  1  0
  8 29  1  0
 29 30  1  0
 29 31  2  0
 31 32  1  0
 32 33  2  0
 32 34  1  0
 34 35  1  0
 35 36  1  0
 35 37  1  0
 35 38  1  0
 38 39  1  0
 38 40  1  0
 38 41  1  0
 41 42  1  0
 42 43  1  0
 42 44  1  0
 42 45  1  0
 45 46  1  0
 45 47  1  0
 31  3  1  0
 45 34  1  0
 28 13  1  0
 27 15  1  0
M  CHG  1  28  -1
M  END
>  <UniqueID>  (40) 
39

>  <SMILES>  (40) 
Cc1ccc2[n-]c(/C=C\c3ccc(O)c(C(=O)N4CCOCC4)c3)nc2c1

>  <Energy>  (40) 
101.66474064160698

>  <Genealogy>  (40) 
Cc1ccc2[n-]c(C=Cc3ccc(O)c(C(=O)N4CCOCC4)c3)nc2c1 (protonated)
Cc1ccc2[n-]c(/C=C\c3ccc(O)c(C(=O)N4CCOCC4)c3)nc2c1 (cis-trans isomerization)
Cc1ccc2[n-]c(/C=C\c3ccc(O)c(C(=O)N4CCOCC4)c3)nc2c1 (3D coordinates assigned)
Cc1ccc2[n-]c(/C=C\c3ccc(O)c(C(=O)N4CCOCC4)c3)nc2c1 (nonaromatic ring conformer: 101.66474064160698 kcal/mol)

>  <smiles>  (40) 
Cc1ccc2[nH]c(C=Cc3ccc(O)c(C(=O)N4CCOCC4)c3)nc2c1

>  <score_type>  (40) 
oracle

>  <origin>  (40) 
adg

>  <m_score__min__energy>  (40) 
-9.7699999999999996

>  <m_primary>  (40) 
energy

$$$$
40:0
     RDKit          3D

 36 39  0  0  0  0  0  0  0  0999 V2000
   58.0147   26.3910   44.0754 H   0  0  0  0  0  0  0  0  0  0  0  0
   57.9620   27.3950   43.6290 C   0  0  0  0  0  0  0  0  0  0  0  0
   57.7163   27.5108   42.5631 H   0  0  0  0  0  0  0  0  0  0  0  0
   58.1970   28.4760   44.3830 C   0  0  0  0  0  0  0  0  0  0  0  0
   58.3420   28.5420   45.7890 C   0  0  0  0  0  0  0  0  0  0  0  0
   58.3860   27.5220   46.6740 C   0  0  0  0  0  0  0  0  0  0  0  0
   59.1743   27.5493   47.4407 H   0  0  0  0  0  0  0  0  0  0  0  0
   57.4610   26.3770   46.6920 C   0  0  0  0  0  0  0  0  0  0  0  0
   57.7080   25.2010   47.3000 N   0  0  0  0  0  0  0  0  0  0  0  0
   56.5440   24.5300   47.1640 C   0  0  0  0  0  0  0  0  0  0  0  0
   56.3810   23.3600   47.6010 O   0  0  0  0  0  0  0  0  0  0  0  0
   55.5650   25.2140   46.5330 N   0  0  0  0  0  0  0  0  0  0  0  0
   56.1600   26.3840   46.2540 C   0  0  0  0  0  0  0  0  0  0  0  0
   55.5220   27.4420   45.6160 O   0  0  0  0  0  0  0  0  0  0  0  0
   58.3340   29.9170   46.0940 C   0  0  0  0  0  0  0  0  0  0  0  0
   58.4970   30.6580   47.2970 C   0  0  0  0  0  0  0  0  0  0  0  0
   58.8360   29.9980   48.6220 C   0  0  0  0  0  0  0  0  0  0  0  0
   58.0495   29.2647   48.8537 H   0  0  0  0  0  0  0  0  0  0  0  0
   59.8266   29.5352   48.5013 H   0  0  0  0  0  0  0  0  0  0  0  0
   58.9430   30.9560   49.7760 C   0  0  0  0  0  0  0  0  0  0  0  0
   59.8960   31.9040   49.8760 N   0  0  0  0  0  0  0  0  0  0  0  0
   59.6750   32.5190   51.0590 C   0  0  0  0  0  0  0  0  0  0  0  0
   60.2783   33.3528   51.4473 H   0  0  0  0  0  0  0  0  0  0  0  0
   58.5940   31.9660   51.7180 C   0  0  0  0  0  0  0  0  0  0  0  0
   58.1863   32.2619   52.6959 H   0  0  0  0  0  0  0  0  0  0  0  0
   58.1370   30.9690   50.8930 C   0  0  0  0  0  0  0  0  0  0  0  0
   57.0660   30.1240   51.1460 O   0  0  0  0  0  0  0  0  0  0  0  0
   58.3380   32.0670   47.2100 C   0  0  0  0  0  0  0  0  0  0  0  0
   58.3672   32.6710   48.1289 H   0  0  0  0  0  0  0  0  0  0  0  0
   58.1440   32.7040   45.9720 C   0  0  0  0  0  0  0  0  0  0  0  0
   58.0316   33.7975   45.9318 H   0  0  0  0  0  0  0  0  0  0  0  0
   58.0930   31.9570   44.7920 C   0  0  0  0  0  0  0  0  0  0  0  0
   57.9762   32.4501   43.8157 H   0  0  0  0  0  0  0  0  0  0  0  0
   58.1940   30.5720   44.8860 C   0  0  0  0  0  0  0  0  0  0  0  0
   58.1380   29.7170   43.8570 N   0  0  0  0  0  0  0  0  0  0  0  0
   57.9920   29.9680   42.8520 H   0  0  0  0  0  0  0  0  0  0  0  0
  1  2  1  0
  2  3  1  0
  2  4  2  0
  4  5  1  0
  5  6  2  0
  6  7  1  0
  6  8  1  0
  8  9  1  0
  9 10  1  0
 10 11  2  0
 10 12  1  0
 12 13  1  0
 13 14  1  0
  5 15  1  0
 15 16  2  0
 16 17  1  0
 17 18  1  0
 17 19  1  0
 17 20  1  0
 20 21  1  0
 21 22  1  0
 22 23  1  0
 22 24  2  0
 24 25  1  0
 24 26  1  0
 26 27  1  0
 16 28  1  0
 28 29  1  0
 28 30  2  0
 30 31  1  0
 30 32  1  0
 32 33  1  0
 32 34  2  0
 34 35  1  0
 35 36  1  0
 35  4  1  0
 13  8  2  0
 34 15  1  0
 26 20  2  0
M  CHG  5   9  -1  12  -1  14  -1  21  -1  27  -1
M  END
>  <UniqueID>  (41) 
40

>  <SMILES>  (41) 
C=c1[nH]c2cccc(Cc3[n-]ccc3[O-])c2/c1=C/c1[n-]c(=O)[n-]c1[O-]

>  <Energy>  (41) 
148.92117887173444

>  <Genealogy>  (41) 
C=c1[nH]c2cccc(Cc3[n-]ccc3[O-])c2c1=Cc1[n-]c(=O)[n-]c1[O-] (protonated)
C=c1[nH]c2cccc(Cc3[n-]ccc3[O-])c2/c1=C/c1[n-]c(=O)[n-]c1[O-] (cis-trans isomerization)
C=c1[nH]c2cccc(Cc3[n-]ccc3[O-])c2/c1=C/c1[n-]c(=O)[n-]c1[O-] (3D coordinates assigned)
C=c1[nH]c2cccc(Cc3[n-]ccc3[O-])c2/c1=C/c1[n-]c(=O)[n-]c1[O-] (optimized conformer: 148.92117887173444 kcal/mol)

>  <smiles>  (41) 
C=c1[nH]c2cccc(Cc3[nH]ccc3O)c2c1=Cc1[nH]c(=O)[nH]c1O

>  <score_type>  (41) 
oracle

>  <origin>  (41) 
adg

>  <m_score__min__energy>  (41) 
-17.789999999999999

>  <m_primary>  (41) 
energy

$$$$
41:0
     RDKit          3D

 57 60  0  0  0  0  0  0  0  0999 V2000
   57.7570   31.9170   42.7460 C   0  0  0  0  0  0  0  0  0  0  0  0
   57.6220   31.6720   44.5060 S   0  0  0  0  0  0  0  0  0  0  0  0
   56.2440   31.1530   44.8040 O   0  0  0  0  0  0  0  0  0  0  0  0
   58.6180   30.6170   44.8980 O   0  0  0  0  0  0  0  0  0  0  0  0
   57.9430   33.1080   45.4620 N   0  0  0  0  0  0  0  0  0  0  0  0
   57.5910   32.9770   46.8900 C   0  0  0  0  0  0  0  0  0  0  0  0
   58.7160   32.3810   47.7530 C   0  0  0  0  0  0  0  0  0  0  0  0
   60.0090   32.9720   47.4070 N   0  0  0  0  0  0  0  0  0  0  0  0
   61.0160   33.1200   48.4230 C   0  0  0  0  0  0  0  0  0  0  0  0
   61.2920   34.3910   48.9520 C   0  0  0  0  0  0  0  0  0  0  0  0
   62.2870   34.5520   49.9180 C   0  0  0  0  0  0  0  0  0  0  0  0
   63.0110   33.4480   50.3680 C   0  0  0  0  0  0  0  0  0  0  0  0
   62.7420   32.1770   49.8540 C   0  0  0  0  0  0  0  0  0  0  0  0
   61.7490   32.0010   48.8730 C   0  0  0  0  0  0  0  0  0  0  0  0
   61.4270   30.6840   48.3900 N   0  0  0  0  0  0  0  0  0  0  0  0
   60.2510   29.9630   48.7920 C   0  0  0  0  0  0  0  0  0  0  0  0
   59.5930   30.3500   49.7970 O   0  0  0  0  0  0  0  0  0  0  0  0
   59.8280   28.7380   48.0740 C   0  0  0  0  0  0  0  0  0  0  0  0
   60.7960   27.7830   47.6690 C   0  0  0  0  0  0  0  0  0  0  0  0
   60.4150   26.6160   46.9870 C   0  0  0  0  0  0  0  0  0  0  0  0
   59.0620   26.4230   46.7240 C   0  0  0  0  0  0  0  0  0  0  0  0
   58.1050   27.3320   47.1170 C   0  0  0  0  0  0  0  0  0  0  0  0
   58.4610   28.4970   47.7980 C   0  0  0  0  0  0  0  0  0  0  0  0
   56.7280   26.8690   46.7330 C   0  0  0  0  0  0  0  0  0  0  0  0
   56.9840   25.6010   46.0480 N   0  0  0  0  0  0  0  0  0  0  0  0
   55.7630   24.4940   45.5200 S   0  0  0  0  0  0  0  0  0  0  0  0
   56.0810   24.0180   43.8370 C   0  0  0  0  0  0  0  0  0  0  0  0
   54.4140   25.1480   45.6230 O   0  0  0  0  0  0  0  0  0  0  0  0
   55.7820   23.2720   46.3950 O   0  0  0  0  0  0  0  0  0  0  0  0
   58.3810   25.3380   46.0650 C   0  0  0  0  0  0  0  0  0  0  0  0
   58.9210   24.3050   45.5880 O   0  0  0  0  0  0  0  0  0  0  0  0
   60.3780   33.0400   45.9950 C   0  0  0  0  0  0  0  0  0  0  0  0
   59.2590   33.7260   45.2160 C   0  0  0  0  0  0  0  0  0  0  0  0
   58.2791   32.8645   42.5467 H   0  0  0  0  0  0  0  0  0  0  0  0
   58.3243   31.0854   42.3025 H   0  0  0  0  0  0  0  0  0  0  0  0
   56.7510   31.9523   42.3025 H   0  0  0  0  0  0  0  0  0  0  0  0
   57.3464   33.9759   47.2802 H   0  0  0  0  0  0  0  0  0  0  0  0
   56.7396   32.2829   46.9484 H   0  0  0  0  0  0  0  0  0  0  0  0
   58.5009   32.5808   48.8131 H   0  0  0  0  0  0  0  0  0  0  0  0
   58.7642   31.2977   47.5680 H   0  0  0  0  0  0  0  0  0  0  0  0
   60.7213   35.2644   48.6035 H   0  0  0  0  0  0  0  0  0  0  0  0
   62.5004   35.5514   50.3250 H   0  0  0  0  0  0  0  0  0  0  0  0
   63.7949   33.5782   51.1286 H   0  0  0  0  0  0  0  0  0  0  0  0
   63.3101   31.3085   50.2186 H   0  0  0  0  0  0  0  0  0  0  0  0
   62.1460   30.1820   47.8230 H   0  0  0  0  0  0  0  0  0  0  0  0
   61.8587   27.9590   47.8921 H   0  0  0  0  0  0  0  0  0  0  0  0
   61.1643   25.8758   46.6698 H   0  0  0  0  0  0  0  0  0  0  0  0
   57.6915   29.2163   48.1151 H   0  0  0  0  0  0  0  0  0  0  0  0
   56.0997   26.7173   47.6231 H   0  0  0  0  0  0  0  0  0  0  0  0
   56.1852   27.5954   46.1103 H   0  0  0  0  0  0  0  0  0  0  0  0
   56.6920   23.1034   43.8238 H   0  0  0  0  0  0  0  0  0  0  0  0
   55.1271   23.8291   43.3229 H   0  0  0  0  0  0  0  0  0  0  0  0
   56.6207   24.8270   43.3229 H   0  0  0  0  0  0  0  0  0  0  0  0
   61.3089   33.6156   45.8854 H   0  0  0  0  0  0  0  0  0  0  0  0
   60.5310   32.0234   45.6038 H   0  0  0  0  0  0  0  0  0  0  0  0
   59.2150   34.7829   45.5176 H   0  0  0  0  0  0  0  0  0  0  0  0
   59.4836   33.6220   44.1442 H   0  0  0  0  0  0  0  0  0  0  0  0
  1  2  1  0
  2  3  2  0
  2  4  2  0
  2  5  1  0
  5  6  1  0
  6  7  1  0
  7  8  1  0
  8  9  1  0
  9 10  2  0
 10 11  1  0
 11 12  2  0
 12 13  1  0
 13 14  2  0
 14 15  1  0
 15 16  1  0
 16 17  2  0
 16 18  1  0
 18 19  2  0
 19 20  1  0
 20 21  2  0
 21 22  1  0
 22 23  2  0
 22 24  1  0
 24 25  1  0
 25 26  1  0
 26 27  1  0
 26 28  2  0
 26 29  2  0
 25 30  1  0
 30 31  2  0
  8 32  1  0
 32 33  1  0
 33  5  1  0
 14  9  1  0
 23 18  1  0
 30 21  1  0
  1 34  1  0
  1 35  1  0
  1 36  1  0
  6 37  1  0
  6 38  1  0
  7 39  1  0
  7 40  1  0
 10 41  1  0
 11 42  1  0
 12 43  1  0
 13 44  1  0
 15 45  1  0
 19 46  1  0
 20 47  1  0
 23 48  1  0
 24 49  1  0
 24 50  1  0
 27 51  1  0
 27 52  1  0
 27 53  1  0
 32 54  1  0
 32 55  1  0
 33 56  1  0
 33 57  1  0
M  END
>  <UniqueID>  (42) 
41

>  <SMILES>  (42) 
CS(=O)(=O)N1CCN(c2ccccc2NC(=O)c2ccc3c(c2)CN(S(C)(=O)=O)C3=O)CC1

>  <Energy>  (42) 
89.20823187494665

>  <Genealogy>  (42) 
CS(=O)(=O)N1CCN(c2ccccc2NC(=O)c2ccc3c(c2)CN(S(C)(=O)=O)C3=O)CC1 (3D coordinates assigned)
CS(=O)(=O)N1CCN(c2ccccc2NC(=O)c2ccc3c(c2)CN(S(C)(=O)=O)C3=O)CC1 (nonaromatic ring conformer: 89.20823187494665 kcal/mol)

>  <smiles>  (42) 
CS(=O)(=O)N1CCN(c2ccccc2NC(=O)c2ccc3c(c2)CN(S(C)(=O)=O)C3=O)CC1

>  <score_type>  (42) 
oracle

>  <origin>  (42) 
adg

>  <m_score__min__energy>  (42) 
-9.3599999999999994

>  <m_primary>  (42) 
energy

$$$$
42:0
     RDKit          3D

 43 45  0  0  0  0  0  0  0  0999 V2000
   59.1070   27.5740   46.5340 O   0  0  0  0  0  0  0  0  0  0  0  0
   57.9120   27.1750   46.5740 C   0  0  0  0  0  0  0  0  0  0  0  0
   57.5890   25.8680   47.2220 C   0  0  0  0  0  0  0  0  0  0  0  0
   56.7490   25.0400   46.3020 C   0  0  0  0  0  0  0  0  0  0  0  0
   57.2070   23.5620   45.6340 S   0  0  0  0  0  0  0  0  0  0  0  0
   55.8060   23.4530   44.7110 C   0  0  0  0  0  0  0  0  0  0  0  0
   55.5430   22.5000   43.9320 O   0  0  0  0  0  0  0  0  0  0  0  0
   54.9910   24.5170   44.8720 N   0  0  0  0  0  0  0  0  0  0  0  0
   55.5210   25.4070   45.7540 C   0  0  0  0  0  0  0  0  0  0  0  0
   54.8770   26.5990   46.0720 O   0  0  0  0  0  0  0  0  0  0  0  0
   56.8570   27.9540   45.9960 N   0  0  0  0  0  0  0  0  0  0  0  0
   56.9400   29.3350   45.6130 C   0  0  0  0  0  0  0  0  0  0  0  0
   57.9890   30.1630   46.0560 C   0  0  0  0  0  0  0  0  0  0  0  0
   58.0360   31.5130   45.6790 C   0  0  0  0  0  0  0  0  0  0  0  0
   59.3720   32.5370   46.2010 S   0  0  0  0  0  0  0  0  0  0  0  0
   59.6980   33.5240   45.1150 O   0  0  0  0  0  0  0  0  0  0  0  0
   60.5790   31.6670   46.4240 O   0  0  0  0  0  0  0  0  0  0  0  0
   58.9550   33.3490   47.6970 N   0  0  0  0  0  0  0  0  0  0  0  0
   59.7720   34.5530   47.9550 C   0  0  0  0  0  0  0  0  0  0  0  0
   61.1780   34.2210   48.4720 C   0  0  0  0  0  0  0  0  0  0  0  0
   61.1000   33.3260   49.7080 C   0  0  0  0  0  0  0  0  0  0  0  0
   60.2810   32.0700   49.4120 C   0  0  0  0  0  0  0  0  0  0  0  0
   58.8950   32.4290   48.8520 C   0  0  0  0  0  0  0  0  0  0  0  0
   57.0280   32.0390   44.8630 C   0  0  0  0  0  0  0  0  0  0  0  0
   55.9680   31.2300   44.4450 C   0  0  0  0  0  0  0  0  0  0  0  0
   55.9190   29.8860   44.8230 C   0  0  0  0  0  0  0  0  0  0  0  0
   54.8550   29.0940   44.4050 O   0  0  0  0  0  0  0  0  0  0  0  0
   58.5225   25.3312   47.4465 H   0  0  0  0  0  0  0  0  0  0  0  0
   57.0339   26.0520   48.1537 H   0  0  0  0  0  0  0  0  0  0  0  0
   55.1230   27.4610   45.6010 H   0  0  0  0  0  0  0  0  0  0  0  0
   58.7768   29.7483   46.7020 H   0  0  0  0  0  0  0  0  0  0  0  0
   59.8677   35.1198   47.0172 H   0  0  0  0  0  0  0  0  0  0  0  0
   59.2624   35.1366   48.7359 H   0  0  0  0  0  0  0  0  0  0  0  0
   61.7393   33.6992   47.6829 H   0  0  0  0  0  0  0  0  0  0  0  0
   61.6857   35.1580   48.7446 H   0  0  0  0  0  0  0  0  0  0  0  0
   62.1172   33.0323   50.0064 H   0  0  0  0  0  0  0  0  0  0  0  0
   60.6115   33.8846   50.5200 H   0  0  0  0  0  0  0  0  0  0  0  0
   60.8185   31.4570   48.6736 H   0  0  0  0  0  0  0  0  0  0  0  0
   60.1438   31.5143   50.3514 H   0  0  0  0  0  0  0  0  0  0  0  0
   58.3950   31.5019   48.5351 H   0  0  0  0  0  0  0  0  0  0  0  0
   58.3422   32.9435   49.6518 H   0  0  0  0  0  0  0  0  0  0  0  0
   57.0702   33.0926   44.5497 H   0  0  0  0  0  0  0  0  0  0  0  0
   55.1701   31.6526   43.8167 H   0  0  0  0  0  0  0  0  0  0  0  0
  1  2  2  0
  2  3  1  0
  3  4  1  0
  4  5  1  0
  5  6  1  0
  6  7  2  0
  6  8  1  0
  8  9  1  0
  9 10  1  0
  2 11  1  0
 11 12  1  0
 12 13  2  0
 13 14  1  0
 14 15  1  0
 15 16  2  0
 15 17  2  0
 15 18  1  0
 18 19  1  0
 19 20  1  0
 20 21  1  0
 21 22  1  0
 22 23  1  0
 14 24  2  0
 24 25  1  0
 25 26  2  0
 26 27  1  0
  9  4  2  0
 26 12  1  0
 23 18  1  0
  3 28  1  0
  3 29  1  0
 10 30  1  0
 13 31  1  0
 19 32  1  0
 19 33  1  0
 20 34  1  0
 20 35  1  0
 21 36  1  0
 21 37  1  0
 22 38  1  0
 22 39  1  0
 23 40  1  0
 23 41  1  0
 24 42  1  0
 25 43  1  0
M  CHG  3   8  -1  11  -1  27  -1
M  END
>  <UniqueID>  (43) 
42

>  <SMILES>  (43) 
O=C(Cc1sc(=O)[n-]c1O)[N-]c1cc(S(=O)(=O)N2CCCCC2)ccc1[O-]

>  <Energy>  (43) 
74.59657434835302

>  <Genealogy>  (43) 
O=C(Cc1sc(=O)[n-]c1O)[N-]c1cc(S(=O)(=O)N2CCCCC2)ccc1[O-] (protonated)
O=C(Cc1sc(=O)[n-]c1O)[N-]c1cc(S(=O)(=O)N2CCCCC2)ccc1[O-] (3D coordinates assigned)
O=C(Cc1sc(=O)[n-]c1O)[N-]c1cc(S(=O)(=O)N2CCCCC2)ccc1[O-] (nonaromatic ring conformer: 74.59657434835302 kcal/mol)

>  <smiles>  (43) 
O=C(Cc1sc(=O)[nH]c1O)Nc1cc(S(=O)(=O)N2CCCCC2)ccc1O

>  <score_type>  (43) 
oracle

>  <origin>  (43) 
adg

>  <m_score__min__energy>  (43) 
-14.68

>  <m_primary>  (43) 
energy

$$$$
43:0
     RDKit          3D

 25 26  0  0  0  0  0  0  0  0999 V2000
   54.4630   23.5950   44.5910 C   0  0  0  0  0  0  0  0  0  0  0  0
   55.6190   24.3660   45.1390 C   0  0  0  0  0  0  0  0  0  0  0  0
   56.8930   23.9190   45.1450 N   0  0  0  0  0  0  0  0  0  0  0  0
   57.5710   24.8990   45.7820 C   0  0  0  0  0  0  0  0  0  0  0  0
   58.8140   24.8490   45.9810 O   0  0  0  0  0  0  0  0  0  0  0  0
   56.7910   25.9280   46.1830 N   0  0  0  0  0  0  0  0  0  0  0  0
   57.1900   27.1320   46.9140 C   0  0  0  0  0  0  0  0  0  0  0  0
   57.7780   28.1560   45.9690 C   0  0  0  0  0  0  0  0  0  0  0  0
   56.9110   28.9100   45.1530 C   0  0  0  0  0  0  0  0  0  0  0  0
   55.5670   28.7430   45.2320 F   0  0  0  0  0  0  0  0  0  0  0  0
   57.4230   29.8460   44.2500 C   0  0  0  0  0  0  0  0  0  0  0  0
   58.7990   30.0420   44.1480 C   0  0  0  0  0  0  0  0  0  0  0  0
   59.6710   29.3040   44.9500 C   0  0  0  0  0  0  0  0  0  0  0  0
   59.1750   28.3620   45.8590 C   0  0  0  0  0  0  0  0  0  0  0  0
   60.3410   27.4810   46.8410 Cl  0  0  0  0  0  0  0  0  0  0  0  0
   55.5580   25.5820   45.7800 C   0  0  0  0  0  0  0  0  0  0  0  0
   54.4130   26.3410   45.9900 O   0  0  0  0  0  0  0  0  0  0  0  0
   53.8627   23.1946   45.4213 H   0  0  0  0  0  0  0  0  0  0  0  0
   53.8391   24.2585   43.9741 H   0  0  0  0  0  0  0  0  0  0  0  0
   54.8358   22.7641   43.9741 H   0  0  0  0  0  0  0  0  0  0  0  0
   56.3081   27.5625   47.4109 H   0  0  0  0  0  0  0  0  0  0  0  0
   57.9507   26.8590   47.6602 H   0  0  0  0  0  0  0  0  0  0  0  0
   56.7377   30.4298   43.6179 H   0  0  0  0  0  0  0  0  0  0  0  0
   59.1980   30.7786   43.4351 H   0  0  0  0  0  0  0  0  0  0  0  0
   60.7562   29.4638   44.8671 H   0  0  0  0  0  0  0  0  0  0  0  0
  1  2  1  0
  2  3  1  0
  3  4  1  0
  4  5  2  0
  4  6  1  0
  6  7  1  0
  7  8  1  0
  8  9  2  0
  9 10  1  0
  9 11  1  0
 11 12  2  0
 12 13  1  0
 13 14  2  0
 14 15  1  0
  6 16  1  0
 16 17  1  0
 16  2  2  0
 14  8  1  0
  1 18  1  0
  1 19  1  0
  1 20  1  0
  7 21  1  0
  7 22  1  0
 11 23  1  0
 12 24  1  0
 13 25  1  0
M  CHG  2   3  -1  17  -1
M  END
>  <UniqueID>  (44) 
43

>  <SMILES>  (44) 
Cc1[n-]c(=O)n(Cc2c(F)cccc2Cl)c1[O-]

>  <Energy>  (44) 
58.07791982093396

>  <Genealogy>  (44) 
Cc1[n-]c(=O)n(Cc2c(F)cccc2Cl)c1[O-] (protonated)
Cc1[n-]c(=O)n(Cc2c(F)cccc2Cl)c1[O-] (3D coordinates assigned)
Cc1[n-]c(=O)n(Cc2c(F)cccc2Cl)c1[O-] (optimized conformer: 58.07791982093396 kcal/mol)

>  <smiles>  (44) 
Cc1[nH]c(=O)n(Cc2c(F)cccc2Cl)c1O

>  <score_type>  (44) 
oracle

>  <origin>  (44) 
adg

>  <m_score__min__energy>  (44) 
-10.92

>  <m_primary>  (44) 
energy

$$$$
44:0
     RDKit          3D

 64 67  0  0  0  0  0  0  0  0999 V2000
   61.8180   33.4290   50.8440 N   0  0  0  0  0  0  0  0  0  0  0  0
   62.3680   33.1680   49.5490 C   0  0  0  0  0  0  0  0  0  0  0  0
   62.5760   34.2350   48.6610 C   0  0  0  0  0  0  0  0  0  0  0  0
   63.0880   34.0000   47.3850 C   0  0  0  0  0  0  0  0  0  0  0  0
   63.4090   32.7000   46.9890 C   0  0  0  0  0  0  0  0  0  0  0  0
   63.2090   31.6320   47.8660 C   0  0  0  0  0  0  0  0  0  0  0  0
   62.6720   31.8510   49.1450 C   0  0  0  0  0  0  0  0  0  0  0  0
   62.4740   30.7540   50.0540 N   0  0  0  0  0  0  0  0  0  0  0  0
   61.2060   30.2390   50.4820 C   0  0  0  0  0  0  0  0  0  0  0  0
   60.7050   30.6730   51.5530 O   0  0  0  0  0  0  0  0  0  0  0  0
   60.4560   29.2500   49.6770 C   0  0  0  0  0  0  0  0  0  0  0  0
   59.2450   29.6100   49.0620 C   0  0  0  0  0  0  0  0  0  0  0  0
   58.5240   28.6750   48.3120 C   0  0  0  0  0  0  0  0  0  0  0  0
   59.0120   27.3700   48.1520 C   0  0  0  0  0  0  0  0  0  0  0  0
   58.1770   26.3300   47.4540 C   0  0  0  0  0  0  0  0  0  0  0  0
   57.8550   26.7810   46.1020 N   0  0  0  0  0  0  0  0  0  0  0  0
   58.0590   25.9510   44.9550 C   0  0  0  0  0  0  0  0  0  0  0  0
   58.4560   24.7630   45.0880 O   0  0  0  0  0  0  0  0  0  0  0  0
   57.7910   26.4950   43.5840 C   0  0  0  0  0  0  0  0  0  0  0  0
   57.9880   27.9100   43.5680 O   0  0  0  0  0  0  0  0  0  0  0  0
   58.8880   28.6160   44.3860 C   0  0  0  0  0  0  0  0  0  0  0  0
   60.2480   28.2580   44.4850 C   0  0  0  0  0  0  0  0  0  0  0  0
   61.1170   28.9910   45.3000 C   0  0  0  0  0  0  0  0  0  0  0  0
   60.6440   30.0910   46.0160 C   0  0  0  0  0  0  0  0  0  0  0  0
   59.3020   30.4580   45.9210 C   0  0  0  0  0  0  0  0  0  0  0  0
   58.4130   29.7130   45.1300 C   0  0  0  0  0  0  0  0  0  0  0  0
   56.9930   30.1020   45.0570 C   0  0  0  0  0  0  0  0  0  0  0  0
   56.1080   29.2250   45.2340 O   0  0  0  0  0  0  0  0  0  0  0  0
   56.5860   31.4530   44.8240 N   0  0  0  0  0  0  0  0  0  0  0  0
   57.4210   32.5020   44.2460 C   0  0  0  0  0  0  0  0  0  0  0  0
   58.1480   33.2770   45.3130 C   0  0  0  0  0  0  0  0  0  0  0  0
   57.8790   33.0390   46.6720 C   0  0  0  0  0  0  0  0  0  0  0  0
   58.5620   33.7540   47.6600 C   0  0  0  0  0  0  0  0  0  0  0  0
   59.5300   34.6960   47.3030 C   0  0  0  0  0  0  0  0  0  0  0  0
   59.8280   34.9130   45.9570 C   0  0  0  0  0  0  0  0  0  0  0  0
   59.1420   34.2080   44.9640 C   0  0  0  0  0  0  0  0  0  0  0  0
   60.2240   27.0110   48.7560 C   0  0  0  0  0  0  0  0  0  0  0  0
   60.9470   27.9470   49.5030 C   0  0  0  0  0  0  0  0  0  0  0  0
   61.6500   34.4030   51.1790 H   0  0  0  0  0  0  0  0  0  0  0  0
   61.5340   32.6420   51.4750 H   0  0  0  0  0  0  0  0  0  0  0  0
   62.3340   35.2617   48.9730 H   0  0  0  0  0  0  0  0  0  0  0  0
   63.2390   34.8393   46.6902 H   0  0  0  0  0  0  0  0  0  0  0  0
   63.8198   32.5171   45.9851 H   0  0  0  0  0  0  0  0  0  0  0  0
   63.4741   30.6114   47.5527 H   0  0  0  0  0  0  0  0  0  0  0  0
   58.8610   30.6350   49.1712 H   0  0  0  0  0  0  0  0  0  0  0  0
   57.5706   28.9644   47.8459 H   0  0  0  0  0  0  0  0  0  0  0  0
   58.7391   25.3860   47.4001 H   0  0  0  0  0  0  0  0  0  0  0  0
   57.2449   26.1741   48.0170 H   0  0  0  0  0  0  0  0  0  0  0  0
   57.4950   27.7540   45.9540 H   0  0  0  0  0  0  0  0  0  0  0  0
   58.4781   26.0242   42.8655 H   0  0  0  0  0  0  0  0  0  0  0  0
   56.7495   26.2742   43.3073 H   0  0  0  0  0  0  0  0  0  0  0  0
   60.6285   27.3961   43.9173 H   0  0  0  0  0  0  0  0  0  0  0  0
   62.1750   28.6997   45.3765 H   0  0  0  0  0  0  0  0  0  0  0  0
   61.3288   30.6681   46.6547 H   0  0  0  0  0  0  0  0  0  0  0  0
   58.9370   31.3384   46.4703 H   0  0  0  0  0  0  0  0  0  0  0  0
   58.1590   32.0415   43.5727 H   0  0  0  0  0  0  0  0  0  0  0  0
   56.7707   33.1978   43.6956 H   0  0  0  0  0  0  0  0  0  0  0  0
   57.1286   32.2876   46.9589 H   0  0  0  0  0  0  0  0  0  0  0  0
   58.3367   33.5745   48.7216 H   0  0  0  0  0  0  0  0  0  0  0  0
   60.0569   35.2662   48.0823 H   0  0  0  0  0  0  0  0  0  0  0  0
   60.6043   35.6403   45.6770 H   0  0  0  0  0  0  0  0  0  0  0  0
   59.3810   34.3824   43.9045 H   0  0  0  0  0  0  0  0  0  0  0  0
   60.6094   25.9870   48.6422 H   0  0  0  0  0  0  0  0  0  0  0  0
   61.9068   27.6597   49.9570 H   0  0  0  0  0  0  0  0  0  0  0  0
  1  2  1  0
  2  3  2  0
  3  4  1  0
  4  5  2  0
  5  6  1  0
  6  7  2  0
  7  8  1  0
  8  9  1  0
  9 10  2  0
  9 11  1  0
 11 12  2  0
 12 13  1  0
 13 14  2  0
 14 15  1  0
 15 16  1  0
 16 17  1  0
 17 18  2  0
 17 19  1  0
 19 20  1  0
 20 21  1  0
 21 22  2  0
 22 23  1  0
 23 24  2  0
 24 25  1  0
 25 26  2  0
 26 27  1  0
 27 28  2  0
 27 29  1  0
 29 30  1  0
 30 31  1  0
 31 32  2  0
 32 33  1  0
 33 34  2  0
 34 35  1  0
 35 36  2  0
 14 37  1  0
 37 38  2  0
  7  2  1  0
 38 11  1  0
 26 21  1  0
 36 31  1  0
  1 39  1  0
  1 40  1  0
  3 41  1  0
  4 42  1  0
  5 43  1  0
  6 44  1  0
 12 45  1  0
 13 46  1  0
 15 47  1  0
 15 48  1  0
 16 49  1  0
 19 50  1  0
 19 51  1  0
 22 52  1  0
 23 53  1  0
 24 54  1  0
 25 55  1  0
 30 56  1  0
 30 57  1  0
 32 58  1  0
 33 59  1  0
 34 60  1  0
 35 61  1  0
 36 62  1  0
 37 63  1  0
 38 64  1  0
M  CHG  2   8  -1  29  -1
M  END
>  <UniqueID>  (45) 
44

>  <SMILES>  (45) 
Nc1ccccc1[N-]C(=O)c1ccc(CNC(=O)COc2ccccc2C(=O)[N-]Cc2ccccc2)cc1

>  <Energy>  (45) 
73.36530902293588

>  <Genealogy>  (45) 
Nc1ccccc1[N-]C(=O)c1ccc(CNC(=O)COc2ccccc2C(=O)[N-]Cc2ccccc2)cc1 (protonated)
Nc1ccccc1[N-]C(=O)c1ccc(CNC(=O)COc2ccccc2C(=O)[N-]Cc2ccccc2)cc1 (3D coordinates assigned)
Nc1ccccc1[N-]C(=O)c1ccc(CNC(=O)COc2ccccc2C(=O)[N-]Cc2ccccc2)cc1 (optimized conformer: 73.36530902293588 kcal/mol)

>  <smiles>  (45) 
Nc1ccccc1NC(=O)c1ccc(CNC(=O)COc2ccccc2C(=O)NCc2ccccc2)cc1

>  <score_type>  (45) 
oracle

>  <origin>  (45) 
adg

>  <m_score__min__energy>  (45) 
-13.18

>  <m_primary>  (45) 
energy

$$$$
45:0
     RDKit          3D

 46 48  0  0  0  0  0  0  0  0999 V2000
   55.1490   28.9700   44.5780 N   0  0  0  0  0  0  0  0  0  0  0  0
   56.4810   30.0250   44.2640 S   0  0  0  0  0  0  0  0  0  0  0  0
   56.2040   31.3750   44.8650 O   0  0  0  0  0  0  0  0  0  0  0  0
   56.6520   30.1840   42.7800 O   0  0  0  0  0  0  0  0  0  0  0  0
   57.9470   29.3460   44.9650 C   0  0  0  0  0  0  0  0  0  0  0  0
   58.4320   28.1110   44.5200 C   0  0  0  0  0  0  0  0  0  0  0  0
   59.6000   27.5780   45.0690 C   0  0  0  0  0  0  0  0  0  0  0  0
   60.2930   28.2770   46.0600 C   0  0  0  0  0  0  0  0  0  0  0  0
   59.8250   29.5250   46.5130 C   0  0  0  0  0  0  0  0  0  0  0  0
   60.5620   30.2670   47.5630 C   0  0  0  0  0  0  0  0  0  0  0  0
   61.4880   31.0620   47.2420 O   0  0  0  0  0  0  0  0  0  0  0  0
   60.2250   30.0880   48.9440 N   0  0  0  0  0  0  0  0  0  0  0  0
   58.9400   29.5750   49.4050 C   0  0  0  0  0  0  0  0  0  0  0  0
   58.5020   30.3070   50.6490 C   0  0  0  0  0  0  0  0  0  0  0  0
   58.4990   29.6190   51.8750 C   0  0  0  0  0  0  0  0  0  0  0  0
   58.1170   30.2670   53.0500 C   0  0  0  0  0  0  0  0  0  0  0  0
   57.7380   31.6100   53.0150 C   0  0  0  0  0  0  0  0  0  0  0  0
   57.7420   32.3090   51.8070 C   0  0  0  0  0  0  0  0  0  0  0  0
   58.1220   31.6670   50.6100 C   0  0  0  0  0  0  0  0  0  0  0  0
   58.1390   32.3450   49.3780 O   0  0  0  0  0  0  0  0  0  0  0  0
   59.2440   33.0780   48.8480 C   0  0  0  0  0  0  0  0  0  0  0  0
   58.9390   33.5860   47.4620 C   0  0  0  0  0  0  0  0  0  0  0  0
   57.6350   33.4680   46.9490 C   0  0  0  0  0  0  0  0  0  0  0  0
   57.3390   33.9220   45.6600 C   0  0  0  0  0  0  0  0  0  0  0  0
   58.3420   34.4850   44.8690 C   0  0  0  0  0  0  0  0  0  0  0  0
   59.6450   34.5910   45.3630 C   0  0  0  0  0  0  0  0  0  0  0  0
   59.9480   34.1400   46.6520 C   0  0  0  0  0  0  0  0  0  0  0  0
   61.2240   34.2450   47.1040 F   0  0  0  0  0  0  0  0  0  0  0  0
   58.6470   30.0530   45.9540 C   0  0  0  0  0  0  0  0  0  0  0  0
   54.6620   29.3390   45.4260 H   0  0  0  0  0  0  0  0  0  0  0  0
   57.8922   27.5592   43.7364 H   0  0  0  0  0  0  0  0  0  0  0  0
   59.9755   26.6047   44.7200 H   0  0  0  0  0  0  0  0  0  0  0  0
   61.2109   27.8493   46.4895 H   0  0  0  0  0  0  0  0  0  0  0  0
   58.1875   29.7180   48.6155 H   0  0  0  0  0  0  0  0  0  0  0  0
   59.0434   28.5046   49.6364 H   0  0  0  0  0  0  0  0  0  0  0  0
   58.8002   28.5616   51.9081 H   0  0  0  0  0  0  0  0  0  0  0  0
   58.1145   29.7195   54.0041 H   0  0  0  0  0  0  0  0  0  0  0  0
   57.4353   32.1188   53.9421 H   0  0  0  0  0  0  0  0  0  0  0  0
   57.4466   33.3684   51.7883 H   0  0  0  0  0  0  0  0  0  0  0  0
   59.4573   33.9333   49.5060 H   0  0  0  0  0  0  0  0  0  0  0  0
   60.1150   32.4085   48.7925 H   0  0  0  0  0  0  0  0  0  0  0  0
   56.8436   33.0161   47.5650 H   0  0  0  0  0  0  0  0  0  0  0  0
   56.3146   33.8354   45.2688 H   0  0  0  0  0  0  0  0  0  0  0  0
   58.1067   34.8453   43.8567 H   0  0  0  0  0  0  0  0  0  0  0  0
   60.4349   35.0305   44.7362 H   0  0  0  0  0  0  0  0  0  0  0  0
   58.2714   31.0289   46.2954 H   0  0  0  0  0  0  0  0  0  0  0  0
  1  2  1  0
  2  3  2  0
  2  4  2  0
  2  5  1  0
  5  6  2  0
  6  7  1  0
  7  8  2  0
  8  9  1  0
  9 10  1  0
 10 11  2  0
 10 12  1  0
 12 13  1  0
 13 14  1  0
 14 15  2  0
 15 16  1  0
 16 17  2  0
 17 18  1  0
 18 19  2  0
 19 20  1  0
 20 21  1  0
 21 22  1  0
 22 23  2  0
 23 24  1  0
 24 25  2  0
 25 26  1  0
 26 27  2  0
 27 28  1  0
  9 29  2  0
 29  5  1  0
 19 14  1  0
 27 22  1  0
  1 30  1  0
  6 31  1  0
  7 32  1  0
  8 33  1  0
 13 34  1  0
 13 35  1  0
 15 36  1  0
 16 37  1  0
 17 38  1  0
 18 39  1  0
 21 40  1  0
 21 41  1  0
 23 42  1  0
 24 43  1  0
 25 44  1  0
 26 45  1  0
 29 46  1  0
M  CHG  2   1  -1  12  -1
M  END
>  <UniqueID>  (46) 
45

>  <SMILES>  (46) 
[NH-]S(=O)(=O)c1cccc(C(=O)[N-]Cc2ccccc2OCc2ccccc2F)c1

>  <Energy>  (46) 
47.859704735798495

>  <Genealogy>  (46) 
[NH-]S(=O)(=O)c1cccc(C(=O)[N-]Cc2ccccc2OCc2ccccc2F)c1 (protonated)
[NH-]S(=O)(=O)c1cccc(C(=O)[N-]Cc2ccccc2OCc2ccccc2F)c1 (3D coordinates assigned)
[NH-]S(=O)(=O)c1cccc(C(=O)[N-]Cc2ccccc2OCc2ccccc2F)c1 (optimized conformer: 47.859704735798495 kcal/mol)

>  <smiles>  (46) 
NS(=O)(=O)c1cccc(C(=O)NCc2ccccc2OCc2ccccc2F)c1

>  <score_type>  (46) 
oracle

>  <origin>  (46) 
adg

>  <m_score__min__energy>  (46) 
-12.710000000000001

>  <m_primary>  (46) 
energy

$$$$
46:0
     RDKit          3D

 51 53  0  0  0  0  0  0  0  0999 V2000
   55.1410   26.4170   45.9790 N   0  0  0  0  0  0  0  0  0  0  0  0
   56.3030   25.6550   46.3020 C   0  0  0  0  0  0  0  0  0  0  0  0
   56.2550   24.8010   47.2240 O   0  0  0  0  0  0  0  0  0  0  0  0
   57.5250   25.8480   45.5820 N   0  0  0  0  0  0  0  0  0  0  0  0
   57.6940   26.8380   44.5250 C   0  0  0  0  0  0  0  0  0  0  0  0
   58.7670   27.8560   44.9100 C   0  0  0  0  0  0  0  0  0  0  0  0
   58.0370   29.2750   45.7070 S   0  0  0  0  0  0  0  0  0  0  0  0
   58.5710   30.5270   45.0700 O   0  0  0  0  0  0  0  0  0  0  0  0
   56.5430   29.2250   45.5510 O   0  0  0  0  0  0  0  0  0  0  0  0
   58.4540   29.2580   47.3870 N   0  0  0  0  0  0  0  0  0  0  0  0
   59.1900   30.3130   48.0050 C   0  0  0  0  0  0  0  0  0  0  0  0
   60.4220   30.4490   47.7700 O   0  0  0  0  0  0  0  0  0  0  0  0
   58.4730   31.2950   48.8900 C   0  0  2  0  0  0  0  0  0  0  0  0
   58.6760   32.7440   48.4120 C   0  0  0  0  0  0  0  0  0  0  0  0
   60.0660   33.0100   47.8950 C   0  0  0  0  0  0  0  0  0  0  0  0
   60.4250   33.5040   46.6420 C   0  0  0  0  0  0  0  0  0  0  0  0
   59.2320   33.9070   45.2030 Br  0  0  0  0  0  0  0  0  0  0  0  0
   61.7660   33.6600   46.5560 N   0  0  0  0  0  0  0  0  0  0  0  0
   62.2590   33.2730   47.7450 C   0  0  0  0  0  0  0  0  0  0  0  0
   63.5970   33.2630   48.1390 C   0  0  0  0  0  0  0  0  0  0  0  0
   63.8950   32.8210   49.4430 C   0  0  0  0  0  0  0  0  0  0  0  0
   65.7060   32.7860   50.0420 Br  0  0  0  0  0  0  0  0  0  0  0  0
   62.8600   32.4020   50.3090 C   0  0  0  0  0  0  0  0  0  0  0  0
   61.5210   32.4220   49.8820 C   0  0  0  0  0  0  0  0  0  0  0  0
   61.2560   32.8680   48.5880 C   0  0  0  0  0  0  0  0  0  0  0  0
   58.9130   31.1550   50.2770 N   0  0  0  0  0  0  0  0  0  0  0  0
   58.1070   30.5680   51.3020 C   0  0  0  0  0  0  0  0  0  0  0  0
   57.9710   29.3160   51.3580 O   0  0  0  0  0  0  0  0  0  0  0  0
   57.5300   31.4190   52.3040 N   0  0  0  0  0  0  0  0  0  0  0  0
   58.0850   32.4000   52.9610 C   0  0  0  0  0  0  0  0  0  0  0  0
   58.4520   33.6210   52.3540 C   0  0  0  0  0  0  0  0  0  0  0  0
   59.0550   34.6170   53.1250 C   0  0  0  0  0  0  0  0  0  0  0  0
   59.2990   34.3990   54.4800 C   0  0  0  0  0  0  0  0  0  0  0  0
   58.9390   33.1770   55.0480 C   0  0  0  0  0  0  0  0  0  0  0  0
   58.3530   32.2180   54.2830 N   0  0  0  0  0  0  0  0  0  0  0  0
   55.1610   27.4600   45.9960 H   0  0  0  0  0  0  0  0  0  0  0  0
   57.9945   26.3290   43.5973 H   0  0  0  0  0  0  0  0  0  0  0  0
   56.7404   27.3658   44.3769 H   0  0  0  0  0  0  0  0  0  0  0  0
   59.4819   27.3832   45.5995 H   0  0  0  0  0  0  0  0  0  0  0  0
   59.2802   28.1901   43.9962 H   0  0  0  0  0  0  0  0  0  0  0  0
   57.3984   31.0675   48.8312 H   0  0  0  0  0  0  0  0  0  0  0  0
   57.9576   32.9496   47.6048 H   0  0  0  0  0  0  0  0  0  0  0  0
   58.5199   33.3996   49.2814 H   0  0  0  0  0  0  0  0  0  0  0  0
   62.3040   34.0140   45.7350 H   0  0  0  0  0  0  0  0  0  0  0  0
   64.3933   33.5895   47.4540 H   0  0  0  0  0  0  0  0  0  0  0  0
   63.1040   32.0576   51.3248 H   0  0  0  0  0  0  0  0  0  0  0  0
   60.7081   32.0961   50.5476 H   0  0  0  0  0  0  0  0  0  0  0  0
   58.2645   33.7862   51.2828 H   0  0  0  0  0  0  0  0  0  0  0  0
   59.3377   35.5743   52.6627 H   0  0  0  0  0  0  0  0  0  0  0  0
   59.7697   35.1811   55.0938 H   0  0  0  0  0  0  0  0  0  0  0  0
   59.1292   32.9892   56.1150 H   0  0  0  0  0  0  0  0  0  0  0  0
  1  2  1  0
  2  3  2  0
  2  4  1  0
  4  5  1  0
  5  6  1  0
  6  7  1  0
  7  8  2  0
  7  9  2  0
  7 10  1  0
 10 11  1  0
 11 12  2  0
 11 13  1  0
 13 14  1  0
 14 15  1  0
 15 16  2  0
 16 17  1  0
 16 18  1  0
 18 19  1  0
 19 20  2  0
 20 21  1  0
 21 22  1  0
 21 23  2  0
 23 24  1  0
 24 25  2  0
 13 26  1  0
 26 27  1  0
 27 28  2  0
 27 29  1  0
 29 30  2  3
 30 31  1  0
 31 32  2  0
 32 33  1  0
 33 34  2  0
 34 35  1  0
 25 15  1  0
 35 30  1  0
 25 19  1  0
  1 36  1  0
  5 37  1  0
  5 38  1  0
  6 39  1  0
  6 40  1  0
 13 41  1  1
 14 42  1  0
 14 43  1  0
 18 44  1  0
 20 45  1  0
 23 46  1  0
 24 47  1  0
 31 48  1  0
 32 49  1  0
 33 50  1  0
 34 51  1  0
M  CHG  5   1  -1   4  -1  10  -1  26  -1  35  -1
M  END
>  <UniqueID>  (47) 
46

>  <SMILES>  (47) 
[NH-]C(=O)[N-]CCS(=O)(=O)[N-]C(=O)[C@H](Cc1c(Br)[nH]c2cc(Br)ccc12)[N-]C(=O)N=c1cccc[n-]1

>  <Energy>  (47) 
80.69009663927959

>  <Genealogy>  (47) 
[NH-]C(=O)[N-]CCS(=O)(=O)[N-]C(=O)C(Cc1c(Br)[nH]c2cc(Br)ccc12)[N-]C(=O)N=c1cccc[n-]1 (protonated)
[NH-]C(=O)[N-]CCS(=O)(=O)[N-]C(=O)[C@H](Cc1c(Br)[nH]c2cc(Br)ccc12)[N-]C(=O)N=c1cccc[n-]1 (chirality)
[NH-]C(=O)[N-]CCS(=O)(=O)[N-]C(=O)[C@H](Cc1c(Br)[nH]c2cc(Br)ccc12)[N-]C(=O)N=c1cccc[n-]1 (3D coordinates assigned)
[NH-]C(=O)[N-]CCS(=O)(=O)[N-]C(=O)[C@H](Cc1c(Br)[nH]c2cc(Br)ccc12)[N-]C(=O)N=c1cccc[n-]1 (optimized conformer: 80.69009663927959 kcal/mol)

>  <smiles>  (47) 
NC(=O)NCCS(=O)(=O)NC(=O)C(Cc1c(Br)[nH]c2cc(Br)ccc12)NC(=O)N=c1cccc[nH]1

>  <score_type>  (47) 
oracle

>  <origin>  (47) 
adg

>  <m_score__min__energy>  (47) 
-16.879999999999999

>  <m_primary>  (47) 
energy

$$$$
47:0
     RDKit          3D

 48 50  0  0  0  0  0  0  0  0999 V2000
   56.1010   30.8100   44.4950 O   0  0  0  0  0  0  0  0  0  0  0  0
   57.2510   30.8710   44.0760 C   0  0  0  0  0  0  0  0  0  0  0  0
   57.7880   32.1960   43.6050 C   0  0  0  0  0  0  0  0  0  0  0  0
   58.1800   33.0410   44.7860 C   0  0  0  0  0  0  0  0  0  0  0  0
   59.0340   34.1450   44.6120 C   0  0  0  0  0  0  0  0  0  0  0  0
   59.4320   34.9070   45.7140 C   0  0  0  0  0  0  0  0  0  0  0  0
   58.9900   34.5670   46.9970 C   0  0  0  0  0  0  0  0  0  0  0  0
   58.1510   33.4640   47.1790 C   0  0  0  0  0  0  0  0  0  0  0  0
   57.7480   32.7010   46.0790 C   0  0  0  0  0  0  0  0  0  0  0  0
   58.0660   29.6750   43.9910 N   0  0  0  0  0  0  0  0  0  0  0  0
   57.3210   28.5150   44.5070 C   0  0  0  0  0  0  0  0  0  0  0  0
   58.1440   27.2270   44.3540 C   0  0  0  0  0  0  0  0  0  0  0  0
   59.5110   27.3520   44.9020 N   0  0  0  0  0  0  0  0  0  0  0  0
   59.7540   26.7320   46.2210 C   0  0  0  0  0  0  0  0  0  0  0  0
   58.7790   27.2010   47.3110 C   0  0  0  0  0  0  0  0  0  0  0  0
   59.3650   28.3600   48.0730 C   0  0  0  0  0  0  0  0  0  0  0  0
   58.8420   29.6550   47.9060 C   0  0  0  0  0  0  0  0  0  0  0  0
   59.3700   30.7260   48.6320 C   0  0  0  0  0  0  0  0  0  0  0  0
   60.4150   30.5120   49.5360 C   0  0  0  0  0  0  0  0  0  0  0  0
   60.9310   29.2250   49.7180 C   0  0  0  0  0  0  0  0  0  0  0  0
   60.4050   28.1500   48.9940 C   0  0  0  0  0  0  0  0  0  0  0  0
   60.2180   28.6200   44.6260 C   0  0  0  0  0  0  0  0  0  0  0  0
   59.3140   29.8560   44.7530 C   0  0  0  0  0  0  0  0  0  0  0  0
   58.6697   32.0266   42.9695 H   0  0  0  0  0  0  0  0  0  0  0  0
   57.0087   32.7179   43.0302 H   0  0  0  0  0  0  0  0  0  0  0  0
   59.3898   34.4095   43.6053 H   0  0  0  0  0  0  0  0  0  0  0  0
   60.0932   35.7746   45.5724 H   0  0  0  0  0  0  0  0  0  0  0  0
   59.3030   35.1682   47.8633 H   0  0  0  0  0  0  0  0  0  0  0  0
   57.8074   33.1959   48.1890 H   0  0  0  0  0  0  0  0  0  0  0  0
   57.0905   31.8315   46.2263 H   0  0  0  0  0  0  0  0  0  0  0  0
   58.3090   29.4990   42.9870 H   0  0  0  0  0  0  0  0  0  0  0  0
   57.0963   28.6752   45.5718 H   0  0  0  0  0  0  0  0  0  0  0  0
   56.3897   28.4092   43.9312 H   0  0  0  0  0  0  0  0  0  0  0  0
   57.6260   26.4140   44.8838 H   0  0  0  0  0  0  0  0  0  0  0  0
   58.2365   27.0191   43.2778 H   0  0  0  0  0  0  0  0  0  0  0  0
   59.6585   25.6413   46.1152 H   0  0  0  0  0  0  0  0  0  0  0  0
   60.7625   27.0354   46.5387 H   0  0  0  0  0  0  0  0  0  0  0  0
   57.8347   27.5151   46.8424 H   0  0  0  0  0  0  0  0  0  0  0  0
   58.5956   26.3704   48.0084 H   0  0  0  0  0  0  0  0  0  0  0  0
   58.0145   29.8253   47.2015 H   0  0  0  0  0  0  0  0  0  0  0  0
   58.9631   31.7384   48.4921 H   0  0  0  0  0  0  0  0  0  0  0  0
   60.8316   31.3566   50.1045 H   0  0  0  0  0  0  0  0  0  0  0  0
   61.7515   29.0579   50.4314 H   0  0  0  0  0  0  0  0  0  0  0  0
   60.8067   27.1373   49.1461 H   0  0  0  0  0  0  0  0  0  0  0  0
   61.0491   28.7196   45.3397 H   0  0  0  0  0  0  0  0  0  0  0  0
   60.5708   28.5781   43.5850 H   0  0  0  0  0  0  0  0  0  0  0  0
   59.0687   30.0154   45.8134 H   0  0  0  0  0  0  0  0  0  0  0  0
   59.8502   30.7268   44.3477 H   0  0  0  0  0  0  0  0  0  0  0  0
  1  2  2  0
  2  3  1  0
  3  4  1  0
  4  5  2  0
  5  6  1  0
  6  7  2  0
  7  8  1  0
  8  9  2  0
  2 10  1  0
 10 11  1  0
 11 12  1  0
 12 13  1  0
 13 14  1  0
 14 15  1  0
 15 16  1  0
 16 17  2  0
 17 18  1  0
 18 19  2  0
 19 20  1  0
 20 21  2  0
 13 22  1  0
 22 23  1  0
  9  4  1  0
 23 10  1  0
 21 16  1  0
  3 24  1  0
  3 25  1  0
  5 26  1  0
  6 27  1  0
  7 28  1  0
  8 29  1  0
  9 30  1  0
 10 31  1  0
 11 32  1  0
 11 33  1  0
 12 34  1  0
 12 35  1  0
 14 36  1  0
 14 37  1  0
 15 38  1  0
 15 39  1  0
 17 40  1  0
 18 41  1  0
 19 42  1  0
 20 43  1  0
 21 44  1  0
 22 45  1  0
 22 46  1  0
 23 47  1  0
 23 48  1  0
M  CHG  1  10   1
M  END
>  <UniqueID>  (48) 
47

>  <SMILES>  (48) 
O=C(Cc1ccccc1)[NH+]1CCN(CCc2ccccc2)CC1

>  <Energy>  (48) 
55.403511954842806

>  <Genealogy>  (48) 
O=C(Cc1ccccc1)[NH+]1CCN(CCc2ccccc2)CC1 (protonated)
O=C(Cc1ccccc1)[NH+]1CCN(CCc2ccccc2)CC1 (3D coordinates assigned)
O=C(Cc1ccccc1)[NH+]1CCN(CCc2ccccc2)CC1 (nonaromatic ring conformer: 55.403511954842806 kcal/mol)

>  <smiles>  (48) 
O=C(Cc1ccccc1)N1CCN(CCc2ccccc2)CC1

>  <score_type>  (48) 
oracle

>  <origin>  (48) 
adg

>  <m_score__min__energy>  (48) 
-7.3099999999999996

>  <m_primary>  (48) 
energy

$$$$
48:0
     RDKit          3D

 52 54  0  0  0  0  0  0  0  0999 V2000
   61.3890   28.6060   44.8670 C   0  0  0  0  0  0  0  0  0  0  0  0
   60.3720   28.8910   45.9880 C   0  0  0  0  0  0  0  0  0  0  0  0
   61.0340   29.7920   47.0510 C   0  0  0  0  0  0  0  0  0  0  0  0
   59.9420   27.5680   46.6490 C   0  0  0  0  0  0  0  0  0  0  0  0
   59.1540   29.5800   45.4060 C   0  0  0  0  0  0  0  0  0  0  0  0
   58.0610   28.9520   44.8270 C   0  0  0  0  0  0  0  0  0  0  0  0
   57.2040   29.9600   44.4330 C   0  0  0  0  0  0  0  0  0  0  0  0
   55.9620   29.7660   43.6650 C   0  0  0  0  0  0  0  0  0  0  0  0
   54.7690   29.3200   44.3050 N   0  0  0  0  0  0  0  0  0  0  0  0
   55.9410   30.0400   42.4340 O   0  0  0  0  0  0  0  0  0  0  0  0
   57.8200   31.1420   44.8230 C   0  0  0  0  0  0  0  0  0  0  0  0
   57.3080   32.4740   44.6940 N   0  0  0  0  0  0  0  0  0  0  0  0
   57.6880   33.5950   45.5040 C   0  0  0  0  0  0  0  0  0  0  0  0
   57.0530   34.6750   45.3720 O   0  0  0  0  0  0  0  0  0  0  0  0
   58.8110   33.5280   46.4700 C   0  0  0  0  0  0  0  0  0  0  0  0
   58.5650   33.1680   47.8050 C   0  0  0  0  0  0  0  0  0  0  0  0
   59.6190   33.0830   48.7210 C   0  0  0  0  0  0  0  0  0  0  0  0
   60.9310   33.3680   48.3210 C   0  0  0  0  0  0  0  0  0  0  0  0
   62.0120   33.2660   49.2600 N   0  0  0  0  0  0  0  0  0  0  0  0
   61.9870   34.0020   50.5270 C   0  0  0  0  0  0  0  0  0  0  0  0
   63.3720   34.5820   50.8990 C   0  0  0  0  0  0  0  0  0  0  0  0
   64.6020   33.7930   50.3920 C   0  0  0  0  0  0  0  0  0  0  0  0
   64.3870   32.2800   50.3490 C   0  0  0  0  0  0  0  0  0  0  0  0
   63.1130   31.9330   49.1630 S   0  0  0  0  0  0  0  0  0  0  0  0
   63.7150   31.8380   47.7880 O   0  0  0  0  0  0  0  0  0  0  0  0
   62.4110   30.6490   49.5120 O   0  0  0  0  0  0  0  0  0  0  0  0
   61.1760   33.7490   46.9910 C   0  0  0  0  0  0  0  0  0  0  0  0
   60.1240   33.8370   46.0760 C   0  0  0  0  0  0  0  0  0  0  0  0
   58.9780   30.8840   45.3810 O   0  0  0  0  0  0  0  0  0  0  0  0
   62.3579   28.3345   45.3113 H   0  0  0  0  0  0  0  0  0  0  0  0
   61.0253   27.7752   44.2445 H   0  0  0  0  0  0  0  0  0  0  0  0
   61.5101   29.5048   44.2445 H   0  0  0  0  0  0  0  0  0  0  0  0
   60.7682   29.4303   48.0552 H   0  0  0  0  0  0  0  0  0  0  0  0
   62.1267   29.7623   46.9278 H   0  0  0  0  0  0  0  0  0  0  0  0
   60.6791   30.8259   46.9278 H   0  0  0  0  0  0  0  0  0  0  0  0
   59.9772   27.6763   47.7431 H   0  0  0  0  0  0  0  0  0  0  0  0
   58.9167   27.3190   46.3380 H   0  0  0  0  0  0  0  0  0  0  0  0
   60.6250   26.7638   46.3380 H   0  0  0  0  0  0  0  0  0  0  0  0
   57.9080   27.8694   44.7062 H   0  0  0  0  0  0  0  0  0  0  0  0
   54.6550   29.3930   45.3390 H   0  0  0  0  0  0  0  0  0  0  0  0
   57.5374   32.9516   48.1324 H   0  0  0  0  0  0  0  0  0  0  0  0
   59.4163   32.7905   49.7619 H   0  0  0  0  0  0  0  0  0  0  0  0
   61.2687   34.8306   50.4402 H   0  0  0  0  0  0  0  0  0  0  0  0
   61.6948   33.2968   51.3190 H   0  0  0  0  0  0  0  0  0  0  0  0
   63.4319   35.5993   50.4848 H   0  0  0  0  0  0  0  0  0  0  0  0
   63.4250   34.5358   51.9967 H   0  0  0  0  0  0  0  0  0  0  0  0
   64.8414   34.1387   49.3755 H   0  0  0  0  0  0  0  0  0  0  0  0
   65.4199   33.9812   51.1031 H   0  0  0  0  0  0  0  0  0  0  0  0
   65.3200   31.7799   50.0500 H   0  0  0  0  0  0  0  0  0  0  0  0
   64.0919   31.9103   51.3421 H   0  0  0  0  0  0  0  0  0  0  0  0
   62.2021   33.9793   46.6683 H   0  0  0  0  0  0  0  0  0  0  0  0
   60.3247   34.1501   45.0408 H   0  0  0  0  0  0  0  0  0  0  0  0
  1  2  1  0
  2  3  1  0
  2  4  1  0
  2  5  1  0
  5  6  2  0
  6  7  1  0
  7  8  1  0
  8  9  1  0
  8 10  2  0
  7 11  2  0
 11 12  1  0
 12 13  1  0
 13 14  2  0
 13 15  1  0
 15 16  2  0
 16 17  1  0
 17 18  2  0
 18 19  1  0
 19 20  1  0
 20 21  1  0
 21 22  1  0
 22 23  1  0
 23 24  1  0
 24 25  2  0
 24 26  2  0
 18 27  1  0
 27 28  2  0
 11 29  1  0
 29  5  1  0
 28 15  1  0
 24 19  1  0
  1 30  1  0
  1 31  1  0
  1 32  1  0
  3 33  1  0
  3 34  1  0
  3 35  1  0
  4 36  1  0
  4 37  1  0
  4 38  1  0
  6 39  1  0
  9 40  1  0
 16 41  1  0
 17 42  1  0
 20 43  1  0
 20 44  1  0
 21 45  1  0
 21 46  1  0
 22 47  1  0
 22 48  1  0
 23 49  1  0
 23 50  1  0
 27 51  1  0
 28 52  1  0
M  CHG  2   9  -1  12  -1
M  END
>  <UniqueID>  (49) 
48

>  <SMILES>  (49) 
CC(C)(C)c1cc(C([NH-])=O)c([N-]C(=O)c2ccc(N3CCCCS3(=O)=O)cc2)o1

>  <Energy>  (49) 
89.51144177975968

>  <Genealogy>  (49) 
CC(C)(C)c1cc(C([NH-])=O)c([N-]C(=O)c2ccc(N3CCCCS3(=O)=O)cc2)o1 (protonated)
CC(C)(C)c1cc(C([NH-])=O)c([N-]C(=O)c2ccc(N3CCCCS3(=O)=O)cc2)o1 (3D coordinates assigned)
CC(C)(C)c1cc(C([NH-])=O)c([N-]C(=O)c2ccc(N3CCCCS3(=O)=O)cc2)o1 (nonaromatic ring conformer: 89.51144177975968 kcal/mol)

>  <smiles>  (49) 
CC(C)(C)c1cc(C(N)=O)c(NC(=O)c2ccc(N3CCCCS3(=O)=O)cc2)o1

>  <score_type>  (49) 
oracle

>  <origin>  (49) 
adg

>  <m_score__min__energy>  (49) 
-13.44

>  <m_primary>  (49) 
energy

$$$$
49:0
     RDKit          3D

 43 45  0  0  0  0  0  0  0  0999 V2000
   58.0960   34.5490   46.7250 O   0  0  0  0  0  0  0  0  0  0  0  0
   58.7660   33.6470   46.1550 C   0  0  0  0  0  0  0  0  0  0  0  0
   58.7590   33.5550   44.6590 C   0  0  0  0  0  0  0  0  0  0  0  0
   57.4050   33.0320   44.1680 C   0  0  0  0  0  0  0  0  0  0  0  0
   57.5700   31.9530   43.1910 N   0  0  0  0  0  0  0  0  0  0  0  0
   56.7750   30.4820   43.6850 S   0  0  0  0  0  0  0  0  0  0  0  0
   55.5540   30.8190   44.4940 O   0  0  0  0  0  0  0  0  0  0  0  0
   56.3290   29.7400   42.4570 O   0  0  0  0  0  0  0  0  0  0  0  0
   57.8410   29.4320   44.6210 C   0  0  0  0  0  0  0  0  0  0  0  0
   57.3050   28.4720   45.4930 C   0  0  0  0  0  0  0  0  0  0  0  0
   58.1540   27.6650   46.2570 C   0  0  0  0  0  0  0  0  0  0  0  0
   59.5420   27.8110   46.1520 C   0  0  0  0  0  0  0  0  0  0  0  0
   60.7010   26.7110   47.2000 Br  0  0  0  0  0  0  0  0  0  0  0  0
   60.0790   28.7690   45.2850 C   0  0  0  0  0  0  0  0  0  0  0  0
   59.2310   29.5800   44.5240 C   0  0  0  0  0  0  0  0  0  0  0  0
   59.4820   32.6840   46.9430 N   0  0  0  0  0  0  0  0  0  0  0  0
   58.7400   31.5020   47.4020 C   0  0  0  0  0  0  0  0  0  0  0  0
   59.4520   30.8210   48.5690 C   0  0  0  0  0  0  0  0  0  0  0  0
   60.8840   30.4600   48.1760 C   0  0  0  0  0  0  0  0  0  0  0  0
   61.6260   31.6650   47.6610 C   0  0  0  0  0  0  0  0  0  0  0  0
   63.0270   31.6990   47.7460 C   0  0  0  0  0  0  0  0  0  0  0  0
   63.7360   32.7980   47.2610 C   0  0  0  0  0  0  0  0  0  0  0  0
   63.0550   33.8690   46.6840 C   0  0  0  0  0  0  0  0  0  0  0  0
   61.6630   33.8390   46.5750 C   0  0  0  0  0  0  0  0  0  0  0  0
   60.9300   32.7280   47.0410 C   0  0  0  0  0  0  0  0  0  0  0  0
   58.9395   34.5528   44.2326 H   0  0  0  0  0  0  0  0  0  0  0  0
   59.5499   32.8611   44.3381 H   0  0  0  0  0  0  0  0  0  0  0  0
   56.8352   32.6514   45.0285 H   0  0  0  0  0  0  0  0  0  0  0  0
   56.8703   33.8607   43.6808 H   0  0  0  0  0  0  0  0  0  0  0  0
   56.2145   28.3540   45.5758 H   0  0  0  0  0  0  0  0  0  0  0  0
   57.7305   26.9148   46.9411 H   0  0  0  0  0  0  0  0  0  0  0  0
   61.1698   28.8844   45.2018 H   0  0  0  0  0  0  0  0  0  0  0  0
   59.6563   30.3360   43.8476 H   0  0  0  0  0  0  0  0  0  0  0  0
   57.7358   31.8125   47.7264 H   0  0  0  0  0  0  0  0  0  0  0  0
   58.6749   30.7867   46.5688 H   0  0  0  0  0  0  0  0  0  0  0  0
   59.4731   31.5047   49.4305 H   0  0  0  0  0  0  0  0  0  0  0  0
   58.9096   29.9010   48.8325 H   0  0  0  0  0  0  0  0  0  0  0  0
   61.4095   30.0645   49.0577 H   0  0  0  0  0  0  0  0  0  0  0  0
   60.8468   29.7052   47.3767 H   0  0  0  0  0  0  0  0  0  0  0  0
   63.5684   30.8545   48.1974 H   0  0  0  0  0  0  0  0  0  0  0  0
   64.8334   32.8197   47.3339 H   0  0  0  0  0  0  0  0  0  0  0  0
   63.6156   34.7400   46.3136 H   0  0  0  0  0  0  0  0  0  0  0  0
   61.1335   34.6898   46.1215 H   0  0  0  0  0  0  0  0  0  0  0  0
  1  2  2  0
  2  3  1  0
  3  4  1  0
  4  5  1  0
  5  6  1  0
  6  7  2  0
  6  8  2  0
  6  9  1  0
  9 10  2  0
 10 11  1  0
 11 12  2  0
 12 13  1  0
 12 14  1  0
 14 15  2  0
  2 16  1  0
 16 17  1  0
 17 18  1  0
 18 19  1  0
 19 20  1  0
 20 21  2  0
 21 22  1  0
 22 23  2  0
 23 24  1  0
 24 25  2  0
 15  9  1  0
 25 16  1  0
 25 20  1  0
  3 26  1  0
  3 27  1  0
  4 28  1  0
  4 29  1  0
 10 30  1  0
 11 31  1  0
 14 32  1  0
 15 33  1  0
 17 34  1  0
 17 35  1  0
 18 36  1  0
 18 37  1  0
 19 38  1  0
 19 39  1  0
 21 40  1  0
 22 41  1  0
 23 42  1  0
 24 43  1  0
M  CHG  1   5  -1
M  END
>  <UniqueID>  (50) 
49

>  <SMILES>  (50) 
O=C(CC[N-]S(=O)(=O)c1ccc(Br)cc1)N1CCCc2ccccc21

>  <Energy>  (50) 
48.28175075368441

>  <Genealogy>  (50) 
O=C(CC[N-]S(=O)(=O)c1ccc(Br)cc1)N1CCCc2ccccc21 (protonated)
O=C(CC[N-]S(=O)(=O)c1ccc(Br)cc1)N1CCCc2ccccc21 (3D coordinates assigned)
O=C(CC[N-]S(=O)(=O)c1ccc(Br)cc1)N1CCCc2ccccc21 (nonaromatic ring conformer: 48.28175075368441 kcal/mol)

>  <smiles>  (50) 
O=C(CCNS(=O)(=O)c1ccc(Br)cc1)N1CCCc2ccccc21

>  <score_type>  (50) 
oracle

>  <origin>  (50) 
adg

>  <m_score__min__energy>  (50) 
-10.210000000000001

>  <m_primary>  (50) 
energy

$$$$
50:0
     RDKit          3D

 59 61  0  0  0  0  0  0  0  0999 V2000
   57.7740   32.9450   44.0160 C   0  0  0  0  0  0  0  0  0  0  0  0
   58.4530   33.2850   45.3150 C   0  0  0  0  0  0  0  0  0  0  0  0
   58.8850   34.6030   45.5350 C   0  0  0  0  0  0  0  0  0  0  0  0
   59.5490   34.9440   46.7150 C   0  0  0  0  0  0  0  0  0  0  0  0
   59.7880   33.9760   47.6990 C   0  0  0  0  0  0  0  0  0  0  0  0
   60.5290   34.3480   48.9570 C   0  0  0  0  0  0  0  0  0  0  0  0
   61.9760   34.5160   48.6840 N   0  0  0  0  0  0  0  0  0  0  0  0
   62.5090   33.5090   47.7410 C   0  0  0  0  0  0  0  0  0  0  0  0
   62.5620   32.0910   48.3530 C   0  0  0  0  0  0  0  0  0  0  0  0
   62.5260   32.1200   49.8300 N   0  0  0  0  0  0  0  0  0  0  0  0
   62.9570   30.8270   50.3820 C   0  0  0  0  0  0  0  0  0  0  0  0
   63.3660   33.2110   50.3490 C   0  0  0  0  0  0  0  0  0  0  0  0
   62.7870   34.5770   49.9270 C   0  0  0  0  0  0  0  0  0  0  0  0
   59.3500   32.6600   47.4910 C   0  0  0  0  0  0  0  0  0  0  0  0
   58.6590   32.3130   46.3220 C   0  0  0  0  0  0  0  0  0  0  0  0
   58.2130   30.9590   46.1600 N   0  0  0  0  0  0  0  0  0  0  0  0
   59.1290   29.8730   45.9440 C   0  0  0  0  0  0  0  0  0  0  0  0
   60.3180   30.1210   45.6040 O   0  0  0  0  0  0  0  0  0  0  0  0
   58.6880   28.4660   46.0930 C   0  0  0  0  0  0  0  0  0  0  0  0
   58.6070   27.8650   47.3630 C   0  0  0  0  0  0  0  0  0  0  0  0
   58.2080   26.5320   47.4910 C   0  0  0  0  0  0  0  0  0  0  0  0
   57.8960   25.7720   46.3550 C   0  0  0  0  0  0  0  0  0  0  0  0
   57.4400   24.3480   46.5010 C   0  0  0  0  0  0  0  0  0  0  0  0
   56.0690   24.3330   47.0050 N   0  0  0  0  0  0  0  0  0  0  0  0
   54.9550   24.7140   45.7260 S   0  0  0  0  0  0  0  0  0  0  0  0
   55.5430   24.0890   44.1640 C   0  0  0  0  0  0  0  0  0  0  0  0
   53.6290   24.0780   46.0330 O   0  0  0  0  0  0  0  0  0  0  0  0
   54.7760   26.2040   45.6350 O   0  0  0  0  0  0  0  0  0  0  0  0
   57.9640   26.3700   45.0890 C   0  0  0  0  0  0  0  0  0  0  0  0
   58.3670   27.7010   44.9570 C   0  0  0  0  0  0  0  0  0  0  0  0
   56.8080   32.4613   44.2228 H   0  0  0  0  0  0  0  0  0  0  0  0
   57.6067   33.8657   43.4378 H   0  0  0  0  0  0  0  0  0  0  0  0
   58.4110   32.2595   43.4378 H   0  0  0  0  0  0  0  0  0  0  0  0
   58.6988   35.3728   44.7717 H   0  0  0  0  0  0  0  0  0  0  0  0
   59.8865   35.9790   46.8729 H   0  0  0  0  0  0  0  0  0  0  0  0
   60.1236   35.2926   49.3486 H   0  0  0  0  0  0  0  0  0  0  0  0
   60.4001   33.5418   49.6942 H   0  0  0  0  0  0  0  0  0  0  0  0
   61.8640   33.4844   46.8503 H   0  0  0  0  0  0  0  0  0  0  0  0
   63.5389   33.8015   47.4883 H   0  0  0  0  0  0  0  0  0  0  0  0
   61.6985   31.5152   47.9886 H   0  0  0  0  0  0  0  0  0  0  0  0
   63.5106   31.6258   48.0469 H   0  0  0  0  0  0  0  0  0  0  0  0
   62.9414   30.8739   51.4809 H   0  0  0  0  0  0  0  0  0  0  0  0
   62.2740   30.0359   50.0390 H   0  0  0  0  0  0  0  0  0  0  0  0
   63.9781   30.6039   50.0390 H   0  0  0  0  0  0  0  0  0  0  0  0
   63.3982   33.1537   51.4470 H   0  0  0  0  0  0  0  0  0  0  0  0
   64.3810   33.1091   49.9373 H   0  0  0  0  0  0  0  0  0  0  0  0
   62.1494   34.9519   50.7412 H   0  0  0  0  0  0  0  0  0  0  0  0
   63.6394   35.2426   49.7260 H   0  0  0  0  0  0  0  0  0  0  0  0
   59.5508   31.8925   48.2530 H   0  0  0  0  0  0  0  0  0  0  0  0
   57.1960   30.7970   45.9830 H   0  0  0  0  0  0  0  0  0  0  0  0
   58.8594   28.4484   48.2607 H   0  0  0  0  0  0  0  0  0  0  0  0
   58.1382   26.0760   48.4896 H   0  0  0  0  0  0  0  0  0  0  0  0
   57.4779   23.8472   45.5224 H   0  0  0  0  0  0  0  0  0  0  0  0
   58.0989   23.8189   47.2052 H   0  0  0  0  0  0  0  0  0  0  0  0
   56.2868   23.2984   44.3420 H   0  0  0  0  0  0  0  0  0  0  0  0
   54.6984   23.6760   43.5930 H   0  0  0  0  0  0  0  0  0  0  0  0
   56.0067   24.9069   43.5930 H   0  0  0  0  0  0  0  0  0  0  0  0
   57.6985   25.7878   44.1943 H   0  0  0  0  0  0  0  0  0  0  0  0
   58.4338   28.1544   43.9570 H   0  0  0  0  0  0  0  0  0  0  0  0
  1  2  1  0
  2  3  2  0
  3  4  1  0
  4  5  2  0
  5  6  1  0
  6  7  1  0
  7  8  1  0
  8  9  1  0
  9 10  1  0
 10 11  1  0
 10 12  1  0
 12 13  1  0
  5 14  1  0
 14 15  2  0
 15 16  1  0
 16 17  1  0
 17 18  2  0
 17 19  1  0
 19 20  2  0
 20 21  1  0
 21 22  2  0
 22 23  1  0
 23 24  1  0
 24 25  1  0
 25 26  1  0
 25 27  2  0
 25 28  2  0
 22 29  1  0
 29 30  2  0
 15  2  1  0
 30 19  1  0
 13  7  1  0
  1 31  1  0
  1 32  1  0
  1 33  1  0
  3 34  1  0
  4 35  1  0
  6 36  1  0
  6 37  1  0
  8 38  1  0
  8 39  1  0
  9 40  1  0
  9 41  1  0
 11 42  1  0
 11 43  1  0
 11 44  1  0
 12 45  1  0
 12 46  1  0
 13 47  1  0
 13 48  1  0
 14 49  1  0
 16 50  1  0
 20 51  1  0
 21 52  1  0
 23 53  1  0
 23 54  1  0
 26 55  1  0
 26 56  1  0
 26 57  1  0
 29 58  1  0
 30 59  1  0
M  CHG  1  24  -1
M  END
>  <UniqueID>  (51) 
50

>  <SMILES>  (51) 
Cc1ccc(CN2CCN(C)CC2)cc1NC(=O)c1ccc(C[N-]S(C)(=O)=O)cc1

>  <Energy>  (51) 
71.22612648367463

>  <Genealogy>  (51) 
Cc1ccc(CN2CCN(C)CC2)cc1NC(=O)c1ccc(C[N-]S(C)(=O)=O)cc1 (protonated)
Cc1ccc(CN2CCN(C)CC2)cc1NC(=O)c1ccc(C[N-]S(C)(=O)=O)cc1 (3D coordinates assigned)
Cc1ccc(CN2CCN(C)CC2)cc1NC(=O)c1ccc(C[N-]S(C)(=O)=O)cc1 (nonaromatic ring conformer: 71.22612648367463 kcal/mol)

>  <smiles>  (51) 
Cc1ccc(CN2CCN(C)CC2)cc1NC(=O)c1ccc(CNS(C)(=O)=O)cc1

>  <score_type>  (51) 
oracle

>  <origin>  (51) 
adg

>  <m_score__min__energy>  (51) 
-10.720000000000001

>  <m_primary>  (51) 
energy

$$$$
51:0
     RDKit          3D

 40 43  0  0  0  0  0  0  0  0999 V2000
   57.0220   21.0780   48.0450 O   0  0  0  0  0  0  0  0  0  0  0  0
   56.7550   22.1100   47.3720 C   0  0  0  0  0  0  0  0  0  0  0  0
   55.5770   22.1110   46.4530 C   0  0  0  0  0  0  0  0  0  0  0  0
   56.0440   22.0730   45.0330 C   0  0  0  0  0  0  0  0  0  0  0  0
   56.9700   21.1840   44.5050 C   0  0  0  0  0  0  0  0  0  0  0  0
   57.2730   21.4390   43.1620 C   0  0  0  0  0  0  0  0  0  0  0  0
   56.6000   22.5340   42.6360 C   0  0  0  0  0  0  0  0  0  0  0  0
   55.6290   23.1880   43.8440 S   0  0  0  0  0  0  0  0  0  0  0  0
   57.5700   23.2830   47.4740 N   0  0  0  0  0  0  0  0  0  0  0  0
   57.2510   24.5820   46.9590 C   0  0  0  0  0  0  0  0  0  0  0  0
   55.9250   24.9910   46.7310 C   0  0  0  0  0  0  0  0  0  0  0  0
   55.6660   26.2220   46.2170 N   0  0  0  0  0  0  0  0  0  0  0  0
   56.6620   27.0910   45.9010 C   0  0  0  0  0  0  0  0  0  0  0  0
   56.3610   28.3140   45.3970 N   0  0  0  0  0  0  0  0  0  0  0  0
   57.3390   29.2040   45.0780 C   0  0  0  0  0  0  0  0  0  0  0  0
   56.9760   30.5190   44.5130 C   0  0  0  0  0  0  0  0  0  0  0  0
   56.0910   30.5680   43.6150 O   0  0  0  0  0  0  0  0  0  0  0  0
   57.6250   31.7760   44.9540 C   0  0  0  0  0  0  0  0  0  0  0  0
   57.7850   32.8620   44.0710 C   0  0  0  0  0  0  0  0  0  0  0  0
   58.4180   34.0330   44.4980 C   0  0  0  0  0  0  0  0  0  0  0  0
   58.9030   34.1330   45.8040 C   0  0  0  0  0  0  0  0  0  0  0  0
   58.7640   33.0560   46.6840 C   0  0  0  0  0  0  0  0  0  0  0  0
   58.1330   31.8820   46.2610 C   0  0  0  0  0  0  0  0  0  0  0  0
   58.6450   28.8570   45.2420 N   0  0  0  0  0  0  0  0  0  0  0  0
   59.0020   27.6440   45.7380 C   0  0  0  0  0  0  0  0  0  0  0  0
   60.2230   27.3670   45.8750 O   0  0  0  0  0  0  0  0  0  0  0  0
   58.0070   26.7190   46.0890 C   0  0  0  0  0  0  0  0  0  0  0  0
   58.2940   25.4490   46.6120 C   0  0  0  0  0  0  0  0  0  0  0  0
   54.9540   21.2276   46.6565 H   0  0  0  0  0  0  0  0  0  0  0  0
   54.9878   23.0252   46.6178 H   0  0  0  0  0  0  0  0  0  0  0  0
   57.4198   20.3630   45.0826 H   0  0  0  0  0  0  0  0  0  0  0  0
   57.9781   20.8291   42.5782 H   0  0  0  0  0  0  0  0  0  0  0  0
   56.6870   22.9094   41.6057 H   0  0  0  0  0  0  0  0  0  0  0  0
   55.0937   24.3114   46.9698 H   0  0  0  0  0  0  0  0  0  0  0  0
   57.4097   32.7881   43.0396 H   0  0  0  0  0  0  0  0  0  0  0  0
   58.5344   34.8780   43.8035 H   0  0  0  0  0  0  0  0  0  0  0  0
   59.3939   35.0584   46.1397 H   0  0  0  0  0  0  0  0  0  0  0  0
   59.1515   33.1320   47.7107 H   0  0  0  0  0  0  0  0  0  0  0  0
   58.0332   31.0351   46.9558 H   0  0  0  0  0  0  0  0  0  0  0  0
   59.3391   25.1344   46.7494 H   0  0  0  0  0  0  0  0  0  0  0  0
  1  2  2  0
  2  3  1  0
  3  4  1  0
  4  5  2  0
  5  6  1  0
  6  7  2  0
  7  8  1  0
  2  9  1  0
  9 10  1  0
 10 11  2  0
 11 12  1  0
 12 13  2  0
 13 14  1  0
 14 15  1  0
 15 16  1  0
 16 17  2  0
 16 18  1  0
 18 19  2  0
 19 20  1  0
 20 21  2  0
 21 22  1  0
 22 23  2  0
 15 24  2  0
 24 25  1  0
 25 26  2  0
 25 27  1  0
 27 28  2  0
  8  4  1  0
 28 10  1  0
 27 13  1  0
 23 18  1  0
  3 29  1  0
  3 30  1  0
  5 31  1  0
  6 32  1  0
  7 33  1  0
 11 34  1  0
 19 35  1  0
 20 36  1  0
 21 37  1  0
 22 38  1  0
 23 39  1  0
 28 40  1  0
M  CHG  2   9  -1  14  -1
M  END
>  <UniqueID>  (52) 
51

>  <SMILES>  (52) 
O=C(Cc1cccs1)[N-]c1cnc2[n-]c(C(=O)c3ccccc3)nc(=O)c2c1

>  <Energy>  (52) 
80.90805387985765

>  <Genealogy>  (52) 
O=C(Cc1cccs1)[N-]c1cnc2[n-]c(C(=O)c3ccccc3)nc(=O)c2c1 (protonated)
O=C(Cc1cccs1)[N-]c1cnc2[n-]c(C(=O)c3ccccc3)nc(=O)c2c1 (3D coordinates assigned)
O=C(Cc1cccs1)[N-]c1cnc2[n-]c(C(=O)c3ccccc3)nc(=O)c2c1 (optimized conformer: 80.90805387985765 kcal/mol)

>  <smiles>  (52) 
O=C(Cc1cccs1)Nc1cnc2[nH]c(C(=O)c3ccccc3)nc(=O)c2c1

>  <score_type>  (52) 
oracle

>  <origin>  (52) 
adg

>  <m_score__min__energy>  (52) 
-11.92

>  <m_primary>  (52) 
energy

$$$$
52:0
     RDKit          3D

 47 49  0  0  0  0  0  0  0  0999 V2000
   59.4710   34.9530   45.5530 C   0  0  0  0  0  0  0  0  0  0  0  0
   58.7360   33.6960   45.1950 C   0  0  0  0  0  0  0  0  0  0  0  0
   58.4070   32.7610   46.1890 C   0  0  0  0  0  0  0  0  0  0  0  0
   57.7530   31.5740   45.8510 C   0  0  0  0  0  0  0  0  0  0  0  0
   57.4370   31.2980   44.5140 C   0  0  0  0  0  0  0  0  0  0  0  0
   56.5890   29.8100   44.1000 S   0  0  0  0  0  0  0  0  0  0  0  0
   56.2770   29.8140   42.6310 O   0  0  0  0  0  0  0  0  0  0  0  0
   55.2940   29.7240   44.8620 O   0  0  0  0  0  0  0  0  0  0  0  0
   57.5770   28.4290   44.4690 N   0  0  0  0  0  0  0  0  0  0  0  0
   57.0440   27.7360   45.6410 C   0  0  0  0  0  0  0  0  0  0  0  0
   58.0990   27.6070   46.7070 C   0  0  0  0  0  0  0  0  0  0  0  0
   58.1300   26.5670   47.4210 O   0  0  0  0  0  0  0  0  0  0  0  0
   59.0890   28.6920   46.9540 C   0  0  0  0  0  0  0  0  0  0  0  0
   60.1720   28.9090   46.0800 C   0  0  0  0  0  0  0  0  0  0  0  0
   61.0910   29.9310   46.3280 C   0  0  0  0  0  0  0  0  0  0  0  0
   60.9470   30.7600   47.4480 C   0  0  0  0  0  0  0  0  0  0  0  0
   61.8940   31.8120   47.6890 N   0  0  0  0  0  0  0  0  0  0  0  0
   61.6990   33.1210   47.0640 C   0  0  0  0  0  0  0  0  0  0  0  0
   63.0480   33.8370   46.9490 C   0  0  0  0  0  0  0  0  0  0  0  0
   63.7060   33.8730   48.2020 O   0  0  0  0  0  0  0  0  0  0  0  0
   64.0330   32.5580   48.6130 C   0  0  0  0  0  0  0  0  0  0  0  0
   62.7640   31.7360   48.8640 C   0  0  0  0  0  0  0  0  0  0  0  0
   59.8730   30.5510   48.3300 C   0  0  0  0  0  0  0  0  0  0  0  0
   59.6830   31.5320   49.7760 Cl  0  0  0  0  0  0  0  0  0  0  0  0
   58.9530   29.5260   48.0810 C   0  0  0  0  0  0  0  0  0  0  0  0
   57.7750   32.2250   43.5180 C   0  0  0  0  0  0  0  0  0  0  0  0
   58.4290   33.4130   43.8550 C   0  0  0  0  0  0  0  0  0  0  0  0
   59.5257   35.0466   46.6476 H   0  0  0  0  0  0  0  0  0  0  0  0
   60.4886   34.9139   45.1370 H   0  0  0  0  0  0  0  0  0  0  0  0
   58.9379   35.8206   45.1370 H   0  0  0  0  0  0  0  0  0  0  0  0
   58.6654   32.9640   47.2388 H   0  0  0  0  0  0  0  0  0  0  0  0
   57.4850   30.8531   46.6374 H   0  0  0  0  0  0  0  0  0  0  0  0
   56.1931   28.3063   46.0420 H   0  0  0  0  0  0  0  0  0  0  0  0
   56.7199   26.7289   45.3399 H   0  0  0  0  0  0  0  0  0  0  0  0
   60.2950   28.2681   45.1945 H   0  0  0  0  0  0  0  0  0  0  0  0
   61.9341   30.0861   45.6388 H   0  0  0  0  0  0  0  0  0  0  0  0
   61.2677   32.9879   46.0609 H   0  0  0  0  0  0  0  0  0  0  0  0
   61.0151   33.7235   47.6798 H   0  0  0  0  0  0  0  0  0  0  0  0
   63.6799   33.3017   46.2250 H   0  0  0  0  0  0  0  0  0  0  0  0
   62.8718   34.8696   46.6133 H   0  0  0  0  0  0  0  0  0  0  0  0
   64.6283   32.0716   47.8262 H   0  0  0  0  0  0  0  0  0  0  0  0
   64.6086   32.6134   49.5488 H   0  0  0  0  0  0  0  0  0  0  0  0
   63.0374   30.6870   49.0508 H   0  0  0  0  0  0  0  0  0  0  0  0
   62.2337   32.1378   49.7400 H   0  0  0  0  0  0  0  0  0  0  0  0
   58.1132   29.3698   48.7741 H   0  0  0  0  0  0  0  0  0  0  0  0
   57.5245   32.0164   42.4674 H   0  0  0  0  0  0  0  0  0  0  0  0
   58.7043   34.1293   43.0669 H   0  0  0  0  0  0  0  0  0  0  0  0
  1  2  1  0
  2  3  2  0
  3  4  1  0
  4  5  2  0
  5  6  1  0
  6  7  2  0
  6  8  2  0
  6  9  1  0
  9 10  1  0
 10 11  1  0
 11 12  2  0
 11 13  1  0
 13 14  2  0
 14 15  1  0
 15 16  2  0
 16 17  1  0
 17 18  1  0
 18 19  1  0
 19 20  1  0
 20 21  1  0
 21 22  1  0
 16 23  1  0
 23 24  1  0
 23 25  2  0
  5 26  1  0
 26 27  2  0
 27  2  1  0
 25 13  1  0
 22 17  1  0
  1 28  1  0
  1 29  1  0
  1 30  1  0
  3 31  1  0
  4 32  1  0
 10 33  1  0
 10 34  1  0
 14 35  1  0
 15 36  1  0
 18 37  1  0
 18 38  1  0
 19 39  1  0
 19 40  1  0
 21 41  1  0
 21 42  1  0
 22 43  1  0
 22 44  1  0
 25 45  1  0
 26 46  1  0
 27 47  1  0
M  CHG  1   9  -1
M  END
>  <UniqueID>  (53) 
52

>  <SMILES>  (53) 
Cc1ccc(S(=O)(=O)[N-]CC(=O)c2ccc(N3CCOCC3)c(Cl)c2)cc1

>  <Energy>  (53) 
53.67743378113437

>  <Genealogy>  (53) 
Cc1ccc(S(=O)(=O)[N-]CC(=O)c2ccc(N3CCOCC3)c(Cl)c2)cc1 (protonated)
Cc1ccc(S(=O)(=O)[N-]CC(=O)c2ccc(N3CCOCC3)c(Cl)c2)cc1 (3D coordinates assigned)
Cc1ccc(S(=O)(=O)[N-]CC(=O)c2ccc(N3CCOCC3)c(Cl)c2)cc1 (nonaromatic ring conformer: 53.67743378113437 kcal/mol)

>  <smiles>  (53) 
Cc1ccc(S(=O)(=O)NCC(=O)c2ccc(N3CCOCC3)c(Cl)c2)cc1

>  <score_type>  (53) 
oracle

>  <origin>  (53) 
adg

>  <m_score__min__energy>  (53) 
-10.76

>  <m_primary>  (53) 
energy

$$$$
53:0
     RDKit          3D

 62 65  0  0  0  0  0  0  0  0999 V2000
   59.5510   34.2130   44.5450 O   0  0  0  0  0  0  0  0  0  0  0  0
   58.9710   34.1460   45.6650 C   0  0  0  0  0  0  0  0  0  0  0  0
   59.2830   35.1680   46.7140 C   0  0  0  0  0  0  0  0  0  0  0  0
   59.6580   34.4930   48.0360 C   0  0  0  0  0  0  0  0  0  0  0  0
   60.7420   33.4700   47.8200 C   0  0  0  0  0  0  0  0  0  0  0  0
   62.0270   33.8740   47.4160 C   0  0  0  0  0  0  0  0  0  0  0  0
   63.0320   32.9230   47.2010 C   0  0  0  0  0  0  0  0  0  0  0  0
   62.7600   31.5670   47.3800 C   0  0  0  0  0  0  0  0  0  0  0  0
   61.4810   31.1560   47.7680 C   0  0  0  0  0  0  0  0  0  0  0  0
   60.4750   32.1050   47.9830 C   0  0  0  0  0  0  0  0  0  0  0  0
   57.9710   33.1490   45.9090 N   0  0  0  0  0  0  0  0  0  0  0  0
   57.8500   31.9280   45.1580 C   0  0  0  0  0  0  0  0  0  0  0  0
   56.6700   31.6740   44.4430 C   0  0  0  0  0  0  0  0  0  0  0  0
   56.5100   30.4770   43.7380 C   0  0  0  0  0  0  0  0  0  0  0  0
   57.5150   29.5100   43.7690 C   0  0  0  0  0  0  0  0  0  0  0  0
   58.6870   29.7250   44.5150 C   0  0  0  0  0  0  0  0  0  0  0  0
   59.7430   28.6460   44.5570 C   0  0  0  0  0  0  0  0  0  0  0  0
   59.6290   27.8160   45.7150 O   0  0  0  0  0  0  0  0  0  0  0  0
   58.5850   26.9080   45.9660 C   0  0  0  0  0  0  0  0  0  0  0  0
   58.9180   25.6240   46.4070 C   0  0  0  0  0  0  0  0  0  0  0  0
   57.9200   24.7050   46.7320 C   0  0  0  0  0  0  0  0  0  0  0  0
   56.5650   25.0590   46.6350 C   0  0  0  0  0  0  0  0  0  0  0  0
   55.5190   24.0870   47.0260 C   0  0  0  0  0  0  0  0  0  0  0  0
   55.7390   23.2930   47.9820 O   0  0  0  0  0  0  0  0  0  0  0  0
   54.2420   24.0450   46.3710 N   0  0  0  0  0  0  0  0  0  0  0  0
   54.0430   23.8430   44.9380 C   0  0  0  0  0  0  0  0  0  0  0  0
   55.1400   22.9790   44.3780 C   0  0  0  0  0  0  0  0  0  0  0  0
   55.5470   21.8160   45.0550 C   0  0  0  0  0  0  0  0  0  0  0  0
   56.5430   21.0000   44.5100 C   0  0  0  0  0  0  0  0  0  0  0  0
   57.1420   21.3410   43.2930 C   0  0  0  0  0  0  0  0  0  0  0  0
   56.7410   22.4910   42.6110 C   0  0  0  0  0  0  0  0  0  0  0  0
   55.7400   23.3070   43.1460 C   0  0  0  0  0  0  0  0  0  0  0  0
   56.2240   26.3320   46.1450 C   0  0  0  0  0  0  0  0  0  0  0  0
   54.8900   26.7050   46.0080 O   0  0  0  0  0  0  0  0  0  0  0  0
   57.2280   27.2500   45.8110 C   0  0  0  0  0  0  0  0  0  0  0  0
   58.8600   30.9510   45.1840 C   0  0  0  0  0  0  0  0  0  0  0  0
   60.1255   35.7882   46.3740 H   0  0  0  0  0  0  0  0  0  0  0  0
   58.3906   35.7903   46.8765 H   0  0  0  0  0  0  0  0  0  0  0  0
   60.0166   35.2560   48.7425 H   0  0  0  0  0  0  0  0  0  0  0  0
   58.7689   33.9875   48.4408 H   0  0  0  0  0  0  0  0  0  0  0  0
   62.2437   34.9423   47.2682 H   0  0  0  0  0  0  0  0  0  0  0  0
   64.0368   33.2457   46.8907 H   0  0  0  0  0  0  0  0  0  0  0  0
   63.5514   30.8209   47.2160 H   0  0  0  0  0  0  0  0  0  0  0  0
   61.2654   30.0860   47.9044 H   0  0  0  0  0  0  0  0  0  0  0  0
   59.4686   31.7767   48.2818 H   0  0  0  0  0  0  0  0  0  0  0  0
   57.2770   33.3260   46.6660 H   0  0  0  0  0  0  0  0  0  0  0  0
   55.8640   32.4226   44.4369 H   0  0  0  0  0  0  0  0  0  0  0  0
   55.5919   30.2979   43.1591 H   0  0  0  0  0  0  0  0  0  0  0  0
   57.3896   28.5733   43.2061 H   0  0  0  0  0  0  0  0  0  0  0  0
   59.6411   28.0171   43.6603 H   0  0  0  0  0  0  0  0  0  0  0  0
   60.7253   29.1397   44.5940 H   0  0  0  0  0  0  0  0  0  0  0  0
   59.9756   25.3359   46.4985 H   0  0  0  0  0  0  0  0  0  0  0  0
   58.1971   23.6946   47.0671 H   0  0  0  0  0  0  0  0  0  0  0  0
   53.0729   23.3519   44.7715 H   0  0  0  0  0  0  0  0  0  0  0  0
   54.0613   24.8195   44.4318 H   0  0  0  0  0  0  0  0  0  0  0  0
   55.0812   21.5477   46.0147 H   0  0  0  0  0  0  0  0  0  0  0  0
   56.8561   20.0880   45.0394 H   0  0  0  0  0  0  0  0  0  0  0  0
   57.9315   20.7010   42.8720 H   0  0  0  0  0  0  0  0  0  0  0  0
   57.2125   22.7550   41.6529 H   0  0  0  0  0  0  0  0  0  0  0  0
   55.4195   24.2085   42.6032 H   0  0  0  0  0  0  0  0  0  0  0  0
   56.9548   28.2434   45.4256 H   0  0  0  0  0  0  0  0  0  0  0  0
   59.7936   31.1463   45.7319 H   0  0  0  0  0  0  0  0  0  0  0  0
  1  2  2  0
  2  3  1  0
  3  4  1  0
  4  5  1  0
  5  6  2  0
  6  7  1  0
  7  8  2  0
  8  9  1  0
  9 10  2  0
  2 11  1  0
 11 12  1  0
 12 13  2  0
 13 14  1  0
 14 15  2  0
 15 16  1  0
 16 17  1  0
 17 18  1  0
 18 19  1  0
 19 20  2  0
 20 21  1  0
 21 22  2  0
 22 23  1  0
 23 24  2  0
 23 25  1  0
 25 26  1  0
 26 27  1  0
 27 28  2  0
 28 29  1  0
 29 30  2  0
 30 31  1  0
 31 32  2  0
 22 33  1  0
 33 34  1  0
 33 35  2  0
 16 36  2  0
 10  5  1  0
 36 12  1  0
 35 19  1  0
 32 27  1  0
  3 37  1  0
  3 38  1  0
  4 39  1  0
  4 40  1  0
  6 41  1  0
  7 42  1  0
  8 43  1  0
  9 44  1  0
 10 45  1  0
 11 46  1  0
 13 47  1  0
 14 48  1  0
 15 49  1  0
 17 50  1  0
 17 51  1  0
 20 52  1  0
 21 53  1  0
 26 54  1  0
 26 55  1  0
 28 56  1  0
 29 57  1  0
 30 58  1  0
 31 59  1  0
 32 60  1  0
 35 61  1  0
 36 62  1  0
M  CHG  2  25  -1  34  -1
M  END
>  <UniqueID>  (54) 
53

>  <SMILES>  (54) 
O=C(CCc1ccccc1)Nc1cccc(COc2ccc(C(=O)[N-]Cc3ccccc3)c([O-])c2)c1

>  <Energy>  (54) 
69.4753285698176

>  <Genealogy>  (54) 
O=C(CCc1ccccc1)Nc1cccc(COc2ccc(C(=O)[N-]Cc3ccccc3)c([O-])c2)c1 (protonated)
O=C(CCc1ccccc1)Nc1cccc(COc2ccc(C(=O)[N-]Cc3ccccc3)c([O-])c2)c1 (3D coordinates assigned)
O=C(CCc1ccccc1)Nc1cccc(COc2ccc(C(=O)[N-]Cc3ccccc3)c([O-])c2)c1 (optimized conformer: 69.4753285698176 kcal/mol)

>  <smiles>  (54) 
O=C(CCc1ccccc1)Nc1cccc(COc2ccc(C(=O)NCc3ccccc3)c(O)c2)c1

>  <score_type>  (54) 
oracle

>  <origin>  (54) 
adg

>  <m_score__min__energy>  (54) 
-15.369999999999999

>  <m_primary>  (54) 
energy

$$$$
54:0
     RDKit          3D

 58 61  0  0  0  0  0  0  0  0999 V2000
   50.8770   23.9280   44.5380 C   0  0  0  0  0  0  0  0  0  0  0  0
   52.1110   23.5500   45.3030 C   0  0  0  0  0  0  0  0  0  0  0  0
   52.0210   22.6970   46.4120 C   0  0  0  0  0  0  0  0  0  0  0  0
   53.1670   22.3650   47.1380 C   0  0  0  0  0  0  0  0  0  0  0  0
   54.4070   22.8990   46.7760 C   0  0  0  0  0  0  0  0  0  0  0  0
   54.5080   23.7870   45.6900 C   0  0  0  0  0  0  0  0  0  0  0  0
   55.7740   24.3380   45.2870 N   0  0  0  0  0  0  0  0  0  0  0  0
   56.2470   25.6360   45.6830 C   0  0  0  0  0  0  0  0  0  0  0  0
   55.4320   26.5230   46.0480 O   0  0  0  0  0  0  0  0  0  0  0  0
   57.6350   25.9740   45.5750 N   0  0  0  0  0  0  0  0  0  0  0  0
   58.3520   26.8730   46.4320 C   0  0  0  0  0  0  0  0  0  0  0  0
   59.5860   26.5230   47.0040 C   0  0  0  0  0  0  0  0  0  0  0  0
   60.2440   27.4130   47.8600 C   0  0  0  0  0  0  0  0  0  0  0  0
   59.6670   28.6540   48.1730 C   0  0  0  0  0  0  0  0  0  0  0  0
   60.3420   29.5720   49.0540 N   0  0  0  0  0  0  0  0  0  0  0  0
   61.2270   29.0450   50.0980 C   0  0  0  0  0  0  0  0  0  0  0  0
   60.1130   30.9970   48.9750 C   0  0  0  0  0  0  0  0  0  0  0  0
   60.7990   31.8960   49.8080 C   0  0  0  0  0  0  0  0  0  0  0  0
   60.5380   33.2600   49.6830 C   0  0  0  0  0  0  0  0  0  0  0  0
   59.6450   33.6970   48.7600 N   0  0  0  0  0  0  0  0  0  0  0  0
   58.9990   32.8250   47.9380 C   0  0  0  0  0  0  0  0  0  0  0  0
   58.1260   33.2370   47.0660 N   0  0  0  0  0  0  0  0  0  0  0  0
   58.0050   32.8080   45.6990 C   0  0  0  0  0  0  0  0  0  0  0  0
   58.5530   33.5490   44.6350 C   0  0  0  0  0  0  0  0  0  0  0  0
   58.4390   33.0830   43.3220 C   0  0  0  0  0  0  0  0  0  0  0  0
   57.8010   31.8680   43.0620 C   0  0  0  0  0  0  0  0  0  0  0  0
   57.2860   31.1030   44.1160 C   0  0  0  0  0  0  0  0  0  0  0  0
   56.4820   29.5720   43.7890 S   0  0  0  0  0  0  0  0  0  0  0  0
   55.1470   29.3840   44.8720 N   0  0  0  0  0  0  0  0  0  0  0  0
   57.4490   28.4370   43.9820 O   0  0  0  0  0  0  0  0  0  0  0  0
   55.9860   29.5490   42.3710 O   0  0  0  0  0  0  0  0  0  0  0  0
   57.3950   31.5750   45.4320 C   0  0  0  0  0  0  0  0  0  0  0  0
   59.2350   31.4910   48.0580 N   0  0  0  0  0  0  0  0  0  0  0  0
   58.4230   28.9920   47.6160 C   0  0  0  0  0  0  0  0  0  0  0  0
   57.7680   28.1020   46.7590 C   0  0  0  0  0  0  0  0  0  0  0  0
   53.3550   24.0990   44.9530 C   0  0  0  0  0  0  0  0  0  0  0  0
   50.0698   24.1753   45.2432 H   0  0  0  0  0  0  0  0  0  0  0  0
   51.0913   24.8017   43.9050 H   0  0  0  0  0  0  0  0  0  0  0  0
   50.5652   23.0842   43.9050 H   0  0  0  0  0  0  0  0  0  0  0  0
   51.0447   22.2879   46.7113 H   0  0  0  0  0  0  0  0  0  0  0  0
   53.0936   21.6816   47.9968 H   0  0  0  0  0  0  0  0  0  0  0  0
   55.3083   22.6234   47.3433 H   0  0  0  0  0  0  0  0  0  0  0  0
   56.3500   23.8000   44.6010 H   0  0  0  0  0  0  0  0  0  0  0  0
   60.0370   25.5454   46.7782 H   0  0  0  0  0  0  0  0  0  0  0  0
   61.2186   27.1388   48.2900 H   0  0  0  0  0  0  0  0  0  0  0  0
   60.8139   29.2910   51.0874 H   0  0  0  0  0  0  0  0  0  0  0  0
   61.3059   27.9527   49.9948 H   0  0  0  0  0  0  0  0  0  0  0  0
   62.2249   29.4961   49.9948 H   0  0  0  0  0  0  0  0  0  0  0  0
   61.5288   31.5307   50.5455 H   0  0  0  0  0  0  0  0  0  0  0  0
   61.0558   33.9812   50.3324 H   0  0  0  0  0  0  0  0  0  0  0  0
   59.0724   34.4973   44.8373 H   0  0  0  0  0  0  0  0  0  0  0  0
   58.8526   33.6744   42.4918 H   0  0  0  0  0  0  0  0  0  0  0  0
   57.7027   31.5109   42.0262 H   0  0  0  0  0  0  0  0  0  0  0  0
   55.3970   28.6170   45.5350 H   0  0  0  0  0  0  0  0  0  0  0  0
   56.9982   30.9720   46.2620 H   0  0  0  0  0  0  0  0  0  0  0  0
   57.9616   29.9615   47.8550 H   0  0  0  0  0  0  0  0  0  0  0  0
   56.7872   28.3697   46.3391 H   0  0  0  0  0  0  0  0  0  0  0  0
   53.4267   24.7805   44.0925 H   0  0  0  0  0  0  0  0  0  0  0  0
  1  2  1  0
  2  3  2  0
  3  4  1  0
  4  5  2  0
  5  6  1  0
  6  7  1  0
  7  8  1  0
  8  9  2  0
  8 10  1  0
 10 11  1  0
 11 12  2  0
 12 13  1  0
 13 14  2  0
 14 15  1  0
 15 16  1  0
 15 17  1  0
 17 18  1  0
 18 19  2  0
 19 20  1  0
 20 21  1  0
 21 22  2  3
 22 23  1  0
 23 24  2  0
 24 25  1  0
 25 26  2  0
 26 27  1  0
 27 28  1  0
 28 29  1  0
 28 30  2  0
 28 31  2  0
 27 32  2  0
 21 33  1  0
 14 34  1  0
 34 35  2  0
  6 36  2  0
 36  2  1  0
 35 11  1  0
 33 17  2  0
 32 23  1  0
  1 37  1  0
  1 38  1  0
  1 39  1  0
  3 40  1  0
  4 41  1  0
  5 42  1  0
  7 43  1  0
 12 44  1  0
 13 45  1  0
 16 46  1  0
 16 47  1  0
 16 48  1  0
 18 49  1  0
 19 50  1  0
 24 51  1  0
 25 52  1  0
 26 53  1  0
 29 54  1  0
 32 55  1  0
 34 56  1  0
 35 57  1  0
 36 58  1  0
M  CHG  3  10  -1  20  -1  29  -1
M  END
>  <UniqueID>  (55) 
54

>  <SMILES>  (55) 
Cc1cccc(NC(=O)[N-]c2ccc(N(C)c3cc[n-]c(=Nc4cccc(S([NH-])(=O)=O)c4)n3)cc2)c1

>  <Energy>  (55) 
82.84415694527864

>  <Genealogy>  (55) 
Cc1cccc(NC(=O)[N-]c2ccc(N(C)c3cc[n-]c(=Nc4cccc(S([NH-])(=O)=O)c4)n3)cc2)c1 (protonated)
Cc1cccc(NC(=O)[N-]c2ccc(N(C)c3cc[n-]c(=Nc4cccc(S([NH-])(=O)=O)c4)n3)cc2)c1 (3D coordinates assigned)
Cc1cccc(NC(=O)[N-]c2ccc(N(C)c3cc[n-]c(=Nc4cccc(S([NH-])(=O)=O)c4)n3)cc2)c1 (optimized conformer: 82.84415694527864 kcal/mol)

>  <smiles>  (55) 
Cc1cccc(NC(=O)Nc2ccc(N(C)c3cc[nH]c(=Nc4cccc(S(N)(=O)=O)c4)n3)cc2)c1

>  <score_type>  (55) 
oracle

>  <origin>  (55) 
adg

>  <m_score__min__energy>  (55) 
-15.6

>  <m_primary>  (55) 
energy

$$$$
55:0
     RDKit          3D

 67 71  0  0  0  0  0  0  0  0999 V2000
   56.7620   28.7020   45.1300 C   0  0  0  0  0  0  0  0  0  0  0  0
   57.5220   29.5730   44.2200 N   0  0  0  0  0  0  0  0  0  0  0  0
   56.7540   30.8000   43.8730 C   0  0  0  0  0  0  0  0  0  0  0  0
   57.6060   32.0740   43.8840 C   0  0  0  0  0  0  0  0  0  0  0  0
   58.2810   32.1830   45.1830 N   0  0  0  0  0  0  0  0  0  0  0  0
   58.1690   33.3900   45.9760 C   0  0  0  0  0  0  0  0  0  0  0  0
   57.5930   34.4060   45.4980 O   0  0  0  0  0  0  0  0  0  0  0  0
   58.6490   33.4590   47.3710 C   0  0  0  0  0  0  0  0  0  0  0  0
   59.6940   34.3360   47.6920 C   0  0  0  0  0  0  0  0  0  0  0  0
   60.1990   34.3850   48.9930 C   0  0  0  0  0  0  0  0  0  0  0  0
   59.6610   33.5600   49.9890 C   0  0  0  0  0  0  0  0  0  0  0  0
   60.1690   33.6050   51.2870 O   0  0  0  0  0  0  0  0  0  0  0  0
   58.6030   32.6930   49.6830 C   0  0  0  0  0  0  0  0  0  0  0  0
   58.0720   31.8450   50.7090 N   0  0  0  0  0  0  0  0  0  0  0  0
   58.3950   30.4630   50.9190 C   0  0  0  0  0  0  0  0  0  0  0  0
   57.4700   29.6840   51.2760 O   0  0  0  0  0  0  0  0  0  0  0  0
   59.7850   29.9020   50.6220 C   0  0  1  0  0  0  0  0  0  0  0  0
   59.7390   28.8550   49.5230 C   0  0  0  0  0  0  0  0  0  0  0  0
   58.7680   28.9350   48.5060 C   0  0  0  0  0  0  0  0  0  0  0  0
   58.7210   27.9710   47.4940 C   0  0  0  0  0  0  0  0  0  0  0  0
   59.6460   26.9260   47.4800 C   0  0  0  0  0  0  0  0  0  0  0  0
   60.6250   26.8440   48.4730 C   0  0  0  0  0  0  0  0  0  0  0  0
   60.6760   27.8030   49.4890 C   0  0  0  0  0  0  0  0  0  0  0  0
   60.8200   30.9240   50.2800 N   0  0  0  0  0  0  0  0  0  0  0  0
   62.0530   30.8970   51.0940 C   0  0  0  0  0  0  0  0  0  0  0  0
   62.8200   32.2070   50.9060 C   0  0  0  0  0  0  0  0  0  0  0  0
   63.0040   32.5330   49.4490 C   0  0  0  0  0  0  0  0  0  0  0  0
   63.9790   33.4690   49.0680 C   0  0  0  0  0  0  0  0  0  0  0  0
   64.1300   33.8230   47.7250 C   0  0  0  0  0  0  0  0  0  0  0  0
   63.3040   33.2540   46.7540 C   0  0  0  0  0  0  0  0  0  0  0  0
   62.3220   32.3330   47.1220 C   0  0  0  0  0  0  0  0  0  0  0  0
   62.1530   31.9790   48.4710 C   0  0  0  0  0  0  0  0  0  0  0  0
   61.1370   30.9250   48.8350 C   0  0  0  0  0  0  0  0  0  0  0  0
   58.1260   32.6160   48.3630 C   0  0  0  0  0  0  0  0  0  0  0  0
   58.9640   30.9930   45.7100 C   0  0  0  0  0  0  0  0  0  0  0  0
   58.8930   29.8150   44.7250 C   0  0  0  0  0  0  0  0  0  0  0  0
   56.9943   28.9683   46.1717 H   0  0  0  0  0  0  0  0  0  0  0  0
   55.6850   28.8337   44.9494 H   0  0  0  0  0  0  0  0  0  0  0  0
   57.0384   27.6527   44.9494 H   0  0  0  0  0  0  0  0  0  0  0  0
   56.3297   30.6728   42.8661 H   0  0  0  0  0  0  0  0  0  0  0  0
   55.9749   30.9234   44.6396 H   0  0  0  0  0  0  0  0  0  0  0  0
   58.3562   32.0235   43.0811 H   0  0  0  0  0  0  0  0  0  0  0  0
   56.9646   32.9529   43.7222 H   0  0  0  0  0  0  0  0  0  0  0  0
   60.1185   34.9890   46.9152 H   0  0  0  0  0  0  0  0  0  0  0  0
   61.0217   35.0735   49.2364 H   0  0  0  0  0  0  0  0  0  0  0  0
   60.3210   32.7590   51.8260 H   0  0  0  0  0  0  0  0  0  0  0  0
   60.0956   29.4477   51.5744 H   0  0  0  0  0  0  0  0  0  0  0  0
   58.0418   29.7612   48.5077 H   0  0  0  0  0  0  0  0  0  0  0  0
   57.9541   28.0364   46.7081 H   0  0  0  0  0  0  0  0  0  0  0  0
   59.6040   26.1659   46.6859 H   0  0  0  0  0  0  0  0  0  0  0  0
   61.3572   26.0233   48.4555 H   0  0  0  0  0  0  0  0  0  0  0  0
   61.4517   27.7360   50.2660 H   0  0  0  0  0  0  0  0  0  0  0  0
   61.7888   30.7764   52.1550 H   0  0  0  0  0  0  0  0  0  0  0  0
   62.6840   30.0548   50.7739 H   0  0  0  0  0  0  0  0  0  0  0  0
   62.2590   33.0220   51.3867 H   0  0  0  0  0  0  0  0  0  0  0  0
   63.8142   32.0939   51.3629 H   0  0  0  0  0  0  0  0  0  0  0  0
   64.6270   33.9257   49.8306 H   0  0  0  0  0  0  0  0  0  0  0  0
   64.9008   34.5511   47.4323 H   0  0  0  0  0  0  0  0  0  0  0  0
   63.4273   33.5320   45.6969 H   0  0  0  0  0  0  0  0  0  0  0  0
   61.6777   31.8825   46.3526 H   0  0  0  0  0  0  0  0  0  0  0  0
   60.2124   31.1154   48.2704 H   0  0  0  0  0  0  0  0  0  0  0  0
   61.5666   29.9438   48.5847 H   0  0  0  0  0  0  0  0  0  0  0  0
   57.3390   31.8914   48.1066 H   0  0  0  0  0  0  0  0  0  0  0  0
   60.0198   31.2403   45.8948 H   0  0  0  0  0  0  0  0  0  0  0  0
   58.4612   30.6927   46.6411 H   0  0  0  0  0  0  0  0  0  0  0  0
   59.5498   30.0317   43.8696 H   0  0  0  0  0  0  0  0  0  0  0  0
   59.2122   28.9113   45.2649 H   0  0  0  0  0  0  0  0  0  0  0  0
  1  2  1  0
  2  3  1  0
  3  4  1  0
  4  5  1  0
  5  6  1  0
  6  7  2  0
  6  8  1  0
  8  9  2  0
  9 10  1  0
 10 11  2  0
 11 12  1  0
 11 13  1  0
 13 14  1  0
 14 15  1  0
 15 16  2  0
 15 17  1  0
 17 18  1  0
 18 19  2  0
 19 20  1  0
 20 21  2  0
 21 22  1  0
 22 23  2  0
 17 24  1  0
 24 25  1  0
 25 26  1  0
 26 27  1  0
 27 28  2  0
 28 29  1  0
 29 30  2  0
 30 31  1  0
 31 32  2  0
 32 33  1  0
 13 34  2  0
  5 35  1  0
 35 36  1  0
 36  2  1  0
 34  8  1  0
 23 18  1  0
 33 24  1  0
 32 27  1  0
  1 37  1  0
  1 38  1  0
  1 39  1  0
  3 40  1  0
  3 41  1  0
  4 42  1  0
  4 43  1  0
  9 44  1  0
 10 45  1  0
 12 46  1  0
 17 47  1  1
 19 48  1  0
 20 49  1  0
 21 50  1  0
 22 51  1  0
 23 52  1  0
 25 53  1  0
 25 54  1  0
 26 55  1  0
 26 56  1  0
 28 57  1  0
 29 58  1  0
 30 59  1  0
 31 60  1  0
 33 61  1  0
 33 62  1  0
 34 63  1  0
 35 64  1  0
 35 65  1  0
 36 66  1  0
 36 67  1  0
M  CHG  1  14  -1
M  END
>  <UniqueID>  (56) 
55

>  <SMILES>  (56) 
CN1CCN(C(=O)c2ccc(O)c([N-]C(=O)[C@@H](c3ccccc3)N3CCc4ccccc4C3)c2)CC1

>  <Energy>  (56) 
99.90473553841986

>  <Genealogy>  (56) 
CN1CCN(C(=O)c2ccc(O)c([N-]C(=O)C(c3ccccc3)N3CCc4ccccc4C3)c2)CC1 (protonated)
CN1CCN(C(=O)c2ccc(O)c([N-]C(=O)[C@@H](c3ccccc3)N3CCc4ccccc4C3)c2)CC1 (chirality)
CN1CCN(C(=O)c2ccc(O)c([N-]C(=O)[C@@H](c3ccccc3)N3CCc4ccccc4C3)c2)CC1 (3D coordinates assigned)
CN1CCN(C(=O)c2ccc(O)c([N-]C(=O)[C@@H](c3ccccc3)N3CCc4ccccc4C3)c2)CC1 (nonaromatic ring conformer: 99.90473553841986 kcal/mol)

>  <smiles>  (56) 
CN1CCN(C(=O)c2ccc(O)c(NC(=O)C(c3ccccc3)N3CCc4ccccc4C3)c2)CC1

>  <score_type>  (56) 
oracle

>  <origin>  (56) 
adg

>  <m_score__min__energy>  (56) 
-12.25

>  <m_primary>  (56) 
energy

$$$$
56:0
     RDKit          3D

 54 57  0  0  0  0  0  0  0  0999 V2000
   54.3520   26.6860   46.7470 H   0  0  0  0  0  0  0  0  0  0  0  0
   55.1530   26.5330   46.1480 O   0  0  0  0  0  0  0  0  0  0  0  0
   56.1440   25.6250   46.5090 C   0  0  0  0  0  0  0  0  0  0  0  0
   55.8990   24.4550   47.1230 N   0  0  0  0  0  0  0  0  0  0  0  0
   57.1260   23.9010   47.2080 C   0  0  0  0  0  0  0  0  0  0  0  0
   57.3260   22.7730   47.7280 O   0  0  0  0  0  0  0  0  0  0  0  0
   58.1230   24.6460   46.6830 N   0  0  0  0  0  0  0  0  0  0  0  0
   57.4940   25.7560   46.2600 C   0  0  0  0  0  0  0  0  0  0  0  0
   58.1780   26.8500   45.5480 C   0  0  0  0  0  0  0  0  0  0  0  0
   58.3183   26.7514   44.4614 H   0  0  0  0  0  0  0  0  0  0  0  0
   58.6420   27.9640   46.1480 C   0  0  0  0  0  0  0  0  0  0  0  0
   58.3420   28.3820   47.4320 C   0  0  0  0  0  0  0  0  0  0  0  0
   57.6258   27.9111   48.1214 H   0  0  0  0  0  0  0  0  0  0  0  0
   59.1120   29.5040   47.6870 C   0  0  0  0  0  0  0  0  0  0  0  0
   59.2170   30.1530   49.0220 C   0  0  0  0  0  0  0  0  0  0  0  0
   58.1700   30.4540   49.6550 O   0  0  0  0  0  0  0  0  0  0  0  0
   60.5710   30.5270   49.5990 C   0  0  1  0  0  0  0  0  0  0  0  0
   61.2704   29.7565   49.2424 H   0  0  0  0  0  0  0  0  0  0  0  0
   61.0610   31.8290   49.0800 N   0  0  0  0  0  0  0  0  0  0  0  0
   59.9520   33.1780   49.3000 S   0  0  0  0  0  0  0  0  0  0  0  0
   58.9010   32.8490   50.3220 O   0  0  0  0  0  0  0  0  0  0  0  0
   60.6790   34.4160   49.7470 O   0  0  0  0  0  0  0  0  0  0  0  0
   59.1980   33.5450   47.7500 C   0  0  0  0  0  0  0  0  0  0  0  0
   57.9760   32.9580   47.3830 C   0  0  0  0  0  0  0  0  0  0  0  0
   57.4531   32.2924   48.0855 H   0  0  0  0  0  0  0  0  0  0  0  0
   57.4240   33.2190   46.1260 C   0  0  0  0  0  0  0  0  0  0  0  0
   56.4677   32.7567   45.8401 H   0  0  0  0  0  0  0  0  0  0  0  0
   58.0840   34.0660   45.2310 C   0  0  0  0  0  0  0  0  0  0  0  0
   57.6513   34.2636   44.2392 H   0  0  0  0  0  0  0  0  0  0  0  0
   59.2930   34.6610   45.5970 C   0  0  0  0  0  0  0  0  0  0  0  0
   59.8094   35.3322   44.8950 H   0  0  0  0  0  0  0  0  0  0  0  0
   59.8480   34.4050   46.8540 C   0  0  0  0  0  0  0  0  0  0  0  0
   60.7978   34.8799   47.1410 H   0  0  0  0  0  0  0  0  0  0  0  0
   62.4610   32.1350   49.4730 C   0  0  0  0  0  0  0  0  0  0  0  0
   62.5408   33.2174   49.6522 H   0  0  0  0  0  0  0  0  0  0  0  0
   63.1039   31.7922   48.6489 H   0  0  0  0  0  0  0  0  0  0  0  0
   62.9340   31.3980   50.7420 C   0  0  0  0  0  0  0  0  0  0  0  0
   63.7509   31.9693   51.2071 H   0  0  0  0  0  0  0  0  0  0  0  0
   63.2816   30.3941   50.4569 H   0  0  0  0  0  0  0  0  0  0  0  0
   61.7930   31.2530   51.7430 C   0  0  0  0  0  0  0  0  0  0  0  0
   61.4328   32.2541   52.0225 H   0  0  0  0  0  0  0  0  0  0  0  0
   62.1719   30.7142   52.6240 H   0  0  0  0  0  0  0  0  0  0  0  0
   60.6250   30.4490   51.1500 C   0  0  0  0  0  0  0  0  0  0  0  0
   59.6826   30.8458   51.5555 H   0  0  0  0  0  0  0  0  0  0  0  0
   60.7735   29.3944   51.4251 H   0  0  0  0  0  0  0  0  0  0  0  0
   59.8420   29.8230   46.5870 N   0  0  0  0  0  0  0  0  0  0  0  0
   60.7630   30.9610   46.4560 C   0  0  0  0  0  0  0  0  0  0  0  0
   61.0509   31.3167   47.4563 H   0  0  0  0  0  0  0  0  0  0  0  0
   61.6618   30.6439   45.9068 H   0  0  0  0  0  0  0  0  0  0  0  0
   60.2655   31.7740   45.9068 H   0  0  0  0  0  0  0  0  0  0  0  0
   59.5910   28.8640   45.6540 C   0  0  0  0  0  0  0  0  0  0  0  0
   60.2000   28.7870   44.4590 C   0  0  0  0  0  0  0  0  0  0  0  0
   60.9351   29.5511   44.1661 H   0  0  0  0  0  0  0  0  0  0  0  0
   59.9635   27.9599   43.7735 H   0  0  0  0  0  0  0  0  0  0  0  0
  1  2  1  0
  2  3  1  0
  3  4  1  0
  4  5  1  0
  5  6  2  0
  5  7  1  0
  7  8  1  0
  8  9  1  0
  9 10  1  0
  9 11  2  0
 11 12  1  0
 12 13  1  0
 12 14  2  0
 14 15  1  0
 15 16  2  0
 15 17  1  0
 17 18  1  6
 17 19  1  0
 19 20  1  0
 20 21  2  0
 20 22  2  0
 20 23  1  0
 23 24  2  0
 24 25  1  0
 24 26  1  0
 26 27  1  0
 26 28  2  0
 28 29  1  0
 28 30  1  0
 30 31  1  0
 30 32  2  0
 32 33  1  0
 19 34  1  0
 34 35  1  0
 34 36  1  0
 34 37  1  0
 37 38  1  0
 37 39  1  0
 37 40  1  0
 40 41  1  0
 40 42  1  0
 40 43  1  0
 43 44  1  0
 43 45  1  0
 14 46  1  0
 46 47  1  0
 47 48  1  0
 47 49  1  0
 47 50  1  0
 46 51  1  0
 51 52  2  0
 52 53  1  0
 52 54  1  0
  8  3  2  0
 51 11  1  0
 43 17  1  0
 32 23  1  0
M  CHG  2   4  -1   7  -1
M  END
>  <UniqueID>  (57) 
56

>  <SMILES>  (57) 
C=c1/c(=C/c2[n-]c(=O)[n-]c2O)cc(C(=O)[C@@H]2CCCCN2S(=O)(=O)c2ccccc2)n1C

>  <Energy>  (57) 
131.5117091267154

>  <Genealogy>  (57) 
C=c1c(=Cc2[n-]c(=O)[n-]c2O)cc(C(=O)C2CCCCN2S(=O)(=O)c2ccccc2)n1C (protonated)
C=c1c(=Cc2[n-]c(=O)[n-]c2O)cc(C(=O)[C@@H]2CCCCN2S(=O)(=O)c2ccccc2)n1C (chirality)
C=c1/c(=C/c2[n-]c(=O)[n-]c2O)cc(C(=O)[C@@H]2CCCCN2S(=O)(=O)c2ccccc2)n1C (cis-trans isomerization)
C=c1/c(=C/c2[n-]c(=O)[n-]c2O)cc(C(=O)[C@@H]2CCCCN2S(=O)(=O)c2ccccc2)n1C (3D coordinates assigned)
C=c1/c(=C/c2[n-]c(=O)[n-]c2O)cc(C(=O)[C@@H]2CCCCN2S(=O)(=O)c2ccccc2)n1C (nonaromatic ring conformer: 131.5117091267154 kcal/mol)

>  <smiles>  (57) 
C=c1c(=Cc2[nH]c(=O)[nH]c2O)cc(C(=O)C2CCCCN2S(=O)(=O)c2ccccc2)n1C

>  <score_type>  (57) 
oracle

>  <origin>  (57) 
adg

>  <m_score__min__energy>  (57) 
-14.19

>  <m_primary>  (57) 
energy

$$$$
57:0
     RDKit          3D

 20 21  0  0  0  0  0  0  0  0999 V2000
   57.3240   23.6880   46.8580 O   0  0  0  0  0  0  0  0  0  0  0  0
   56.9020   24.8240   46.5030 C   0  0  0  0  0  0  0  0  0  0  0  0
   57.6720   25.8680   46.0260 C   0  0  0  0  0  0  0  0  0  0  0  0
   56.8590   26.9450   45.7430 C   0  0  0  0  0  0  0  0  0  0  0  0
   57.3350   28.2180   45.2210 C   0  0  0  0  0  0  0  0  0  0  0  0
   58.7030   28.4840   45.1130 C   0  0  0  0  0  0  0  0  0  0  0  0
   59.1840   29.6780   44.6250 C   0  0  0  0  0  0  0  0  0  0  0  0
   58.3210   30.6740   44.2160 C   0  0  0  0  0  0  0  0  0  0  0  0
   56.9640   30.4400   44.3110 C   0  0  0  0  0  0  0  0  0  0  0  0
   56.4990   29.2310   44.8060 C   0  0  0  0  0  0  0  0  0  0  0  0
   55.1640   29.0750   44.8700 F   0  0  0  0  0  0  0  0  0  0  0  0
   55.6150   26.5420   46.0500 N   0  0  0  0  0  0  0  0  0  0  0  0
   55.6360   25.2960   46.4970 N   0  0  0  0  0  0  0  0  0  0  0  0
   58.7636   25.8434   45.8929 H   0  0  0  0  0  0  0  0  0  0  0  0
   59.4203   27.7123   45.4290 H   0  0  0  0  0  0  0  0  0  0  0  0
   60.2701   29.8401   44.5603 H   0  0  0  0  0  0  0  0  0  0  0  0
   58.7039   31.6282   43.8250 H   0  0  0  0  0  0  0  0  0  0  0  0
   56.2500   31.2141   43.9934 H   0  0  0  0  0  0  0  0  0  0  0  0
   54.7570   27.0950   45.9620 H   0  0  0  0  0  0  0  0  0  0  0  0
   54.7900   24.7340   46.8090 H   0  0  0  0  0  0  0  0  0  0  0  0
  1  2  2  0
  2  3  1  0
  3  4  2  0
  4  5  1  0
  5  6  2  0
  6  7  1  0
  7  8  2  0
  8  9  1  0
  9 10  2  0
 10 11  1  0
  4 12  1  0
 12 13  1  0
 13  2  1  0
 10  5  1  0
  3 14  1  0
  6 15  1  0
  7 16  1  0
  8 17  1  0
  9 18  1  0
 12 19  1  0
 13 20  1  0
M  END
>  <smiles>  (58) 
O=c1cc(-c2ccccc2F)[nH][nH]1

>  <score_type>  (58) 
oracle

>  <origin>  (58) 
adg

>  <m_score__min__energy>  (58) 
-5.9000000000000004

>  <m_primary>  (58) 
energy

$$$$
58:0
     RDKit          3D

 54 56  0  0  0  0  0  0  0  0999 V2000
   50.4600   24.8590   43.2740 C   0  0  0  0  0  0  0  0  0  0  0  0
   50.8960   24.6320   44.6440 N   0  0  0  0  0  0  0  0  0  0  0  0
   52.0930   23.9210   44.9670 C   0  0  0  0  0  0  0  0  0  0  0  0
   52.1230   22.6640   44.8780 O   0  0  0  0  0  0  0  0  0  0  0  0
   53.2660   24.6560   45.3440 N   0  0  0  0  0  0  0  0  0  0  0  0
   54.4540   24.0500   45.8820 C   0  0  0  0  0  0  0  0  0  0  0  0
   54.4150   23.2840   47.0590 C   0  0  0  0  0  0  0  0  0  0  0  0
   55.5880   22.7320   47.5800 C   0  0  0  0  0  0  0  0  0  0  0  0
   56.8100   22.9460   46.9380 C   0  0  0  0  0  0  0  0  0  0  0  0
   56.8680   23.7260   45.7740 C   0  0  0  0  0  0  0  0  0  0  0  0
   58.1820   23.9660   45.0800 C   0  0  0  0  0  0  0  0  0  0  0  0
   59.0870   24.7180   45.9400 N   0  0  0  0  0  0  0  0  0  0  0  0
   58.6720   25.8000   46.7840 C   0  0  0  0  0  0  0  0  0  0  0  0
   58.5260   25.6060   48.0220 O   0  0  0  0  0  0  0  0  0  0  0  0
   58.4190   27.1390   46.2050 C   0  0  0  0  0  0  0  0  0  0  0  0
   57.1550   27.4640   45.6800 C   0  0  0  0  0  0  0  0  0  0  0  0
   56.9170   28.7300   45.1340 C   0  0  0  0  0  0  0  0  0  0  0  0
   57.9360   29.6900   45.1060 C   0  0  0  0  0  0  0  0  0  0  0  0
   57.6390   31.2900   44.4220 S   0  0  0  0  0  0  0  0  0  0  0  0
   56.1680   31.5940   44.5080 O   0  0  0  0  0  0  0  0  0  0  0  0
   58.0310   31.2900   42.9680 O   0  0  0  0  0  0  0  0  0  0  0  0
   58.5360   32.5280   45.2670 N   0  0  0  0  0  0  0  0  0  0  0  0
   58.1840   32.5220   46.7020 C   0  0  0  0  0  0  0  0  0  0  0  0
   58.6840   33.7870   47.4370 C   0  0  0  0  0  0  0  0  0  0  0  0
   59.7670   34.5150   46.6380 C   0  0  0  0  0  0  0  0  0  0  0  0
   59.2630   34.8890   45.2320 C   0  0  0  0  0  0  0  0  0  0  0  0
   58.2820   33.8460   44.6650 C   0  0  0  0  0  0  0  0  0  0  0  0
   59.1970   29.3710   45.6240 C   0  0  0  0  0  0  0  0  0  0  0  0
   59.4380   28.1070   46.1680 C   0  0  0  0  0  0  0  0  0  0  0  0
   55.6870   24.2780   45.2530 C   0  0  0  0  0  0  0  0  0  0  0  0
   49.4843   25.3670   43.2791 H   0  0  0  0  0  0  0  0  0  0  0  0
   51.1978   25.4874   42.7538 H   0  0  0  0  0  0  0  0  0  0  0  0
   50.3683   23.8941   42.7538 H   0  0  0  0  0  0  0  0  0  0  0  0
   53.2820   25.6800   45.1370 H   0  0  0  0  0  0  0  0  0  0  0  0
   53.4566   23.1181   47.5727 H   0  0  0  0  0  0  0  0  0  0  0  0
   55.5491   22.1273   48.4981 H   0  0  0  0  0  0  0  0  0  0  0  0
   57.7294   22.5014   47.3466 H   0  0  0  0  0  0  0  0  0  0  0  0
   58.6412   22.9980   44.8307 H   0  0  0  0  0  0  0  0  0  0  0  0
   57.9983   24.5473   44.1644 H   0  0  0  0  0  0  0  0  0  0  0  0
   56.3476   26.7171   45.6989 H   0  0  0  0  0  0  0  0  0  0  0  0
   55.9250   28.9723   44.7249 H   0  0  0  0  0  0  0  0  0  0  0  0
   57.0895   32.4677   46.7970 H   0  0  0  0  0  0  0  0  0  0  0  0
   58.6724   31.6510   47.1634 H   0  0  0  0  0  0  0  0  0  0  0  0
   57.8349   34.4692   47.5903 H   0  0  0  0  0  0  0  0  0  0  0  0
   59.1182   33.4757   48.3985 H   0  0  0  0  0  0  0  0  0  0  0  0
   60.0521   35.4328   47.1731 H   0  0  0  0  0  0  0  0  0  0  0  0
   60.6323   33.8442   46.5315 H   0  0  0  0  0  0  0  0  0  0  0  0
   58.7522   35.8617   45.2867 H   0  0  0  0  0  0  0  0  0  0  0  0
   60.1347   34.9294   44.5623 H   0  0  0  0  0  0  0  0  0  0  0  0
   57.2512   34.1561   44.8916 H   0  0  0  0  0  0  0  0  0  0  0  0
   58.4230   33.7760   43.5763 H   0  0  0  0  0  0  0  0  0  0  0  0
   60.0025   30.1198   45.6025 H   0  0  0  0  0  0  0  0  0  0  0  0
   60.4331   27.8671   46.5707 H   0  0  0  0  0  0  0  0  0  0  0  0
   55.7289   24.8949   44.3432 H   0  0  0  0  0  0  0  0  0  0  0  0
  1  2  1  0
  2  3  1  0
  3  4  2  0
  3  5  1  0
  5  6  1  0
  6  7  2  0
  7  8  1  0
  8  9  2  0
  9 10  1  0
 10 11  1  0
 11 12  1  0
 12 13  1  0
 13 14  2  0
 13 15  1  0
 15 16  2  0
 16 17  1  0
 17 18  2  0
 18 19  1  0
 19 20  2  0
 19 21  2  0
 19 22  1  0
 22 23  1  0
 23 24  1  0
 24 25  1  0
 25 26  1  0
 26 27  1  0
 18 28  1  0
 28 29  2  0
 10 30  2  0
 30  6  1  0
 29 15  1  0
 27 22  1  0
  1 31  1  0
  1 32  1  0
  1 33  1  0
  5 34  1  0
  7 35  1  0
  8 36  1  0
  9 37  1  0
 11 38  1  0
 11 39  1  0
 16 40  1  0
 17 41  1  0
 23 42  1  0
 23 43  1  0
 24 44  1  0
 24 45  1  0
 25 46  1  0
 25 47  1  0
 26 48  1  0
 26 49  1  0
 27 50  1  0
 27 51  1  0
 28 52  1  0
 29 53  1  0
 30 54  1  0
M  CHG  2   2  -1  12  -1
M  END
>  <UniqueID>  (59) 
57

>  <SMILES>  (59) 
C[N-]C(=O)Nc1cccc(C[N-]C(=O)c2ccc(S(=O)(=O)N3CCCCC3)cc2)c1

>  <Energy>  (59) 
56.29944835048834

>  <Genealogy>  (59) 
C[N-]C(=O)Nc1cccc(C[N-]C(=O)c2ccc(S(=O)(=O)N3CCCCC3)cc2)c1 (protonated)
C[N-]C(=O)Nc1cccc(C[N-]C(=O)c2ccc(S(=O)(=O)N3CCCCC3)cc2)c1 (3D coordinates assigned)
C[N-]C(=O)Nc1cccc(C[N-]C(=O)c2ccc(S(=O)(=O)N3CCCCC3)cc2)c1 (nonaromatic ring conformer: 56.29944835048834 kcal/mol)

>  <smiles>  (59) 
CNC(=O)Nc1cccc(CNC(=O)c2ccc(S(=O)(=O)N3CCCCC3)cc2)c1

>  <score_type>  (59) 
oracle

>  <origin>  (59) 
adg

>  <m_score__min__energy>  (59) 
-12.91

>  <m_primary>  (59) 
energy

$$$$
59:0
     RDKit          3D

 44 45  0  0  0  0  0  0  0  0999 V2000
   60.0250   34.1800   49.2540 C   0  0  0  0  0  0  0  0  0  0  0  0
   59.4440   33.1550   50.2210 C   0  0  0  0  0  0  0  0  0  0  0  0
   60.4310   32.1930   50.5870 O   0  0  0  0  0  0  0  0  0  0  0  0
   60.2210   30.8090   50.5320 C   0  0  0  0  0  0  0  0  0  0  0  0
   59.9770   30.1640   51.5900 O   0  0  0  0  0  0  0  0  0  0  0  0
   60.2820   30.1290   49.2650 N   0  0  0  0  0  0  0  0  0  0  0  0
   60.0030   28.6890   49.1670 C   0  0  0  0  0  0  0  0  0  0  0  0
   59.2230   28.3860   47.8850 C   0  0  0  0  0  0  0  0  0  0  0  0
   59.8350   29.0240   46.7060 N   0  0  0  0  0  0  0  0  0  0  0  0
   59.4260   28.6320   45.3760 C   0  0  0  0  0  0  0  0  0  0  0  0
   60.1680   28.8940   44.3900 O   0  0  0  0  0  0  0  0  0  0  0  0
   58.1540   27.8610   45.1490 C   0  0  0  0  0  0  0  0  0  0  0  0
   57.0020   28.6290   45.6170 N   0  0  0  0  0  0  0  0  0  0  0  0
   56.6230   29.8790   44.4710 S   0  0  0  0  0  0  0  0  0  0  0  0
   55.1370   30.1010   44.4330 O   0  0  0  0  0  0  0  0  0  0  0  0
   57.0750   29.4460   43.1040 O   0  0  0  0  0  0  0  0  0  0  0  0
   57.4480   31.3750   44.9020 C   0  0  0  0  0  0  0  0  0  0  0  0
   57.8220   31.6250   46.2310 C   0  0  0  0  0  0  0  0  0  0  0  0
   58.4980   32.8030   46.5620 C   0  0  0  0  0  0  0  0  0  0  0  0
   58.8080   33.7360   45.5660 C   0  0  0  0  0  0  0  0  0  0  0  0
   59.6590   35.2130   45.9820 Cl  0  0  0  0  0  0  0  0  0  0  0  0
   58.4430   33.4880   44.2380 C   0  0  0  0  0  0  0  0  0  0  0  0
   57.7670   32.3100   43.9070 C   0  0  0  0  0  0  0  0  0  0  0  0
   60.9630   29.9520   46.8790 C   0  0  0  0  0  0  0  0  0  0  0  0
   60.7220   30.8740   48.0780 C   0  0  0  0  0  0  0  0  0  0  0  0
   60.4892   34.9990   49.8230 H   0  0  0  0  0  0  0  0  0  0  0  0
   60.7839   33.6975   48.6205 H   0  0  0  0  0  0  0  0  0  0  0  0
   59.2212   34.5833   48.6205 H   0  0  0  0  0  0  0  0  0  0  0  0
   59.0901   33.6715   51.1254 H   0  0  0  0  0  0  0  0  0  0  0  0
   58.6093   32.6358   49.7274 H   0  0  0  0  0  0  0  0  0  0  0  0
   60.9533   28.1352   49.1533 H   0  0  0  0  0  0  0  0  0  0  0  0
   59.4004   28.3810   50.0342 H   0  0  0  0  0  0  0  0  0  0  0  0
   59.2028   27.2972   47.7299 H   0  0  0  0  0  0  0  0  0  0  0  0
   58.2060   28.7888   48.0013 H   0  0  0  0  0  0  0  0  0  0  0  0
   58.0409   27.6568   44.0740 H   0  0  0  0  0  0  0  0  0  0  0  0
   58.2046   26.9162   45.7101 H   0  0  0  0  0  0  0  0  0  0  0  0
   57.5825   30.8916   47.0151 H   0  0  0  0  0  0  0  0  0  0  0  0
   58.7864   32.9967   47.6057 H   0  0  0  0  0  0  0  0  0  0  0  0
   58.6881   34.2201   43.4544 H   0  0  0  0  0  0  0  0  0  0  0  0
   57.4842   32.1158   42.8619 H   0  0  0  0  0  0  0  0  0  0  0  0
   61.8842   29.3745   47.0462 H   0  0  0  0  0  0  0  0  0  0  0  0
   61.0594   30.5668   45.9720 H   0  0  0  0  0  0  0  0  0  0  0  0
   61.6585   31.3998   48.3156 H   0  0  0  0  0  0  0  0  0  0  0  0
   59.9256   31.5828   47.8071 H   0  0  0  0  0  0  0  0  0  0  0  0
  1  2  1  0
  2  3  1  0
  3  4  1  0
  4  5  2  0
  4  6  1  0
  6  7  1  0
  7  8  1  0
  8  9  1  0
  9 10  1  0
 10 11  2  0
 10 12  1  0
 12 13  1  0
 13 14  1  0
 14 15  2  0
 14 16  2  0
 14 17  1  0
 17 18  2  0
 18 19  1  0
 19 20  2  0
 20 21  1  0
 20 22  1  0
 22 23  2  0
  9 24  1  0
 24 25  1  0
 25  6  1  0
 23 17  1  0
  1 26  1  0
  1 27  1  0
  1 28  1  0
  2 29  1  0
  2 30  1  0
  7 31  1  0
  7 32  1  0
  8 33  1  0
  8 34  1  0
 12 35  1  0
 12 36  1  0
 18 37  1  0
 19 38  1  0
 22 39  1  0
 23 40  1  0
 24 41  1  0
 24 42  1  0
 25 43  1  0
 25 44  1  0
M  CHG  1  13  -1
M  END
>  <UniqueID>  (60) 
58

>  <SMILES>  (60) 
CCOC(=O)N1CCN(C(=O)C[N-]S(=O)(=O)c2ccc(Cl)cc2)CC1

>  <Energy>  (60) 
36.418916379222246

>  <Genealogy>  (60) 
CCOC(=O)N1CCN(C(=O)C[N-]S(=O)(=O)c2ccc(Cl)cc2)CC1 (protonated)
CCOC(=O)N1CCN(C(=O)C[N-]S(=O)(=O)c2ccc(Cl)cc2)CC1 (3D coordinates assigned)
CCOC(=O)N1CCN(C(=O)C[N-]S(=O)(=O)c2ccc(Cl)cc2)CC1 (nonaromatic ring conformer: 36.418916379222246 kcal/mol)

>  <smiles>  (60) 
CCOC(=O)N1CCN(C(=O)CNS(=O)(=O)c2ccc(Cl)cc2)CC1

>  <score_type>  (60) 
oracle

>  <origin>  (60) 
adg

>  <m_score__min__energy>  (60) 
-9.2400000000000002

>  <m_primary>  (60) 
energy

$$$$
60:0
     RDKit          3D

 37 39  0  0  0  0  0  0  0  0999 V2000
   56.6330   29.8040   42.6310 N   0  0  0  0  0  0  0  0  0  0  0  0
   56.3400   30.2020   43.9720 C   0  0  0  0  0  0  0  0  0  0  0  0
   55.1610   30.0800   44.4030 O   0  0  0  0  0  0  0  0  0  0  0  0
   57.3950   30.7250   44.8690 C   0  0  0  0  0  0  0  0  0  0  0  0
   57.8970   29.9060   45.8950 C   0  0  0  0  0  0  0  0  0  0  0  0
   58.8740   30.3870   46.7850 C   0  0  0  0  0  0  0  0  0  0  0  0
   59.3910   29.5730   47.8480 N   0  0  0  0  0  0  0  0  0  0  0  0
   59.8880   28.2330   47.7250 C   0  0  0  0  0  0  0  0  0  0  0  0
   61.0640   27.9870   48.1020 O   0  0  0  0  0  0  0  0  0  0  0  0
   59.0480   27.1240   47.2270 C   0  0  0  0  0  0  0  0  0  0  0  0
   58.4500   27.0470   45.9810 C   0  0  0  0  0  0  0  0  0  0  0  0
   57.7760   25.8390   45.9540 C   0  0  0  0  0  0  0  0  0  0  0  0
   57.0430   25.2600   44.8110 C   0  0  0  0  0  0  0  0  0  0  0  0
   57.5210   25.3730   43.6500 O   0  0  0  0  0  0  0  0  0  0  0  0
   55.7370   24.5870   44.9900 C   0  0  0  0  0  0  0  0  0  0  0  0
   54.6580   25.2670   45.5750 C   0  0  0  0  0  0  0  0  0  0  0  0
   54.7990   26.5800   46.0110 O   0  0  0  0  0  0  0  0  0  0  0  0
   53.4650   24.6370   45.7370 N   0  0  0  0  0  0  0  0  0  0  0  0
   53.2900   23.3540   45.3340 C   0  0  0  0  0  0  0  0  0  0  0  0
   52.1770   22.7900   45.4970 O   0  0  0  0  0  0  0  0  0  0  0  0
   54.3120   22.6780   44.7510 N   0  0  0  0  0  0  0  0  0  0  0  0
   55.5250   23.2610   44.5650 C   0  0  0  0  0  0  0  0  0  0  0  0
   56.4420   22.6110   43.9960 O   0  0  0  0  0  0  0  0  0  0  0  0
   57.9830   25.2380   47.1810 C   0  0  0  0  0  0  0  0  0  0  0  0
   58.7480   26.0290   47.9540 N   0  0  0  0  0  0  0  0  0  0  0  0
   59.3870   31.6760   46.6090 C   0  0  0  0  0  0  0  0  0  0  0  0
   58.8930   32.4980   45.5960 C   0  0  0  0  0  0  0  0  0  0  0  0
   57.8940   32.0360   44.7340 C   0  0  0  0  0  0  0  0  0  0  0  0
   57.3900   32.8860   43.8050 F   0  0  0  0  0  0  0  0  0  0  0  0
   57.6160   29.7210   42.2920 H   0  0  0  0  0  0  0  0  0  0  0  0
   55.8620   29.4950   41.9970 H   0  0  0  0  0  0  0  0  0  0  0  0
   57.5217   28.8777   46.0031 H   0  0  0  0  0  0  0  0  0  0  0  0
   58.5004   27.7946   45.1757 H   0  0  0  0  0  0  0  0  0  0  0  0
   57.5818   24.2586   47.4807 H   0  0  0  0  0  0  0  0  0  0  0  0
   59.0640   25.8180   48.9270 H   0  0  0  0  0  0  0  0  0  0  0  0
   60.1838   32.0434   47.2725 H   0  0  0  0  0  0  0  0  0  0  0  0
   59.2919   33.5159   45.4747 H   0  0  0  0  0  0  0  0  0  0  0  0
  1  2  1  0
  2  3  2  0
  2  4  1  0
  4  5  2  0
  5  6  1  0
  6  7  1  0
  7  8  1  0
  8  9  2  0
  8 10  1  0
 10 11  2  0
 11 12  1  0
 12 13  1  0
 13 14  2  0
 13 15  1  0
 15 16  2  0
 16 17  1  0
 16 18  1  0
 18 19  1  0
 19 20  2  0
 19 21  1  0
 21 22  1  0
 22 23  2  0
 12 24  2  0
 24 25  1  0
  6 26  2  0
 26 27  1  0
 27 28  2  0
 28 29  1  0
 28  4  1  0
 25 10  1  0
 22 15  1  0
  1 30  1  0
  1 31  1  0
  5 32  1  0
 11 33  1  0
 24 34  1  0
 25 35  1  0
 26 36  1  0
 27 37  1  0
M  CHG  4   7  -1  17  -1  18  -1  21  -1
M  END
>  <UniqueID>  (61) 
59

>  <SMILES>  (61) 
NC(=O)c1cc([N-]C(=O)c2cc(C(=O)c3c([O-])[n-]c(=O)[n-]c3=O)c[nH]2)ccc1F

>  <Energy>  (61) 
80.50194239518889

>  <Genealogy>  (61) 
NC(=O)c1cc([N-]C(=O)c2cc(C(=O)c3c([O-])[n-]c(=O)[n-]c3=O)c[nH]2)ccc1F (protonated)
NC(=O)c1cc([N-]C(=O)c2cc(C(=O)c3c([O-])[n-]c(=O)[n-]c3=O)c[nH]2)ccc1F (3D coordinates assigned)
NC(=O)c1cc([N-]C(=O)c2cc(C(=O)c3c([O-])[n-]c(=O)[n-]c3=O)c[nH]2)ccc1F (optimized conformer: 80.50194239518889 kcal/mol)

>  <smiles>  (61) 
NC(=O)c1cc(NC(=O)c2cc(C(=O)c3c(O)[nH]c(=O)[nH]c3=O)c[nH]2)ccc1F

>  <score_type>  (61) 
oracle

>  <origin>  (61) 
adg

>  <m_score__min__energy>  (61) 
-16.84

>  <m_primary>  (61) 
energy

$$$$
61:0
     RDKit          3D

 63 66  0  0  0  0  0  0  0  0999 V2000
   51.2190   22.8990   45.6900 C   0  0  0  0  0  0  0  0  0  0  0  0
   52.6590   23.2180   45.9620 C   0  0  0  0  0  0  0  0  0  0  0  0
   53.5110   22.2520   46.5140 C   0  0  0  0  0  0  0  0  0  0  0  0
   54.8590   22.5470   46.7240 C   0  0  0  0  0  0  0  0  0  0  0  0
   55.3500   23.8160   46.3820 C   0  0  0  0  0  0  0  0  0  0  0  0
   56.7700   24.1720   46.5780 C   0  0  0  0  0  0  0  0  0  0  0  0
   57.3760   23.6760   47.5660 O   0  0  0  0  0  0  0  0  0  0  0  0
   57.4750   25.0530   45.6760 N   0  0  0  0  0  0  0  0  0  0  0  0
   57.7250   24.6770   44.2800 C   0  0  0  0  0  0  0  0  0  0  0  0
   57.9810   26.3160   46.1390 C   0  0  0  0  0  0  0  0  0  0  0  0
   57.4060   27.5110   45.6870 C   0  0  0  0  0  0  0  0  0  0  0  0
   57.9160   28.7440   46.1060 C   0  0  0  0  0  0  0  0  0  0  0  0
   59.0110   28.8020   46.9860 C   0  0  0  0  0  0  0  0  0  0  0  0
   59.5560   30.1140   47.4090 C   0  0  0  0  0  0  0  0  0  0  0  0
   58.8240   31.1400   47.3370 O   0  0  0  0  0  0  0  0  0  0  0  0
   60.8970   30.2330   47.9130 N   0  0  0  0  0  0  0  0  0  0  0  0
   61.5120   31.5330   48.1980 C   0  0  0  0  0  0  0  0  0  0  0  0
   61.4190   32.4330   46.9500 C   0  0  0  0  0  0  0  0  0  0  0  0
   61.4710   33.9170   47.3370 C   0  0  0  0  0  0  0  0  0  0  0  0
   60.3650   34.3190   48.2500 N   0  0  0  0  0  0  0  0  0  0  0  0
   59.3030   35.0660   47.5460 C   0  0  0  0  0  0  0  0  0  0  0  0
   58.7390   34.2440   46.4160 C   0  0  0  0  0  0  0  0  0  0  0  0
   59.3680   34.2250   45.1600 C   0  0  0  0  0  0  0  0  0  0  0  0
   58.8380   33.4560   44.1180 C   0  0  0  0  0  0  0  0  0  0  0  0
   57.6800   32.7010   44.3230 C   0  0  0  0  0  0  0  0  0  0  0  0
   57.0480   32.7130   45.5710 C   0  0  0  0  0  0  0  0  0  0  0  0
   57.5750   33.4810   46.6150 C   0  0  0  0  0  0  0  0  0  0  0  0
   59.7800   33.1980   49.0250 C   0  0  0  0  0  0  0  0  0  0  0  0
   60.8480   32.1800   49.4360 C   0  0  0  0  0  0  0  0  0  0  0  0
   59.5960   27.5990   47.4230 C   0  0  0  0  0  0  0  0  0  0  0  0
   59.0860   26.3690   47.0010 C   0  0  0  0  0  0  0  0  0  0  0  0
   54.5130   24.7250   45.8100 N   0  0  0  0  0  0  0  0  0  0  0  0
   53.1960   24.4580   45.5930 C   0  0  0  0  0  0  0  0  0  0  0  0
   50.6833   22.7803   46.6434 H   0  0  0  0  0  0  0  0  0  0  0  0
   50.7645   23.7182   45.1136 H   0  0  0  0  0  0  0  0  0  0  0  0
   51.1530   21.9645   45.1136 H   0  0  0  0  0  0  0  0  0  0  0  0
   53.1172   21.2605   46.7820 H   0  0  0  0  0  0  0  0  0  0  0  0
   55.5313   21.7902   47.1544 H   0  0  0  0  0  0  0  0  0  0  0  0
   58.3338   23.7613   44.2503 H   0  0  0  0  0  0  0  0  0  0  0  0
   56.7664   24.4966   43.7715 H   0  0  0  0  0  0  0  0  0  0  0  0
   58.2622   25.4912   43.7715 H   0  0  0  0  0  0  0  0  0  0  0  0
   56.5486   27.4793   44.9987 H   0  0  0  0  0  0  0  0  0  0  0  0
   57.4568   29.6758   45.7442 H   0  0  0  0  0  0  0  0  0  0  0  0
   61.3860   29.3740   48.2530 H   0  0  0  0  0  0  0  0  0  0  0  0
   62.5773   31.3977   48.4365 H   0  0  0  0  0  0  0  0  0  0  0  0
   62.2611   32.2064   46.2795 H   0  0  0  0  0  0  0  0  0  0  0  0
   60.4613   32.2356   46.4462 H   0  0  0  0  0  0  0  0  0  0  0  0
   62.4295   34.1150   47.8390 H   0  0  0  0  0  0  0  0  0  0  0  0
   61.3635   34.5024   46.4120 H   0  0  0  0  0  0  0  0  0  0  0  0
   58.4978   35.3058   48.2560 H   0  0  0  0  0  0  0  0  0  0  0  0
   59.7327   35.9905   47.1330 H   0  0  0  0  0  0  0  0  0  0  0  0
   60.2805   34.8168   44.9951 H   0  0  0  0  0  0  0  0  0  0  0  0
   59.3336   33.4457   43.1360 H   0  0  0  0  0  0  0  0  0  0  0  0
   57.2652   32.0969   43.5026 H   0  0  0  0  0  0  0  0  0  0  0  0
   56.1365   32.1185   45.7315 H   0  0  0  0  0  0  0  0  0  0  0  0
   57.0766   33.4879   47.5956 H   0  0  0  0  0  0  0  0  0  0  0  0
   59.3030   33.6006   49.9308 H   0  0  0  0  0  0  0  0  0  0  0  0
   59.0435   32.6863   48.3880 H   0  0  0  0  0  0  0  0  0  0  0  0
   61.6196   32.6904   50.0311 H   0  0  0  0  0  0  0  0  0  0  0  0
   60.3641   31.3871   50.0252 H   0  0  0  0  0  0  0  0  0  0  0  0
   60.4611   27.6275   48.1018 H   0  0  0  0  0  0  0  0  0  0  0  0
   59.5542   25.4357   47.3471 H   0  0  0  0  0  0  0  0  0  0  0  0
   52.5518   25.2179   45.1267 H   0  0  0  0  0  0  0  0  0  0  0  0
  1  2  1  0
  2  3  2  0
  3  4  1  0
  4  5  2  0
  5  6  1  0
  6  7  2  0
  6  8  1  0
  8  9  1  0
  8 10  1  0
 10 11  2  0
 11 12  1  0
 12 13  2  0
 13 14  1  0
 14 15  2  0
 14 16  1  0
 16 17  1  0
 17 18  1  0
 18 19  1  0
 19 20  1  0
 20 21  1  0
 21 22  1  0
 22 23  2  0
 23 24  1  0
 24 25  2  0
 25 26  1  0
 26 27  2  0
 20 28  1  0
 28 29  1  0
 13 30  1  0
 30 31  2  0
  5 32  1  0
 32 33  2  0
 33  2  1  0
 31 10  1  0
 29 17  1  0
 27 22  1  0
  1 34  1  0
  1 35  1  0
  1 36  1  0
  3 37  1  0
  4 38  1  0
  9 39  1  0
  9 40  1  0
  9 41  1  0
 11 42  1  0
 12 43  1  0
 16 44  1  0
 17 45  1  0
 18 46  1  0
 18 47  1  0
 19 48  1  0
 19 49  1  0
 21 50  1  0
 21 51  1  0
 23 52  1  0
 24 53  1  0
 25 54  1  0
 26 55  1  0
 27 56  1  0
 28 57  1  0
 28 58  1  0
 29 59  1  0
 29 60  1  0
 30 61  1  0
 31 62  1  0
 33 63  1  0
M  END
>  <UniqueID>  (62) 
60

>  <SMILES>  (62) 
Cc1ccc(C(=O)N(C)c2ccc(C(=O)NC3CCN(Cc4ccccc4)CC3)cc2)nc1

>  <Energy>  (62) 
86.09606151458064

>  <Genealogy>  (62) 
Cc1ccc(C(=O)N(C)c2ccc(C(=O)NC3CCN(Cc4ccccc4)CC3)cc2)nc1 (3D coordinates assigned)
Cc1ccc(C(=O)N(C)c2ccc(C(=O)NC3CCN(Cc4ccccc4)CC3)cc2)nc1 (nonaromatic ring conformer: 86.09606151458064 kcal/mol)

>  <smiles>  (62) 
Cc1ccc(C(=O)N(C)c2ccc(C(=O)NC3CCN(Cc4ccccc4)CC3)cc2)nc1

>  <score_type>  (62) 
oracle

>  <origin>  (62) 
adg

>  <m_score__min__energy>  (62) 
-9.3000000000000007

>  <m_primary>  (62) 
energy

$$$$
62:0
     RDKit          3D

 25 26  0  0  0  0  0  0  0  0999 V2000
   57.3780   30.6250   42.9680 N   0  0  0  0  0  0  0  0  0  0  0  0
   57.0020   30.6680   44.3480 C   0  0  0  0  0  0  0  0  0  0  0  0
   56.2700   31.6130   44.7500 O   0  0  0  0  0  0  0  0  0  0  0  0
   57.4670   29.6390   45.3110 C   0  0  0  0  0  0  0  0  0  0  0  0
   58.3200   30.0030   46.3680 C   0  0  0  0  0  0  0  0  0  0  0  0
   58.7630   29.0460   47.2840 C   0  0  0  0  0  0  0  0  0  0  0  0
   58.3560   27.7170   47.1620 C   0  0  0  0  0  0  0  0  0  0  0  0
   57.4940   27.3350   46.1230 C   0  0  0  0  0  0  0  0  0  0  0  0
   57.0640   25.9650   46.0040 N   0  0  0  0  0  0  0  0  0  0  0  0
   55.7270   25.6700   45.9580 C   0  0  0  0  0  0  0  0  0  0  0  0
   54.7720   26.6820   46.0100 O   0  0  0  0  0  0  0  0  0  0  0  0
   55.3010   24.3460   45.8440 C   0  0  0  0  0  0  0  0  0  0  0  0
   56.2610   23.3410   45.7720 C   0  0  0  0  0  0  0  0  0  0  0  0
   55.9110   22.1360   45.6650 O   0  0  0  0  0  0  0  0  0  0  0  0
   57.5780   23.6610   45.8180 N   0  0  0  0  0  0  0  0  0  0  0  0
   57.9860   24.9520   45.9320 C   0  0  0  0  0  0  0  0  0  0  0  0
   59.2220   25.2000   45.9840 O   0  0  0  0  0  0  0  0  0  0  0  0
   57.0500   28.2990   45.2040 C   0  0  0  0  0  0  0  0  0  0  0  0
   56.9890   31.3270   42.3020 H   0  0  0  0  0  0  0  0  0  0  0  0
   58.1030   29.9630   42.6170 H   0  0  0  0  0  0  0  0  0  0  0  0
   58.6410   31.0497   46.4744 H   0  0  0  0  0  0  0  0  0  0  0  0
   59.4346   29.3409   48.1038 H   0  0  0  0  0  0  0  0  0  0  0  0
   58.7121   26.9663   47.8828 H   0  0  0  0  0  0  0  0  0  0  0  0
   54.2289   24.1018   45.8117 H   0  0  0  0  0  0  0  0  0  0  0  0
   56.3692   28.0040   44.3919 H   0  0  0  0  0  0  0  0  0  0  0  0
  1  2  1  0
  2  3  2  0
  2  4  1  0
  4  5  2  0
  5  6  1  0
  6  7  2  0
  7  8  1  0
  8  9  1  0
  9 10  1  0
 10 11  1  0
 10 12  2  0
 12 13  1  0
 13 14  2  0
 13 15  1  0
 15 16  1  0
 16 17  2  0
  8 18  2  0
 18  4  1  0
 16  9  1  0
  1 19  1  0
  1 20  1  0
  5 21  1  0
  6 22  1  0
  7 23  1  0
 12 24  1  0
 18 25  1  0
M  CHG  2  11  -1  15  -1
M  END
>  <UniqueID>  (63) 
61

>  <SMILES>  (63) 
NC(=O)c1cccc(-n2c([O-])cc(=O)[n-]c2=O)c1

>  <Energy>  (63) 
37.50311631657112

>  <Genealogy>  (63) 
NC(=O)c1cccc(-n2c([O-])cc(=O)[n-]c2=O)c1 (protonated)
NC(=O)c1cccc(-n2c([O-])cc(=O)[n-]c2=O)c1 (3D coordinates assigned)
NC(=O)c1cccc(-n2c([O-])cc(=O)[n-]c2=O)c1 (optimized conformer: 37.50311631657112 kcal/mol)

>  <smiles>  (63) 
NC(=O)c1cccc(-n2c(O)cc(=O)[nH]c2=O)c1

>  <score_type>  (63) 
oracle

>  <origin>  (63) 
adg

>  <m_score__min__energy>  (63) 
-11.460000000000001

>  <m_primary>  (63) 
energy

$$$$
63:0
     RDKit          3D

 49 51  0  0  0  0  0  0  0  0999 V2000
   56.3960   31.4050   44.6830 O   0  0  0  0  0  0  0  0  0  0  0  0
   57.5230   31.7290   44.2240 C   0  0  0  0  0  0  0  0  0  0  0  0
   58.5060   30.6410   43.8860 C   0  0  0  0  0  0  0  0  0  0  0  0
   58.1260   29.3670   44.5940 C   0  0  0  0  0  0  0  0  0  0  0  0
   57.8470   28.1980   43.8700 C   0  0  0  0  0  0  0  0  0  0  0  0
   57.5410   27.0090   44.5370 C   0  0  0  0  0  0  0  0  0  0  0  0
   57.5070   26.9660   45.9430 C   0  0  0  0  0  0  0  0  0  0  0  0
   57.2130   25.7400   46.6350 N   0  0  0  0  0  0  0  0  0  0  0  0
   56.0340   25.3570   46.7830 O   0  0  0  0  0  0  0  0  0  0  0  0
   58.2330   24.9590   47.1360 O   0  0  0  0  0  0  0  0  0  0  0  0
   57.7860   28.1400   46.6650 C   0  0  0  0  0  0  0  0  0  0  0  0
   58.0940   29.3280   45.9970 C   0  0  0  0  0  0  0  0  0  0  0  0
   57.8370   33.1250   44.1000 N   0  0  0  0  0  0  0  0  0  0  0  0
   57.7510   34.1350   45.1570 C   0  0  0  0  0  0  0  0  0  0  0  0
   57.2330   33.4850   46.4610 C   0  0  0  0  0  0  0  0  0  0  0  0
   58.3520   32.7580   47.2170 C   0  0  0  0  0  0  0  0  0  0  0  0
   59.4990   33.6460   47.4610 N   0  0  0  0  0  0  0  0  0  0  0  0
   60.5570   33.2080   48.3340 C   0  0  0  0  0  0  0  0  0  0  0  0
   60.7070   31.9750   48.5630 O   0  0  0  0  0  0  0  0  0  0  0  0
   61.4130   34.1630   48.9840 N   0  0  0  0  0  0  0  0  0  0  0  0
   62.7090   33.8350   49.5100 C   0  0  0  0  0  0  0  0  0  0  0  0
   63.6350   33.0850   48.7560 C   0  0  0  0  0  0  0  0  0  0  0  0
   64.8960   32.7890   49.2840 C   0  0  0  0  0  0  0  0  0  0  0  0
   65.2440   33.2380   50.5590 C   0  0  0  0  0  0  0  0  0  0  0  0
   64.3400   34.0050   51.3020 C   0  0  0  0  0  0  0  0  0  0  0  0
   63.0820   34.3120   50.7750 C   0  0  0  0  0  0  0  0  0  0  0  0
   59.5640   34.9570   46.7930 C   0  0  0  0  0  0  0  0  0  0  0  0
   59.1380   34.8130   45.3260 C   0  0  0  0  0  0  0  0  0  0  0  0
   58.5008   30.4697   42.7994 H   0  0  0  0  0  0  0  0  0  0  0  0
   59.5113   30.9486   44.2097 H   0  0  0  0  0  0  0  0  0  0  0  0
   57.8693   28.2177   42.7704 H   0  0  0  0  0  0  0  0  0  0  0  0
   57.3249   26.0990   43.9581 H   0  0  0  0  0  0  0  0  0  0  0  0
   57.7616   28.1230   47.7646 H   0  0  0  0  0  0  0  0  0  0  0  0
   58.3128   30.2385   46.5741 H   0  0  0  0  0  0  0  0  0  0  0  0
   57.0306   34.9215   44.8880 H   0  0  0  0  0  0  0  0  0  0  0  0
   56.8166   34.2700   47.1094 H   0  0  0  0  0  0  0  0  0  0  0  0
   56.4641   32.7454   46.1930 H   0  0  0  0  0  0  0  0  0  0  0  0
   57.9609   32.4049   48.1826 H   0  0  0  0  0  0  0  0  0  0  0  0
   58.6932   31.9125   46.6016 H   0  0  0  0  0  0  0  0  0  0  0  0
   61.0280   35.1160   49.1750 H   0  0  0  0  0  0  0  0  0  0  0  0
   63.3649   32.7318   47.7499 H   0  0  0  0  0  0  0  0  0  0  0  0
   65.6145   32.2015   48.6936 H   0  0  0  0  0  0  0  0  0  0  0  0
   66.2293   32.9887   50.9798 H   0  0  0  0  0  0  0  0  0  0  0  0
   64.6195   34.3670   52.3024 H   0  0  0  0  0  0  0  0  0  0  0  0
   62.3815   34.9306   51.3552 H   0  0  0  0  0  0  0  0  0  0  0  0
   58.8888   35.6605   47.3022 H   0  0  0  0  0  0  0  0  0  0  0  0
   60.5954   35.3368   46.8367 H   0  0  0  0  0  0  0  0  0  0  0  0
   59.0950   35.8150   44.8742 H   0  0  0  0  0  0  0  0  0  0  0  0
   59.8799   34.1689   44.8312 H   0  0  0  0  0  0  0  0  0  0  0  0
  1  2  2  0
  2  3  1  0
  3  4  1  0
  4  5  2  0
  5  6  1  0
  6  7  2  0
  7  8  1  0
  8  9  2  0
  8 10  1  0
  7 11  1  0
 11 12  2  0
  2 13  1  0
 13 14  1  0
 14 15  1  0
 15 16  1  0
 16 17  1  0
 17 18  1  0
 18 19  2  0
 18 20  1  0
 20 21  1  0
 21 22  2  0
 22 23  1  0
 23 24  2  0
 24 25  1  0
 25 26  2  0
 17 27  1  0
 27 28  1  0
 12  4  1  0
 28 14  1  0
 26 21  1  0
  3 29  1  0
  3 30  1  0
  5 31  1  0
  6 32  1  0
 11 33  1  0
 12 34  1  0
 14 35  1  0
 15 36  1  0
 15 37  1  0
 16 38  1  0
 16 39  1  0
 20 40  1  0
 22 41  1  0
 23 42  1  0
 24 43  1  0
 25 44  1  0
 26 45  1  0
 27 46  1  0
 27 47  1  0
 28 48  1  0
 28 49  1  0
M  CHG  3   8   1  10  -1  13  -1
M  END
>  <UniqueID>  (64) 
62

>  <SMILES>  (64) 
O=C(Cc1ccc([N+](=O)[O-])cc1)[N-]C1CCN(C(=O)Nc2ccccc2)CC1

>  <Energy>  (64) 
55.987906518502626

>  <Genealogy>  (64) 
O=C(Cc1ccc([N+](=O)[O-])cc1)[N-]C1CCN(C(=O)Nc2ccccc2)CC1 (protonated)
O=C(Cc1ccc([N+](=O)[O-])cc1)[N-]C1CCN(C(=O)Nc2ccccc2)CC1 (3D coordinates assigned)
O=C(Cc1ccc([N+](=O)[O-])cc1)[N-]C1CCN(C(=O)Nc2ccccc2)CC1 (nonaromatic ring conformer: 55.987906518502626 kcal/mol)

>  <smiles>  (64) 
O=C(Cc1ccc([N+](=O)[O-])cc1)NC1CCN(C(=O)Nc2ccccc2)CC1

>  <score_type>  (64) 
oracle

>  <origin>  (64) 
adg

>  <m_score__min__energy>  (64) 
-9.4800000000000004

>  <m_primary>  (64) 
energy

$$$$
64:0
     RDKit          3D

 57 59  0  0  0  0  0  0  0  0999 V2000
   56.6975   29.2605   42.2829 H   0  0  0  0  0  0  0  0  0  0  0  0
   56.9890   29.2950   43.3430 C   0  0  0  0  0  0  0  0  0  0  0  0
   56.4790   30.4000   44.1820 C   0  0  0  0  0  0  0  0  0  0  0  0
   55.2610   30.3830   44.5070 O   0  0  0  0  0  0  0  0  0  0  0  0
   57.3350   31.5080   44.6700 C   0  0  0  0  0  0  0  0  0  0  0  0
   57.7770   31.5160   46.0040 C   0  0  0  0  0  0  0  0  0  0  0  0
   57.4630   30.7134   46.6876 H   0  0  0  0  0  0  0  0  0  0  0  0
   58.6120   32.5350   46.4690 C   0  0  0  0  0  0  0  0  0  0  0  0
   58.9448   32.5344   47.5174 H   0  0  0  0  0  0  0  0  0  0  0  0
   59.0280   33.5590   45.6050 C   0  0  0  0  0  0  0  0  0  0  0  0
   59.9710   34.6320   46.0850 C   0  0  0  0  0  0  0  0  0  0  0  0
   59.7295   34.8856   47.1278 H   0  0  0  0  0  0  0  0  0  0  0  0
   59.8577   35.5175   45.4423 H   0  0  0  0  0  0  0  0  0  0  0  0
   61.3220   34.1810   46.0130 O   0  0  0  0  0  0  0  0  0  0  0  0
   61.9490   33.4980   47.0590 C   0  0  0  0  0  0  0  0  0  0  0  0
   61.4160   32.4440   47.7050 N   0  0  0  0  0  0  0  0  0  0  0  0
   62.3110   32.0310   48.5880 N   0  0  0  0  0  0  0  0  0  0  0  0
   62.1100   30.8500   49.4300 C   0  0  0  0  0  0  0  0  0  0  0  0
   61.8297   29.9975   48.7938 H   0  0  0  0  0  0  0  0  0  0  0  0
   63.0464   30.6372   49.9665 H   0  0  0  0  0  0  0  0  0  0  0  0
   60.9950   31.0960   50.4640 C   0  0  0  0  0  0  0  0  0  0  0  0
   60.6239   30.1228   50.8179 H   0  0  0  0  0  0  0  0  0  0  0  0
   61.4288   31.6912   51.2811 H   0  0  0  0  0  0  0  0  0  0  0  0
   59.8520   31.8660   49.9110 N   0  0  0  0  0  0  0  0  0  0  0  0
   59.9770   32.0090   48.8820 H   0  0  0  0  0  0  0  0  0  0  0  0
   58.5740   31.1640   50.1340 C   0  0  0  0  0  0  0  0  0  0  0  0
   58.3937   31.0650   51.2146 H   0  0  0  0  0  0  0  0  0  0  0  0
   57.7552   31.7390   49.6768 H   0  0  0  0  0  0  0  0  0  0  0  0
   58.6200   30.1646   49.6768 H   0  0  0  0  0  0  0  0  0  0  0  0
   59.7950   33.2000   50.5340 C   0  0  0  0  0  0  0  0  0  0  0  0
   59.7995   33.0939   51.6289 H   0  0  0  0  0  0  0  0  0  0  0  0
   60.6688   33.7894   50.2191 H   0  0  0  0  0  0  0  0  0  0  0  0
   58.8741   33.7127   50.2191 H   0  0  0  0  0  0  0  0  0  0  0  0
   63.4070   32.8220   48.5190 C   0  0  0  0  0  0  0  0  0  0  0  0
   64.6560   32.6520   49.3260 C   0  0  0  0  0  0  0  0  0  0  0  0
   64.4079   32.6858   50.3971 H   0  0  0  0  0  0  0  0  0  0  0  0
   65.1179   31.6827   49.0870 H   0  0  0  0  0  0  0  0  0  0  0  0
   65.3601   33.4626   49.0870 H   0  0  0  0  0  0  0  0  0  0  0  0
   63.2080   33.7800   47.5440 C   0  0  0  0  0  0  0  0  0  0  0  0
   63.8936   34.5803   47.2286 H   0  0  0  0  0  0  0  0  0  0  0  0
   58.6040   33.5470   44.2690 C   0  0  0  0  0  0  0  0  0  0  0  0
   58.9293   34.3439   43.5841 H   0  0  0  0  0  0  0  0  0  0  0  0
   57.7690   32.5260   43.8030 C   0  0  0  0  0  0  0  0  0  0  0  0
   57.4496   32.5196   42.7504 H   0  0  0  0  0  0  0  0  0  0  0  0
   57.7920   28.3330   43.8200 C   0  0  0  0  0  0  0  0  0  0  0  0
   57.8228   27.3726   43.2845 H   0  0  0  0  0  0  0  0  0  0  0  0
   58.6410   28.4860   45.0260 C   0  0  0  0  0  0  0  0  0  0  0  0
   58.2620   27.9940   46.2930 C   0  0  0  0  0  0  0  0  0  0  0  0
   57.2977   27.4787   46.4135 H   0  0  0  0  0  0  0  0  0  0  0  0
   59.1060   28.1580   47.3970 C   0  0  0  0  0  0  0  0  0  0  0  0
   58.8011   27.7758   48.3823 H   0  0  0  0  0  0  0  0  0  0  0  0
   60.3330   28.8050   47.2510 C   0  0  0  0  0  0  0  0  0  0  0  0
   60.9912   28.9386   48.1222 H   0  0  0  0  0  0  0  0  0  0  0  0
   60.7260   29.2830   46.0000 C   0  0  0  0  0  0  0  0  0  0  0  0
   61.6965   29.7879   45.8850 H   0  0  0  0  0  0  0  0  0  0  0  0
   59.8880   29.1210   44.8930 C   0  0  0  0  0  0  0  0  0  0  0  0
   60.2073   29.4939   43.9086 H   0  0  0  0  0  0  0  0  0  0  0  0
  1  2  1  0
  2  3  1  0
  3  4  2  0
  3  5  1  0
  5  6  2  0
  6  7  1  0
  6  8  1  0
  8  9  1  0
  8 10  2  0
 10 11  1  0
 11 12  1  0
 11 13  1  0
 11 14  1  0
 14 15  1  0
 15 16  2  0
 16 17  1  0
 17 18  1  0
 18 19  1  0
 18 20  1  0
 18 21  1  0
 21 22  1  0
 21 23  1  0
 21 24  1  0
 24 25  1  0
 24 26  1  0
 26 27  1  0
 26 28  1  0
 26 29  1  0
 24 30  1  0
 30 31  1  0
 30 32  1  0
 30 33  1  0
 17 34  1  0
 34 35  1  0
 35 36  1  0
 35 37  1  0
 35 38  1  0
 34 39  2  0
 39 40  1  0
 10 41  1  0
 41 42  1  0
 41 43  2  0
 43 44  1  0
  2 45  2  0
 45 46  1  0
 45 47  1  0
 47 48  2  0
 48 49  1  0
 48 50  1  0
 50 51  1  0
 50 52  2  0
 52 53  1  0
 52 54  1  0
 54 55  1  0
 54 56  2  0
 56 57  1  0
 43  5  1  0
 56 47  1  0
 39 15  1  0
M  CHG  1  24   1
M  END
>  <UniqueID>  (65) 
63

>  <SMILES>  (65) 
Cc1cc(OCc2ccc(C(=O)/C=C/c3ccccc3)cc2)nn1CC[NH+](C)C

>  <Energy>  (65) 
89.5601890668157

>  <Genealogy>  (65) 
Cc1cc(OCc2ccc(C(=O)C=Cc3ccccc3)cc2)nn1CC[NH+](C)C (protonated)
Cc1cc(OCc2ccc(C(=O)/C=C/c3ccccc3)cc2)nn1CC[NH+](C)C (cis-trans isomerization)
Cc1cc(OCc2ccc(C(=O)/C=C/c3ccccc3)cc2)nn1CC[NH+](C)C (3D coordinates assigned)
Cc1cc(OCc2ccc(C(=O)/C=C/c3ccccc3)cc2)nn1CC[NH+](C)C (optimized conformer: 89.5601890668157 kcal/mol)

>  <smiles>  (65) 
Cc1cc(OCc2ccc(C(=O)C=Cc3ccccc3)cc2)nn1CCN(C)C

>  <score_type>  (65) 
oracle

>  <origin>  (65) 
adg

>  <m_score__min__energy>  (65) 
-7

>  <m_primary>  (65) 
energy

$$$$
65:0
     RDKit          3D

 45 47  0  0  1  0  0  0  0  0999 V2000
   57.0450   20.7660   42.7910 C   0  0  0  0  0  0  0  0  0  0  0  0
   56.7620   22.0770   43.4230 C   0  0  0  0  0  0  0  0  0  0  0  0
   56.5800   23.2300   42.7940 N   0  0  0  0  0  0  0  0  0  0  0  0
   56.3580   24.1550   43.6900 N   0  0  0  0  0  0  0  0  0  0  0  0
   56.3890   23.6190   44.9350 C   0  0  0  0  0  0  0  0  0  0  0  0
   56.2040   24.3340   45.9790 N   0  0  0  0  0  0  0  0  0  0  0  0
   55.7050   25.6450   45.8670 C   0  0  0  0  0  0  0  0  0  0  0  0
   54.4540   25.8150   45.9780 O   0  0  0  0  0  0  0  0  0  0  0  0
   56.5940   26.7790   45.6320 C   0  0  0  0  0  0  0  0  0  0  0  0
   57.9620   26.8780   45.7620 C   0  0  0  0  0  0  0  0  0  0  0  0
   58.3060   28.1880   45.4330 C   0  0  0  0  0  0  0  0  0  0  0  0
   59.5970   28.7080   45.4340 O   0  0  0  0  0  0  0  0  0  0  0  0
   57.1330   28.8670   45.1060 C   0  0  0  0  0  0  0  0  0  0  0  0
   57.0050   30.2850   44.7240 C   0  0  0  0  0  0  0  0  0  0  0  0
   55.8420   30.7470   44.6000 O   0  0  0  0  0  0  0  0  0  0  0  0
   58.1820   31.0380   44.5130 N   0  0  0  0  0  0  0  0  0  0  0  0
   58.2290   32.4160   44.1180 C   0  0  0  0  0  0  0  0  0  0  0  0
   58.6460   33.2150   45.3090 C   0  0  0  0  0  0  0  0  0  0  0  0
   58.3710   32.6210   46.5490 C   0  0  0  0  0  0  0  0  0  0  0  0
   58.7090   33.2420   47.7280 C   0  0  0  0  0  0  0  0  0  0  0  0
   59.3320   34.4810   47.6530 C   0  0  0  0  0  0  0  0  0  0  0  0
   59.6580   35.0580   48.8340 F   0  0  0  0  0  0  0  0  0  0  0  0
   59.6030   35.0690   46.4350 C   0  0  0  0  0  0  0  0  0  0  0  0
   59.2590   34.4320   45.2450 C   0  0  0  0  0  0  0  0  0  0  0  0
   56.1530   27.9930   45.2400 N   0  0  0  0  0  0  0  0  0  0  0  0
   56.6470   22.2810   44.7970 C   0  0  0  0  0  0  0  0  0  0  0  0
   56.7710   21.2750   45.8750 C   0  0  0  0  0  0  0  0  0  0  0  0
   57.2083   20.0097   43.5729 H   0  0  0  0  0  0  0  0  0  0  0  0
   56.1904   20.4683   42.1656 H   0  0  0  0  0  0  0  0  0  0  0  0
   57.9463   20.8474   42.1656 H   0  0  0  0  0  0  0  0  0  0  0  0
   56.6040   23.3720   41.7740 H   0  0  0  0  0  0  0  0  0  0  0  0
   56.1780   25.1790   43.4590 H   0  0  0  0  0  0  0  0  0  0  0  0
   58.6509   26.0765   46.0671 H   0  0  0  0  0  0  0  0  0  0  0  0
   60.0100   29.1030   46.2940 H   0  0  0  0  0  0  0  0  0  0  0  0
   59.1210   30.5540   44.6570 H   0  0  0  0  0  0  0  0  0  0  0  0
   58.9574   32.5480   43.3044 H   0  0  0  0  0  0  0  0  0  0  0  0
   57.2442   32.7474   43.7569 H   0  0  0  0  0  0  0  0  0  0  0  0
   57.8754   31.6394   46.5790 H   0  0  0  0  0  0  0  0  0  0  0  0
   58.4930   32.7728   48.6992 H   0  0  0  0  0  0  0  0  0  0  0  0
   60.0962   36.0517   46.4031 H   0  0  0  0  0  0  0  0  0  0  0  0
   59.4771   34.9005   44.2739 H   0  0  0  0  0  0  0  0  0  0  0  0
   55.1440   28.2150   45.0660 H   0  0  0  0  0  0  0  0  0  0  0  0
   56.7093   21.7756   46.8525 H   0  0  0  0  0  0  0  0  0  0  0  0
   55.9565   20.5409   45.7869 H   0  0  0  0  0  0  0  0  0  0  0  0
   57.7393   20.7606   45.7869 H   0  0  0  0  0  0  0  0  0  0  0  0
  1  2  1  0
  2  3  1  0
  3  4  1  0
  4  5  1  0
  5  6  2  0
  6  7  1  0
  7  8  2  0
  7  9  1  0
  9 10  2  0
 10 11  1  0
 11 12  1  0
 11 13  2  0
 13 14  1  0
 14 15  2  0
 14 16  1  0
 16 17  1  0
 17 18  1  0
 18 19  2  0
 19 20  1  0
 20 21  2  0
 21 22  1  0
 21 23  1  0
 23 24  2  0
 13 25  1  0
  5 26  1  0
 26 27  1  0
 26  2  2  0
 25  9  1  0
 24 18  1  0
  1 28  1  0
  1 29  1  0
  1 30  1  0
  3 31  1  0
  4 32  1  0
 10 33  1  0
 12 34  1  0
 16 35  1  0
 17 36  1  0
 17 37  1  0
 19 38  1  0
 20 39  1  0
 23 40  1  0
 24 41  1  0
 25 42  1  0
 27 43  1  0
 27 44  1  0
 27 45  1  0
M  END
>  <smiles>  (66) 
Cc1[nH][nH]c(=NC(=O)c2cc(O)c(C(=O)NCc3ccc(F)cc3)[nH]2)c1C

>  <score_type>  (66) 
oracle

>  <origin>  (66) 
adg

>  <m_score__min__energy>  (66) 
-8.9600000000000009

>  <m_primary>  (66) 
energy

$$$$
66:0
     RDKit          3D

 59 63  0  0  0  0  0  0  0  0999 V2000
   58.3109   31.2049   51.1973 H   0  0  0  0  0  0  0  0  0  0  0  0
   59.1040   30.5820   50.7580 C   0  0  0  0  0  0  0  0  0  0  0  0
   60.4090   30.8580   51.0230 N   0  0  0  0  0  0  0  0  0  0  0  0
   61.4270   30.1190   50.5020 C   0  0  0  0  0  0  0  0  0  0  0  0
   62.6500   30.4510   50.8070 N   0  0  0  0  0  0  0  0  0  0  0  0
   63.4760   31.9060   50.3340 S   0  0  0  0  0  0  0  0  0  0  0  0
   64.9330   31.5980   50.1420 O   0  0  0  0  0  0  0  0  0  0  0  0
   63.3340   32.9290   51.4280 O   0  0  0  0  0  0  0  0  0  0  0  0
   62.8210   32.5290   48.8220 C   0  0  0  0  0  0  0  0  0  0  0  0
   63.5770   33.3990   48.0280 C   0  0  0  0  0  0  0  0  0  0  0  0
   64.5760   33.7171   48.3610 H   0  0  0  0  0  0  0  0  0  0  0  0
   63.0670   33.8640   46.8150 C   0  0  0  0  0  0  0  0  0  0  0  0
   63.6672   34.5425   46.1909 H   0  0  0  0  0  0  0  0  0  0  0  0
   61.7950   33.4690   46.3920 C   0  0  0  0  0  0  0  0  0  0  0  0
   61.4006   33.8341   45.4322 H   0  0  0  0  0  0  0  0  0  0  0  0
   61.0160   32.6080   47.1850 C   0  0  0  0  0  0  0  0  0  0  0  0
   59.6600   32.2110   46.7470 C   0  0  0  0  0  0  0  0  0  0  0  0
   58.6500   32.7940   47.2270 O   0  0  0  0  0  0  0  0  0  0  0  0
   59.4920   31.2220   45.7190 N   0  0  0  0  0  0  0  0  0  0  0  0
   58.4430   30.4970   45.4140 C   0  0  0  0  0  0  0  0  0  0  0  0
   57.3310   31.1580   44.8430 C   0  0  0  0  0  0  0  0  0  0  0  0
   57.3930   32.5590   44.3690 C   0  0  0  0  0  0  0  0  0  0  0  0
   57.8340   32.8040   43.2150 O   0  0  0  0  0  0  0  0  0  0  0  0
   57.0220   33.6450   45.2200 N   0  0  0  0  0  0  0  0  0  0  0  0
   56.8570   33.4960   46.2410 H   0  0  0  0  0  0  0  0  0  0  0  0
   57.0090   34.6210   44.8500 H   0  0  0  0  0  0  0  0  0  0  0  0
   56.1300   30.5260   44.7960 N   0  0  0  0  0  0  0  0  0  0  0  0
   55.9770   29.2650   45.1900 N   0  0  0  0  0  0  0  0  0  0  0  0
   57.0260   28.5240   45.6240 C   0  0  0  0  0  0  0  0  0  0  0  0
   56.8270   27.1750   45.9370 C   0  0  0  0  0  0  0  0  0  0  0  0
   55.8094   26.7573   45.9295 H   0  0  0  0  0  0  0  0  0  0  0  0
   57.9140   26.3520   46.2600 C   0  0  0  0  0  0  0  0  0  0  0  0
   57.7070   24.9610   46.5640 N   0  0  0  0  0  0  0  0  0  0  0  0
   57.1390   24.5690   47.8580 C   0  0  0  0  0  0  0  0  0  0  0  0
   57.9428   24.5101   48.6066 H   0  0  0  0  0  0  0  0  0  0  0  0
   56.3957   25.3176   48.1694 H   0  0  0  0  0  0  0  0  0  0  0  0
   56.4590   23.2040   47.7350 C   0  0  0  0  0  0  0  0  0  0  0  0
   56.1604   22.8587   48.7358 H   0  0  0  0  0  0  0  0  0  0  0  0
   55.5771   23.3075   47.0858 H   0  0  0  0  0  0  0  0  0  0  0  0
   57.3350   22.2550   47.1600 O   0  0  0  0  0  0  0  0  0  0  0  0
   57.6300   22.6230   45.8250 C   0  0  0  0  0  0  0  0  0  0  0  0
   58.2318   21.8303   45.3564 H   0  0  0  0  0  0  0  0  0  0  0  0
   56.6851   22.7583   45.2783 H   0  0  0  0  0  0  0  0  0  0  0  0
   58.4130   23.9370   45.7870 C   0  0  0  0  0  0  0  0  0  0  0  0
   59.4132   23.7782   46.2165 H   0  0  0  0  0  0  0  0  0  0  0  0
   58.5056   24.2735   44.7438 H   0  0  0  0  0  0  0  0  0  0  0  0
   59.2070   26.8930   46.2380 C   0  0  0  0  0  0  0  0  0  0  0  0
   60.0707   26.2495   46.4615 H   0  0  0  0  0  0  0  0  0  0  0  0
   59.4090   28.2410   45.9350 C   0  0  0  0  0  0  0  0  0  0  0  0
   60.4338   28.6367   45.8792 H   0  0  0  0  0  0  0  0  0  0  0  0
   58.3150   29.1040   45.6990 C   0  0  0  0  0  0  0  0  0  0  0  0
   61.5400   32.1420   48.4030 C   0  0  0  0  0  0  0  0  0  0  0  0
   60.9404   31.4682   49.0327 H   0  0  0  0  0  0  0  0  0  0  0  0
   61.1220   29.0340   49.6560 C   0  0  0  0  0  0  0  0  0  0  0  0
   61.9290   28.4269   49.2199 H   0  0  0  0  0  0  0  0  0  0  0  0
   59.7870   28.7360   49.3760 C   0  0  0  0  0  0  0  0  0  0  0  0
   59.5391   27.8900   48.7181 H   0  0  0  0  0  0  0  0  0  0  0  0
   58.7690   29.5090   49.9290 C   0  0  0  0  0  0  0  0  0  0  0  0
   57.7150   29.2775   49.7157 H   0  0  0  0  0  0  0  0  0  0  0  0
  1  2  1  0
  2  3  1  0
  3  4  1  0
  4  5  2  3
  5  6  1  0
  6  7  2  0
  6  8  2  0
  6  9  1  0
  9 10  2  0
 10 11  1  0
 10 12  1  0
 12 13  1  0
 12 14  2  0
 14 15  1  0
 14 16  1  0
 16 17  1  0
 17 18  2  0
 17 19  1  0
 19 20  2  0
 20 21  1  0
 21 22  1  0
 22 23  2  0
 22 24  1  0
 24 25  1  0
 24 26  1  0
 21 27  2  0
 27 28  1  0
 28 29  1  0
 29 30  2  0
 30 31  1  0
 30 32  1  0
 32 33  1  0
 33 34  1  0
 34 35  1  0
 34 36  1  0
 34 37  1  0
 37 38  1  0
 37 39  1  0
 37 40  1  0
 40 41  1  0
 41 42  1  0
 41 43  1  0
 41 44  1  0
 44 45  1  0
 44 46  1  0
 32 47  2  0
 47 48  1  0
 47 49  1  0
 49 50  1  0
 49 51  2  0
 16 52  2  0
 52 53  1  0
  4 54  1  0
 54 55  1  0
 54 56  2  0
 56 57  1  0
 56 58  1  0
 58 59  1  0
 58  2  2  0
 52  9  1  0
 51 20  1  0
 51 29  1  0
 44 33  1  0
M  CHG  2   3  -1  28  -1
M  END
>  <UniqueID>  (67) 
64

>  <SMILES>  (67) 
NC(=O)c1n[n-]c2cc(N3CCOCC3)ccc2/c1=N\C(=O)c1cccc(S(=O)(=O)N=c2cccc[n-]2)c1

>  <Energy>  (67) 
103.29895724870622

>  <Genealogy>  (67) 
NC(=O)c1n[n-]c2cc(N3CCOCC3)ccc2c1=NC(=O)c1cccc(S(=O)(=O)N=c2cccc[n-]2)c1 (protonated)
NC(=O)c1n[n-]c2cc(N3CCOCC3)ccc2/c1=N\C(=O)c1cccc(S(=O)(=O)N=c2cccc[n-]2)c1 (cis-trans isomerization)
NC(=O)c1n[n-]c2cc(N3CCOCC3)ccc2/c1=N\C(=O)c1cccc(S(=O)(=O)N=c2cccc[n-]2)c1 (3D coordinates assigned)
NC(=O)c1n[n-]c2cc(N3CCOCC3)ccc2/c1=N\C(=O)c1cccc(S(=O)(=O)N=c2cccc[n-]2)c1 (nonaromatic ring conformer: 103.29895724870622 kcal/mol)

>  <smiles>  (67) 
NC(=O)c1n[nH]c2cc(N3CCOCC3)ccc2c1=NC(=O)c1cccc(S(=O)(=O)N=c2cccc[nH]2)c1

>  <score_type>  (67) 
oracle

>  <origin>  (67) 
adg

>  <m_score__min__energy>  (67) 
-11.81

>  <m_primary>  (67) 
energy

$$$$
67:0
     RDKit          3D

 47 50  0  0  0  0  0  0  0  0999 V2000
   54.7730   26.3210   45.9840 N   0  0  0  0  0  0  0  0  0  0  0  0
   56.4210   25.8010   46.0180 S   0  0  0  0  0  0  0  0  0  0  0  0
   56.5830   24.7240   47.0540 O   0  0  0  0  0  0  0  0  0  0  0  0
   56.7980   25.2400   44.6760 O   0  0  0  0  0  0  0  0  0  0  0  0
   57.4610   27.1680   46.4080 C   0  0  0  0  0  0  0  0  0  0  0  0
   57.4880   28.2910   45.5730 C   0  0  0  0  0  0  0  0  0  0  0  0
   58.3040   29.3820   45.8870 C   0  0  0  0  0  0  0  0  0  0  0  0
   59.1010   29.3630   47.0440 C   0  0  0  0  0  0  0  0  0  0  0  0
   59.9420   30.4860   47.3750 N   0  0  0  0  0  0  0  0  0  0  0  0
   59.3560   31.8000   47.6340 C   0  0  0  0  0  0  0  0  0  0  0  0
   60.1150   32.8490   46.8340 C   0  0  0  0  0  0  0  0  0  0  0  0
   61.6340   32.8330   47.1310 C   0  0  0  0  0  0  0  0  0  0  0  0
   61.9830   33.6480   48.3170 N   0  0  0  0  0  0  0  0  0  0  0  0
   60.9030   34.2590   49.1110 C   0  0  0  0  0  0  0  0  0  0  0  0
   61.1480   33.8410   50.5740 C   0  0  0  0  0  0  0  0  0  0  0  0
   62.5700   33.4280   50.5470 C   0  0  0  0  0  0  0  0  0  0  0  0
   63.4300   33.2680   51.6350 C   0  0  0  0  0  0  0  0  0  0  0  0
   64.7960   33.0760   51.3850 C   0  0  0  0  0  0  0  0  0  0  0  0
   65.2810   33.1070   50.0650 C   0  0  0  0  0  0  0  0  0  0  0  0
   66.6120   33.0090   49.8330 F   0  0  0  0  0  0  0  0  0  0  0  0
   64.3940   33.2880   48.9910 C   0  0  0  0  0  0  0  0  0  0  0  0
   63.0200   33.3550   49.2530 C   0  0  0  0  0  0  0  0  0  0  0  0
   62.2390   31.4040   47.1240 C   0  0  0  0  0  0  0  0  0  0  0  0
   61.3500   30.2940   47.7270 C   0  0  0  0  0  0  0  0  0  0  0  0
   59.0620   28.2390   47.8830 C   0  0  0  0  0  0  0  0  0  0  0  0
   58.2460   27.1490   47.5680 C   0  0  0  0  0  0  0  0  0  0  0  0
   54.6820   27.0890   46.6860 H   0  0  0  0  0  0  0  0  0  0  0  0
   56.8651   28.3153   44.6667 H   0  0  0  0  0  0  0  0  0  0  0  0
   58.3222   30.2600   45.2246 H   0  0  0  0  0  0  0  0  0  0  0  0
   58.2988   31.7984   47.3301 H   0  0  0  0  0  0  0  0  0  0  0  0
   59.4235   32.0313   48.7073 H   0  0  0  0  0  0  0  0  0  0  0  0
   59.9626   32.6543   45.7621 H   0  0  0  0  0  0  0  0  0  0  0  0
   59.7272   33.8368   47.1235 H   0  0  0  0  0  0  0  0  0  0  0  0
   62.1303   33.3354   46.2876 H   0  0  0  0  0  0  0  0  0  0  0  0
   60.9355   35.3546   49.0179 H   0  0  0  0  0  0  0  0  0  0  0  0
   59.9144   33.9265   48.7617 H   0  0  0  0  0  0  0  0  0  0  0  0
   60.9907   34.6850   51.2617 H   0  0  0  0  0  0  0  0  0  0  0  0
   60.4661   33.0541   50.9287 H   0  0  0  0  0  0  0  0  0  0  0  0
   63.0446   33.2920   52.6650 H   0  0  0  0  0  0  0  0  0  0  0  0
   65.4888   32.9011   52.2213 H   0  0  0  0  0  0  0  0  0  0  0  0
   64.7722   33.3756   47.9618 H   0  0  0  0  0  0  0  0  0  0  0  0
   62.4541   31.1338   46.0796 H   0  0  0  0  0  0  0  0  0  0  0  0
   63.1306   31.4542   47.7663 H   0  0  0  0  0  0  0  0  0  0  0  0
   61.6850   29.3192   47.3429 H   0  0  0  0  0  0  0  0  0  0  0  0
   61.4413   30.3347   48.8225 H   0  0  0  0  0  0  0  0  0  0  0  0
   59.6775   28.2156   48.7944 H   0  0  0  0  0  0  0  0  0  0  0  0
   58.2201   26.2733   48.2332 H   0  0  0  0  0  0  0  0  0  0  0  0
  1  2  1  0
  2  3  2  0
  2  4  2  0
  2  5  1  0
  5  6  2  0
  6  7  1  0
  7  8  2  0
  8  9  1  0
  9 10  1  0
 10 11  1  0
 11 12  1  0
 12 13  1  0
 13 14  1  0
 14 15  1  0
 15 16  1  0
 16 17  2  0
 17 18  1  0
 18 19  2  0
 19 20  1  0
 19 21  1  0
 21 22  2  0
 12 23  1  0
 23 24  1  0
  8 25  1  0
 25 26  2  0
 26  5  1  0
 24  9  1  0
 22 13  1  0
 22 16  1  0
  1 27  1  0
  6 28  1  0
  7 29  1  0
 10 30  1  0
 10 31  1  0
 11 32  1  0
 11 33  1  0
 12 34  1  0
 14 35  1  0
 14 36  1  0
 15 37  1  0
 15 38  1  0
 17 39  1  0
 18 40  1  0
 21 41  1  0
 23 42  1  0
 23 43  1  0
 24 44  1  0
 24 45  1  0
 25 46  1  0
 26 47  1  0
M  CHG  1   1  -1
M  END
>  <UniqueID>  (68) 
65

>  <SMILES>  (68) 
[NH-]S(=O)(=O)c1ccc(N2CCC(N3CCc4ccc(F)cc43)CC2)cc1

>  <Energy>  (68) 
78.22953181195706

>  <Genealogy>  (68) 
[NH-]S(=O)(=O)c1ccc(N2CCC(N3CCc4ccc(F)cc43)CC2)cc1 (protonated)
[NH-]S(=O)(=O)c1ccc(N2CCC(N3CCc4ccc(F)cc43)CC2)cc1 (3D coordinates assigned)
[NH-]S(=O)(=O)c1ccc(N2CCC(N3CCc4ccc(F)cc43)CC2)cc1 (nonaromatic ring conformer: 78.22953181195706 kcal/mol)

>  <smiles>  (68) 
NS(=O)(=O)c1ccc(N2CCC(N3CCc4ccc(F)cc43)CC2)cc1

>  <score_type>  (68) 
oracle

>  <origin>  (68) 
adg

>  <m_score__min__energy>  (68) 
-10.68

>  <m_primary>  (68) 
energy

$$$$
68:0
     RDKit          3D

 47 48  0  0  0  0  0  0  0  0999 V2000
   59.5930   35.1050   45.9270 C   0  0  0  0  0  0  0  0  0  0  0  0
   58.1970   34.0060   45.8200 S   0  0  0  0  0  0  0  0  0  0  0  0
   57.5490   33.8460   47.1660 O   0  0  0  0  0  0  0  0  0  0  0  0
   57.1950   34.5930   44.8680 O   0  0  0  0  0  0  0  0  0  0  0  0
   58.7000   32.4610   45.2140 N   0  0  0  0  0  0  0  0  0  0  0  0
   57.8570   31.4980   44.5660 C   0  0  0  0  0  0  0  0  0  0  0  0
   57.5630   31.6750   43.2090 C   0  0  0  0  0  0  0  0  0  0  0  0
   56.7370   30.7690   42.5400 C   0  0  0  0  0  0  0  0  0  0  0  0
   56.2020   29.6730   43.2210 C   0  0  0  0  0  0  0  0  0  0  0  0
   56.5030   29.4650   44.5710 C   0  0  0  0  0  0  0  0  0  0  0  0
   55.9100   28.3470   45.2470 N   0  0  0  0  0  0  0  0  0  0  0  0
   56.5910   27.2010   45.7760 C   0  0  0  0  0  0  0  0  0  0  0  0
   55.9520   26.4040   46.5140 O   0  0  0  0  0  0  0  0  0  0  0  0
   58.0280   26.9030   45.4490 C   0  0  0  0  0  0  0  0  0  0  0  0
   58.8600   27.9300   45.9550 O   0  0  0  0  0  0  0  0  0  0  0  0
   58.8850   27.9030   47.3690 C   0  0  0  0  0  0  0  0  0  0  0  0
   58.9040   29.3350   47.9130 C   0  0  0  0  0  0  0  0  0  0  0  0
   60.0980   30.1430   47.4510 C   0  0  0  0  0  0  0  0  0  0  0  0
   60.9330   29.6170   46.6640 O   0  0  0  0  0  0  0  0  0  0  0  0
   60.3160   31.4940   47.9200 N   0  0  0  0  0  0  0  0  0  0  0  0
   61.2580   32.3590   47.1920 C   0  0  0  0  0  0  0  0  0  0  0  0
   61.7790   33.4740   48.1030 C   0  0  0  0  0  0  0  0  0  0  0  0
   60.7090   34.1510   48.7300 O   0  0  0  0  0  0  0  0  0  0  0  0
   60.0520   33.2690   49.6170 C   0  0  0  0  0  0  0  0  0  0  0  0
   59.3720   32.1300   48.8520 C   0  0  0  0  0  0  0  0  0  0  0  0
   57.3110   30.3950   45.2500 C   0  0  0  0  0  0  0  0  0  0  0  0
   59.8316   35.2928   46.9843 H   0  0  0  0  0  0  0  0  0  0  0  0
   60.4606   34.6450   45.4314 H   0  0  0  0  0  0  0  0  0  0  0  0
   59.3495   36.0564   45.4314 H   0  0  0  0  0  0  0  0  0  0  0  0
   57.9853   32.5333   42.6659 H   0  0  0  0  0  0  0  0  0  0  0  0
   56.5073   30.9188   41.4747 H   0  0  0  0  0  0  0  0  0  0  0  0
   55.5408   28.9701   42.6930 H   0  0  0  0  0  0  0  0  0  0  0  0
   58.3144   25.9437   45.9048 H   0  0  0  0  0  0  0  0  0  0  0  0
   58.1466   26.8458   44.3569 H   0  0  0  0  0  0  0  0  0  0  0  0
   57.9899   27.3826   47.7406 H   0  0  0  0  0  0  0  0  0  0  0  0
   59.7877   27.3731   47.7071 H   0  0  0  0  0  0  0  0  0  0  0  0
   57.9885   29.8458   47.5798 H   0  0  0  0  0  0  0  0  0  0  0  0
   58.9677   29.2630   49.0088 H   0  0  0  0  0  0  0  0  0  0  0  0
   62.1063   31.7539   46.8397 H   0  0  0  0  0  0  0  0  0  0  0  0
   60.7348   32.8138   46.3380 H   0  0  0  0  0  0  0  0  0  0  0  0
   62.4294   33.0353   48.8740 H   0  0  0  0  0  0  0  0  0  0  0  0
   62.3421   34.1945   47.4916 H   0  0  0  0  0  0  0  0  0  0  0  0
   60.7891   32.8445   50.3145 H   0  0  0  0  0  0  0  0  0  0  0  0
   59.2827   33.8317   50.1661 H   0  0  0  0  0  0  0  0  0  0  0  0
   59.0108   31.3783   49.5693 H   0  0  0  0  0  0  0  0  0  0  0  0
   58.5306   32.5432   48.2764 H   0  0  0  0  0  0  0  0  0  0  0  0
   57.5176   30.2597   46.3219 H   0  0  0  0  0  0  0  0  0  0  0  0
  1  2  1  0
  2  3  2  0
  2  4  2  0
  2  5  1  0
  5  6  1  0
  6  7  2  0
  7  8  1  0
  8  9  2  0
  9 10  1  0
 10 11  1  0
 11 12  1  0
 12 13  2  0
 12 14  1  0
 14 15  1  0
 15 16  1  0
 16 17  1  0
 17 18  1  0
 18 19  2  0
 18 20  1  0
 20 21  1  0
 21 22  1  0
 22 23  1  0
 23 24  1  0
 24 25  1  0
 10 26  2  0
 26  6  1  0
 25 20  1  0
  1 27  1  0
  1 28  1  0
  1 29  1  0
  7 30  1  0
  8 31  1  0
  9 32  1  0
 14 33  1  0
 14 34  1  0
 16 35  1  0
 16 36  1  0
 17 37  1  0
 17 38  1  0
 21 39  1  0
 21 40  1  0
 22 41  1  0
 22 42  1  0
 24 43  1  0
 24 44  1  0
 25 45  1  0
 25 46  1  0
 26 47  1  0
M  CHG  2   5  -1  11  -1
M  END
>  <UniqueID>  (69) 
66

>  <SMILES>  (69) 
CS(=O)(=O)[N-]c1cccc([N-]C(=O)COCCC(=O)N2CCOCC2)c1

>  <Energy>  (69) 
51.77839917569572

>  <Genealogy>  (69) 
CS(=O)(=O)[N-]c1cccc([N-]C(=O)COCCC(=O)N2CCOCC2)c1 (protonated)
CS(=O)(=O)[N-]c1cccc([N-]C(=O)COCCC(=O)N2CCOCC2)c1 (3D coordinates assigned)
CS(=O)(=O)[N-]c1cccc([N-]C(=O)COCCC(=O)N2CCOCC2)c1 (nonaromatic ring conformer: 51.77839917569572 kcal/mol)

>  <smiles>  (69) 
CS(=O)(=O)Nc1cccc(NC(=O)COCCC(=O)N2CCOCC2)c1

>  <score_type>  (69) 
oracle

>  <origin>  (69) 
adg

>  <m_score__min__energy>  (69) 
-11.279999999999999

>  <m_primary>  (69) 
energy

$$$$
69:0
     RDKit          3D

 57 60  0  0  0  0  0  0  0  0999 V2000
   57.8630   30.5730   46.5640 O   0  0  0  0  0  0  0  0  0  0  0  0
   57.7900   30.8570   45.3380 C   0  0  0  0  0  0  0  0  0  0  0  0
   57.6130   29.7720   44.3260 C   0  0  0  0  0  0  0  0  0  0  0  0
   57.2030   28.4900   44.9850 C   0  0  0  0  0  0  0  0  0  0  0  0
   55.9230   28.1820   45.2650 N   0  0  0  0  0  0  0  0  0  0  0  0
   56.0150   26.9770   45.8610 C   0  0  0  0  0  0  0  0  0  0  0  0
   55.0060   26.3460   46.2730 O   0  0  0  0  0  0  0  0  0  0  0  0
   57.2700   26.5020   45.9840 N   0  0  0  0  0  0  0  0  0  0  0  0
   58.0250   27.4680   45.4300 C   0  0  0  0  0  0  0  0  0  0  0  0
   59.5190   27.3850   45.3360 C   0  0  0  0  0  0  0  0  0  0  0  0
   60.2080   26.5710   46.8150 S   0  0  0  0  0  0  0  0  0  0  0  0
   60.3140   28.0800   47.7830 C   0  0  0  0  0  0  0  0  0  0  0  0
   60.4800   29.3150   47.1440 C   0  0  0  0  0  0  0  0  0  0  0  0
   60.5620   30.4880   47.9010 C   0  0  0  0  0  0  0  0  0  0  0  0
   60.4910   30.4270   49.2960 C   0  0  0  0  0  0  0  0  0  0  0  0
   60.3340   29.1940   49.9360 C   0  0  0  0  0  0  0  0  0  0  0  0
   60.2440   28.0200   49.1800 C   0  0  0  0  0  0  0  0  0  0  0  0
   57.8900   32.2120   44.8980 N   0  0  0  0  0  0  0  0  0  0  0  0
   57.2920   33.3610   45.5720 C   0  0  2  0  0  0  0  0  0  0  0  0
   57.7200   34.6640   44.8840 C   0  0  0  0  0  0  0  0  0  0  0  0
   59.2430   34.8810   45.0000 C   0  0  0  0  0  0  0  0  0  0  0  0
   59.8140   34.5570   46.3440 N   0  0  2  0  0  0  0  0  0  0  0  0
   60.7070   33.3680   46.3230 C   0  0  0  0  0  0  0  0  0  0  0  0
   61.7920   33.4520   47.3750 C   0  0  0  0  0  0  0  0  0  0  0  0
   61.4920   33.9360   48.6580 C   0  0  0  0  0  0  0  0  0  0  0  0
   62.4910   34.0100   49.6340 C   0  0  0  0  0  0  0  0  0  0  0  0
   63.7950   33.6030   49.3360 C   0  0  0  0  0  0  0  0  0  0  0  0
   64.1010   33.1200   48.0600 C   0  0  0  0  0  0  0  0  0  0  0  0
   63.1050   33.0450   47.0830 C   0  0  0  0  0  0  0  0  0  0  0  0
   58.7770   34.4240   47.3970 C   0  0  0  0  0  0  0  0  0  0  0  0
   57.7110   33.3600   47.0590 C   0  0  0  0  0  0  0  0  0  0  0  0
   56.8361   30.0725   43.6075 H   0  0  0  0  0  0  0  0  0  0  0  0
   58.5712   29.6120   43.8100 H   0  0  0  0  0  0  0  0  0  0  0  0
   59.7938   26.8051   44.4426 H   0  0  0  0  0  0  0  0  0  0  0  0
   59.9282   28.4038   45.2676 H   0  0  0  0  0  0  0  0  0  0  0  0
   60.5459   29.3624   46.0470 H   0  0  0  0  0  0  0  0  0  0  0  0
   60.6824   31.4592   47.3986 H   0  0  0  0  0  0  0  0  0  0  0  0
   60.5587   31.3500   49.8905 H   0  0  0  0  0  0  0  0  0  0  0  0
   60.2812   29.1468   51.0337 H   0  0  0  0  0  0  0  0  0  0  0  0
   60.1183   27.0500   49.6833 H   0  0  0  0  0  0  0  0  0  0  0  0
   56.1959   33.2906   45.5120 H   0  0  0  0  0  0  0  0  0  0  0  0
   57.4443   34.6156   43.8202 H   0  0  0  0  0  0  0  0  0  0  0  0
   57.2095   35.5035   45.3787 H   0  0  0  0  0  0  0  0  0  0  0  0
   59.7389   34.2437   44.2531 H   0  0  0  0  0  0  0  0  0  0  0  0
   59.4201   35.9540   44.8347 H   0  0  0  0  0  0  0  0  0  0  0  0
   60.4030   35.3740   46.6370 H   0  0  0  0  0  0  0  0  0  0  0  0
   60.1029   32.4674   46.5076 H   0  0  0  0  0  0  0  0  0  0  0  0
   61.1935   33.3272   45.3373 H   0  0  0  0  0  0  0  0  0  0  0  0
   60.4677   34.2582   48.8966 H   0  0  0  0  0  0  0  0  0  0  0  0
   62.2503   34.3892   50.6381 H   0  0  0  0  0  0  0  0  0  0  0  0
   64.5795   33.6627   50.1047 H   0  0  0  0  0  0  0  0  0  0  0  0
   65.1265   32.7989   47.8252 H   0  0  0  0  0  0  0  0  0  0  0  0
   63.3499   32.6654   46.0800 H   0  0  0  0  0  0  0  0  0  0  0  0
   59.2683   34.1415   48.3398 H   0  0  0  0  0  0  0  0  0  0  0  0
   58.2624   35.3928   47.4779 H   0  0  0  0  0  0  0  0  0  0  0  0
   58.1179   32.3683   47.3058 H   0  0  0  0  0  0  0  0  0  0  0  0
   56.8142   33.6004   47.6489 H   0  0  0  0  0  0  0  0  0  0  0  0
  1  2  2  0
  2  3  1  0
  3  4  1  0
  4  5  1  0
  5  6  1  0
  6  7  2  0
  6  8  1  0
  8  9  1  0
  9 10  1  0
 10 11  1  0
 11 12  1  0
 12 13  2  0
 13 14  1  0
 14 15  2  0
 15 16  1  0
 16 17  2  0
  2 18  1  0
 18 19  1  0
 19 20  1  0
 20 21  1  0
 21 22  1  0
 22 23  1  0
 23 24  1  0
 24 25  2  0
 25 26  1  0
 26 27  2  0
 27 28  1  0
 28 29  2  0
 22 30  1  0
 30 31  1  0
  9  4  2  0
 17 12  1  0
 31 19  1  0
 29 24  1  0
  3 32  1  0
  3 33  1  0
 10 34  1  0
 10 35  1  0
 13 36  1  0
 14 37  1  0
 15 38  1  0
 16 39  1  0
 17 40  1  0
 19 41  1  1
 20 42  1  0
 20 43  1  0
 21 44  1  0
 21 45  1  0
 22 46  1  1
 23 47  1  0
 23 48  1  0
 25 49  1  0
 26 50  1  0
 27 51  1  0
 28 52  1  0
 29 53  1  0
 30 54  1  0
 30 55  1  0
 31 56  1  0
 31 57  1  0
M  CHG  4   5  -1   8  -1  18  -1  22   1
M  END
>  <UniqueID>  (70) 
67

>  <SMILES>  (70) 
O=C(Cc1[n-]c(=O)[n-]c1CSc1ccccc1)[N-]C1CC[NH+](Cc2ccccc2)CC1

>  <Energy>  (70) 
84.7693424876754

>  <Genealogy>  (70) 
O=C(Cc1[n-]c(=O)[n-]c1CSc1ccccc1)[N-]C1CC[NH+](Cc2ccccc2)CC1 (protonated)
O=C(Cc1[n-]c(=O)[n-]c1CSc1ccccc1)[N-]C1CC[NH+](Cc2ccccc2)CC1 (3D coordinates assigned)
O=C(Cc1[n-]c(=O)[n-]c1CSc1ccccc1)[N-]C1CC[NH+](Cc2ccccc2)CC1 (nonaromatic ring conformer: 84.7693424876754 kcal/mol)

>  <smiles>  (70) 
O=C(Cc1[nH]c(=O)[nH]c1CSc1ccccc1)NC1CCN(Cc2ccccc2)CC1

>  <score_type>  (70) 
oracle

>  <origin>  (70) 
adg

>  <m_score__min__energy>  (70) 
-12.630000000000001

>  <m_primary>  (70) 
energy

$$$$
70:0
     RDKit          3D

 58 59  0  0  0  0  0  0  0  0999 V2000
   57.5970   23.6530   45.2340 C   0  0  0  0  0  0  0  0  0  0  0  0
   57.2400   24.6740   46.0140 C   0  0  0  0  0  0  0  0  0  0  0  0
   57.4660   26.0920   45.6480 C   0  0  0  0  0  0  0  0  0  0  0  0
   58.7760   26.5020   45.3630 C   0  0  0  0  0  0  0  0  0  0  0  0
   59.0470   27.8270   45.0190 C   0  0  0  0  0  0  0  0  0  0  0  0
   58.0080   28.7730   44.9630 C   0  0  0  0  0  0  0  0  0  0  0  0
   58.2320   30.1160   44.6250 O   0  0  0  0  0  0  0  0  0  0  0  0
   57.2210   30.9980   44.1420 C   0  0  0  0  0  0  0  0  0  0  0  0
   57.8650   32.2810   43.6180 C   0  0  0  0  0  0  0  0  0  0  0  0
   57.5010   33.4830   44.5010 C   0  0  0  0  0  0  0  0  0  0  0  0
   58.4410   33.6520   45.7060 C   0  0  0  0  0  0  0  0  0  0  0  0
   57.7530   33.4280   47.0560 C   0  0  0  0  0  0  0  0  0  0  0  0
   58.4970   32.4990   47.8400 O   0  0  0  0  0  0  0  0  0  0  0  0
   59.8210   32.6900   48.2710 C   0  0  0  0  0  0  0  0  0  0  0  0
   60.1420   33.6630   49.2290 C   0  0  0  0  0  0  0  0  0  0  0  0
   61.4620   33.8710   49.6130 C   0  0  0  0  0  0  0  0  0  0  0  0
   62.5060   33.1210   49.0520 C   0  0  0  0  0  0  0  0  0  0  0  0
   63.9020   33.4260   49.4800 C   0  0  0  0  0  0  0  0  0  0  0  0
   64.2380   33.9240   50.8530 C   0  0  0  0  0  0  0  0  0  0  0  0
   64.8500   33.2560   48.6640 O   0  0  0  0  0  0  0  0  0  0  0  0
   62.1980   32.1090   48.1110 C   0  0  0  0  0  0  0  0  0  0  0  0
   63.2380   31.3290   47.5900 O   0  0  0  0  0  0  0  0  0  0  0  0
   60.8470   31.8880   47.7230 C   0  0  0  0  0  0  0  0  0  0  0  0
   60.4900   30.8280   46.6990 C   0  0  0  0  0  0  0  0  0  0  0  0
   60.3900   29.4480   47.3580 C   0  0  0  0  0  0  0  0  0  0  0  0
   59.1220   29.3300   48.2030 C   0  0  0  0  0  0  0  0  0  0  0  0
   56.7030   28.3740   45.2720 C   0  0  0  0  0  0  0  0  0  0  0  0
   56.4290   27.0490   45.6280 C   0  0  0  0  0  0  0  0  0  0  0  0
   55.1320   26.7100   45.9980 O   0  0  0  0  0  0  0  0  0  0  0  0
   57.4038   22.6197   45.5579 H   0  0  0  0  0  0  0  0  0  0  0  0
   58.0846   23.8441   44.2667 H   0  0  0  0  0  0  0  0  0  0  0  0
   56.7542   24.4528   46.9758 H   0  0  0  0  0  0  0  0  0  0  0  0
   59.5979   25.7725   45.4110 H   0  0  0  0  0  0  0  0  0  0  0  0
   60.0786   28.1330   44.7905 H   0  0  0  0  0  0  0  0  0  0  0  0
   56.6667   30.5081   43.3279 H   0  0  0  0  0  0  0  0  0  0  0  0
   56.5307   31.2452   44.9620 H   0  0  0  0  0  0  0  0  0  0  0  0
   58.9581   32.1577   43.6119 H   0  0  0  0  0  0  0  0  0  0  0  0
   57.4913   32.4691   42.6007 H   0  0  0  0  0  0  0  0  0  0  0  0
   57.5497   34.3952   43.8882 H   0  0  0  0  0  0  0  0  0  0  0  0
   56.4897   33.3060   44.8958 H   0  0  0  0  0  0  0  0  0  0  0  0
   59.2631   32.9275   45.6101 H   0  0  0  0  0  0  0  0  0  0  0  0
   58.7972   34.6927   45.6940 H   0  0  0  0  0  0  0  0  0  0  0  0
   57.6867   34.3856   47.5932 H   0  0  0  0  0  0  0  0  0  0  0  0
   56.7447   33.0241   46.8821 H   0  0  0  0  0  0  0  0  0  0  0  0
   59.3416   34.2673   49.6809 H   0  0  0  0  0  0  0  0  0  0  0  0
   61.6913   34.6363   50.3691 H   0  0  0  0  0  0  0  0  0  0  0  0
   63.7888   33.2582   51.6046 H   0  0  0  0  0  0  0  0  0  0  0  0
   65.3304   33.9373   50.9811 H   0  0  0  0  0  0  0  0  0  0  0  0
   63.8414   34.9420   50.9811 H   0  0  0  0  0  0  0  0  0  0  0  0
   64.1570   31.6810   47.3580 H   0  0  0  0  0  0  0  0  0  0  0  0
   59.5222   31.0802   46.2411 H   0  0  0  0  0  0  0  0  0  0  0  0
   61.2790   30.7971   45.9331 H   0  0  0  0  0  0  0  0  0  0  0  0
   60.3720   28.6765   46.5742 H   0  0  0  0  0  0  0  0  0  0  0  0
   61.2611   29.3121   48.0159 H   0  0  0  0  0  0  0  0  0  0  0  0
   59.3887   29.3548   49.2699 H   0  0  0  0  0  0  0  0  0  0  0  0
   58.4491   30.1694   47.9736 H   0  0  0  0  0  0  0  0  0  0  0  0
   58.6155   28.3808   47.9736 H   0  0  0  0  0  0  0  0  0  0  0  0
   55.8851   29.1087   45.2347 H   0  0  0  0  0  0  0  0  0  0  0  0
  1  2  2  0
  2  3  1  0
  3  4  2  0
  4  5  1  0
  5  6  2  0
  6  7  1  0
  7  8  1  0
  8  9  1  0
  9 10  1  0
 10 11  1  0
 11 12  1  0
 12 13  1  0
 13 14  1  0
 14 15  2  0
 15 16  1  0
 16 17  2  0
 17 18  1  0
 18 19  1  0
 18 20  2  0
 17 21  1  0
 21 22  1  0
 21 23  2  0
 23 24  1  0
 24 25  1  0
 25 26  1  0
  6 27  1  0
 27 28  2  0
 28 29  1  0
 28  3  1  0
 23 14  1  0
  1 30  1  0
  1 31  1  0
  2 32  1  0
  4 33  1  0
  5 34  1  0
  8 35  1  0
  8 36  1  0
  9 37  1  0
  9 38  1  0
 10 39  1  0
 10 40  1  0
 11 41  1  0
 11 42  1  0
 12 43  1  0
 12 44  1  0
 15 45  1  0
 16 46  1  0
 19 47  1  0
 19 48  1  0
 19 49  1  0
 22 50  1  0
 24 51  1  0
 24 52  1  0
 25 53  1  0
 25 54  1  0
 26 55  1  0
 26 56  1  0
 26 57  1  0
 27 58  1  0
M  CHG  1  29  -1
M  END
>  <UniqueID>  (71) 
68

>  <SMILES>  (71) 
C=Cc1ccc(OCCCCCOc2ccc(C(C)=O)c(O)c2CCC)cc1[O-]

>  <Energy>  (71) 
54.11486627109759

>  <Genealogy>  (71) 
C=Cc1ccc(OCCCCCOc2ccc(C(C)=O)c(O)c2CCC)cc1[O-] (protonated)
C=Cc1ccc(OCCCCCOc2ccc(C(C)=O)c(O)c2CCC)cc1[O-] (3D coordinates assigned)
C=Cc1ccc(OCCCCCOc2ccc(C(C)=O)c(O)c2CCC)cc1[O-] (optimized conformer: 54.11486627109759 kcal/mol)

>  <smiles>  (71) 
C=Cc1ccc(OCCCCCOc2ccc(C(C)=O)c(O)c2CCC)cc1O

>  <score_type>  (71) 
oracle

>  <origin>  (71) 
adg

>  <m_score__min__energy>  (71) 
-11.67

>  <m_primary>  (71) 
energy

$$$$
71:0
     RDKit          3D

 47 50  0  0  0  0  0  0  0  0999 V2000
   52.0580   22.8160   44.0520 H   0  0  0  0  0  0  0  0  0  0  0  0
   52.5570   23.2000   44.8850 N   0  0  0  0  0  0  0  0  0  0  0  0
   53.8440   23.3200   44.9000 C   0  0  0  0  0  0  0  0  0  0  0  0
   54.5880   23.1710   46.0150 N   0  0  0  0  0  0  0  0  0  0  0  0
   55.9120   23.3560   45.7560 C   0  0  0  0  0  0  0  0  0  0  0  0
   56.9350   23.1830   46.8130 C   0  0  0  0  0  0  0  0  0  0  0  0
   57.3770   21.9820   47.0400 N   0  0  0  0  0  0  0  0  0  0  0  0
   57.3100   21.3800   48.2760 O   0  0  0  0  0  0  0  0  0  0  0  0
   56.3350   20.3850   48.5370 C   0  0  0  0  0  0  0  0  0  0  0  0
   56.2164   20.2640   49.6239 H   0  0  0  0  0  0  0  0  0  0  0  0
   55.3744   20.6880   48.0948 H   0  0  0  0  0  0  0  0  0  0  0  0
   56.6574   19.4308   48.0948 H   0  0  0  0  0  0  0  0  0  0  0  0
   57.4070   24.3410   47.6120 C   0  0  0  0  0  0  0  0  0  0  0  0
   57.1900   24.3920   48.8540 O   0  0  0  0  0  0  0  0  0  0  0  0
   58.1030   25.4140   46.9690 N   0  0  0  0  0  0  0  0  0  0  0  0
   57.6570   26.8020   47.0180 C   0  0  2  0  0  0  0  0  0  0  0  0
   57.4620   26.9391   48.0919 H   0  0  0  0  0  0  0  0  0  0  0  0
   56.6240   27.0590   45.9690 C   0  0  0  0  0  0  0  0  0  0  0  0
   55.4510   26.6570   45.7500 O   0  0  0  0  0  0  0  0  0  0  0  0
   57.5470   28.0140   45.3110 N   0  0  0  0  0  0  0  0  0  0  0  0
   58.5340   27.7000   46.3090 C   0  0  1  0  0  0  0  0  0  0  0  0
   59.5233   27.2968   46.0467 H   0  0  0  0  0  0  0  0  0  0  0  0
   58.9170   29.2340   47.1960 S   0  0  0  0  0  0  0  0  0  0  0  0
   59.4920   30.0770   45.6730 C   0  0  0  0  0  0  0  0  0  0  0  0
   60.3397   29.5088   45.2625 H   0  0  0  0  0  0  0  0  0  0  0  0
   59.7684   31.1017   45.9621 H   0  0  0  0  0  0  0  0  0  0  0  0
   58.4220   30.1980   44.5850 C   0  0  0  0  0  0  0  0  0  0  0  0
   58.4320   31.2440   43.7230 C   0  0  0  0  0  0  0  0  0  0  0  0
   59.1177   31.1941   42.8643 H   0  0  0  0  0  0  0  0  0  0  0  0
   57.3990   32.7100   43.8880 S   0  0  0  0  0  0  0  0  0  0  0  0
   58.0730   33.1150   45.4920 C   0  0  0  0  0  0  0  0  0  0  0  0
   57.5650   32.6530   46.6550 N   0  0  0  0  0  0  0  0  0  0  0  0
   58.2550   33.0520   47.7230 N   0  0  0  0  0  0  0  0  0  0  0  0
   59.3090   33.8400   47.4120 C   0  0  0  0  0  0  0  0  0  0  0  0
   60.2920   34.3340   48.4180 C   0  0  0  0  0  0  0  0  0  0  0  0
   59.9084   34.1412   49.4308 H   0  0  0  0  0  0  0  0  0  0  0  0
   61.2497   33.8101   48.2828 H   0  0  0  0  0  0  0  0  0  0  0  0
   60.4432   35.4151   48.2828 H   0  0  0  0  0  0  0  0  0  0  0  0
   59.4520   34.0450   45.7450 S   0  0  0  0  0  0  0  0  0  0  0  0
   57.4660   29.0390   44.2820 C   0  0  2  0  0  0  0  0  0  0  0  0
   57.7718   28.6089   43.3169 H   0  0  0  0  0  0  0  0  0  0  0  0
   56.0460   29.5220   44.1790 C   0  0  0  0  0  0  0  0  0  0  0  0
   55.6440   30.1110   43.1390 O   0  0  0  0  0  0  0  0  0  0  0  0
   55.1710   29.3390   45.2440 O   0  0  0  0  0  0  0  0  0  0  0  0
   56.2140   23.6430   44.4200 C   0  0  0  0  0  0  0  0  0  0  0  0
   57.2192   23.8198   44.0097 H   0  0  0  0  0  0  0  0  0  0  0  0
   54.7720   23.6710   43.5480 S   0  0  0  0  0  0  0  0  0  0  0  0
  1  2  1  0
  2  3  2  3
  3  4  1  0
  4  5  1  0
  5  6  1  0
  6  7  2  0
  7  8  1  0
  8  9  1  0
  9 10  1  0
  9 11  1  0
  9 12  1  0
  6 13  1  0
 13 14  2  0
 13 15  1  0
 15 16  1  0
 16 17  1  1
 16 18  1  0
 18 19  2  0
 18 20  1  0
 20 21  1  0
 21 22  1  6
 21 23  1  0
 23 24  1  0
 24 25  1  0
 24 26  1  0
 24 27  1  0
 27 28  2  0
 28 29  1  0
 28 30  1  0
 30 31  1  0
 31 32  2  0
 32 33  1  0
 33 34  2  0
 34 35  1  0
 35 36  1  0
 35 37  1  0
 35 38  1  0
 34 39  1  0
 27 40  1  0
 40 41  1  6
 40 42  1  0
 42 43  2  0
 42 44  1  0
  5 45  2  0
 45 46  1  0
 45 47  1  0
 47  3  1  0
 21 16  1  0
 39 31  1  0
 40 20  1  0
M  CHG  3   4  -1  15  -1  44  -1
M  END
>  <UniqueID>  (72) 
69

>  <SMILES>  (72) 
CO/N=C(\C(=O)[N-][C@@H]1C(=O)N2C1SC/C(=C\Sc1nnc(C)s1)[C@@H]2C(=O)[O-])c1csc(=N)[n-]1

>  <Energy>  (72) 
142.32538601625055

>  <Genealogy>  (72) 
CON=C(C(=O)[N-]C1C(=O)N2C(C(=O)[O-])C(=CSc3nnc(C)s3)CSC12)c1csc(=N)[n-]1 (protonated)
CON=C(C(=O)[N-][C@@H]1C(=O)N2C1SCC(=CSc1nnc(C)s1)[C@@H]2C(=O)[O-])c1csc(=N)[n-]1 (chirality)
CO/N=C(\C(=O)[N-][C@@H]1C(=O)N2C1SC/C(=C\Sc1nnc(C)s1)[C@@H]2C(=O)[O-])c1csc(=N)[n-]1 (cis-trans isomerization)
CO/N=C(\C(=O)[N-][C@@H]1C(=O)N2C1SC/C(=C\Sc1nnc(C)s1)[C@@H]2C(=O)[O-])c1csc(=N)[n-]1 (3D coordinates assigned)
CO/N=C(\C(=O)[N-][C@@H]1C(=O)N2C1SC/C(=C\Sc1nnc(C)s1)[C@@H]2C(=O)[O-])c1csc(=N)[n-]1 (nonaromatic ring conformer: 142.32538601625055 kcal/mol)

>  <smiles>  (72) 
CON=C(C(=O)NC1C(=O)N2C(C(=O)O)C(=CSc3nnc(C)s3)CSC12)c1csc(=N)[nH]1

>  <score_type>  (72) 
oracle

>  <origin>  (72) 
adg

>  <m_score__min__energy>  (72) 
-14.68

>  <m_primary>  (72) 
energy

$$$$
72:0
     RDKit          3D

 51 54  0  0  0  0  0  0  0  0999 V2000
   59.7590   29.3090   44.6290 C   0  0  0  0  0  0  0  0  0  0  0  0
   58.4220   29.3230   44.5400 C   0  0  0  0  0  0  0  0  0  0  0  0
   57.5310   28.2440   44.6500 C   0  0  0  0  0  0  0  0  0  0  0  0
   57.7700   26.9230   44.7220 C   0  0  0  0  0  0  0  0  0  0  0  0
   57.3830   26.0420   45.8330 C   0  0  0  0  0  0  0  0  0  0  0  0
   58.3630   24.8430   46.5080 S   0  0  0  0  0  0  0  0  0  0  0  0
   57.1190   24.2580   47.4760 C   0  0  0  0  0  0  0  0  0  0  0  0
   57.2390   23.3000   48.2830 O   0  0  0  0  0  0  0  0  0  0  0  0
   55.9590   24.9210   47.2900 N   0  0  0  0  0  0  0  0  0  0  0  0
   56.0980   25.9050   46.3620 C   0  0  0  0  0  0  0  0  0  0  0  0
   55.0210   26.7040   45.9880 O   0  0  0  0  0  0  0  0  0  0  0  0
   56.2670   28.7210   44.6710 N   0  0  0  0  0  0  0  0  0  0  0  0
   56.4060   30.0530   44.5360 C   0  0  0  0  0  0  0  0  0  0  0  0
   55.4220   30.8400   44.5050 O   0  0  0  0  0  0  0  0  0  0  0  0
   57.6880   30.4570   44.4480 N   0  0  0  0  0  0  0  0  0  0  0  0
   58.1620   31.8440   44.3330 C   0  0  0  0  0  0  0  0  0  0  0  0
   57.7990   32.6430   45.5610 C   0  0  0  0  0  0  0  0  0  0  0  0
   56.5810   32.7810   45.8590 O   0  0  0  0  0  0  0  0  0  0  0  0
   58.8140   33.1770   46.4400 N   0  0  0  0  0  0  0  0  0  0  0  0
   60.1600   33.4750   45.9240 C   0  0  0  0  0  0  0  0  0  0  0  0
   60.9980   34.2650   46.9330 C   0  0  0  0  0  0  0  0  0  0  0  0
   60.9100   33.6410   48.2580 N   0  0  0  0  0  0  0  0  0  0  0  0
   62.0550   33.6520   49.1300 C   0  0  0  0  0  0  0  0  0  0  0  0
   62.8960   34.5880   49.0460 O   0  0  0  0  0  0  0  0  0  0  0  0
   62.2540   32.5970   50.1450 C   0  0  0  0  0  0  0  0  0  0  0  0
   62.7220   32.9560   51.4200 C   0  0  0  0  0  0  0  0  0  0  0  0
   62.9100   31.9820   52.4040 C   0  0  0  0  0  0  0  0  0  0  0  0
   62.6430   30.6400   52.1210 C   0  0  0  0  0  0  0  0  0  0  0  0
   62.1990   30.2680   50.8500 C   0  0  0  0  0  0  0  0  0  0  0  0
   62.0080   31.2360   49.8550 C   0  0  0  0  0  0  0  0  0  0  0  0
   61.5350   30.6970   48.2460 Cl  0  0  0  0  0  0  0  0  0  0  0  0
   59.6080   33.1900   48.7760 C   0  0  0  0  0  0  0  0  0  0  0  0
   58.4640   33.5470   47.8200 C   0  0  0  0  0  0  0  0  0  0  0  0
   60.3273   30.2446   44.5204 H   0  0  0  0  0  0  0  0  0  0  0  0
   60.2882   28.3620   44.8107 H   0  0  0  0  0  0  0  0  0  0  0  0
   58.3011   26.4616   43.8764 H   0  0  0  0  0  0  0  0  0  0  0  0
   55.1420   27.5150   45.3910 H   0  0  0  0  0  0  0  0  0  0  0  0
   59.2557   31.8418   44.2155 H   0  0  0  0  0  0  0  0  0  0  0  0
   57.6815   32.3073   43.4587 H   0  0  0  0  0  0  0  0  0  0  0  0
   60.6727   32.5278   45.7006 H   0  0  0  0  0  0  0  0  0  0  0  0
   60.0489   34.0898   45.0186 H   0  0  0  0  0  0  0  0  0  0  0  0
   62.0478   34.2761   46.6048 H   0  0  0  0  0  0  0  0  0  0  0  0
   60.6143   35.2942   46.9930 H   0  0  0  0  0  0  0  0  0  0  0  0
   62.9417   34.0101   51.6450 H   0  0  0  0  0  0  0  0  0  0  0  0
   63.2686   32.2720   53.4026 H   0  0  0  0  0  0  0  0  0  0  0  0
   62.7826   29.8758   52.8998 H   0  0  0  0  0  0  0  0  0  0  0  0
   61.9982   29.2093   50.6289 H   0  0  0  0  0  0  0  0  0  0  0  0
   59.6353   32.0982   48.9076 H   0  0  0  0  0  0  0  0  0  0  0  0
   59.4254   33.6977   49.7346 H   0  0  0  0  0  0  0  0  0  0  0  0
   57.5566   33.0035   48.1218 H   0  0  0  0  0  0  0  0  0  0  0  0
   58.2875   34.6318   47.8645 H   0  0  0  0  0  0  0  0  0  0  0  0
  1  2  2  0
  2  3  1  0
  3  4  2  3
  4  5  1  0
  5  6  1  0
  6  7  1  0
  7  8  2  0
  7  9  1  0
  9 10  1  0
 10 11  1  0
  3 12  1  0
 12 13  1  0
 13 14  2  0
 13 15  1  0
 15 16  1  0
 16 17  1  0
 17 18  2  0
 17 19  1  0
 19 20  1  0
 20 21  1  0
 21 22  1  0
 22 23  1  0
 23 24  2  0
 23 25  1  0
 25 26  2  0
 26 27  1  0
 27 28  2  0
 28 29  1  0
 29 30  2  0
 30 31  1  0
 22 32  1  0
 32 33  1  0
 15  2  1  0
 33 19  1  0
 10  5  2  0
 30 25  1  0
  1 34  1  0
  1 35  1  0
  4 36  1  0
 11 37  1  0
 16 38  1  0
 16 39  1  0
 20 40  1  0
 20 41  1  0
 21 42  1  0
 21 43  1  0
 26 44  1  0
 27 45  1  0
 28 46  1  0
 29 47  1  0
 32 48  1  0
 32 49  1  0
 33 50  1  0
 33 51  1  0
M  CHG  2   9  -1  12  -1
M  END
>  <UniqueID>  (73) 
70

>  <SMILES>  (73) 
C=c1c(=Cc2sc(=O)[n-]c2O)[n-]c(=O)n1CC(=O)N1CCN(C(=O)c2ccccc2Cl)CC1

>  <Energy>  (73) 
137.3681748954975

>  <Genealogy>  (73) 
C=c1c(=Cc2sc(=O)[n-]c2O)[n-]c(=O)n1CC(=O)N1CCN(C(=O)c2ccccc2Cl)CC1 (protonated)
C=c1c(=Cc2sc(=O)[n-]c2O)[n-]c(=O)n1CC(=O)N1CCN(C(=O)c2ccccc2Cl)CC1 (3D coordinates assigned)
C=c1c(=Cc2sc(=O)[n-]c2O)[n-]c(=O)n1CC(=O)N1CCN(C(=O)c2ccccc2Cl)CC1 (nonaromatic ring conformer: 137.3681748954975 kcal/mol)

>  <smiles>  (73) 
C=c1c(=Cc2sc(=O)[nH]c2O)[nH]c(=O)n1CC(=O)N1CCN(C(=O)c2ccccc2Cl)CC1

>  <score_type>  (73) 
oracle

>  <origin>  (73) 
adg

>  <m_score__min__energy>  (73) 
-14.1

>  <m_primary>  (73) 
energy

$$$$
73:0
     RDKit          3D

 47 49  0  0  0  0  0  0  0  0999 V2000
   55.1650   29.3400   44.9660 O   0  0  0  0  0  0  0  0  0  0  0  0
   56.3900   29.5510   44.7660 C   0  0  0  0  0  0  0  0  0  0  0  0
   57.3110   28.3960   44.5300 C   0  0  0  0  0  0  0  0  0  0  0  0
   57.4180   27.5940   45.7030 O   0  0  0  0  0  0  0  0  0  0  0  0
   56.5580   26.5260   45.9850 C   0  0  0  0  0  0  0  0  0  0  0  0
   55.3110   26.7010   46.0180 O   0  0  0  0  0  0  0  0  0  0  0  0
   57.0830   25.2120   46.1850 N   0  0  0  0  0  0  0  0  0  0  0  0
   57.0530   24.1590   45.2130 C   0  0  0  0  0  0  0  0  0  0  0  0
   55.9300   24.0390   44.3840 C   0  0  0  0  0  0  0  0  0  0  0  0
   55.8630   23.0210   43.4270 C   0  0  0  0  0  0  0  0  0  0  0  0
   56.9110   22.1060   43.3050 C   0  0  0  0  0  0  0  0  0  0  0  0
   58.0180   22.1960   44.1520 C   0  0  0  0  0  0  0  0  0  0  0  0
   58.0920   23.2120   45.1120 C   0  0  0  0  0  0  0  0  0  0  0  0
   59.1380   23.2270   45.9780 F   0  0  0  0  0  0  0  0  0  0  0  0
   56.9100   30.8870   44.7280 N   0  0  0  0  0  0  0  0  0  0  0  0
   57.7140   31.5210   45.7320 C   0  0  0  0  0  0  0  0  0  0  0  0
   58.5210   30.7860   46.6190 C   0  0  0  0  0  0  0  0  0  0  0  0
   59.3080   31.4460   47.5670 C   0  0  0  0  0  0  0  0  0  0  0  0
   59.3140   32.8470   47.6320 C   0  0  0  0  0  0  0  0  0  0  0  0
   60.2960   33.6790   48.8420 S   0  0  0  0  0  0  0  0  0  0  0  0
   59.6190   34.9690   49.2160 O   0  0  0  0  0  0  0  0  0  0  0  0
   60.3790   32.8240   50.0750 O   0  0  0  0  0  0  0  0  0  0  0  0
   61.9140   34.0280   48.2840 N   0  0  0  0  0  0  0  0  0  0  0  0
   62.9190   33.2250   48.9760 C   0  0  0  0  0  0  0  0  0  0  0  0
   64.1180   33.1480   48.0460 C   0  0  0  0  0  0  0  0  0  0  0  0
   63.5640   33.4330   46.6570 C   0  0  0  0  0  0  0  0  0  0  0  0
   62.0850   33.7280   46.8630 C   0  0  0  0  0  0  0  0  0  0  0  0
   58.5210   33.5790   46.7400 C   0  0  0  0  0  0  0  0  0  0  0  0
   57.7360   32.9200   45.7900 C   0  0  0  0  0  0  0  0  0  0  0  0
   56.9176   27.7819   43.7065 H   0  0  0  0  0  0  0  0  0  0  0  0
   58.3078   28.7833   44.2722 H   0  0  0  0  0  0  0  0  0  0  0  0
   55.0963   24.7493   44.4862 H   0  0  0  0  0  0  0  0  0  0  0  0
   54.9843   22.9411   42.7701 H   0  0  0  0  0  0  0  0  0  0  0  0
   56.8647   21.3148   42.5422 H   0  0  0  0  0  0  0  0  0  0  0  0
   58.8354   21.4651   44.0642 H   0  0  0  0  0  0  0  0  0  0  0  0
   58.5328   29.6873   46.5664 H   0  0  0  0  0  0  0  0  0  0  0  0
   59.9261   30.8634   48.2660 H   0  0  0  0  0  0  0  0  0  0  0  0
   63.2028   33.7047   49.9243 H   0  0  0  0  0  0  0  0  0  0  0  0
   62.5341   32.2228   49.2158 H   0  0  0  0  0  0  0  0  0  0  0  0
   64.8704   33.9010   48.3233 H   0  0  0  0  0  0  0  0  0  0  0  0
   64.6161   32.1686   48.0972 H   0  0  0  0  0  0  0  0  0  0  0  0
   64.0710   34.3016   46.2114 H   0  0  0  0  0  0  0  0  0  0  0  0
   63.7202   32.5857   45.9731 H   0  0  0  0  0  0  0  0  0  0  0  0
   61.7815   34.5918   46.2533 H   0  0  0  0  0  0  0  0  0  0  0  0
   61.4634   32.8725   46.5600 H   0  0  0  0  0  0  0  0  0  0  0  0
   58.5158   34.6780   46.7872 H   0  0  0  0  0  0  0  0  0  0  0  0
   57.1305   33.5049   45.0821 H   0  0  0  0  0  0  0  0  0  0  0  0
  1  2  2  0
  2  3  1  0
  3  4  1  0
  4  5  1  0
  5  6  2  0
  5  7  1  0
  7  8  1  0
  8  9  2  0
  9 10  1  0
 10 11  2  0
 11 12  1  0
 12 13  2  0
 13 14  1  0
  2 15  1  0
 15 16  1  0
 16 17  2  0
 17 18  1  0
 18 19  2  0
 19 20  1  0
 20 21  2  0
 20 22  2  0
 20 23  1  0
 23 24  1  0
 24 25  1  0
 25 26  1  0
 26 27  1  0
 19 28  1  0
 28 29  2  0
 13  8  1  0
 29 16  1  0
 27 23  1  0
  3 30  1  0
  3 31  1  0
  9 32  1  0
 10 33  1  0
 11 34  1  0
 12 35  1  0
 17 36  1  0
 18 37  1  0
 24 38  1  0
 24 39  1  0
 25 40  1  0
 25 41  1  0
 26 42  1  0
 26 43  1  0
 27 44  1  0
 27 45  1  0
 28 46  1  0
 29 47  1  0
M  CHG  2   7  -1  15  -1
M  END
>  <UniqueID>  (74) 
71

>  <SMILES>  (74) 
O=C(COC(=O)[N-]c1ccccc1F)[N-]c1ccc(S(=O)(=O)N2CCCC2)cc1

>  <Energy>  (74) 
54.78851008777917

>  <Genealogy>  (74) 
O=C(COC(=O)[N-]c1ccccc1F)[N-]c1ccc(S(=O)(=O)N2CCCC2)cc1 (protonated)
O=C(COC(=O)[N-]c1ccccc1F)[N-]c1ccc(S(=O)(=O)N2CCCC2)cc1 (3D coordinates assigned)
O=C(COC(=O)[N-]c1ccccc1F)[N-]c1ccc(S(=O)(=O)N2CCCC2)cc1 (nonaromatic ring conformer: 54.78851008777917 kcal/mol)

>  <smiles>  (74) 
O=C(COC(=O)Nc1ccccc1F)Nc1ccc(S(=O)(=O)N2CCCC2)cc1

>  <score_type>  (74) 
oracle

>  <origin>  (74) 
adg

>  <m_score__min__energy>  (74) 
-12.19

>  <m_primary>  (74) 
energy

$$$$
74:0
     RDKit          3D

 60 63  0  0  0  0  0  0  0  0999 V2000
   57.6280   24.2840   45.0690 C   0  0  0  0  0  0  0  0  0  0  0  0
   57.0050   24.6060   46.7060 S   0  0  0  0  0  0  0  0  0  0  0  0
   55.5060   24.7370   46.6420 O   0  0  0  0  0  0  0  0  0  0  0  0
   57.3690   23.4670   47.6190 O   0  0  0  0  0  0  0  0  0  0  0  0
   57.7020   26.0830   47.2940 N   0  0  0  0  0  0  0  0  0  0  0  0
   58.5580   26.9120   46.4990 C   0  0  0  0  0  0  0  0  0  0  0  0
   59.9440   26.7580   46.6350 C   0  0  0  0  0  0  0  0  0  0  0  0
   60.8220   27.4940   45.8370 C   0  0  0  0  0  0  0  0  0  0  0  0
   60.3220   28.3940   44.8970 C   0  0  0  0  0  0  0  0  0  0  0  0
   58.9440   28.5760   44.7660 C   0  0  0  0  0  0  0  0  0  0  0  0
   58.0460   27.8610   45.5790 C   0  0  0  0  0  0  0  0  0  0  0  0
   56.6010   28.1570   45.4620 C   0  0  0  0  0  0  0  0  0  0  0  0
   55.7710   27.2250   45.6310 O   0  0  0  0  0  0  0  0  0  0  0  0
   56.1040   29.4740   45.1900 N   0  0  0  0  0  0  0  0  0  0  0  0
   56.7710   30.5240   44.4750 C   0  0  0  0  0  0  0  0  0  0  0  0
   56.8300   30.5470   43.0710 C   0  0  0  0  0  0  0  0  0  0  0  0
   57.4940   31.5870   42.4140 C   0  0  0  0  0  0  0  0  0  0  0  0
   58.0900   32.6140   43.1500 C   0  0  0  0  0  0  0  0  0  0  0  0
   58.0250   32.6070   44.5510 C   0  0  0  0  0  0  0  0  0  0  0  0
   58.7960   33.8860   45.4880 S   0  0  0  0  0  0  0  0  0  0  0  0
   57.7760   34.5230   46.3930 O   0  0  0  0  0  0  0  0  0  0  0  0
   59.3230   34.9480   44.5630 O   0  0  0  0  0  0  0  0  0  0  0  0
   60.1050   33.2450   46.4430 N   0  0  0  0  0  0  0  0  0  0  0  0
   61.4480   33.8250   46.3340 C   0  0  0  0  0  0  0  0  0  0  0  0
   62.2540   33.5250   47.5710 C   0  0  0  0  0  0  0  0  0  0  0  0
   61.9650   34.1790   48.7810 C   0  0  0  0  0  0  0  0  0  0  0  0
   62.7050   33.8950   49.9310 C   0  0  0  0  0  0  0  0  0  0  0  0
   63.7450   32.9620   49.8830 C   0  0  0  0  0  0  0  0  0  0  0  0
   64.0540   32.3210   48.6790 C   0  0  0  0  0  0  0  0  0  0  0  0
   63.3170   32.6060   47.5240 C   0  0  0  0  0  0  0  0  0  0  0  0
   59.8540   32.1770   47.3660 C   0  0  0  0  0  0  0  0  0  0  0  0
   59.1040   32.4100   48.5300 C   0  0  0  0  0  0  0  0  0  0  0  0
   58.8670   31.3700   49.4360 C   0  0  0  0  0  0  0  0  0  0  0  0
   59.3810   30.0950   49.1830 C   0  0  0  0  0  0  0  0  0  0  0  0
   60.1370   29.8590   48.0280 C   0  0  0  0  0  0  0  0  0  0  0  0
   60.3720   30.8980   47.1210 C   0  0  0  0  0  0  0  0  0  0  0  0
   57.3420   31.5730   45.2050 C   0  0  0  0  0  0  0  0  0  0  0  0
   58.6031   23.7800   45.1404 H   0  0  0  0  0  0  0  0  0  0  0  0
   56.9204   23.6387   44.5278 H   0  0  0  0  0  0  0  0  0  0  0  0
   57.7452   25.2344   44.5278 H   0  0  0  0  0  0  0  0  0  0  0  0
   60.3438   26.0511   47.3769 H   0  0  0  0  0  0  0  0  0  0  0  0
   61.9084   27.3637   45.9500 H   0  0  0  0  0  0  0  0  0  0  0  0
   61.0142   28.9615   44.2576 H   0  0  0  0  0  0  0  0  0  0  0  0
   58.5568   29.2854   44.0198 H   0  0  0  0  0  0  0  0  0  0  0  0
   56.3529   29.7453   42.4882 H   0  0  0  0  0  0  0  0  0  0  0  0
   57.5473   31.5967   41.3153 H   0  0  0  0  0  0  0  0  0  0  0  0
   58.6117   33.4305   42.6292 H   0  0  0  0  0  0  0  0  0  0  0  0
   61.9570   33.3973   45.4577 H   0  0  0  0  0  0  0  0  0  0  0  0
   61.3568   34.9157   46.2245 H   0  0  0  0  0  0  0  0  0  0  0  0
   61.1517   34.9185   48.8225 H   0  0  0  0  0  0  0  0  0  0  0  0
   62.4691   34.4063   50.8760 H   0  0  0  0  0  0  0  0  0  0  0  0
   64.3202   32.7321   50.7920 H   0  0  0  0  0  0  0  0  0  0  0  0
   64.8770   31.5922   48.6399 H   0  0  0  0  0  0  0  0  0  0  0  0
   63.5703   32.1092   46.5758 H   0  0  0  0  0  0  0  0  0  0  0  0
   58.7012   33.4138   48.7305 H   0  0  0  0  0  0  0  0  0  0  0  0
   58.2772   31.5556   50.3458 H   0  0  0  0  0  0  0  0  0  0  0  0
   59.1914   29.2758   49.8922 H   0  0  0  0  0  0  0  0  0  0  0  0
   60.5461   28.8565   47.8339 H   0  0  0  0  0  0  0  0  0  0  0  0
   60.9647   30.7106   46.2135 H   0  0  0  0  0  0  0  0  0  0  0  0
   57.2538   31.5857   46.3014 H   0  0  0  0  0  0  0  0  0  0  0  0
  1  2  1  0
  2  3  2  0
  2  4  2  0
  2  5  1  0
  5  6  1  0
  6  7  2  0
  7  8  1  0
  8  9  2  0
  9 10  1  0
 10 11  2  0
 11 12  1  0
 12 13  2  0
 12 14  1  0
 14 15  1  0
 15 16  2  0
 16 17  1  0
 17 18  2  0
 18 19  1  0
 19 20  1  0
 20 21  2  0
 20 22  2  0
 20 23  1  0
 23 24  1  0
 24 25  1  0
 25 26  2  0
 26 27  1  0
 27 28  2  0
 28 29  1  0
 29 30  2  0
 23 31  1  0
 31 32  2  0
 32 33  1  0
 33 34  2  0
 34 35  1  0
 35 36  2  0
 19 37  2  0
 11  6  1  0
 37 15  1  0
 30 25  1  0
 36 31  1  0
  1 38  1  0
  1 39  1  0
  1 40  1  0
  7 41  1  0
  8 42  1  0
  9 43  1  0
 10 44  1  0
 16 45  1  0
 17 46  1  0
 18 47  1  0
 24 48  1  0
 24 49  1  0
 26 50  1  0
 27 51  1  0
 28 52  1  0
 29 53  1  0
 30 54  1  0
 32 55  1  0
 33 56  1  0
 34 57  1  0
 35 58  1  0
 36 59  1  0
 37 60  1  0
M  CHG  2   5  -1  14  -1
M  END
>  <UniqueID>  (75) 
72

>  <SMILES>  (75) 
CS(=O)(=O)[N-]c1ccccc1C(=O)[N-]c1cccc(S(=O)(=O)N(Cc2ccccc2)c2ccccc2)c1

>  <Energy>  (75) 
75.10379544827042

>  <Genealogy>  (75) 
CS(=O)(=O)[N-]c1ccccc1C(=O)[N-]c1cccc(S(=O)(=O)N(Cc2ccccc2)c2ccccc2)c1 (protonated)
CS(=O)(=O)[N-]c1ccccc1C(=O)[N-]c1cccc(S(=O)(=O)N(Cc2ccccc2)c2ccccc2)c1 (3D coordinates assigned)
CS(=O)(=O)[N-]c1ccccc1C(=O)[N-]c1cccc(S(=O)(=O)N(Cc2ccccc2)c2ccccc2)c1 (optimized conformer: 75.10379544827042 kcal/mol)

>  <smiles>  (75) 
CS(=O)(=O)Nc1ccccc1C(=O)Nc1cccc(S(=O)(=O)N(Cc2ccccc2)c2ccccc2)c1

>  <score_type>  (75) 
oracle

>  <origin>  (75) 
adg

>  <m_score__min__energy>  (75) 
-15

>  <m_primary>  (75) 
energy

$$$$
75:0
     RDKit          3D

 35 37  0  0  0  0  0  0  0  0999 V2000
   53.6700   28.3690   54.0770 C   0  0  0  0  0  0  0  0  0  0  0  0
   54.2940   29.2120   53.2500 C   0  0  0  0  0  0  0  0  0  0  0  0
   55.9680   29.2530   53.0810 S   0  0  0  0  0  0  0  0  0  0  0  0
   56.0080   30.4750   51.9320 C   0  0  0  0  0  0  0  0  0  0  0  0
   57.2270   31.0390   51.3370 C   0  0  0  0  0  0  0  0  0  0  0  0
   57.5440   32.2350   51.5770 O   0  0  0  0  0  0  0  0  0  0  0  0
   58.0500   30.2300   50.4900 N   0  0  0  0  0  0  0  0  0  0  0  0
   59.2070   30.7380   49.7640 C   0  0  0  0  0  0  0  0  0  0  0  0
   58.8630   30.9470   48.3150 C   0  0  0  0  0  0  0  0  0  0  0  0
   58.8670   29.8670   47.4160 C   0  0  0  0  0  0  0  0  0  0  0  0
   58.5680   30.0760   46.0660 C   0  0  0  0  0  0  0  0  0  0  0  0
   58.2710   31.3600   45.6030 C   0  0  0  0  0  0  0  0  0  0  0  0
   58.2720   32.4410   46.4900 C   0  0  0  0  0  0  0  0  0  0  0  0
   57.9030   34.0550   45.9080 Cl  0  0  0  0  0  0  0  0  0  0  0  0
   58.5680   32.2370   47.8430 C   0  0  0  0  0  0  0  0  0  0  0  0
   54.7060   30.8780   51.6580 C   0  0  0  0  0  0  0  0  0  0  0  0
   53.7240   30.1700   52.3860 C   0  0  0  0  0  0  0  0  0  0  0  0
   52.3990   30.4190   52.2960 C   0  0  0  0  0  0  0  0  0  0  0  0
   51.7070   30.8130   51.0540 C   0  0  0  0  0  0  0  0  0  0  0  0
   51.6840   30.0500   49.9480 N   0  0  0  0  0  0  0  0  0  0  0  0
   51.0410   30.8230   49.0470 C   0  0  0  0  0  0  0  0  0  0  0  0
   50.8080   30.4420   47.8700 O   0  0  0  0  0  0  0  0  0  0  0  0
   50.6760   32.0410   49.5010 N   0  0  0  0  0  0  0  0  0  0  0  0
   51.1170   32.0260   50.7700 C   0  0  0  0  0  0  0  0  0  0  0  0
   51.0190   33.1110   51.6310 O   0  0  0  0  0  0  0  0  0  0  0  0
   52.5726   28.3823   54.1507 H   0  0  0  0  0  0  0  0  0  0  0  0
   54.2535   27.6615   54.6844 H   0  0  0  0  0  0  0  0  0  0  0  0
   59.5199   31.6961   50.2046 H   0  0  0  0  0  0  0  0  0  0  0  0
   60.0245   30.0055   49.8358 H   0  0  0  0  0  0  0  0  0  0  0  0
   59.1058   28.8550   47.7749 H   0  0  0  0  0  0  0  0  0  0  0  0
   58.5667   29.2269   45.3667 H   0  0  0  0  0  0  0  0  0  0  0  0
   58.0363   31.5208   44.5404 H   0  0  0  0  0  0  0  0  0  0  0  0
   58.5696   33.0892   48.5386 H   0  0  0  0  0  0  0  0  0  0  0  0
   54.4627   31.6751   50.9401 H   0  0  0  0  0  0  0  0  0  0  0  0
   51.7955   30.3214   53.2105 H   0  0  0  0  0  0  0  0  0  0  0  0
  1  2  2  0
  2  3  1  0
  3  4  1  0
  4  5  1  0
  5  6  2  0
  5  7  1  0
  7  8  1  0
  8  9  1  0
  9 10  2  0
 10 11  1  0
 11 12  2  0
 12 13  1  0
 13 14  1  0
 13 15  2  0
  4 16  2  0
 16 17  1  0
 17 18  2  3
 18 19  1  0
 19 20  1  0
 20 21  1  0
 21 22  2  0
 21 23  1  0
 23 24  1  0
 24 25  1  0
 17  2  1  0
 24 19  2  0
 15  9  1  0
  1 26  1  0
  1 27  1  0
  8 28  1  0
  8 29  1  0
 10 30  1  0
 11 31  1  0
 12 32  1  0
 15 33  1  0
 16 34  1  0
 18 35  1  0
M  CHG  4   7  -1  20  -1  23  -1  25  -1
M  END
>  <UniqueID>  (76) 
73

>  <SMILES>  (76) 
C=c1sc(C(=O)[N-]Cc2cccc(Cl)c2)cc1=Cc1[n-]c(=O)[n-]c1[O-]

>  <Energy>  (76) 
99.082813738598

>  <Genealogy>  (76) 
C=c1sc(C(=O)[N-]Cc2cccc(Cl)c2)cc1=Cc1[n-]c(=O)[n-]c1[O-] (protonated)
C=c1sc(C(=O)[N-]Cc2cccc(Cl)c2)cc1=Cc1[n-]c(=O)[n-]c1[O-] (3D coordinates assigned)
C=c1sc(C(=O)[N-]Cc2cccc(Cl)c2)cc1=Cc1[n-]c(=O)[n-]c1[O-] (optimized conformer: 99.082813738598 kcal/mol)

>  <smiles>  (76) 
C=c1sc(C(=O)NCc2cccc(Cl)c2)cc1=Cc1[nH]c(=O)[nH]c1O

>  <score_type>  (76) 
oracle

>  <origin>  (76) 
adg

>  <m_score__min__energy>  (76) 
-18.199999999999999

>  <m_primary>  (76) 
energy

$$$$
76:0
     RDKit          3D

 53 56  0  0  0  0  0  0  0  0999 V2000
   54.7650   24.5030   47.1850 H   0  0  0  0  0  0  0  0  0  0  0  0
   55.7580   24.3180   47.1150 O   0  0  0  0  0  0  0  0  0  0  0  0
   56.6320   25.2380   46.5370 C   0  0  0  0  0  0  0  0  0  0  0  0
   58.0070   24.9760   46.4820 C   0  0  0  0  0  0  0  0  0  0  0  0
   58.4039   24.0403   46.9027 H   0  0  0  0  0  0  0  0  0  0  0  0
   58.8770   25.9000   45.8940 C   0  0  0  0  0  0  0  0  0  0  0  0
   59.9574   25.6948   45.8675 H   0  0  0  0  0  0  0  0  0  0  0  0
   58.3780   27.0870   45.3380 C   0  0  0  0  0  0  0  0  0  0  0  0
   59.3220   28.0510   44.7290 C   0  0  0  0  0  0  0  0  0  0  0  0
   59.3310   28.1391   43.6326 H   0  0  0  0  0  0  0  0  0  0  0  0
   60.1440   28.8030   45.4080 N   0  0  0  0  0  0  0  0  0  0  0  0
   60.0130   29.2250   46.7750 C   0  0  0  0  0  0  0  0  0  0  0  0
   60.4860   28.3910   47.7890 C   0  0  0  0  0  0  0  0  0  0  0  0
   60.9465   27.4254   47.5329 H   0  0  0  0  0  0  0  0  0  0  0  0
   60.3780   28.7750   49.1250 C   0  0  0  0  0  0  0  0  0  0  0  0
   60.7381   28.1008   49.9161 H   0  0  0  0  0  0  0  0  0  0  0  0
   59.8140   30.0140   49.4710 C   0  0  0  0  0  0  0  0  0  0  0  0
   59.6820   30.3540   50.8620 N   0  0  0  0  0  0  0  0  0  0  0  0
   58.4670   29.9750   51.5920 C   0  0  0  0  0  0  0  0  0  0  0  0
   57.7681   30.8243   51.6033 H   0  0  0  0  0  0  0  0  0  0  0  0
   57.9974   29.1146   51.0929 H   0  0  0  0  0  0  0  0  0  0  0  0
   58.8240   29.5910   53.0320 C   0  0  0  0  0  0  0  0  0  0  0  0
   58.9255   30.5022   53.6398 H   0  0  0  0  0  0  0  0  0  0  0  0
   58.0279   28.9575   53.4502 H   0  0  0  0  0  0  0  0  0  0  0  0
   60.0450   28.8800   53.0420 O   0  0  0  0  0  0  0  0  0  0  0  0
   61.1350   29.7500   52.7710 C   0  0  0  0  0  0  0  0  0  0  0  0
   61.3641   30.3140   53.6872 H   0  0  0  0  0  0  0  0  0  0  0  0
   61.9739   29.1185   52.4432 H   0  0  0  0  0  0  0  0  0  0  0  0
   60.8620   30.7600   51.6330 C   0  0  0  0  0  0  0  0  0  0  0  0
   60.6870   31.7558   52.0663 H   0  0  0  0  0  0  0  0  0  0  0  0
   61.7341   30.7875   50.9632 H   0  0  0  0  0  0  0  0  0  0  0  0
   59.3790   30.8870   48.4480 C   0  0  0  0  0  0  0  0  0  0  0  0
   58.7170   32.4900   48.7950 S   0  0  0  0  0  0  0  0  0  0  0  0
   59.8490   33.4740   48.8930 O   0  0  0  0  0  0  0  0  0  0  0  0
   57.9760   32.4800   50.1040 O   0  0  0  0  0  0  0  0  0  0  0  0
   57.6240   32.9960   47.5480 N   0  0  0  0  0  0  0  0  0  0  0  0
   57.8930   32.9510   46.1400 C   0  0  0  0  0  0  0  0  0  0  0  0
   57.3400   31.9570   45.3100 C   0  0  0  0  0  0  0  0  0  0  0  0
   56.6675   31.1986   45.7372 H   0  0  0  0  0  0  0  0  0  0  0  0
   57.6420   31.9300   43.9460 C   0  0  0  0  0  0  0  0  0  0  0  0
   57.2086   31.1492   43.3037 H   0  0  0  0  0  0  0  0  0  0  0  0
   58.4920   32.8910   43.3960 C   0  0  0  0  0  0  0  0  0  0  0  0
   58.7286   32.8663   42.3220 H   0  0  0  0  0  0  0  0  0  0  0  0
   59.0420   33.8840   44.2100 C   0  0  0  0  0  0  0  0  0  0  0  0
   59.7101   34.6418   43.7748 H   0  0  0  0  0  0  0  0  0  0  0  0
   58.7460   33.9180   45.5770 C   0  0  0  0  0  0  0  0  0  0  0  0
   59.4670   35.1710   46.5770 Cl  0  0  0  0  0  0  0  0  0  0  0  0
   59.4950   30.4870   47.1080 C   0  0  0  0  0  0  0  0  0  0  0  0
   59.1759   31.1711   46.3078 H   0  0  0  0  0  0  0  0  0  0  0  0
   57.0020   27.3620   45.4240 C   0  0  0  0  0  0  0  0  0  0  0  0
   56.6074   28.3097   45.0287 H   0  0  0  0  0  0  0  0  0  0  0  0
   56.1320   26.4360   46.0100 C   0  0  0  0  0  0  0  0  0  0  0  0
   54.7710   26.7100   46.0700 O   0  0  0  0  0  0  0  0  0  0  0  0
  1  2  1  0
  2  3  1  0
  3  4  2  0
  4  5  1  0
  4  6  1  0
  6  7  1  0
  6  8  2  0
  8  9  1  0
  9 10  1  0
  9 11  2  0
 11 12  1  0
 12 13  2  0
 13 14  1  0
 13 15  1  0
 15 16  1  0
 15 17  2  0
 17 18  1  0
 18 19  1  0
 19 20  1  0
 19 21  1  0
 19 22  1  0
 22 23  1  0
 22 24  1  0
 22 25  1  0
 25 26  1  0
 26 27  1  0
 26 28  1  0
 26 29  1  0
 29 30  1  0
 29 31  1  0
 17 32  1  0
 32 33  1  0
 33 34  2  0
 33 35  2  0
 33 36  1  0
 36 37  1  0
 37 38  2  0
 38 39  1  0
 38 40  1  0
 40 41  1  0
 40 42  2  0
 42 43  1  0
 42 44  1  0
 44 45  1  0
 44 46  2  0
 46 47  1  0
 32 48  2  0
 48 49  1  0
  8 50  1  0
 50 51  1  0
 50 52  2  0
 52 53  1  0
 52  3  1  0
 48 12  1  0
 29 18  1  0
 46 37  1  0
M  CHG  2  36  -1  53  -1
M  END
>  <UniqueID>  (77) 
74

>  <SMILES>  (77) 
O=S(=O)([N-]c1ccccc1Cl)c1cc(/N=C\c2ccc(O)c([O-])c2)ccc1N1CCOCC1

>  <Energy>  (77) 
82.12525854044394

>  <Genealogy>  (77) 
O=S(=O)([N-]c1ccccc1Cl)c1cc(N=Cc2ccc(O)c([O-])c2)ccc1N1CCOCC1 (protonated)
O=S(=O)([N-]c1ccccc1Cl)c1cc(/N=C\c2ccc(O)c([O-])c2)ccc1N1CCOCC1 (cis-trans isomerization)
O=S(=O)([N-]c1ccccc1Cl)c1cc(/N=C\c2ccc(O)c([O-])c2)ccc1N1CCOCC1 (3D coordinates assigned)
O=S(=O)([N-]c1ccccc1Cl)c1cc(/N=C\c2ccc(O)c([O-])c2)ccc1N1CCOCC1 (nonaromatic ring conformer: 82.12525854044394 kcal/mol)

>  <smiles>  (77) 
O=S(=O)(Nc1ccccc1Cl)c1cc(N=Cc2ccc(O)c(O)c2)ccc1N1CCOCC1

>  <score_type>  (77) 
oracle

>  <origin>  (77) 
adg

>  <m_score__min__energy>  (77) 
-14.23

>  <m_primary>  (77) 
energy

$$$$
77:0
     RDKit          3D

 54 57  0  0  0  0  0  0  0  0999 V2000
   65.1760   32.9960   51.9690 C   0  0  0  0  0  0  0  0  0  0  0  0
   65.2230   32.0530   50.4590 S   0  0  0  0  0  0  0  0  0  0  0  0
   66.6070   31.4970   50.2820 O   0  0  0  0  0  0  0  0  0  0  0  0
   64.2490   30.9100   50.5270 O   0  0  0  0  0  0  0  0  0  0  0  0
   64.8520   33.0650   49.0990 N   0  0  0  0  0  0  0  0  0  0  0  0
   63.5900   33.1330   48.4240 C   0  0  0  0  0  0  0  0  0  0  0  0
   63.5690   33.5460   47.0860 C   0  0  0  0  0  0  0  0  0  0  0  0
   62.3620   33.6190   46.3850 C   0  0  0  0  0  0  0  0  0  0  0  0
   61.1620   33.2900   47.0190 C   0  0  0  0  0  0  0  0  0  0  0  0
   61.1610   32.9040   48.3670 C   0  0  0  0  0  0  0  0  0  0  0  0
   59.8880   32.5790   49.0380 C   0  0  0  0  0  0  0  0  0  0  0  0
   59.7960   32.2890   50.3490 N   0  0  0  0  0  0  0  0  0  0  0  0
   58.4980   32.1470   50.5830 N   0  0  0  0  0  0  0  0  0  0  0  0
   57.8120   32.3380   49.4660 N   0  0  0  0  0  0  0  0  0  0  0  0
   58.6550   32.6080   48.4850 N   0  0  0  0  0  0  0  0  0  0  0  0
   58.2630   32.7710   47.1090 C   0  0  0  0  0  0  0  0  0  0  0  0
   58.2570   34.0500   46.5290 C   0  0  0  0  0  0  0  0  0  0  0  0
   57.8250   34.2270   45.2120 C   0  0  0  0  0  0  0  0  0  0  0  0
   57.3910   33.1300   44.4600 C   0  0  0  0  0  0  0  0  0  0  0  0
   57.4100   31.8480   45.0170 C   0  0  0  0  0  0  0  0  0  0  0  0
   56.9610   30.7320   44.2420 N   0  0  0  0  0  0  0  0  0  0  0  0
   56.4720   29.5250   44.8350 C   0  0  0  0  0  0  0  0  0  0  0  0
   55.2720   29.4470   45.2160 O   0  0  0  0  0  0  0  0  0  0  0  0
   57.3630   28.3340   44.9520 C   0  0  0  0  0  0  0  0  0  0  0  0
   58.5800   28.7070   45.7550 C   0  0  0  0  0  0  0  0  0  0  0  0
   59.6610   29.3610   45.1400 C   0  0  0  0  0  0  0  0  0  0  0  0
   60.7690   29.7440   45.8940 C   0  0  0  0  0  0  0  0  0  0  0  0
   60.8040   29.4950   47.2680 C   0  0  0  0  0  0  0  0  0  0  0  0
   59.7160   28.8790   47.9100 C   0  0  0  0  0  0  0  0  0  0  0  0
   59.7570   28.6420   49.3720 C   0  0  0  0  0  0  0  0  0  0  0  0
   59.1360   29.5440   50.2910 N   0  0  0  0  0  0  0  0  0  0  0  0
   60.3680   27.6370   49.8250 O   0  0  0  0  0  0  0  0  0  0  0  0
   58.6060   28.4840   47.1410 C   0  0  0  0  0  0  0  0  0  0  0  0
   57.8180   31.6770   46.3490 C   0  0  0  0  0  0  0  0  0  0  0  0
   62.3780   32.8080   49.0610 C   0  0  0  0  0  0  0  0  0  0  0  0
   65.2101   32.3119   52.8297 H   0  0  0  0  0  0  0  0  0  0  0  0
   66.0415   33.6740   52.0050 H   0  0  0  0  0  0  0  0  0  0  0  0
   64.2474   33.5846   52.0050 H   0  0  0  0  0  0  0  0  0  0  0  0
   64.5095   33.8150   46.5829 H   0  0  0  0  0  0  0  0  0  0  0  0
   62.3573   33.9362   45.3318 H   0  0  0  0  0  0  0  0  0  0  0  0
   60.2157   33.3338   46.4598 H   0  0  0  0  0  0  0  0  0  0  0  0
   58.5944   34.9176   47.1150 H   0  0  0  0  0  0  0  0  0  0  0  0
   57.8262   35.2321   44.7650 H   0  0  0  0  0  0  0  0  0  0  0  0
   57.0346   33.2764   43.4297 H   0  0  0  0  0  0  0  0  0  0  0  0
   56.8240   27.5188   45.4570 H   0  0  0  0  0  0  0  0  0  0  0  0
   57.6684   27.9995   43.9496 H   0  0  0  0  0  0  0  0  0  0  0  0
   59.6328   29.5713   44.0607 H   0  0  0  0  0  0  0  0  0  0  0  0
   61.6184   30.2439   45.4055 H   0  0  0  0  0  0  0  0  0  0  0  0
   61.6903   29.7834   47.8523 H   0  0  0  0  0  0  0  0  0  0  0  0
   59.1320   29.3270   51.3130 H   0  0  0  0  0  0  0  0  0  0  0  0
   58.7470   30.4630   49.9810 H   0  0  0  0  0  0  0  0  0  0  0  0
   57.7503   27.9958   47.6303 H   0  0  0  0  0  0  0  0  0  0  0  0
   57.7889   30.6753   46.8026 H   0  0  0  0  0  0  0  0  0  0  0  0
   62.3840   32.4765   50.1098 H   0  0  0  0  0  0  0  0  0  0  0  0
  1  2  1  0
  2  3  2  0
  2  4  2  0
  2  5  1  0
  5  6  1  0
  6  7  2  0
  7  8  1  0
  8  9  2  0
  9 10  1  0
 10 11  1  0
 11 12  2  0
 12 13  1  0
 13 14  2  0
 14 15  1  0
 15 16  1  0
 16 17  2  0
 17 18  1  0
 18 19  2  0
 19 20  1  0
 20 21  1  0
 21 22  1  0
 22 23  2  0
 22 24  1  0
 24 25  1  0
 25 26  2  0
 26 27  1  0
 27 28  2  0
 28 29  1  0
 29 30  1  0
 30 31  1  0
 30 32  2  0
 29 33  2  0
 20 34  2  0
 10 35  2  0
 35  6  1  0
 15 11  1  0
 34 16  1  0
 33 25  1  0
  1 36  1  0
  1 37  1  0
  1 38  1  0
  7 39  1  0
  8 40  1  0
  9 41  1  0
 17 42  1  0
 18 43  1  0
 19 44  1  0
 24 45  1  0
 24 46  1  0
 26 47  1  0
 27 48  1  0
 28 49  1  0
 31 50  1  0
 31 51  1  0
 33 52  1  0
 34 53  1  0
 35 54  1  0
M  CHG  2   5  -1  21  -1
M  END
>  <UniqueID>  (78) 
75

>  <SMILES>  (78) 
CS(=O)(=O)[N-]c1cccc(-c2nnnn2-c2cccc([N-]C(=O)Cc3cccc(C(N)=O)c3)c2)c1

>  <Energy>  (78) 
103.9920191394497

>  <Genealogy>  (78) 
CS(=O)(=O)[N-]c1cccc(-c2nnnn2-c2cccc([N-]C(=O)Cc3cccc(C(N)=O)c3)c2)c1 (protonated)
CS(=O)(=O)[N-]c1cccc(-c2nnnn2-c2cccc([N-]C(=O)Cc3cccc(C(N)=O)c3)c2)c1 (3D coordinates assigned)
CS(=O)(=O)[N-]c1cccc(-c2nnnn2-c2cccc([N-]C(=O)Cc3cccc(C(N)=O)c3)c2)c1 (optimized conformer: 103.9920191394497 kcal/mol)

>  <smiles>  (78) 
CS(=O)(=O)Nc1cccc(-c2nnnn2-c2cccc(NC(=O)Cc3cccc(C(N)=O)c3)c2)c1

>  <score_type>  (78) 
oracle

>  <origin>  (78) 
adg

>  <m_score__min__energy>  (78) 
-13.84

>  <m_primary>  (78) 
energy

$$$$
78:0
     RDKit          3D

 40 42  0  0  0  0  0  0  0  0999 V2000
   58.2190   26.3620   47.4850 C   0  0  0  0  0  0  0  0  0  0  0  0
   58.0470   25.9650   46.2160 C   0  0  0  0  0  0  0  0  0  0  0  0
   57.1150   25.0400   45.7210 C   0  0  0  0  0  0  0  0  0  0  0  0
   56.2410   24.2290   46.3540 C   0  0  0  0  0  0  0  0  0  0  0  0
   54.8560   23.9610   45.9260 C   0  0  0  0  0  0  0  0  0  0  0  0
   53.9840   25.0220   45.6480 C   0  0  0  0  0  0  0  0  0  0  0  0
   54.3940   26.3390   45.8180 O   0  0  0  0  0  0  0  0  0  0  0  0
   52.7220   24.7670   45.2150 N   0  0  0  0  0  0  0  0  0  0  0  0
   52.2890   23.4940   45.0300 C   0  0  0  0  0  0  0  0  0  0  0  0
   50.7660   23.2180   44.5110 S   0  0  0  0  0  0  0  0  0  0  0  0
   53.1240   22.4490   45.2650 N   0  0  0  0  0  0  0  0  0  0  0  0
   54.3940   22.6520   45.6990 C   0  0  0  0  0  0  0  0  0  0  0  0
   55.1490   21.6610   45.8900 O   0  0  0  0  0  0  0  0  0  0  0  0
   57.2760   25.1070   44.3420 C   0  0  0  0  0  0  0  0  0  0  0  0
   56.5280   24.3220   43.3090 C   0  0  0  0  0  0  0  0  0  0  0  0
   58.2570   25.9740   44.0340 N   0  0  0  0  0  0  0  0  0  0  0  0
   58.7250   26.4860   45.1600 N   0  0  0  0  0  0  0  0  0  0  0  0
   59.7640   27.5210   45.1740 C   0  0  0  0  0  0  0  0  0  0  0  0
   59.1500   28.8920   45.3270 C   0  0  0  0  0  0  0  0  0  0  0  0
   59.6260   29.7680   46.3160 C   0  0  0  0  0  0  0  0  0  0  0  0
   59.0560   31.0320   46.4790 C   0  0  0  0  0  0  0  0  0  0  0  0
   58.0010   31.4510   45.6520 C   0  0  0  0  0  0  0  0  0  0  0  0
   57.3930   32.7890   45.8250 C   0  0  0  0  0  0  0  0  0  0  0  0
   56.9960   33.4470   44.8270 O   0  0  0  0  0  0  0  0  0  0  0  0
   57.2540   33.3410   47.0940 O   0  0  0  0  0  0  0  0  0  0  0  0
   57.5310   30.5810   44.6540 C   0  0  0  0  0  0  0  0  0  0  0  0
   58.1020   29.3120   44.4850 C   0  0  0  0  0  0  0  0  0  0  0  0
   57.6320   28.4690   43.4770 O   0  0  0  0  0  0  0  0  0  0  0  0
   58.9962   27.1010   47.7295 H   0  0  0  0  0  0  0  0  0  0  0  0
   57.5829   25.9487   48.2816 H   0  0  0  0  0  0  0  0  0  0  0  0
   56.5921   23.7253   47.2667 H   0  0  0  0  0  0  0  0  0  0  0  0
   55.8514   23.6119   43.8070 H   0  0  0  0  0  0  0  0  0  0  0  0
   55.9414   25.0083   42.6806 H   0  0  0  0  0  0  0  0  0  0  0  0
   57.2418   23.7692   42.6806 H   0  0  0  0  0  0  0  0  0  0  0  0
   60.4472   27.3354   46.0159 H   0  0  0  0  0  0  0  0  0  0  0  0
   60.3129   27.4838   44.2215 H   0  0  0  0  0  0  0  0  0  0  0  0
   60.4551   29.4556   46.9679 H   0  0  0  0  0  0  0  0  0  0  0  0
   59.4363   31.7052   47.2615 H   0  0  0  0  0  0  0  0  0  0  0  0
   56.7067   30.8988   43.9987 H   0  0  0  0  0  0  0  0  0  0  0  0
   57.0140   27.6920   43.6790 H   0  0  0  0  0  0  0  0  0  0  0  0
  1  2  2  0
  2  3  1  0
  3  4  2  3
  4  5  1  0
  5  6  2  0
  6  7  1  0
  6  8  1  0
  8  9  1  0
  9 10  2  0
  9 11  1  0
 11 12  1  0
 12 13  2  0
  3 14  1  0
 14 15  1  0
 14 16  2  0
 16 17  1  0
 17 18  1  0
 18 19  1  0
 19 20  2  0
 20 21  1  0
 21 22  2  0
 22 23  1  0
 23 24  2  0
 23 25  1  0
 22 26  1  0
 26 27  2  0
 27 28  1  0
 17  2  1  0
 27 19  1  0
 12  5  1  0
  1 29  1  0
  1 30  1  0
  4 31  1  0
 15 32  1  0
 15 33  1  0
 15 34  1  0
 18 35  1  0
 18 36  1  0
 20 37  1  0
 21 38  1  0
 26 39  1  0
 28 40  1  0
M  CHG  4   7  -1   8  -1  11  -1  25  -1
M  END
>  <UniqueID>  (79) 
76

>  <SMILES>  (79) 
C=c1c(=Cc2c([O-])[n-]c(=S)[n-]c2=O)c(C)nn1Cc1ccc(C(=O)[O-])cc1O

>  <Energy>  (79) 
88.72679413989304

>  <Genealogy>  (79) 
C=c1c(=Cc2c([O-])[n-]c(=S)[n-]c2=O)c(C)nn1Cc1ccc(C(=O)[O-])cc1O (protonated)
C=c1c(=Cc2c([O-])[n-]c(=S)[n-]c2=O)c(C)nn1Cc1ccc(C(=O)[O-])cc1O (3D coordinates assigned)
C=c1c(=Cc2c([O-])[n-]c(=S)[n-]c2=O)c(C)nn1Cc1ccc(C(=O)[O-])cc1O (optimized conformer: 88.72679413989304 kcal/mol)

>  <smiles>  (79) 
C=c1c(=Cc2c(O)[nH]c(=S)[nH]c2=O)c(C)nn1Cc1ccc(C(=O)O)cc1O

>  <score_type>  (79) 
oracle

>  <origin>  (79) 
adg

>  <m_score__min__energy>  (79) 
-15.32

>  <m_primary>  (79) 
energy

$$$$
79:0
     RDKit          3D

 34 36  0  0  0  0  0  0  0  0999 V2000
   56.0630   27.6530   44.9190 H   0  0  0  0  0  0  0  0  0  0  0  0
   55.6550   28.5780   44.9080 O   0  0  0  0  0  0  0  0  0  0  0  0
   56.4340   29.7310   44.9640 C   0  0  0  0  0  0  0  0  0  0  0  0
   56.0350   30.9060   44.4500 N   0  0  0  0  0  0  0  0  0  0  0  0
   57.0420   31.7390   44.7840 C   0  0  0  0  0  0  0  0  0  0  0  0
   57.0420   32.9610   44.4790 O   0  0  0  0  0  0  0  0  0  0  0  0
   58.0490   31.1630   45.4730 N   0  0  0  0  0  0  0  0  0  0  0  0
   57.6650   29.8770   45.5770 C   0  0  0  0  0  0  0  0  0  0  0  0
   58.4750   28.8410   46.2460 C   0  0  0  0  0  0  0  0  0  0  0  0
   59.2690   29.1850   47.3520 C   0  0  0  0  0  0  0  0  0  0  0  0
   59.2760   30.2218   47.7194 H   0  0  0  0  0  0  0  0  0  0  0  0
   60.0500   28.2170   47.9880 C   0  0  0  0  0  0  0  0  0  0  0  0
   60.6672   28.4931   48.8556 H   0  0  0  0  0  0  0  0  0  0  0  0
   60.0490   26.9000   47.5250 C   0  0  0  0  0  0  0  0  0  0  0  0
   60.6686   26.1422   48.0267 H   0  0  0  0  0  0  0  0  0  0  0  0
   59.2590   26.5390   46.4200 C   0  0  0  0  0  0  0  0  0  0  0  0
   59.2410   25.1520   45.9120 C   0  0  0  0  0  0  0  0  0  0  0  0
   60.1894   24.7301   45.5480 H   0  0  0  0  0  0  0  0  0  0  0  0
   58.1510   24.3680   45.8620 C   0  0  0  0  0  0  0  0  0  0  0  0
   58.1792   23.5053   45.1801 H   0  0  0  0  0  0  0  0  0  0  0  0
   56.9150   24.5720   46.6510 C   0  0  0  0  0  0  0  0  0  0  0  0
   57.0150   25.1340   47.7740 O   0  0  0  0  0  0  0  0  0  0  0  0
   55.5880   24.0820   46.2000 C   0  0  0  0  0  0  0  0  0  0  0  0
   54.5620   24.9800   45.8430 C   0  0  0  0  0  0  0  0  0  0  0  0
   54.7660   26.3540   45.9000 O   0  0  0  0  0  0  0  0  0  0  0  0
   53.3600   24.5080   45.4160 N   0  0  0  0  0  0  0  0  0  0  0  0
   53.1030   23.1760   45.3210 C   0  0  0  0  0  0  0  0  0  0  0  0
   51.9780   22.7840   44.9170 O   0  0  0  0  0  0  0  0  0  0  0  0
   54.0850   22.2490   45.6730 C   0  0  0  0  0  0  0  0  0  0  0  0
   53.8823   21.1703   45.6002 H   0  0  0  0  0  0  0  0  0  0  0  0
   55.3260   22.7040   46.1180 C   0  0  0  0  0  0  0  0  0  0  0  0
   56.1032   21.9808   46.4061 H   0  0  0  0  0  0  0  0  0  0  0  0
   58.5020   27.5200   45.7640 C   0  0  0  0  0  0  0  0  0  0  0  0
   57.9250   27.2546   44.8659 H   0  0  0  0  0  0  0  0  0  0  0  0
  1  2  1  0
  2  3  1  0
  3  4  1  0
  4  5  1  0
  5  6  2  0
  5  7  1  0
  7  8  1  0
  8  9  1  0
  9 10  2  0
 10 11  1  0
 10 12  1  0
 12 13  1  0
 12 14  2  0
 14 15  1  0
 14 16  1  0
 16 17  1  0
 17 18  1  0
 17 19  2  0
 19 20  1  0
 19 21  1  0
 21 22  2  0
 21 23  1  0
 23 24  2  0
 24 25  1  0
 24 26  1  0
 26 27  1  0
 27 28  2  0
 27 29  1  0
 29 30  1  0
 29 31  2  0
 31 32  1  0
 16 33  2  0
 33 34  1  0
  8  3  2  0
 33  9  1  0
 31 23  1  0
M  CHG  4   4  -1   7  -1  25  -1  26  -1
M  END
>  <UniqueID>  (80) 
77

>  <SMILES>  (80) 
O=C(/C=C\c1cccc(-c2[n-]c(=O)[n-]c2O)c1)c1ccc(=O)[n-]c1[O-]

>  <Energy>  (80) 
81.87202056849975

>  <Genealogy>  (80) 
O=C(C=Cc1cccc(-c2[n-]c(=O)[n-]c2O)c1)c1ccc(=O)[n-]c1[O-] (protonated)
O=C(/C=C\c1cccc(-c2[n-]c(=O)[n-]c2O)c1)c1ccc(=O)[n-]c1[O-] (cis-trans isomerization)
O=C(/C=C\c1cccc(-c2[n-]c(=O)[n-]c2O)c1)c1ccc(=O)[n-]c1[O-] (3D coordinates assigned)
O=C(/C=C\c1cccc(-c2[n-]c(=O)[n-]c2O)c1)c1ccc(=O)[n-]c1[O-] (optimized conformer: 81.87202056849975 kcal/mol)

>  <smiles>  (80) 
O=C(C=Cc1cccc(-c2[nH]c(=O)[nH]c2O)c1)c1ccc(=O)[nH]c1O

>  <score_type>  (80) 
oracle

>  <origin>  (80) 
adg

>  <m_score__min__energy>  (80) 
-17.5

>  <m_primary>  (80) 
energy

$$$$
80:0
     RDKit          3D

 54 56  0  0  0  0  0  0  0  0999 V2000
   59.0130   29.0430   43.3570 H   0  0  0  0  0  0  0  0  0  0  0  0
   59.1850   29.6190   44.1720 O   0  0  0  0  0  0  0  0  0  0  0  0
   58.6490   30.9010   44.2870 C   0  0  0  0  0  0  0  0  0  0  0  0
   58.2450   31.5990   43.1420 C   0  0  0  0  0  0  0  0  0  0  0  0
   58.3580   31.1366   42.1503 H   0  0  0  0  0  0  0  0  0  0  0  0
   57.7000   32.8780   43.2540 C   0  0  0  0  0  0  0  0  0  0  0  0
   57.3892   33.4231   42.3505 H   0  0  0  0  0  0  0  0  0  0  0  0
   57.5480   33.4680   44.5100 C   0  0  0  0  0  0  0  0  0  0  0  0
   57.1156   34.4761   44.5918 H   0  0  0  0  0  0  0  0  0  0  0  0
   57.9450   32.7800   45.6730 C   0  0  0  0  0  0  0  0  0  0  0  0
   57.7990   33.3370   46.9570 O   0  0  0  0  0  0  0  0  0  0  0  0
   58.6350   34.3460   47.5210 C   0  0  0  0  0  0  0  0  0  0  0  0
   58.9504   35.0389   46.7270 H   0  0  0  0  0  0  0  0  0  0  0  0
   58.0670   34.8842   48.2941 H   0  0  0  0  0  0  0  0  0  0  0  0
   59.8560   33.7330   48.1560 C   0  0  0  0  0  0  0  0  0  0  0  0
   59.8050   33.2420   49.4670 C   0  0  0  0  0  0  0  0  0  0  0  0
   58.8680   33.3056   50.0396 H   0  0  0  0  0  0  0  0  0  0  0  0
   60.9370   32.6730   50.0490 C   0  0  0  0  0  0  0  0  0  0  0  0
   60.8852   32.2839   51.0766 H   0  0  0  0  0  0  0  0  0  0  0  0
   62.1390   32.5930   49.3360 C   0  0  0  0  0  0  0  0  0  0  0  0
   63.5250   31.8540   50.1320 Cl  0  0  0  0  0  0  0  0  0  0  0  0
   62.2140   33.0980   48.0170 C   0  0  0  0  0  0  0  0  0  0  0  0
   63.5070   33.0210   47.2340 C   0  0  0  0  0  0  0  0  0  0  0  0
   63.7440   31.7120   46.8560 F   0  0  0  0  0  0  0  0  0  0  0  0
   63.4120   33.8110   46.1020 F   0  0  0  0  0  0  0  0  0  0  0  0
   64.5890   33.4590   47.9790 F   0  0  0  0  0  0  0  0  0  0  0  0
   61.0630   33.6700   47.4410 C   0  0  0  0  0  0  0  0  0  0  0  0
   61.1101   34.0724   46.4183 H   0  0  0  0  0  0  0  0  0  0  0  0
   58.5130   31.4990   45.5540 C   0  0  0  0  0  0  0  0  0  0  0  0
   58.9020   30.7550   46.7670 C   0  0  0  0  0  0  0  0  0  0  0  0
   58.1473   30.6356   47.5583 H   0  0  0  0  0  0  0  0  0  0  0  0
   60.1120   30.2140   46.9720 C   0  0  0  0  0  0  0  0  0  0  0  0
   60.9313   30.5498   46.3193 H   0  0  0  0  0  0  0  0  0  0  0  0
   60.4390   29.1980   48.0080 C   0  0  0  0  0  0  0  0  0  0  0  0
   60.6750   29.5500   49.1950 O   0  0  0  0  0  0  0  0  0  0  0  0
   60.5470   27.7600   47.6850 C   0  0  0  0  0  0  0  0  0  0  0  0
   61.0779   27.1049   48.3914 H   0  0  0  0  0  0  0  0  0  0  0  0
   60.0310   27.2130   46.5750 C   0  0  0  0  0  0  0  0  0  0  0  0
   60.7219   26.8939   45.7808 H   0  0  0  0  0  0  0  0  0  0  0  0
   58.5760   27.0160   46.3630 C   0  0  0  0  0  0  0  0  0  0  0  0
   57.9880   25.8180   46.7980 C   0  0  0  0  0  0  0  0  0  0  0  0
   58.6102   25.0471   47.2761 H   0  0  0  0  0  0  0  0  0  0  0  0
   56.6210   25.5970   46.6290 C   0  0  0  0  0  0  0  0  0  0  0  0
   56.1732   24.6504   46.9657 H   0  0  0  0  0  0  0  0  0  0  0  0
   55.8190   26.5730   46.0340 C   0  0  0  0  0  0  0  0  0  0  0  0
   54.4590   26.3380   45.8690 O   0  0  0  0  0  0  0  0  0  0  0  0
   56.3770   27.7860   45.6090 C   0  0  0  0  0  0  0  0  0  0  0  0
   55.5320   28.7450   45.0290 O   0  0  0  0  0  0  0  0  0  0  0  0
   55.8880   29.5750   43.9280 C   0  0  0  0  0  0  0  0  0  0  0  0
   56.2957   30.5256   44.3022 H   0  0  0  0  0  0  0  0  0  0  0  0
   56.6471   29.0662   43.3156 H   0  0  0  0  0  0  0  0  0  0  0  0
   54.9962   29.7743   43.3156 H   0  0  0  0  0  0  0  0  0  0  0  0
   57.7590   28.0060   45.7800 C   0  0  0  0  0  0  0  0  0  0  0  0
   58.2037   28.9584   45.4557 H   0  0  0  0  0  0  0  0  0  0  0  0
  1  2  1  0
  2  3  1  0
  3  4  2  0
  4  5  1  0
  4  6  1  0
  6  7  1  0
  6  8  2  0
  8  9  1  0
  8 10  1  0
 10 11  1  0
 11 12  1  0
 12 13  1  0
 12 14  1  0
 12 15  1  0
 15 16  2  0
 16 17  1  0
 16 18  1  0
 18 19  1  0
 18 20  2  0
 20 21  1  0
 20 22  1  0
 22 23  1  0
 23 24  1  0
 23 25  1  0
 23 26  1  0
 22 27  2  0
 27 28  1  0
 10 29  2  0
 29 30  1  0
 30 31  1  0
 30 32  2  0
 32 33  1  0
 32 34  1  0
 34 35  2  0
 34 36  1  0
 36 37  1  0
 36 38  2  3
 38 39  1  0
 38 40  1  0
 40 41  2  0
 41 42  1  0
 41 43  1  0
 43 44  1  0
 43 45  2  0
 45 46  1  0
 45 47  1  0
 47 48  1  0
 48 49  1  0
 49 50  1  0
 49 51  1  0
 49 52  1  0
 47 53  2  0
 53 54  1  0
 29  3  1  0
 53 40  1  0
 27 15  1  0
M  CHG  1  46  -1
M  END
>  <UniqueID>  (81) 
78

>  <SMILES>  (81) 
COc1cc(C=CC(=O)/C=C\c2c(O)cccc2OCc2ccc(Cl)c(C(F)(F)F)c2)ccc1[O-]

>  <Energy>  (81) 
71.30677843343145

>  <Genealogy>  (81) 
COc1cc(C=CC(=O)C=Cc2c(O)cccc2OCc2ccc(Cl)c(C(F)(F)F)c2)ccc1[O-] (protonated)
COc1cc(C=CC(=O)/C=C\c2c(O)cccc2OCc2ccc(Cl)c(C(F)(F)F)c2)ccc1[O-] (cis-trans isomerization)
COc1cc(C=CC(=O)/C=C\c2c(O)cccc2OCc2ccc(Cl)c(C(F)(F)F)c2)ccc1[O-] (3D coordinates assigned)
COc1cc(C=CC(=O)/C=C\c2c(O)cccc2OCc2ccc(Cl)c(C(F)(F)F)c2)ccc1[O-] (optimized conformer: 71.30677843343145 kcal/mol)

>  <smiles>  (81) 
COc1cc(C=CC(=O)C=Cc2c(O)cccc2OCc2ccc(Cl)c(C(F)(F)F)c2)ccc1O

>  <score_type>  (81) 
oracle

>  <origin>  (81) 
adg

>  <m_score__min__energy>  (81) 
-13.24

>  <m_primary>  (81) 
energy

$$$$
81:0
     RDKit          3D

 44 45  0  0  1  0  0  0  0  0999 V2000
   57.1740   33.6730   44.9070 C   0  0  0  0  0  0  0  0  0  0  0  0
   58.1880   32.8290   44.1220 C   0  0  0  0  0  0  0  0  0  0  0  0
   57.4030   31.9820   43.1460 C   0  0  0  0  0  0  0  0  0  0  0  0
   56.8670   30.7710   43.8190 C   0  0  0  0  0  0  0  0  0  0  0  0
   55.6630   30.6380   44.4210 N   0  0  0  0  0  0  0  0  0  0  0  0
   55.5600   29.3990   44.9040 N   0  0  0  0  0  0  0  0  0  0  0  0
   56.6960   28.7280   44.6160 C   0  0  0  0  0  0  0  0  0  0  0  0
   56.9890   27.4880   44.9170 N   0  0  0  0  0  0  0  0  0  0  0  0
   58.3510   27.0920   44.9530 C   0  0  0  0  0  0  0  0  0  0  0  0
   59.1750   27.5150   44.1180 O   0  0  0  0  0  0  0  0  0  0  0  0
   58.7670   26.1510   46.0220 C   0  0  0  0  0  0  0  0  0  0  0  0
   60.0390   26.8380   47.0860 S   0  0  0  0  0  0  0  0  0  0  0  0
   59.8100   28.6100   47.1570 C   0  0  0  0  0  0  0  0  0  0  0  0
   59.4070   29.1510   48.3350 N   0  0  0  0  0  0  0  0  0  0  0  0
   59.2250   30.4860   48.4170 C   0  0  0  0  0  0  0  0  0  0  0  0
   58.8370   31.0390   49.5390 N   0  0  0  0  0  0  0  0  0  0  0  0
   59.4310   31.3370   47.3530 C   0  0  0  0  0  0  0  0  0  0  0  0
   59.2360   32.7810   47.4330 C   0  0  0  0  0  0  0  0  0  0  0  0
   58.1320   33.2500   47.8520 O   0  0  0  0  0  0  0  0  0  0  0  0
   60.2730   33.6040   47.0450 O   0  0  0  0  0  0  0  0  0  0  0  0
   61.4600   33.7570   47.8190 C   0  0  0  0  0  0  0  0  0  0  0  0
   62.6330   33.4870   46.9080 C   0  0  0  0  0  0  0  0  0  0  0  0
   59.8430   30.7430   46.1640 C   0  0  0  0  0  0  0  0  0  0  0  0
   60.0250   29.4060   46.0840 N   0  0  0  0  0  0  0  0  0  0  0  0
   57.5080   29.5740   43.9440 N   0  0  0  0  0  0  0  0  0  0  0  0
   57.3394   33.5353   45.9857 H   0  0  0  0  0  0  0  0  0  0  0  0
   57.3026   34.7345   44.6489 H   0  0  0  0  0  0  0  0  0  0  0  0
   56.1534   33.3539   44.6489 H   0  0  0  0  0  0  0  0  0  0  0  0
   58.8833   33.4849   43.5776 H   0  0  0  0  0  0  0  0  0  0  0  0
   58.7790   32.1967   44.8009 H   0  0  0  0  0  0  0  0  0  0  0  0
   56.5664   32.5733   42.7455 H   0  0  0  0  0  0  0  0  0  0  0  0
   58.0715   31.6684   42.3307 H   0  0  0  0  0  0  0  0  0  0  0  0
   54.7690   28.9610   45.4230 H   0  0  0  0  0  0  0  0  0  0  0  0
   57.8885   25.9044   46.6364 H   0  0  0  0  0  0  0  0  0  0  0  0
   59.1847   25.2569   45.5362 H   0  0  0  0  0  0  0  0  0  0  0  0
   58.3220   31.9540   49.4590 H   0  0  0  0  0  0  0  0  0  0  0  0
   61.5204   34.7812   48.2157 H   0  0  0  0  0  0  0  0  0  0  0  0
   61.4609   33.0592   48.6694 H   0  0  0  0  0  0  0  0  0  0  0  0
   63.5278   33.2810   47.5137 H   0  0  0  0  0  0  0  0  0  0  0  0
   62.4115   32.6164   46.2732 H   0  0  0  0  0  0  0  0  0  0  0  0
   62.8144   34.3669   46.2732 H   0  0  0  0  0  0  0  0  0  0  0  0
   60.0229   31.3695   45.2779 H   0  0  0  0  0  0  0  0  0  0  0  0
   60.3320   28.9940   45.1850 H   0  0  0  0  0  0  0  0  0  0  0  0
   58.4600   29.3920   43.5680 H   0  0  0  0  0  0  0  0  0  0  0  0
  1  2  1  0
  2  3  1  0
  3  4  1  0
  4  5  2  0
  5  6  1  0
  6  7  1  0
  7  8  2  0
  8  9  1  0
  9 10  2  0
  9 11  1  0
 11 12  1  0
 12 13  1  0
 13 14  2  0
 14 15  1  0
 15 16  2  3
 15 17  1  0
 17 18  1  0
 18 19  2  0
 18 20  1  0
 20 21  1  0
 21 22  1  0
 17 23  2  0
 23 24  1  0
  7 25  1  0
 25  4  1  0
 24 13  1  0
  1 26  1  0
  1 27  1  0
  1 28  1  0
  2 29  1  0
  2 30  1  0
  3 31  1  0
  3 32  1  0
  6 33  1  0
 11 34  1  0
 11 35  1  0
 16 36  1  0
 21 37  1  0
 21 38  1  0
 22 39  1  0
 22 40  1  0
 22 41  1  0
 23 42  1  0
 24 43  1  0
 25 44  1  0
M  END
>  <smiles>  (82) 
CCCc1n[nH]c(=NC(=O)CSc2nc(=N)c(C(=O)OCC)c[nH]2)[nH]1

>  <score_type>  (82) 
oracle

>  <origin>  (82) 
adg

>  <m_score__min__energy>  (82) 
-7.54

>  <m_primary>  (82) 
energy

$$$$
82:0
     RDKit          3D

 51 53  0  0  0  0  0  0  0  0999 V2000
   56.9610   33.8800   45.0650 C   0  0  0  0  0  0  0  0  0  0  0  0
   58.1080   33.9880   46.0200 C   0  0  0  0  0  0  0  0  0  0  0  0
   59.2970   34.6150   45.6340 C   0  0  0  0  0  0  0  0  0  0  0  0
   60.3620   34.6800   46.5330 C   0  0  0  0  0  0  0  0  0  0  0  0
   60.2410   34.1060   47.8070 C   0  0  0  0  0  0  0  0  0  0  0  0
   61.3960   34.1460   48.7740 C   0  0  0  0  0  0  0  0  0  0  0  0
   61.5830   32.8470   49.4180 N   0  0  0  0  0  0  0  0  0  0  0  0
   61.1940   32.6230   50.7780 C   0  0  0  0  0  0  0  0  0  0  0  0
   60.9500   33.5990   51.5380 O   0  0  0  0  0  0  0  0  0  0  0  0
   61.1210   31.2230   51.3120 C   0  0  0  0  0  0  0  0  0  0  0  0
   61.7300   30.2630   50.3940 N   0  0  0  0  0  0  0  0  0  0  0  0
   61.4500   28.8580   50.2820 C   0  0  0  0  0  0  0  0  0  0  0  0
   62.0390   28.0700   51.0690 O   0  0  0  0  0  0  0  0  0  0  0  0
   60.4600   28.3000   49.3330 C   0  0  0  0  0  0  0  0  0  0  0  0
   59.2970   29.0060   48.9830 C   0  0  0  0  0  0  0  0  0  0  0  0
   58.4030   28.4780   48.0450 C   0  0  0  0  0  0  0  0  0  0  0  0
   58.6630   27.2430   47.4310 C   0  0  0  0  0  0  0  0  0  0  0  0
   57.7600   26.7450   46.3300 C   0  0  0  0  0  0  0  0  0  0  0  0
   56.8130   27.7410   45.9340 O   0  0  0  0  0  0  0  0  0  0  0  0
   57.1050   28.8870   45.1790 C   0  0  0  0  0  0  0  0  0  0  0  0
   58.3990   29.4400   45.1130 C   0  0  0  0  0  0  0  0  0  0  0  0
   58.6420   30.5760   44.3350 C   0  0  0  0  0  0  0  0  0  0  0  0
   57.6000   31.1750   43.6240 C   0  0  0  0  0  0  0  0  0  0  0  0
   56.3130   30.6350   43.6860 C   0  0  0  0  0  0  0  0  0  0  0  0
   56.0650   29.4940   44.4570 C   0  0  0  0  0  0  0  0  0  0  0  0
   54.7800   28.9660   44.5100 O   0  0  0  0  0  0  0  0  0  0  0  0
   59.8410   26.5540   47.7570 C   0  0  0  0  0  0  0  0  0  0  0  0
   60.7260   27.0740   48.7050 C   0  0  0  0  0  0  0  0  0  0  0  0
   59.0340   33.4790   48.1510 C   0  0  0  0  0  0  0  0  0  0  0  0
   58.0110   33.4310   47.2580 N   0  0  0  0  0  0  0  0  0  0  0  0
   56.0210   33.7915   45.6294 H   0  0  0  0  0  0  0  0  0  0  0  0
   56.9252   34.7788   44.4318 H   0  0  0  0  0  0  0  0  0  0  0  0
   57.0936   32.9904   44.4318 H   0  0  0  0  0  0  0  0  0  0  0  0
   59.3918   35.0534   44.6296 H   0  0  0  0  0  0  0  0  0  0  0  0
   61.2969   35.1816   46.2425 H   0  0  0  0  0  0  0  0  0  0  0  0
   62.3132   34.4128   48.2285 H   0  0  0  0  0  0  0  0  0  0  0  0
   61.1786   34.8947   49.5500 H   0  0  0  0  0  0  0  0  0  0  0  0
   61.9430   32.0370   48.8630 H   0  0  0  0  0  0  0  0  0  0  0  0
   61.6504   31.1806   52.2753 H   0  0  0  0  0  0  0  0  0  0  0  0
   60.0606   30.9567   51.4335 H   0  0  0  0  0  0  0  0  0  0  0  0
   59.0878   29.9801   49.4493 H   0  0  0  0  0  0  0  0  0  0  0  0
   57.4900   29.0347   47.7870 H   0  0  0  0  0  0  0  0  0  0  0  0
   58.3753   26.4717   45.4601 H   0  0  0  0  0  0  0  0  0  0  0  0
   57.2049   25.8739   46.7083 H   0  0  0  0  0  0  0  0  0  0  0  0
   59.2221   28.9759   45.6762 H   0  0  0  0  0  0  0  0  0  0  0  0
   59.6561   30.9988   44.2829 H   0  0  0  0  0  0  0  0  0  0  0  0
   57.7923   32.0711   43.0157 H   0  0  0  0  0  0  0  0  0  0  0  0
   55.4922   31.1082   43.1271 H   0  0  0  0  0  0  0  0  0  0  0  0
   60.0693   25.5981   47.2630 H   0  0  0  0  0  0  0  0  0  0  0  0
   61.6394   26.5172   48.9612 H   0  0  0  0  0  0  0  0  0  0  0  0
   58.9155   33.0252   49.1460 H   0  0  0  0  0  0  0  0  0  0  0  0
  1  2  1  0
  2  3  2  0
  3  4  1  0
  4  5  2  0
  5  6  1  0
  6  7  1  0
  7  8  1  0
  8  9  2  0
  8 10  1  0
 10 11  1  0
 11 12  1  0
 12 13  2  0
 12 14  1  0
 14 15  2  0
 15 16  1  0
 16 17  2  0
 17 18  1  0
 18 19  1  0
 19 20  1  0
 20 21  2  0
 21 22  1  0
 22 23  2  0
 23 24  1  0
 24 25  2  0
 25 26  1  0
 17 27  1  0
 27 28  2  0
  5 29  1  0
 29 30  2  0
 30  2  1  0
 28 14  1  0
 25 20  1  0
  1 31  1  0
  1 32  1  0
  1 33  1  0
  3 34  1  0
  4 35  1  0
  6 36  1  0
  6 37  1  0
  7 38  1  0
 10 39  1  0
 10 40  1  0
 15 41  1  0
 16 42  1  0
 18 43  1  0
 18 44  1  0
 21 45  1  0
 22 46  1  0
 23 47  1  0
 24 48  1  0
 27 49  1  0
 28 50  1  0
 29 51  1  0
M  CHG  2  11  -1  26  -1
M  END
>  <UniqueID>  (83) 
79

>  <SMILES>  (83) 
Cc1ccc(CNC(=O)C[N-]C(=O)c2ccc(COc3ccccc3[O-])cc2)cn1

>  <Energy>  (83) 
50.61743261311487

>  <Genealogy>  (83) 
Cc1ccc(CNC(=O)C[N-]C(=O)c2ccc(COc3ccccc3[O-])cc2)cn1 (protonated)
Cc1ccc(CNC(=O)C[N-]C(=O)c2ccc(COc3ccccc3[O-])cc2)cn1 (3D coordinates assigned)
Cc1ccc(CNC(=O)C[N-]C(=O)c2ccc(COc3ccccc3[O-])cc2)cn1 (optimized conformer: 50.61743261311487 kcal/mol)

>  <smiles>  (83) 
Cc1ccc(CNC(=O)CNC(=O)c2ccc(COc3ccccc3O)cc2)cn1

>  <score_type>  (83) 
oracle

>  <origin>  (83) 
adg

>  <m_score__min__energy>  (83) 
-12.99

>  <m_primary>  (83) 
energy

$$$$
83:0
     RDKit          3D

 52 55  0  0  0  0  0  0  0  0999 V2000
   59.2894   25.9200   45.3511 H   0  0  0  0  0  0  0  0  0  0  0  0
   58.3520   25.4790   45.7210 C   0  0  0  0  0  0  0  0  0  0  0  0
   58.2340   24.0910   45.8840 C   0  0  0  0  0  0  0  0  0  0  0  0
   59.3620   23.1860   45.5740 C   0  0  0  0  0  0  0  0  0  0  0  0
   60.5470   23.6110   45.6230 O   0  0  0  0  0  0  0  0  0  0  0  0
   59.1280   21.8220   45.2170 N   0  0  0  0  0  0  0  0  0  0  0  0
   58.1610   21.4300   45.1650 H   0  0  0  0  0  0  0  0  0  0  0  0
   59.9320   21.1920   45.0010 H   0  0  0  0  0  0  0  0  0  0  0  0
   57.0580   23.5730   46.3300 N   0  0  0  0  0  0  0  0  0  0  0  0
   55.9930   24.3660   46.6120 C   0  0  0  0  0  0  0  0  0  0  0  0
   54.8960   23.8220   47.0540 N   0  0  0  0  0  0  0  0  0  0  0  0
   53.6810   23.6190   46.3140 C   0  0  0  0  0  0  0  0  0  0  0  0
   53.4040   24.3220   45.1260 C   0  0  0  0  0  0  0  0  0  0  0  0
   54.1197   25.0692   44.7525 H   0  0  0  0  0  0  0  0  0  0  0  0
   52.2240   24.0750   44.4190 C   0  0  0  0  0  0  0  0  0  0  0  0
   52.0054   24.6395   43.5005 H   0  0  0  0  0  0  0  0  0  0  0  0
   51.3210   23.1110   44.8780 C   0  0  0  0  0  0  0  0  0  0  0  0
   50.3886   22.9228   44.3255 H   0  0  0  0  0  0  0  0  0  0  0  0
   51.6040   22.3870   46.0390 C   0  0  0  0  0  0  0  0  0  0  0  0
   50.8975   21.6231   46.3958 H   0  0  0  0  0  0  0  0  0  0  0  0
   52.7840   22.6320   46.7480 C   0  0  0  0  0  0  0  0  0  0  0  0
   53.0102   22.0471   47.6517 H   0  0  0  0  0  0  0  0  0  0  0  0
   56.1050   25.7140   46.4700 N   0  0  0  0  0  0  0  0  0  0  0  0
   57.2560   26.2970   46.0370 C   0  0  0  0  0  0  0  0  0  0  0  0
   57.3110   27.7740   45.8940 C   0  0  0  0  0  0  0  0  0  0  0  0
   56.5690   28.4450   44.9030 C   0  0  0  0  0  0  0  0  0  0  0  0
   55.9256   27.8701   44.2206 H   0  0  0  0  0  0  0  0  0  0  0  0
   56.6430   29.8350   44.7790 C   0  0  0  0  0  0  0  0  0  0  0  0
   56.0570   30.3453   44.0004 H   0  0  0  0  0  0  0  0  0  0  0  0
   57.4590   30.5850   45.6400 C   0  0  0  0  0  0  0  0  0  0  0  0
   57.5470   32.0180   45.5000 N   0  0  0  0  0  0  0  0  0  0  0  0
   57.6480   32.6490   44.1810 C   0  0  0  0  0  0  0  0  0  0  0  0
   56.7510   33.2598   44.0014 H   0  0  0  0  0  0  0  0  0  0  0  0
   57.7295   31.8642   43.4145 H   0  0  0  0  0  0  0  0  0  0  0  0
   58.8970   33.5480   44.1120 C   0  0  0  0  0  0  0  0  0  0  0  0
   58.7060   34.3508   43.3847 H   0  0  0  0  0  0  0  0  0  0  0  0
   59.7384   32.9031   43.8184 H   0  0  0  0  0  0  0  0  0  0  0  0
   59.2640   34.1710   45.4110 N   0  0  0  0  0  0  0  0  0  0  0  0
   60.4360   33.5170   46.0200 C   0  0  0  0  0  0  0  0  0  0  0  0
   60.3534   33.5631   47.1159 H   0  0  0  0  0  0  0  0  0  0  0  0
   60.4770   32.4656   45.6993 H   0  0  0  0  0  0  0  0  0  0  0  0
   61.3523   34.0342   45.6993 H   0  0  0  0  0  0  0  0  0  0  0  0
   58.1310   34.2620   46.3580 C   0  0  0  0  0  0  0  0  0  0  0  0
   57.3411   34.8824   45.9094 H   0  0  0  0  0  0  0  0  0  0  0  0
   58.5018   34.7083   47.2925 H   0  0  0  0  0  0  0  0  0  0  0  0
   57.5490   32.8770   46.6880 C   0  0  0  0  0  0  0  0  0  0  0  0
   56.5168   32.9960   47.0490 H   0  0  0  0  0  0  0  0  0  0  0  0
   58.1730   32.4071   47.4625 H   0  0  0  0  0  0  0  0  0  0  0  0
   58.2170   29.9180   46.6140 C   0  0  0  0  0  0  0  0  0  0  0  0
   58.8736   30.4932   47.2834 H   0  0  0  0  0  0  0  0  0  0  0  0
   58.1440   28.5280   46.7400 C   0  0  0  0  0  0  0  0  0  0  0  0
   58.7440   28.0186   47.5085 H   0  0  0  0  0  0  0  0  0  0  0  0
  1  2  1  0
  2  3  1  0
  3  4  1  0
  4  5  2  0
  4  6  1  0
  6  7  1  0
  6  8  1  0
  3  9  2  0
  9 10  1  0
 10 11  2  0
 11 12  1  0
 12 13  2  0
 13 14  1  0
 13 15  1  0
 15 16  1  0
 15 17  2  0
 17 18  1  0
 17 19  1  0
 19 20  1  0
 19 21  2  0
 21 22  1  0
 10 23  1  0
 23 24  1  0
 24 25  1  0
 25 26  2  0
 26 27  1  0
 26 28  1  0
 28 29  1  0
 28 30  2  0
 30 31  1  0
 31 32  1  0
 32 33  1  0
 32 34  1  0
 32 35  1  0
 35 36  1  0
 35 37  1  0
 35 38  1  0
 38 39  1  0
 39 40  1  0
 39 41  1  0
 39 42  1  0
 38 43  1  0
 43 44  1  0
 43 45  1  0
 43 46  1  0
 46 47  1  0
 46 48  1  0
 30 49  1  0
 49 50  1  0
 49 51  2  0
 51 52  1  0
 24  2  2  0
 51 25  1  0
 21 12  1  0
 46 31  1  0
M  CHG  1  23  -1
M  END
>  <UniqueID>  (84) 
80

>  <SMILES>  (84) 
CN1CCN(c2ccc(-c3cc(C(N)=O)n/c(=N/c4ccccc4)[n-]3)cc2)CC1

>  <Energy>  (84) 
76.04379373133905

>  <Genealogy>  (84) 
CN1CCN(c2ccc(-c3cc(C(N)=O)nc(=Nc4ccccc4)[n-]3)cc2)CC1 (protonated)
CN1CCN(c2ccc(-c3cc(C(N)=O)n/c(=N/c4ccccc4)[n-]3)cc2)CC1 (cis-trans isomerization)
CN1CCN(c2ccc(-c3cc(C(N)=O)n/c(=N/c4ccccc4)[n-]3)cc2)CC1 (3D coordinates assigned)
CN1CCN(c2ccc(-c3cc(C(N)=O)n/c(=N/c4ccccc4)[n-]3)cc2)CC1 (nonaromatic ring conformer: 76.04379373133905 kcal/mol)

>  <smiles>  (84) 
CN1CCN(c2ccc(-c3cc(C(N)=O)nc(=Nc4ccccc4)[nH]3)cc2)CC1

>  <score_type>  (84) 
oracle

>  <origin>  (84) 
adg

>  <m_score__min__energy>  (84) 
-9.4299999999999997

>  <m_primary>  (84) 
energy

$$$$
84:0
     RDKit          3D

 21 21  0  0  0  0  0  0  0  0999 V2000
   59.7110   26.4530   47.2680 C   0  0  0  0  0  0  0  0  0  0  0  0
   58.4850   26.4310   46.7250 C   0  0  0  0  0  0  0  0  0  0  0  0
   57.7140   25.3590   47.0390 N   0  0  0  0  0  0  0  0  0  0  0  0
   56.3940   25.3130   46.7660 C   0  0  0  0  0  0  0  0  0  0  0  0
   55.7320   24.2850   47.0730 O   0  0  0  0  0  0  0  0  0  0  0  0
   55.7830   26.3780   46.1950 N   0  0  0  0  0  0  0  0  0  0  0  0
   54.4240   26.3340   45.9690 O   0  0  0  0  0  0  0  0  0  0  0  0
   56.4950   27.4710   45.8030 C   0  0  0  0  0  0  0  0  0  0  0  0
   55.8740   28.4030   45.2240 O   0  0  0  0  0  0  0  0  0  0  0  0
   57.9130   27.5240   45.9870 C   0  0  0  0  0  0  0  0  0  0  0  0
   58.6720   28.5280   45.4240 C   0  0  0  0  0  0  0  0  0  0  0  0
   58.3920   29.9950   45.6660 C   0  0  0  0  0  0  0  0  0  0  0  0
   59.9350   28.2560   44.6380 C   0  0  0  0  0  0  0  0  0  0  0  0
   60.3909   27.2916   47.0572 H   0  0  0  0  0  0  0  0  0  0  0  0
   60.0367   25.6324   47.9242 H   0  0  0  0  0  0  0  0  0  0  0  0
   58.3552   30.1876   46.7484 H   0  0  0  0  0  0  0  0  0  0  0  0
   59.1908   30.6004   45.2128 H   0  0  0  0  0  0  0  0  0  0  0  0
   57.4264   30.2636   45.2128 H   0  0  0  0  0  0  0  0  0  0  0  0
   60.7682   28.0766   45.3334 H   0  0  0  0  0  0  0  0  0  0  0  0
   59.7887   27.3688   44.0044 H   0  0  0  0  0  0  0  0  0  0  0  0
   60.1668   29.1248   44.0044 H   0  0  0  0  0  0  0  0  0  0  0  0
  1  2  2  0
  2  3  1  0
  3  4  1  0
  4  5  2  0
  4  6  1  0
  6  7  1  0
  6  8  1  0
  8  9  2  0
  8 10  1  0
 10 11  2  3
 11 12  1  0
 11 13  1  0
 10  2  1  0
  1 14  1  0
  1 15  1  0
 12 16  1  0
 12 17  1  0
 12 18  1  0
 13 19  1  0
 13 20  1  0
 13 21  1  0
M  CHG  2   3  -1   7  -1
M  END
>  <UniqueID>  (85) 
81

>  <SMILES>  (85) 
C=c1[n-]c(=O)n([O-])c(=O)c1=C(C)C

>  <Energy>  (85) 
47.006841947754765

>  <Genealogy>  (85) 
C=c1[n-]c(=O)n([O-])c(=O)c1=C(C)C (protonated)
C=c1[n-]c(=O)n([O-])c(=O)c1=C(C)C (3D coordinates assigned)
C=c1[n-]c(=O)n([O-])c(=O)c1=C(C)C (optimized conformer: 47.006841947754765 kcal/mol)

>  <smiles>  (85) 
C=c1[nH]c(=O)n(O)c(=O)c1=C(C)C

>  <score_type>  (85) 
oracle

>  <origin>  (85) 
adg

>  <m_score__min__energy>  (85) 
-11.960000000000001

>  <m_primary>  (85) 
energy

$$$$
85:0
     RDKit          3D

 55 58  0  0  0  0  0  0  0  0999 V2000
   58.4153   30.8772   51.9576 H   0  0  0  0  0  0  0  0  0  0  0  0
   58.9090   30.7350   50.9850 C   0  0  0  0  0  0  0  0  0  0  0  0
   59.1350   29.4780   50.5270 N   0  0  0  0  0  0  0  0  0  0  0  0
   59.7230   29.2410   49.3270 C   0  0  0  0  0  0  0  0  0  0  0  0
   59.9900   27.8960   48.8960 N   0  0  0  0  0  0  0  0  0  0  0  0
   60.6130   27.3060   49.4930 H   0  0  0  0  0  0  0  0  0  0  0  0
   59.3710   27.2750   47.7560 C   0  0  0  0  0  0  0  0  0  0  0  0
   60.1660   26.5690   46.8410 C   0  0  0  0  0  0  0  0  0  0  0  0
   61.2483   26.4782   47.0151 H   0  0  0  0  0  0  0  0  0  0  0  0
   59.5940   25.9800   45.7100 C   0  0  0  0  0  0  0  0  0  0  0  0
   60.2278   25.4278   45.0005 H   0  0  0  0  0  0  0  0  0  0  0  0
   58.2130   26.0900   45.4750 C   0  0  0  0  0  0  0  0  0  0  0  0
   57.6020   25.5270   44.3450 O   0  0  0  0  0  0  0  0  0  0  0  0
   57.4340   24.1550   44.1050 C   0  0  0  0  0  0  0  0  0  0  0  0
   56.5450   23.6710   43.1270 C   0  0  0  0  0  0  0  0  0  0  0  0
   55.9497   24.3773   42.5297 H   0  0  0  0  0  0  0  0  0  0  0  0
   56.4160   22.2950   42.9120 C   0  0  0  0  0  0  0  0  0  0  0  0
   55.7127   21.9205   42.1536 H   0  0  0  0  0  0  0  0  0  0  0  0
   57.1810   21.3950   43.6610 C   0  0  0  0  0  0  0  0  0  0  0  0
   57.0742   20.3126   43.4967 H   0  0  0  0  0  0  0  0  0  0  0  0
   58.0810   21.8710   44.6180 C   0  0  0  0  0  0  0  0  0  0  0  0
   58.6877   21.1632   45.2019 H   0  0  0  0  0  0  0  0  0  0  0  0
   58.2110   23.2460   44.8340 C   0  0  0  0  0  0  0  0  0  0  0  0
   58.9282   23.6164   45.5813 H   0  0  0  0  0  0  0  0  0  0  0  0
   57.4260   26.8300   46.3640 C   0  0  0  0  0  0  0  0  0  0  0  0
   56.3492   26.9468   46.1721 H   0  0  0  0  0  0  0  0  0  0  0  0
   57.9970   27.4220   47.4940 C   0  0  0  0  0  0  0  0  0  0  0  0
   57.3683   28.0061   48.1822 H   0  0  0  0  0  0  0  0  0  0  0  0
   60.0920   30.3180   48.5200 C   0  0  0  0  0  0  0  0  0  0  0  0
   60.6076   30.1324   47.5662 H   0  0  0  0  0  0  0  0  0  0  0  0
   59.8120   31.6340   48.9130 C   0  0  0  0  0  0  0  0  0  0  0  0
   60.0270   32.5610   48.0150 N   0  0  0  0  0  0  0  0  0  0  0  0
   59.2060   32.9830   46.9210 C   0  0  0  0  0  0  0  0  0  0  0  0
   59.5520   34.1300   46.1990 C   0  0  0  0  0  0  0  0  0  0  0  0
   60.4130   34.7382   46.5133 H   0  0  0  0  0  0  0  0  0  0  0  0
   58.8050   34.5040   45.0790 C   0  0  0  0  0  0  0  0  0  0  0  0
   59.0587   35.4236   44.5313 H   0  0  0  0  0  0  0  0  0  0  0  0
   57.7360   33.7110   44.6540 C   0  0  0  0  0  0  0  0  0  0  0  0
   57.1414   34.0182   43.7811 H   0  0  0  0  0  0  0  0  0  0  0  0
   57.4160   32.5270   45.3320 C   0  0  0  0  0  0  0  0  0  0  0  0
   56.3300   31.7300   44.8400 N   0  0  0  0  0  0  0  0  0  0  0  0
   56.4110   30.0480   44.4200 S   0  0  0  0  0  0  0  0  0  0  0  0
   57.5980   29.4380   45.1100 O   0  0  0  0  0  0  0  0  0  0  0  0
   55.1680   29.3420   44.8830 O   0  0  0  0  0  0  0  0  0  0  0  0
   56.6130   29.8570   42.6610 C   0  0  0  0  0  0  0  0  0  0  0  0
   57.3989   29.1139   42.4607 H   0  0  0  0  0  0  0  0  0  0  0  0
   55.6654   29.5170   42.2179 H   0  0  0  0  0  0  0  0  0  0  0  0
   56.8995   30.8222   42.2179 H   0  0  0  0  0  0  0  0  0  0  0  0
   58.1700   32.1580   46.4600 C   0  0  0  0  0  0  0  0  0  0  0  0
   57.9460   31.2170   46.9837 H   0  0  0  0  0  0  0  0  0  0  0  0
   59.2980   31.8610   50.2320 C   0  0  0  0  0  0  0  0  0  0  0  0
   59.2850   33.2110   50.9350 C   0  0  0  0  0  0  0  0  0  0  0  0
   60.4040   33.3520   51.7300 F   0  0  0  0  0  0  0  0  0  0  0  0
   59.2880   34.2470   50.0160 F   0  0  0  0  0  0  0  0  0  0  0  0
   58.1390   33.3600   51.6930 F   0  0  0  0  0  0  0  0  0  0  0  0
  1  2  1  0
  2  3  1  0
  3  4  1  0
  4  5  1  0
  5  6  1  0
  5  7  1  0
  7  8  2  0
  8  9  1  0
  8 10  1  0
 10 11  1  0
 10 12  2  0
 12 13  1  0
 13 14  1  0
 14 15  2  0
 15 16  1  0
 15 17  1  0
 17 18  1  0
 17 19  2  0
 19 20  1  0
 19 21  1  0
 21 22  1  0
 21 23  2  0
 23 24  1  0
 12 25  1  0
 25 26  1  0
 25 27  2  0
 27 28  1  0
  4 29  2  0
 29 30  1  0
 29 31  1  0
 31 32  2  0
 32 33  1  0
 33 34  2  0
 34 35  1  0
 34 36  1  0
 36 37  1  0
 36 38  2  0
 38 39  1  0
 38 40  1  0
 40 41  1  0
 41 42  1  0
 42 43  2  0
 42 44  2  0
 42 45  1  0
 45 46  1  0
 45 47  1  0
 45 48  1  0
 40 49  2  0
 49 50  1  0
 31 51  1  0
 51 52  1  0
 52 53  1  0
 52 54  1  0
 52 55  1  0
 51  2  2  0
 27  7  1  0
 49 33  1  0
 23 14  1  0
M  CHG  2   3  -1  41  -1
M  END
>  <UniqueID>  (86) 
82

>  <SMILES>  (86) 
CS(=O)(=O)[N-]c1cccc(/N=c2/cc(Nc3ccc(Oc4ccccc4)cc3)[n-]cc2C(F)(F)F)c1

>  <Energy>  (86) 
91.9964241941567

>  <Genealogy>  (86) 
CS(=O)(=O)[N-]c1cccc(N=c2cc(Nc3ccc(Oc4ccccc4)cc3)[n-]cc2C(F)(F)F)c1 (protonated)
CS(=O)(=O)[N-]c1cccc(/N=c2/cc(Nc3ccc(Oc4ccccc4)cc3)[n-]cc2C(F)(F)F)c1 (cis-trans isomerization)
CS(=O)(=O)[N-]c1cccc(/N=c2/cc(Nc3ccc(Oc4ccccc4)cc3)[n-]cc2C(F)(F)F)c1 (3D coordinates assigned)
CS(=O)(=O)[N-]c1cccc(/N=c2/cc(Nc3ccc(Oc4ccccc4)cc3)[n-]cc2C(F)(F)F)c1 (optimized conformer: 91.9964241941567 kcal/mol)

>  <smiles>  (86) 
CS(=O)(=O)Nc1cccc(N=c2cc(Nc3ccc(Oc4ccccc4)cc3)[nH]cc2C(F)(F)F)c1

>  <score_type>  (86) 
oracle

>  <origin>  (86) 
adg

>  <m_score__min__energy>  (86) 
-12.57

>  <m_primary>  (86) 
energy

$$$$
86:0
     RDKit          3D

 57 60  0  0  0  0  0  0  0  0999 V2000
   58.1890   32.5310   51.4770 C   0  0  0  0  0  0  0  0  0  0  0  0
   59.0430   33.7850   51.3070 C   0  0  0  0  0  0  0  0  0  0  0  0
   60.3320   33.5220   50.5670 C   0  0  0  0  0  0  0  0  0  0  0  0
   61.4460   33.0170   51.1490 N   0  0  0  0  0  0  0  0  0  0  0  0
   62.3740   33.0100   50.1780 C   0  0  0  0  0  0  0  0  0  0  0  0
   61.8430   33.5530   49.0360 C   0  0  0  0  0  0  0  0  0  0  0  0
   60.5490   33.8630   49.2670 N   0  0  0  0  0  0  0  0  0  0  0  0
   59.6050   34.4830   48.3310 C   0  0  0  0  0  0  0  0  0  0  0  0
   59.0440   33.4520   47.3870 C   0  0  0  0  0  0  0  0  0  0  0  0
   57.8570   33.7020   46.6820 C   0  0  0  0  0  0  0  0  0  0  0  0
   57.3590   32.7580   45.7800 C   0  0  0  0  0  0  0  0  0  0  0  0
   58.0430   31.5500   45.5670 C   0  0  0  0  0  0  0  0  0  0  0  0
   57.5170   30.5460   44.6190 C   0  0  0  0  0  0  0  0  0  0  0  0
   56.9330   30.8280   43.3980 C   0  0  0  0  0  0  0  0  0  0  0  0
   56.6580   29.6120   42.8060 C   0  0  0  0  0  0  0  0  0  0  0  0
   57.0390   28.6050   43.6120 N   0  0  0  0  0  0  0  0  0  0  0  0
   57.5590   29.1590   44.7250 C   0  0  0  0  0  0  0  0  0  0  0  0
   57.9900   28.3750   45.9010 C   0  0  0  0  0  0  0  0  0  0  0  0
   57.8910   28.8770   47.0540 O   0  0  0  0  0  0  0  0  0  0  0  0
   58.4540   26.9530   45.7490 C   0  0  0  0  0  0  0  0  0  0  0  0
   57.3310   26.0600   45.3020 C   0  0  0  0  0  0  0  0  0  0  0  0
   57.3350   25.6100   44.1240 O   0  0  0  0  0  0  0  0  0  0  0  0
   56.2050   25.7420   46.1970 C   0  0  0  0  0  0  0  0  0  0  0  0
   54.9400   26.3670   46.0010 N   0  0  0  0  0  0  0  0  0  0  0  0
   56.3560   24.9210   47.1420 O   0  0  0  0  0  0  0  0  0  0  0  0
   59.2140   31.2880   46.2950 C   0  0  0  0  0  0  0  0  0  0  0  0
   59.7150   32.2360   47.1920 C   0  0  0  0  0  0  0  0  0  0  0  0
   62.5840   33.6410   47.7330 C   0  0  0  0  0  0  0  0  0  0  0  0
   64.1040   33.5040   47.9640 C   0  0  0  0  0  0  0  0  0  0  0  0
   64.4360   32.3570   48.9400 C   0  0  0  0  0  0  0  0  0  0  0  0
   63.8050   32.5910   50.3260 C   0  0  0  0  0  0  0  0  0  0  0  0
   58.0489   32.3253   52.5485 H   0  0  0  0  0  0  0  0  0  0  0  0
   57.2090   32.6876   51.0025 H   0  0  0  0  0  0  0  0  0  0  0  0
   58.6937   31.6765   51.0025 H   0  0  0  0  0  0  0  0  0  0  0  0
   58.4622   34.5318   50.7458 H   0  0  0  0  0  0  0  0  0  0  0  0
   59.3071   34.1434   52.3129 H   0  0  0  0  0  0  0  0  0  0  0  0
   61.5760   32.7100   52.1380 H   0  0  0  0  0  0  0  0  0  0  0  0
   58.7811   34.9410   48.8980 H   0  0  0  0  0  0  0  0  0  0  0  0
   60.1351   35.2494   47.7465 H   0  0  0  0  0  0  0  0  0  0  0  0
   57.3154   34.6463   46.8402 H   0  0  0  0  0  0  0  0  0  0  0  0
   56.4262   32.9621   45.2338 H   0  0  0  0  0  0  0  0  0  0  0  0
   56.7280   31.8249   42.9807 H   0  0  0  0  0  0  0  0  0  0  0  0
   56.1938   29.4847   41.8169 H   0  0  0  0  0  0  0  0  0  0  0  0
   56.9120   27.5870   43.4170 H   0  0  0  0  0  0  0  0  0  0  0  0
   59.2605   26.9166   45.0019 H   0  0  0  0  0  0  0  0  0  0  0  0
   58.8140   26.5977   46.7258 H   0  0  0  0  0  0  0  0  0  0  0  0
   54.5740   27.0640   46.6890 H   0  0  0  0  0  0  0  0  0  0  0  0
   59.7403   30.3317   46.1590 H   0  0  0  0  0  0  0  0  0  0  0  0
   60.6408   32.0270   47.7481 H   0  0  0  0  0  0  0  0  0  0  0  0
   62.2447   32.8327   47.0685 H   0  0  0  0  0  0  0  0  0  0  0  0
   62.3811   34.6200   47.2743 H   0  0  0  0  0  0  0  0  0  0  0  0
   64.5937   33.3034   46.9996 H   0  0  0  0  0  0  0  0  0  0  0  0
   64.4679   34.4435   48.4055 H   0  0  0  0  0  0  0  0  0  0  0  0
   64.0499   31.4136   48.5267 H   0  0  0  0  0  0  0  0  0  0  0  0
   65.5284   32.3145   49.0621 H   0  0  0  0  0  0  0  0  0  0  0  0
   63.8526   31.6594   50.9090 H   0  0  0  0  0  0  0  0  0  0  0  0
   64.3606   33.3866   50.8441 H   0  0  0  0  0  0  0  0  0  0  0  0
  1  2  1  0
  2  3  1  0
  3  4  2  0
  4  5  1  0
  5  6  2  0
  6  7  1  0
  7  8  1  0
  8  9  1  0
  9 10  2  0
 10 11  1  0
 11 12  2  0
 12 13  1  0
 13 14  1  0
 14 15  2  0
 15 16  1  0
 16 17  1  0
 17 18  1  0
 18 19  2  0
 18 20  1  0
 20 21  1  0
 21 22  2  0
 21 23  1  0
 23 24  1  0
 23 25  2  0
 12 26  1  0
 26 27  2  0
  6 28  1  0
 28 29  1  0
 29 30  1  0
 30 31  1  0
  7  3  1  0
 27  9  1  0
 31  5  1  0
 17 13  2  0
  1 32  1  0
  1 33  1  0
  1 34  1  0
  2 35  1  0
  2 36  1  0
  4 37  1  0
  8 38  1  0
  8 39  1  0
 10 40  1  0
 11 41  1  0
 14 42  1  0
 15 43  1  0
 16 44  1  0
 20 45  1  0
 20 46  1  0
 24 47  1  0
 26 48  1  0
 27 49  1  0
 28 50  1  0
 28 51  1  0
 29 52  1  0
 29 53  1  0
 30 54  1  0
 30 55  1  0
 31 56  1  0
 31 57  1  0
M  CHG  2   4   1  24  -1
M  END
>  <UniqueID>  (87) 
83

>  <SMILES>  (87) 
CCc1[nH+]c2c(n1Cc1ccc(-c3cc[nH]c3C(=O)CC(=O)C([NH-])=O)cc1)CCCC2

>  <Energy>  (87) 
114.93353942435853

>  <Genealogy>  (87) 
CCc1[nH+]c2c(n1Cc1ccc(-c3cc[nH]c3C(=O)CC(=O)C([NH-])=O)cc1)CCCC2 (protonated)
CCc1[nH+]c2c(n1Cc1ccc(-c3cc[nH]c3C(=O)CC(=O)C([NH-])=O)cc1)CCCC2 (3D coordinates assigned)
CCc1[nH+]c2c(n1Cc1ccc(-c3cc[nH]c3C(=O)CC(=O)C([NH-])=O)cc1)CCCC2 (nonaromatic ring conformer: 114.93353942435853 kcal/mol)

>  <smiles>  (87) 
CCc1nc2c(n1Cc1ccc(-c3cc[nH]c3C(=O)CC(=O)C(N)=O)cc1)CCCC2

>  <score_type>  (87) 
oracle

>  <origin>  (87) 
adg

>  <m_score__min__energy>  (87) 
-12.220000000000001

>  <m_primary>  (87) 
energy

$$$$
87:0
     RDKit          3D

 56 60  0  0  0  0  0  0  0  0999 V2000
   55.3334   30.4411   43.2562 H   0  0  0  0  0  0  0  0  0  0  0  0
   55.8360   29.4950   43.5060 C   0  0  0  0  0  0  0  0  0  0  0  0
   55.5201   28.5596   43.0210 H   0  0  0  0  0  0  0  0  0  0  0  0
   56.8330   29.4820   44.4010 C   0  0  0  0  0  0  0  0  0  0  0  0
   57.6110   28.3970   44.8690 C   0  0  0  0  0  0  0  0  0  0  0  0
   57.4870   27.0790   44.6170 C   0  0  0  0  0  0  0  0  0  0  0  0
   57.6825   26.7438   43.5877 H   0  0  0  0  0  0  0  0  0  0  0  0
   57.1140   26.0530   45.5960 C   0  0  0  0  0  0  0  0  0  0  0  0
   57.9670   25.1290   46.0750 N   0  0  0  0  0  0  0  0  0  0  0  0
   57.2150   24.4510   46.9700 C   0  0  0  0  0  0  0  0  0  0  0  0
   57.6630   23.4780   47.6320 O   0  0  0  0  0  0  0  0  0  0  0  0
   55.9470   24.9000   47.1020 N   0  0  0  0  0  0  0  0  0  0  0  0
   55.9030   25.9210   46.2310 C   0  0  0  0  0  0  0  0  0  0  0  0
   54.7850   26.7140   46.0290 O   0  0  0  0  0  0  0  0  0  0  0  0
   58.6080   28.8620   45.6650 N   0  0  0  0  0  0  0  0  0  0  0  0
   59.3470   28.2980   46.1400 H   0  0  0  0  0  0  0  0  0  0  0  0
   58.4630   30.1950   45.7300 C   0  0  0  0  0  0  0  0  0  0  0  0
   59.2800   31.0920   46.4160 C   0  0  0  0  0  0  0  0  0  0  0  0
   60.1205   30.7352   47.0294 H   0  0  0  0  0  0  0  0  0  0  0  0
   58.9990   32.4730   46.3020 C   0  0  0  0  0  0  0  0  0  0  0  0
   59.7850   33.4410   46.9470 O   0  0  0  0  0  0  0  0  0  0  0  0
   61.1640   33.3490   47.1850 C   0  0  0  0  0  0  0  0  0  0  0  0
   62.0270   34.1600   46.4410 C   0  0  0  0  0  0  0  0  0  0  0  0
   61.6144   34.8637   45.7031 H   0  0  0  0  0  0  0  0  0  0  0  0
   63.4080   34.0830   46.6280 C   0  0  0  0  0  0  0  0  0  0  0  0
   64.0794   34.7178   46.0311 H   0  0  0  0  0  0  0  0  0  0  0  0
   63.9390   33.2000   47.5730 C   0  0  0  0  0  0  0  0  0  0  0  0
   65.0280   33.1426   47.7171 H   0  0  0  0  0  0  0  0  0  0  0  0
   63.0860   32.3830   48.3420 C   0  0  0  0  0  0  0  0  0  0  0  0
   63.5960   31.4500   49.3150 N   0  0  0  0  0  0  0  0  0  0  0  0
   63.2500   30.4650   49.2650 H   0  0  0  0  0  0  0  0  0  0  0  0
   64.4380   31.8090   50.4290 C   0  0  0  0  0  0  0  0  0  0  0  0
   64.6690   33.0180   50.6930 O   0  0  0  0  0  0  0  0  0  0  0  0
   64.9890   30.7610   51.3110 C   0  0  0  0  0  0  0  0  0  0  0  0
   66.2350   30.5430   51.3190 O   0  0  0  0  0  0  0  0  0  0  0  0
   64.0980   29.9210   52.1880 C   0  0  0  0  0  0  0  0  0  0  0  0
   64.3531   28.8593   52.0553 H   0  0  0  0  0  0  0  0  0  0  0  0
   64.2471   30.2130   53.2380 H   0  0  0  0  0  0  0  0  0  0  0  0
   62.6540   30.1370   51.8160 C   0  0  0  0  0  0  0  0  0  0  0  0
   61.9080   31.1640   52.4210 C   0  0  0  0  0  0  0  0  0  0  0  0
   62.3733   31.7990   53.1893 H   0  0  0  0  0  0  0  0  0  0  0  0
   60.5760   31.3820   52.0500 C   0  0  0  0  0  0  0  0  0  0  0  0
   59.9958   32.1834   52.5308 H   0  0  0  0  0  0  0  0  0  0  0  0
   59.9830   30.5830   51.0700 C   0  0  0  0  0  0  0  0  0  0  0  0
   58.9353   30.7536   50.7815 H   0  0  0  0  0  0  0  0  0  0  0  0
   60.7220   29.5640   50.4540 C   0  0  0  0  0  0  0  0  0  0  0  0
   59.9750   28.5620   49.2210 Cl  0  0  0  0  0  0  0  0  0  0  0  0
   62.0540   29.3450   50.8220 C   0  0  0  0  0  0  0  0  0  0  0  0
   62.6341   28.5496   50.3313 H   0  0  0  0  0  0  0  0  0  0  0  0
   61.7050   32.4370   48.1110 C   0  0  0  0  0  0  0  0  0  0  0  0
   61.0354   31.7585   48.6599 H   0  0  0  0  0  0  0  0  0  0  0  0
   57.8820   32.8980   45.5500 C   0  0  0  0  0  0  0  0  0  0  0  0
   57.6420   33.9700   45.4936 H   0  0  0  0  0  0  0  0  0  0  0  0
   57.0720   31.9690   44.8720 C   0  0  0  0  0  0  0  0  0  0  0  0
   56.2113   32.2998   44.2721 H   0  0  0  0  0  0  0  0  0  0  0  0
   57.3930   30.6130   44.9830 C   0  0  0  0  0  0  0  0  0  0  0  0
  1  2  1  0
  2  3  1  0
  2  4  2  0
  4  5  1  0
  5  6  2  0
  6  7  1  0
  6  8  1  0
  8  9  1  0
  9 10  1  0
 10 11  2  0
 10 12  1  0
 12 13  1  0
 13 14  1  0
  5 15  1  0
 15 16  1  0
 15 17  1  0
 17 18  2  0
 18 19  1  0
 18 20  1  0
 20 21  1  0
 21 22  1  0
 22 23  2  0
 23 24  1  0
 23 25  1  0
 25 26  1  0
 25 27  2  0
 27 28  1  0
 27 29  1  0
 29 30  1  0
 30 31  1  0
 30 32  1  0
 32 33  2  0
 32 34  1  0
 34 35  2  0
 34 36  1  0
 36 37  1  0
 36 38  1  0
 36 39  1  0
 39 40  2  0
 40 41  1  0
 40 42  1  0
 42 43  1  0
 42 44  2  0
 44 45  1  0
 44 46  1  0
 46 47  1  0
 46 48  2  0
 48 49  1  0
 29 50  2  0
 50 51  1  0
 20 52  2  0
 52 53  1  0
 52 54  1  0
 54 55  1  0
 54 56  2  0
 56  4  1  0
 13  8  2  0
 56 17  1  0
 50 22  1  0
 48 39  1  0
M  CHG  3   9  -1  12  -1  14  -1
M  END
>  <UniqueID>  (88) 
84

>  <SMILES>  (88) 
C=c1/c(=C\c2[n-]c(=O)[n-]c2[O-])[nH]c2cc(Oc3cccc(NC(=O)C(=O)Cc4cccc(Cl)c4)c3)ccc12

>  <Energy>  (88) 
148.67384397216856

>  <Genealogy>  (88) 
C=c1c(=Cc2[n-]c(=O)[n-]c2[O-])[nH]c2cc(Oc3cccc(NC(=O)C(=O)Cc4cccc(Cl)c4)c3)ccc12 (protonated)
C=c1/c(=C\c2[n-]c(=O)[n-]c2[O-])[nH]c2cc(Oc3cccc(NC(=O)C(=O)Cc4cccc(Cl)c4)c3)ccc12 (cis-trans isomerization)
C=c1/c(=C\c2[n-]c(=O)[n-]c2[O-])[nH]c2cc(Oc3cccc(NC(=O)C(=O)Cc4cccc(Cl)c4)c3)ccc12 (3D coordinates assigned)
C=c1/c(=C\c2[n-]c(=O)[n-]c2[O-])[nH]c2cc(Oc3cccc(NC(=O)C(=O)Cc4cccc(Cl)c4)c3)ccc12 (optimized conformer: 148.67384397216856 kcal/mol)

>  <smiles>  (88) 
C=c1c(=Cc2[nH]c(=O)[nH]c2O)[nH]c2cc(Oc3cccc(NC(=O)C(=O)Cc4cccc(Cl)c4)c3)ccc12

>  <score_type>  (88) 
oracle

>  <origin>  (88) 
adg

>  <m_score__min__energy>  (88) 
-20.93

>  <m_primary>  (88) 
energy

$$$$
88:0
     RDKit          3D

 22 23  0  0  0  0  0  0  0  0999 V2000
   61.0160   33.4920   46.7710 C   0  0  0  0  0  0  0  0  0  0  0  0
   60.7660   32.1880   46.7400 C   0  0  0  0  0  0  0  0  0  0  0  0
   59.5280   31.6210   46.4890 O   0  0  0  0  0  0  0  0  0  0  0  0
   59.6710   30.2290   46.5430 C   0  0  0  0  0  0  0  0  0  0  0  0
   58.5330   29.3020   46.3190 C   0  0  0  0  0  0  0  0  0  0  0  0
   58.5110   28.0010   46.8580 C   0  0  0  0  0  0  0  0  0  0  0  0
   57.4220   27.1570   46.6260 C   0  0  0  0  0  0  0  0  0  0  0  0
   56.3430   27.5940   45.8550 C   0  0  0  0  0  0  0  0  0  0  0  0
   55.2690   26.7390   45.6340 O   0  0  0  0  0  0  0  0  0  0  0  0
   56.3500   28.8870   45.3110 C   0  0  0  0  0  0  0  0  0  0  0  0
   55.2850   29.3500   44.5380 O   0  0  0  0  0  0  0  0  0  0  0  0
   57.4410   29.7330   45.5440 C   0  0  0  0  0  0  0  0  0  0  0  0
   60.9360   29.8780   46.8150 C   0  0  0  0  0  0  0  0  0  0  0  0
   61.7010   31.1060   46.9560 C   0  0  0  0  0  0  0  0  0  0  0  0
   62.9300   31.2000   47.2130 O   0  0  0  0  0  0  0  0  0  0  0  0
   62.0344   33.8520   46.9792 H   0  0  0  0  0  0  0  0  0  0  0  0
   60.2047   34.2120   46.5884 H   0  0  0  0  0  0  0  0  0  0  0  0
   59.3568   27.6470   47.4657 H   0  0  0  0  0  0  0  0  0  0  0  0
   57.4146   26.1432   47.0528 H   0  0  0  0  0  0  0  0  0  0  0  0
   54.3950   28.8680   44.5070 H   0  0  0  0  0  0  0  0  0  0  0  0
   57.4443   30.7464   45.1161 H   0  0  0  0  0  0  0  0  0  0  0  0
   61.3226   28.8529   46.9131 H   0  0  0  0  0  0  0  0  0  0  0  0
  1  2  2  0
  2  3  1  0
  3  4  1  0
  4  5  1  0
  5  6  2  0
  6  7  1  0
  7  8  2  0
  8  9  1  0
  8 10  1  0
 10 11  1  0
 10 12  2  0
  4 13  2  0
 13 14  1  0
 14 15  2  0
 14  2  1  0
 12  5  1  0
  1 16  1  0
  1 17  1  0
  6 18  1  0
  7 19  1  0
 11 20  1  0
 12 21  1  0
 13 22  1  0
M  CHG  1   9  -1
M  END
>  <UniqueID>  (89) 
85

>  <SMILES>  (89) 
C=C1OC(c2ccc([O-])c(O)c2)=CC1=O

>  <Energy>  (89) 
49.7957314242047

>  <Genealogy>  (89) 
C=C1OC(c2ccc([O-])c(O)c2)=CC1=O (protonated)
C=C1OC(c2ccc([O-])c(O)c2)=CC1=O (3D coordinates assigned)
C=C1OC(c2ccc([O-])c(O)c2)=CC1=O (nonaromatic ring conformer: 49.7957314242047 kcal/mol)

>  <smiles>  (89) 
C=C1OC(c2ccc(O)c(O)c2)=CC1=O

>  <score_type>  (89) 
oracle

>  <origin>  (89) 
adg

>  <m_score__min__energy>  (89) 
-9.8100000000000005

>  <m_primary>  (89) 
energy

$$$$
89:0
     RDKit          3D

 49 52  0  0  0  0  0  0  0  0999 V2000
   56.1357   30.8619   43.0278 H   0  0  0  0  0  0  0  0  0  0  0  0
   56.1210   29.8150   43.3650 C   0  0  0  0  0  0  0  0  0  0  0  0
   55.5235   29.0698   42.8194 H   0  0  0  0  0  0  0  0  0  0  0  0
   56.8280   29.4490   44.4360 C   0  0  0  0  0  0  0  0  0  0  0  0
   57.6410   30.2640   45.2170 C   0  0  0  0  0  0  0  0  0  0  0  0
   57.8500   31.7230   45.1070 C   0  0  0  0  0  0  0  0  0  0  0  0
   57.2200   32.3720   44.2290 O   0  0  0  0  0  0  0  0  0  0  0  0
   58.7400   32.4180   46.0030 N   0  0  0  0  0  0  0  0  0  0  0  0
   60.0130   31.7860   46.3900 C   0  0  0  0  0  0  0  0  0  0  0  0
   59.8093   30.9890   47.1202 H   0  0  0  0  0  0  0  0  0  0  0  0
   60.4846   31.3754   45.4850 H   0  0  0  0  0  0  0  0  0  0  0  0
   60.9730   32.8000   47.0150 C   0  0  0  0  0  0  0  0  0  0  0  0
   61.8156   32.2685   47.4814 H   0  0  0  0  0  0  0  0  0  0  0  0
   61.3535   33.4753   46.2345 H   0  0  0  0  0  0  0  0  0  0  0  0
   60.2620   33.5800   48.0340 N   0  0  0  0  0  0  0  0  0  0  0  0
   60.7760   33.6730   49.3770 C   0  0  0  0  0  0  0  0  0  0  0  0
   62.1570   33.7740   49.6030 C   0  0  0  0  0  0  0  0  0  0  0  0
   62.8518   33.7799   48.7503 H   0  0  0  0  0  0  0  0  0  0  0  0
   62.6540   33.8670   50.9040 C   0  0  0  0  0  0  0  0  0  0  0  0
   63.7374   33.9571   51.0720 H   0  0  0  0  0  0  0  0  0  0  0  0
   61.7800   33.8460   51.9930 C   0  0  0  0  0  0  0  0  0  0  0  0
   62.1772   33.9333   53.0151 H   0  0  0  0  0  0  0  0  0  0  0  0
   60.3960   33.7140   51.7900 C   0  0  0  0  0  0  0  0  0  0  0  0
   59.4460   33.7410   52.9610 C   0  0  0  0  0  0  0  0  0  0  0  0
   59.9480   34.5850   53.9350 F   0  0  0  0  0  0  0  0  0  0  0  0
   59.2920   32.4750   53.4980 F   0  0  0  0  0  0  0  0  0  0  0  0
   58.2000   34.1980   52.5680 F   0  0  0  0  0  0  0  0  0  0  0  0
   59.9000   33.6490   50.4750 C   0  0  0  0  0  0  0  0  0  0  0  0
   58.8155   33.5787   50.3049 H   0  0  0  0  0  0  0  0  0  0  0  0
   58.9640   34.1910   47.7120 C   0  0  0  0  0  0  0  0  0  0  0  0
   58.2117   33.8263   48.4268 H   0  0  0  0  0  0  0  0  0  0  0  0
   59.0747   35.2835   47.7775 H   0  0  0  0  0  0  0  0  0  0  0  0
   58.5070   33.8420   46.2880 C   0  0  0  0  0  0  0  0  0  0  0  0
   57.4331   34.0592   46.1897 H   0  0  0  0  0  0  0  0  0  0  0  0
   59.0848   34.4456   45.5726 H   0  0  0  0  0  0  0  0  0  0  0  0
   58.1700   29.4540   46.2040 C   0  0  0  0  0  0  0  0  0  0  0  0
   58.8493   29.7604   47.0131 H   0  0  0  0  0  0  0  0  0  0  0  0
   57.6770   28.1820   45.9740 C   0  0  0  0  0  0  0  0  0  0  0  0
   57.9410   27.1170   46.7480 C   0  0  0  0  0  0  0  0  0  0  0  0
   58.7879   27.1852   47.4466 H   0  0  0  0  0  0  0  0  0  0  0  0
   57.1690   25.8640   46.7210 C   0  0  0  0  0  0  0  0  0  0  0  0
   57.7160   24.6560   46.9370 N   0  0  0  0  0  0  0  0  0  0  0  0
   56.6880   23.8030   46.7310 C   0  0  0  0  0  0  0  0  0  0  0  0
   56.8060   22.5570   46.8540 O   0  0  0  0  0  0  0  0  0  0  0  0
   55.5280   24.3920   46.3720 N   0  0  0  0  0  0  0  0  0  0  0  0
   55.8510   25.6960   46.3580 C   0  0  0  0  0  0  0  0  0  0  0  0
   54.9700   26.7000   45.9730 O   0  0  0  0  0  0  0  0  0  0  0  0
   56.8540   28.1840   44.9020 N   0  0  0  0  0  0  0  0  0  0  0  0
   56.2990   27.3830   44.5250 H   0  0  0  0  0  0  0  0  0  0  0  0
  1  2  1  0
  2  3  1  0
  2  4  2  0
  4  5  1  0
  5  6  1  0
  6  7  2  0
  6  8  1  0
  8  9  1  0
  9 10  1  0
  9 11  1  0
  9 12  1  0
 12 13  1  0
 12 14  1  0
 12 15  1  0
 15 16  1  0
 16 17  2  0
 17 18  1  0
 17 19  1  0
 19 20  1  0
 19 21  2  0
 21 22  1  0
 21 23  1  0
 23 24  1  0
 24 25  1  0
 24 26  1  0
 24 27  1  0
 23 28  2  0
 28 29  1  0
 15 30  1  0
 30 31  1  0
 30 32  1  0
 30 33  1  0
 33 34  1  0
 33 35  1  0
  5 36  2  0
 36 37  1  0
 36 38  1  0
 38 39  2  0
 39 40  1  0
 39 41  1  0
 41 42  1  0
 42 43  1  0
 43 44  2  0
 43 45  1  0
 45 46  1  0
 46 47  1  0
 38 48  1  0
 48 49  1  0
 48  4  1  0
 33  8  1  0
 46 41  2  0
 28 16  1  0
M  CHG  3  42  -1  45  -1  47  -1
M  END
>  <UniqueID>  (90) 
86

>  <SMILES>  (90) 
C=c1[nH]/c(=C\c2[n-]c(=O)[n-]c2[O-])cc1C(=O)N1CCN(c2cccc(C(F)(F)F)c2)CC1

>  <Energy>  (90) 
123.61293914338918

>  <Genealogy>  (90) 
C=c1[nH]c(=Cc2[n-]c(=O)[n-]c2[O-])cc1C(=O)N1CCN(c2cccc(C(F)(F)F)c2)CC1 (protonated)
C=c1[nH]/c(=C\c2[n-]c(=O)[n-]c2[O-])cc1C(=O)N1CCN(c2cccc(C(F)(F)F)c2)CC1 (cis-trans isomerization)
C=c1[nH]/c(=C\c2[n-]c(=O)[n-]c2[O-])cc1C(=O)N1CCN(c2cccc(C(F)(F)F)c2)CC1 (3D coordinates assigned)
C=c1[nH]/c(=C\c2[n-]c(=O)[n-]c2[O-])cc1C(=O)N1CCN(c2cccc(C(F)(F)F)c2)CC1 (nonaromatic ring conformer: 123.61293914338918 kcal/mol)

>  <smiles>  (90) 
C=c1[nH]c(=Cc2[nH]c(=O)[nH]c2O)cc1C(=O)N1CCN(c2cccc(C(F)(F)F)c2)CC1

>  <score_type>  (90) 
oracle

>  <origin>  (90) 
adg

>  <m_score__min__energy>  (90) 
-18.219999999999999

>  <m_primary>  (90) 
energy

$$$$
90:0
     RDKit          3D

 39 40  0  0  0  0  0  0  0  0999 V2000
   54.6366   30.3521   43.6583 H   0  0  0  0  0  0  0  0  0  0  0  0
   55.5270   30.1000   44.2530 C   0  0  0  0  0  0  0  0  0  0  0  0
   55.6100   28.8940   44.8710 N   0  0  0  0  0  0  0  0  0  0  0  0
   56.6920   28.5410   45.6180 C   0  0  0  0  0  0  0  0  0  0  0  0
   56.7550   27.2460   46.2340 N   0  0  0  0  0  0  0  0  0  0  0  0
   57.0990   27.1740   47.2190 H   0  0  0  0  0  0  0  0  0  0  0  0
   56.5940   26.0310   45.4890 C   0  0  0  0  0  0  0  0  0  0  0  0
   55.6050   25.1230   45.8870 C   0  0  0  0  0  0  0  0  0  0  0  0
   54.9646   25.3617   46.7489 H   0  0  0  0  0  0  0  0  0  0  0  0
   55.4200   23.9140   45.2020 C   0  0  0  0  0  0  0  0  0  0  0  0
   54.3730   22.9410   45.6640 C   0  0  0  0  0  0  0  0  0  0  0  0
   54.3511   22.9206   46.7636 H   0  0  0  0  0  0  0  0  0  0  0  0
   53.3892   23.2528   45.2834 H   0  0  0  0  0  0  0  0  0  0  0  0
   54.6120   21.9370   45.2834 H   0  0  0  0  0  0  0  0  0  0  0  0
   56.2380   23.6020   44.1010 C   0  0  0  0  0  0  0  0  0  0  0  0
   56.0530   22.3730   43.4460 O   0  0  0  0  0  0  0  0  0  0  0  0
   57.0840   21.4210   43.2030 C   0  0  0  0  0  0  0  0  0  0  0  0
   57.4794   21.0559   44.1623 H   0  0  0  0  0  0  0  0  0  0  0  0
   56.6751   20.5761   42.6295 H   0  0  0  0  0  0  0  0  0  0  0  0
   57.8937   21.8958   42.6295 H   0  0  0  0  0  0  0  0  0  0  0  0
   57.2140   24.5280   43.6830 C   0  0  0  0  0  0  0  0  0  0  0  0
   57.8542   24.2889   42.8210 H   0  0  0  0  0  0  0  0  0  0  0  0
   57.3810   25.7500   44.3500 C   0  0  0  0  0  0  0  0  0  0  0  0
   58.4100   26.7240   43.8400 C   0  0  0  0  0  0  0  0  0  0  0  0
   58.9156   27.2026   44.6916 H   0  0  0  0  0  0  0  0  0  0  0  0
   59.1504   26.1882   43.2279 H   0  0  0  0  0  0  0  0  0  0  0  0
   57.9156   27.4927   43.2279 H   0  0  0  0  0  0  0  0  0  0  0  0
   57.7630   29.4350   45.7540 C   0  0  0  0  0  0  0  0  0  0  0  0
   58.6501   29.1497   46.3386 H   0  0  0  0  0  0  0  0  0  0  0  0
   57.6980   30.7040   45.1370 C   0  0  0  0  0  0  0  0  0  0  0  0
   58.6530   31.5910   45.2180 N   0  0  0  0  0  0  0  0  0  0  0  0
   58.6190   32.9110   45.7840 C   0  0  0  0  0  0  0  0  0  0  0  0
   58.8130   33.1010   47.0140 O   0  0  0  0  0  0  0  0  0  0  0  0
   58.1950   34.0570   44.9280 C   0  0  0  0  0  0  0  0  0  0  0  0
   57.8843   34.8967   45.5670 H   0  0  0  0  0  0  0  0  0  0  0  0
   59.0364   34.3713   44.2929 H   0  0  0  0  0  0  0  0  0  0  0  0
   57.3517   33.7480   44.2929 H   0  0  0  0  0  0  0  0  0  0  0  0
   56.5690   31.0200   44.3710 C   0  0  0  0  0  0  0  0  0  0  0  0
   56.5039   31.9933   43.8626 H   0  0  0  0  0  0  0  0  0  0  0  0
  1  2  1  0
  2  3  1  0
  3  4  1  0
  4  5  1  0
  5  6  1  0
  5  7  1  0
  7  8  2  0
  8  9  1  0
  8 10  1  0
 10 11  1  0
 11 12  1  0
 11 13  1  0
 11 14  1  0
 10 15  2  0
 15 16  1  0
 16 17  1  0
 17 18  1  0
 17 19  1  0
 17 20  1  0
 15 21  1  0
 21 22  1  0
 21 23  2  0
 23 24  1  0
 24 25  1  0
 24 26  1  0
 24 27  1  0
  4 28  2  0
 28 29  1  0
 28 30  1  0
 30 31  2  0
 31 32  1  0
 32 33  2  0
 32 34  1  0
 34 35  1  0
 34 36  1  0
 34 37  1  0
 30 38  1  0
 38 39  1  0
 38  2  2  0
 23  7  1  0
M  CHG  1   3  -1
M  END
>  <UniqueID>  (91) 
87

>  <SMILES>  (91) 
COc1cc(C)c(Nc2c/c(=N\C(C)=O)cc[n-]2)cc1C

>  <Energy>  (91) 
50.4414074994762

>  <Genealogy>  (91) 
COc1cc(C)c(Nc2cc(=NC(C)=O)cc[n-]2)cc1C (protonated)
COc1cc(C)c(Nc2c/c(=N\C(C)=O)cc[n-]2)cc1C (cis-trans isomerization)
COc1cc(C)c(Nc2c/c(=N\C(C)=O)cc[n-]2)cc1C (3D coordinates assigned)
COc1cc(C)c(Nc2c/c(=N\C(C)=O)cc[n-]2)cc1C (optimized conformer: 50.4414074994762 kcal/mol)

>  <smiles>  (91) 
COc1cc(C)c(Nc2cc(=NC(C)=O)cc[nH]2)cc1C

>  <score_type>  (91) 
oracle

>  <origin>  (91) 
adg

>  <m_score__min__energy>  (91) 
-8.7400000000000002

>  <m_primary>  (91) 
energy

$$$$
