0:0
     RDKit          3D

 48 50  0  0  1  0  0  0  0  0999 V2000
   63.7060   33.1710   47.1180 C   0  0  0  0  0  0  0  0  0  0  0  0
   62.3010   33.5210   47.4260 C   0  0  0  0  0  0  0  0  0  0  0  0
   61.3770   33.8340   46.4510 C   0  0  0  0  0  0  0  0  0  0  0  0
   60.0820   34.1500   46.8310 C   0  0  0  0  0  0  0  0  0  0  0  0
   59.2540   34.4350   45.8880 N   0  0  0  0  0  0  0  0  0  0  0  0
   57.6590   33.8200   45.8360 S   0  0  0  0  0  0  0  0  0  0  0  0
   56.7590   34.6400   44.9350 O   0  0  0  0  0  0  0  0  0  0  0  0
   57.0370   33.8300   47.1980 O   0  0  0  0  0  0  0  0  0  0  0  0
   57.7440   32.1730   45.2210 C   0  0  0  0  0  0  0  0  0  0  0  0
   57.0020   31.7570   44.1310 C   0  0  0  0  0  0  0  0  0  0  0  0
   57.1380   30.4300   43.7180 C   0  0  0  0  0  0  0  0  0  0  0  0
   57.9710   29.5530   44.3520 C   0  0  0  0  0  0  0  0  0  0  0  0
   58.1060   28.1840   43.9200 N   0  0  0  0  0  0  0  0  0  0  0  0
   57.4700   27.1610   44.7250 C   0  0  0  0  0  0  0  0  0  0  0  0
   56.8610   27.5630   45.7220 O   0  0  0  0  0  0  0  0  0  0  0  0
   57.5620   25.8180   44.3650 N   0  0  0  0  0  0  0  0  0  0  0  0
   57.0330   24.6830   44.9890 C   0  0  0  0  0  0  0  0  0  0  0  0
   57.7610   23.4930   44.8620 C   0  0  0  0  0  0  0  0  0  0  0  0
   57.3350   22.3300   45.4320 C   0  0  0  0  0  0  0  0  0  0  0  0
   56.1730   22.2340   46.1640 C   0  0  0  0  0  0  0  0  0  0  0  0
   55.4410   23.3910   46.3020 C   0  0  0  0  0  0  0  0  0  0  0  0
   53.9640   23.3140   47.2210 Cl  0  0  0  0  0  0  0  0  0  0  0  0
   55.8780   24.5910   45.7160 C   0  0  0  0  0  0  0  0  0  0  0  0
   55.0490   25.6700   45.9340 O   0  0  0  0  0  0  0  0  0  0  0  0
   58.6970   30.0100   45.4400 C   0  0  0  0  0  0  0  0  0  0  0  0
   58.6000   31.3100   45.8900 C   0  0  0  0  0  0  0  0  0  0  0  0
   59.6770   34.1680   48.1120 N   0  0  0  0  0  0  0  0  0  0  0  0
   60.6080   33.8570   49.0460 C   0  0  0  0  0  0  0  0  0  0  0  0
   60.2870   33.8400   50.5010 C   0  0  0  0  0  0  0  0  0  0  0  0
   61.8830   33.5430   48.6970 N   0  0  0  0  0  0  0  0  0  0  0  0
   64.2634   33.0322   48.0561 H   0  0  0  0  0  0  0  0  0  0  0  0
   63.7322   32.2389   46.5345 H   0  0  0  0  0  0  0  0  0  0  0  0
   64.1664   33.9819   46.5345 H   0  0  0  0  0  0  0  0  0  0  0  0
   61.6632   33.8329   45.3889 H   0  0  0  0  0  0  0  0  0  0  0  0
   56.3266   32.4488   43.6063 H   0  0  0  0  0  0  0  0  0  0  0  0
   56.5550   30.0796   42.8535 H   0  0  0  0  0  0  0  0  0  0  0  0
   58.6440   27.9440   43.0580 H   0  0  0  0  0  0  0  0  0  0  0  0
   58.1300   25.6450   43.4680 H   0  0  0  0  0  0  0  0  0  0  0  0
   58.6995   23.4969   44.2883 H   0  0  0  0  0  0  0  0  0  0  0  0
   57.9483   21.4263   45.3009 H   0  0  0  0  0  0  0  0  0  0  0  0
   55.8475   21.2844   46.6139 H   0  0  0  0  0  0  0  0  0  0  0  0
   55.1460   26.2590   46.7530 H   0  0  0  0  0  0  0  0  0  0  0  0
   59.3715   29.3145   45.9609 H   0  0  0  0  0  0  0  0  0  0  0  0
   59.1853   31.6534   46.7557 H   0  0  0  0  0  0  0  0  0  0  0  0
   61.2193   33.8894   51.0828 H   0  0  0  0  0  0  0  0  0  0  0  0
   59.6549   34.7059   50.7472 H   0  0  0  0  0  0  0  0  0  0  0  0
   59.7499   32.9122   50.7472 H   0  0  0  0  0  0  0  0  0  0  0  0
   62.5910   33.3050   49.4460 H   0  0  0  0  0  0  0  0  0  0  0  0
  1  2  1  0
  2  3  2  0
  3  4  1  0
  4  5  2  0
  5  6  1  0
  6  7  2  0
  6  8  2  0
  6  9  1  0
  9 10  2  0
 10 11  1  0
 11 12  2  0
 12 13  1  0
 13 14  1  0
 14 15  2  0
 14 16  1  0
 16 17  1  0
 17 18  2  0
 18 19  1  0
 19 20  2  0
 20 21  1  0
 21 22  1  0
 21 23  2  0
 23 24  1  0
 12 25  1  0
 25 26  2  0
  4 27  1  0
 27 28  2  0
 28 29  1  0
 28 30  1  0
 30  2  1  0
 26  9  1  0
 23 17  1  0
  1 31  1  0
  1 32  1  0
  1 33  1  0
  3 34  1  0
 10 35  1  0
 11 36  1  0
 13 37  1  0
 16 38  1  0
 18 39  1  0
 19 40  1  0
 20 41  1  0
 24 42  1  0
 25 43  1  0
 26 44  1  0
 29 45  1  0
 29 46  1  0
 29 47  1  0
 30 48  1  0
M  END
>  <smiles>  (1) 
Cc1cc(=NS(=O)(=O)c2ccc(NC(=O)Nc3cccc(Cl)c3O)cc2)nc(C)[nH]1

>  <score_type>  (1) 
oracle

>  <origin>  (1) 
adg

>  <m_score__min__energy>  (1) 
-10.06

>  <m_primary>  (1) 
energy

$$$$
1:0
     RDKit          3D

 48 50  0  0  0  0  0  0  0  0999 V2000
   54.7530   28.5890   44.5410 H   0  0  0  0  0  0  0  0  0  0  0  0
   55.6440   28.7050   45.0090 O   0  0  0  0  0  0  0  0  0  0  0  0
   56.2700   27.6280   45.6310 C   0  0  0  0  0  0  0  0  0  0  0  0
   55.5430   26.5300   45.9650 N   0  0  0  0  0  0  0  0  0  0  0  0
   56.1200   25.4620   46.5720 C   0  0  0  0  0  0  0  0  0  0  0  0
   55.4280   24.4550   46.8660 O   0  0  0  0  0  0  0  0  0  0  0  0
   57.4440   25.4840   46.8690 N   0  0  0  0  0  0  0  0  0  0  0  0
   58.2170   26.5570   46.5590 C   0  0  0  0  0  0  0  0  0  0  0  0
   59.4330   26.5550   46.8880 O   0  0  0  0  0  0  0  0  0  0  0  0
   57.6470   27.6650   45.9020 C   0  0  0  0  0  0  0  0  0  0  0  0
   58.4360   28.8690   45.5450 C   0  0  0  0  0  0  0  0  0  0  0  0
   58.8317   28.9536   44.5221 H   0  0  0  0  0  0  0  0  0  0  0  0
   58.6890   29.8610   46.4150 C   0  0  0  0  0  0  0  0  0  0  0  0
   59.0470   29.6500   47.6990 N   0  0  0  0  0  0  0  0  0  0  0  0
   59.2480   30.8860   48.2000 C   0  0  0  0  0  0  0  0  0  0  0  0
   59.6590   31.1290   49.5150 O   0  0  0  0  0  0  0  0  0  0  0  0
   58.9370   30.6780   50.6600 C   0  0  0  0  0  0  0  0  0  0  0  0
   58.2282   29.8949   50.3529 H   0  0  0  0  0  0  0  0  0  0  0  0
   59.6548   30.2820   51.3934 H   0  0  0  0  0  0  0  0  0  0  0  0
   58.1610   31.8300   51.3090 C   0  0  0  0  0  0  0  0  0  0  0  0
   57.2318   31.9921   50.7431 H   0  0  0  0  0  0  0  0  0  0  0  0
   57.9559   31.5482   52.3523 H   0  0  0  0  0  0  0  0  0  0  0  0
   58.9600   33.1410   51.3290 C   0  0  0  0  0  0  0  0  0  0  0  0
   60.0256   32.9101   51.4748 H   0  0  0  0  0  0  0  0  0  0  0  0
   58.8044   33.6597   50.3715 H   0  0  0  0  0  0  0  0  0  0  0  0
   58.4890   34.0540   52.4570 C   0  0  0  0  0  0  0  0  0  0  0  0
   58.7273   33.5920   53.4264 H   0  0  0  0  0  0  0  0  0  0  0  0
   58.9982   35.0259   52.3789 H   0  0  0  0  0  0  0  0  0  0  0  0
   57.4018   34.2024   52.3789 H   0  0  0  0  0  0  0  0  0  0  0  0
   59.0320   31.8700   47.3020 N   0  0  0  0  0  0  0  0  0  0  0  0
   59.2880   33.2990   47.5170 C   0  0  0  0  0  0  0  0  0  0  0  0
   58.9835   33.8615   46.6221 H   0  0  0  0  0  0  0  0  0  0  0  0
   58.7107   33.6402   48.3890 H   0  0  0  0  0  0  0  0  0  0  0  0
   60.7540   33.5310   47.7760 C   0  0  0  0  0  0  0  0  0  0  0  0
   61.7060   33.2920   46.7710 C   0  0  0  0  0  0  0  0  0  0  0  0
   61.3791   32.9612   45.7742 H   0  0  0  0  0  0  0  0  0  0  0  0
   63.0680   33.4730   47.0330 C   0  0  0  0  0  0  0  0  0  0  0  0
   63.8092   33.2860   46.2420 H   0  0  0  0  0  0  0  0  0  0  0  0
   63.4880   33.8910   48.2980 C   0  0  0  0  0  0  0  0  0  0  0  0
   64.5597   34.0314   48.5023 H   0  0  0  0  0  0  0  0  0  0  0  0
   62.5490   34.1310   49.3040 C   0  0  0  0  0  0  0  0  0  0  0  0
   62.8817   34.4585   50.3000 H   0  0  0  0  0  0  0  0  0  0  0  0
   61.1860   33.9550   49.0450 C   0  0  0  0  0  0  0  0  0  0  0  0
   60.4485   34.1492   49.8377 H   0  0  0  0  0  0  0  0  0  0  0  0
   58.6860   31.2320   46.1590 C   0  0  0  0  0  0  0  0  0  0  0  0
   58.4030   31.8380   44.9990 C   0  0  0  0  0  0  0  0  0  0  0  0
   58.4369   32.9353   44.9291 H   0  0  0  0  0  0  0  0  0  0  0  0
   58.1366   31.2386   44.1160 H   0  0  0  0  0  0  0  0  0  0  0  0
  1  2  1  0
  2  3  1  0
  3  4  1  0
  4  5  1  0
  5  6  2  0
  5  7  1  0
  7  8  1  0
  8  9  2  0
  8 10  1  0
 10 11  1  0
 11 12  1  0
 11 13  2  0
 13 14  1  0
 14 15  2  0
 15 16  1  0
 16 17  1  0
 17 18  1  0
 17 19  1  0
 17 20  1  0
 20 21  1  0
 20 22  1  0
 20 23  1  0
 23 24  1  0
 23 25  1  0
 23 26  1  0
 26 27  1  0
 26 28  1  0
 26 29  1  0
 15 30  1  0
 30 31  1  0
 31 32  1  0
 31 33  1  0
 31 34  1  0
 34 35  2  0
 35 36  1  0
 35 37  1  0
 37 38  1  0
 37 39  2  0
 39 40  1  0
 39 41  1  0
 41 42  1  0
 41 43  2  0
 43 44  1  0
 30 45  1  0
 45 46  2  0
 46 47  1  0
 46 48  1  0
 10  3  2  0
 45 13  1  0
 43 34  1  0
M  CHG  2   4  -1   7  -1
M  END
>  <UniqueID>  (2) 
1

>  <SMILES>  (2) 
C=c1/c(=C/c2c(O)[n-]c(=O)[n-]c2=O)nc(OCCCC)n1Cc1ccccc1

>  <Energy>  (2) 
80.60915385767616

>  <Genealogy>  (2) 
C=c1c(=Cc2c(O)[n-]c(=O)[n-]c2=O)nc(OCCCC)n1Cc1ccccc1 (protonated)
C=c1/c(=C/c2c(O)[n-]c(=O)[n-]c2=O)nc(OCCCC)n1Cc1ccccc1 (cis-trans isomerization)
C=c1/c(=C/c2c(O)[n-]c(=O)[n-]c2=O)nc(OCCCC)n1Cc1ccccc1 (3D coordinates assigned)
C=c1/c(=C/c2c(O)[n-]c(=O)[n-]c2=O)nc(OCCCC)n1Cc1ccccc1 (optimized conformer: 80.60915385767616 kcal/mol)

>  <smiles>  (2) 
C=c1c(=Cc2c(O)[nH]c(=O)[nH]c2=O)nc(OCCCC)n1Cc1ccccc1

>  <score_type>  (2) 
oracle

>  <origin>  (2) 
adg

>  <m_score__min__energy>  (2) 
-13.039999999999999

>  <m_primary>  (2) 
energy

$$$$
2:0
     RDKit          3D

 42 45  0  0  0  0  0  0  0  0999 V2000
   58.5870   32.9580   44.0380 O   0  0  0  0  0  0  0  0  0  0  0  0
   57.8580   32.4670   45.2570 S   0  0  0  0  0  0  0  0  0  0  0  0
   56.4560   32.0980   44.8540 O   0  0  0  0  0  0  0  0  0  0  0  0
   57.8840   33.7200   46.4670 N   0  0  0  0  0  0  0  0  0  0  0  0
   58.9450   34.6990   46.2270 C   0  0  0  0  0  0  0  0  0  0  0  0
   60.2190   34.2890   46.9230 C   0  0  0  0  0  0  0  0  0  0  0  0
   61.3140   33.8500   46.1610 C   0  0  0  0  0  0  0  0  0  0  0  0
   62.5050   33.4710   46.7870 C   0  0  0  0  0  0  0  0  0  0  0  0
   62.6100   33.5130   48.1780 C   0  0  0  0  0  0  0  0  0  0  0  0
   61.5300   33.9550   48.9460 C   0  0  0  0  0  0  0  0  0  0  0  0
   60.3390   34.3510   48.3260 C   0  0  0  0  0  0  0  0  0  0  0  0
   59.3130   34.7950   49.0950 F   0  0  0  0  0  0  0  0  0  0  0  0
   58.6600   31.0340   45.8930 C   0  0  0  0  0  0  0  0  0  0  0  0
   59.7130   31.1540   46.8320 C   0  0  0  0  0  0  0  0  0  0  0  0
   60.3670   30.0100   47.3230 C   0  0  0  0  0  0  0  0  0  0  0  0
   59.9470   28.7650   46.8610 C   0  0  0  0  0  0  0  0  0  0  0  0
   60.4430   27.5660   47.2230 N   0  0  0  0  0  0  0  0  0  0  0  0
   59.7010   26.6750   46.5260 C   0  0  0  0  0  0  0  0  0  0  0  0
   59.8880   25.2990   46.6310 O   0  0  0  0  0  0  0  0  0  0  0  0
   58.7460   27.2980   45.7260 C   0  0  0  0  0  0  0  0  0  0  0  0
   57.6960   26.6400   44.8760 C   0  0  0  0  0  0  0  0  0  0  0  0
   56.9570   25.5800   45.6400 C   0  0  0  0  0  0  0  0  0  0  0  0
   57.4650   24.3650   45.9090 N   0  0  0  0  0  0  0  0  0  0  0  0
   56.4530   23.7280   46.5380 C   0  0  0  0  0  0  0  0  0  0  0  0
   56.5780   22.1910   47.0760 S   0  0  0  0  0  0  0  0  0  0  0  0
   55.3270   24.4600   46.6720 N   0  0  0  0  0  0  0  0  0  0  0  0
   55.6580   25.6260   46.0950 C   0  0  0  0  0  0  0  0  0  0  0  0
   54.7890   26.7030   45.9840 O   0  0  0  0  0  0  0  0  0  0  0  0
   58.9200   28.6450   45.9580 C   0  0  0  0  0  0  0  0  0  0  0  0
   58.2500   29.7600   45.4540 C   0  0  0  0  0  0  0  0  0  0  0  0
   59.1318   34.7706   45.1454 H   0  0  0  0  0  0  0  0  0  0  0  0
   58.6232   35.6727   46.6250 H   0  0  0  0  0  0  0  0  0  0  0  0
   61.2339   33.8041   45.0649 H   0  0  0  0  0  0  0  0  0  0  0  0
   63.3614   33.1389   46.1818 H   0  0  0  0  0  0  0  0  0  0  0  0
   63.5425   33.1983   48.6693 H   0  0  0  0  0  0  0  0  0  0  0  0
   61.6158   33.9920   50.0420 H   0  0  0  0  0  0  0  0  0  0  0  0
   60.0221   32.1505   47.1804 H   0  0  0  0  0  0  0  0  0  0  0  0
   61.1869   30.0960   48.0512 H   0  0  0  0  0  0  0  0  0  0  0  0
   59.1480   24.6460   46.4040 H   0  0  0  0  0  0  0  0  0  0  0  0
   56.9792   27.4030   44.5383 H   0  0  0  0  0  0  0  0  0  0  0  0
   58.1936   26.1645   44.0179 H   0  0  0  0  0  0  0  0  0  0  0  0
   57.4255   29.6475   44.7346 H   0  0  0  0  0  0  0  0  0  0  0  0
  1  2  2  0
  2  3  2  0
  2  4  1  0
  4  5  1  0
  5  6  1  0
  6  7  2  0
  7  8  1  0
  8  9  2  0
  9 10  1  0
 10 11  2  0
 11 12  1  0
  2 13  1  0
 13 14  2  0
 14 15  1  0
 15 16  2  0
 16 17  1  0
 17 18  1  0
 18 19  1  0
 18 20  2  0
 20 21  1  0
 21 22  1  0
 22 23  1  0
 23 24  1  0
 24 25  2  0
 24 26  1  0
 26 27  1  0
 27 28  1  0
 20 29  1  0
 29 30  2  0
 11  6  1  0
 30 13  1  0
 29 16  1  0
 27 22  2  0
  5 31  1  0
  5 32  1  0
  7 33  1  0
  8 34  1  0
  9 35  1  0
 10 36  1  0
 14 37  1  0
 15 38  1  0
 19 39  1  0
 21 40  1  0
 21 41  1  0
 30 42  1  0
M  CHG  5   4  -1  17  -1  23  -1  26  -1  28  -1
M  END
>  <UniqueID>  (3) 
2

>  <SMILES>  (3) 
O=S(=O)([N-]Cc1ccccc1F)c1ccc2[n-]c(O)c(Cc3[n-]c(=S)[n-]c3[O-])c2c1

>  <Energy>  (3) 
103.62290000136713

>  <Genealogy>  (3) 
O=S(=O)([N-]Cc1ccccc1F)c1ccc2[n-]c(O)c(Cc3[n-]c(=S)[n-]c3[O-])c2c1 (protonated)
O=S(=O)([N-]Cc1ccccc1F)c1ccc2[n-]c(O)c(Cc3[n-]c(=S)[n-]c3[O-])c2c1 (3D coordinates assigned)
O=S(=O)([N-]Cc1ccccc1F)c1ccc2[n-]c(O)c(Cc3[n-]c(=S)[n-]c3[O-])c2c1 (optimized conformer: 103.62290000136713 kcal/mol)

>  <smiles>  (3) 
O=S(=O)(NCc1ccccc1F)c1ccc2[nH]c(O)c(Cc3[nH]c(=S)[nH]c3O)c2c1

>  <score_type>  (3) 
oracle

>  <origin>  (3) 
adg

>  <m_score__min__energy>  (3) 
-19.699999999999999

>  <m_primary>  (3) 
energy

$$$$
3:0
     RDKit          3D

 66 69  0  0  0  0  0  0  0  0999 V2000
   56.5030   30.2780   43.4980 C   0  0  0  0  0  0  0  0  0  0  0  0
   56.4530   31.2090   44.5750 O   0  0  0  0  0  0  0  0  0  0  0  0
   57.5780   31.8340   45.1330 C   0  0  0  0  0  0  0  0  0  0  0  0
   57.7270   33.2140   44.9590 C   0  0  0  0  0  0  0  0  0  0  0  0
   58.8320   33.8830   45.4940 C   0  0  0  0  0  0  0  0  0  0  0  0
   59.8170   33.1770   46.2050 C   0  0  0  0  0  0  0  0  0  0  0  0
   60.9950   33.9160   46.7960 C   0  0  0  0  0  0  0  0  0  0  0  0
   61.2390   33.5230   48.2050 N   0  0  0  0  0  0  0  0  0  0  0  0
   62.3600   32.7850   48.5500 C   0  0  0  0  0  0  0  0  0  0  0  0
   63.3610   32.3590   47.4900 C   0  0  0  0  0  0  0  0  0  0  0  0
   62.5720   32.4270   49.9040 C   0  0  0  0  0  0  0  0  0  0  0  0
   63.7660   31.6820   50.3580 C   0  0  0  0  0  0  0  0  0  0  0  0
   63.6740   30.4340   50.5140 O   0  0  0  0  0  0  0  0  0  0  0  0
   65.0240   32.3510   50.5950 N   0  0  0  0  0  0  0  0  0  0  0  0
   66.2810   31.5980   50.5030 C   0  0  0  0  0  0  0  0  0  0  0  0
   67.3310   32.2160   51.4330 C   0  0  0  0  0  0  0  0  0  0  0  0
   67.4560   33.6040   51.1970 O   0  0  0  0  0  0  0  0  0  0  0  0
   66.2510   34.2560   51.5500 C   0  0  0  0  0  0  0  0  0  0  0  0
   65.1040   33.8160   50.6370 C   0  0  0  0  0  0  0  0  0  0  0  0
   61.6300   32.7900   50.8640 C   0  0  0  0  0  0  0  0  0  0  0  0
   60.5020   33.5220   50.5100 C   0  0  0  0  0  0  0  0  0  0  0  0
   59.4740   33.8520   51.5700 C   0  0  0  0  0  0  0  0  0  0  0  0
   58.5150   32.7080   51.7860 C   0  0  0  0  0  0  0  0  0  0  0  0
   58.3080   32.2790   52.9530 O   0  0  0  0  0  0  0  0  0  0  0  0
   57.8780   32.0370   50.6910 N   0  0  0  0  0  0  0  0  0  0  0  0
   58.5070   31.0650   49.8000 C   0  0  0  0  0  0  0  0  0  0  0  0
   59.3640   30.1050   50.5790 C   0  0  0  0  0  0  0  0  0  0  0  0
   58.8960   29.5150   51.7620 C   0  0  0  0  0  0  0  0  0  0  0  0
   59.7070   28.6250   52.4670 C   0  0  0  0  0  0  0  0  0  0  0  0
   60.9860   28.3370   51.9870 C   0  0  0  0  0  0  0  0  0  0  0  0
   61.4340   28.9210   50.8440 N   0  0  0  0  0  0  0  0  0  0  0  0
   60.6600   29.7910   50.1380 C   0  0  0  0  0  0  0  0  0  0  0  0
   60.3170   33.8820   49.1660 C   0  0  0  0  0  0  0  0  0  0  0  0
   59.2830   34.5340   48.8460 O   0  0  0  0  0  0  0  0  0  0  0  0
   59.6570   31.7940   46.3970 C   0  0  0  0  0  0  0  0  0  0  0  0
   58.5520   31.1260   45.8600 C   0  0  0  0  0  0  0  0  0  0  0  0
   56.5579   29.2554   43.8996 H   0  0  0  0  0  0  0  0  0  0  0  0
   55.5980   30.3817   42.8814 H   0  0  0  0  0  0  0  0  0  0  0  0
   57.3917   30.4780   42.8814 H   0  0  0  0  0  0  0  0  0  0  0  0
   56.9682   33.7777   44.3964 H   0  0  0  0  0  0  0  0  0  0  0  0
   58.9309   34.9700   45.3573 H   0  0  0  0  0  0  0  0  0  0  0  0
   61.8926   33.6888   46.2021 H   0  0  0  0  0  0  0  0  0  0  0  0
   60.7699   34.9925   46.7746 H   0  0  0  0  0  0  0  0  0  0  0  0
   64.2686   31.9728   47.9769 H   0  0  0  0  0  0  0  0  0  0  0  0
   62.9180   31.5715   46.8627 H   0  0  0  0  0  0  0  0  0  0  0  0
   63.6214   33.2243   46.8627 H   0  0  0  0  0  0  0  0  0  0  0  0
   66.1025   30.5535   50.7982 H   0  0  0  0  0  0  0  0  0  0  0  0
   66.6493   31.6350   49.4672 H   0  0  0  0  0  0  0  0  0  0  0  0
   67.0275   32.0538   52.4778 H   0  0  0  0  0  0  0  0  0  0  0  0
   68.3013   31.7363   51.2372 H   0  0  0  0  0  0  0  0  0  0  0  0
   65.9984   34.0068   52.5912 H   0  0  0  0  0  0  0  0  0  0  0  0
   66.3927   35.3411   51.4381 H   0  0  0  0  0  0  0  0  0  0  0  0
   64.1567   34.2209   51.0226 H   0  0  0  0  0  0  0  0  0  0  0  0
   65.2880   34.1950   49.6209 H   0  0  0  0  0  0  0  0  0  0  0  0
   61.7801   32.4945   51.9129 H   0  0  0  0  0  0  0  0  0  0  0  0
   59.9925   34.0670   52.5160 H   0  0  0  0  0  0  0  0  0  0  0  0
   58.8978   34.7258   51.2315 H   0  0  0  0  0  0  0  0  0  0  0  0
   57.7246   30.5020   49.2700 H   0  0  0  0  0  0  0  0  0  0  0  0
   59.1429   31.6037   49.0821 H   0  0  0  0  0  0  0  0  0  0  0  0
   57.8889   29.7540   52.1344 H   0  0  0  0  0  0  0  0  0  0  0  0
   59.3422   28.1548   53.3921 H   0  0  0  0  0  0  0  0  0  0  0  0
   61.6327   27.6359   52.5349 H   0  0  0  0  0  0  0  0  0  0  0  0
   62.3940   28.6980   50.4990 H   0  0  0  0  0  0  0  0  0  0  0  0
   61.0516   30.2499   49.2182 H   0  0  0  0  0  0  0  0  0  0  0  0
   60.4066   31.2327   46.9741 H   0  0  0  0  0  0  0  0  0  0  0  0
   58.4440   30.0412   46.0069 H   0  0  0  0  0  0  0  0  0  0  0  0
  1  2  1  0
  2  3  1  0
  3  4  2  0
  4  5  1  0
  5  6  2  0
  6  7  1  0
  7  8  1  0
  8  9  1  0
  9 10  1  0
  9 11  2  0
 11 12  1  0
 12 13  2  0
 12 14  1  0
 14 15  1  0
 15 16  1  0
 16 17  1  0
 17 18  1  0
 18 19  1  0
 11 20  1  0
 20 21  2  0
 21 22  1  0
 22 23  1  0
 23 24  2  0
 23 25  1  0
 25 26  1  0
 26 27  1  0
 27 28  2  0
 28 29  1  0
 29 30  2  0
 30 31  1  0
 31 32  2  0
 21 33  1  0
 33 34  2  0
  6 35  1  0
 35 36  2  0
 36  3  1  0
 33  8  1  0
 19 14  1  0
 32 27  1  0
  1 37  1  0
  1 38  1  0
  1 39  1  0
  4 40  1  0
  5 41  1  0
  7 42  1  0
  7 43  1  0
 10 44  1  0
 10 45  1  0
 10 46  1  0
 15 47  1  0
 15 48  1  0
 16 49  1  0
 16 50  1  0
 18 51  1  0
 18 52  1  0
 19 53  1  0
 19 54  1  0
 20 55  1  0
 22 56  1  0
 22 57  1  0
 26 58  1  0
 26 59  1  0
 28 60  1  0
 29 61  1  0
 30 62  1  0
 31 63  1  0
 32 64  1  0
 35 65  1  0
 36 66  1  0
M  CHG  2  25  -1  31   1
M  END
>  <UniqueID>  (4) 
3

>  <SMILES>  (4) 
COc1ccc(Cn2c(C)c(C(=O)N3CCOCC3)cc(CC(=O)[N-]Cc3ccc[nH+]c3)c2=O)cc1

>  <Energy>  (4) 
82.3330509709034

>  <Genealogy>  (4) 
COc1ccc(Cn2c(C)c(C(=O)N3CCOCC3)cc(CC(=O)[N-]Cc3ccc[nH+]c3)c2=O)cc1 (protonated)
COc1ccc(Cn2c(C)c(C(=O)N3CCOCC3)cc(CC(=O)[N-]Cc3ccc[nH+]c3)c2=O)cc1 (3D coordinates assigned)
COc1ccc(Cn2c(C)c(C(=O)N3CCOCC3)cc(CC(=O)[N-]Cc3ccc[nH+]c3)c2=O)cc1 (nonaromatic ring conformer: 82.3330509709034 kcal/mol)

>  <smiles>  (4) 
COc1ccc(Cn2c(C)c(C(=O)N3CCOCC3)cc(CC(=O)NCc3cccnc3)c2=O)cc1

>  <score_type>  (4) 
oracle

>  <origin>  (4) 
adg

>  <m_score__min__energy>  (4) 
-8.9399999999999995

>  <m_primary>  (4) 
energy

$$$$
4:0
     RDKit          3D

 24 25  0  0  0  0  0  0  0  0999 V2000
   59.4864   31.4293   45.0960 H   0  0  0  0  0  0  0  0  0  0  0  0
   58.5070   30.9460   44.9650 C   0  0  0  0  0  0  0  0  0  0  0  0
   58.2640   29.7370   45.5380 N   0  0  0  0  0  0  0  0  0  0  0  0
   57.0640   29.1010   45.4060 C   0  0  0  0  0  0  0  0  0  0  0  0
   56.8480   27.9430   45.9630 N   0  0  0  0  0  0  0  0  0  0  0  0
   57.4100   26.6740   45.5840 C   0  0  0  0  0  0  0  0  0  0  0  0
   58.4830   26.6270   44.9190 O   0  0  0  0  0  0  0  0  0  0  0  0
   56.7360   25.4040   45.9710 C   0  0  0  0  0  0  0  0  0  0  0  0
   55.3310   25.2680   45.9910 C   0  0  0  0  0  0  0  0  0  0  0  0
   54.4930   26.3230   45.6470 O   0  0  0  0  0  0  0  0  0  0  0  0
   54.7520   24.0530   46.3620 C   0  0  0  0  0  0  0  0  0  0  0  0
   53.6574   23.9449   46.3781 H   0  0  0  0  0  0  0  0  0  0  0  0
   55.5670   22.9770   46.7120 C   0  0  0  0  0  0  0  0  0  0  0  0
   55.0430   21.8800   47.0470 O   0  0  0  0  0  0  0  0  0  0  0  0
   56.9230   23.1110   46.6920 N   0  0  0  0  0  0  0  0  0  0  0  0
   57.7190   22.0430   47.0390 O   0  0  0  0  0  0  0  0  0  0  0  0
   57.5110   24.2850   46.3340 C   0  0  0  0  0  0  0  0  0  0  0  0
   58.6083   24.3613   46.3280 H   0  0  0  0  0  0  0  0  0  0  0  0
   56.0450   29.7060   44.6540 C   0  0  0  0  0  0  0  0  0  0  0  0
   54.8110   29.0830   44.4990 O   0  0  0  0  0  0  0  0  0  0  0  0
   56.2770   30.9480   44.0570 C   0  0  0  0  0  0  0  0  0  0  0  0
   55.4850   31.4317   43.4665 H   0  0  0  0  0  0  0  0  0  0  0  0
   57.5150   31.5740   44.2110 C   0  0  0  0  0  0  0  0  0  0  0  0
   57.7064   32.5511   43.7434 H   0  0  0  0  0  0  0  0  0  0  0  0
  1  2  1  0
  2  3  1  0
  3  4  1  0
  4  5  2  0
  5  6  1  0
  6  7  2  0
  6  8  1  0
  8  9  1  0
  9 10  1  0
  9 11  2  0
 11 12  1  0
 11 13  1  0
 13 14  2  0
 13 15  1  0
 15 16  1  0
 15 17  1  0
 17 18  1  0
  4 19  1  0
 19 20  1  0
 19 21  2  0
 21 22  1  0
 21 23  1  0
 23 24  1  0
 23  2  2  0
 17  8  2  0
M  CHG  4   3  -1  10  -1  16  -1  20  -1
M  END
>  <UniqueID>  (5) 
4

>  <SMILES>  (5) 
O=C(/N=c1\[n-]cccc1[O-])c1cn([O-])c(=O)cc1[O-]

>  <Energy>  (5) 
32.724051884926574

>  <Genealogy>  (5) 
O=C(N=c1[n-]cccc1[O-])c1cn([O-])c(=O)cc1[O-] (protonated)
O=C(/N=c1\[n-]cccc1[O-])c1cn([O-])c(=O)cc1[O-] (cis-trans isomerization)
O=C(/N=c1\[n-]cccc1[O-])c1cn([O-])c(=O)cc1[O-] (3D coordinates assigned)
O=C(/N=c1\[n-]cccc1[O-])c1cn([O-])c(=O)cc1[O-] (optimized conformer: 32.724051884926574 kcal/mol)

>  <smiles>  (5) 
O=C(N=c1[nH]cccc1O)c1cn(O)c(=O)cc1O

>  <score_type>  (5) 
oracle

>  <origin>  (5) 
adg

>  <m_score__min__energy>  (5) 
-15.699999999999999

>  <m_primary>  (5) 
energy

$$$$
5:0
     RDKit          3D

 62 65  0  0  0  0  0  0  0  0999 V2000
   63.7520   32.4180   46.8470 C   0  0  0  0  0  0  0  0  0  0  0  0
   63.5150   33.8370   47.3440 C   0  0  0  0  0  0  0  0  0  0  0  0
   63.7440   33.9230   48.7480 O   0  0  0  0  0  0  0  0  0  0  0  0
   63.3180   32.9490   49.6620 C   0  0  0  0  0  0  0  0  0  0  0  0
   64.0090   31.9090   49.8540 O   0  0  0  0  0  0  0  0  0  0  0  0
   62.1160   33.1780   50.4260 N   0  0  0  0  0  0  0  0  0  0  0  0
   61.0860   33.8420   49.5960 C   0  0  0  0  0  0  0  0  0  0  0  0
   59.8160   34.0980   50.4130 C   0  0  0  0  0  0  0  0  0  0  0  0
   59.3670   32.8380   51.0160 N   0  0  0  0  0  0  0  0  0  0  0  0
   58.1370   32.2180   50.5880 C   0  0  0  0  0  0  0  0  0  0  0  0
   57.7640   32.3500   49.3900 O   0  0  0  0  0  0  0  0  0  0  0  0
   57.3240   31.4100   51.5260 C   0  0  0  0  0  0  0  0  0  0  0  0
   56.3780   31.9510   52.1570 O   0  0  0  0  0  0  0  0  0  0  0  0
   57.6300   30.0370   51.7950 N   0  0  0  0  0  0  0  0  0  0  0  0
   58.8020   29.3320   51.3690 C   0  0  0  0  0  0  0  0  0  0  0  0
   59.6180   28.6490   52.2850 C   0  0  0  0  0  0  0  0  0  0  0  0
   60.7740   28.0000   51.8440 C   0  0  0  0  0  0  0  0  0  0  0  0
   61.1280   28.0350   50.4920 C   0  0  0  0  0  0  0  0  0  0  0  0
   60.3330   28.7350   49.5680 C   0  0  0  0  0  0  0  0  0  0  0  0
   60.6990   28.7540   48.1050 C   0  0  0  0  0  0  0  0  0  0  0  0
   59.7910   29.6770   47.3100 C   0  0  0  0  0  0  0  0  0  0  0  0
   58.6330   29.1880   46.6550 C   0  0  0  0  0  0  0  0  0  0  0  0
   58.2270   27.7440   46.7100 C   0  0  0  0  0  0  0  0  0  0  0  0
   57.8540   30.0380   45.9370 N   0  0  0  0  0  0  0  0  0  0  0  0
   58.1310   31.3600   45.8090 C   0  0  0  0  0  0  0  0  0  0  0  0
   57.2760   32.1770   45.0570 C   0  0  0  0  0  0  0  0  0  0  0  0
   56.1780   31.6520   44.4590 F   0  0  0  0  0  0  0  0  0  0  0  0
   57.5520   33.5390   44.9200 C   0  0  0  0  0  0  0  0  0  0  0  0
   58.6770   34.0910   45.5320 C   0  0  0  0  0  0  0  0  0  0  0  0
   59.5380   33.2890   46.2870 C   0  0  0  0  0  0  0  0  0  0  0  0
   60.6220   33.8690   46.8630 F   0  0  0  0  0  0  0  0  0  0  0  0
   59.2720   31.9090   46.4360 C   0  0  0  0  0  0  0  0  0  0  0  0
   60.1020   31.0520   47.1940 C   0  0  0  0  0  0  0  0  0  0  0  0
   61.1240   31.5140   47.7730 O   0  0  0  0  0  0  0  0  0  0  0  0
   59.1710   29.3860   50.0200 C   0  0  0  0  0  0  0  0  0  0  0  0
   60.3580   32.0950   51.8050 C   0  0  0  0  0  0  0  0  0  0  0  0
   61.6280   31.8940   50.9670 C   0  0  0  0  0  0  0  0  0  0  0  0
   63.8649   31.7422   47.7075 H   0  0  0  0  0  0  0  0  0  0  0  0
   62.8953   32.0952   46.2371 H   0  0  0  0  0  0  0  0  0  0  0  0
   64.6671   32.3911   46.2371 H   0  0  0  0  0  0  0  0  0  0  0  0
   64.2011   34.5214   46.8235 H   0  0  0  0  0  0  0  0  0  0  0  0
   62.4707   34.1145   47.1380 H   0  0  0  0  0  0  0  0  0  0  0  0
   62.3610   33.8110   51.2240 H   0  0  0  0  0  0  0  0  0  0  0  0
   61.4801   34.8018   49.2306 H   0  0  0  0  0  0  0  0  0  0  0  0
   60.8361   33.1854   48.7496 H   0  0  0  0  0  0  0  0  0  0  0  0
   60.0302   34.8295   51.2061 H   0  0  0  0  0  0  0  0  0  0  0  0
   59.0279   34.4942   49.7558 H   0  0  0  0  0  0  0  0  0  0  0  0
   59.3469   28.6249   53.3508 H   0  0  0  0  0  0  0  0  0  0  0  0
   61.4076   27.4598   52.5628 H   0  0  0  0  0  0  0  0  0  0  0  0
   62.0332   27.5121   50.1496 H   0  0  0  0  0  0  0  0  0  0  0  0
   61.7379   29.1006   48.0020 H   0  0  0  0  0  0  0  0  0  0  0  0
   60.5823   27.7343   47.7093 H   0  0  0  0  0  0  0  0  0  0  0  0
   58.1381   27.4278   47.7598 H   0  0  0  0  0  0  0  0  0  0  0  0
   57.2581   27.6161   46.2052 H   0  0  0  0  0  0  0  0  0  0  0  0
   58.9873   27.1299   46.2052 H   0  0  0  0  0  0  0  0  0  0  0  0
   56.8804   34.1781   44.3279 H   0  0  0  0  0  0  0  0  0  0  0  0
   58.8883   35.1647   45.4199 H   0  0  0  0  0  0  0  0  0  0  0  0
   58.5462   29.9430   49.3063 H   0  0  0  0  0  0  0  0  0  0  0  0
   60.6041   32.6630   52.7143 H   0  0  0  0  0  0  0  0  0  0  0  0
   59.9444   31.1155   52.0870 H   0  0  0  0  0  0  0  0  0  0  0  0
   62.4102   31.4505   51.6007 H   0  0  0  0  0  0  0  0  0  0  0  0
   61.3893   31.2279   50.1248 H   0  0  0  0  0  0  0  0  0  0  0  0
  1  2  1  0
  2  3  1  0
  3  4  1  0
  4  5  2  0
  4  6  1  0
  6  7  1  0
  7  8  1  0
  8  9  1  0
  9 10  1  0
 10 11  2  0
 10 12  1  0
 12 13  2  0
 12 14  1  0
 14 15  1  0
 15 16  2  0
 16 17  1  0
 17 18  2  0
 18 19  1  0
 19 20  1  0
 20 21  1  0
 21 22  2  0
 22 23  1  0
 22 24  1  0
 24 25  1  0
 25 26  2  0
 26 27  1  0
 26 28  1  0
 28 29  2  0
 29 30  1  0
 30 31  1  0
 30 32  2  0
 32 33  1  0
 33 34  2  0
 19 35  2  0
  9 36  1  0
 36 37  1  0
 37  6  1  0
 35 15  1  0
 33 21  1  0
 32 25  1  0
  1 38  1  0
  1 39  1  0
  1 40  1  0
  2 41  1  0
  2 42  1  0
  6 43  1  0
  7 44  1  0
  7 45  1  0
  8 46  1  0
  8 47  1  0
 16 48  1  0
 17 49  1  0
 18 50  1  0
 20 51  1  0
 20 52  1  0
 23 53  1  0
 23 54  1  0
 23 55  1  0
 28 56  1  0
 29 57  1  0
 35 58  1  0
 36 59  1  0
 36 60  1  0
 37 61  1  0
 37 62  1  0
M  CHG  3   6   1  14  -1  24  -1
M  END
>  <UniqueID>  (6) 
5

>  <SMILES>  (6) 
CCOC(=O)[NH+]1CCN(C(=O)C(=O)[N-]c2cccc(Cc3c(C)[n-]c4c(F)ccc(F)c4c3=O)c2)CC1

>  <Energy>  (6) 
80.00902167624861

>  <Genealogy>  (6) 
CCOC(=O)[NH+]1CCN(C(=O)C(=O)[N-]c2cccc(Cc3c(C)[n-]c4c(F)ccc(F)c4c3=O)c2)CC1 (protonated)
CCOC(=O)[NH+]1CCN(C(=O)C(=O)[N-]c2cccc(Cc3c(C)[n-]c4c(F)ccc(F)c4c3=O)c2)CC1 (3D coordinates assigned)
CCOC(=O)[NH+]1CCN(C(=O)C(=O)[N-]c2cccc(Cc3c(C)[n-]c4c(F)ccc(F)c4c3=O)c2)CC1 (nonaromatic ring conformer: 80.00902167624861 kcal/mol)

>  <smiles>  (6) 
CCOC(=O)N1CCN(C(=O)C(=O)Nc2cccc(Cc3c(C)[nH]c4c(F)ccc(F)c4c3=O)c2)CC1

>  <score_type>  (6) 
oracle

>  <origin>  (6) 
adg

>  <m_score__min__energy>  (6) 
-10.02

>  <m_primary>  (6) 
energy

$$$$
6:0
     RDKit          3D

 47 49  0  0  0  0  0  0  0  0999 V2000
   66.1180   31.0620   51.3180 C   0  0  0  0  0  0  0  0  0  0  0  0
   64.7800   31.7940   51.1470 C   0  0  0  0  0  0  0  0  0  0  0  0
   63.6200   30.8050   50.9970 C   0  0  0  0  0  0  0  0  0  0  0  0
   64.8000   32.7900   50.0090 C   0  0  0  0  0  0  0  0  0  0  0  0
   65.8810   33.3820   49.7430 O   0  0  0  0  0  0  0  0  0  0  0  0
   63.6440   33.0470   49.1940 N   0  0  0  0  0  0  0  0  0  0  0  0
   62.4710   33.7230   49.7600 C   0  0  0  0  0  0  0  0  0  0  0  0
   61.1890   33.1750   49.1250 C   0  0  0  0  0  0  0  0  0  0  0  0
   61.3130   33.0770   47.6670 N   0  0  0  0  0  0  0  0  0  0  0  0
   60.1870   32.6290   46.8970 C   0  0  0  0  0  0  0  0  0  0  0  0
   59.9040   31.2590   46.8210 C   0  0  0  0  0  0  0  0  0  0  0  0
   58.8250   30.8020   46.0610 C   0  0  0  0  0  0  0  0  0  0  0  0
   58.0220   31.7060   45.3560 C   0  0  0  0  0  0  0  0  0  0  0  0
   56.9070   31.2050   44.6060 N   0  0  0  0  0  0  0  0  0  0  0  0
   56.3650   29.8800   44.6810 C   0  0  0  0  0  0  0  0  0  0  0  0
   55.1360   29.7430   44.9190 O   0  0  0  0  0  0  0  0  0  0  0  0
   57.2150   28.6790   44.5620 C   0  0  0  0  0  0  0  0  0  0  0  0
   57.7790   28.2030   43.3830 C   0  0  0  0  0  0  0  0  0  0  0  0
   58.4920   27.0110   43.5520 C   0  0  0  0  0  0  0  0  0  0  0  0
   58.4820   26.5320   44.8560 C   0  0  0  0  0  0  0  0  0  0  0  0
   57.5820   27.5940   45.7970 S   0  0  0  0  0  0  0  0  0  0  0  0
   58.2820   33.0830   45.4590 C   0  0  0  0  0  0  0  0  0  0  0  0
   59.3650   33.5460   46.2150 C   0  0  0  0  0  0  0  0  0  0  0  0
   59.6390   35.2790   46.3330 Cl  0  0  0  0  0  0  0  0  0  0  0  0
   62.5620   33.4480   46.9920 C   0  0  0  0  0  0  0  0  0  0  0  0
   63.7600   32.8550   47.7410 C   0  0  0  0  0  0  0  0  0  0  0  0
   66.3363   30.9426   52.3895 H   0  0  0  0  0  0  0  0  0  0  0  0
   66.0573   30.0714   50.8435 H   0  0  0  0  0  0  0  0  0  0  0  0
   66.9194   31.6473   50.8435 H   0  0  0  0  0  0  0  0  0  0  0  0
   64.6207   32.3729   52.0687 H   0  0  0  0  0  0  0  0  0  0  0  0
   63.2650   30.5024   51.9932 H   0  0  0  0  0  0  0  0  0  0  0  0
   62.7983   31.2847   50.4450 H   0  0  0  0  0  0  0  0  0  0  0  0
   63.9637   29.9177   50.4450 H   0  0  0  0  0  0  0  0  0  0  0  0
   62.4411   33.5511   50.8461 H   0  0  0  0  0  0  0  0  0  0  0  0
   62.5425   34.8010   49.5530 H   0  0  0  0  0  0  0  0  0  0  0  0
   60.9860   32.1746   49.5349 H   0  0  0  0  0  0  0  0  0  0  0  0
   60.3654   33.8664   49.3565 H   0  0  0  0  0  0  0  0  0  0  0  0
   60.5351   30.5393   47.3629 H   0  0  0  0  0  0  0  0  0  0  0  0
   58.6050   29.7252   46.0162 H   0  0  0  0  0  0  0  0  0  0  0  0
   57.6748   28.7130   42.4140 H   0  0  0  0  0  0  0  0  0  0  0  0
   59.0124   26.5003   42.7284 H   0  0  0  0  0  0  0  0  0  0  0  0
   58.9774   25.6162   45.2109 H   0  0  0  0  0  0  0  0  0  0  0  0
   57.6298   33.8021   44.9418 H   0  0  0  0  0  0  0  0  0  0  0  0
   62.5484   33.0608   45.9625 H   0  0  0  0  0  0  0  0  0  0  0  0
   62.6523   34.5442   46.9777 H   0  0  0  0  0  0  0  0  0  0  0  0
   63.8157   31.7774   47.5274 H   0  0  0  0  0  0  0  0  0  0  0  0
   64.6681   33.3729   47.3988 H   0  0  0  0  0  0  0  0  0  0  0  0
  1  2  1  0
  2  3  1  0
  2  4  1  0
  4  5  2  0
  4  6  1  0
  6  7  1  0
  7  8  1  0
  8  9  1  0
  9 10  1  0
 10 11  2  0
 11 12  1  0
 12 13  2  0
 13 14  1  0
 14 15  1  0
 15 16  2  0
 15 17  1  0
 17 18  2  0
 18 19  1  0
 19 20  2  0
 20 21  1  0
 13 22  1  0
 22 23  2  0
 23 24  1  0
  9 25  1  0
 25 26  1  0
 26  6  1  0
 23 10  1  0
 21 17  1  0
  1 27  1  0
  1 28  1  0
  1 29  1  0
  2 30  1  0
  3 31  1  0
  3 32  1  0
  3 33  1  0
  7 34  1  0
  7 35  1  0
  8 36  1  0
  8 37  1  0
 11 38  1  0
 12 39  1  0
 18 40  1  0
 19 41  1  0
 20 42  1  0
 22 43  1  0
 25 44  1  0
 25 45  1  0
 26 46  1  0
 26 47  1  0
M  CHG  1  14  -1
M  END
>  <UniqueID>  (7) 
6

>  <SMILES>  (7) 
CC(C)C(=O)N1CCN(c2ccc([N-]C(=O)c3cccs3)cc2Cl)CC1

>  <Energy>  (7) 
85.17150301588015

>  <Genealogy>  (7) 
CC(C)C(=O)N1CCN(c2ccc([N-]C(=O)c3cccs3)cc2Cl)CC1 (protonated)
CC(C)C(=O)N1CCN(c2ccc([N-]C(=O)c3cccs3)cc2Cl)CC1 (3D coordinates assigned)
CC(C)C(=O)N1CCN(c2ccc([N-]C(=O)c3cccs3)cc2Cl)CC1 (nonaromatic ring conformer: 85.17150301588015 kcal/mol)

>  <smiles>  (7) 
CC(C)C(=O)N1CCN(c2ccc(NC(=O)c3cccs3)cc2Cl)CC1

>  <score_type>  (7) 
oracle

>  <origin>  (7) 
adg

>  <m_score__min__energy>  (7) 
-10.06

>  <m_primary>  (7) 
energy

$$$$
7:0
     RDKit          3D

 45 47  0  0  0  0  0  0  0  0999 V2000
   59.1880   34.7010   44.9210 N   0  0  0  0  0  0  0  0  0  0  0  0
   58.5430   33.4410   44.7180 C   0  0  0  0  0  0  0  0  0  0  0  0
   58.2840   32.5970   45.8080 C   0  0  0  0  0  0  0  0  0  0  0  0
   57.6510   31.3670   45.6110 C   0  0  0  0  0  0  0  0  0  0  0  0
   57.2700   30.9690   44.3220 C   0  0  0  0  0  0  0  0  0  0  0  0
   56.4580   29.4270   44.0690 S   0  0  0  0  0  0  0  0  0  0  0  0
   57.1240   28.6500   42.9700 O   0  0  0  0  0  0  0  0  0  0  0  0
   55.0320   29.6930   43.6810 O   0  0  0  0  0  0  0  0  0  0  0  0
   56.4790   28.4880   45.5270 N   0  0  0  0  0  0  0  0  0  0  0  0
   56.2740   27.0710   45.6210 C   0  0  0  0  0  0  0  0  0  0  0  0
   55.1460   26.6520   45.9900 O   0  0  0  0  0  0  0  0  0  0  0  0
   57.3450   26.0640   45.2860 C   0  0  0  0  0  0  0  0  0  0  0  0
   58.6180   26.7410   44.7620 C   0  0  0  0  0  0  0  0  0  0  0  0
   59.2290   27.6510   45.7990 C   0  0  0  0  0  0  0  0  0  0  0  0
   59.3320   27.2180   47.1310 C   0  0  0  0  0  0  0  0  0  0  0  0
   59.9380   28.0270   48.0950 C   0  0  0  0  0  0  0  0  0  0  0  0
   60.4320   29.2960   47.7420 C   0  0  0  0  0  0  0  0  0  0  0  0
   60.3510   29.7230   46.4100 C   0  0  0  0  0  0  0  0  0  0  0  0
   59.7560   28.9070   45.4370 C   0  0  0  0  0  0  0  0  0  0  0  0
   59.6980   29.3380   44.1110 O   0  0  0  0  0  0  0  0  0  0  0  0
   61.1120   30.1580   48.7770 C   0  0  0  0  0  0  0  0  0  0  0  0
   60.6770   29.7810   50.2010 C   0  0  0  0  0  0  0  0  0  0  0  0
   60.7950   28.2680   50.4040 C   0  0  0  0  0  0  0  0  0  0  0  0
   60.0300   27.5750   49.4170 O   0  0  0  0  0  0  0  0  0  0  0  0
   57.5320   31.8090   43.2320 C   0  0  0  0  0  0  0  0  0  0  0  0
   58.1650   33.0400   43.4290 C   0  0  0  0  0  0  0  0  0  0  0  0
   59.5330   35.2610   44.1100 H   0  0  0  0  0  0  0  0  0  0  0  0
   59.3180   35.0870   45.8820 H   0  0  0  0  0  0  0  0  0  0  0  0
   58.5803   32.9046   46.8217 H   0  0  0  0  0  0  0  0  0  0  0  0
   57.4511   30.7092   46.4697 H   0  0  0  0  0  0  0  0  0  0  0  0
   57.5928   25.4925   46.1926 H   0  0  0  0  0  0  0  0  0  0  0  0
   56.9586   25.4032   44.4961 H   0  0  0  0  0  0  0  0  0  0  0  0
   59.3497   25.9654   44.4918 H   0  0  0  0  0  0  0  0  0  0  0  0
   58.3491   27.3490   43.8856 H   0  0  0  0  0  0  0  0  0  0  0  0
   58.9323   26.2340   47.4174 H   0  0  0  0  0  0  0  0  0  0  0  0
   60.7569   30.7050   46.1255 H   0  0  0  0  0  0  0  0  0  0  0  0
   58.9450   29.0580   43.4940 H   0  0  0  0  0  0  0  0  0  0  0  0
   62.2009   30.0281   48.6902 H   0  0  0  0  0  0  0  0  0  0  0  0
   60.8255   31.2044   48.5954 H   0  0  0  0  0  0  0  0  0  0  0  0
   61.3224   30.2969   50.9272 H   0  0  0  0  0  0  0  0  0  0  0  0
   59.6299   30.0836   50.3496 H   0  0  0  0  0  0  0  0  0  0  0  0
   61.8509   27.9716   50.3190 H   0  0  0  0  0  0  0  0  0  0  0  0
   60.4106   28.0095   51.4017 H   0  0  0  0  0  0  0  0  0  0  0  0
   57.2388   31.4992   42.2181 H   0  0  0  0  0  0  0  0  0  0  0  0
   58.3671   33.6961   42.5695 H   0  0  0  0  0  0  0  0  0  0  0  0
  1  2  1  0
  2  3  2  0
  3  4  1  0
  4  5  2  0
  5  6  1  0
  6  7  2  0
  6  8  2  0
  6  9  1  0
  9 10  1  0
 10 11  2  0
 10 12  1  0
 12 13  1  0
 13 14  1  0
 14 15  2  0
 15 16  1  0
 16 17  2  0
 17 18  1  0
 18 19  2  0
 19 20  1  0
 17 21  1  0
 21 22  1  0
 22 23  1  0
 23 24  1  0
  5 25  1  0
 25 26  2  0
 26  2  1  0
 19 14  1  0
 24 16  1  0
  1 27  1  0
  1 28  1  0
  3 29  1  0
  4 30  1  0
 12 31  1  0
 12 32  1  0
 13 33  1  0
 13 34  1  0
 15 35  1  0
 18 36  1  0
 20 37  1  0
 21 38  1  0
 21 39  1  0
 22 40  1  0
 22 41  1  0
 23 42  1  0
 23 43  1  0
 25 44  1  0
 26 45  1  0
M  CHG  1   9  -1
M  END
>  <UniqueID>  (8) 
7

>  <SMILES>  (8) 
Nc1ccc(S(=O)(=O)[N-]C(=O)CCc2cc3c(cc2O)CCCO3)cc1

>  <Energy>  (8) 
43.08016994792613

>  <Genealogy>  (8) 
Nc1ccc(S(=O)(=O)[N-]C(=O)CCc2cc3c(cc2O)CCCO3)cc1 (protonated)
Nc1ccc(S(=O)(=O)[N-]C(=O)CCc2cc3c(cc2O)CCCO3)cc1 (3D coordinates assigned)
Nc1ccc(S(=O)(=O)[N-]C(=O)CCc2cc3c(cc2O)CCCO3)cc1 (nonaromatic ring conformer: 43.08016994792613 kcal/mol)

>  <smiles>  (8) 
Nc1ccc(S(=O)(=O)NC(=O)CCc2cc3c(cc2O)CCCO3)cc1

>  <score_type>  (8) 
oracle

>  <origin>  (8) 
adg

>  <m_score__min__energy>  (8) 
-10.76

>  <m_primary>  (8) 
energy

$$$$
8:0
     RDKit          3D

 41 43  0  0  0  0  0  0  0  0999 V2000
   65.7000   33.0660   51.9860 H   0  0  0  0  0  0  0  0  0  0  0  0
   64.8630   33.6020   51.7900 O   0  0  0  0  0  0  0  0  0  0  0  0
   64.2330   33.5410   50.5500 C   0  0  0  0  0  0  0  0  0  0  0  0
   63.0740   34.2880   50.3010 C   0  0  0  0  0  0  0  0  0  0  0  0
   62.6543   34.9280   51.0911 H   0  0  0  0  0  0  0  0  0  0  0  0
   62.4490   34.2230   49.0520 C   0  0  0  0  0  0  0  0  0  0  0  0
   61.5322   34.8023   48.8678 H   0  0  0  0  0  0  0  0  0  0  0  0
   62.9860   33.4220   48.0320 C   0  0  0  0  0  0  0  0  0  0  0  0
   62.2910   33.3570   46.7270 C   0  0  0  0  0  0  0  0  0  0  0  0
   62.9120   33.2500   45.8254 H   0  0  0  0  0  0  0  0  0  0  0  0
   60.9540   33.4190   46.5590 C   0  0  0  0  0  0  0  0  0  0  0  0
   60.0730   32.3310   46.9040 N   0  0  0  0  0  0  0  0  0  0  0  0
   60.2620   30.9980   46.3110 C   0  0  0  0  0  0  0  0  0  0  0  0
   60.9318   31.0774   45.4421 H   0  0  0  0  0  0  0  0  0  0  0  0
   60.7043   30.3276   47.0626 H   0  0  0  0  0  0  0  0  0  0  0  0
   58.9360   30.4390   45.8690 C   0  0  0  0  0  0  0  0  0  0  0  0
   58.4700   29.2190   46.3840 C   0  0  0  0  0  0  0  0  0  0  0  0
   59.0932   28.6472   47.0873 H   0  0  0  0  0  0  0  0  0  0  0  0
   57.2160   28.7280   46.0060 C   0  0  0  0  0  0  0  0  0  0  0  0
   56.8584   27.7681   46.4068 H   0  0  0  0  0  0  0  0  0  0  0  0
   56.4160   29.4560   45.1190 C   0  0  0  0  0  0  0  0  0  0  0  0
   55.1710   28.9670   44.7450 O   0  0  0  0  0  0  0  0  0  0  0  0
   56.8700   30.6770   44.6110 C   0  0  0  0  0  0  0  0  0  0  0  0
   56.2404   31.2506   43.9149 H   0  0  0  0  0  0  0  0  0  0  0  0
   58.1240   31.1700   44.9870 C   0  0  0  0  0  0  0  0  0  0  0  0
   58.4753   32.1339   44.5902 H   0  0  0  0  0  0  0  0  0  0  0  0
   58.7840   32.6640   47.4550 C   0  0  0  0  0  0  0  0  0  0  0  0
   58.1280   31.7980   48.0950 O   0  0  0  0  0  0  0  0  0  0  0  0
   58.1580   34.0040   47.1790 C   0  0  0  0  0  0  0  0  0  0  0  0
   57.5716   33.9381   46.2507 H   0  0  0  0  0  0  0  0  0  0  0  0
   57.5178   34.2640   48.0349 H   0  0  0  0  0  0  0  0  0  0  0  0
   59.2130   35.1070   47.0220 C   0  0  0  0  0  0  0  0  0  0  0  0
   58.7262   36.0152   46.6371 H   0  0  0  0  0  0  0  0  0  0  0  0
   59.6668   35.2936   48.0065 H   0  0  0  0  0  0  0  0  0  0  0  0
   60.3220   34.6880   46.0530 C   0  0  0  0  0  0  0  0  0  0  0  0
   59.8946   34.5155   45.0542 H   0  0  0  0  0  0  0  0  0  0  0  0
   61.0800   35.4824   45.9863 H   0  0  0  0  0  0  0  0  0  0  0  0
   64.1340   32.6520   48.2950 C   0  0  0  0  0  0  0  0  0  0  0  0
   64.5427   31.9942   47.5138 H   0  0  0  0  0  0  0  0  0  0  0  0
   64.7580   32.7190   49.5450 C   0  0  0  0  0  0  0  0  0  0  0  0
   65.8690   31.9790   49.7830 F   0  0  0  0  0  0  0  0  0  0  0  0
  1  2  1  0
  2  3  1  0
  3  4  2  0
  4  5  1  0
  4  6  1  0
  6  7  1  0
  6  8  2  0
  8  9  1  0
  9 10  1  0
  9 11  2  0
 11 12  1  0
 12 13  1  0
 13 14  1  0
 13 15  1  0
 13 16  1  0
 16 17  2  0
 17 18  1  0
 17 19  1  0
 19 20  1  0
 19 21  2  0
 21 22  1  0
 21 23  1  0
 23 24  1  0
 23 25  2  0
 25 26  1  0
 12 27  1  0
 27 28  2  0
 27 29  1  0
 29 30  1  0
 29 31  1  0
 29 32  1  0
 32 33  1  0
 32 34  1  0
 32 35  1  0
 35 36  1  0
 35 37  1  0
  8 38  1  0
 38 39  1  0
 38 40  2  0
 40 41  1  0
 40  3  1  0
 35 11  1  0
 25 16  1  0
M  CHG  1  22  -1
M  END
>  <UniqueID>  (9) 
8

>  <SMILES>  (9) 
O=C1CCC/C(=C/c2ccc(O)c(F)c2)N1Cc1ccc([O-])cc1

>  <Energy>  (9) 
50.61216499220782

>  <Genealogy>  (9) 
O=C1CCCC(=Cc2ccc(O)c(F)c2)N1Cc1ccc([O-])cc1 (protonated)
O=C1CCC/C(=C/c2ccc(O)c(F)c2)N1Cc1ccc([O-])cc1 (cis-trans isomerization)
O=C1CCC/C(=C/c2ccc(O)c(F)c2)N1Cc1ccc([O-])cc1 (3D coordinates assigned)
O=C1CCC/C(=C/c2ccc(O)c(F)c2)N1Cc1ccc([O-])cc1 (nonaromatic ring conformer: 50.61216499220782 kcal/mol)

>  <smiles>  (9) 
O=C1CCCC(=Cc2ccc(O)c(F)c2)N1Cc1ccc(O)cc1

>  <score_type>  (9) 
oracle

>  <origin>  (9) 
adg

>  <m_score__min__energy>  (9) 
-10.220000000000001

>  <m_primary>  (9) 
energy

$$$$
9:0
     RDKit          3D

 42 43  0  0  0  0  0  0  0  0999 V2000
   58.5410   34.5520   53.0840 C   0  0  0  0  0  0  0  0  0  0  0  0
   59.0120   34.5240   51.7040 N   0  0  0  0  0  0  0  0  0  0  0  0
   59.8000   33.4370   51.1990 C   0  0  0  0  0  0  0  0  0  0  0  0
   60.0930   32.4760   51.9590 O   0  0  0  0  0  0  0  0  0  0  0  0
   60.2960   33.4550   49.8040 C   0  0  0  0  0  0  0  0  0  0  0  0
   59.3000   33.6220   48.4570 S   0  0  0  0  0  0  0  0  0  0  0  0
   60.5240   33.6460   47.3180 C   0  0  0  0  0  0  0  0  0  0  0  0
   60.2820   33.8020   45.9160 N   0  0  0  0  0  0  0  0  0  0  0  0
   59.1200   34.4200   45.3510 C   0  0  0  0  0  0  0  0  0  0  0  0
   59.1760   35.6010   44.9120 O   0  0  0  0  0  0  0  0  0  0  0  0
   57.8780   33.7180   45.3130 N   0  0  0  0  0  0  0  0  0  0  0  0
   57.4770   32.8930   44.1820 C   0  0  0  0  0  0  0  0  0  0  0  0
   57.3080   31.4720   44.6340 C   0  0  0  0  0  0  0  0  0  0  0  0
   58.1230   30.9480   45.6490 C   0  0  0  0  0  0  0  0  0  0  0  0
   57.9850   29.6150   46.0490 C   0  0  0  0  0  0  0  0  0  0  0  0
   57.0390   28.7870   45.4260 C   0  0  0  0  0  0  0  0  0  0  0  0
   56.8430   27.1100   45.9250 S   0  0  0  0  0  0  0  0  0  0  0  0
   55.1610   26.7180   45.9750 N   0  0  0  0  0  0  0  0  0  0  0  0
   57.5410   26.2110   44.9450 O   0  0  0  0  0  0  0  0  0  0  0  0
   57.4420   26.8980   47.2880 O   0  0  0  0  0  0  0  0  0  0  0  0
   56.2340   29.3050   44.4030 C   0  0  0  0  0  0  0  0  0  0  0  0
   56.3720   30.6370   44.0050 C   0  0  0  0  0  0  0  0  0  0  0  0
   61.7610   33.4960   47.9570 C   0  0  0  0  0  0  0  0  0  0  0  0
   63.0460   33.3980   47.2340 C   0  0  0  0  0  0  0  0  0  0  0  0
   63.5320   34.4080   46.6610 O   0  0  0  0  0  0  0  0  0  0  0  0
   63.7380   32.1940   47.1850 O   0  0  0  0  0  0  0  0  0  0  0  0
   61.6290   33.3710   49.3640 C   0  0  0  0  0  0  0  0  0  0  0  0
   62.7880   33.1190   50.2930 C   0  0  0  0  0  0  0  0  0  0  0  0
   59.4022   34.5008   53.7665 H   0  0  0  0  0  0  0  0  0  0  0  0
   57.9861   35.4847   53.2632 H   0  0  0  0  0  0  0  0  0  0  0  0
   57.8795   33.6916   53.2632 H   0  0  0  0  0  0  0  0  0  0  0  0
   58.7420   35.3130   51.0750 H   0  0  0  0  0  0  0  0  0  0  0  0
   56.5243   33.2646   43.7767 H   0  0  0  0  0  0  0  0  0  0  0  0
   58.2508   32.9398   43.4016 H   0  0  0  0  0  0  0  0  0  0  0  0
   58.8746   31.5892   46.1327 H   0  0  0  0  0  0  0  0  0  0  0  0
   58.6194   29.2149   46.8537 H   0  0  0  0  0  0  0  0  0  0  0  0
   54.7890   27.0880   46.8800 H   0  0  0  0  0  0  0  0  0  0  0  0
   55.4905   28.6605   43.9113 H   0  0  0  0  0  0  0  0  0  0  0  0
   55.7434   31.0334   43.1940 H   0  0  0  0  0  0  0  0  0  0  0  0
   62.4452   33.1935   51.3356 H   0  0  0  0  0  0  0  0  0  0  0  0
   63.1917   32.1121   50.1109 H   0  0  0  0  0  0  0  0  0  0  0  0
   63.5733   33.8674   50.1109 H   0  0  0  0  0  0  0  0  0  0  0  0
  1  2  1  0
  2  3  1  0
  3  4  2  0
  3  5  1  0
  5  6  1  0
  6  7  1  0
  7  8  1  0
  8  9  1  0
  9 10  2  0
  9 11  1  0
 11 12  1  0
 12 13  1  0
 13 14  2  0
 14 15  1  0
 15 16  2  0
 16 17  1  0
 17 18  1  0
 17 19  2  0
 17 20  2  0
 16 21  1  0
 21 22  2  0
  7 23  2  0
 23 24  1  0
 24 25  2  0
 24 26  1  0
 23 27  1  0
 27 28  1  0
 27  5  2  0
 22 13  1  0
  1 29  1  0
  1 30  1  0
  1 31  1  0
  2 32  1  0
 12 33  1  0
 12 34  1  0
 14 35  1  0
 15 36  1  0
 18 37  1  0
 21 38  1  0
 22 39  1  0
 28 40  1  0
 28 41  1  0
 28 42  1  0
M  CHG  4   8  -1  11  -1  18  -1  26  -1
M  END
>  <UniqueID>  (10) 
9

>  <SMILES>  (10) 
CNC(=O)c1sc([N-]C(=O)[N-]Cc2ccc(S([NH-])(=O)=O)cc2)c(C(=O)[O-])c1C

>  <Energy>  (10) 
73.80994687382905

>  <Genealogy>  (10) 
CNC(=O)c1sc([N-]C(=O)[N-]Cc2ccc(S([NH-])(=O)=O)cc2)c(C(=O)[O-])c1C (protonated)
CNC(=O)c1sc([N-]C(=O)[N-]Cc2ccc(S([NH-])(=O)=O)cc2)c(C(=O)[O-])c1C (3D coordinates assigned)
CNC(=O)c1sc([N-]C(=O)[N-]Cc2ccc(S([NH-])(=O)=O)cc2)c(C(=O)[O-])c1C (optimized conformer: 73.80994687382905 kcal/mol)

>  <smiles>  (10) 
CNC(=O)c1sc(NC(=O)NCc2ccc(S(N)(=O)=O)cc2)c(C(=O)O)c1C

>  <score_type>  (10) 
oracle

>  <origin>  (10) 
adg

>  <m_score__min__energy>  (10) 
-13.720000000000001

>  <m_primary>  (10) 
energy

$$$$
10:0
     RDKit          3D

 41 43  0  0  0  0  0  0  0  0999 V2000
   57.9070   31.9800   41.9040 C   0  0  0  0  0  0  0  0  0  0  0  0
   57.0210   30.9930   42.6590 C   0  0  0  0  0  0  0  0  0  0  0  0
   57.5730   30.7130   44.0070 N   0  0  0  0  0  0  0  0  0  0  0  0
   57.8480   29.4060   44.3350 C   0  0  0  0  0  0  0  0  0  0  0  0
   57.5480   28.4770   43.5320 O   0  0  0  0  0  0  0  0  0  0  0  0
   58.4420   29.0750   45.5630 C   0  0  0  0  0  0  0  0  0  0  0  0
   58.7720   27.6630   45.8840 C   0  0  0  0  0  0  0  0  0  0  0  0
   59.4620   27.4090   46.9080 O   0  0  0  0  0  0  0  0  0  0  0  0
   58.3130   26.5980   45.0320 N   0  0  0  0  0  0  0  0  0  0  0  0
   58.5100   25.2020   45.3200 C   0  0  0  0  0  0  0  0  0  0  0  0
   59.3180   24.8520   46.2230 O   0  0  0  0  0  0  0  0  0  0  0  0
   57.7900   24.1580   44.5510 C   0  0  0  0  0  0  0  0  0  0  0  0
   58.2350   22.8240   44.5850 C   0  0  0  0  0  0  0  0  0  0  0  0
   57.5590   21.8310   43.8670 C   0  0  0  0  0  0  0  0  0  0  0  0
   56.4290   22.1590   43.1150 C   0  0  0  0  0  0  0  0  0  0  0  0
   55.9690   23.4770   43.0830 C   0  0  0  0  0  0  0  0  0  0  0  0
   56.6420   24.4730   43.7990 C   0  0  0  0  0  0  0  0  0  0  0  0
   58.7210   30.0860   46.4930 C   0  0  0  0  0  0  0  0  0  0  0  0
   59.3670   29.7200   47.6810 O   0  0  0  0  0  0  0  0  0  0  0  0
   58.3620   31.4220   46.2000 C   0  0  0  0  0  0  0  0  0  0  0  0
   58.5560   32.4620   47.1370 C   0  0  0  0  0  0  0  0  0  0  0  0
   58.1880   33.7710   46.8380 C   0  0  0  0  0  0  0  0  0  0  0  0
   57.6110   34.0700   45.6110 C   0  0  0  0  0  0  0  0  0  0  0  0
   57.4000   33.0650   44.6710 C   0  0  0  0  0  0  0  0  0  0  0  0
   57.7760   31.7210   44.9340 C   0  0  0  0  0  0  0  0  0  0  0  0
   58.4626   32.5989   42.6239 H   0  0  0  0  0  0  0  0  0  0  0  0
   58.6169   31.4263   41.2720 H   0  0  0  0  0  0  0  0  0  0  0  0
   57.2801   32.6262   41.2720 H   0  0  0  0  0  0  0  0  0  0  0  0
   56.0130   31.4207   42.7639 H   0  0  0  0  0  0  0  0  0  0  0  0
   56.9806   30.0511   42.0923 H   0  0  0  0  0  0  0  0  0  0  0  0
   57.8620   26.8600   44.1280 H   0  0  0  0  0  0  0  0  0  0  0  0
   59.1212   22.5593   45.1805 H   0  0  0  0  0  0  0  0  0  0  0  0
   57.9180   20.7916   43.8950 H   0  0  0  0  0  0  0  0  0  0  0  0
   55.9009   21.3786   42.5475 H   0  0  0  0  0  0  0  0  0  0  0  0
   55.0760   23.7327   42.4938 H   0  0  0  0  0  0  0  0  0  0  0  0
   56.2720   25.5086   43.7743 H   0  0  0  0  0  0  0  0  0  0  0  0
   59.7930   28.8230   47.8620 H   0  0  0  0  0  0  0  0  0  0  0  0
   59.0037   32.2342   48.1156 H   0  0  0  0  0  0  0  0  0  0  0  0
   58.3547   34.5700   47.5754 H   0  0  0  0  0  0  0  0  0  0  0  0
   57.3194   35.1053   45.3807 H   0  0  0  0  0  0  0  0  0  0  0  0
   56.9336   33.3165   43.7071 H   0  0  0  0  0  0  0  0  0  0  0  0
  1  2  1  0
  2  3  1  0
  3  4  1  0
  4  5  2  0
  4  6  1  0
  6  7  1  0
  7  8  2  0
  7  9  1  0
  9 10  1  0
 10 11  2  0
 10 12  1  0
 12 13  2  0
 13 14  1  0
 14 15  2  0
 15 16  1  0
 16 17  2  0
  6 18  2  0
 18 19  1  0
 18 20  1  0
 20 21  2  0
 21 22  1  0
 22 23  2  0
 23 24  1  0
 24 25  2  0
 25  3  1  0
 17 12  1  0
 25 20  1  0
  1 26  1  0
  1 27  1  0
  1 28  1  0
  2 29  1  0
  2 30  1  0
  9 31  1  0
 13 32  1  0
 14 33  1  0
 15 34  1  0
 16 35  1  0
 17 36  1  0
 19 37  1  0
 21 38  1  0
 22 39  1  0
 23 40  1  0
 24 41  1  0
M  END
>  <UniqueID>  (11) 
10

>  <SMILES>  (11) 
CCn1c(=O)c(C(=O)NC(=O)c2ccccc2)c(O)c2ccccc21

>  <Energy>  (11) 
65.20240206663279

>  <Genealogy>  (11) 
CCn1c(=O)c(C(=O)NC(=O)c2ccccc2)c(O)c2ccccc21 (3D coordinates assigned)
CCn1c(=O)c(C(=O)NC(=O)c2ccccc2)c(O)c2ccccc21 (optimized conformer: 65.20240206663279 kcal/mol)

>  <smiles>  (11) 
CCn1c(=O)c(C(=O)NC(=O)c2ccccc2)c(O)c2ccccc21

>  <score_type>  (11) 
oracle

>  <origin>  (11) 
adg

>  <m_score__min__energy>  (11) 
-8.0399999999999991

>  <m_primary>  (11) 
energy

$$$$
11:0
     RDKit          3D

 65 68  0  0  0  0  0  0  0  0999 V2000
   54.5760   29.3640   45.4640 H   0  0  0  0  0  0  0  0  0  0  0  0
   55.1420   29.3100   44.5870 N   0  0  0  0  0  0  0  0  0  0  0  0
   56.4950   29.7580   44.5520 C   0  0  0  0  0  0  0  0  0  0  0  0
   56.9090   30.4230   43.5640 O   0  0  0  0  0  0  0  0  0  0  0  0
   57.4160   29.3760   45.6330 C   0  0  0  0  0  0  0  0  0  0  0  0
   57.3940   28.0710   46.0110 N   0  0  0  0  0  0  0  0  0  0  0  0
   58.2990   27.5500   46.8790 C   0  0  0  0  0  0  0  0  0  0  0  0
   58.2610   26.1990   47.2300 O   0  0  0  0  0  0  0  0  0  0  0  0
   58.2100   25.1400   46.2820 C   0  0  0  0  0  0  0  0  0  0  0  0
   58.0246   25.5514   45.2788 H   0  0  0  0  0  0  0  0  0  0  0  0
   59.1671   24.5978   46.2781 H   0  0  0  0  0  0  0  0  0  0  0  0
   57.0790   24.1880   46.6620 C   0  0  0  0  0  0  0  0  0  0  0  0
   57.3993   23.5689   47.5129 H   0  0  0  0  0  0  0  0  0  0  0  0
   56.1938   24.7823   46.9327 H   0  0  0  0  0  0  0  0  0  0  0  0
   56.7290   23.3060   45.5240 N   0  0  0  0  0  0  0  0  0  0  0  0
   56.2630   24.0890   44.3570 C   0  0  0  0  0  0  0  0  0  0  0  0
   55.2430   24.4506   44.5539 H   0  0  0  0  0  0  0  0  0  0  0  0
   56.9559   24.9303   44.2080 H   0  0  0  0  0  0  0  0  0  0  0  0
   56.2530   23.2380   43.0700 C   0  0  0  0  0  0  0  0  0  0  0  0
   55.3485   23.4720   42.4893 H   0  0  0  0  0  0  0  0  0  0  0  0
   57.1538   23.4724   42.4838 H   0  0  0  0  0  0  0  0  0  0  0  0
   56.2600   21.8590   43.3830 O   0  0  0  0  0  0  0  0  0  0  0  0
   57.4940   21.5110   43.9940 C   0  0  0  0  0  0  0  0  0  0  0  0
   57.4150   20.4867   44.3872 H   0  0  0  0  0  0  0  0  0  0  0  0
   58.2784   21.5943   43.2273 H   0  0  0  0  0  0  0  0  0  0  0  0
   57.8750   22.4570   45.1540 C   0  0  0  0  0  0  0  0  0  0  0  0
   58.1781   21.8578   46.0253 H   0  0  0  0  0  0  0  0  0  0  0  0
   58.7056   23.1013   44.8300 H   0  0  0  0  0  0  0  0  0  0  0  0
   59.3000   28.3770   47.3970 C   0  0  0  0  0  0  0  0  0  0  0  0
   60.3160   27.8530   48.3750 C   0  0  0  0  0  0  0  0  0  0  0  0
   60.0953   26.7981   48.5954 H   0  0  0  0  0  0  0  0  0  0  0  0
   61.3178   27.9471   47.9305 H   0  0  0  0  0  0  0  0  0  0  0  0
   60.2770   28.6300   49.6310 N   0  0  0  0  0  0  0  0  0  0  0  0
   61.4360   29.5490   49.7590 C   0  0  0  0  0  0  0  0  0  0  0  0
   61.8510   29.4582   50.7737 H   0  0  0  0  0  0  0  0  0  0  0  0
   62.1792   29.2668   48.9987 H   0  0  0  0  0  0  0  0  0  0  0  0
   61.0380   31.0160   49.5140 C   0  0  0  0  0  0  0  0  0  0  0  0
   61.9325   31.6457   49.6293 H   0  0  0  0  0  0  0  0  0  0  0  0
   60.6199   31.0780   48.4985 H   0  0  0  0  0  0  0  0  0  0  0  0
   60.0390   31.4790   50.4140 O   0  0  0  0  0  0  0  0  0  0  0  0
   59.0890   30.4840   50.7760 C   0  0  0  0  0  0  0  0  0  0  0  0
   59.3788   30.0697   51.7529 H   0  0  0  0  0  0  0  0  0  0  0  0
   58.1065   30.9782   50.7967 H   0  0  0  0  0  0  0  0  0  0  0  0
   58.9780   29.3220   49.7730 C   0  0  0  0  0  0  0  0  0  0  0  0
   58.2243   28.6057   50.1319 H   0  0  0  0  0  0  0  0  0  0  0  0
   58.6832   29.7265   48.7935 H   0  0  0  0  0  0  0  0  0  0  0  0
   59.3240   29.6860   47.0390 N   0  0  0  0  0  0  0  0  0  0  0  0
   58.4080   30.2360   46.1970 C   0  0  0  0  0  0  0  0  0  0  0  0
   58.4920   31.5230   45.9840 N   0  0  0  0  0  0  0  0  0  0  0  0
   59.2610   32.5160   46.6760 C   0  0  0  0  0  0  0  0  0  0  0  0
   58.6020   33.5680   47.3240 C   0  0  0  0  0  0  0  0  0  0  0  0
   57.5028   33.6102   47.3217 H   0  0  0  0  0  0  0  0  0  0  0  0
   59.3360   34.5650   47.9740 C   0  0  0  0  0  0  0  0  0  0  0  0
   58.8128   35.3784   48.4981 H   0  0  0  0  0  0  0  0  0  0  0  0
   60.7330   34.5300   47.9590 C   0  0  0  0  0  0  0  0  0  0  0  0
   61.3080   35.3085   48.4817 H   0  0  0  0  0  0  0  0  0  0  0  0
   61.4020   33.5030   47.2780 C   0  0  0  0  0  0  0  0  0  0  0  0
   63.1600   33.4850   47.2220 S   0  0  0  0  0  0  0  0  0  0  0  0
   63.7180   34.1730   48.4370 O   0  0  0  0  0  0  0  0  0  0  0  0
   63.6340   34.2090   45.9940 O   0  0  0  0  0  0  0  0  0  0  0  0
   63.7110   31.8460   47.1770 N   0  0  0  0  0  0  0  0  0  0  0  0
   64.5030   31.8010   46.4980 H   0  0  0  0  0  0  0  0  0  0  0  0
   64.1050   31.6270   48.1190 H   0  0  0  0  0  0  0  0  0  0  0  0
   60.6630   32.5120   46.6170 C   0  0  0  0  0  0  0  0  0  0  0  0
   61.1847   31.7274   46.0493 H   0  0  0  0  0  0  0  0  0  0  0  0
  1  2  1  0
  2  3  1  0
  3  4  2  0
  3  5  1  0
  5  6  2  0
  6  7  1  0
  7  8  1  0
  8  9  1  0
  9 10  1  0
  9 11  1  0
  9 12  1  0
 12 13  1  0
 12 14  1  0
 12 15  1  0
 15 16  1  0
 16 17  1  0
 16 18  1  0
 16 19  1  0
 19 20  1  0
 19 21  1  0
 19 22  1  0
 22 23  1  0
 23 24  1  0
 23 25  1  0
 23 26  1  0
 26 27  1  0
 26 28  1  0
  7 29  2  0
 29 30  1  0
 30 31  1  0
 30 32  1  0
 30 33  1  0
 33 34  1  0
 34 35  1  0
 34 36  1  0
 34 37  1  0
 37 38  1  0
 37 39  1  0
 37 40  1  0
 40 41  1  0
 41 42  1  0
 41 43  1  0
 41 44  1  0
 44 45  1  0
 44 46  1  0
 29 47  1  0
 47 48  1  0
 48 49  2  0
 49 50  1  0
 50 51  2  0
 51 52  1  0
 51 53  1  0
 53 54  1  0
 53 55  2  0
 55 56  1  0
 55 57  1  0
 57 58  1  0
 58 59  2  0
 58 60  2  0
 58 61  1  0
 61 62  1  0
 61 63  1  0
 57 64  2  0
 64 65  1  0
 48  5  1  0
 64 50  1  0
 26 15  1  0
 44 33  1  0
M  CHG  2   2  -1  47  -1
M  END
>  <UniqueID>  (12) 
11

>  <SMILES>  (12) 
[NH-]C(=O)c1nc(OCCN2CCOCC2)c(CN2CCOCC2)[n-]/c1=N/c1cccc(S(N)(=O)=O)c1

>  <Energy>  (12) 
104.63227872713388

>  <Genealogy>  (12) 
[NH-]C(=O)c1nc(OCCN2CCOCC2)c(CN2CCOCC2)[n-]c1=Nc1cccc(S(N)(=O)=O)c1 (protonated)
[NH-]C(=O)c1nc(OCCN2CCOCC2)c(CN2CCOCC2)[n-]/c1=N/c1cccc(S(N)(=O)=O)c1 (cis-trans isomerization)
[NH-]C(=O)c1nc(OCCN2CCOCC2)c(CN2CCOCC2)[n-]/c1=N/c1cccc(S(N)(=O)=O)c1 (3D coordinates assigned)
[NH-]C(=O)c1nc(OCCN2CCOCC2)c(CN2CCOCC2)[n-]/c1=N/c1cccc(S(N)(=O)=O)c1 (nonaromatic ring conformer: 104.63227872713388 kcal/mol)

>  <smiles>  (12) 
NC(=O)c1nc(OCCN2CCOCC2)c(CN2CCOCC2)[nH]c1=Nc1cccc(S(N)(=O)=O)c1

>  <score_type>  (12) 
oracle

>  <origin>  (12) 
adg

>  <m_score__min__energy>  (12) 
-13.34

>  <m_primary>  (12) 
energy

$$$$
12:0
     RDKit          3D

 39 41  0  0  0  0  0  0  0  0999 V2000
   55.7760   24.4310   47.2330 O   0  0  0  0  0  0  0  0  0  0  0  0
   56.2240   25.4450   46.6380 C   0  0  0  0  0  0  0  0  0  0  0  0
   55.4450   26.4830   46.2640 N   0  0  0  0  0  0  0  0  0  0  0  0
   56.1790   27.4330   45.6260 C   0  0  0  0  0  0  0  0  0  0  0  0
   55.6060   28.6010   45.1340 O   0  0  0  0  0  0  0  0  0  0  0  0
   57.5350   27.1450   45.4890 C   0  0  0  0  0  0  0  0  0  0  0  0
   58.5770   28.0440   44.8970 C   0  0  0  0  0  0  0  0  0  0  0  0
   59.1400   28.9460   45.9600 C   0  0  0  0  0  0  0  0  0  0  0  0
   59.4750   30.2750   45.6590 C   0  0  0  0  0  0  0  0  0  0  0  0
   59.9310   31.1320   46.6640 C   0  0  0  0  0  0  0  0  0  0  0  0
   60.0360   30.6860   47.9860 C   0  0  0  0  0  0  0  0  0  0  0  0
   60.4480   31.6240   48.9900 N   0  0  0  0  0  0  0  0  0  0  0  0
   59.4830   32.8910   49.6830 S   0  0  0  0  0  0  0  0  0  0  0  0
   58.0500   32.4560   49.8130 O   0  0  0  0  0  0  0  0  0  0  0  0
   60.0120   33.1860   51.0570 O   0  0  0  0  0  0  0  0  0  0  0  0
   59.6110   34.3870   48.7090 C   0  0  0  0  0  0  0  0  0  0  0  0
   59.0350   34.2000   47.3320 C   0  0  0  0  0  0  0  0  0  0  0  0
   59.7070   34.7140   46.2100 C   0  0  0  0  0  0  0  0  0  0  0  0
   59.1580   34.5670   44.9320 C   0  0  0  0  0  0  0  0  0  0  0  0
   57.9370   33.9100   44.7660 C   0  0  0  0  0  0  0  0  0  0  0  0
   57.2580   33.3990   45.8760 C   0  0  0  0  0  0  0  0  0  0  0  0
   57.8050   33.5410   47.1570 C   0  0  0  0  0  0  0  0  0  0  0  0
   59.7170   29.3490   48.2860 C   0  0  0  0  0  0  0  0  0  0  0  0
   59.2680   28.4880   47.2800 C   0  0  0  0  0  0  0  0  0  0  0  0
   57.8370   25.6510   46.2070 S   0  0  0  0  0  0  0  0  0  0  0  0
   54.7690   28.5720   44.5650 H   0  0  0  0  0  0  0  0  0  0  0  0
   59.3865   27.4329   44.4712 H   0  0  0  0  0  0  0  0  0  0  0  0
   58.1189   28.6577   44.1073 H   0  0  0  0  0  0  0  0  0  0  0  0
   59.3782   30.6438   44.6272 H   0  0  0  0  0  0  0  0  0  0  0  0
   60.2098   32.1662   46.4137 H   0  0  0  0  0  0  0  0  0  0  0  0
   59.0634   35.1933   49.2189 H   0  0  0  0  0  0  0  0  0  0  0  0
   60.6762   34.6411   48.6056 H   0  0  0  0  0  0  0  0  0  0  0  0
   60.6681   35.2337   46.3372 H   0  0  0  0  0  0  0  0  0  0  0  0
   59.6887   34.9694   44.0566 H   0  0  0  0  0  0  0  0  0  0  0  0
   57.5085   33.7943   43.7595 H   0  0  0  0  0  0  0  0  0  0  0  0
   56.2943   32.8855   45.7431 H   0  0  0  0  0  0  0  0  0  0  0  0
   57.2710   33.1359   48.0292 H   0  0  0  0  0  0  0  0  0  0  0  0
   59.8213   28.9793   49.3168 H   0  0  0  0  0  0  0  0  0  0  0  0
   59.0138   27.4461   47.5247 H   0  0  0  0  0  0  0  0  0  0  0  0
  1  2  2  0
  2  3  1  0
  3  4  1  0
  4  5  1  0
  4  6  2  0
  6  7  1  0
  7  8  1  0
  8  9  2  0
  9 10  1  0
 10 11  2  0
 11 12  1  0
 12 13  1  0
 13 14  2  0
 13 15  2  0
 13 16  1  0
 16 17  1  0
 17 18  2  0
 18 19  1  0
 19 20  2  0
 20 21  1  0
 21 22  2  0
 11 23  1  0
 23 24  2  0
  6 25  1  0
 25  2  1  0
 24  8  1  0
 22 17  1  0
  5 26  1  0
  7 27  1  0
  7 28  1  0
  9 29  1  0
 10 30  1  0
 16 31  1  0
 16 32  1  0
 18 33  1  0
 19 34  1  0
 20 35  1  0
 21 36  1  0
 22 37  1  0
 23 38  1  0
 24 39  1  0
M  CHG  2   3  -1  12  -1
M  END
>  <UniqueID>  (13) 
12

>  <SMILES>  (13) 
O=c1[n-]c(O)c(Cc2ccc([N-]S(=O)(=O)Cc3ccccc3)cc2)s1

>  <Energy>  (13) 
65.03289449624488

>  <Genealogy>  (13) 
O=c1[n-]c(O)c(Cc2ccc([N-]S(=O)(=O)Cc3ccccc3)cc2)s1 (protonated)
O=c1[n-]c(O)c(Cc2ccc([N-]S(=O)(=O)Cc3ccccc3)cc2)s1 (3D coordinates assigned)
O=c1[n-]c(O)c(Cc2ccc([N-]S(=O)(=O)Cc3ccccc3)cc2)s1 (optimized conformer: 65.03289449624488 kcal/mol)

>  <smiles>  (13) 
O=c1[nH]c(O)c(Cc2ccc(NS(=O)(=O)Cc3ccccc3)cc2)s1

>  <score_type>  (13) 
oracle

>  <origin>  (13) 
adg

>  <m_score__min__energy>  (13) 
-12.74

>  <m_primary>  (13) 
energy

$$$$
13:0
     RDKit          3D

 58 61  0  0  0  0  0  0  0  0999 V2000
   57.3440   33.8560   44.8340 N   0  0  0  0  0  0  0  0  0  0  0  0
   58.1170   32.9850   45.3070 C   0  0  0  0  0  0  0  0  0  0  0  0
   59.0870   33.4410   46.1610 N   0  0  0  0  0  0  0  0  0  0  0  0
   59.9840   32.6470   46.7460 C   0  0  0  0  0  0  0  0  0  0  0  0
   61.0300   33.0940   47.6590 C   0  0  0  0  0  0  0  0  0  0  0  0
   62.2360   32.3770   47.7090 C   0  0  0  0  0  0  0  0  0  0  0  0
   63.2700   32.7140   48.5260 C   0  0  0  0  0  0  0  0  0  0  0  0
   63.1810   33.7990   49.3640 C   0  0  0  0  0  0  0  0  0  0  0  0
   62.0110   34.5210   49.3370 C   0  0  0  0  0  0  0  0  0  0  0  0
   60.9520   34.1700   48.4950 C   0  0  0  0  0  0  0  0  0  0  0  0
   59.8380   34.9570   48.5510 O   0  0  0  0  0  0  0  0  0  0  0  0
   59.9240   31.3510   46.4800 N   0  0  0  0  0  0  0  0  0  0  0  0
   59.0070   30.7530   45.6450 C   0  0  0  0  0  0  0  0  0  0  0  0
   59.0960   29.4600   45.4980 O   0  0  0  0  0  0  0  0  0  0  0  0
   59.1030   28.2070   45.7980 C   0  0  0  0  0  0  0  0  0  0  0  0
   60.3030   27.5010   45.9810 C   0  0  0  0  0  0  0  0  0  0  0  0
   60.3210   26.1640   46.3020 C   0  0  0  0  0  0  0  0  0  0  0  0
   59.1080   25.5250   46.4430 C   0  0  0  0  0  0  0  0  0  0  0  0
   57.8920   26.1550   46.2790 C   0  0  0  0  0  0  0  0  0  0  0  0
   56.6100   25.4780   46.4290 C   0  0  0  0  0  0  0  0  0  0  0  0
   56.3270   24.8700   47.4980 O   0  0  0  0  0  0  0  0  0  0  0  0
   55.6150   25.4550   45.4120 N   0  0  0  0  0  0  0  0  0  0  0  0
   54.3750   24.7640   45.6370 C   0  0  0  0  0  0  0  0  0  0  0  0
   54.0320   23.7160   44.6390 C   0  0  0  0  0  0  0  0  0  0  0  0
   55.3030   22.9480   44.3800 C   0  0  0  0  0  0  0  0  0  0  0  0
   55.8740   22.9540   43.1090 C   0  0  0  0  0  0  0  0  0  0  0  0
   57.0290   22.2530   42.8830 C   0  0  0  0  0  0  0  0  0  0  0  0
   57.6680   21.5300   43.8570 C   0  0  0  0  0  0  0  0  0  0  0  0
   57.0990   21.5220   45.1300 C   0  0  0  0  0  0  0  0  0  0  0  0
   55.9250   22.2320   45.3700 C   0  0  0  0  0  0  0  0  0  0  0  0
   57.9090   27.4830   45.9600 C   0  0  0  0  0  0  0  0  0  0  0  0
   58.0840   31.6320   45.0530 C   0  0  0  0  0  0  0  0  0  0  0  0
   57.0820   31.0780   44.1580 C   0  0  0  0  0  0  0  0  0  0  0  0
   57.2600   30.9820   42.7390 N   0  0  0  0  0  0  0  0  0  0  0  0
   55.9650   30.6300   44.5580 O   0  0  0  0  0  0  0  0  0  0  0  0
   56.3890   34.0200   44.6690 H   0  0  0  0  0  0  0  0  0  0  0  0
   59.0810   34.4570   46.3260 H   0  0  0  0  0  0  0  0  0  0  0  0
   62.3503   31.4996   47.0554 H   0  0  0  0  0  0  0  0  0  0  0  0
   64.1893   32.1100   48.5156 H   0  0  0  0  0  0  0  0  0  0  0  0
   64.0113   34.0786   50.0291 H   0  0  0  0  0  0  0  0  0  0  0  0
   61.9059   35.3966   49.9944 H   0  0  0  0  0  0  0  0  0  0  0  0
   59.6260   35.6330   49.2660 H   0  0  0  0  0  0  0  0  0  0  0  0
   61.2581   28.0339   45.8640 H   0  0  0  0  0  0  0  0  0  0  0  0
   61.2692   25.6240   46.4412 H   0  0  0  0  0  0  0  0  0  0  0  0
   59.1098   24.4555   46.7001 H   0  0  0  0  0  0  0  0  0  0  0  0
   55.8020   25.9500   44.4930 H   0  0  0  0  0  0  0  0  0  0  0  0
   54.4294   24.2848   46.6256 H   0  0  0  0  0  0  0  0  0  0  0  0
   53.5867   25.5268   45.5547 H   0  0  0  0  0  0  0  0  0  0  0  0
   53.2572   23.0463   45.0406 H   0  0  0  0  0  0  0  0  0  0  0  0
   53.6363   24.1590   43.7132 H   0  0  0  0  0  0  0  0  0  0  0  0
   55.4002   23.5182   42.2921 H   0  0  0  0  0  0  0  0  0  0  0  0
   57.4641   22.2710   41.8729 H   0  0  0  0  0  0  0  0  0  0  0  0
   58.5945   20.9772   43.6424 H   0  0  0  0  0  0  0  0  0  0  0  0
   57.5765   20.9559   45.9433 H   0  0  0  0  0  0  0  0  0  0  0  0
   55.4861   22.2179   46.3786 H   0  0  0  0  0  0  0  0  0  0  0  0
   56.9510   28.0064   45.8246 H   0  0  0  0  0  0  0  0  0  0  0  0
   56.9480   31.7860   42.1430 H   0  0  0  0  0  0  0  0  0  0  0  0
   57.6900   30.1120   42.3870 H   0  0  0  0  0  0  0  0  0  0  0  0
  1  2  2  3
  2  3  1  0
  3  4  1  0
  4  5  1  0
  5  6  2  0
  6  7  1  0
  7  8  2  0
  8  9  1  0
  9 10  2  0
 10 11  1  0
  4 12  2  0
 12 13  1  0
 13 14  1  0
 14 15  1  0
 15 16  2  0
 16 17  1  0
 17 18  2  0
 18 19  1  0
 19 20  1  0
 20 21  2  0
 20 22  1  0
 22 23  1  0
 23 24  1  0
 24 25  1  0
 25 26  2  0
 26 27  1  0
 27 28  2  0
 28 29  1  0
 29 30  2  0
 19 31  2  0
 13 32  2  0
 32 33  1  0
 33 34  1  0
 33 35  2  0
 32  2  1  0
 10  5  1  0
 31 15  1  0
 30 25  1  0
  1 36  1  0
  3 37  1  0
  6 38  1  0
  7 39  1  0
  8 40  1  0
  9 41  1  0
 11 42  1  0
 16 43  1  0
 17 44  1  0
 18 45  1  0
 22 46  1  0
 23 47  1  0
 23 48  1  0
 24 49  1  0
 24 50  1  0
 26 51  1  0
 27 52  1  0
 28 53  1  0
 29 54  1  0
 30 55  1  0
 31 56  1  0
 34 57  1  0
 34 58  1  0
M  END
>  <smiles>  (14) 
N=c1[nH]c(-c2ccccc2O)nc(Oc2cccc(C(=O)NCCc3ccccc3)c2)c1C(N)=O

>  <score_type>  (14) 
oracle

>  <origin>  (14) 
adg

>  <m_score__min__energy>  (14) 
-8.6400000000000006

>  <m_primary>  (14) 
energy

$$$$
14:0
     RDKit          3D

 50 53  0  0  0  0  0  0  0  0999 V2000
   54.8080   25.1610   45.5640 C   0  0  0  0  0  0  0  0  0  0  0  0
   55.3150   26.4160   46.0050 O   0  0  0  0  0  0  0  0  0  0  0  0
   56.6640   26.8010   45.9380 C   0  0  0  0  0  0  0  0  0  0  0  0
   57.6980   25.9640   46.4070 C   0  0  0  0  0  0  0  0  0  0  0  0
   59.0300   26.3750   46.3300 C   0  0  0  0  0  0  0  0  0  0  0  0
   59.3500   27.6170   45.7840 C   0  0  0  0  0  0  0  0  0  0  0  0
   58.3370   28.4580   45.3160 C   0  0  0  0  0  0  0  0  0  0  0  0
   56.9910   28.0550   45.3830 C   0  0  0  0  0  0  0  0  0  0  0  0
   55.9100   28.9880   44.8990 C   0  0  0  0  0  0  0  0  0  0  0  0
   56.5020   30.1340   44.2160 N   0  0  0  0  0  0  0  0  0  0  0  0
   57.0230   31.1780   44.8420 N   0  0  0  0  0  0  0  0  0  0  0  0
   57.5200   32.0070   43.8980 C   0  0  0  0  0  0  0  0  0  0  0  0
   58.1500   33.3330   44.1990 C   0  0  0  0  0  0  0  0  0  0  0  0
   57.9660   33.7380   45.6410 C   0  0  0  0  0  0  0  0  0  0  0  0
   56.8140   34.0480   46.0560 O   0  0  0  0  0  0  0  0  0  0  0  0
   59.0760   33.7200   46.5660 N   0  0  0  0  0  0  0  0  0  0  0  0
   58.8460   33.2580   47.9440 C   0  0  0  0  0  0  0  0  0  0  0  0
   59.7970   33.9520   48.9170 C   0  0  0  0  0  0  0  0  0  0  0  0
   61.2140   33.7510   48.4740 C   0  0  0  0  0  0  0  0  0  0  0  0
   62.2420   33.6080   49.4200 C   0  0  0  0  0  0  0  0  0  0  0  0
   63.5650   33.4430   49.0010 C   0  0  0  0  0  0  0  0  0  0  0  0
   63.8710   33.4380   47.6380 C   0  0  0  0  0  0  0  0  0  0  0  0
   62.8550   33.6010   46.6910 C   0  0  0  0  0  0  0  0  0  0  0  0
   61.5200   33.7490   47.1000 C   0  0  0  0  0  0  0  0  0  0  0  0
   60.4430   33.9700   46.0620 C   0  0  0  0  0  0  0  0  0  0  0  0
   57.3040   31.4810   42.6310 C   0  0  0  0  0  0  0  0  0  0  0  0
   56.6630   30.2930   42.8890 C   0  0  0  0  0  0  0  0  0  0  0  0
   56.2780   29.4660   42.0190 O   0  0  0  0  0  0  0  0  0  0  0  0
   54.5571   24.5399   46.4365 H   0  0  0  0  0  0  0  0  0  0  0  0
   53.9048   25.3231   44.9574 H   0  0  0  0  0  0  0  0  0  0  0  0
   55.5703   24.6503   44.9574 H   0  0  0  0  0  0  0  0  0  0  0  0
   57.4533   24.9812   46.8362 H   0  0  0  0  0  0  0  0  0  0  0  0
   59.8293   25.7168   46.7013 H   0  0  0  0  0  0  0  0  0  0  0  0
   60.4011   27.9354   45.7215 H   0  0  0  0  0  0  0  0  0  0  0  0
   58.5935   29.4405   44.8929 H   0  0  0  0  0  0  0  0  0  0  0  0
   55.2511   28.4500   44.2016 H   0  0  0  0  0  0  0  0  0  0  0  0
   55.3306   29.3451   45.7632 H   0  0  0  0  0  0  0  0  0  0  0  0
   59.2268   33.2706   43.9833 H   0  0  0  0  0  0  0  0  0  0  0  0
   57.6588   34.0904   43.5705 H   0  0  0  0  0  0  0  0  0  0  0  0
   57.8085   33.4841   48.2313 H   0  0  0  0  0  0  0  0  0  0  0  0
   59.0287   32.1741   47.9866 H   0  0  0  0  0  0  0  0  0  0  0  0
   59.5717   35.0284   48.9423 H   0  0  0  0  0  0  0  0  0  0  0  0
   59.6664   33.5217   49.9209 H   0  0  0  0  0  0  0  0  0  0  0  0
   62.0052   33.6259   50.4941 H   0  0  0  0  0  0  0  0  0  0  0  0
   64.3656   33.3170   49.7447 H   0  0  0  0  0  0  0  0  0  0  0  0
   64.9123   33.3057   47.3092 H   0  0  0  0  0  0  0  0  0  0  0  0
   63.1032   33.6133   45.6194 H   0  0  0  0  0  0  0  0  0  0  0  0
   60.5012   35.0128   45.7169 H   0  0  0  0  0  0  0  0  0  0  0  0
   60.6245   33.2503   45.2502 H   0  0  0  0  0  0  0  0  0  0  0  0
   57.5793   31.9111   41.6567 H   0  0  0  0  0  0  0  0  0  0  0  0
  1  2  1  0
  2  3  1  0
  3  4  2  0
  4  5  1  0
  5  6  2  0
  6  7  1  0
  7  8  2  0
  8  9  1  0
  9 10  1  0
 10 11  1  0
 11 12  1  0
 12 13  1  0
 13 14  1  0
 14 15  2  0
 14 16  1  0
 16 17  1  0
 17 18  1  0
 18 19  1  0
 19 20  2  0
 20 21  1  0
 21 22  2  0
 22 23  1  0
 23 24  2  0
 24 25  1  0
 12 26  2  0
 26 27  1  0
 27 28  2  0
  8  3  1  0
 27 10  1  0
 25 16  1  0
 24 19  1  0
  1 29  1  0
  1 30  1  0
  1 31  1  0
  4 32  1  0
  5 33  1  0
  6 34  1  0
  7 35  1  0
  9 36  1  0
  9 37  1  0
 13 38  1  0
 13 39  1  0
 17 40  1  0
 17 41  1  0
 18 42  1  0
 18 43  1  0
 20 44  1  0
 21 45  1  0
 22 46  1  0
 23 47  1  0
 25 48  1  0
 25 49  1  0
 26 50  1  0
M  CHG  1  11  -1
M  END
>  <UniqueID>  (15) 
13

>  <SMILES>  (15) 
COc1ccccc1Cn1[n-]c(CC(=O)N2CCc3ccccc3C2)cc1=O

>  <Energy>  (15) 
85.59887122163747

>  <Genealogy>  (15) 
COc1ccccc1Cn1[n-]c(CC(=O)N2CCc3ccccc3C2)cc1=O (protonated)
COc1ccccc1Cn1[n-]c(CC(=O)N2CCc3ccccc3C2)cc1=O (3D coordinates assigned)
COc1ccccc1Cn1[n-]c(CC(=O)N2CCc3ccccc3C2)cc1=O (nonaromatic ring conformer: 85.59887122163747 kcal/mol)

>  <smiles>  (15) 
COc1ccccc1Cn1[nH]c(CC(=O)N2CCc3ccccc3C2)cc1=O

>  <score_type>  (15) 
oracle

>  <origin>  (15) 
adg

>  <m_score__min__energy>  (15) 
-10.91

>  <m_primary>  (15) 
energy

$$$$
15:0
     RDKit          3D

 50 53  0  0  0  0  0  0  0  0999 V2000
   60.4320   27.5810   45.9920 H   0  0  0  0  0  0  0  0  0  0  0  0
   59.5410   27.2030   45.6900 O   0  0  0  0  0  0  0  0  0  0  0  0
   58.5090   28.0260   45.2480 C   0  0  0  0  0  0  0  0  0  0  0  0
   58.7020   29.2150   44.5740 C   0  0  0  0  0  0  0  0  0  0  0  0
   59.6629   29.6528   44.2658 H   0  0  0  0  0  0  0  0  0  0  0  0
   57.4410   29.7440   44.3650 C   0  0  0  0  0  0  0  0  0  0  0  0
   57.1400   31.0760   43.7350 C   0  0  0  0  0  0  0  0  0  0  0  0
   56.0873   31.0869   43.4160 H   0  0  0  0  0  0  0  0  0  0  0  0
   57.8197   31.2056   42.8799 H   0  0  0  0  0  0  0  0  0  0  0  0
   57.3710   32.2250   44.6880 C   0  0  0  0  0  0  0  0  0  0  0  0
   56.3730   32.7500   45.2480 O   0  0  0  0  0  0  0  0  0  0  0  0
   58.6800   32.6970   45.0500 N   0  0  0  0  0  0  0  0  0  0  0  0
   59.0930   33.0730   46.2240 C   0  0  0  0  0  0  0  0  0  0  0  0
   58.6440   32.5680   47.3910 N   0  0  0  0  0  0  0  0  0  0  0  0
   59.2380   33.1550   48.4670 C   0  0  0  0  0  0  0  0  0  0  0  0
   58.8960   32.7450   49.8550 C   0  0  0  0  0  0  0  0  0  0  0  0
   59.3520   33.5140   50.9390 C   0  0  0  0  0  0  0  0  0  0  0  0
   59.9569   34.4135   50.7520 H   0  0  0  0  0  0  0  0  0  0  0  0
   59.0450   33.1480   52.2520 C   0  0  0  0  0  0  0  0  0  0  0  0
   59.4131   33.7570   53.0909 H   0  0  0  0  0  0  0  0  0  0  0  0
   58.2740   32.0140   52.5030 C   0  0  0  0  0  0  0  0  0  0  0  0
   58.0308   31.7341   53.5386 H   0  0  0  0  0  0  0  0  0  0  0  0
   57.8070   31.2280   51.4370 C   0  0  0  0  0  0  0  0  0  0  0  0
   57.0300   30.0810   51.6390 O   0  0  0  0  0  0  0  0  0  0  0  0
   55.8070   30.0530   52.3700 C   0  0  0  0  0  0  0  0  0  0  0  0
   56.0242   30.0580   53.4483 H   0  0  0  0  0  0  0  0  0  0  0  0
   55.2059   30.9376   52.1130 H   0  0  0  0  0  0  0  0  0  0  0  0
   55.2470   29.1418   52.1130 H   0  0  0  0  0  0  0  0  0  0  0  0
   58.1260   31.5940   50.1220 C   0  0  0  0  0  0  0  0  0  0  0  0
   57.7704   30.9741   49.2858 H   0  0  0  0  0  0  0  0  0  0  0  0
   60.1790   34.1360   48.1360 C   0  0  0  0  0  0  0  0  0  0  0  0
   60.7651   34.7333   48.8500 H   0  0  0  0  0  0  0  0  0  0  0  0
   60.2610   34.2460   46.4580 S   0  0  0  0  0  0  0  0  0  0  0  0
   56.5430   28.8290   44.8870 C   0  0  0  0  0  0  0  0  0  0  0  0
   55.1600   28.9680   44.8840 O   0  0  0  0  0  0  0  0  0  0  0  0
   57.1930   27.7840   45.4370 N   0  0  0  0  0  0  0  0  0  0  0  0
   56.5940   26.7240   46.2490 C   0  0  0  0  0  0  0  0  0  0  0  0
   57.2699   26.4761   47.0807 H   0  0  0  0  0  0  0  0  0  0  0  0
   55.6288   27.0735   46.6443 H   0  0  0  0  0  0  0  0  0  0  0  0
   56.3680   25.4960   45.4070 C   0  0  0  0  0  0  0  0  0  0  0  0
   55.2030   24.7240   45.5650 C   0  0  0  0  0  0  0  0  0  0  0  0
   54.4618   24.9989   46.3299 H   0  0  0  0  0  0  0  0  0  0  0  0
   54.9850   23.6070   44.7510 C   0  0  0  0  0  0  0  0  0  0  0  0
   54.0718   23.0067   44.8762 H   0  0  0  0  0  0  0  0  0  0  0  0
   55.9250   23.2520   43.7790 C   0  0  0  0  0  0  0  0  0  0  0  0
   55.7492   22.3752   43.1384 H   0  0  0  0  0  0  0  0  0  0  0  0
   57.0870   24.0100   43.6210 C   0  0  0  0  0  0  0  0  0  0  0  0
   57.8277   23.7277   42.8583 H   0  0  0  0  0  0  0  0  0  0  0  0
   57.3100   25.1270   44.4310 C   0  0  0  0  0  0  0  0  0  0  0  0
   58.2274   25.7205   44.3041 H   0  0  0  0  0  0  0  0  0  0  0  0
  1  2  1  0
  2  3  1  0
  3  4  2  0
  4  5  1  0
  4  6  1  0
  6  7  1  0
  7  8  1  0
  7  9  1  0
  7 10  1  0
 10 11  2  0
 10 12  1  0
 12 13  2  0
 13 14  1  0
 14 15  1  0
 15 16  1  0
 16 17  2  0
 17 18  1  0
 17 19  1  0
 19 20  1  0
 19 21  2  0
 21 22  1  0
 21 23  1  0
 23 24  1  0
 24 25  1  0
 25 26  1  0
 25 27  1  0
 25 28  1  0
 23 29  2  0
 29 30  1  0
 15 31  2  0
 31 32  1  0
 31 33  1  0
  6 34  2  0
 34 35  1  0
 34 36  1  0
 36 37  1  0
 37 38  1  0
 37 39  1  0
 37 40  1  0
 40 41  2  0
 41 42  1  0
 41 43  1  0
 43 44  1  0
 43 45  2  0
 45 46  1  0
 45 47  1  0
 47 48  1  0
 47 49  2  0
 49 50  1  0
 36  3  1  0
 49 40  1  0
 33 13  1  0
 29 16  1  0
M  CHG  2  14  -1  35  -1
M  END
>  <UniqueID>  (16) 
14

>  <SMILES>  (16) 
COc1cccc(-c2cs/c(=N/C(=O)Cc3cc(O)n(Cc4ccccc4)c3[O-])[n-]2)c1

>  <Energy>  (16) 
112.62344942251484

>  <Genealogy>  (16) 
COc1cccc(-c2csc(=NC(=O)Cc3cc(O)n(Cc4ccccc4)c3[O-])[n-]2)c1 (protonated)
COc1cccc(-c2cs/c(=N/C(=O)Cc3cc(O)n(Cc4ccccc4)c3[O-])[n-]2)c1 (cis-trans isomerization)
COc1cccc(-c2cs/c(=N/C(=O)Cc3cc(O)n(Cc4ccccc4)c3[O-])[n-]2)c1 (3D coordinates assigned)
COc1cccc(-c2cs/c(=N/C(=O)Cc3cc(O)n(Cc4ccccc4)c3[O-])[n-]2)c1 (optimized conformer: 112.62344942251484 kcal/mol)

>  <smiles>  (16) 
COc1cccc(-c2csc(=NC(=O)Cc3cc(O)n(Cc4ccccc4)c3O)[nH]2)c1

>  <score_type>  (16) 
oracle

>  <origin>  (16) 
adg

>  <m_score__min__energy>  (16) 
-12.970000000000001

>  <m_primary>  (16) 
energy

$$$$
16:0
     RDKit          3D

 52 55  0  0  0  0  0  0  0  0999 V2000
   57.4350   33.6490   45.0170 O   0  0  0  0  0  0  0  0  0  0  0  0
   58.2270   33.4380   45.9750 C   0  0  0  0  0  0  0  0  0  0  0  0
   58.7740   34.6010   46.7450 C   0  0  0  0  0  0  0  0  0  0  0  0
   60.1700   34.3010   47.2190 C   0  0  0  0  0  0  0  0  0  0  0  0
   61.1410   33.8540   46.3100 C   0  0  0  0  0  0  0  0  0  0  0  0
   62.4260   33.5370   46.7540 C   0  0  0  0  0  0  0  0  0  0  0  0
   62.7520   33.6550   48.1060 C   0  0  0  0  0  0  0  0  0  0  0  0
   61.7930   34.0950   49.0360 C   0  0  0  0  0  0  0  0  0  0  0  0
   62.1300   34.2170   50.4300 N   0  0  0  0  0  0  0  0  0  0  0  0
   63.2110   34.7330   50.7830 O   0  0  0  0  0  0  0  0  0  0  0  0
   61.2670   33.7600   51.4010 O   0  0  0  0  0  0  0  0  0  0  0  0
   60.4990   34.4140   48.5800 C   0  0  0  0  0  0  0  0  0  0  0  0
   58.6710   32.1050   46.2780 N   0  0  0  0  0  0  0  0  0  0  0  0
   58.1270   30.9230   45.6690 C   0  0  0  0  0  0  0  0  0  0  0  0
   57.5060   31.0180   44.4150 C   0  0  0  0  0  0  0  0  0  0  0  0
   56.9780   29.8820   43.7990 C   0  0  0  0  0  0  0  0  0  0  0  0
   57.0840   28.6360   44.4190 C   0  0  0  0  0  0  0  0  0  0  0  0
   57.7360   28.5140   45.6560 C   0  0  0  0  0  0  0  0  0  0  0  0
   57.8780   27.1650   46.3150 C   0  0  0  0  0  0  0  0  0  0  0  0
   56.7460   26.2420   45.9270 C   0  0  0  0  0  0  0  0  0  0  0  0
   55.4770   26.7120   46.0570 N   0  0  0  0  0  0  0  0  0  0  0  0
   54.4130   25.9640   45.7730 N   0  0  0  0  0  0  0  0  0  0  0  0
   54.5360   24.6850   45.3470 C   0  0  0  0  0  0  0  0  0  0  0  0
   53.4970   24.0210   45.0800 O   0  0  0  0  0  0  0  0  0  0  0  0
   55.8110   24.1150   45.2050 C   0  0  0  0  0  0  0  0  0  0  0  0
   56.9480   24.9150   45.4730 C   0  0  0  0  0  0  0  0  0  0  0  0
   58.3450   24.3250   45.3900 C   0  0  0  0  0  0  0  0  0  0  0  0
   58.4130   23.0500   44.5450 C   0  0  0  0  0  0  0  0  0  0  0  0
   57.3100   22.0840   44.9600 C   0  0  0  0  0  0  0  0  0  0  0  0
   55.9400   22.6990   44.6770 C   0  0  0  0  0  0  0  0  0  0  0  0
   58.2520   29.6620   46.2780 C   0  0  0  0  0  0  0  0  0  0  0  0
   58.7937   35.4891   46.0963 H   0  0  0  0  0  0  0  0  0  0  0  0
   58.1312   34.7873   47.6180 H   0  0  0  0  0  0  0  0  0  0  0  0
   60.8888   33.7530   45.2441 H   0  0  0  0  0  0  0  0  0  0  0  0
   63.1845   33.1929   46.0355 H   0  0  0  0  0  0  0  0  0  0  0  0
   63.7668   33.4019   48.4468 H   0  0  0  0  0  0  0  0  0  0  0  0
   59.7380   34.7552   49.2973 H   0  0  0  0  0  0  0  0  0  0  0  0
   59.5120   31.9970   46.8890 H   0  0  0  0  0  0  0  0  0  0  0  0
   57.4345   31.9944   43.9135 H   0  0  0  0  0  0  0  0  0  0  0  0
   56.4775   29.9690   42.8233 H   0  0  0  0  0  0  0  0  0  0  0  0
   56.6547   27.7458   43.9361 H   0  0  0  0  0  0  0  0  0  0  0  0
   58.8314   26.7130   46.0041 H   0  0  0  0  0  0  0  0  0  0  0  0
   57.8517   27.3070   47.4055 H   0  0  0  0  0  0  0  0  0  0  0  0
   59.0153   25.0752   44.9451 H   0  0  0  0  0  0  0  0  0  0  0  0
   58.6468   24.0553   46.4128 H   0  0  0  0  0  0  0  0  0  0  0  0
   58.2875   23.3104   43.4837 H   0  0  0  0  0  0  0  0  0  0  0  0
   59.3894   22.5680   44.7006 H   0  0  0  0  0  0  0  0  0  0  0  0
   57.4131   21.1480   44.3915 H   0  0  0  0  0  0  0  0  0  0  0  0
   57.3972   21.8790   46.0372 H   0  0  0  0  0  0  0  0  0  0  0  0
   55.7793   22.7136   43.5889 H   0  0  0  0  0  0  0  0  0  0  0  0
   55.1879   22.0836   45.1923 H   0  0  0  0  0  0  0  0  0  0  0  0
   58.7586   29.5741   47.2504 H   0  0  0  0  0  0  0  0  0  0  0  0
  1  2  2  0
  2  3  1  0
  3  4  1  0
  4  5  2  0
  5  6  1  0
  6  7  2  0
  7  8  1  0
  8  9  1  0
  9 10  2  0
  9 11  1  0
  8 12  2  0
  2 13  1  0
 13 14  1  0
 14 15  2  0
 15 16  1  0
 16 17  2  0
 17 18  1  0
 18 19  1  0
 19 20  1  0
 20 21  2  0
 21 22  1  0
 22 23  1  0
 23 24  2  0
 23 25  1  0
 25 26  2  0
 26 27  1  0
 27 28  1  0
 28 29  1  0
 29 30  1  0
 18 31  2  0
 12  4  1  0
 31 14  1  0
 26 20  1  0
 30 25  1  0
  3 32  1  0
  3 33  1  0
  5 34  1  0
  6 35  1  0
  7 36  1  0
 12 37  1  0
 13 38  1  0
 15 39  1  0
 16 40  1  0
 17 41  1  0
 19 42  1  0
 19 43  1  0
 27 44  1  0
 27 45  1  0
 28 46  1  0
 28 47  1  0
 29 48  1  0
 29 49  1  0
 30 50  1  0
 30 51  1  0
 31 52  1  0
M  CHG  3   9   1  11  -1  22  -1
M  END
>  <UniqueID>  (17) 
15

>  <SMILES>  (17) 
O=C(Cc1cccc([N+](=O)[O-])c1)Nc1cccc(Cc2n[n-]c(=O)c3c2CCCC3)c1

>  <Energy>  (17) 
59.840932313030635

>  <Genealogy>  (17) 
O=C(Cc1cccc([N+](=O)[O-])c1)Nc1cccc(Cc2n[n-]c(=O)c3c2CCCC3)c1 (protonated)
O=C(Cc1cccc([N+](=O)[O-])c1)Nc1cccc(Cc2n[n-]c(=O)c3c2CCCC3)c1 (3D coordinates assigned)
O=C(Cc1cccc([N+](=O)[O-])c1)Nc1cccc(Cc2n[n-]c(=O)c3c2CCCC3)c1 (nonaromatic ring conformer: 59.840932313030635 kcal/mol)

>  <smiles>  (17) 
O=C(Cc1cccc([N+](=O)[O-])c1)Nc1cccc(Cc2n[nH]c(=O)c3c2CCCC3)c1

>  <score_type>  (17) 
oracle

>  <origin>  (17) 
adg

>  <m_score__min__energy>  (17) 
-13.130000000000001

>  <m_primary>  (17) 
energy

$$$$
17:0
     RDKit          3D

 53 56  0  0  0  0  0  0  0  0999 V2000
   52.7950   24.0950   44.7310 C   0  0  0  0  0  0  0  0  0  0  0  0
   53.7160   23.6690   45.8660 C   0  0  0  0  0  0  0  0  0  0  0  0
   55.1050   24.0410   45.5680 N   0  0  0  0  0  0  0  0  0  0  0  0
   56.0500   23.0070   45.1210 C   0  0  0  0  0  0  0  0  0  0  0  0
   56.4160   23.2160   43.6550 C   0  0  0  0  0  0  0  0  0  0  0  0
   55.5420   25.4070   45.7270 C   0  0  0  0  0  0  0  0  0  0  0  0
   54.6920   26.3140   45.9430 O   0  0  0  0  0  0  0  0  0  0  0  0
   56.9420   25.7260   45.6560 N   0  0  0  0  0  0  0  0  0  0  0  0
   57.5270   26.7540   46.1970 C   0  0  0  0  0  0  0  0  0  0  0  0
   57.5840   27.9540   45.5640 N   0  0  0  0  0  0  0  0  0  0  0  0
   58.2240   28.7200   46.4590 C   0  0  0  0  0  0  0  0  0  0  0  0
   58.5480   30.0690   46.3500 C   0  0  0  0  0  0  0  0  0  0  0  0
   59.1890   30.6780   47.4450 C   0  0  0  0  0  0  0  0  0  0  0  0
   59.4740   29.9400   48.6170 C   0  0  0  0  0  0  0  0  0  0  0  0
   60.0820   30.6020   49.6940 O   0  0  0  0  0  0  0  0  0  0  0  0
   59.4110   31.1780   50.7880 C   0  0  0  0  0  0  0  0  0  0  0  0
   60.1700   31.7550   51.8120 C   0  0  0  0  0  0  0  0  0  0  0  0
   59.5440   32.3660   52.9000 C   0  0  0  0  0  0  0  0  0  0  0  0
   58.1490   32.4110   52.9710 C   0  0  0  0  0  0  0  0  0  0  0  0
   57.3690   31.8500   51.9450 C   0  0  0  0  0  0  0  0  0  0  0  0
   55.9380   31.9420   52.0060 N   0  0  0  0  0  0  0  0  0  0  0  0
   55.0740   30.8090   51.8460 C   0  0  0  0  0  0  0  0  0  0  0  0
   55.5240   29.6400   52.0170 O   0  0  0  0  0  0  0  0  0  0  0  0
   53.6570   30.9990   51.4980 C   0  0  0  0  0  0  0  0  0  0  0  0
   52.9550   30.2410   50.5810 C   0  0  0  0  0  0  0  0  0  0  0  0
   51.6900   30.7860   50.5150 C   0  0  0  0  0  0  0  0  0  0  0  0
   51.6970   31.8440   51.3950 C   0  0  0  0  0  0  0  0  0  0  0  0
   50.6170   32.6850   51.6280 O   0  0  0  0  0  0  0  0  0  0  0  0
   52.8880   31.9860   52.0020 N   0  0  0  0  0  0  0  0  0  0  0  0
   58.0050   31.2480   50.8450 C   0  0  0  0  0  0  0  0  0  0  0  0
   59.1650   28.5590   48.6690 C   0  0  0  0  0  0  0  0  0  0  0  0
   58.5250   27.9950   47.5700 C   0  0  0  0  0  0  0  0  0  0  0  0
   58.0940   26.7330   47.4340 N   0  0  0  0  0  0  0  0  0  0  0  0
   51.8715   24.5222   45.1489 H   0  0  0  0  0  0  0  0  0  0  0  0
   53.3011   24.8505   44.1120 H   0  0  0  0  0  0  0  0  0  0  0  0
   52.5470   23.2201   44.1120 H   0  0  0  0  0  0  0  0  0  0  0  0
   53.3995   24.1658   46.7950 H   0  0  0  0  0  0  0  0  0  0  0  0
   53.6570   22.5766   45.9813 H   0  0  0  0  0  0  0  0  0  0  0  0
   56.9623   23.0613   45.7332 H   0  0  0  0  0  0  0  0  0  0  0  0
   55.5768   22.0203   45.2325 H   0  0  0  0  0  0  0  0  0  0  0  0
   57.3695   23.7605   43.5892 H   0  0  0  0  0  0  0  0  0  0  0  0
   56.5166   22.2392   43.1593 H   0  0  0  0  0  0  0  0  0  0  0  0
   55.6258   23.7991   43.1593 H   0  0  0  0  0  0  0  0  0  0  0  0
   58.3114   30.6394   45.4397 H   0  0  0  0  0  0  0  0  0  0  0  0
   59.4714   31.7396   47.3885 H   0  0  0  0  0  0  0  0  0  0  0  0
   61.2684   31.7270   51.7594 H   0  0  0  0  0  0  0  0  0  0  0  0
   60.1495   32.8126   53.7024 H   0  0  0  0  0  0  0  0  0  0  0  0
   57.6594   32.8873   53.8332 H   0  0  0  0  0  0  0  0  0  0  0  0
   55.5120   32.8710   52.2390 H   0  0  0  0  0  0  0  0  0  0  0  0
   53.3303   29.3751   50.0159 H   0  0  0  0  0  0  0  0  0  0  0  0
   50.8511   30.4462   49.8899 H   0  0  0  0  0  0  0  0  0  0  0  0
   57.4022   30.8299   50.0254 H   0  0  0  0  0  0  0  0  0  0  0  0
   59.4226   27.9521   49.5495 H   0  0  0  0  0  0  0  0  0  0  0  0
  1  2  1  0
  2  3  1  0
  3  4  1  0
  4  5  1  0
  3  6  1  0
  6  7  2  0
  6  8  1  0
  8  9  2  3
  9 10  1  0
 10 11  1  0
 11 12  2  0
 12 13  1  0
 13 14  2  0
 14 15  1  0
 15 16  1  0
 16 17  2  0
 17 18  1  0
 18 19  2  0
 19 20  1  0
 20 21  1  0
 21 22  1  0
 22 23  2  0
 22 24  1  0
 24 25  2  0
 25 26  1  0
 26 27  2  0
 27 28  1  0
 27 29  1  0
 20 30  2  0
 14 31  1  0
 31 32  2  0
 32 33  1  0
 33  9  1  0
 32 11  1  0
 30 16  1  0
 29 24  1  0
  1 34  1  0
  1 35  1  0
  1 36  1  0
  2 37  1  0
  2 38  1  0
  4 39  1  0
  4 40  1  0
  5 41  1  0
  5 42  1  0
  5 43  1  0
 12 44  1  0
 13 45  1  0
 17 46  1  0
 18 47  1  0
 19 48  1  0
 21 49  1  0
 25 50  1  0
 26 51  1  0
 30 52  1  0
 31 53  1  0
M  CHG  4  10  -1  28  -1  29  -1  33  -1
M  END
>  <UniqueID>  (18) 
16

>  <SMILES>  (18) 
CCN(CC)C(=O)N=c1[n-]c2ccc(Oc3cccc(NC(=O)c4ccc([O-])[n-]4)c3)cc2[n-]1

>  <Energy>  (18) 
121.21869276484536

>  <Genealogy>  (18) 
CCN(CC)C(=O)N=c1[n-]c2ccc(Oc3cccc(NC(=O)c4ccc([O-])[n-]4)c3)cc2[n-]1 (protonated)
CCN(CC)C(=O)N=c1[n-]c2ccc(Oc3cccc(NC(=O)c4ccc([O-])[n-]4)c3)cc2[n-]1 (3D coordinates assigned)
CCN(CC)C(=O)N=c1[n-]c2ccc(Oc3cccc(NC(=O)c4ccc([O-])[n-]4)c3)cc2[n-]1 (optimized conformer: 121.21869276484536 kcal/mol)

>  <smiles>  (18) 
CCN(CC)C(=O)N=c1[nH]c2ccc(Oc3cccc(NC(=O)c4ccc(O)[nH]4)c3)cc2[nH]1

>  <score_type>  (18) 
oracle

>  <origin>  (18) 
adg

>  <m_score__min__energy>  (18) 
-16.600000000000001

>  <m_primary>  (18) 
energy

$$$$
18:0
     RDKit          3D

 34 36  0  0  0  0  0  0  0  0999 V2000
   57.1617   34.3205   43.7386 H   0  0  0  0  0  0  0  0  0  0  0  0
   57.6760   34.2130   44.7050 C   0  0  0  0  0  0  0  0  0  0  0  0
   58.9760   34.7020   44.8630 C   0  0  0  0  0  0  0  0  0  0  0  0
   59.4841   35.1948   44.0210 H   0  0  0  0  0  0  0  0  0  0  0  0
   59.6310   34.5650   46.0910 C   0  0  0  0  0  0  0  0  0  0  0  0
   60.6528   34.9536   46.2133 H   0  0  0  0  0  0  0  0  0  0  0  0
   58.9890   33.9330   47.1690 C   0  0  0  0  0  0  0  0  0  0  0  0
   59.6770   33.7980   48.5000 C   0  0  0  0  0  0  0  0  0  0  0  0
   58.9462   33.4694   49.2536 H   0  0  0  0  0  0  0  0  0  0  0  0
   60.1002   34.7733   48.7822 H   0  0  0  0  0  0  0  0  0  0  0  0
   60.7330   32.8420   48.4220 O   0  0  0  0  0  0  0  0  0  0  0  0
   60.6530   31.6690   47.6630 C   0  0  0  0  0  0  0  0  0  0  0  0
   61.4930   31.4470   46.7490 O   0  0  0  0  0  0  0  0  0  0  0  0
   59.5970   30.7400   47.9450 N   0  0  0  0  0  0  0  0  0  0  0  0
   58.9400   30.0020   47.0980 C   0  0  0  0  0  0  0  0  0  0  0  0
   57.8370   30.4560   46.4640 N   0  0  0  0  0  0  0  0  0  0  0  0
   57.3120   29.5160   45.6360 C   0  0  0  0  0  0  0  0  0  0  0  0
   56.1630   29.7580   44.8920 O   0  0  0  0  0  0  0  0  0  0  0  0
   58.0000   28.3070   45.5940 C   0  0  0  0  0  0  0  0  0  0  0  0
   57.6030   27.0820   44.8310 C   0  0  0  0  0  0  0  0  0  0  0  0
   56.7935   27.3357   44.1307 H   0  0  0  0  0  0  0  0  0  0  0  0
   58.4741   26.7056   44.2746 H   0  0  0  0  0  0  0  0  0  0  0  0
   57.1280   26.0220   45.7740 C   0  0  0  0  0  0  0  0  0  0  0  0
   57.8910   25.0050   46.2130 N   0  0  0  0  0  0  0  0  0  0  0  0
   57.0370   24.2800   46.9690 C   0  0  0  0  0  0  0  0  0  0  0  0
   57.3870   23.2320   47.5680 O   0  0  0  0  0  0  0  0  0  0  0  0
   55.7780   24.7670   47.0260 N   0  0  0  0  0  0  0  0  0  0  0  0
   55.8520   25.8650   46.2590 C   0  0  0  0  0  0  0  0  0  0  0  0
   54.7750   26.7030   46.0030 O   0  0  0  0  0  0  0  0  0  0  0  0
   59.3010   28.4090   46.6580 S   0  0  0  0  0  0  0  0  0  0  0  0
   57.6810   33.4480   47.0030 C   0  0  0  0  0  0  0  0  0  0  0  0
   57.1676   32.9566   47.8427 H   0  0  0  0  0  0  0  0  0  0  0  0
   57.0300   33.5880   45.7740 C   0  0  0  0  0  0  0  0  0  0  0  0
   56.0065   33.2050   45.6485 H   0  0  0  0  0  0  0  0  0  0  0  0
  1  2  1  0
  2  3  2  0
  3  4  1  0
  3  5  1  0
  5  6  1  0
  5  7  2  0
  7  8  1  0
  8  9  1  0
  8 10  1  0
  8 11  1  0
 11 12  1  0
 12 13  2  0
 12 14  1  0
 14 15  2  0
 15 16  1  0
 16 17  1  0
 17 18  1  0
 17 19  2  0
 19 20  1  0
 20 21  1  0
 20 22  1  0
 20 23  1  0
 23 24  1  0
 24 25  1  0
 25 26  2  0
 25 27  1  0
 27 28  1  0
 28 29  1  0
 19 30  1  0
  7 31  1  0
 31 32  1  0
 31 33  2  0
 33 34  1  0
 33  2  1  0
 30 15  1  0
 28 23  2  0
M  CHG  5  16  -1  18  -1  24  -1  27  -1  29  -1
M  END
>  <UniqueID>  (19) 
17

>  <SMILES>  (19) 
O=C(/N=c1/[n-]c([O-])c(Cc2[n-]c(=O)[n-]c2[O-])s1)OCc1ccccc1

>  <Energy>  (19) 
95.77509453021487

>  <Genealogy>  (19) 
O=C(N=c1[n-]c([O-])c(Cc2[n-]c(=O)[n-]c2[O-])s1)OCc1ccccc1 (protonated)
O=C(/N=c1/[n-]c([O-])c(Cc2[n-]c(=O)[n-]c2[O-])s1)OCc1ccccc1 (cis-trans isomerization)
O=C(/N=c1/[n-]c([O-])c(Cc2[n-]c(=O)[n-]c2[O-])s1)OCc1ccccc1 (3D coordinates assigned)
O=C(/N=c1/[n-]c([O-])c(Cc2[n-]c(=O)[n-]c2[O-])s1)OCc1ccccc1 (optimized conformer: 95.77509453021487 kcal/mol)

>  <smiles>  (19) 
O=C(N=c1[nH]c(O)c(Cc2[nH]c(=O)[nH]c2O)s1)OCc1ccccc1

>  <score_type>  (19) 
oracle

>  <origin>  (19) 
adg

>  <m_score__min__energy>  (19) 
-18.739999999999998

>  <m_primary>  (19) 
energy

$$$$
19:0
     RDKit          3D

 69 73  0  0  0  0  0  0  0  0999 V2000
   57.1640   25.1590   46.7360 C   0  0  0  0  0  0  0  0  0  0  0  0
   57.8520   26.2620   46.0560 N   0  0  0  0  0  0  0  0  0  0  0  0
   59.2960   26.4350   46.2820 C   0  0  0  0  0  0  0  0  0  0  0  0
   59.5420   27.2250   47.5420 C   0  0  0  0  0  0  0  0  0  0  0  0
   58.7270   28.3250   47.8560 C   0  0  0  0  0  0  0  0  0  0  0  0
   58.9530   29.0670   49.0200 C   0  0  0  0  0  0  0  0  0  0  0  0
   60.0060   28.7280   49.8880 C   0  0  0  0  0  0  0  0  0  0  0  0
   60.2560   29.5130   51.1210 C   0  0  0  0  0  0  0  0  0  0  0  0
   59.5290   29.3950   52.1800 N   0  0  0  0  0  0  0  0  0  0  0  0
   60.0140   30.2960   53.2200 C   0  0  0  0  0  0  0  0  0  0  0  0
   61.1900   31.0480   52.5790 C   0  0  0  0  0  0  0  0  0  0  0  0
   61.2920   30.4740   51.2530 N   0  0  0  0  0  0  0  0  0  0  0  0
   60.8290   27.6350   49.5660 C   0  0  0  0  0  0  0  0  0  0  0  0
   60.5970   26.8880   48.4050 C   0  0  0  0  0  0  0  0  0  0  0  0
   57.0670   27.1900   45.2670 C   0  0  0  0  0  0  0  0  0  0  0  0
   55.8880   27.4640   45.6280 O   0  0  0  0  0  0  0  0  0  0  0  0
   57.6310   27.8570   44.0360 C   0  0  0  0  0  0  0  0  0  0  0  0
   56.8490   29.0310   43.6490 N   0  0  0  0  0  0  0  0  0  0  0  0
   57.3180   30.3870   43.6670 C   0  0  0  0  0  0  0  0  0  0  0  0
   56.9750   31.1570   42.7300 O   0  0  0  0  0  0  0  0  0  0  0  0
   58.1910   30.9060   44.7430 C   0  0  0  0  0  0  0  0  0  0  0  0
   59.2830   30.1420   45.1690 C   0  0  0  0  0  0  0  0  0  0  0  0
   60.0740   30.5680   46.2320 C   0  0  0  0  0  0  0  0  0  0  0  0
   59.7900   31.7750   46.8890 C   0  0  0  0  0  0  0  0  0  0  0  0
   58.7120   32.5810   46.4510 C   0  0  0  0  0  0  0  0  0  0  0  0
   57.8800   32.1130   45.4010 C   0  0  0  0  0  0  0  0  0  0  0  0
   56.7390   32.8160   44.9980 O   0  0  0  0  0  0  0  0  0  0  0  0
   58.4030   33.8790   47.1790 C   0  0  0  0  0  0  0  0  0  0  0  0
   59.6420   34.4810   47.8520 C   0  0  0  0  0  0  0  0  0  0  0  0
   60.3250   33.4700   48.6620 N   0  0  0  0  0  0  0  0  0  0  0  0
   60.6500   33.7220   50.0720 C   0  0  0  0  0  0  0  0  0  0  0  0
   59.5100   33.2730   50.9460 C   0  0  0  0  0  0  0  0  0  0  0  0
   58.5850   32.3220   50.4830 C   0  0  0  0  0  0  0  0  0  0  0  0
   57.4960   31.9530   51.2790 C   0  0  0  0  0  0  0  0  0  0  0  0
   57.3200   32.5320   52.5400 C   0  0  0  0  0  0  0  0  0  0  0  0
   58.2320   33.4840   53.0040 C   0  0  0  0  0  0  0  0  0  0  0  0
   59.3220   33.8560   52.2110 C   0  0  0  0  0  0  0  0  0  0  0  0
   60.5840   32.1920   48.0650 C   0  0  0  0  0  0  0  0  0  0  0  0
   61.4550   31.4240   48.5570 O   0  0  0  0  0  0  0  0  0  0  0  0
   57.2465   25.2912   47.8249 H   0  0  0  0  0  0  0  0  0  0  0  0
   56.1028   25.1547   46.4465 H   0  0  0  0  0  0  0  0  0  0  0  0
   57.6269   24.2041   46.4465 H   0  0  0  0  0  0  0  0  0  0  0  0
   59.7687   25.4462   46.3765 H   0  0  0  0  0  0  0  0  0  0  0  0
   59.7267   26.9811   45.4298 H   0  0  0  0  0  0  0  0  0  0  0  0
   57.9046   28.6051   47.1813 H   0  0  0  0  0  0  0  0  0  0  0  0
   58.3025   29.9215   49.2580 H   0  0  0  0  0  0  0  0  0  0  0  0
   59.2237   30.9993   53.5214 H   0  0  0  0  0  0  0  0  0  0  0  0
   60.3165   29.7537   54.1279 H   0  0  0  0  0  0  0  0  0  0  0  0
   60.9806   32.1265   52.5232 H   0  0  0  0  0  0  0  0  0  0  0  0
   62.1211   30.9486   53.1561 H   0  0  0  0  0  0  0  0  0  0  0  0
   61.9590   30.7850   50.5130 H   0  0  0  0  0  0  0  0  0  0  0  0
   61.6620   27.3644   50.2316 H   0  0  0  0  0  0  0  0  0  0  0  0
   61.2453   26.0317   48.1674 H   0  0  0  0  0  0  0  0  0  0  0  0
   58.6651   28.1700   44.2426 H   0  0  0  0  0  0  0  0  0  0  0  0
   57.5954   27.1337   43.2080 H   0  0  0  0  0  0  0  0  0  0  0  0
   59.5185   29.1961   44.6592 H   0  0  0  0  0  0  0  0  0  0  0  0
   60.9268   29.9549   46.5590 H   0  0  0  0  0  0  0  0  0  0  0  0
   56.2820   32.6860   44.1070 H   0  0  0  0  0  0  0  0  0  0  0  0
   58.0070   34.6051   46.4538 H   0  0  0  0  0  0  0  0  0  0  0  0
   57.6689   33.6550   47.9670 H   0  0  0  0  0  0  0  0  0  0  0  0
   60.3307   34.8515   47.0784 H   0  0  0  0  0  0  0  0  0  0  0  0
   59.3269   35.3082   48.5051 H   0  0  0  0  0  0  0  0  0  0  0  0
   61.5590   33.1647   50.3425 H   0  0  0  0  0  0  0  0  0  0  0  0
   60.8181   34.7991   50.2191 H   0  0  0  0  0  0  0  0  0  0  0  0
   58.7179   31.8661   49.4908 H   0  0  0  0  0  0  0  0  0  0  0  0
   56.7764   31.2060   50.9127 H   0  0  0  0  0  0  0  0  0  0  0  0
   56.4645   32.2383   53.1660 H   0  0  0  0  0  0  0  0  0  0  0  0
   58.0921   33.9414   53.9946 H   0  0  0  0  0  0  0  0  0  0  0  0
   60.0354   34.6082   52.5788 H   0  0  0  0  0  0  0  0  0  0  0  0
  1  2  1  0
  2  3  1  0
  3  4  1  0
  4  5  2  0
  5  6  1  0
  6  7  2  0
  7  8  1  0
  8  9  2  0
  9 10  1  0
 10 11  1  0
 11 12  1  0
  7 13  1  0
 13 14  2  0
  2 15  1  0
 15 16  2  0
 15 17  1  0
 17 18  1  0
 18 19  1  0
 19 20  2  0
 19 21  1  0
 21 22  2  0
 22 23  1  0
 23 24  2  0
 24 25  1  0
 25 26  2  0
 26 27  1  0
 25 28  1  0
 28 29  1  0
 29 30  1  0
 30 31  1  0
 31 32  1  0
 32 33  2  0
 33 34  1  0
 34 35  2  0
 35 36  1  0
 36 37  2  0
 30 38  1  0
 38 39  2  0
 14  4  1  0
 26 21  1  0
 37 32  1  0
 12  8  1  0
 38 24  1  0
  1 40  1  0
  1 41  1  0
  1 42  1  0
  3 43  1  0
  3 44  1  0
  5 45  1  0
  6 46  1  0
 10 47  1  0
 10 48  1  0
 11 49  1  0
 11 50  1  0
 12 51  1  0
 13 52  1  0
 14 53  1  0
 17 54  1  0
 17 55  1  0
 22 56  1  0
 23 57  1  0
 27 58  1  0
 28 59  1  0
 28 60  1  0
 29 61  1  0
 29 62  1  0
 31 63  1  0
 31 64  1  0
 33 65  1  0
 34 66  1  0
 35 67  1  0
 36 68  1  0
 37 69  1  0
M  CHG  1  18  -1
M  END
>  <UniqueID>  (20) 
18

>  <SMILES>  (20) 
CN(Cc1ccc(C2=NCCN2)cc1)C(=O)C[N-]C(=O)c1ccc2c(c1O)CCN(Cc1ccccc1)C2=O

>  <Energy>  (20) 
92.60901336785717

>  <Genealogy>  (20) 
CN(Cc1ccc(C2=NCCN2)cc1)C(=O)C[N-]C(=O)c1ccc2c(c1O)CCN(Cc1ccccc1)C2=O (protonated)
CN(Cc1ccc(C2=NCCN2)cc1)C(=O)C[N-]C(=O)c1ccc2c(c1O)CCN(Cc1ccccc1)C2=O (3D coordinates assigned)
CN(Cc1ccc(C2=NCCN2)cc1)C(=O)C[N-]C(=O)c1ccc2c(c1O)CCN(Cc1ccccc1)C2=O (nonaromatic ring conformer: 92.60901336785717 kcal/mol)

>  <smiles>  (20) 
CN(Cc1ccc(C2=NCCN2)cc1)C(=O)CNC(=O)c1ccc2c(c1O)CCN(Cc1ccccc1)C2=O

>  <score_type>  (20) 
oracle

>  <origin>  (20) 
adg

>  <m_score__min__energy>  (20) 
-11.31

>  <m_primary>  (20) 
energy

$$$$
20:0
     RDKit          3D

 55 59  0  0  0  0  0  0  0  0999 V2000
   64.7640   31.2380   53.5500 C   0  0  0  0  0  0  0  0  0  0  0  0
   65.0850   30.3880   52.3840 N   0  0  2  0  0  0  0  0  0  0  0  0
   66.4980   29.9630   52.4460 C   0  0  0  0  0  0  0  0  0  0  0  0
   67.2830   30.9780   51.6150 C   0  0  0  0  0  0  0  0  0  0  0  0
   66.2220   31.5840   50.7840 C   0  0  0  0  0  0  0  0  0  0  0  0
   65.0280   31.1570   51.1700 C   0  0  0  0  0  0  0  0  0  0  0  0
   63.7530   31.4100   50.4220 C   0  0  0  0  0  0  0  0  0  0  0  0
   62.5310   30.7560   50.6130 C   0  0  0  0  0  0  0  0  0  0  0  0
   62.3060   29.7040   51.4940 O   0  0  0  0  0  0  0  0  0  0  0  0
   61.5680   31.2410   49.7970 N   0  0  0  0  0  0  0  0  0  0  0  0
   60.1590   30.8380   49.7790 C   0  0  0  0  0  0  0  0  0  0  0  0
   59.5970   30.9820   48.3900 C   0  0  0  0  0  0  0  0  0  0  0  0
   58.6780   32.0030   48.0930 C   0  0  0  0  0  0  0  0  0  0  0  0
   58.1360   32.1120   46.8090 C   0  0  0  0  0  0  0  0  0  0  0  0
   58.5120   31.2080   45.8020 C   0  0  0  0  0  0  0  0  0  0  0  0
   57.9200   31.3090   44.4480 C   0  0  0  0  0  0  0  0  0  0  0  0
   58.3520   32.3560   43.6150 C   0  0  0  0  0  0  0  0  0  0  0  0
   57.9000   32.4520   42.2980 C   0  0  0  0  0  0  0  0  0  0  0  0
   57.0130   31.5020   41.7960 C   0  0  0  0  0  0  0  0  0  0  0  0
   56.5600   30.4630   42.6110 C   0  0  0  0  0  0  0  0  0  0  0  0
   56.9900   30.3570   43.9490 C   0  0  0  0  0  0  0  0  0  0  0  0
   56.4100   29.2830   44.7970 C   0  0  0  0  0  0  0  0  0  0  0  0
   55.1610   29.1390   44.8740 O   0  0  0  0  0  0  0  0  0  0  0  0
   57.2280   28.4530   45.5570 O   0  0  0  0  0  0  0  0  0  0  0  0
   59.4190   30.1790   46.1020 C   0  0  0  0  0  0  0  0  0  0  0  0
   59.9610   30.0690   47.3860 C   0  0  0  0  0  0  0  0  0  0  0  0
   62.1660   32.1840   49.0430 C   0  0  0  0  0  0  0  0  0  0  0  0
   61.5910   32.9390   48.0130 C   0  0  0  0  0  0  0  0  0  0  0  0
   62.4150   33.8090   47.2870 C   0  0  0  0  0  0  0  0  0  0  0  0
   63.7900   33.8900   47.5750 C   0  0  0  0  0  0  0  0  0  0  0  0
   64.3510   33.1210   48.6090 C   0  0  0  0  0  0  0  0  0  0  0  0
   63.5040   32.2970   49.3660 C   0  0  0  0  0  0  0  0  0  0  0  0
   64.9734   30.6835   54.4767 H   0  0  0  0  0  0  0  0  0  0  0  0
   65.3801   32.1488   53.5205 H   0  0  0  0  0  0  0  0  0  0  0  0
   63.6996   31.5142   53.5205 H   0  0  0  0  0  0  0  0  0  0  0  0
   64.4520   29.5560   52.3370 H   0  0  0  0  0  0  0  0  0  0  0  0
   66.8524   29.9666   53.4874 H   0  0  0  0  0  0  0  0  0  0  0  0
   66.6276   28.9413   52.0596 H   0  0  0  0  0  0  0  0  0  0  0  0
   67.7667   31.7299   52.2558 H   0  0  0  0  0  0  0  0  0  0  0  0
   68.1025   30.5332   51.0315 H   0  0  0  0  0  0  0  0  0  0  0  0
   66.3985   32.2909   49.9599 H   0  0  0  0  0  0  0  0  0  0  0  0
   60.0768   29.7884   50.0976 H   0  0  0  0  0  0  0  0  0  0  0  0
   59.5914   31.4834   50.4655 H   0  0  0  0  0  0  0  0  0  0  0  0
   58.3839   32.7194   48.8742 H   0  0  0  0  0  0  0  0  0  0  0  0
   57.4117   32.9094   46.5863 H   0  0  0  0  0  0  0  0  0  0  0  0
   59.0538   33.1076   44.0055 H   0  0  0  0  0  0  0  0  0  0  0  0
   58.2438   33.2771   41.6568 H   0  0  0  0  0  0  0  0  0  0  0  0
   56.6684   31.5709   40.7537 H   0  0  0  0  0  0  0  0  0  0  0  0
   55.8596   29.7187   42.2043 H   0  0  0  0  0  0  0  0  0  0  0  0
   59.7043   29.4563   45.3234 H   0  0  0  0  0  0  0  0  0  0  0  0
   60.6758   29.2638   47.6113 H   0  0  0  0  0  0  0  0  0  0  0  0
   60.5196   32.8511   47.7799 H   0  0  0  0  0  0  0  0  0  0  0  0
   61.9852   34.4315   46.4884 H   0  0  0  0  0  0  0  0  0  0  0  0
   64.4317   34.5613   46.9854 H   0  0  0  0  0  0  0  0  0  0  0  0
   65.4297   33.1640   48.8202 H   0  0  0  0  0  0  0  0  0  0  0  0
  1  2  1  0
  2  3  1  0
  3  4  1  0
  4  5  1  0
  5  6  2  0
  6  7  1  0
  7  8  2  0
  8  9  1  0
  8 10  1  0
 10 11  1  0
 11 12  1  0
 12 13  2  0
 13 14  1  0
 14 15  2  0
 15 16  1  0
 16 17  2  0
 17 18  1  0
 18 19  2  0
 19 20  1  0
 20 21  2  0
 21 22  1  0
 22 23  2  0
 22 24  1  0
 15 25  1  0
 25 26  2  0
 10 27  1  0
 27 28  2  0
 28 29  1  0
 29 30  2  0
 30 31  1  0
 31 32  2  0
  6  2  1  0
 32  7  1  0
 26 12  1  0
 32 27  1  0
 21 16  1  0
  1 33  1  0
  1 34  1  0
  1 35  1  0
  2 36  1  6
  3 37  1  0
  3 38  1  0
  4 39  1  0
  4 40  1  0
  5 41  1  0
 11 42  1  0
 11 43  1  0
 13 44  1  0
 14 45  1  0
 17 46  1  0
 18 47  1  0
 19 48  1  0
 20 49  1  0
 25 50  1  0
 26 51  1  0
 28 52  1  0
 29 53  1  0
 30 54  1  0
 31 55  1  0
M  CHG  3   2   1   9  -1  24  -1
M  END
>  <UniqueID>  (21) 
19

>  <SMILES>  (21) 
C[N@@H+]1CCC=C1c1c([O-])n(Cc2ccc(-c3ccccc3C(=O)[O-])cc2)c2ccccc12

>  <Energy>  (21) 
121.1249408272206

>  <Genealogy>  (21) 
C[NH+]1CCC=C1c1c([O-])n(Cc2ccc(-c3ccccc3C(=O)[O-])cc2)c2ccccc12 (protonated)
C[N@@H+]1CCC=C1c1c([O-])n(Cc2ccc(-c3ccccc3C(=O)[O-])cc2)c2ccccc12 (chirality)
C[N@@H+]1CCC=C1c1c([O-])n(Cc2ccc(-c3ccccc3C(=O)[O-])cc2)c2ccccc12 (3D coordinates assigned)
C[N@@H+]1CCC=C1c1c([O-])n(Cc2ccc(-c3ccccc3C(=O)[O-])cc2)c2ccccc12 (nonaromatic ring conformer: 121.1249408272206 kcal/mol)

>  <smiles>  (21) 
CN1CCC=C1c1c(O)n(Cc2ccc(-c3ccccc3C(=O)O)cc2)c2ccccc12

>  <score_type>  (21) 
oracle

>  <origin>  (21) 
adg

>  <m_score__min__energy>  (21) 
-11.49

>  <m_primary>  (21) 
energy

$$$$
21:0
     RDKit          3D

 28 29  0  0  0  0  0  0  0  0999 V2000
   60.8010   27.4700   47.1750 O   0  0  0  0  0  0  0  0  0  0  0  0
   60.1400   28.2990   46.4920 C   0  0  0  0  0  0  0  0  0  0  0  0
   59.3930   27.8000   45.2820 C   0  0  0  0  0  0  0  0  0  0  0  0
   58.0340   28.4300   45.1780 C   0  0  0  0  0  0  0  0  0  0  0  0
   57.8330   29.7020   44.7880 N   0  0  0  0  0  0  0  0  0  0  0  0
   56.4900   29.8260   44.8140 C   0  0  0  0  0  0  0  0  0  0  0  0
   55.9020   30.8960   44.5100 O   0  0  0  0  0  0  0  0  0  0  0  0
   55.8280   28.7140   45.1940 N   0  0  0  0  0  0  0  0  0  0  0  0
   56.8130   27.8250   45.4110 C   0  0  0  0  0  0  0  0  0  0  0  0
   56.5740   26.4320   45.9080 C   0  0  0  0  0  0  0  0  0  0  0  0
   55.2350   26.2810   46.2900 O   0  0  0  0  0  0  0  0  0  0  0  0
   60.1580   29.7300   46.8840 C   0  0  0  0  0  0  0  0  0  0  0  0
   61.3670   30.4380   46.7850 C   0  0  0  0  0  0  0  0  0  0  0  0
   61.4060   31.7920   47.1100 C   0  0  0  0  0  0  0  0  0  0  0  0
   60.2470   32.4340   47.5380 C   0  0  0  0  0  0  0  0  0  0  0  0
   60.2780   34.1380   47.9490 Cl  0  0  0  0  0  0  0  0  0  0  0  0
   59.0610   31.7030   47.6450 C   0  0  0  0  0  0  0  0  0  0  0  0
   59.0310   30.3750   47.3290 N   0  0  0  0  0  0  0  0  0  0  0  0
   57.8560   29.6730   47.5070 O   0  0  0  0  0  0  0  0  0  0  0  0
   59.9709   28.0449   44.3787 H   0  0  0  0  0  0  0  0  0  0  0  0
   59.2633   26.7121   45.3799 H   0  0  0  0  0  0  0  0  0  0  0  0
   56.8071   25.7149   45.1071 H   0  0  0  0  0  0  0  0  0  0  0  0
   57.2203   26.2440   46.7781 H   0  0  0  0  0  0  0  0  0  0  0  0
   54.7590   27.0990   45.9900 H   0  0  0  0  0  0  0  0  0  0  0  0
   62.2809   29.9245   46.4516 H   0  0  0  0  0  0  0  0  0  0  0  0
   62.3492   32.3521   47.0288 H   0  0  0  0  0  0  0  0  0  0  0  0
   58.1425   32.2023   47.9872 H   0  0  0  0  0  0  0  0  0  0  0  0
   57.1870   29.5530   46.7550 H   0  0  0  0  0  0  0  0  0  0  0  0
  1  2  2  0
  2  3  1  0
  3  4  1  0
  4  5  1  0
  5  6  1  0
  6  7  2  0
  6  8  1  0
  8  9  1  0
  9 10  1  0
 10 11  1  0
  2 12  1  0
 12 13  2  0
 13 14  1  0
 14 15  2  0
 15 16  1  0
 15 17  1  0
 17 18  2  0
 18 19  1  0
  9  4  2  0
 18 12  1  0
  3 20  1  0
  3 21  1  0
 10 22  1  0
 10 23  1  0
 11 24  1  0
 13 25  1  0
 14 26  1  0
 17 27  1  0
 19 28  1  0
M  CHG  3   5  -1   8  -1  18   1
M  END
>  <UniqueID>  (22) 
20

>  <SMILES>  (22) 
O=C(Cc1[n-]c(=O)[n-]c1CO)c1ccc(Cl)c[n+]1O

>  <Energy>  (22) 
58.953070165467224

>  <Genealogy>  (22) 
O=C(Cc1[n-]c(=O)[n-]c1CO)c1ccc(Cl)c[n+]1O (protonated)
O=C(Cc1[n-]c(=O)[n-]c1CO)c1ccc(Cl)c[n+]1O (3D coordinates assigned)
O=C(Cc1[n-]c(=O)[n-]c1CO)c1ccc(Cl)c[n+]1O (optimized conformer: 58.953070165467224 kcal/mol)

>  <smiles>  (22) 
O=C(Cc1[nH]c(=O)[nH]c1CO)c1ccc(Cl)c[n+]1[O-]

>  <score_type>  (22) 
oracle

>  <origin>  (22) 
adg

>  <m_score__min__energy>  (22) 
-8.5500000000000007

>  <m_primary>  (22) 
energy

$$$$
22:0
     RDKit          3D

 30 32  0  0  0  0  0  0  0  0999 V2000
   58.3342   27.5657   43.0359 H   0  0  0  0  0  0  0  0  0  0  0  0
   57.9180   27.9020   43.9970 C   0  0  0  0  0  0  0  0  0  0  0  0
   57.8730   26.9980   45.0020 C   0  0  0  0  0  0  0  0  0  0  0  0
   58.4220   27.3560   46.3310 C   0  0  0  0  0  0  0  0  0  0  0  0
   59.0450   28.4380   46.5080 O   0  0  0  0  0  0  0  0  0  0  0  0
   58.2290   26.4830   47.4410 N   0  0  0  0  0  0  0  0  0  0  0  0
   57.5410   25.2410   47.3060 C   0  0  0  0  0  0  0  0  0  0  0  0
   57.3650   24.5220   48.3260 O   0  0  0  0  0  0  0  0  0  0  0  0
   57.0820   24.8040   46.0130 N   0  0  0  0  0  0  0  0  0  0  0  0
   56.4000   23.5430   45.8840 C   0  0  0  0  0  0  0  0  0  0  0  0
   57.1080   22.3370   46.0070 C   0  0  0  0  0  0  0  0  0  0  0  0
   58.1907   22.3543   46.2007 H   0  0  0  0  0  0  0  0  0  0  0  0
   56.4410   21.1130   45.8840 C   0  0  0  0  0  0  0  0  0  0  0  0
   56.9998   20.1703   45.9794 H   0  0  0  0  0  0  0  0  0  0  0  0
   55.0650   21.0880   45.6400 C   0  0  0  0  0  0  0  0  0  0  0  0
   54.5417   20.1255   45.5415 H   0  0  0  0  0  0  0  0  0  0  0  0
   54.3530   22.2860   45.5210 C   0  0  0  0  0  0  0  0  0  0  0  0
   52.9850   22.2580   45.2780 O   0  0  0  0  0  0  0  0  0  0  0  0
   55.0180   23.5110   45.6430 C   0  0  0  0  0  0  0  0  0  0  0  0
   54.4557   24.4518   45.5497 H   0  0  0  0  0  0  0  0  0  0  0  0
   57.3280   25.6200   44.8500 C   0  0  0  0  0  0  0  0  0  0  0  0
   57.1220   25.1390   43.7020 O   0  0  0  0  0  0  0  0  0  0  0  0
   57.4570   29.2990   44.0800 C   0  0  0  0  0  0  0  0  0  0  0  0
   58.2230   30.3340   43.8220 O   0  0  0  0  0  0  0  0  0  0  0  0
   57.5350   31.4370   44.0340 C   0  0  0  0  0  0  0  0  0  0  0  0
   57.9192   32.4575   43.8894 H   0  0  0  0  0  0  0  0  0  0  0  0
   56.2590   31.1240   44.4650 C   0  0  0  0  0  0  0  0  0  0  0  0
   55.4489   31.8223   44.7223 H   0  0  0  0  0  0  0  0  0  0  0  0
   56.2230   29.7510   44.5020 C   0  0  0  0  0  0  0  0  0  0  0  0
   55.1510   28.9720   44.9210 O   0  0  0  0  0  0  0  0  0  0  0  0
  1  2  1  0
  2  3  2  0
  3  4  1  0
  4  5  2  0
  4  6  1  0
  6  7  1  0
  7  8  2  0
  7  9  1  0
  9 10  1  0
 10 11  2  0
 11 12  1  0
 11 13  1  0
 13 14  1  0
 13 15  2  0
 15 16  1  0
 15 17  1  0
 17 18  1  0
 17 19  2  0
 19 20  1  0
  9 21  1  0
 21 22  2  0
  2 23  1  0
 23 24  1  0
 24 25  1  0
 25 26  1  0
 25 27  2  0
 27 28  1  0
 27 29  1  0
 29 30  1  0
 21  3  1  0
 29 23  2  0
 19 10  1  0
M  CHG  3   6  -1  18  -1  30  -1
M  END
>  <UniqueID>  (23) 
21

>  <SMILES>  (23) 
O=C1[N-]C(=O)N(c2cccc([O-])c2)C(=O)/C1=C\c1occc1[O-]

>  <Energy>  (23) 
76.92683453846598

>  <Genealogy>  (23) 
O=C1[N-]C(=O)N(c2cccc([O-])c2)C(=O)C1=Cc1occc1[O-] (protonated)
O=C1[N-]C(=O)N(c2cccc([O-])c2)C(=O)/C1=C\c1occc1[O-] (cis-trans isomerization)
O=C1[N-]C(=O)N(c2cccc([O-])c2)C(=O)/C1=C\c1occc1[O-] (3D coordinates assigned)
O=C1[N-]C(=O)N(c2cccc([O-])c2)C(=O)/C1=C\c1occc1[O-] (nonaromatic ring conformer: 76.92683453846598 kcal/mol)

>  <smiles>  (23) 
O=C1NC(=O)N(c2cccc(O)c2)C(=O)C1=Cc1occc1O

>  <score_type>  (23) 
oracle

>  <origin>  (23) 
adg

>  <m_score__min__energy>  (23) 
-14.109999999999999

>  <m_primary>  (23) 
energy

$$$$
23:0
     RDKit          3D

 53 56  0  0  0  0  0  0  0  0999 V2000
   54.6610   29.4990   43.3730 O   0  0  0  0  0  0  0  0  0  0  0  0
   55.6460   29.6170   44.1500 C   0  0  0  0  0  0  0  0  0  0  0  0
   55.8020   28.6650   45.2110 N   0  0  0  0  0  0  0  0  0  0  0  0
   57.0380   28.3000   45.8450 C   0  0  0  0  0  0  0  0  0  0  0  0
   57.9280   29.2730   46.3320 C   0  0  0  0  0  0  0  0  0  0  0  0
   59.1220   28.8880   46.9480 C   0  0  0  0  0  0  0  0  0  0  0  0
   59.4320   27.5290   47.1070 C   0  0  0  0  0  0  0  0  0  0  0  0
   60.7370   27.1190   47.7380 C   0  0  0  0  0  0  0  0  0  0  0  0
   60.8080   27.5460   49.2060 C   0  0  0  0  0  0  0  0  0  0  0  0
   61.3150   28.8490   49.3210 O   0  0  0  0  0  0  0  0  0  0  0  0
   58.5340   26.5600   46.6350 C   0  0  0  0  0  0  0  0  0  0  0  0
   57.3400   26.9440   46.0180 C   0  0  0  0  0  0  0  0  0  0  0  0
   56.4830   25.9910   45.5690 F   0  0  0  0  0  0  0  0  0  0  0  0
   56.6200   30.7020   43.9130 C   0  0  0  0  0  0  0  0  0  0  0  0
   56.9960   31.0820   42.6160 C   0  0  0  0  0  0  0  0  0  0  0  0
   57.9080   32.1230   42.4440 C   0  0  0  0  0  0  0  0  0  0  0  0
   58.4370   32.7820   43.5540 C   0  0  0  0  0  0  0  0  0  0  0  0
   59.2780   33.8290   43.3640 F   0  0  0  0  0  0  0  0  0  0  0  0
   58.0400   32.3840   44.8450 C   0  0  0  0  0  0  0  0  0  0  0  0
   58.5550   33.0510   46.0630 C   0  0  0  0  0  0  0  0  0  0  0  0
   58.7470   34.4440   46.1070 C   0  0  0  0  0  0  0  0  0  0  0  0
   59.2420   35.0520   47.2630 C   0  0  0  0  0  0  0  0  0  0  0  0
   59.5600   34.2810   48.3820 C   0  0  0  0  0  0  0  0  0  0  0  0
   59.3960   32.8900   48.3460 C   0  0  0  0  0  0  0  0  0  0  0  0
   59.7560   31.9110   49.7660 S   0  0  0  0  0  0  0  0  0  0  0  0
   59.4820   32.7180   51.0040 O   0  0  0  0  0  0  0  0  0  0  0  0
   58.8780   30.6900   49.7880 O   0  0  0  0  0  0  0  0  0  0  0  0
   61.4240   31.4340   49.7500 N   0  0  0  0  0  0  0  0  0  0  0  0
   62.1680   32.3590   48.9000 C   0  0  0  0  0  0  0  0  0  0  0  0
   62.5660   31.7460   47.5700 C   0  0  0  0  0  0  0  0  0  0  0  0
   63.6080   31.9430   48.6580 C   0  0  0  0  0  0  0  0  0  0  0  0
   58.8960   32.2800   47.1890 C   0  0  0  0  0  0  0  0  0  0  0  0
   57.1390   31.3710   44.9800 N   0  0  0  0  0  0  0  0  0  0  0  0
   57.6840   30.3405   46.2280 H   0  0  0  0  0  0  0  0  0  0  0  0
   59.8226   29.6548   47.3102 H   0  0  0  0  0  0  0  0  0  0  0  0
   60.8347   26.0250   47.6787 H   0  0  0  0  0  0  0  0  0  0  0  0
   61.5545   27.6148   47.1941 H   0  0  0  0  0  0  0  0  0  0  0  0
   59.7982   27.5121   49.6409 H   0  0  0  0  0  0  0  0  0  0  0  0
   61.4784   26.8578   49.7417 H   0  0  0  0  0  0  0  0  0  0  0  0
   60.5860   29.4080   49.6980 H   0  0  0  0  0  0  0  0  0  0  0  0
   58.7708   25.4921   46.7511 H   0  0  0  0  0  0  0  0  0  0  0  0
   56.5751   30.5633   41.7421 H   0  0  0  0  0  0  0  0  0  0  0  0
   58.2110   32.4252   41.4306 H   0  0  0  0  0  0  0  0  0  0  0  0
   58.5060   35.0576   45.2264 H   0  0  0  0  0  0  0  0  0  0  0  0
   59.3817   36.1427   47.2915 H   0  0  0  0  0  0  0  0  0  0  0  0
   59.9399   34.7660   49.2933 H   0  0  0  0  0  0  0  0  0  0  0  0
   61.4670   30.4940   49.2940 H   0  0  0  0  0  0  0  0  0  0  0  0
   61.6720   33.2869   49.2209 H   0  0  0  0  0  0  0  0  0  0  0  0
   62.2285   30.7322   47.3087 H   0  0  0  0  0  0  0  0  0  0  0  0
   62.4752   32.0478   46.5161 H   0  0  0  0  0  0  0  0  0  0  0  0
   64.0249   31.0719   49.1847 H   0  0  0  0  0  0  0  0  0  0  0  0
   64.5841   32.4466   48.7186 H   0  0  0  0  0  0  0  0  0  0  0  0
   58.7687   31.1878   47.1604 H   0  0  0  0  0  0  0  0  0  0  0  0
  1  2  2  0
  2  3  1  0
  3  4  1  0
  4  5  2  0
  5  6  1  0
  6  7  2  0
  7  8  1  0
  8  9  1  0
  9 10  1  0
  7 11  1  0
 11 12  2  0
 12 13  1  0
  2 14  1  0
 14 15  2  0
 15 16  1  0
 16 17  2  0
 17 18  1  0
 17 19  1  0
 19 20  1  0
 20 21  2  0
 21 22  1  0
 22 23  2  0
 23 24  1  0
 24 25  1  0
 25 26  2  0
 25 27  2  0
 25 28  1  0
 28 29  1  0
 29 30  1  0
 30 31  1  0
 24 32  2  0
 19 33  2  0
 12  4  1  0
 33 14  1  0
 32 20  1  0
 31 29  1  0
  5 34  1  0
  6 35  1  0
  8 36  1  0
  8 37  1  0
  9 38  1  0
  9 39  1  0
 10 40  1  0
 11 41  1  0
 15 42  1  0
 16 43  1  0
 21 44  1  0
 22 45  1  0
 23 46  1  0
 28 47  1  0
 29 48  1  0
 30 49  1  0
 30 50  1  0
 31 51  1  0
 31 52  1  0
 32 53  1  0
M  CHG  1   3  -1
M  END
>  <UniqueID>  (24) 
22

>  <SMILES>  (24) 
O=C([N-]c1ccc(CCO)cc1F)c1ccc(F)c(-c2cccc(S(=O)(=O)NC3CC3)c2)n1

>  <Energy>  (24) 
326.10419537668616

>  <Genealogy>  (24) 
O=C([N-]c1ccc(CCO)cc1F)c1ccc(F)c(-c2cccc(S(=O)(=O)NC3CC3)c2)n1 (protonated)
O=C([N-]c1ccc(CCO)cc1F)c1ccc(F)c(-c2cccc(S(=O)(=O)NC3CC3)c2)n1 (3D coordinates assigned)
O=C([N-]c1ccc(CCO)cc1F)c1ccc(F)c(-c2cccc(S(=O)(=O)NC3CC3)c2)n1 (nonaromatic ring conformer: 326.10419537668616 kcal/mol)

>  <smiles>  (24) 
O=C(Nc1ccc(CCO)cc1F)c1ccc(F)c(-c2cccc(S(=O)(=O)NC3CC3)c2)n1

>  <score_type>  (24) 
oracle

>  <origin>  (24) 
adg

>  <m_score__min__energy>  (24) 
-12.19

>  <m_primary>  (24) 
energy

$$$$
24:0
     RDKit          3D

 66 68  0  0  1  0  0  0  0  0999 V2000
   52.9140   29.9120   51.3800 C   0  0  0  0  0  0  0  0  0  0  0  0
   54.1400   29.8010   52.2870 C   0  0  0  0  0  0  0  0  0  0  0  0
   54.8220   31.0960   52.3350 N   0  0  0  0  0  0  0  0  0  0  0  0
   56.1970   31.2070   51.9750 C   0  0  0  0  0  0  0  0  0  0  0  0
   56.8380   30.1970   51.6140 O   0  0  0  0  0  0  0  0  0  0  0  0
   56.8670   32.4640   52.0200 N   0  0  0  0  0  0  0  0  0  0  0  0
   58.2660   32.6250   51.6620 C   0  0  0  0  0  0  0  0  0  0  0  0
   59.1060   33.0860   52.8290 C   0  0  0  0  0  0  0  0  0  0  0  0
   60.5030   32.8980   52.5540 N   0  0  0  0  0  0  0  0  0  0  0  0
   61.0900   31.6130   52.3900 C   0  0  0  0  0  0  0  0  0  0  0  0
   60.4170   30.5450   52.4750 O   0  0  0  0  0  0  0  0  0  0  0  0
   62.5520   31.5370   52.1050 C   0  0  0  0  0  0  0  0  0  0  0  0
   62.8280   30.9290   50.8280 N   0  0  0  0  0  0  0  0  0  0  0  0
   62.0600   30.0270   50.2860 C   0  0  0  0  0  0  0  0  0  0  0  0
   61.9480   28.8020   50.8710 N   0  0  0  0  0  0  0  0  0  0  0  0
   61.1640   27.8490   50.3360 C   0  0  0  0  0  0  0  0  0  0  0  0
   61.0860   26.5320   51.0250 C   0  0  0  0  0  0  0  0  0  0  0  0
   60.4790   28.1200   49.2020 N   0  0  0  0  0  0  0  0  0  0  0  0
   60.5640   29.3250   48.5920 C   0  0  0  0  0  0  0  0  0  0  0  0
   59.7830   29.5070   47.3720 C   0  0  0  0  0  0  0  0  0  0  0  0
   58.6650   30.3430   47.4730 C   0  0  0  0  0  0  0  0  0  0  0  0
   57.8520   30.5860   46.3720 C   0  0  0  0  0  0  0  0  0  0  0  0
   58.1760   29.9770   45.1590 C   0  0  0  0  0  0  0  0  0  0  0  0
   57.1390   30.3030   43.8090 S   0  0  0  0  0  0  0  0  0  0  0  0
   57.7670   31.6210   42.7710 C   0  0  0  0  0  0  0  0  0  0  0  0
   55.7940   30.6820   44.3410 O   0  0  0  0  0  0  0  0  0  0  0  0
   57.0230   29.0940   42.9310 O   0  0  0  0  0  0  0  0  0  0  0  0
   59.2920   29.1510   45.0830 C   0  0  0  0  0  0  0  0  0  0  0  0
   60.1020   28.9070   46.1770 C   0  0  0  0  0  0  0  0  0  0  0  0
   61.3650   30.3120   49.1280 C   0  0  0  0  0  0  0  0  0  0  0  0
   61.4510   31.6090   48.4650 C   0  0  0  0  0  0  0  0  0  0  0  0
   62.4670   31.8570   47.5530 C   0  0  0  0  0  0  0  0  0  0  0  0
   62.5840   33.0710   46.9050 C   0  0  0  0  0  0  0  0  0  0  0  0
   61.6520   34.0430   47.1910 C   0  0  0  0  0  0  0  0  0  0  0  0
   60.6190   33.8200   48.1060 C   0  0  0  0  0  0  0  0  0  0  0  0
   60.5090   32.5950   48.7540 C   0  0  0  0  0  0  0  0  0  0  0  0
   52.0073   29.9941   51.9974 H   0  0  0  0  0  0  0  0  0  0  0  0
   53.0073   30.8054   50.7450 H   0  0  0  0  0  0  0  0  0  0  0  0
   52.8454   29.0164   50.7450 H   0  0  0  0  0  0  0  0  0  0  0  0
   53.8231   29.5142   53.3006 H   0  0  0  0  0  0  0  0  0  0  0  0
   54.8250   29.0369   51.8908 H   0  0  0  0  0  0  0  0  0  0  0  0
   54.2850   31.9420   52.6380 H   0  0  0  0  0  0  0  0  0  0  0  0
   56.2650   33.2790   52.3330 H   0  0  0  0  0  0  0  0  0  0  0  0
   58.6538   31.6589   51.3066 H   0  0  0  0  0  0  0  0  0  0  0  0
   58.3268   33.3946   50.8784 H   0  0  0  0  0  0  0  0  0  0  0  0
   58.9145   34.1535   53.0125 H   0  0  0  0  0  0  0  0  0  0  0  0
   58.8368   32.4924   53.7151 H   0  0  0  0  0  0  0  0  0  0  0  0
   61.1400   33.7460   52.4670 H   0  0  0  0  0  0  0  0  0  0  0  0
   62.9669   32.5557   52.1091 H   0  0  0  0  0  0  0  0  0  0  0  0
   63.0151   30.9123   52.8830 H   0  0  0  0  0  0  0  0  0  0  0  0
   62.4750   28.5980   51.7430 H   0  0  0  0  0  0  0  0  0  0  0  0
   61.0952   26.6868   52.1140 H   0  0  0  0  0  0  0  0  0  0  0  0
   60.1560   26.0210   50.7351 H   0  0  0  0  0  0  0  0  0  0  0  0
   61.9492   25.9148   50.7351 H   0  0  0  0  0  0  0  0  0  0  0  0
   58.4262   30.8146   48.4377 H   0  0  0  0  0  0  0  0  0  0  0  0
   56.9737   31.2430   46.4550 H   0  0  0  0  0  0  0  0  0  0  0  0
   58.1540   32.4333   43.4038 H   0  0  0  0  0  0  0  0  0  0  0  0
   58.5771   31.2332   42.1359 H   0  0  0  0  0  0  0  0  0  0  0  0
   56.9555   32.0059   42.1359 H   0  0  0  0  0  0  0  0  0  0  0  0
   59.5385   28.6764   44.1218 H   0  0  0  0  0  0  0  0  0  0  0  0
   60.9797   28.2492   46.0931 H   0  0  0  0  0  0  0  0  0  0  0  0
   63.1997   31.0646   47.3402 H   0  0  0  0  0  0  0  0  0  0  0  0
   63.3946   33.2551   46.1846 H   0  0  0  0  0  0  0  0  0  0  0  0
   61.7219   35.0185   46.6875 H   0  0  0  0  0  0  0  0  0  0  0  0
   59.8901   34.6171   48.3141 H   0  0  0  0  0  0  0  0  0  0  0  0
   59.7000   32.4087   49.4757 H   0  0  0  0  0  0  0  0  0  0  0  0
  1  2  1  0
  2  3  1  0
  3  4  1  0
  4  5  2  0
  4  6  1  0
  6  7  1  0
  7  8  1  0
  8  9  1  0
  9 10  1  0
 10 11  2  0
 10 12  1  0
 12 13  1  0
 13 14  2  0
 14 15  1  0
 15 16  1  0
 16 17  1  0
 16 18  2  0
 18 19  1  0
 19 20  1  0
 20 21  2  0
 21 22  1  0
 22 23  2  0
 23 24  1  0
 24 25  1  0
 24 26  2  0
 24 27  2  0
 23 28  1  0
 28 29  2  0
 19 30  2  0
 30 31  1  0
 31 32  2  0
 32 33  1  0
 33 34  2  0
 34 35  1  0
 35 36  2  0
 30 14  1  0
 36 31  1  0
 29 20  1  0
  1 37  1  0
  1 38  1  0
  1 39  1  0
  2 40  1  0
  2 41  1  0
  3 42  1  0
  6 43  1  0
  7 44  1  0
  7 45  1  0
  8 46  1  0
  8 47  1  0
  9 48  1  0
 12 49  1  0
 12 50  1  0
 15 51  1  0
 17 52  1  0
 17 53  1  0
 17 54  1  0
 21 55  1  0
 22 56  1  0
 25 57  1  0
 25 58  1  0
 25 59  1  0
 28 60  1  0
 29 61  1  0
 32 62  1  0
 33 63  1  0
 34 64  1  0
 35 65  1  0
 36 66  1  0
M  END
>  <smiles>  (25) 
CCNC(=O)NCCNC(=O)CN=c1[nH]c(C)nc(-c2ccc(S(C)(=O)=O)cc2)c1-c1ccccc1

>  <score_type>  (25) 
oracle

>  <origin>  (25) 
adg

>  <m_score__min__energy>  (25) 
-9.1699999999999999

>  <m_primary>  (25) 
energy

$$$$
25:0
     RDKit          3D

 34 36  0  0  0  0  0  0  0  0999 V2000
   63.4630   33.0820   47.2950 C   0  0  0  0  0  0  0  0  0  0  0  0
   62.2940   33.8360   46.6710 C   0  0  0  0  0  0  0  0  0  0  0  0
   61.0490   33.2310   47.0210 O   0  0  0  0  0  0  0  0  0  0  0  0
   59.8700   33.1980   46.2530 C   0  0  0  0  0  0  0  0  0  0  0  0
   59.2270   31.9560   46.1370 C   0  0  0  0  0  0  0  0  0  0  0  0
   58.0390   31.8160   45.4010 C   0  0  0  0  0  0  0  0  0  0  0  0
   57.3710   30.5010   45.2960 C   0  0  0  0  0  0  0  0  0  0  0  0
   56.1090   30.3310   44.8600 N   0  0  0  0  0  0  0  0  0  0  0  0
   55.8620   29.0340   44.9050 N   0  0  0  0  0  0  0  0  0  0  0  0
   56.9790   28.4390   45.3670 C   0  0  0  0  0  0  0  0  0  0  0  0
   57.1270   26.9770   45.5710 C   0  0  0  0  0  0  0  0  0  0  0  0
   58.3820   26.3720   45.3640 C   0  0  0  0  0  0  0  0  0  0  0  0
   58.5490   24.9980   45.5480 C   0  0  0  0  0  0  0  0  0  0  0  0
   57.4690   24.2070   45.9410 C   0  0  0  0  0  0  0  0  0  0  0  0
   56.2180   24.7900   46.1510 C   0  0  0  0  0  0  0  0  0  0  0  0
   56.0390   26.1660   45.9690 C   0  0  0  0  0  0  0  0  0  0  0  0
   54.7770   26.7100   46.1880 O   0  0  0  0  0  0  0  0  0  0  0  0
   57.9570   29.3320   45.6260 N   0  0  0  0  0  0  0  0  0  0  0  0
   57.4940   32.9420   44.7670 C   0  0  0  0  0  0  0  0  0  0  0  0
   58.1280   34.1810   44.8620 C   0  0  0  0  0  0  0  0  0  0  0  0
   59.3130   34.3190   45.5920 C   0  0  0  0  0  0  0  0  0  0  0  0
   59.9180   35.5690   45.6280 O   0  0  0  0  0  0  0  0  0  0  0  0
   63.3874   33.1307   48.3913 H   0  0  0  0  0  0  0  0  0  0  0  0
   63.4357   32.0309   46.9719 H   0  0  0  0  0  0  0  0  0  0  0  0
   64.4093   33.5404   46.9719 H   0  0  0  0  0  0  0  0  0  0  0  0
   62.3028   34.8752   47.0316 H   0  0  0  0  0  0  0  0  0  0  0  0
   62.4023   33.8065   45.5767 H   0  0  0  0  0  0  0  0  0  0  0  0
   59.6618   31.0752   46.6320 H   0  0  0  0  0  0  0  0  0  0  0  0
   59.2391   26.9881   45.0543 H   0  0  0  0  0  0  0  0  0  0  0  0
   59.5345   24.5381   45.3827 H   0  0  0  0  0  0  0  0  0  0  0  0
   57.6031   23.1248   46.0853 H   0  0  0  0  0  0  0  0  0  0  0  0
   55.3682   24.1643   46.4613 H   0  0  0  0  0  0  0  0  0  0  0  0
   56.5613   32.8477   44.1915 H   0  0  0  0  0  0  0  0  0  0  0  0
   57.6923   35.0567   44.3586 H   0  0  0  0  0  0  0  0  0  0  0  0
  1  2  1  0
  2  3  1  0
  3  4  1  0
  4  5  2  0
  5  6  1  0
  6  7  1  0
  7  8  2  0
  8  9  1  0
  9 10  1  0
 10 11  1  0
 11 12  2  0
 12 13  1  0
 13 14  2  0
 14 15  1  0
 15 16  2  0
 16 17  1  0
 10 18  2  0
  6 19  2  0
 19 20  1  0
 20 21  2  0
 21 22  1  0
 21  4  1  0
 18  7  1  0
 16 11  1  0
  1 23  1  0
  1 24  1  0
  1 25  1  0
  2 26  1  0
  2 27  1  0
  5 28  1  0
 12 29  1  0
 13 30  1  0
 14 31  1  0
 15 32  1  0
 19 33  1  0
 20 34  1  0
M  CHG  3   9  -1  17  -1  22  -1
M  END
>  <UniqueID>  (26) 
23

>  <SMILES>  (26) 
CCOc1cc(-c2n[n-]c(-c3ccccc3[O-])n2)ccc1[O-]

>  <Energy>  (26) 
72.78105141217898

>  <Genealogy>  (26) 
CCOc1cc(-c2n[n-]c(-c3ccccc3[O-])n2)ccc1[O-] (protonated)
CCOc1cc(-c2n[n-]c(-c3ccccc3[O-])n2)ccc1[O-] (3D coordinates assigned)
CCOc1cc(-c2n[n-]c(-c3ccccc3[O-])n2)ccc1[O-] (optimized conformer: 72.78105141217898 kcal/mol)

>  <smiles>  (26) 
CCOc1cc(-c2n[nH]c(-c3ccccc3O)n2)ccc1O

>  <score_type>  (26) 
oracle

>  <origin>  (26) 
adg

>  <m_score__min__energy>  (26) 
-14.44

>  <m_primary>  (26) 
energy

$$$$
26:0
     RDKit          3D

 55 59  0  0  0  0  0  0  0  0999 V2000
   59.3940   28.6650   45.7760 O   0  0  0  0  0  0  0  0  0  0  0  0
   58.2300   28.7890   46.2450 C   0  0  0  0  0  0  0  0  0  0  0  0
   57.6790   27.7290   47.1460 C   0  0  0  0  0  0  0  0  0  0  0  0
   57.4550   26.4920   46.3990 N   0  0  0  0  0  0  0  0  0  0  0  0
   56.3010   26.0530   45.8750 C   0  0  0  0  0  0  0  0  0  0  0  0
   55.0790   26.7060   45.9960 O   0  0  0  0  0  0  0  0  0  0  0  0
   56.5360   24.8790   45.1940 C   0  0  0  0  0  0  0  0  0  0  0  0
   55.5360   24.0980   44.4020 C   0  0  0  0  0  0  0  0  0  0  0  0
   55.9330   22.6560   44.3590 C   0  0  0  0  0  0  0  0  0  0  0  0
   56.3450   21.9420   43.2380 C   0  0  0  0  0  0  0  0  0  0  0  0
   56.6670   20.6730   43.5790 N   0  0  0  0  0  0  0  0  0  0  0  0
   56.4750   20.5850   44.9070 C   0  0  0  0  0  0  0  0  0  0  0  0
   56.6770   19.4700   45.7180 C   0  0  0  0  0  0  0  0  0  0  0  0
   56.4330   19.6060   47.0980 C   0  0  0  0  0  0  0  0  0  0  0  0
   55.9820   20.8370   47.6260 C   0  0  0  0  0  0  0  0  0  0  0  0
   55.7800   21.9440   46.7810 C   0  0  0  0  0  0  0  0  0  0  0  0
   56.0380   21.7790   45.4200 C   0  0  0  0  0  0  0  0  0  0  0  0
   57.8510   24.5800   45.2560 N   0  0  0  0  0  0  0  0  0  0  0  0
   58.3710   25.5830   45.9980 C   0  0  0  0  0  0  0  0  0  0  0  0
   59.5980   25.6640   46.2740 O   0  0  0  0  0  0  0  0  0  0  0  0
   57.4380   29.9460   45.9470 N   0  0  0  0  0  0  0  0  0  0  0  0
   57.4230   30.6740   44.7100 C   0  0  0  0  0  0  0  0  0  0  0  0
   56.8900   30.1060   43.5380 C   0  0  0  0  0  0  0  0  0  0  0  0
   56.8780   30.8290   42.3440 C   0  0  0  0  0  0  0  0  0  0  0  0
   57.3870   32.1280   42.3070 C   0  0  0  0  0  0  0  0  0  0  0  0
   57.8990   32.7110   43.4660 C   0  0  0  0  0  0  0  0  0  0  0  0
   57.9160   31.9960   44.6750 C   0  0  0  0  0  0  0  0  0  0  0  0
   58.4480   32.6220   45.8570 N   0  0  0  0  0  0  0  0  0  0  0  0
   57.8490   33.8570   46.3760 C   0  0  0  0  0  0  0  0  0  0  0  0
   58.8790   34.6220   47.2110 C   0  0  0  0  0  0  0  0  0  0  0  0
   60.1390   34.5530   46.5790 O   0  0  0  0  0  0  0  0  0  0  0  0
   60.6900   33.2480   46.6900 C   0  0  0  0  0  0  0  0  0  0  0  0
   59.6650   32.1080   46.4870 C   0  0  0  0  0  0  0  0  0  0  0  0
   58.3941   27.5369   47.9595 H   0  0  0  0  0  0  0  0  0  0  0  0
   56.7203   28.0749   47.5598 H   0  0  0  0  0  0  0  0  0  0  0  0
   54.5461   24.1897   44.8729 H   0  0  0  0  0  0  0  0  0  0  0  0
   55.4984   24.4936   43.3763 H   0  0  0  0  0  0  0  0  0  0  0  0
   56.4010   22.3515   42.2186 H   0  0  0  0  0  0  0  0  0  0  0  0
   57.0040   19.9190   42.9390 H   0  0  0  0  0  0  0  0  0  0  0  0
   57.0164   18.5137   45.2934 H   0  0  0  0  0  0  0  0  0  0  0  0
   56.5943   18.7494   47.7690 H   0  0  0  0  0  0  0  0  0  0  0  0
   55.7876   20.9304   48.7046 H   0  0  0  0  0  0  0  0  0  0  0  0
   55.4303   22.9074   47.1804 H   0  0  0  0  0  0  0  0  0  0  0  0
   56.4801   29.0855   43.5629 H   0  0  0  0  0  0  0  0  0  0  0  0
   56.4667   30.3742   41.4308 H   0  0  0  0  0  0  0  0  0  0  0  0
   57.3844   32.6925   41.3629 H   0  0  0  0  0  0  0  0  0  0  0  0
   58.2922   33.7378   43.4331 H   0  0  0  0  0  0  0  0  0  0  0  0
   57.5215   34.4855   45.5348 H   0  0  0  0  0  0  0  0  0  0  0  0
   56.9850   33.6038   47.0080 H   0  0  0  0  0  0  0  0  0  0  0  0
   58.5705   35.6740   47.3006 H   0  0  0  0  0  0  0  0  0  0  0  0
   58.9456   34.1738   48.2133 H   0  0  0  0  0  0  0  0  0  0  0  0
   61.4795   33.1412   45.9315 H   0  0  0  0  0  0  0  0  0  0  0  0
   61.0705   33.1518   47.7176 H   0  0  0  0  0  0  0  0  0  0  0  0
   60.1071   31.3335   45.8430 H   0  0  0  0  0  0  0  0  0  0  0  0
   59.4064   31.6820   47.4676 H   0  0  0  0  0  0  0  0  0  0  0  0
  1  2  2  0
  2  3  1  0
  3  4  1  0
  4  5  1  0
  5  6  1  0
  5  7  2  0
  7  8  1  0
  8  9  1  0
  9 10  2  0
 10 11  1  0
 11 12  1  0
 12 13  2  0
 13 14  1  0
 14 15  2  0
 15 16  1  0
 16 17  2  0
  7 18  1  0
 18 19  1  0
 19 20  2  0
  2 21  1  0
 21 22  1  0
 22 23  2  0
 23 24  1  0
 24 25  2  0
 25 26  1  0
 26 27  2  0
 27 28  1  0
 28 29  1  0
 29 30  1  0
 30 31  1  0
 31 32  1  0
 32 33  1  0
 19  4  1  0
 27 22  1  0
 33 28  1  0
 17  9  1  0
 17 12  1  0
  3 34  1  0
  3 35  1  0
  8 36  1  0
  8 37  1  0
 10 38  1  0
 11 39  1  0
 13 40  1  0
 14 41  1  0
 15 42  1  0
 16 43  1  0
 23 44  1  0
 24 45  1  0
 25 46  1  0
 26 47  1  0
 29 48  1  0
 29 49  1  0
 30 50  1  0
 30 51  1  0
 32 52  1  0
 32 53  1  0
 33 54  1  0
 33 55  1  0
M  CHG  3   6  -1  18  -1  21  -1
M  END
>  <UniqueID>  (27) 
24

>  <SMILES>  (27) 
O=C(Cn1c([O-])c(Cc2c[nH]c3ccccc23)[n-]c1=O)[N-]c1ccccc1N1CCOCC1

>  <Energy>  (27) 
131.67893179208357

>  <Genealogy>  (27) 
O=C(Cn1c([O-])c(Cc2c[nH]c3ccccc23)[n-]c1=O)[N-]c1ccccc1N1CCOCC1 (protonated)
O=C(Cn1c([O-])c(Cc2c[nH]c3ccccc23)[n-]c1=O)[N-]c1ccccc1N1CCOCC1 (3D coordinates assigned)
O=C(Cn1c([O-])c(Cc2c[nH]c3ccccc23)[n-]c1=O)[N-]c1ccccc1N1CCOCC1 (nonaromatic ring conformer: 131.67893179208357 kcal/mol)

>  <smiles>  (27) 
O=C(Cn1c(O)c(Cc2c[nH]c3ccccc23)[nH]c1=O)Nc1ccccc1N1CCOCC1

>  <score_type>  (27) 
oracle

>  <origin>  (27) 
adg

>  <m_score__min__energy>  (27) 
-15.140000000000001

>  <m_primary>  (27) 
energy

$$$$
27:0
     RDKit          3D

 72 76  0  0  0  0  0  0  0  0999 V2000
   57.9130   32.3450   48.5260 O   0  0  0  0  0  0  0  0  0  0  0  0
   58.8990   33.0050   48.9520 C   0  0  0  0  0  0  0  0  0  0  0  0
   59.3730   34.2290   48.2220 C   0  0  0  0  0  0  0  0  0  0  0  0
   58.5650   34.4900   46.9410 C   0  0  0  0  0  0  0  0  0  0  0  0
   59.2710   33.6260   45.5420 S   0  0  0  0  0  0  0  0  0  0  0  0
   58.6900   34.2020   44.2790 O   0  0  0  0  0  0  0  0  0  0  0  0
   60.7600   33.8380   45.5160 O   0  0  0  0  0  0  0  0  0  0  0  0
   58.9380   31.8950   45.6080 C   0  0  0  0  0  0  0  0  0  0  0  0
   57.8340   31.3690   44.9220 C   0  0  0  0  0  0  0  0  0  0  0  0
   57.5290   30.0090   45.0070 C   0  0  0  0  0  0  0  0  0  0  0  0
   58.3130   29.1580   45.7980 C   0  0  0  0  0  0  0  0  0  0  0  0
   57.9880   27.7980   45.9260 C   0  0  0  0  0  0  0  0  0  0  0  0
   58.7540   26.9590   46.7580 C   0  0  0  0  0  0  0  0  0  0  0  0
   58.4410   25.6050   46.9550 O   0  0  0  0  0  0  0  0  0  0  0  0
   57.1600   25.1180   47.3440 C   0  0  0  0  0  0  0  0  0  0  0  0
   56.2690   25.0590   46.1390 C   0  0  0  0  0  0  0  0  0  0  0  0
   55.3870   25.9470   46.0000 O   0  0  0  0  0  0  0  0  0  0  0  0
   56.3300   23.9610   45.2050 N   0  0  0  0  0  0  0  0  0  0  0  0
   56.1200   24.2210   43.7760 C   0  0  0  0  0  0  0  0  0  0  0  0
   55.5750   22.9710   43.0820 C   0  0  0  0  0  0  0  0  0  0  0  0
   56.3660   21.8370   43.3860 O   0  0  0  0  0  0  0  0  0  0  0  0
   56.2510   21.5460   44.7650 C   0  0  0  0  0  0  0  0  0  0  0  0
   56.8750   22.6590   45.6090 C   0  0  0  0  0  0  0  0  0  0  0  0
   59.8630   27.4870   47.4300 C   0  0  0  0  0  0  0  0  0  0  0  0
   60.2060   28.8350   47.2910 C   0  0  0  0  0  0  0  0  0  0  0  0
   59.4320   29.6800   46.4840 C   0  0  0  0  0  0  0  0  0  0  0  0
   59.7450   31.0450   46.3740 C   0  0  0  0  0  0  0  0  0  0  0  0
   59.6520   32.5380   50.0740 N   0  0  0  0  0  0  0  0  0  0  0  0
   60.1020   31.1920   50.2820 C   0  0  0  0  0  0  0  0  0  0  0  0
   59.2800   30.2380   50.9100 C   0  0  0  0  0  0  0  0  0  0  0  0
   59.7610   28.9480   51.1600 C   0  0  0  0  0  0  0  0  0  0  0  0
   61.0650   28.6030   50.8000 C   0  0  0  0  0  0  0  0  0  0  0  0
   61.8930   29.5450   50.1920 C   0  0  0  0  0  0  0  0  0  0  0  0
   61.4210   30.8420   49.9290 C   0  0  0  0  0  0  0  0  0  0  0  0
   62.2670   31.7770   49.2400 N   0  0  0  0  0  0  0  0  0  0  0  0
   62.7300   32.9780   49.9470 C   0  0  0  0  0  0  0  0  0  0  0  0
   62.9610   34.1780   48.9930 C   0  0  0  0  0  0  0  0  0  0  0  0
   62.6730   33.8850   47.6390 O   0  0  0  0  0  0  0  0  0  0  0  0
   63.3600   32.7150   47.2480 C   0  0  0  0  0  0  0  0  0  0  0  0
   62.6560   31.5040   47.8520 C   0  0  0  0  0  0  0  0  0  0  0  0
   59.2731   35.0992   48.8874 H   0  0  0  0  0  0  0  0  0  0  0  0
   60.4214   34.0648   47.9325 H   0  0  0  0  0  0  0  0  0  0  0  0
   57.5318   34.1441   47.0920 H   0  0  0  0  0  0  0  0  0  0  0  0
   58.5862   35.5694   46.7301 H   0  0  0  0  0  0  0  0  0  0  0  0
   57.2034   32.0327   44.3123 H   0  0  0  0  0  0  0  0  0  0  0  0
   56.6704   29.6041   44.4512 H   0  0  0  0  0  0  0  0  0  0  0  0
   57.1307   27.3859   45.3736 H   0  0  0  0  0  0  0  0  0  0  0  0
   57.2642   24.1111   47.7744 H   0  0  0  0  0  0  0  0  0  0  0  0
   56.7213   25.7905   48.0959 H   0  0  0  0  0  0  0  0  0  0  0  0
   55.3995   25.0439   43.6592 H   0  0  0  0  0  0  0  0  0  0  0  0
   57.0819   24.4936   43.3173 H   0  0  0  0  0  0  0  0  0  0  0  0
   54.5440   22.7919   43.4210 H   0  0  0  0  0  0  0  0  0  0  0  0
   55.5999   23.1346   41.9945 H   0  0  0  0  0  0  0  0  0  0  0  0
   55.1867   21.4493   45.0256 H   0  0  0  0  0  0  0  0  0  0  0  0
   56.7829   20.6058   44.9725 H   0  0  0  0  0  0  0  0  0  0  0  0
   56.6474   22.4823   46.6706 H   0  0  0  0  0  0  0  0  0  0  0  0
   57.9643   22.6604   45.4563 H   0  0  0  0  0  0  0  0  0  0  0  0
   60.4707   26.8343   48.0740 H   0  0  0  0  0  0  0  0  0  0  0  0
   61.0861   29.2338   47.8166 H   0  0  0  0  0  0  0  0  0  0  0  0
   60.6279   31.4478   46.8919 H   0  0  0  0  0  0  0  0  0  0  0  0
   58.2553   30.5074   51.2055 H   0  0  0  0  0  0  0  0  0  0  0  0
   59.1098   28.2036   51.6415 H   0  0  0  0  0  0  0  0  0  0  0  0
   61.4391   27.5874   50.9963 H   0  0  0  0  0  0  0  0  0  0  0  0
   62.9222   29.2714   49.9164 H   0  0  0  0  0  0  0  0  0  0  0  0
   61.9732   33.2615   50.6933 H   0  0  0  0  0  0  0  0  0  0  0  0
   63.6938   32.7366   50.4190 H   0  0  0  0  0  0  0  0  0  0  0  0
   62.3151   35.0082   49.3148 H   0  0  0  0  0  0  0  0  0  0  0  0
   64.0290   34.4353   49.0487 H   0  0  0  0  0  0  0  0  0  0  0  0
   63.3576   32.6345   46.1510 H   0  0  0  0  0  0  0  0  0  0  0  0
   64.4002   32.7571   47.6032 H   0  0  0  0  0  0  0  0  0  0  0  0
   61.7562   31.2764   47.2617 H   0  0  0  0  0  0  0  0  0  0  0  0
   63.3453   30.6469   47.8371 H   0  0  0  0  0  0  0  0  0  0  0  0
  1  2  2  0
  2  3  1  0
  3  4  1  0
  4  5  1  0
  5  6  2  0
  5  7  2  0
  5  8  1  0
  8  9  2  0
  9 10  1  0
 10 11  2  0
 11 12  1  0
 12 13  2  0
 13 14  1  0
 14 15  1  0
 15 16  1  0
 16 17  2  0
 16 18  1  0
 18 19  1  0
 19 20  1  0
 20 21  1  0
 21 22  1  0
 22 23  1  0
 13 24  1  0
 24 25  2  0
 25 26  1  0
 26 27  2  0
  2 28  1  0
 28 29  1  0
 29 30  2  0
 30 31  1  0
 31 32  2  0
 32 33  1  0
 33 34  2  0
 34 35  1  0
 35 36  1  0
 36 37  1  0
 37 38  1  0
 38 39  1  0
 39 40  1  0
 27  8  1  0
 34 29  1  0
 40 35  1  0
 26 11  1  0
 23 18  1  0
  3 41  1  0
  3 42  1  0
  4 43  1  0
  4 44  1  0
  9 45  1  0
 10 46  1  0
 12 47  1  0
 15 48  1  0
 15 49  1  0
 19 50  1  0
 19 51  1  0
 20 52  1  0
 20 53  1  0
 22 54  1  0
 22 55  1  0
 23 56  1  0
 23 57  1  0
 24 58  1  0
 25 59  1  0
 27 60  1  0
 30 61  1  0
 31 62  1  0
 32 63  1  0
 33 64  1  0
 36 65  1  0
 36 66  1  0
 37 67  1  0
 37 68  1  0
 39 69  1  0
 39 70  1  0
 40 71  1  0
 40 72  1  0
M  CHG  1  28  -1
M  END
>  <UniqueID>  (28) 
25

>  <SMILES>  (28) 
O=C(CCS(=O)(=O)c1ccc2cc(OCC(=O)N3CCOCC3)ccc2c1)[N-]c1ccccc1N1CCOCC1

>  <Energy>  (28) 
91.13377331865613

>  <Genealogy>  (28) 
O=C(CCS(=O)(=O)c1ccc2cc(OCC(=O)N3CCOCC3)ccc2c1)[N-]c1ccccc1N1CCOCC1 (protonated)
O=C(CCS(=O)(=O)c1ccc2cc(OCC(=O)N3CCOCC3)ccc2c1)[N-]c1ccccc1N1CCOCC1 (3D coordinates assigned)
O=C(CCS(=O)(=O)c1ccc2cc(OCC(=O)N3CCOCC3)ccc2c1)[N-]c1ccccc1N1CCOCC1 (nonaromatic ring conformer: 91.13377331865613 kcal/mol)

>  <smiles>  (28) 
O=C(CCS(=O)(=O)c1ccc2cc(OCC(=O)N3CCOCC3)ccc2c1)Nc1ccccc1N1CCOCC1

>  <score_type>  (28) 
oracle

>  <origin>  (28) 
adg

>  <m_score__min__energy>  (28) 
-12.91

>  <m_primary>  (28) 
energy

$$$$
28:0
     RDKit          3D

 68 72  0  0  0  0  0  0  0  0999 V2000
   57.7880   25.9500   42.8590 C   0  0  0  0  0  0  0  0  0  0  0  0
   57.4420   24.9130   43.8950 C   0  0  0  0  0  0  0  0  0  0  0  0
   56.8580   23.7080   43.4700 C   0  0  0  0  0  0  0  0  0  0  0  0
   56.5550   22.7000   44.3850 C   0  0  0  0  0  0  0  0  0  0  0  0
   56.8230   22.8790   45.7450 C   0  0  0  0  0  0  0  0  0  0  0  0
   56.4420   21.6020   46.9040 S   0  0  0  0  0  0  0  0  0  0  0  0
   57.0050   20.2970   46.4110 O   0  0  0  0  0  0  0  0  0  0  0  0
   57.0950   21.9200   48.2220 O   0  0  0  0  0  0  0  0  0  0  0  0
   54.7160   21.4400   47.1400 N   0  0  0  0  0  0  0  0  0  0  0  0
   54.1570   20.4460   46.2020 C   0  0  0  0  0  0  0  0  0  0  0  0
   52.6360   20.6250   46.0700 C   0  0  0  0  0  0  0  0  0  0  0  0
   52.2320   21.9100   45.6120 O   0  0  0  0  0  0  0  0  0  0  0  0
   53.2180   22.9190   45.7870 C   0  0  0  0  0  0  0  0  0  0  0  0
   54.0260   22.7470   47.0840 C   0  0  0  0  0  0  0  0  0  0  0  0
   57.3980   24.0770   46.1830 C   0  0  0  0  0  0  0  0  0  0  0  0
   57.6960   25.1110   45.2780 C   0  0  0  0  0  0  0  0  0  0  0  0
   58.2680   26.3650   45.8180 C   0  0  0  0  0  0  0  0  0  0  0  0
   59.5140   26.4520   46.0010 O   0  0  0  0  0  0  0  0  0  0  0  0
   57.4230   27.4720   46.1480 N   0  0  0  0  0  0  0  0  0  0  0  0
   57.8560   28.8360   46.1520 C   0  0  0  0  0  0  0  0  0  0  0  0
   59.0560   29.4120   47.1770 S   0  0  0  0  0  0  0  0  0  0  0  0
   58.9320   31.0090   46.6760 C   0  0  0  0  0  0  0  0  0  0  0  0
   57.9410   31.1240   45.7070 C   0  0  0  0  0  0  0  0  0  0  0  0
   57.3490   29.8830   45.3700 C   0  0  0  0  0  0  0  0  0  0  0  0
   56.4130   29.6800   44.2400 C   0  0  0  0  0  0  0  0  0  0  0  0
   55.1260   29.1130   44.4720 N   0  0  0  0  0  0  0  0  0  0  0  0
   56.7480   29.9860   43.0650 O   0  0  0  0  0  0  0  0  0  0  0  0
   57.6990   32.4380   45.0170 C   0  0  0  0  0  0  0  0  0  0  0  0
   58.1410   33.6090   45.9040 C   0  0  0  0  0  0  0  0  0  0  0  0
   59.5010   33.3840   46.4310 N   0  0  0  0  0  0  0  0  0  0  0  0
   60.4620   34.4600   46.5170 C   0  0  0  0  0  0  0  0  0  0  0  0
   60.0530   35.6440   46.6750 O   0  0  0  0  0  0  0  0  0  0  0  0
   61.9460   34.2000   46.4080 C   0  0  0  0  0  0  0  0  0  0  0  0
   62.5650   33.8200   47.7290 C   0  0  0  0  0  0  0  0  0  0  0  0
   63.7390   33.0480   47.7700 C   0  0  0  0  0  0  0  0  0  0  0  0
   64.2980   32.6790   48.9970 C   0  0  0  0  0  0  0  0  0  0  0  0
   63.6870   33.0700   50.1920 C   0  0  0  0  0  0  0  0  0  0  0  0
   62.5110   33.8270   50.1610 C   0  0  0  0  0  0  0  0  0  0  0  0
   61.9480   34.1970   48.9340 C   0  0  0  0  0  0  0  0  0  0  0  0
   59.7660   32.1440   47.1830 C   0  0  0  0  0  0  0  0  0  0  0  0
   58.0980   26.8792   43.3596 H   0  0  0  0  0  0  0  0  0  0  0  0
   58.6113   25.5798   42.2304 H   0  0  0  0  0  0  0  0  0  0  0  0
   56.9074   26.1484   42.2304 H   0  0  0  0  0  0  0  0  0  0  0  0
   56.6371   23.5578   42.4029 H   0  0  0  0  0  0  0  0  0  0  0  0
   56.1032   21.7602   44.0349 H   0  0  0  0  0  0  0  0  0  0  0  0
   54.6239   20.5776   45.2147 H   0  0  0  0  0  0  0  0  0  0  0  0
   54.3639   19.4371   46.5883 H   0  0  0  0  0  0  0  0  0  0  0  0
   52.2617   19.8734   45.3594 H   0  0  0  0  0  0  0  0  0  0  0  0
   52.2176   20.5065   47.0804 H   0  0  0  0  0  0  0  0  0  0  0  0
   53.9116   22.8837   44.9340 H   0  0  0  0  0  0  0  0  0  0  0  0
   52.6949   23.8847   45.8494 H   0  0  0  0  0  0  0  0  0  0  0  0
   54.7778   23.5479   47.1425 H   0  0  0  0  0  0  0  0  0  0  0  0
   53.3242   22.7962   47.9296 H   0  0  0  0  0  0  0  0  0  0  0  0
   57.6203   24.2120   47.2518 H   0  0  0  0  0  0  0  0  0  0  0  0
   54.5710   29.3600   45.3220 H   0  0  0  0  0  0  0  0  0  0  0  0
   58.2698   32.4622   44.0770 H   0  0  0  0  0  0  0  0  0  0  0  0
   56.6224   32.5364   44.8140 H   0  0  0  0  0  0  0  0  0  0  0  0
   58.1333   34.5345   45.3095 H   0  0  0  0  0  0  0  0  0  0  0  0
   57.4442   33.6918   46.7511 H   0  0  0  0  0  0  0  0  0  0  0  0
   62.1087   33.3797   45.6934 H   0  0  0  0  0  0  0  0  0  0  0  0
   62.4242   35.1315   46.0709 H   0  0  0  0  0  0  0  0  0  0  0  0
   64.2200   32.7328   46.8323 H   0  0  0  0  0  0  0  0  0  0  0  0
   65.2202   32.0799   49.0222 H   0  0  0  0  0  0  0  0  0  0  0  0
   64.1309   32.7825   51.1565 H   0  0  0  0  0  0  0  0  0  0  0  0
   62.0284   34.1317   51.1014 H   0  0  0  0  0  0  0  0  0  0  0  0
   61.0188   34.7853   48.9129 H   0  0  0  0  0  0  0  0  0  0  0  0
   60.8291   31.8819   47.0778 H   0  0  0  0  0  0  0  0  0  0  0  0
   59.5094   32.3177   48.2385 H   0  0  0  0  0  0  0  0  0  0  0  0
  1  2  1  0
  2  3  2  0
  3  4  1  0
  4  5  2  0
  5  6  1  0
  6  7  2  0
  6  8  2  0
  6  9  1  0
  9 10  1  0
 10 11  1  0
 11 12  1  0
 12 13  1  0
 13 14  1  0
  5 15  1  0
 15 16  2  0
 16 17  1  0
 17 18  2  0
 17 19  1  0
 19 20  1  0
 20 21  1  0
 21 22  1  0
 22 23  2  0
 23 24  1  0
 24 25  1  0
 25 26  1  0
 25 27  2  0
 23 28  1  0
 28 29  1  0
 29 30  1  0
 30 31  1  0
 31 32  2  0
 31 33  1  0
 33 34  1  0
 34 35  2  0
 35 36  1  0
 36 37  2  0
 37 38  1  0
 38 39  2  0
 30 40  1  0
 16  2  1  0
 24 20  2  0
 39 34  1  0
 14  9  1  0
 40 22  1  0
  1 41  1  0
  1 42  1  0
  1 43  1  0
  3 44  1  0
  4 45  1  0
 10 46  1  0
 10 47  1  0
 11 48  1  0
 11 49  1  0
 13 50  1  0
 13 51  1  0
 14 52  1  0
 14 53  1  0
 15 54  1  0
 26 55  1  0
 28 56  1  0
 28 57  1  0
 29 58  1  0
 29 59  1  0
 33 60  1  0
 33 61  1  0
 35 62  1  0
 36 63  1  0
 37 64  1  0
 38 65  1  0
 39 66  1  0
 40 67  1  0
 40 68  1  0
M  CHG  2  19  -1  26  -1
M  END
>  <UniqueID>  (29) 
26

>  <SMILES>  (29) 
Cc1ccc(S(=O)(=O)N2CCOCC2)cc1C(=O)[N-]c1sc2c(c1C([NH-])=O)CCN(C(=O)Cc1ccccc1)C2

>  <Energy>  (29) 
126.78873825607468

>  <Genealogy>  (29) 
Cc1ccc(S(=O)(=O)N2CCOCC2)cc1C(=O)[N-]c1sc2c(c1C([NH-])=O)CCN(C(=O)Cc1ccccc1)C2 (protonated)
Cc1ccc(S(=O)(=O)N2CCOCC2)cc1C(=O)[N-]c1sc2c(c1C([NH-])=O)CCN(C(=O)Cc1ccccc1)C2 (3D coordinates assigned)
Cc1ccc(S(=O)(=O)N2CCOCC2)cc1C(=O)[N-]c1sc2c(c1C([NH-])=O)CCN(C(=O)Cc1ccccc1)C2 (nonaromatic ring conformer: 126.78873825607468 kcal/mol)

>  <smiles>  (29) 
Cc1ccc(S(=O)(=O)N2CCOCC2)cc1C(=O)Nc1sc2c(c1C(N)=O)CCN(C(=O)Cc1ccccc1)C2

>  <score_type>  (29) 
oracle

>  <origin>  (29) 
adg

>  <m_score__min__energy>  (29) 
-14.300000000000001

>  <m_primary>  (29) 
energy

$$$$
29:0
     RDKit          3D

 45 47  0  0  0  0  0  0  0  0999 V2000
   62.6830   31.5660   47.4940 C   0  0  0  0  0  0  0  0  0  0  0  0
   63.4230   33.1790   47.6230 S   0  0  0  0  0  0  0  0  0  0  0  0
   63.7350   33.7290   46.2590 O   0  0  0  0  0  0  0  0  0  0  0  0
   64.7070   33.0700   48.3950 O   0  0  0  0  0  0  0  0  0  0  0  0
   62.3530   34.2490   48.4710 N   0  0  0  0  0  0  0  0  0  0  0  0
   61.4800   33.9120   49.5610 C   0  0  0  0  0  0  0  0  0  0  0  0
   62.0680   33.3560   50.7110 C   0  0  0  0  0  0  0  0  0  0  0  0
   63.4460   33.1490   50.7510 O   0  0  0  0  0  0  0  0  0  0  0  0
   61.2780   33.0220   51.8170 C   0  0  0  0  0  0  0  0  0  0  0  0
   59.9040   33.2340   51.7860 C   0  0  0  0  0  0  0  0  0  0  0  0
   59.3020   33.7590   50.6430 C   0  0  0  0  0  0  0  0  0  0  0  0
   60.0730   34.0820   49.5050 C   0  0  0  0  0  0  0  0  0  0  0  0
   59.4750   34.5470   48.3190 O   0  0  0  0  0  0  0  0  0  0  0  0
   59.6810   34.0160   47.0050 C   0  0  0  0  0  0  0  0  0  0  0  0
   58.9670   34.8980   45.9580 C   0  0  0  0  0  0  0  0  0  0  0  0
   58.6410   34.0870   44.7000 C   0  0  0  0  0  0  0  0  0  0  0  0
   57.6920   32.9750   44.9760 N   0  0  0  0  0  0  0  0  0  0  0  0
   57.8220   31.8910   43.9770 C   0  0  0  0  0  0  0  0  0  0  0  0
   57.1170   30.6510   44.4410 C   0  0  0  0  0  0  0  0  0  0  0  0
   57.7180   29.4710   44.8220 C   0  0  0  0  0  0  0  0  0  0  0  0
   56.6600   28.6360   45.1070 C   0  0  0  0  0  0  0  0  0  0  0  0
   55.5010   29.2910   44.8950 N   0  0  0  0  0  0  0  0  0  0  0  0
   55.7790   30.5180   44.4850 N   0  0  0  0  0  0  0  0  0  0  0  0
   57.7710   32.4460   46.3620 C   0  0  0  0  0  0  0  0  0  0  0  0
   59.1830   32.5540   46.9570 C   0  0  0  0  0  0  0  0  0  0  0  0
   62.4992   31.1653   48.5018 H   0  0  0  0  0  0  0  0  0  0  0  0
   61.7298   31.6423   46.9502 H   0  0  0  0  0  0  0  0  0  0  0  0
   63.3625   30.8933   46.9502 H   0  0  0  0  0  0  0  0  0  0  0  0
   64.0390   33.3690   49.9590 H   0  0  0  0  0  0  0  0  0  0  0  0
   61.7457   32.5902   52.7141 H   0  0  0  0  0  0  0  0  0  0  0  0
   59.2907   32.9870   52.6651 H   0  0  0  0  0  0  0  0  0  0  0  0
   58.2145   33.9233   50.6277 H   0  0  0  0  0  0  0  0  0  0  0  0
   60.7543   34.0208   46.7642 H   0  0  0  0  0  0  0  0  0  0  0  0
   58.0327   35.2864   46.3896 H   0  0  0  0  0  0  0  0  0  0  0  0
   59.6332   35.7284   45.6811 H   0  0  0  0  0  0  0  0  0  0  0  0
   58.1921   34.7580   43.9528 H   0  0  0  0  0  0  0  0  0  0  0  0
   59.5788   33.6458   44.3313 H   0  0  0  0  0  0  0  0  0  0  0  0
   57.3801   32.2224   43.0258 H   0  0  0  0  0  0  0  0  0  0  0  0
   58.8893   31.6606   43.8439 H   0  0  0  0  0  0  0  0  0  0  0  0
   58.7933   29.2476   44.8842 H   0  0  0  0  0  0  0  0  0  0  0  0
   56.7474   27.5958   45.4539 H   0  0  0  0  0  0  0  0  0  0  0  0
   57.0769   33.0164   46.9967 H   0  0  0  0  0  0  0  0  0  0  0  0
   57.5056   31.3791   46.3265 H   0  0  0  0  0  0  0  0  0  0  0  0
   59.1691   32.1499   47.9800 H   0  0  0  0  0  0  0  0  0  0  0  0
   59.8677   31.9830   46.3127 H   0  0  0  0  0  0  0  0  0  0  0  0
  1  2  1  0
  2  3  2  0
  2  4  2  0
  2  5  1  0
  5  6  1  0
  6  7  2  0
  7  8  1  0
  7  9  1  0
  9 10  2  0
 10 11  1  0
 11 12  2  0
 12 13  1  0
 13 14  1  0
 14 15  1  0
 15 16  1  0
 16 17  1  0
 17 18  1  0
 18 19  1  0
 19 20  1  0
 20 21  2  0
 21 22  1  0
 22 23  1  0
 17 24  1  0
 24 25  1  0
 12  6  1  0
 25 14  1  0
 23 19  2  0
  1 26  1  0
  1 27  1  0
  1 28  1  0
  8 29  1  0
  9 30  1  0
 10 31  1  0
 11 32  1  0
 14 33  1  0
 15 34  1  0
 15 35  1  0
 16 36  1  0
 16 37  1  0
 18 38  1  0
 18 39  1  0
 20 40  1  0
 21 41  1  0
 24 42  1  0
 24 43  1  0
 25 44  1  0
 25 45  1  0
M  CHG  2   5  -1  22  -1
M  END
>  <UniqueID>  (30) 
27

>  <SMILES>  (30) 
CS(=O)(=O)[N-]c1c(O)cccc1OC1CCN(Cc2cc[n-]n2)CC1

>  <Energy>  (30) 
85.56963377582775

>  <Genealogy>  (30) 
CS(=O)(=O)[N-]c1c(O)cccc1OC1CCN(Cc2cc[n-]n2)CC1 (protonated)
CS(=O)(=O)[N-]c1c(O)cccc1OC1CCN(Cc2cc[n-]n2)CC1 (3D coordinates assigned)
CS(=O)(=O)[N-]c1c(O)cccc1OC1CCN(Cc2cc[n-]n2)CC1 (nonaromatic ring conformer: 85.56963377582775 kcal/mol)

>  <smiles>  (30) 
CS(=O)(=O)Nc1c(O)cccc1OC1CCN(Cc2cc[nH]n2)CC1

>  <score_type>  (30) 
oracle

>  <origin>  (30) 
adg

>  <m_score__min__energy>  (30) 
-11.210000000000001

>  <m_primary>  (30) 
energy

$$$$
30:0
     RDKit          3D

 36 39  0  0  0  0  0  0  0  0999 V2000
   59.9161   22.2061   44.4875 H   0  0  0  0  0  0  0  0  0  0  0  0
   58.9050   22.6120   44.6390 C   0  0  0  0  0  0  0  0  0  0  0  0
   57.8520   22.1860   43.8240 C   0  0  0  0  0  0  0  0  0  0  0  0
   58.0347   21.4446   43.0322 H   0  0  0  0  0  0  0  0  0  0  0  0
   56.5670   22.7020   44.0150 C   0  0  0  0  0  0  0  0  0  0  0  0
   55.5220   22.2780   43.2030 O   0  0  0  0  0  0  0  0  0  0  0  0
   56.3320   23.6440   45.0210 C   0  0  0  0  0  0  0  0  0  0  0  0
   55.3201   24.0504   45.1656 H   0  0  0  0  0  0  0  0  0  0  0  0
   57.3850   24.0740   45.8490 C   0  0  0  0  0  0  0  0  0  0  0  0
   57.1410   25.1130   46.9110 C   0  0  0  0  0  0  0  0  0  0  0  0
   57.9531   25.0702   47.6518 H   0  0  0  0  0  0  0  0  0  0  0  0
   56.1742   24.9064   47.3932 H   0  0  0  0  0  0  0  0  0  0  0  0
   57.0960   26.4960   46.3030 C   0  0  0  0  0  0  0  0  0  0  0  0
   55.8960   27.0340   45.8080 C   0  0  0  0  0  0  0  0  0  0  0  0
   54.7050   26.3220   45.9000 O   0  0  0  0  0  0  0  0  0  0  0  0
   55.8870   28.2640   45.2350 N   0  0  0  0  0  0  0  0  0  0  0  0
   57.0210   29.0010   45.1190 C   0  0  0  0  0  0  0  0  0  0  0  0
   56.9590   30.1740   44.5600 N   0  0  0  0  0  0  0  0  0  0  0  0
   57.5760   31.3840   45.0270 C   0  0  0  0  0  0  0  0  0  0  0  0
   57.7610   31.6230   46.3510 N   0  0  0  0  0  0  0  0  0  0  0  0
   58.3500   32.8270   46.3480 C   0  0  0  0  0  0  0  0  0  0  0  0
   58.7720   33.5730   47.4450 C   0  0  0  0  0  0  0  0  0  0  0  0
   58.6422   33.1992   48.4714 H   0  0  0  0  0  0  0  0  0  0  0  0
   59.3710   34.8230   47.1950 C   0  0  0  0  0  0  0  0  0  0  0  0
   59.7168   35.4421   48.0359 H   0  0  0  0  0  0  0  0  0  0  0  0
   59.5300   35.2860   45.8690 C   0  0  0  0  0  0  0  0  0  0  0  0
   59.9993   36.2634   45.6836 H   0  0  0  0  0  0  0  0  0  0  0  0
   59.0910   34.5030   44.7840 C   0  0  0  0  0  0  0  0  0  0  0  0
   59.2082   34.8501   43.7468 H   0  0  0  0  0  0  0  0  0  0  0  0
   58.5030   33.2730   45.0710 C   0  0  0  0  0  0  0  0  0  0  0  0
   58.0180   32.3730   44.2030 N   0  0  0  0  0  0  0  0  0  0  0  0
   58.1960   28.4980   45.5840 N   0  0  0  0  0  0  0  0  0  0  0  0
   58.2620   27.2740   46.1670 C   0  0  0  0  0  0  0  0  0  0  0  0
   59.3720   26.8490   46.5820 O   0  0  0  0  0  0  0  0  0  0  0  0
   58.6740   23.5540   45.6470 C   0  0  0  0  0  0  0  0  0  0  0  0
   59.5056   23.8890   46.2843 H   0  0  0  0  0  0  0  0  0  0  0  0
  1  2  1  0
  2  3  2  0
  3  4  1  0
  3  5  1  0
  5  6  1  0
  5  7  2  0
  7  8  1  0
  7  9  1  0
  9 10  1  0
 10 11  1  0
 10 12  1  0
 10 13  1  0
 13 14  2  0
 14 15  1  0
 14 16  1  0
 16 17  1  0
 17 18  2  0
 18 19  1  0
 19 20  2  0
 20 21  1  0
 21 22  2  0
 22 23  1  0
 22 24  1  0
 24 25  1  0
 24 26  2  0
 26 27  1  0
 26 28  1  0
 28 29  1  0
 28 30  2  0
 30 31  1  0
 17 32  1  0
 32 33  1  0
 33 34  2  0
  9 35  2  0
 35 36  1  0
 35  2  1  0
 33 13  1  0
 31 19  1  0
 30 21  1  0
M  CHG  5   6  -1  15  -1  16  -1  31  -1  32  -1
M  END
>  <UniqueID>  (31) 
28

>  <SMILES>  (31) 
O=c1[n-]/c(=N\c2nc3ccccc3[n-]2)[n-]c([O-])c1Cc1cccc([O-])c1

>  <Energy>  (31) 
80.01795122681987

>  <Genealogy>  (31) 
O=c1[n-]c(=Nc2nc3ccccc3[n-]2)[n-]c([O-])c1Cc1cccc([O-])c1 (protonated)
O=c1[n-]/c(=N\c2nc3ccccc3[n-]2)[n-]c([O-])c1Cc1cccc([O-])c1 (cis-trans isomerization)
O=c1[n-]/c(=N\c2nc3ccccc3[n-]2)[n-]c([O-])c1Cc1cccc([O-])c1 (3D coordinates assigned)
O=c1[n-]/c(=N\c2nc3ccccc3[n-]2)[n-]c([O-])c1Cc1cccc([O-])c1 (optimized conformer: 80.01795122681987 kcal/mol)

>  <smiles>  (31) 
O=c1[nH]c(=Nc2nc3ccccc3[nH]2)[nH]c(O)c1Cc1cccc(O)c1

>  <score_type>  (31) 
oracle

>  <origin>  (31) 
adg

>  <m_score__min__energy>  (31) 
-17.52

>  <m_primary>  (31) 
energy

$$$$
31:0
     RDKit          3D

 55 58  0  0  0  0  0  0  0  0999 V2000
   57.0240   21.1090   42.7040 C   0  0  0  0  0  0  0  0  0  0  0  0
   55.9980   21.8470   43.3590 O   0  0  0  0  0  0  0  0  0  0  0  0
   56.1600   22.5120   44.5840 C   0  0  0  0  0  0  0  0  0  0  0  0
   55.7110   21.9690   45.8000 C   0  0  0  0  0  0  0  0  0  0  0  0
   55.9010   22.6680   46.9940 C   0  0  0  0  0  0  0  0  0  0  0  0
   56.5360   23.9110   46.9860 C   0  0  0  0  0  0  0  0  0  0  0  0
   56.9870   24.4760   45.7810 C   0  0  0  0  0  0  0  0  0  0  0  0
   57.6580   25.7980   45.8110 C   0  0  0  0  0  0  0  0  0  0  0  0
   57.4510   26.8040   44.9660 C   0  0  0  0  0  0  0  0  0  0  0  0
   58.2730   27.9200   45.4210 C   0  0  0  0  0  0  0  0  0  0  0  0
   58.0540   29.2170   45.1720 C   0  0  0  0  0  0  0  0  0  0  0  0
   56.8440   29.7670   43.7880 Br  0  0  0  0  0  0  0  0  0  0  0  0
   58.6310   30.2360   46.0790 C   0  0  0  0  0  0  0  0  0  0  0  0
   58.5010   31.4530   45.7780 O   0  0  0  0  0  0  0  0  0  0  0  0
   59.3460   29.8440   47.3760 C   0  0  2  0  0  0  0  0  0  0  0  0
   58.8660   30.7260   48.5470 C   0  0  0  0  0  0  0  0  0  0  0  0
   60.7690   29.9620   47.2270 O   0  0  0  0  0  0  0  0  0  0  0  0
   61.6120   30.8680   47.8860 C   0  0  0  0  0  0  0  0  0  0  0  0
   61.9440   30.7050   49.0900 O   0  0  0  0  0  0  0  0  0  0  0  0
   62.1430   32.0420   47.1280 C   0  0  0  0  0  0  0  0  0  0  0  0
   61.6750   33.6030   47.9520 S   0  0  0  0  0  0  0  0  0  0  0  0
   60.1850   33.8500   46.9810 C   0  0  0  0  0  0  0  0  0  0  0  0
   60.2780   34.1330   45.6120 C   0  0  0  0  0  0  0  0  0  0  0  0
   59.1170   34.3290   44.8570 C   0  0  0  0  0  0  0  0  0  0  0  0
   57.8620   34.2360   45.4670 C   0  0  0  0  0  0  0  0  0  0  0  0
   57.7660   33.9440   46.8300 C   0  0  0  0  0  0  0  0  0  0  0  0
   58.9260   33.7480   47.5870 C   0  0  0  0  0  0  0  0  0  0  0  0
   59.0400   28.3590   47.7400 C   0  0  0  0  0  0  0  0  0  0  0  0
   59.1550   27.4250   46.5180 C   0  0  2  0  0  0  0  0  0  0  0  0
   60.6000   27.2470   46.0210 C   0  0  0  0  0  0  0  0  0  0  0  0
   58.5980   26.1420   46.7820 O   0  0  0  0  0  0  0  0  0  0  0  0
   56.7950   23.7610   44.5820 C   0  0  0  0  0  0  0  0  0  0  0  0
   57.6757   20.6403   43.4561 H   0  0  0  0  0  0  0  0  0  0  0  0
   56.5701   20.3291   42.0749 H   0  0  0  0  0  0  0  0  0  0  0  0
   57.6190   21.7873   42.0749 H   0  0  0  0  0  0  0  0  0  0  0  0
   55.2084   20.9906   45.8113 H   0  0  0  0  0  0  0  0  0  0  0  0
   55.5493   22.2378   47.9433 H   0  0  0  0  0  0  0  0  0  0  0  0
   56.6847   24.4532   47.9315 H   0  0  0  0  0  0  0  0  0  0  0  0
   56.7859   26.7960   44.0899 H   0  0  0  0  0  0  0  0  0  0  0  0
   59.1282   30.2441   49.5004 H   0  0  0  0  0  0  0  0  0  0  0  0
   59.3526   31.7107   48.4878 H   0  0  0  0  0  0  0  0  0  0  0  0
   57.7749   30.8521   48.4878 H   0  0  0  0  0  0  0  0  0  0  0  0
   63.2398   31.9741   47.0780 H   0  0  0  0  0  0  0  0  0  0  0  0
   61.7150   32.0333   46.1147 H   0  0  0  0  0  0  0  0  0  0  0  0
   61.2647   34.2011   45.1306 H   0  0  0  0  0  0  0  0  0  0  0  0
   59.1911   34.5563   43.7833 H   0  0  0  0  0  0  0  0  0  0  0  0
   56.9495   34.3929   44.8731 H   0  0  0  0  0  0  0  0  0  0  0  0
   56.7781   33.8682   47.3079 H   0  0  0  0  0  0  0  0  0  0  0  0
   58.8495   33.5136   48.6590 H   0  0  0  0  0  0  0  0  0  0  0  0
   59.7547   28.0278   48.5078 H   0  0  0  0  0  0  0  0  0  0  0  0
   58.0049   28.3076   48.1086 H   0  0  0  0  0  0  0  0  0  0  0  0
   61.2769   27.1636   46.8840 H   0  0  0  0  0  0  0  0  0  0  0  0
   60.6683   26.3336   45.4118 H   0  0  0  0  0  0  0  0  0  0  0  0
   60.8879   28.1165   45.4118 H   0  0  0  0  0  0  0  0  0  0  0  0
   57.1482   24.1889   43.6322 H   0  0  0  0  0  0  0  0  0  0  0  0
  1  2  1  0
  2  3  1  0
  3  4  2  0
  4  5  1  0
  5  6  2  0
  6  7  1  0
  7  8  1  0
  8  9  2  0
  9 10  1  0
 10 11  2  0
 11 12  1  0
 11 13  1  0
 13 14  2  0
 13 15  1  0
 15 16  1  0
 15 17  1  6
 17 18  1  0
 18 19  2  0
 18 20  1  0
 20 21  1  0
 21 22  1  0
 22 23  2  0
 23 24  1  0
 24 25  2  0
 25 26  1  0
 26 27  2  0
 15 28  1  0
 28 29  1  0
 29 30  1  6
 29 31  1  0
  7 32  2  0
 32  3  1  0
 31  8  1  0
 29 10  1  0
 27 22  1  0
  1 33  1  0
  1 34  1  0
  1 35  1  0
  4 36  1  0
  5 37  1  0
  6 38  1  0
  9 39  1  0
 16 40  1  0
 16 41  1  0
 16 42  1  0
 20 43  1  0
 20 44  1  0
 23 45  1  0
 24 46  1  0
 25 47  1  0
 26 48  1  0
 27 49  1  0
 28 50  1  0
 28 51  1  0
 30 52  1  0
 30 53  1  0
 30 54  1  0
 32 55  1  0
M  END
>  <UniqueID>  (32) 
29

>  <SMILES>  (32) 
COc1cccc(C2=CC3=C(Br)C(=O)[C@](C)(OC(=O)CSc4ccccc4)C[C@@]3(C)O2)c1

>  <Energy>  (32) 
75.54250979688628

>  <Genealogy>  (32) 
COc1cccc(C2=CC3=C(Br)C(=O)[C@](C)(OC(=O)CSc4ccccc4)C[C@@]3(C)O2)c1 (chirality)
COc1cccc(C2=CC3=C(Br)C(=O)[C@](C)(OC(=O)CSc4ccccc4)C[C@@]3(C)O2)c1 (3D coordinates assigned)
COc1cccc(C2=CC3=C(Br)C(=O)[C@](C)(OC(=O)CSc4ccccc4)C[C@@]3(C)O2)c1 (nonaromatic ring conformer: 75.54250979688628 kcal/mol)

>  <smiles>  (32) 
COc1cccc(C2=CC3=C(Br)C(=O)C(C)(OC(=O)CSc4ccccc4)CC3(C)O2)c1

>  <score_type>  (32) 
oracle

>  <origin>  (32) 
adg

>  <m_score__min__energy>  (32) 
-10.199999999999999

>  <m_primary>  (32) 
energy

$$$$
32:0
     RDKit          3D

 50 53  0  0  0  0  0  0  0  0999 V2000
   60.1320   27.1910   46.8580 C   0  0  0  0  0  0  0  0  0  0  0  0
   59.3140   28.1240   46.3450 C   0  0  0  0  0  0  0  0  0  0  0  0
   58.2230   27.8970   45.4980 C   0  0  0  0  0  0  0  0  0  0  0  0
   57.7930   26.7130   45.0210 C   0  0  0  0  0  0  0  0  0  0  0  0
   57.1180   25.6890   45.8400 C   0  0  0  0  0  0  0  0  0  0  0  0
   57.7590   24.6420   46.3870 N   0  0  0  0  0  0  0  0  0  0  0  0
   56.7970   24.0260   47.1060 C   0  0  0  0  0  0  0  0  0  0  0  0
   57.0110   22.9760   47.7670 O   0  0  0  0  0  0  0  0  0  0  0  0
   55.5890   24.6290   47.0720 N   0  0  0  0  0  0  0  0  0  0  0  0
   55.8110   25.6870   46.2760 C   0  0  0  0  0  0  0  0  0  0  0  0
   54.8510   26.6520   45.9970 O   0  0  0  0  0  0  0  0  0  0  0  0
   57.7050   29.1470   45.1890 C   0  0  0  0  0  0  0  0  0  0  0  0
   58.4730   30.0740   45.8650 C   0  0  0  0  0  0  0  0  0  0  0  0
   58.2740   31.5580   45.7910 C   0  0  0  0  0  0  0  0  0  0  0  0
   59.4530   29.4570   46.5620 N   0  0  0  0  0  0  0  0  0  0  0  0
   60.4410   30.1090   47.3790 C   0  0  0  0  0  0  0  0  0  0  0  0
   60.3670   30.0290   48.7760 C   0  0  0  0  0  0  0  0  0  0  0  0
   61.3340   30.6500   49.5700 C   0  0  0  0  0  0  0  0  0  0  0  0
   62.3980   31.3470   48.9750 C   0  0  0  0  0  0  0  0  0  0  0  0
   63.4200   32.0160   49.8030 C   0  0  0  0  0  0  0  0  0  0  0  0
   64.6080   31.5970   49.7660 O   0  0  0  0  0  0  0  0  0  0  0  0
   63.1010   33.1040   50.6790 N   0  0  0  0  0  0  0  0  0  0  0  0
   62.4510   34.3420   50.2660 C   0  0  0  0  0  0  0  0  0  0  0  0
   61.1760   34.0170   49.5430 C   0  0  0  0  0  0  0  0  0  0  0  0
   60.9910   34.4280   48.2130 C   0  0  0  0  0  0  0  0  0  0  0  0
   59.7900   34.1540   47.5530 C   0  0  0  0  0  0  0  0  0  0  0  0
   58.7620   33.4790   48.2170 C   0  0  0  0  0  0  0  0  0  0  0  0
   58.9310   33.0790   49.5500 C   0  0  0  0  0  0  0  0  0  0  0  0
   57.9110   32.4120   50.2250 O   0  0  0  0  0  0  0  0  0  0  0  0
   60.1330   33.3530   50.2120 C   0  0  0  0  0  0  0  0  0  0  0  0
   62.4590   31.4460   47.5770 C   0  0  0  0  0  0  0  0  0  0  0  0
   61.4910   30.8230   46.7820 C   0  0  0  0  0  0  0  0  0  0  0  0
   60.9617   27.4887   47.5160 H   0  0  0  0  0  0  0  0  0  0  0  0
   59.9724   26.1289   46.6203 H   0  0  0  0  0  0  0  0  0  0  0  0
   57.9553   26.4965   43.9548 H   0  0  0  0  0  0  0  0  0  0  0  0
   56.8481   29.3583   44.5324 H   0  0  0  0  0  0  0  0  0  0  0  0
   58.2185   31.9717   46.8087 H   0  0  0  0  0  0  0  0  0  0  0  0
   59.1189   32.0150   45.2550 H   0  0  0  0  0  0  0  0  0  0  0  0
   57.3385   31.7762   45.2550 H   0  0  0  0  0  0  0  0  0  0  0  0
   59.5435   29.4745   49.2497 H   0  0  0  0  0  0  0  0  0  0  0  0
   61.2617   30.5928   50.6661 H   0  0  0  0  0  0  0  0  0  0  0  0
   62.2249   34.9518   51.1532 H   0  0  0  0  0  0  0  0  0  0  0  0
   63.1201   34.9038   49.5977 H   0  0  0  0  0  0  0  0  0  0  0  0
   61.7939   34.9673   47.6891 H   0  0  0  0  0  0  0  0  0  0  0  0
   59.6535   34.4704   46.5084 H   0  0  0  0  0  0  0  0  0  0  0  0
   57.8195   33.2614   47.6932 H   0  0  0  0  0  0  0  0  0  0  0  0
   56.9440   32.7020   50.1430 H   0  0  0  0  0  0  0  0  0  0  0  0
   60.2624   33.0474   51.2608 H   0  0  0  0  0  0  0  0  0  0  0  0
   63.2719   32.0162   47.1036 H   0  0  0  0  0  0  0  0  0  0  0  0
   61.5532   30.8931   45.6860 H   0  0  0  0  0  0  0  0  0  0  0  0
  1  2  2  0
  2  3  1  0
  3  4  2  3
  4  5  1  0
  5  6  1  0
  6  7  1  0
  7  8  2  0
  7  9  1  0
  9 10  1  0
 10 11  1  0
  3 12  1  0
 12 13  2  0
 13 14  1  0
 13 15  1  0
 15 16  1  0
 16 17  2  0
 17 18  1  0
 18 19  2  0
 19 20  1  0
 20 21  2  0
 20 22  1  0
 22 23  1  0
 23 24  1  0
 24 25  2  0
 25 26  1  0
 26 27  2  0
 27 28  1  0
 28 29  1  0
 28 30  2  0
 19 31  1  0
 31 32  2  0
 15  2  1  0
 32 16  1  0
 10  5  2  0
 30 24  1  0
  1 33  1  0
  1 34  1  0
  4 35  1  0
 12 36  1  0
 14 37  1  0
 14 38  1  0
 14 39  1  0
 17 40  1  0
 18 41  1  0
 23 42  1  0
 23 43  1  0
 25 44  1  0
 26 45  1  0
 27 46  1  0
 29 47  1  0
 30 48  1  0
 31 49  1  0
 32 50  1  0
M  CHG  4   6  -1   9  -1  11  -1  22  -1
M  END
>  <UniqueID>  (33) 
30

>  <SMILES>  (33) 
C=c1c(=Cc2[n-]c(=O)[n-]c2[O-])cc(C)n1-c1ccc(C(=O)[N-]Cc2cccc(O)c2)cc1

>  <Energy>  (33) 
128.33227502459596

>  <Genealogy>  (33) 
C=c1c(=Cc2[n-]c(=O)[n-]c2[O-])cc(C)n1-c1ccc(C(=O)[N-]Cc2cccc(O)c2)cc1 (protonated)
C=c1c(=Cc2[n-]c(=O)[n-]c2[O-])cc(C)n1-c1ccc(C(=O)[N-]Cc2cccc(O)c2)cc1 (3D coordinates assigned)
C=c1c(=Cc2[n-]c(=O)[n-]c2[O-])cc(C)n1-c1ccc(C(=O)[N-]Cc2cccc(O)c2)cc1 (optimized conformer: 128.33227502459596 kcal/mol)

>  <smiles>  (33) 
C=c1c(=Cc2[nH]c(=O)[nH]c2O)cc(C)n1-c1ccc(C(=O)NCc2cccc(O)c2)cc1

>  <score_type>  (33) 
oracle

>  <origin>  (33) 
adg

>  <m_score__min__energy>  (33) 
-17.07

>  <m_primary>  (33) 
energy

$$$$
33:0
     RDKit          3D

 68 72  0  0  0  0  0  0  0  0999 V2000
   58.0410   32.4490   48.9480 H   0  0  0  0  0  0  0  0  0  0  0  0
   58.0450   31.5680   49.4060 O   0  0  0  0  0  0  0  0  0  0  0  0
   59.3740   31.0960   49.4040 C   0  0  1  0  0  0  0  0  0  0  0  0
   60.2090   31.8780   50.4610 C   0  0  0  0  0  0  0  0  0  0  0  0
   60.7908   31.1586   51.0560 H   0  0  0  0  0  0  0  0  0  0  0  0
   60.8670   32.5763   49.9230 H   0  0  0  0  0  0  0  0  0  0  0  0
   59.3620   32.6620   51.3640 N   0  0  0  0  0  0  0  0  0  0  0  0
   58.4620   32.1850   52.2470 C   0  0  0  0  0  0  0  0  0  0  0  0
   58.2305   31.1241   52.4225 H   0  0  0  0  0  0  0  0  0  0  0  0
   57.8820   33.2560   52.8920 C   0  0  0  0  0  0  0  0  0  0  0  0
   57.1035   33.1937   53.6666 H   0  0  0  0  0  0  0  0  0  0  0  0
   58.4270   34.3910   52.4160 N   0  0  0  0  0  0  0  0  0  0  0  0
   58.2000   35.3680   52.7050 H   0  0  0  0  0  0  0  0  0  0  0  0
   59.3260   34.0040   51.4910 C   0  0  0  0  0  0  0  0  0  0  0  0
   59.9533   34.6968   50.9109 H   0  0  0  0  0  0  0  0  0  0  0  0
   59.3830   29.5850   49.7110 C   0  0  0  0  0  0  0  0  0  0  0  0
   58.3866   29.1585   49.5232 H   0  0  0  0  0  0  0  0  0  0  0  0
   59.6416   29.4073   50.7653 H   0  0  0  0  0  0  0  0  0  0  0  0
   60.4110   28.9310   48.7900 C   0  0  0  0  0  0  0  0  0  0  0  0
   59.9359   28.1266   48.2093 H   0  0  0  0  0  0  0  0  0  0  0  0
   61.2322   28.4941   49.3772 H   0  0  0  0  0  0  0  0  0  0  0  0
   60.9400   30.0070   47.8500 C   0  0  0  0  0  0  0  0  0  0  0  0
   60.9191   29.6440   46.8118 H   0  0  0  0  0  0  0  0  0  0  0  0
   61.9798   30.2659   48.0984 H   0  0  0  0  0  0  0  0  0  0  0  0
   60.0260   31.2260   47.9980 C   0  0  1  0  0  0  0  0  0  0  0  0
   60.5762   32.1766   47.9378 H   0  0  0  0  0  0  0  0  0  0  0  0
   59.0250   31.3180   46.8390 C   0  0  0  0  0  0  0  0  0  0  0  0
   58.8170   30.2150   45.9870 C   0  0  0  0  0  0  0  0  0  0  0  0
   59.3941   29.2925   46.1479 H   0  0  0  0  0  0  0  0  0  0  0  0
   57.8910   30.2710   44.9410 C   0  0  0  0  0  0  0  0  0  0  0  0
   57.7250   29.0920   44.0640 C   0  0  0  0  0  0  0  0  0  0  0  0
   57.7815   29.2581   42.9781 H   0  0  0  0  0  0  0  0  0  0  0  0
   57.5110   27.8360   44.4850 C   0  0  0  0  0  0  0  0  0  0  0  0
   57.7634   27.0194   43.7925 H   0  0  0  0  0  0  0  0  0  0  0  0
   56.9620   27.4630   45.8080 C   0  0  0  0  0  0  0  0  0  0  0  0
   57.6450   27.6540   46.8500 O   0  0  0  0  0  0  0  0  0  0  0  0
   55.6880   26.8210   45.9340 N   0  0  0  0  0  0  0  0  0  0  0  0
   55.4300   25.1090   45.8520 S   0  0  0  0  0  0  0  0  0  0  0  0
   55.8410   24.4670   47.1480 O   0  0  0  0  0  0  0  0  0  0  0  0
   53.9690   24.8520   45.6220 O   0  0  0  0  0  0  0  0  0  0  0  0
   56.3510   24.4090   44.4990 C   0  0  0  0  0  0  0  0  0  0  0  0
   57.1683   23.7878   44.8943 H   0  0  0  0  0  0  0  0  0  0  0  0
   55.6835   23.7882   43.8833 H   0  0  0  0  0  0  0  0  0  0  0  0
   56.7704   25.2184   43.8833 H   0  0  0  0  0  0  0  0  0  0  0  0
   57.2060   31.4680   44.6940 C   0  0  0  0  0  0  0  0  0  0  0  0
   56.5053   31.5337   43.8486 H   0  0  0  0  0  0  0  0  0  0  0  0
   57.4090   32.5770   45.5160 C   0  0  0  0  0  0  0  0  0  0  0  0
   56.8574   33.5082   45.3195 H   0  0  0  0  0  0  0  0  0  0  0  0
   58.3120   32.5170   46.5940 C   0  0  0  0  0  0  0  0  0  0  0  0
   58.5280   33.6250   47.4320 O   0  0  0  0  0  0  0  0  0  0  0  0
   59.6310   34.5320   47.3550 C   0  0  0  0  0  0  0  0  0  0  0  0
   59.2429   35.5094   47.0325 H   0  0  0  0  0  0  0  0  0  0  0  0
   60.3180   34.6200   48.7360 C   0  0  0  0  0  0  0  0  0  0  0  0
   60.3590   35.6623   49.0853 H   0  0  0  0  0  0  0  0  0  0  0  0
   59.7773   34.0576   49.5114 H   0  0  0  0  0  0  0  0  0  0  0  0
   61.6800   34.0920   48.5000 C   0  0  0  0  0  0  0  0  0  0  0  0
   62.6890   33.9260   49.4540 C   0  0  0  0  0  0  0  0  0  0  0  0
   62.5141   34.1907   50.5072 H   0  0  0  0  0  0  0  0  0  0  0  0
   63.9290   33.4150   49.0410 C   0  0  0  0  0  0  0  0  0  0  0  0
   64.7361   33.2746   49.7751 H   0  0  0  0  0  0  0  0  0  0  0  0
   64.1430   33.0820   47.6920 C   0  0  0  0  0  0  0  0  0  0  0  0
   65.1168   32.6816   47.3736 H   0  0  0  0  0  0  0  0  0  0  0  0
   63.1180   33.2590   46.7510 C   0  0  0  0  0  0  0  0  0  0  0  0
   63.2779   33.0039   45.6930 H   0  0  0  0  0  0  0  0  0  0  0  0
   61.8890   33.7660   47.1840 C   0  0  0  0  0  0  0  0  0  0  0  0
   60.6940   34.0230   46.3500 C   0  0  0  0  0  0  0  0  0  0  0  0
   60.9073   34.7868   45.5877 H   0  0  0  0  0  0  0  0  0  0  0  0
   60.3620   33.1284   45.8028 H   0  0  0  0  0  0  0  0  0  0  0  0
  1  2  1  0
  3  2  1  6
  3  4  1  0
  4  5  1  0
  4  6  1  0
  4  7  1  0
  7  8  1  0
  8  9  1  0
  8 10  2  0
 10 11  1  0
 10 12  1  0
 12 13  1  0
 12 14  2  0
 14 15  1  0
  3 16  1  0
 16 17  1  0
 16 18  1  0
 16 19  1  0
 19 20  1  0
 19 21  1  0
 19 22  1  0
 22 23  1  0
 22 24  1  0
 22 25  1  0
 25 26  1  1
 25 27  1  0
 27 28  2  0
 28 29  1  0
 28 30  1  0
 30 31  1  0
 31 32  1  0
 31 33  2  0
 33 34  1  0
 33 35  1  0
 35 36  2  0
 35 37  1  0
 37 38  1  0
 38 39  2  0
 38 40  2  0
 38 41  1  0
 41 42  1  0
 41 43  1  0
 41 44  1  0
 30 45  2  0
 45 46  1  0
 45 47  1  0
 47 48  1  0
 47 49  2  0
 49 50  1  0
 50 51  1  0
 51 52  1  0
 51 53  1  0
 53 54  1  0
 53 55  1  0
 53 56  1  0
 56 57  2  0
 57 58  1  0
 57 59  1  0
 59 60  1  0
 59 61  2  0
 61 62  1  0
 61 63  1  0
 63 64  1  0
 63 65  2  0
 65 66  1  0
 66 67  1  0
 66 68  1  0
 25  3  1  0
 49 27  1  0
 66 51  1  0
 14  7  1  0
 65 56  1  0
M  CHG  2  12   1  37  -1
M  END
>  <UniqueID>  (34) 
31

>  <SMILES>  (34) 
CS(=O)(=O)[N-]C(=O)/C=C\c1ccc(OC2Cc3ccccc3C2)c([C@@H]2CCC[C@@]2(O)Cn2cc[nH+]c2)c1

>  <Energy>  (34) 
122.79567811823819

>  <Genealogy>  (34) 
CS(=O)(=O)[N-]C(=O)C=Cc1ccc(OC2Cc3ccccc3C2)c(C2CCCC2(O)Cn2cc[nH+]c2)c1 (protonated)
CS(=O)(=O)[N-]C(=O)C=Cc1ccc(OC2Cc3ccccc3C2)c([C@@H]2CCC[C@@]2(O)Cn2cc[nH+]c2)c1 (chirality)
CS(=O)(=O)[N-]C(=O)/C=C\c1ccc(OC2Cc3ccccc3C2)c([C@@H]2CCC[C@@]2(O)Cn2cc[nH+]c2)c1 (cis-trans isomerization)
CS(=O)(=O)[N-]C(=O)/C=C\c1ccc(OC2Cc3ccccc3C2)c([C@@H]2CCC[C@@]2(O)Cn2cc[nH+]c2)c1 (3D coordinates assigned)
CS(=O)(=O)[N-]C(=O)/C=C\c1ccc(OC2Cc3ccccc3C2)c([C@@H]2CCC[C@@]2(O)Cn2cc[nH+]c2)c1 (nonaromatic ring conformer: 122.79567811823819 kcal/mol)

>  <smiles>  (34) 
CS(=O)(=O)NC(=O)C=Cc1ccc(OC2Cc3ccccc3C2)c(C2CCCC2(O)Cn2ccnc2)c1

>  <score_type>  (34) 
oracle

>  <origin>  (34) 
adg

>  <m_score__min__energy>  (34) 
-10.91

>  <m_primary>  (34) 
energy

$$$$
34:0
     RDKit          3D

 47 49  0  0  0  0  0  0  0  0999 V2000
   57.5350   33.0090   48.2160 O   0  0  0  0  0  0  0  0  0  0  0  0
   58.2210   33.0430   47.1600 C   0  0  0  0  0  0  0  0  0  0  0  0
   57.9480   34.0910   46.1620 C   0  0  0  0  0  0  0  0  0  0  0  0
   58.0100   33.8530   44.8430 C   0  0  0  0  0  0  0  0  0  0  0  0
   57.4880   32.6230   44.2000 C   0  0  0  0  0  0  0  0  0  0  0  0
   57.8190   32.3770   42.8570 C   0  0  0  0  0  0  0  0  0  0  0  0
   57.3430   31.2360   42.2050 C   0  0  0  0  0  0  0  0  0  0  0  0
   56.5190   30.3290   42.8810 C   0  0  0  0  0  0  0  0  0  0  0  0
   56.0420   29.1890   42.2360 O   0  0  0  0  0  0  0  0  0  0  0  0
   56.1680   30.5730   44.2140 C   0  0  0  0  0  0  0  0  0  0  0  0
   55.3400   29.6840   44.8900 O   0  0  0  0  0  0  0  0  0  0  0  0
   56.6450   31.7130   44.8700 C   0  0  0  0  0  0  0  0  0  0  0  0
   59.2890   32.1090   46.9570 N   0  0  0  0  0  0  0  0  0  0  0  0
   60.6910   32.3290   47.1940 C   0  0  0  0  0  0  0  0  0  0  0  0
   61.1410   33.5440   47.7370 C   0  0  0  0  0  0  0  0  0  0  0  0
   62.4980   33.7320   47.9840 C   0  0  0  0  0  0  0  0  0  0  0  0
   63.4000   32.7140   47.6980 C   0  0  0  0  0  0  0  0  0  0  0  0
   62.9280   31.5080   47.1810 C   0  0  0  0  0  0  0  0  0  0  0  0
   61.5910   31.3130   46.9550 N   0  0  0  0  0  0  0  0  0  0  0  0
   61.1420   30.0210   46.4010 C   0  0  0  0  0  0  0  0  0  0  0  0
   60.4980   29.1560   47.4560 C   0  0  0  0  0  0  0  0  0  0  0  0
   60.9990   29.1480   48.6140 O   0  0  0  0  0  0  0  0  0  0  0  0
   59.3150   28.3080   47.1730 C   0  0  0  0  0  0  0  0  0  0  0  0
   59.2080   27.0370   47.7620 C   0  0  0  0  0  0  0  0  0  0  0  0
   58.1060   26.2200   47.4960 C   0  0  0  0  0  0  0  0  0  0  0  0
   57.0810   26.6610   46.6400 C   0  0  0  0  0  0  0  0  0  0  0  0
   55.9120   25.8000   46.3560 C   0  0  0  0  0  0  0  0  0  0  0  0
   55.9300   24.5760   46.6560 O   0  0  0  0  0  0  0  0  0  0  0  0
   54.7770   26.3290   45.7540 O   0  0  0  0  0  0  0  0  0  0  0  0
   57.1820   27.9350   46.0600 C   0  0  0  0  0  0  0  0  0  0  0  0
   58.2850   28.7520   46.3260 C   0  0  0  0  0  0  0  0  0  0  0  0
   57.6849   35.1011   46.5090 H   0  0  0  0  0  0  0  0  0  0  0  0
   58.4755   34.6152   44.2008 H   0  0  0  0  0  0  0  0  0  0  0  0
   58.4583   33.0885   42.3139 H   0  0  0  0  0  0  0  0  0  0  0  0
   57.6172   31.0501   41.1561 H   0  0  0  0  0  0  0  0  0  0  0  0
   55.2520   28.6680   42.5950 H   0  0  0  0  0  0  0  0  0  0  0  0
   56.3603   31.9006   45.9158 H   0  0  0  0  0  0  0  0  0  0  0  0
   60.4227   34.3449   47.9665 H   0  0  0  0  0  0  0  0  0  0  0  0
   62.8554   34.6836   48.4044 H   0  0  0  0  0  0  0  0  0  0  0  0
   64.4756   32.8582   47.8777 H   0  0  0  0  0  0  0  0  0  0  0  0
   63.6397   30.7014   46.9513 H   0  0  0  0  0  0  0  0  0  0  0  0
   60.4116   30.2107   45.6007 H   0  0  0  0  0  0  0  0  0  0  0  0
   62.0231   29.4895   46.0122 H   0  0  0  0  0  0  0  0  0  0  0  0
   59.9990   26.6817   48.4388 H   0  0  0  0  0  0  0  0  0  0  0  0
   58.0397   25.2246   47.9595 H   0  0  0  0  0  0  0  0  0  0  0  0
   56.3865   28.2939   45.3904 H   0  0  0  0  0  0  0  0  0  0  0  0
   58.3472   29.7505   45.8686 H   0  0  0  0  0  0  0  0  0  0  0  0
  1  2  2  0
  2  3  1  0
  3  4  2  3
  4  5  1  0
  5  6  2  0
  6  7  1  0
  7  8  2  0
  8  9  1  0
  8 10  1  0
 10 11  1  0
 10 12  2  0
  2 13  1  0
 13 14  1  0
 14 15  2  0
 15 16  1  0
 16 17  2  0
 17 18  1  0
 18 19  2  0
 19 20  1  0
 20 21  1  0
 21 22  2  0
 21 23  1  0
 23 24  2  0
 24 25  1  0
 25 26  2  0
 26 27  1  0
 27 28  2  0
 27 29  1  0
 26 30  1  0
 30 31  2  0
 12  5  1  0
 19 14  1  0
 31 23  1  0
  3 32  1  0
  4 33  1  0
  6 34  1  0
  7 35  1  0
  9 36  1  0
 12 37  1  0
 15 38  1  0
 16 39  1  0
 17 40  1  0
 18 41  1  0
 20 42  1  0
 20 43  1  0
 24 44  1  0
 25 45  1  0
 30 46  1  0
 31 47  1  0
M  CHG  4  11  -1  13  -1  19   1  29  -1
M  END
>  <UniqueID>  (35) 
32

>  <SMILES>  (35) 
O=C(C=Cc1ccc(O)c([O-])c1)[N-]c1cccc[n+]1CC(=O)c1ccc(C(=O)[O-])cc1

>  <Energy>  (35) 
58.142112037056556

>  <Genealogy>  (35) 
O=C(C=Cc1ccc(O)c([O-])c1)[N-]c1cccc[n+]1CC(=O)c1ccc(C(=O)[O-])cc1 (protonated)
O=C(C=Cc1ccc(O)c([O-])c1)[N-]c1cccc[n+]1CC(=O)c1ccc(C(=O)[O-])cc1 (3D coordinates assigned)
O=C(C=Cc1ccc(O)c([O-])c1)[N-]c1cccc[n+]1CC(=O)c1ccc(C(=O)[O-])cc1 (optimized conformer: 58.142112037056556 kcal/mol)

>  <smiles>  (35) 
O=C(C=Cc1ccc(O)c(O)c1)Nc1cccc[n+]1CC(=O)c1ccc(C(=O)O)cc1

>  <score_type>  (35) 
oracle

>  <origin>  (35) 
adg

>  <m_score__min__energy>  (35) 
-15.32

>  <m_primary>  (35) 
energy

$$$$
35:0
     RDKit          3D

 45 46  0  0  1  0  0  0  0  0999 V2000
   56.5240   23.4700   47.3120 C   0  0  0  0  0  0  0  0  0  0  0  0
   56.5820   23.3740   45.8520 C   0  0  0  0  0  0  0  0  0  0  0  0
   56.5480   22.1340   45.2430 C   0  0  0  0  0  0  0  0  0  0  0  0
   56.5950   21.9600   43.8790 C   0  0  0  0  0  0  0  0  0  0  0  0
   56.6810   23.0850   43.0630 C   0  0  0  0  0  0  0  0  0  0  0  0
   56.7150   24.3360   43.6500 C   0  0  0  0  0  0  0  0  0  0  0  0
   56.6660   24.4830   45.0400 C   0  0  0  0  0  0  0  0  0  0  0  0
   56.7180   26.0850   45.6870 S   0  0  0  0  0  0  0  0  0  0  0  0
   55.3700   26.6390   45.9650 O   0  0  0  0  0  0  0  0  0  0  0  0
   57.5260   26.0800   46.9610 O   0  0  0  0  0  0  0  0  0  0  0  0
   57.5040   27.1790   44.5850 N   0  0  0  0  0  0  0  0  0  0  0  0
   58.9200   27.1810   44.7610 C   0  0  0  0  0  0  0  0  0  0  0  0
   59.5030   28.5470   45.0120 C   0  0  0  0  0  0  0  0  0  0  0  0
   60.7380   28.6070   44.8700 O   0  0  0  0  0  0  0  0  0  0  0  0
   58.6620   29.6190   45.3710 N   0  0  0  0  0  0  0  0  0  0  0  0
   58.9090   30.9520   45.6490 C   0  0  0  0  0  0  0  0  0  0  0  0
   60.2290   31.1920   46.9010 S   0  0  0  0  0  0  0  0  0  0  0  0
   60.0660   33.0120   46.8560 C   0  0  0  0  0  0  0  0  0  0  0  0
   59.0790   33.2500   45.9450 C   0  0  0  0  0  0  0  0  0  0  0  0
   58.4970   32.1850   45.3360 C   0  0  0  0  0  0  0  0  0  0  0  0
   57.3810   32.4110   44.3230 C   0  0  0  0  0  0  0  0  0  0  0  0
   57.4800   31.4780   43.1590 C   0  0  0  0  0  0  0  0  0  0  0  0
   56.7760   30.1860   43.4990 C   0  0  0  0  0  0  0  0  0  0  0  0
   57.0060   29.0640   42.7020 O   0  0  0  0  0  0  0  0  0  0  0  0
   55.9700   30.0940   44.5010 N   0  0  0  0  0  0  0  0  0  0  0  0
   55.5190   28.8750   44.9680 O   0  0  0  0  0  0  0  0  0  0  0  0
   57.0442   22.6090   47.7570 H   0  0  0  0  0  0  0  0  0  0  0  0
   57.0108   24.4010   47.6379 H   0  0  0  0  0  0  0  0  0  0  0  0
   55.4734   23.4721   47.6379 H   0  0  0  0  0  0  0  0  0  0  0  0
   56.4799   21.2407   45.8812 H   0  0  0  0  0  0  0  0  0  0  0  0
   56.5652   20.9512   43.4414 H   0  0  0  0  0  0  0  0  0  0  0  0
   56.7212   22.9799   41.9688 H   0  0  0  0  0  0  0  0  0  0  0  0
   56.7817   25.2306   43.0134 H   0  0  0  0  0  0  0  0  0  0  0  0
   57.0870   28.1370   44.7120 H   0  0  0  0  0  0  0  0  0  0  0  0
   59.1630   26.5378   45.6197 H   0  0  0  0  0  0  0  0  0  0  0  0
   59.3586   26.8150   43.8210 H   0  0  0  0  0  0  0  0  0  0  0  0
   57.6200   29.2900   45.4130 H   0  0  0  0  0  0  0  0  0  0  0  0
   60.6376   33.7519   47.4355 H   0  0  0  0  0  0  0  0  0  0  0  0
   58.7630   34.2771   45.7100 H   0  0  0  0  0  0  0  0  0  0  0  0
   56.4128   32.2549   44.8213 H   0  0  0  0  0  0  0  0  0  0  0  0
   57.4728   33.4388   43.9418 H   0  0  0  0  0  0  0  0  0  0  0  0
   57.0048   31.9357   42.2788 H   0  0  0  0  0  0  0  0  0  0  0  0
   58.5379   31.2755   42.9357 H   0  0  0  0  0  0  0  0  0  0  0  0
   56.5960   28.1690   42.9330 H   0  0  0  0  0  0  0  0  0  0  0  0
   55.7830   28.0180   44.5040 H   0  0  0  0  0  0  0  0  0  0  0  0
  1  2  1  0
  2  3  2  0
  3  4  1  0
  4  5  2  0
  5  6  1  0
  6  7  2  0
  7  8  1  0
  8  9  2  0
  8 10  2  0
  8 11  1  0
 11 12  1  0
 12 13  1  0
 13 14  2  0
 13 15  1  0
 15 16  1  0
 16 17  1  0
 17 18  1  0
 18 19  2  0
 19 20  1  0
 20 21  1  0
 21 22  1  0
 22 23  1  0
 23 24  1  0
 23 25  2  0
 25 26  1  0
  7  2  1  0
 20 16  2  0
  1 27  1  0
  1 28  1  0
  1 29  1  0
  3 30  1  0
  4 31  1  0
  5 32  1  0
  6 33  1  0
 11 34  1  0
 12 35  1  0
 12 36  1  0
 15 37  1  0
 18 38  1  0
 19 39  1  0
 21 40  1  0
 21 41  1  0
 22 42  1  0
 22 43  1  0
 24 44  1  0
 26 45  1  0
M  END
>  <smiles>  (36) 
Cc1ccccc1S(=O)(=O)NCC(=O)Nc1sccc1CCC(O)=NO

>  <score_type>  (36) 
oracle

>  <origin>  (36) 
adg

>  <m_score__min__energy>  (36) 
-9.0700000000000003

>  <m_primary>  (36) 
energy

$$$$
36:0
     RDKit          3D

 37 39  0  0  1  0  0  0  0  0999 V2000
   61.4910   30.4900   47.4550 C   0  0  0  0  0  0  0  0  0  0  0  0
   60.0950   30.2310   46.9720 C   0  0  0  0  0  0  0  0  0  0  0  0
   59.1400   30.2220   47.7930 O   0  0  0  0  0  0  0  0  0  0  0  0
   59.8210   29.9910   45.5980 N   0  0  0  0  0  0  0  0  0  0  0  0
   58.4520   29.7560   45.2560 C   0  0  0  0  0  0  0  0  0  0  0  0
   57.3470   30.5720   45.1340 C   0  0  0  0  0  0  0  0  0  0  0  0
   56.9990   31.9460   45.2630 N   0  0  0  0  0  0  0  0  0  0  0  0
   57.8230   32.8840   45.5520 C   0  0  0  0  0  0  0  0  0  0  0  0
   58.0300   33.8970   44.6380 C   0  0  0  0  0  0  0  0  0  0  0  0
   58.9020   34.9390   44.8800 C   0  0  0  0  0  0  0  0  0  0  0  0
   59.5630   34.9340   46.0710 N   0  0  0  0  0  0  0  0  0  0  0  0
   59.3700   33.9520   46.9690 C   0  0  0  0  0  0  0  0  0  0  0  0
   59.9840   33.9190   48.1130 N   0  0  0  0  0  0  0  0  0  0  0  0
   61.3990   33.7180   48.0980 C   0  0  0  0  0  0  0  0  0  0  0  0
   62.0080   33.6000   49.3350 C   0  0  0  0  0  0  0  0  0  0  0  0
   63.3660   33.4050   49.4420 C   0  0  0  0  0  0  0  0  0  0  0  0
   64.1030   33.3290   48.2770 C   0  0  0  0  0  0  0  0  0  0  0  0
   63.5060   33.4460   47.0230 C   0  0  0  0  0  0  0  0  0  0  0  0
   62.1290   33.6440   46.9280 C   0  0  0  0  0  0  0  0  0  0  0  0
   58.5140   32.9490   46.7070 N   0  0  0  0  0  0  0  0  0  0  0  0
   56.5790   29.4620   44.7950 C   0  0  0  0  0  0  0  0  0  0  0  0
   55.3810   29.2120   44.4890 O   0  0  0  0  0  0  0  0  0  0  0  0
   57.7020   28.6440   44.9210 C   0  0  0  0  0  0  0  0  0  0  0  0
   57.9640   27.0270   44.7350 S   0  0  0  0  0  0  0  0  0  0  0  0
   61.5039   30.4924   48.5549 H   0  0  0  0  0  0  0  0  0  0  0  0
   62.1603   29.7007   47.0822 H   0  0  0  0  0  0  0  0  0  0  0  0
   61.8327   31.4669   47.0822 H   0  0  0  0  0  0  0  0  0  0  0  0
   60.5840   29.9920   44.9080 H   0  0  0  0  0  0  0  0  0  0  0  0
   57.4817   33.8732   43.6847 H   0  0  0  0  0  0  0  0  0  0  0  0
   59.0567   35.7399   44.1421 H   0  0  0  0  0  0  0  0  0  0  0  0
   60.2320   35.7050   46.2920 H   0  0  0  0  0  0  0  0  0  0  0  0
   61.3968   33.6631   50.2474 H   0  0  0  0  0  0  0  0  0  0  0  0
   63.8496   33.3125   50.4257 H   0  0  0  0  0  0  0  0  0  0  0  0
   65.1899   33.1720   48.3402 H   0  0  0  0  0  0  0  0  0  0  0  0
   64.1188   33.3824   46.1117 H   0  0  0  0  0  0  0  0  0  0  0  0
   61.6378   33.7386   45.9483 H   0  0  0  0  0  0  0  0  0  0  0  0
   58.3640   32.1950   47.3950 H   0  0  0  0  0  0  0  0  0  0  0  0
  1  2  1  0
  2  3  2  0
  2  4  1  0
  4  5  1  0
  5  6  2  0
  6  7  1  0
  7  8  2  0
  8  9  1  0
  9 10  2  0
 10 11  1  0
 11 12  1  0
 12 13  2  0
 13 14  1  0
 14 15  2  0
 15 16  1  0
 16 17  2  0
 17 18  1  0
 18 19  2  0
 12 20  1  0
  6 21  1  0
 21 22  2  0
 21 23  1  0
 23 24  2  0
 23  5  1  0
 20  8  1  0
 19 14  1  0
  1 25  1  0
  1 26  1  0
  1 27  1  0
  4 28  1  0
  9 29  1  0
 10 30  1  0
 11 31  1  0
 15 32  1  0
 16 33  1  0
 17 34  1  0
 18 35  1  0
 19 36  1  0
 20 37  1  0
M  END
>  <smiles>  (37) 
CC(=O)Nc1c(N=c2cc[nH]c(=Nc3ccccc3)[nH]2)c(=O)c1=S

>  <score_type>  (37) 
oracle

>  <origin>  (37) 
adg

>  <m_score__min__energy>  (37) 
-8.0399999999999991

>  <m_primary>  (37) 
energy

$$$$
37:0
     RDKit          3D

 49 52  0  0  0  0  0  0  0  0999 V2000
   56.4680   33.2353   44.9528 H   0  0  0  0  0  0  0  0  0  0  0  0
   57.4220   32.6880   44.9710 C   0  0  0  0  0  0  0  0  0  0  0  0
   58.5260   33.3500   45.3510 C   0  0  0  0  0  0  0  0  0  0  0  0
   59.1413   33.8245   44.5724 H   0  0  0  0  0  0  0  0  0  0  0  0
   58.9620   33.4770   46.7630 C   0  0  0  0  0  0  0  0  0  0  0  0
   59.9530   34.4220   47.0780 C   0  0  0  0  0  0  0  0  0  0  0  0
   60.3756   35.0541   46.2831 H   0  0  0  0  0  0  0  0  0  0  0  0
   60.4060   34.5660   48.3900 C   0  0  0  0  0  0  0  0  0  0  0  0
   61.1789   35.3127   48.6245 H   0  0  0  0  0  0  0  0  0  0  0  0
   59.8810   33.7650   49.4060 C   0  0  0  0  0  0  0  0  0  0  0  0
   60.2451   33.8794   50.4376 H   0  0  0  0  0  0  0  0  0  0  0  0
   58.8920   32.8160   49.1160 C   0  0  0  0  0  0  0  0  0  0  0  0
   58.3690   31.9170   50.1980 C   0  0  0  0  0  0  0  0  0  0  0  0
   58.6172   32.3436   51.1810 H   0  0  0  0  0  0  0  0  0  0  0  0
   57.2769   31.8259   50.1030 H   0  0  0  0  0  0  0  0  0  0  0  0
   58.8296   30.9226   50.1030 H   0  0  0  0  0  0  0  0  0  0  0  0
   58.4490   32.6600   47.7920 C   0  0  0  0  0  0  0  0  0  0  0  0
   57.6956   31.8941   47.5557 H   0  0  0  0  0  0  0  0  0  0  0  0
   57.4180   31.2580   44.5740 C   0  0  0  0  0  0  0  0  0  0  0  0
   56.7820   30.8980   43.3760 C   0  0  0  0  0  0  0  0  0  0  0  0
   56.2975   31.6715   42.7620 H   0  0  0  0  0  0  0  0  0  0  0  0
   56.7590   29.5670   42.9570 C   0  0  0  0  0  0  0  0  0  0  0  0
   56.2491   29.2957   42.0209 H   0  0  0  0  0  0  0  0  0  0  0  0
   57.3810   28.5790   43.7220 C   0  0  0  0  0  0  0  0  0  0  0  0
   57.3534   27.5315   43.3873 H   0  0  0  0  0  0  0  0  0  0  0  0
   58.0420   28.9120   44.9160 C   0  0  0  0  0  0  0  0  0  0  0  0
   58.7180   27.8650   45.7210 C   0  0  0  0  0  0  0  0  0  0  0  0
   59.1530   26.8270   45.1520 O   0  0  0  0  0  0  0  0  0  0  0  0
   58.8800   28.0500   47.1390 N   0  0  0  0  0  0  0  0  0  0  0  0
   59.6640   28.8780   47.7680 C   0  0  0  0  0  0  0  0  0  0  0  0
   59.6920   28.9510   49.1110 N   0  0  0  0  0  0  0  0  0  0  0  0
   60.5850   29.8700   49.4410 N   0  0  0  0  0  0  0  0  0  0  0  0
   60.7930   30.1390   50.4270 H   0  0  0  0  0  0  0  0  0  0  0  0
   61.1350   30.3920   48.3250 C   0  0  0  0  0  0  0  0  0  0  0  0
   62.1770   31.4490   48.3070 C   0  0  0  0  0  0  0  0  0  0  0  0
   62.8860   31.7770   49.4790 C   0  0  0  0  0  0  0  0  0  0  0  0
   62.6669   31.2457   50.4169 H   0  0  0  0  0  0  0  0  0  0  0  0
   63.8670   32.7740   49.4580 C   0  0  0  0  0  0  0  0  0  0  0  0
   64.4147   33.0238   50.3786 H   0  0  0  0  0  0  0  0  0  0  0  0
   64.1530   33.4530   48.2720 C   0  0  0  0  0  0  0  0  0  0  0  0
   64.9248   34.2367   48.2585 H   0  0  0  0  0  0  0  0  0  0  0  0
   63.4580   33.1360   47.1030 C   0  0  0  0  0  0  0  0  0  0  0  0
   63.6838   33.6707   46.1686 H   0  0  0  0  0  0  0  0  0  0  0  0
   62.4760   32.1410   47.1170 C   0  0  0  0  0  0  0  0  0  0  0  0
   61.9329   31.8967   46.1921 H   0  0  0  0  0  0  0  0  0  0  0  0
   60.5660   29.7790   47.2200 C   0  0  0  0  0  0  0  0  0  0  0  0
   60.7795   29.9635   46.1568 H   0  0  0  0  0  0  0  0  0  0  0  0
   58.0610   30.2580   45.3330 C   0  0  0  0  0  0  0  0  0  0  0  0
   58.5835   30.5320   46.2614 H   0  0  0  0  0  0  0  0  0  0  0  0
  1  2  1  0
  2  3  2  0
  3  4  1  0
  3  5  1  0
  5  6  2  0
  6  7  1  0
  6  8  1  0
  8  9  1  0
  8 10  2  0
 10 11  1  0
 10 12  1  0
 12 13  1  0
 13 14  1  0
 13 15  1  0
 13 16  1  0
 12 17  2  0
 17 18  1  0
  2 19  1  0
 19 20  2  0
 20 21  1  0
 20 22  1  0
 22 23  1  0
 22 24  2  0
 24 25  1  0
 24 26  1  0
 26 27  1  0
 27 28  2  0
 27 29  1  0
 29 30  2  3
 30 31  1  0
 31 32  1  0
 32 33  1  0
 32 34  1  0
 34 35  1  0
 35 36  2  0
 36 37  1  0
 36 38  1  0
 38 39  1  0
 38 40  2  0
 40 41  1  0
 40 42  1  0
 42 43  1  0
 42 44  2  0
 44 45  1  0
 34 46  2  0
 46 47  1  0
 26 48  2  0
 48 49  1  0
 17  5  1  0
 48 19  1  0
 46 30  1  0
 44 35  1  0
M  CHG  1  31  -1
M  END
>  <UniqueID>  (38) 
33

>  <SMILES>  (38) 
Cc1cccc(/C=C/c2cccc(C(=O)N=c3cc(-c4ccccc4)[nH][n-]3)c2)c1

>  <Energy>  (38) 
96.35606201674756

>  <Genealogy>  (38) 
Cc1cccc(C=Cc2cccc(C(=O)N=c3cc(-c4ccccc4)[nH][n-]3)c2)c1 (protonated)
Cc1cccc(/C=C/c2cccc(C(=O)N=c3cc(-c4ccccc4)[nH][n-]3)c2)c1 (cis-trans isomerization)
Cc1cccc(/C=C/c2cccc(C(=O)N=c3cc(-c4ccccc4)[nH][n-]3)c2)c1 (3D coordinates assigned)
Cc1cccc(/C=C/c2cccc(C(=O)N=c3cc(-c4ccccc4)[nH][n-]3)c2)c1 (optimized conformer: 96.35606201674756 kcal/mol)

>  <smiles>  (38) 
Cc1cccc(C=Cc2cccc(C(=O)N=c3cc(-c4ccccc4)[nH][nH]3)c2)c1

>  <score_type>  (38) 
oracle

>  <origin>  (38) 
adg

>  <m_score__min__energy>  (38) 
-12.369999999999999

>  <m_primary>  (38) 
energy

$$$$
38:0
     RDKit          3D

 62 66  0  0  0  0  0  0  0  0999 V2000
   54.7340   26.3280   45.9900 N   0  0  0  0  0  0  0  0  0  0  0  0
   56.2910   25.5900   46.1230 S   0  0  0  0  0  0  0  0  0  0  0  0
   56.4610   25.0410   47.5130 O   0  0  0  0  0  0  0  0  0  0  0  0
   56.4000   24.4560   45.1420 O   0  0  0  0  0  0  0  0  0  0  0  0
   57.5430   26.7840   45.7900 C   0  0  0  0  0  0  0  0  0  0  0  0
   57.8890   27.1090   44.4720 C   0  0  0  0  0  0  0  0  0  0  0  0
   58.8880   28.0520   44.2200 C   0  0  0  0  0  0  0  0  0  0  0  0
   59.5570   28.6680   45.2850 C   0  0  0  0  0  0  0  0  0  0  0  0
   59.2290   28.3430   46.6130 C   0  0  0  0  0  0  0  0  0  0  0  0
   59.9470   28.9800   47.7420 C   0  0  0  0  0  0  0  0  0  0  0  0
   59.7720   28.5020   49.0520 C   0  0  0  0  0  0  0  0  0  0  0  0
   60.4140   29.1260   50.1220 C   0  0  0  0  0  0  0  0  0  0  0  0
   61.2310   30.2470   49.9080 C   0  0  0  0  0  0  0  0  0  0  0  0
   61.8480   30.9660   51.0850 C   0  0  0  0  0  0  0  0  0  0  0  0
   61.2480   32.3050   51.3030 N   0  0  0  0  0  0  0  0  0  0  0  0
   59.9510   32.4020   50.5720 C   0  0  0  0  0  0  0  0  0  0  0  0
   59.6160   33.8330   50.1180 C   0  0  0  0  0  0  0  0  0  0  0  0
   60.7170   34.4070   49.1870 C   0  0  0  0  0  0  0  0  0  0  0  0
   60.4220   34.2000   47.7630 N   0  0  0  0  0  0  0  0  0  0  0  0
   59.2320   34.4180   47.1740 C   0  0  0  0  0  0  0  0  0  0  0  0
   59.4270   34.2210   45.8260 C   0  0  0  0  0  0  0  0  0  0  0  0
   58.4260   34.4390   44.7290 C   0  0  0  0  0  0  0  0  0  0  0  0
   57.7940   33.1630   44.3510 N   0  0  0  0  0  0  0  0  0  0  0  0
   57.9180   32.7220   43.0610 C   0  0  0  0  0  0  0  0  0  0  0  0
   57.4020   31.4820   42.6850 C   0  0  0  0  0  0  0  0  0  0  0  0
   56.7630   30.7100   43.6490 C   0  0  0  0  0  0  0  0  0  0  0  0
   56.2970   29.5840   43.3440 O   0  0  0  0  0  0  0  0  0  0  0  0
   56.6460   31.1710   44.9180 N   0  0  0  0  0  0  0  0  0  0  0  0
   57.1510   32.3810   45.2790 C   0  0  0  0  0  0  0  0  0  0  0  0
   57.0170   32.7660   46.4720 O   0  0  0  0  0  0  0  0  0  0  0  0
   60.7280   33.9180   45.6250 N   0  0  0  0  0  0  0  0  0  0  0  0
   61.3080   33.9180   46.8180 N   0  0  0  0  0  0  0  0  0  0  0  0
   62.1090   33.8240   49.5180 C   0  0  0  0  0  0  0  0  0  0  0  0
   62.1910   33.4100   50.9860 C   0  0  0  0  0  0  0  0  0  0  0  0
   61.4240   30.7140   48.6020 C   0  0  0  0  0  0  0  0  0  0  0  0
   60.7960   30.0800   47.5250 C   0  0  0  0  0  0  0  0  0  0  0  0
   58.2160   27.3950   46.8570 C   0  0  0  0  0  0  0  0  0  0  0  0
   54.6920   27.0840   46.7120 H   0  0  0  0  0  0  0  0  0  0  0  0
   57.3723   26.6200   43.6330 H   0  0  0  0  0  0  0  0  0  0  0  0
   59.1497   28.3112   43.1835 H   0  0  0  0  0  0  0  0  0  0  0  0
   60.3432   29.4100   45.0815 H   0  0  0  0  0  0  0  0  0  0  0  0
   59.1253   27.6311   49.2347 H   0  0  0  0  0  0  0  0  0  0  0  0
   60.2788   28.7362   51.1417 H   0  0  0  0  0  0  0  0  0  0  0  0
   61.6966   30.3588   51.9896 H   0  0  0  0  0  0  0  0  0  0  0  0
   62.9177   31.1069   50.8707 H   0  0  0  0  0  0  0  0  0  0  0  0
   60.0018   31.7562   49.6830 H   0  0  0  0  0  0  0  0  0  0  0  0
   59.1596   32.0865   51.2678 H   0  0  0  0  0  0  0  0  0  0  0  0
   58.6594   33.8210   49.5751 H   0  0  0  0  0  0  0  0  0  0  0  0
   59.5516   34.4721   51.0110 H   0  0  0  0  0  0  0  0  0  0  0  0
   60.7284   35.4905   49.3765 H   0  0  0  0  0  0  0  0  0  0  0  0
   58.2913   34.6978   47.6707 H   0  0  0  0  0  0  0  0  0  0  0  0
   57.6516   35.1378   45.0783 H   0  0  0  0  0  0  0  0  0  0  0  0
   58.9424   34.8557   43.8517 H   0  0  0  0  0  0  0  0  0  0  0  0
   58.4282   33.3500   42.3158 H   0  0  0  0  0  0  0  0  0  0  0  0
   57.4983   31.1230   41.6497 H   0  0  0  0  0  0  0  0  0  0  0  0
   62.2905   32.9432   48.8846 H   0  0  0  0  0  0  0  0  0  0  0  0
   62.8683   34.5969   49.3277 H   0  0  0  0  0  0  0  0  0  0  0  0
   63.2162   33.0767   51.2049 H   0  0  0  0  0  0  0  0  0  0  0  0
   61.9172   34.2795   51.6016 H   0  0  0  0  0  0  0  0  0  0  0  0
   62.0728   31.5839   48.4222 H   0  0  0  0  0  0  0  0  0  0  0  0
   60.9673   30.4442   46.5013 H   0  0  0  0  0  0  0  0  0  0  0  0
   57.9513   27.1324   47.8919 H   0  0  0  0  0  0  0  0  0  0  0  0
  1  2  1  0
  2  3  2  0
  2  4  2  0
  2  5  1  0
  5  6  2  0
  6  7  1  0
  7  8  2  0
  8  9  1  0
  9 10  1  0
 10 11  2  0
 11 12  1  0
 12 13  2  0
 13 14  1  0
 14 15  1  0
 15 16  1  0
 16 17  1  0
 17 18  1  0
 18 19  1  0
 19 20  1  0
 20 21  2  0
 21 22  1  0
 22 23  1  0
 23 24  1  0
 24 25  2  0
 25 26  1  0
 26 27  2  0
 26 28  1  0
 28 29  1  0
 29 30  2  0
 21 31  1  0
 31 32  2  0
 18 33  1  0
 33 34  1  0
 13 35  1  0
 35 36  2  0
  9 37  2  0
 37  5  1  0
 36 10  1  0
 34 15  1  0
 32 19  1  0
 29 23  1  0
  1 38  1  0
  6 39  1  0
  7 40  1  0
  8 41  1  0
 11 42  1  0
 12 43  1  0
 14 44  1  0
 14 45  1  0
 16 46  1  0
 16 47  1  0
 17 48  1  0
 17 49  1  0
 18 50  1  0
 20 51  1  0
 22 52  1  0
 22 53  1  0
 24 54  1  0
 25 55  1  0
 33 56  1  0
 33 57  1  0
 34 58  1  0
 34 59  1  0
 35 60  1  0
 36 61  1  0
 37 62  1  0
M  CHG  2   1  -1  28  -1
M  END
>  <UniqueID>  (39) 
34

>  <SMILES>  (39) 
[NH-]S(=O)(=O)c1cccc(-c2ccc(CN3CCC(n4cc(Cn5ccc(=O)[n-]c5=O)nn4)CC3)cc2)c1

>  <Energy>  (39) 
120.20138146234163

>  <Genealogy>  (39) 
[NH-]S(=O)(=O)c1cccc(-c2ccc(CN3CCC(n4cc(Cn5ccc(=O)[n-]c5=O)nn4)CC3)cc2)c1 (protonated)
[NH-]S(=O)(=O)c1cccc(-c2ccc(CN3CCC(n4cc(Cn5ccc(=O)[n-]c5=O)nn4)CC3)cc2)c1 (3D coordinates assigned)
[NH-]S(=O)(=O)c1cccc(-c2ccc(CN3CCC(n4cc(Cn5ccc(=O)[n-]c5=O)nn4)CC3)cc2)c1 (nonaromatic ring conformer: 120.20138146234163 kcal/mol)

>  <smiles>  (39) 
NS(=O)(=O)c1cccc(-c2ccc(CN3CCC(n4cc(Cn5ccc(=O)[nH]c5=O)nn4)CC3)cc2)c1

>  <score_type>  (39) 
oracle

>  <origin>  (39) 
adg

>  <m_score__min__energy>  (39) 
-15.69

>  <m_primary>  (39) 
energy

$$$$
39:0
     RDKit          3D

 32 34  0  0  0  0  0  0  0  0999 V2000
   58.8480   31.9160   48.3880 C   0  0  0  0  0  0  0  0  0  0  0  0
   58.4680   31.9680   46.9420 C   0  0  0  0  0  0  0  0  0  0  0  0
   58.6450   33.1470   46.2070 C   0  0  0  0  0  0  0  0  0  0  0  0
   58.2930   33.1750   44.8560 C   0  0  0  0  0  0  0  0  0  0  0  0
   57.7690   32.0270   44.2470 C   0  0  0  0  0  0  0  0  0  0  0  0
   57.4060   32.0270   42.8940 C   0  0  0  0  0  0  0  0  0  0  0  0
   56.8730   30.8740   42.3150 C   0  0  0  0  0  0  0  0  0  0  0  0
   56.7090   29.7140   43.0760 C   0  0  0  0  0  0  0  0  0  0  0  0
   57.1000   29.6870   44.4280 C   0  0  0  0  0  0  0  0  0  0  0  0
   56.9150   28.5080   45.2330 N   0  0  0  0  0  0  0  0  0  0  0  0
   57.6940   27.4650   45.2930 C   0  0  0  0  0  0  0  0  0  0  0  0
   57.3630   26.2260   46.0340 C   0  0  0  0  0  0  0  0  0  0  0  0
   56.0360   25.8870   46.3540 C   0  0  0  0  0  0  0  0  0  0  0  0
   54.9810   26.7090   45.9670 O   0  0  0  0  0  0  0  0  0  0  0  0
   55.7750   24.7370   47.0300 N   0  0  0  0  0  0  0  0  0  0  0  0
   56.7750   23.8920   47.3880 C   0  0  0  0  0  0  0  0  0  0  0  0
   56.4300   22.5190   48.2000 S   0  0  0  0  0  0  0  0  0  0  0  0
   58.0600   24.1810   47.0600 N   0  0  0  0  0  0  0  0  0  0  0  0
   58.3750   25.3180   46.3890 C   0  0  0  0  0  0  0  0  0  0  0  0
   59.5790   25.5540   46.1010 O   0  0  0  0  0  0  0  0  0  0  0  0
   57.6060   30.8550   45.0200 C   0  0  0  0  0  0  0  0  0  0  0  0
   57.9610   30.8600   46.3350 N   0  0  0  0  0  0  0  0  0  0  0  0
   57.9480   32.0392   49.0083 H   0  0  0  0  0  0  0  0  0  0  0  0
   59.3160   30.9454   48.6095 H   0  0  0  0  0  0  0  0  0  0  0  0
   59.5595   32.7252   48.6095 H   0  0  0  0  0  0  0  0  0  0  0  0
   59.0583   34.0444   46.6905 H   0  0  0  0  0  0  0  0  0  0  0  0
   58.4269   34.0968   44.2708 H   0  0  0  0  0  0  0  0  0  0  0  0
   57.5409   32.9351   42.2881 H   0  0  0  0  0  0  0  0  0  0  0  0
   56.5808   30.8789   41.2545 H   0  0  0  0  0  0  0  0  0  0  0  0
   56.2715   28.8158   42.6157 H   0  0  0  0  0  0  0  0  0  0  0  0
   58.6558   27.5074   44.7610 H   0  0  0  0  0  0  0  0  0  0  0  0
   55.1450   27.5450   45.4180 H   0  0  0  0  0  0  0  0  0  0  0  0
  1  2  1  0
  2  3  2  0
  3  4  1  0
  4  5  2  0
  5  6  1  0
  6  7  2  0
  7  8  1  0
  8  9  2  0
  9 10  1  0
 10 11  2  3
 11 12  1  0
 12 13  2  0
 13 14  1  0
 13 15  1  0
 15 16  1  0
 16 17  2  0
 16 18  1  0
 18 19  1  0
 19 20  2  0
  9 21  1  0
 21 22  2  0
 22  2  1  0
 21  5  1  0
 19 12  1  0
  1 23  1  0
  1 24  1  0
  1 25  1  0
  3 26  1  0
  4 27  1  0
  6 28  1  0
  7 29  1  0
  8 30  1  0
 11 31  1  0
 14 32  1  0
M  CHG  2  15  -1  18  -1
M  END
>  <UniqueID>  (40) 
35

>  <SMILES>  (40) 
Cc1ccc2cccc(N=Cc3c(O)[n-]c(=S)[n-]c3=O)c2n1

>  <Energy>  (40) 
50.19732319416063

>  <Genealogy>  (40) 
Cc1ccc2cccc(N=Cc3c(O)[n-]c(=S)[n-]c3=O)c2n1 (protonated)
Cc1ccc2cccc(N=Cc3c(O)[n-]c(=S)[n-]c3=O)c2n1 (3D coordinates assigned)
Cc1ccc2cccc(N=Cc3c(O)[n-]c(=S)[n-]c3=O)c2n1 (optimized conformer: 50.19732319416063 kcal/mol)

>  <smiles>  (40) 
Cc1ccc2cccc(N=Cc3c(O)[nH]c(=S)[nH]c3=O)c2n1

>  <score_type>  (40) 
oracle

>  <origin>  (40) 
adg

>  <m_score__min__energy>  (40) 
-12.18

>  <m_primary>  (40) 
energy

$$$$
40:0
     RDKit          3D

 39 40  0  0  0  0  0  0  0  0999 V2000
   55.8970   23.9920   47.4330 C   0  0  0  0  0  0  0  0  0  0  0  0
   56.6310   25.2390   47.0560 C   0  0  0  0  0  0  0  0  0  0  0  0
   57.9660   25.4180   47.4320 C   0  0  0  0  0  0  0  0  0  0  0  0
   58.6170   26.5930   47.0470 C   0  0  0  0  0  0  0  0  0  0  0  0
   60.0500   26.8200   47.4090 C   0  0  0  0  0  0  0  0  0  0  0  0
   57.9500   27.5190   46.3100 N   0  0  0  0  0  0  0  0  0  0  0  0
   56.6470   27.3380   45.9540 C   0  0  0  0  0  0  0  0  0  0  0  0
   56.0150   28.2170   45.2340 N   0  0  0  0  0  0  0  0  0  0  0  0
   56.3230   29.6170   45.1300 C   0  0  0  0  0  0  0  0  0  0  0  0
   55.5430   30.3590   44.4760 O   0  0  0  0  0  0  0  0  0  0  0  0
   57.4450   30.1880   45.8230 N   0  0  0  0  0  0  0  0  0  0  0  0
   58.0280   31.4510   45.4600 C   0  0  0  0  0  0  0  0  0  0  0  0
   57.7400   31.9750   44.3490 O   0  0  0  0  0  0  0  0  0  0  0  0
   58.9980   32.1300   46.3520 C   0  0  0  0  0  0  0  0  0  0  0  0
   59.7590   31.4040   47.2860 C   0  0  0  0  0  0  0  0  0  0  0  0
   60.6700   32.0570   48.1220 C   0  0  0  0  0  0  0  0  0  0  0  0
   60.8320   33.4470   48.0440 C   0  0  0  0  0  0  0  0  0  0  0  0
   61.8170   34.1570   48.9310 C   0  0  0  0  0  0  0  0  0  0  0  0
   63.0360   34.3900   48.2310 O   0  0  0  0  0  0  0  0  0  0  0  0
   63.8190   33.3570   47.7530 N   0  0  0  0  0  0  0  0  0  0  0  0
   64.5040   32.6860   48.5500 O   0  0  0  0  0  0  0  0  0  0  0  0
   63.8420   33.0460   46.4120 O   0  0  0  0  0  0  0  0  0  0  0  0
   60.0670   34.1780   47.1240 C   0  0  0  0  0  0  0  0  0  0  0  0
   59.1550   33.5270   46.2880 C   0  0  0  0  0  0  0  0  0  0  0  0
   56.0060   26.1980   46.3210 N   0  0  0  0  0  0  0  0  0  0  0  0
   55.8497   23.9116   48.5290 H   0  0  0  0  0  0  0  0  0  0  0  0
   54.8767   24.0291   47.0237 H   0  0  0  0  0  0  0  0  0  0  0  0
   56.4247   23.1180   47.0237 H   0  0  0  0  0  0  0  0  0  0  0  0
   58.4923   24.6503   48.0182 H   0  0  0  0  0  0  0  0  0  0  0  0
   60.1534   26.8364   48.5040 H   0  0  0  0  0  0  0  0  0  0  0  0
   60.6659   26.0082   46.9946 H   0  0  0  0  0  0  0  0  0  0  0  0
   60.3848   27.7824   46.9946 H   0  0  0  0  0  0  0  0  0  0  0  0
   57.8570   29.6530   46.6190 H   0  0  0  0  0  0  0  0  0  0  0  0
   59.6364   30.3133   47.3594 H   0  0  0  0  0  0  0  0  0  0  0  0
   61.2626   31.4768   48.8446 H   0  0  0  0  0  0  0  0  0  0  0  0
   61.3909   35.1204   49.2479 H   0  0  0  0  0  0  0  0  0  0  0  0
   62.0241   33.5286   49.8098 H   0  0  0  0  0  0  0  0  0  0  0  0
   60.1851   35.2698   47.0597 H   0  0  0  0  0  0  0  0  0  0  0  0
   58.5554   34.1114   45.5746 H   0  0  0  0  0  0  0  0  0  0  0  0
  1  2  1  0
  2  3  1  0
  3  4  2  0
  4  5  1  0
  4  6  1  0
  6  7  1  0
  7  8  2  3
  8  9  1  0
  9 10  2  0
  9 11  1  0
 11 12  1  0
 12 13  2  0
 12 14  1  0
 14 15  2  0
 15 16  1  0
 16 17  2  0
 17 18  1  0
 18 19  1  0
 19 20  1  0
 20 21  2  0
 20 22  1  0
 17 23  1  0
 23 24  2  0
  7 25  1  0
 25  2  2  0
 24 14  1  0
  1 26  1  0
  1 27  1  0
  1 28  1  0
  3 29  1  0
  5 30  1  0
  5 31  1  0
  5 32  1  0
 11 33  1  0
 15 34  1  0
 16 35  1  0
 18 36  1  0
 18 37  1  0
 23 38  1  0
 24 39  1  0
M  CHG  3   6  -1  20   1  22  -1
M  END
>  <UniqueID>  (41) 
36

>  <SMILES>  (41) 
Cc1cc(C)[n-]c(=NC(=O)NC(=O)c2ccc(CO[N+](=O)[O-])cc2)n1

>  <Energy>  (41) 
42.37835027277381

>  <Genealogy>  (41) 
Cc1cc(C)[n-]c(=NC(=O)NC(=O)c2ccc(CO[N+](=O)[O-])cc2)n1 (protonated)
Cc1cc(C)[n-]c(=NC(=O)NC(=O)c2ccc(CO[N+](=O)[O-])cc2)n1 (3D coordinates assigned)
Cc1cc(C)[n-]c(=NC(=O)NC(=O)c2ccc(CO[N+](=O)[O-])cc2)n1 (optimized conformer: 42.37835027277381 kcal/mol)

>  <smiles>  (41) 
Cc1cc(C)[nH]c(=NC(=O)NC(=O)c2ccc(CO[N+](=O)[O-])cc2)n1

>  <score_type>  (41) 
oracle

>  <origin>  (41) 
adg

>  <m_score__min__energy>  (41) 
-9.1899999999999995

>  <m_primary>  (41) 
energy

$$$$
41:0
     RDKit          3D

 47 51  0  0  0  0  0  0  0  0999 V2000
   55.1520   26.6490   46.0330 N   0  0  0  0  0  0  0  0  0  0  0  0
   56.2060   25.2810   46.1160 S   0  0  0  0  0  0  0  0  0  0  0  0
   55.6810   24.3290   47.1550 O   0  0  0  0  0  0  0  0  0  0  0  0
   56.2390   24.5920   44.7810 O   0  0  0  0  0  0  0  0  0  0  0  0
   57.8310   25.8040   46.5460 C   0  0  0  0  0  0  0  0  0  0  0  0
   58.9430   25.1940   45.9520 C   0  0  0  0  0  0  0  0  0  0  0  0
   60.2340   25.5990   46.2950 C   0  0  0  0  0  0  0  0  0  0  0  0
   60.4230   26.6150   47.2360 C   0  0  0  0  0  0  0  0  0  0  0  0
   59.3120   27.2420   47.8350 C   0  0  0  0  0  0  0  0  0  0  0  0
   59.4550   28.2700   48.7790 O   0  0  0  0  0  0  0  0  0  0  0  0
   59.1020   29.6080   48.5570 C   0  0  0  0  0  0  0  0  0  0  0  0
   58.9050   30.4390   49.6640 C   0  0  0  0  0  0  0  0  0  0  0  0
   58.6040   31.7900   49.4890 C   0  0  0  0  0  0  0  0  0  0  0  0
   58.5070   32.3240   48.2030 C   0  0  0  0  0  0  0  0  0  0  0  0
   58.6850   31.5040   47.0800 C   0  0  0  0  0  0  0  0  0  0  0  0
   58.6120   32.0950   45.7280 C   0  0  0  0  0  0  0  0  0  0  0  0
   59.1650   33.2970   45.2900 C   0  0  0  0  0  0  0  0  0  0  0  0
   59.9480   34.2610   46.1410 C   0  0  0  0  0  0  0  0  0  0  0  0
   59.6640   35.7250   45.8400 C   0  0  0  0  0  0  0  0  0  0  0  0
   59.1480   35.1040   47.1270 C   0  0  0  0  0  0  0  0  0  0  0  0
   58.8040   33.5330   44.0010 N   0  0  0  0  0  0  0  0  0  0  0  0
   58.0440   32.4640   43.6880 C   0  0  0  0  0  0  0  0  0  0  0  0
   57.4200   32.2180   42.4700 C   0  0  0  0  0  0  0  0  0  0  0  0
   56.6620   31.0420   42.3620 C   0  0  0  0  0  0  0  0  0  0  0  0
   56.5590   30.1710   43.4650 C   0  0  0  0  0  0  0  0  0  0  0  0
   57.1970   30.4780   44.6310 N   0  0  0  0  0  0  0  0  0  0  0  0
   57.9070   31.6020   44.7020 N   0  0  0  0  0  0  0  0  0  0  0  0
   58.9310   30.1270   47.2540 C   0  0  0  0  0  0  0  0  0  0  0  0
   58.9560   29.2920   46.1360 O   0  0  0  0  0  0  0  0  0  0  0  0
   58.0220   26.8200   47.4930 C   0  0  0  0  0  0  0  0  0  0  0  0
   54.7850   26.6920   45.0550 H   0  0  0  0  0  0  0  0  0  0  0  0
   58.7985   24.3927   45.2124 H   0  0  0  0  0  0  0  0  0  0  0  0
   61.1039   25.1179   45.8240 H   0  0  0  0  0  0  0  0  0  0  0  0
   61.4419   26.9262   47.5099 H   0  0  0  0  0  0  0  0  0  0  0  0
   58.9879   30.0248   50.6797 H   0  0  0  0  0  0  0  0  0  0  0  0
   58.4430   32.4350   50.3654 H   0  0  0  0  0  0  0  0  0  0  0  0
   58.2897   33.3941   48.0700 H   0  0  0  0  0  0  0  0  0  0  0  0
   60.8421   33.6258   46.2253 H   0  0  0  0  0  0  0  0  0  0  0  0
   60.4804   36.4614   45.8739 H   0  0  0  0  0  0  0  0  0  0  0  0
   59.2053   36.2711   45.0025 H   0  0  0  0  0  0  0  0  0  0  0  0
   59.5913   35.3902   48.0922 H   0  0  0  0  0  0  0  0  0  0  0  0
   58.1622   35.0139   47.6066 H   0  0  0  0  0  0  0  0  0  0  0  0
   57.5166   32.9165   41.6258 H   0  0  0  0  0  0  0  0  0  0  0  0
   56.1496   30.8007   41.4190 H   0  0  0  0  0  0  0  0  0  0  0  0
   55.9666   29.2475   43.3861 H   0  0  0  0  0  0  0  0  0  0  0  0
   58.4090   29.4730   45.3040 H   0  0  0  0  0  0  0  0  0  0  0  0
   57.1501   27.2898   47.9716 H   0  0  0  0  0  0  0  0  0  0  0  0
  1  2  1  0
  2  3  2  0
  2  4  2  0
  2  5  1  0
  5  6  2  0
  6  7  1  0
  7  8  2  0
  8  9  1  0
  9 10  1  0
 10 11  1  0
 11 12  2  0
 12 13  1  0
 13 14  2  0
 14 15  1  0
 15 16  1  0
 16 17  2  0
 17 18  1  0
 18 19  1  0
 19 20  1  0
 17 21  1  0
 21 22  2  0
 22 23  1  0
 23 24  2  0
 24 25  1  0
 25 26  2  0
 26 27  1  0
 15 28  2  0
 28 29  1  0
  9 30  2  0
 30  5  1  0
 28 11  1  0
 27 16  1  0
 20 18  1  0
 27 22  1  0
  1 31  1  0
  6 32  1  0
  7 33  1  0
  8 34  1  0
 12 35  1  0
 13 36  1  0
 14 37  1  0
 18 38  1  0
 19 39  1  0
 19 40  1  0
 20 41  1  0
 20 42  1  0
 23 43  1  0
 24 44  1  0
 25 45  1  0
 29 46  1  0
 30 47  1  0
M  CHG  1   1  -1
M  END
>  <UniqueID>  (42) 
37

>  <SMILES>  (42) 
[NH-]S(=O)(=O)c1cccc(Oc2cccc(-c3c(C4CC4)nc4cccnn34)c2O)c1

>  <Energy>  (42) 
366.4176325183543

>  <Genealogy>  (42) 
[NH-]S(=O)(=O)c1cccc(Oc2cccc(-c3c(C4CC4)nc4cccnn34)c2O)c1 (protonated)
[NH-]S(=O)(=O)c1cccc(Oc2cccc(-c3c(C4CC4)nc4cccnn34)c2O)c1 (3D coordinates assigned)
[NH-]S(=O)(=O)c1cccc(Oc2cccc(-c3c(C4CC4)nc4cccnn34)c2O)c1 (nonaromatic ring conformer: 366.4176325183543 kcal/mol)

>  <smiles>  (42) 
NS(=O)(=O)c1cccc(Oc2cccc(-c3c(C4CC4)nc4cccnn34)c2O)c1

>  <score_type>  (42) 
oracle

>  <origin>  (42) 
adg

>  <m_score__min__energy>  (42) 
-12.6

>  <m_primary>  (42) 
energy

$$$$
42:0
     RDKit          3D

 46 48  0  0  0  0  0  0  0  0999 V2000
   54.8650   28.2880   44.4590 H   0  0  0  0  0  0  0  0  0  0  0  0
   55.1430   29.2960   44.4360 N   0  0  0  0  0  0  0  0  0  0  0  0
   56.2930   29.6960   44.8780 C   0  0  0  0  0  0  0  0  0  0  0  0
   56.7070   30.9600   44.5880 N   0  0  0  0  0  0  0  0  0  0  0  0
   57.9010   31.4540   45.0060 C   0  0  0  0  0  0  0  0  0  0  0  0
   58.3390   33.1410   44.5670 S   0  0  0  0  0  0  0  0  0  0  0  0
   57.3920   33.8710   45.9400 C   0  0  0  0  0  0  0  0  0  0  0  0
   57.2531   34.9470   45.7584 H   0  0  0  0  0  0  0  0  0  0  0  0
   56.4095   33.3812   46.0092 H   0  0  0  0  0  0  0  0  0  0  0  0
   58.1380   33.6740   47.2190 C   0  0  0  0  0  0  0  0  0  0  0  0
   57.7950   32.6930   48.1010 N   0  0  0  0  0  0  0  0  0  0  0  0
   58.6120   32.6640   49.1790 C   0  0  0  0  0  0  0  0  0  0  0  0
   58.4720   31.6830   50.2810 C   0  0  0  0  0  0  0  0  0  0  0  0
   59.2210   30.4940   50.2880 C   0  0  0  0  0  0  0  0  0  0  0  0
   59.9282   30.2882   49.4710 H   0  0  0  0  0  0  0  0  0  0  0  0
   59.0720   29.5700   51.3290 C   0  0  0  0  0  0  0  0  0  0  0  0
   59.6658   28.6440   51.3233 H   0  0  0  0  0  0  0  0  0  0  0  0
   58.1760   29.8110   52.3770 C   0  0  0  0  0  0  0  0  0  0  0  0
   58.0610   28.8500   53.3940 O   0  0  0  0  0  0  0  0  0  0  0  0
   56.8290   28.2960   53.8420 C   0  0  0  0  0  0  0  0  0  0  0  0
   56.8093   28.2872   54.9418 H   0  0  0  0  0  0  0  0  0  0  0  0
   55.9944   28.9055   53.4652 H   0  0  0  0  0  0  0  0  0  0  0  0
   56.7311   27.2672   53.4652 H   0  0  0  0  0  0  0  0  0  0  0  0
   57.4260   31.0010   52.3760 C   0  0  0  0  0  0  0  0  0  0  0  0
   56.7209   31.2053   53.1952 H   0  0  0  0  0  0  0  0  0  0  0  0
   57.5740   31.9260   51.3360 C   0  0  0  0  0  0  0  0  0  0  0  0
   56.9817   32.8529   51.3438 H   0  0  0  0  0  0  0  0  0  0  0  0
   59.7970   33.8620   49.0610 S   0  0  0  0  0  0  0  0  0  0  0  0
   59.2470   34.4390   47.5820 C   0  0  0  0  0  0  0  0  0  0  0  0
   59.6819   35.2685   47.0051 H   0  0  0  0  0  0  0  0  0  0  0  0
   58.7530   30.6480   45.7780 C   0  0  0  0  0  0  0  0  0  0  0  0
   60.0290   31.1350   46.2440 C   0  0  0  0  0  0  0  0  0  0  0  0
   61.0530   31.5260   46.6180 N   0  0  0  0  0  0  0  0  0  0  0  0
   58.3580   29.3440   46.0910 C   0  0  0  0  0  0  0  0  0  0  0  0
   59.0215   28.7035   46.6905 H   0  0  0  0  0  0  0  0  0  0  0  0
   57.1200   28.8420   45.6470 C   0  0  0  0  0  0  0  0  0  0  0  0
   56.7340   27.4430   45.9870 C   0  0  0  0  0  0  0  0  0  0  0  0
   55.5430   27.0610   45.8110 O   0  0  0  0  0  0  0  0  0  0  0  0
   57.6770   26.5520   46.5120 O   0  0  0  0  0  0  0  0  0  0  0  0
   58.7820   26.0400   45.7700 C   0  0  0  0  0  0  0  0  0  0  0  0
   58.7185   24.9423   45.7388 H   0  0  0  0  0  0  0  0  0  0  0  0
   58.7460   26.4533   44.7512 H   0  0  0  0  0  0  0  0  0  0  0  0
   60.1010   26.4470   46.4180 C   0  0  0  0  0  0  0  0  0  0  0  0
   59.9970   26.4149   47.5126 H   0  0  0  0  0  0  0  0  0  0  0  0
   60.8935   25.7516   46.1044 H   0  0  0  0  0  0  0  0  0  0  0  0
   60.3639   27.4681   46.1044 H   0  0  0  0  0  0  0  0  0  0  0  0
  1  2  1  0
  2  3  2  0
  3  4  1  0
  4  5  1  0
  5  6  1  0
  6  7  1  0
  7  8  1  0
  7  9  1  0
  7 10  1  0
 10 11  1  0
 11 12  2  0
 12 13  1  0
 13 14  2  0
 14 15  1  0
 14 16  1  0
 16 17  1  0
 16 18  2  0
 18 19  1  0
 19 20  1  0
 20 21  1  0
 20 22  1  0
 20 23  1  0
 18 24  1  0
 24 25  1  0
 24 26  2  0
 26 27  1  0
 12 28  1  0
 28 29  1  0
 29 30  1  0
  5 31  2  0
 31 32  1  0
 32 33  3  0
 31 34  1  0
 34 35  1  0
 34 36  2  0
 36 37  1  0
 37 38  2  0
 37 39  1  0
 39 40  1  0
 40 41  1  0
 40 42  1  0
 40 43  1  0
 43 44  1  0
 43 45  1  0
 43 46  1  0
 36  3  1  0
 29 10  2  0
 26 13  1  0
M  CHG  1   4  -1
M  END
>  <UniqueID>  (43) 
38

>  <SMILES>  (43) 
[H]/N=c1\[n-]c(SCc2csc(-c3ccc(OC)cc3)n2)c(C#N)cc1C(=O)OCC

>  <Energy>  (43) 
72.69831302416469

>  <Genealogy>  (43) 
CCOC(=O)c1cc(C#N)c(SCc2csc(-c3ccc(OC)cc3)n2)[n-]c1=N (protonated)
[H]/N=c1\[n-]c(SCc2csc(-c3ccc(OC)cc3)n2)c(C#N)cc1C(=O)OCC (cis-trans isomerization)
[H]/N=c1\[n-]c(SCc2csc(-c3ccc(OC)cc3)n2)c(C#N)cc1C(=O)OCC (3D coordinates assigned)
[H]/N=c1\[n-]c(SCc2csc(-c3ccc(OC)cc3)n2)c(C#N)cc1C(=O)OCC (optimized conformer: 72.69831302416469 kcal/mol)

>  <smiles>  (43) 
CCOC(=O)c1cc(C#N)c(SCc2csc(-c3ccc(OC)cc3)n2)[nH]c1=N

>  <score_type>  (43) 
oracle

>  <origin>  (43) 
adg

>  <m_score__min__energy>  (43) 
-9.5299999999999994

>  <m_primary>  (43) 
energy

$$$$
43:0
     RDKit          3D

 69 73  0  0  0  0  0  0  0  0999 V2000
   56.6279   28.3879   54.1548 H   0  0  0  0  0  0  0  0  0  0  0  0
   56.6910   29.2790   53.5130 C   0  0  0  0  0  0  0  0  0  0  0  0
   56.5460   29.2650   52.1690 N   0  0  0  0  0  0  0  0  0  0  0  0
   56.6620   30.4700   51.6100 N   0  0  0  0  0  0  0  0  0  0  0  0
   56.9020   31.4490   52.5120 C   0  0  0  0  0  0  0  0  0  0  0  0
   57.0360   32.7080   52.2140 N   0  0  0  0  0  0  0  0  0  0  0  0
   58.2140   33.5000   52.4420 C   0  0  0  0  0  0  0  0  0  0  0  0
   58.1750   34.7590   52.3830 O   0  0  0  0  0  0  0  0  0  0  0  0
   59.5150   32.8230   52.7570 C   0  0  0  0  0  0  0  0  0  0  0  0
   59.3233   31.9648   53.4179 H   0  0  0  0  0  0  0  0  0  0  0  0
   60.1776   33.5489   53.2510 H   0  0  0  0  0  0  0  0  0  0  0  0
   60.1690   32.3500   51.5350 N   0  0  0  0  0  0  0  0  0  0  0  0
   60.8160   33.1230   50.6300 C   0  0  0  0  0  0  0  0  0  0  0  0
   60.9028   34.2183   50.6826 H   0  0  0  0  0  0  0  0  0  0  0  0
   61.3530   32.3290   49.6270 C   0  0  0  0  0  0  0  0  0  0  0  0
   62.3040   32.8990   48.2190 S   0  0  0  0  0  0  0  0  0  0  0  0
   61.3230   31.9780   46.9800 C   0  0  0  0  0  0  0  0  0  0  0  0
   61.9250   31.8470   46.0687 H   0  0  0  0  0  0  0  0  0  0  0  0
   61.0501   31.0001   47.4033 H   0  0  0  0  0  0  0  0  0  0  0  0
   60.0550   32.7260   46.6330 C   0  0  0  0  0  0  0  0  0  0  0  0
   60.1760   33.9500   45.9490 C   0  0  0  0  0  0  0  0  0  0  0  0
   61.1761   34.3512   45.7278 H   0  0  0  0  0  0  0  0  0  0  0  0
   59.0460   34.6610   45.5480 C   0  0  0  0  0  0  0  0  0  0  0  0
   59.1577   35.6148   45.0115 H   0  0  0  0  0  0  0  0  0  0  0  0
   57.7750   34.1630   45.8270 C   0  0  0  0  0  0  0  0  0  0  0  0
   56.8836   34.7170   45.4976 H   0  0  0  0  0  0  0  0  0  0  0  0
   57.6310   32.9620   46.5240 C   0  0  0  0  0  0  0  0  0  0  0  0
   56.6237   32.5803   46.7470 H   0  0  0  0  0  0  0  0  0  0  0  0
   58.7580   32.2350   46.9440 C   0  0  0  0  0  0  0  0  0  0  0  0
   58.5500   30.9620   47.7180 C   0  0  0  0  0  0  0  0  0  0  0  0
   58.5853   31.1783   48.7959 H   0  0  0  0  0  0  0  0  0  0  0  0
   57.5699   30.5332   47.4620 H   0  0  0  0  0  0  0  0  0  0  0  0
   59.3427   30.2436   47.4620 H   0  0  0  0  0  0  0  0  0  0  0  0
   61.0190   31.0300   49.9410 C   0  0  0  0  0  0  0  0  0  0  0  0
   61.2990   29.8300   49.2890 C   0  0  0  0  0  0  0  0  0  0  0  0
   61.9148   29.8120   48.3777 H   0  0  0  0  0  0  0  0  0  0  0  0
   60.7720   28.6430   49.8290 C   0  0  0  0  0  0  0  0  0  0  0  0
   61.0840   27.3970   49.1920 N   0  0  0  0  0  0  0  0  0  0  0  0
   60.2640   26.7850   48.1960 C   0  0  0  0  0  0  0  0  0  0  0  0
   59.3050   26.0420   48.5340 O   0  0  0  0  0  0  0  0  0  0  0  0
   60.6370   26.9270   46.7550 C   0  0  0  0  0  0  0  0  0  0  0  0
   60.5770   25.9479   46.2573 H   0  0  0  0  0  0  0  0  0  0  0  0
   61.6657   27.3062   46.6660 H   0  0  0  0  0  0  0  0  0  0  0  0
   59.6750   27.8850   46.1090 C   0  0  0  0  0  0  0  0  0  0  0  0
   58.2920   27.6570   46.1890 C   0  0  0  0  0  0  0  0  0  0  0  0
   57.9053   26.8530   46.8325 H   0  0  0  0  0  0  0  0  0  0  0  0
   57.4040   28.4490   45.4530 C   0  0  0  0  0  0  0  0  0  0  0  0
   56.3203   28.2791   45.5356 H   0  0  0  0  0  0  0  0  0  0  0  0
   57.8910   29.4590   44.6100 C   0  0  0  0  0  0  0  0  0  0  0  0
   56.7820   30.4410   43.6630 S   0  0  0  0  0  0  0  0  0  0  0  0
   55.5720   30.7850   44.4880 O   0  0  0  0  0  0  0  0  0  0  0  0
   56.3350   29.6660   42.4540 O   0  0  0  0  0  0  0  0  0  0  0  0
   57.6200   31.9330   43.1570 C   0  0  0  0  0  0  0  0  0  0  0  0
   58.6660   31.8909   43.4949 H   0  0  0  0  0  0  0  0  0  0  0  0
   57.1056   32.7950   43.6067 H   0  0  0  0  0  0  0  0  0  0  0  0
   57.5910   32.0850   41.6410 C   0  0  0  0  0  0  0  0  0  0  0  0
   57.3907   33.1350   41.3815 H   0  0  0  0  0  0  0  0  0  0  0  0
   58.5629   31.7832   41.2236 H   0  0  0  0  0  0  0  0  0  0  0  0
   56.7985   31.4465   41.2236 H   0  0  0  0  0  0  0  0  0  0  0  0
   59.2690   29.7000   44.5410 C   0  0  0  0  0  0  0  0  0  0  0  0
   59.6539   30.5056   43.8984 H   0  0  0  0  0  0  0  0  0  0  0  0
   60.1560   28.9190   45.2870 C   0  0  0  0  0  0  0  0  0  0  0  0
   61.2370   29.1146   45.2306 H   0  0  0  0  0  0  0  0  0  0  0  0
   60.0110   28.6940   51.0280 C   0  0  0  0  0  0  0  0  0  0  0  0
   59.6039   27.7646   51.4528 H   0  0  0  0  0  0  0  0  0  0  0  0
   59.7720   29.9170   51.6780 C   0  0  0  0  0  0  0  0  0  0  0  0
   59.1938   29.9584   52.6128 H   0  0  0  0  0  0  0  0  0  0  0  0
   60.2900   31.0760   51.1020 C   0  0  0  0  0  0  0  0  0  0  0  0
   56.9820   30.8450   54.0780 S   0  0  0  0  0  0  0  0  0  0  0  0
  1  2  1  0
  2  3  2  0
  3  4  1  0
  4  5  1  0
  5  6  2  0
  6  7  1  0
  7  8  2  0
  7  9  1  0
  9 10  1  0
  9 11  1  0
  9 12  1  0
 12 13  1  0
 13 14  1  0
 13 15  2  0
 15 16  1  0
 16 17  1  0
 17 18  1  0
 17 19  1  0
 17 20  1  0
 20 21  2  0
 21 22  1  0
 21 23  1  0
 23 24  1  0
 23 25  2  0
 25 26  1  0
 25 27  1  0
 27 28  1  0
 27 29  2  0
 29 30  1  0
 30 31  1  0
 30 32  1  0
 30 33  1  0
 15 34  1  0
 34 35  2  0
 35 36  1  0
 35 37  1  0
 37 38  1  0
 38 39  1  0
 39 40  2  0
 39 41  1  0
 41 42  1  0
 41 43  1  0
 41 44  1  0
 44 45  2  0
 45 46  1  0
 45 47  1  0
 47 48  1  0
 47 49  2  0
 49 50  1  0
 50 51  2  0
 50 52  2  0
 50 53  1  0
 53 54  1  0
 53 55  1  0
 53 56  1  0
 56 57  1  0
 56 58  1  0
 56 59  1  0
 49 60  1  0
 60 61  1  0
 60 62  2  0
 62 63  1  0
 37 64  2  0
 64 65  1  0
 64 66  1  0
 66 67  1  0
 66 68  2  0
  5 69  1  0
 69  2  1  0
 68 12  1  0
 29 20  1  0
 68 34  1  0
 62 44  1  0
M  CHG  2   4  -1  38  -1
M  END
>  <UniqueID>  (44) 
39

>  <SMILES>  (44) 
CCS(=O)(=O)c1ccc(CC(=O)[N-]c2ccc3c(c2)c(SCc2ccccc2C)cn3CC(=O)/N=c2\[n-]ncs2)cc1

>  <Energy>  (44) 
134.28937806020448

>  <Genealogy>  (44) 
CCS(=O)(=O)c1ccc(CC(=O)[N-]c2ccc3c(c2)c(SCc2ccccc2C)cn3CC(=O)N=c2[n-]ncs2)cc1 (protonated)
CCS(=O)(=O)c1ccc(CC(=O)[N-]c2ccc3c(c2)c(SCc2ccccc2C)cn3CC(=O)/N=c2\[n-]ncs2)cc1 (cis-trans isomerization)
CCS(=O)(=O)c1ccc(CC(=O)[N-]c2ccc3c(c2)c(SCc2ccccc2C)cn3CC(=O)/N=c2\[n-]ncs2)cc1 (3D coordinates assigned)
CCS(=O)(=O)c1ccc(CC(=O)[N-]c2ccc3c(c2)c(SCc2ccccc2C)cn3CC(=O)/N=c2\[n-]ncs2)cc1 (optimized conformer: 134.28937806020448 kcal/mol)

>  <smiles>  (44) 
CCS(=O)(=O)c1ccc(CC(=O)Nc2ccc3c(c2)c(SCc2ccccc2C)cn3CC(=O)N=c2[nH]ncs2)cc1

>  <score_type>  (44) 
oracle

>  <origin>  (44) 
adg

>  <m_score__min__energy>  (44) 
-14.289999999999999

>  <m_primary>  (44) 
energy

$$$$
44:0
     RDKit          3D

 46 48  0  0  0  0  0  0  0  0999 V2000
   59.2910   34.6100   47.8890 C   0  0  0  0  0  0  0  0  0  0  0  0
   59.8950   34.6730   46.2170 S   0  0  0  0  0  0  0  0  0  0  0  0
   59.8080   36.0750   45.6810 O   0  0  0  0  0  0  0  0  0  0  0  0
   61.3340   34.2410   46.2080 O   0  0  0  0  0  0  0  0  0  0  0  0
   58.9830   33.5950   45.2110 N   0  0  0  0  0  0  0  0  0  0  0  0
   58.6720   32.2280   45.5150 C   0  0  0  0  0  0  0  0  0  0  0  0
   59.5130   31.4140   46.2910 C   0  0  0  0  0  0  0  0  0  0  0  0
   59.1570   30.0890   46.5510 C   0  0  0  0  0  0  0  0  0  0  0  0
   57.9560   29.5790   46.0370 C   0  0  0  0  0  0  0  0  0  0  0  0
   57.5510   28.1780   46.2870 C   0  0  0  0  0  0  0  0  0  0  0  0
   57.7740   27.6540   47.4120 O   0  0  0  0  0  0  0  0  0  0  0  0
   56.8750   27.4250   45.2650 N   0  0  0  0  0  0  0  0  0  0  0  0
   56.6950   25.9980   45.3120 C   0  0  0  0  0  0  0  0  0  0  0  0
   57.7510   25.1260   44.9890 C   0  0  0  0  0  0  0  0  0  0  0  0
   57.5600   23.7430   45.0240 C   0  0  0  0  0  0  0  0  0  0  0  0
   56.3130   23.2150   45.3570 C   0  0  0  0  0  0  0  0  0  0  0  0
   55.2380   24.0660   45.6410 C   0  0  0  0  0  0  0  0  0  0  0  0
   53.9230   23.4870   45.9770 C   0  0  0  0  0  0  0  0  0  0  0  0
   52.9710   23.6230   45.1610 O   0  0  0  0  0  0  0  0  0  0  0  0
   53.7050   22.7940   47.2190 N   0  0  0  0  0  0  0  0  0  0  0  0
   52.5310   21.9770   47.4680 C   0  0  0  0  0  0  0  0  0  0  0  0
   52.5190   21.7150   48.9690 C   0  0  0  0  0  0  0  0  0  0  0  0
   53.9100   22.0910   49.4750 C   0  0  0  0  0  0  0  0  0  0  0  0
   54.5100   23.0010   48.4130 C   0  0  0  0  0  0  0  0  0  0  0  0
   55.4360   25.4610   45.6370 C   0  0  0  0  0  0  0  0  0  0  0  0
   54.3910   26.3140   45.9850 O   0  0  0  0  0  0  0  0  0  0  0  0
   57.1580   30.3890   45.2890 N   0  0  0  0  0  0  0  0  0  0  0  0
   57.4830   31.6820   45.0230 C   0  0  0  0  0  0  0  0  0  0  0  0
   60.1360   34.6981   48.5877 H   0  0  0  0  0  0  0  0  0  0  0  0
   58.5886   35.4398   48.0566 H   0  0  0  0  0  0  0  0  0  0  0  0
   58.7749   33.6532   48.0566 H   0  0  0  0  0  0  0  0  0  0  0  0
   60.4524   31.8202   46.6941 H   0  0  0  0  0  0  0  0  0  0  0  0
   59.8154   29.4484   47.1561 H   0  0  0  0  0  0  0  0  0  0  0  0
   56.4260   27.9480   44.4810 H   0  0  0  0  0  0  0  0  0  0  0  0
   58.7322   25.5358   44.7074 H   0  0  0  0  0  0  0  0  0  0  0  0
   58.3959   23.0680   44.7881 H   0  0  0  0  0  0  0  0  0  0  0  0
   56.1732   22.1246   45.3967 H   0  0  0  0  0  0  0  0  0  0  0  0
   51.6196   22.5135   47.1654 H   0  0  0  0  0  0  0  0  0  0  0  0
   52.5606   21.0395   46.8934 H   0  0  0  0  0  0  0  0  0  0  0  0
   51.7539   22.3352   49.4588 H   0  0  0  0  0  0  0  0  0  0  0  0
   52.2803   20.6646   49.1920 H   0  0  0  0  0  0  0  0  0  0  0  0
   53.8369   22.6213   50.4360 H   0  0  0  0  0  0  0  0  0  0  0  0
   54.5331   21.1999   49.6413 H   0  0  0  0  0  0  0  0  0  0  0  0
   54.4576   24.0519   48.7338 H   0  0  0  0  0  0  0  0  0  0  0  0
   55.5707   22.7718   48.2331 H   0  0  0  0  0  0  0  0  0  0  0  0
   56.8062   32.3022   44.4170 H   0  0  0  0  0  0  0  0  0  0  0  0
  1  2  1  0
  2  3  2  0
  2  4  2  0
  2  5  1  0
  5  6  1  0
  6  7  2  0
  7  8  1  0
  8  9  2  0
  9 10  1  0
 10 11  2  0
 10 12  1  0
 12 13  1  0
 13 14  2  0
 14 15  1  0
 15 16  2  0
 16 17  1  0
 17 18  1  0
 18 19  2  0
 18 20  1  0
 20 21  1  0
 21 22  1  0
 22 23  1  0
 23 24  1  0
 17 25  2  0
 25 26  1  0
  9 27  1  0
 27 28  2  0
 28  6  1  0
 25 13  1  0
 24 20  1  0
  1 29  1  0
  1 30  1  0
  1 31  1  0
  7 32  1  0
  8 33  1  0
 12 34  1  0
 14 35  1  0
 15 36  1  0
 16 37  1  0
 21 38  1  0
 21 39  1  0
 22 40  1  0
 22 41  1  0
 23 42  1  0
 23 43  1  0
 24 44  1  0
 24 45  1  0
 28 46  1  0
M  CHG  2   5  -1  26  -1
M  END
>  <UniqueID>  (45) 
40

>  <SMILES>  (45) 
CS(=O)(=O)[N-]c1ccc(C(=O)Nc2cccc(C(=O)N3CCCC3)c2[O-])nc1

>  <Energy>  (45) 
57.02499161769875

>  <Genealogy>  (45) 
CS(=O)(=O)[N-]c1ccc(C(=O)Nc2cccc(C(=O)N3CCCC3)c2[O-])nc1 (protonated)
CS(=O)(=O)[N-]c1ccc(C(=O)Nc2cccc(C(=O)N3CCCC3)c2[O-])nc1 (3D coordinates assigned)
CS(=O)(=O)[N-]c1ccc(C(=O)Nc2cccc(C(=O)N3CCCC3)c2[O-])nc1 (nonaromatic ring conformer: 57.02499161769875 kcal/mol)

>  <smiles>  (45) 
CS(=O)(=O)Nc1ccc(C(=O)Nc2cccc(C(=O)N3CCCC3)c2O)nc1

>  <score_type>  (45) 
oracle

>  <origin>  (45) 
adg

>  <m_score__min__energy>  (45) 
-12.630000000000001

>  <m_primary>  (45) 
energy

$$$$
45:0
     RDKit          3D

 50 53  0  0  0  0  0  0  0  0999 V2000
   55.7440   29.7070   42.9480 N   0  0  0  0  0  0  0  0  0  0  0  0
   56.2830   30.0320   44.2300 C   0  0  0  0  0  0  0  0  0  0  0  0
   56.4900   31.2400   44.5230 O   0  0  0  0  0  0  0  0  0  0  0  0
   56.6320   28.9590   45.1860 C   0  0  0  0  0  0  0  0  0  0  0  0
   55.8930   27.8180   45.2490 N   0  0  0  0  0  0  0  0  0  0  0  0
   56.4200   26.9200   46.1110 C   0  0  0  0  0  0  0  0  0  0  0  0
   55.9300   25.7350   46.3250 N   0  0  0  0  0  0  0  0  0  0  0  0
   56.3330   24.5080   45.6920 C   0  0  0  0  0  0  0  0  0  0  0  0
   57.3560   23.6900   46.2170 C   0  0  0  0  0  0  0  0  0  0  0  0
   57.7300   22.5190   45.5510 C   0  0  0  0  0  0  0  0  0  0  0  0
   57.1070   22.1630   44.3520 C   0  0  0  0  0  0  0  0  0  0  0  0
   56.1130   22.9830   43.8110 C   0  0  0  0  0  0  0  0  0  0  0  0
   55.5160   22.6450   42.6390 F   0  0  0  0  0  0  0  0  0  0  0  0
   55.7340   24.1550   44.4740 C   0  0  0  0  0  0  0  0  0  0  0  0
   57.8420   27.4700   46.8170 S   0  0  0  0  0  0  0  0  0  0  0  0
   57.7600   28.9470   46.0190 C   0  0  0  0  0  0  0  0  0  0  0  0
   58.7180   29.9940   46.2000 N   0  0  0  0  0  0  0  0  0  0  0  0
   59.7440   29.9830   47.1950 C   0  0  0  0  0  0  0  0  0  0  0  0
   60.2830   28.8970   47.5410 O   0  0  0  0  0  0  0  0  0  0  0  0
   60.1210   31.2160   47.8150 N   0  0  0  0  0  0  0  0  0  0  0  0
   61.2760   32.0140   47.5160 C   0  0  0  0  0  0  0  0  0  0  0  0
   62.5710   31.6090   47.8900 C   0  0  0  0  0  0  0  0  0  0  0  0
   63.6820   32.3770   47.5310 C   0  0  0  0  0  0  0  0  0  0  0  0
   63.5140   33.5470   46.7880 C   0  0  0  0  0  0  0  0  0  0  0  0
   62.2360   33.9470   46.3910 C   0  0  0  0  0  0  0  0  0  0  0  0
   61.1140   33.1860   46.7530 C   0  0  0  0  0  0  0  0  0  0  0  0
   59.8000   33.6150   46.3640 N   0  0  0  0  0  0  0  0  0  0  0  0
   59.5670   34.1700   45.0290 C   0  0  0  0  0  0  0  0  0  0  0  0
   58.1370   33.8360   44.5890 C   0  0  0  0  0  0  0  0  0  0  0  0
   57.1960   34.2280   45.5770 O   0  0  0  0  0  0  0  0  0  0  0  0
   57.3940   33.4710   46.7590 C   0  0  0  0  0  0  0  0  0  0  0  0
   58.7570   33.7890   47.3780 C   0  0  0  0  0  0  0  0  0  0  0  0
   55.4790   30.4670   42.2830 H   0  0  0  0  0  0  0  0  0  0  0  0
   55.5870   28.7160   42.6630 H   0  0  0  0  0  0  0  0  0  0  0  0
   57.8603   23.9743   47.1523 H   0  0  0  0  0  0  0  0  0  0  0  0
   58.5170   21.8761   45.9721 H   0  0  0  0  0  0  0  0  0  0  0  0
   57.3989   21.2375   43.8340 H   0  0  0  0  0  0  0  0  0  0  0  0
   54.9609   24.8042   44.0371 H   0  0  0  0  0  0  0  0  0  0  0  0
   62.7093   30.6833   48.4678 H   0  0  0  0  0  0  0  0  0  0  0  0
   64.6905   32.0592   47.8343 H   0  0  0  0  0  0  0  0  0  0  0  0
   64.3893   34.1546   46.5149 H   0  0  0  0  0  0  0  0  0  0  0  0
   62.1087   34.8613   45.7928 H   0  0  0  0  0  0  0  0  0  0  0  0
   59.6985   35.2618   45.0560 H   0  0  0  0  0  0  0  0  0  0  0  0
   60.2845   33.7360   44.3171 H   0  0  0  0  0  0  0  0  0  0  0  0
   57.9160   34.3666   43.6511 H   0  0  0  0  0  0  0  0  0  0  0  0
   58.0601   32.7483   44.4438 H   0  0  0  0  0  0  0  0  0  0  0  0
   56.6022   33.7156   47.4823 H   0  0  0  0  0  0  0  0  0  0  0  0
   57.3595   32.4011   46.5058 H   0  0  0  0  0  0  0  0  0  0  0  0
   58.7639   34.8284   47.7380 H   0  0  0  0  0  0  0  0  0  0  0  0
   58.9463   33.1102   48.2226 H   0  0  0  0  0  0  0  0  0  0  0  0
  1  2  1  0
  2  3  2  0
  2  4  1  0
  4  5  1  0
  5  6  1  0
  6  7  2  3
  7  8  1  0
  8  9  2  0
  9 10  1  0
 10 11  2  0
 11 12  1  0
 12 13  1  0
 12 14  2  0
  6 15  1  0
 15 16  1  0
 16 17  1  0
 17 18  1  0
 18 19  2  0
 18 20  1  0
 20 21  1  0
 21 22  2  0
 22 23  1  0
 23 24  2  0
 24 25  1  0
 25 26  2  0
 26 27  1  0
 27 28  1  0
 28 29  1  0
 29 30  1  0
 30 31  1  0
 31 32  1  0
 16  4  2  0
 26 21  1  0
 32 27  1  0
 14  8  1  0
  1 33  1  0
  1 34  1  0
  9 35  1  0
 10 36  1  0
 11 37  1  0
 14 38  1  0
 22 39  1  0
 23 40  1  0
 24 41  1  0
 25 42  1  0
 28 43  1  0
 28 44  1  0
 29 45  1  0
 29 46  1  0
 31 47  1  0
 31 48  1  0
 32 49  1  0
 32 50  1  0
M  CHG  3   5  -1  17  -1  20  -1
M  END
>  <UniqueID>  (46) 
41

>  <SMILES>  (46) 
NC(=O)c1[n-]c(=Nc2cccc(F)c2)sc1[N-]C(=O)[N-]c1ccccc1N1CCOCC1

>  <Energy>  (46) 
104.7550655508063

>  <Genealogy>  (46) 
NC(=O)c1[n-]c(=Nc2cccc(F)c2)sc1[N-]C(=O)[N-]c1ccccc1N1CCOCC1 (protonated)
NC(=O)c1[n-]c(=Nc2cccc(F)c2)sc1[N-]C(=O)[N-]c1ccccc1N1CCOCC1 (3D coordinates assigned)
NC(=O)c1[n-]c(=Nc2cccc(F)c2)sc1[N-]C(=O)[N-]c1ccccc1N1CCOCC1 (nonaromatic ring conformer: 104.7550655508063 kcal/mol)

>  <smiles>  (46) 
NC(=O)c1[nH]c(=Nc2cccc(F)c2)sc1NC(=O)Nc1ccccc1N1CCOCC1

>  <score_type>  (46) 
oracle

>  <origin>  (46) 
adg

>  <m_score__min__energy>  (46) 
-13.75

>  <m_primary>  (46) 
energy

$$$$
46:0
     RDKit          3D

 32 34  0  0  0  0  0  0  0  0999 V2000
   60.3890   34.6270   48.6520 N   0  0  0  0  0  0  0  0  0  0  0  0
   60.1110   33.2740   48.2960 C   0  0  0  0  0  0  0  0  0  0  0  0
   60.4480   32.8590   47.1540 O   0  0  0  0  0  0  0  0  0  0  0  0
   59.4360   32.3670   49.2540 C   0  0  0  0  0  0  0  0  0  0  0  0
   58.9150   32.8600   50.4630 C   0  0  0  0  0  0  0  0  0  0  0  0
   58.2800   32.0000   51.3640 C   0  0  0  0  0  0  0  0  0  0  0  0
   58.1660   30.6300   51.0780 C   0  0  0  0  0  0  0  0  0  0  0  0
   57.5250   29.7390   51.9510 O   0  0  0  0  0  0  0  0  0  0  0  0
   56.1880   29.8320   52.3530 C   0  0  0  0  0  0  0  0  0  0  0  0
   55.6520   29.1370   53.4280 C   0  0  0  0  0  0  0  0  0  0  0  0
   54.3060   29.4390   53.6590 C   0  0  0  0  0  0  0  0  0  0  0  0
   53.7880   30.3670   52.7620 C   0  0  0  0  0  0  0  0  0  0  0  0
   52.4090   30.9430   52.8030 C   0  0  0  0  0  0  0  0  0  0  0  0
   51.9070   31.1690   51.4110 C   0  0  0  0  0  0  0  0  0  0  0  0
   51.9400   30.2420   50.4380 N   0  0  0  0  0  0  0  0  0  0  0  0
   51.3280   30.8590   49.4030 C   0  0  0  0  0  0  0  0  0  0  0  0
   51.1670   30.3050   48.2840 O   0  0  0  0  0  0  0  0  0  0  0  0
   50.8990   32.1120   49.6620 N   0  0  0  0  0  0  0  0  0  0  0  0
   51.2680   32.2900   50.9400 C   0  0  0  0  0  0  0  0  0  0  0  0
   51.0210   33.4510   51.6640 O   0  0  0  0  0  0  0  0  0  0  0  0
   55.0040   30.8400   51.6980 S   0  0  0  0  0  0  0  0  0  0  0  0
   58.6620   30.1400   49.8660 C   0  0  0  0  0  0  0  0  0  0  0  0
   59.2990   30.9970   48.9630 C   0  0  0  0  0  0  0  0  0  0  0  0
   59.6320   35.2600   48.9940 H   0  0  0  0  0  0  0  0  0  0  0  0
   59.0076   33.9298   50.7018 H   0  0  0  0  0  0  0  0  0  0  0  0
   57.8673   32.3989   52.3024 H   0  0  0  0  0  0  0  0  0  0  0  0
   56.2264   28.4224   54.0357 H   0  0  0  0  0  0  0  0  0  0  0  0
   53.7156   28.9873   54.4698 H   0  0  0  0  0  0  0  0  0  0  0  0
   51.7376   30.2441   53.3234 H   0  0  0  0  0  0  0  0  0  0  0  0
   52.4348   31.9038   53.3380 H   0  0  0  0  0  0  0  0  0  0  0  0
   58.5504   29.0734   49.6212 H   0  0  0  0  0  0  0  0  0  0  0  0
   59.6959   30.5972   48.0182 H   0  0  0  0  0  0  0  0  0  0  0  0
  1  2  1  0
  2  3  2  0
  2  4  1  0
  4  5  2  0
  5  6  1  0
  6  7  2  0
  7  8  1  0
  8  9  1  0
  9 10  2  0
 10 11  1  0
 11 12  2  0
 12 13  1  0
 13 14  1  0
 14 15  1  0
 15 16  1  0
 16 17  2  0
 16 18  1  0
 18 19  1  0
 19 20  1  0
 12 21  1  0
  7 22  1  0
 22 23  2  0
 23  4  1  0
 21  9  1  0
 19 14  2  0
  1 24  1  0
  5 25  1  0
  6 26  1  0
 10 27  1  0
 11 28  1  0
 13 29  1  0
 13 30  1  0
 22 31  1  0
 23 32  1  0
M  CHG  4   1  -1  15  -1  18  -1  20  -1
M  END
>  <UniqueID>  (47) 
42

>  <SMILES>  (47) 
[NH-]C(=O)c1ccc(Oc2ccc(Cc3[n-]c(=O)[n-]c3[O-])s2)cc1

>  <Energy>  (47) 
93.81226682870992

>  <Genealogy>  (47) 
[NH-]C(=O)c1ccc(Oc2ccc(Cc3[n-]c(=O)[n-]c3[O-])s2)cc1 (protonated)
[NH-]C(=O)c1ccc(Oc2ccc(Cc3[n-]c(=O)[n-]c3[O-])s2)cc1 (3D coordinates assigned)
[NH-]C(=O)c1ccc(Oc2ccc(Cc3[n-]c(=O)[n-]c3[O-])s2)cc1 (optimized conformer: 93.81226682870992 kcal/mol)

>  <smiles>  (47) 
NC(=O)c1ccc(Oc2ccc(Cc3[nH]c(=O)[nH]c3O)s2)cc1

>  <score_type>  (47) 
oracle

>  <origin>  (47) 
adg

>  <m_score__min__energy>  (47) 
-16.52

>  <m_primary>  (47) 
energy

$$$$
47:0
     RDKit          3D

 58 61  0  0  0  0  0  0  0  0999 V2000
   62.5710   31.7300   47.7210 C   0  0  0  0  0  0  0  0  0  0  0  0
   63.1520   33.4090   47.6640 S   0  0  0  0  0  0  0  0  0  0  0  0
   64.5210   33.4670   48.2800 O   0  0  0  0  0  0  0  0  0  0  0  0
   63.2170   33.8670   46.2350 O   0  0  0  0  0  0  0  0  0  0  0  0
   62.0620   34.4180   48.5590 N   0  0  0  0  0  0  0  0  0  0  0  0
   60.6420   34.2380   48.5760 C   0  0  0  0  0  0  0  0  0  0  0  0
   59.9830   34.6420   49.5720 O   0  0  0  0  0  0  0  0  0  0  0  0
   59.9330   33.6160   47.4500 C   0  0  0  0  0  0  0  0  0  0  0  0
   59.3970   32.3280   47.5930 C   0  0  0  0  0  0  0  0  0  0  0  0
   58.6520   31.7580   46.5590 C   0  0  0  0  0  0  0  0  0  0  0  0
   58.4470   32.4640   45.3620 C   0  0  0  0  0  0  0  0  0  0  0  0
   57.5680   31.8920   44.2800 C   0  0  0  0  0  0  0  0  0  0  0  0
   56.4670   31.1310   44.8630 N   0  0  0  0  0  0  0  0  0  0  0  0
   56.5130   29.7180   45.0900 C   0  0  0  0  0  0  0  0  0  0  0  0
   55.5550   28.9850   44.7220 O   0  0  0  0  0  0  0  0  0  0  0  0
   57.6480   29.1450   45.7450 N   0  0  0  0  0  0  0  0  0  0  0  0
   57.9440   27.7400   45.7010 C   0  0  0  0  0  0  0  0  0  0  0  0
   58.7440   27.1720   46.6940 C   0  0  0  0  0  0  0  0  0  0  0  0
   59.0310   25.8060   46.6700 C   0  0  0  0  0  0  0  0  0  0  0  0
   58.5550   24.9840   45.6400 C   0  0  0  0  0  0  0  0  0  0  0  0
   57.7820   25.5640   44.5920 C   0  0  0  0  0  0  0  0  0  0  0  0
   57.4790   26.9380   44.6500 C   0  0  0  0  0  0  0  0  0  0  0  0
   57.2870   24.7770   43.4020 C   0  0  0  0  0  0  0  0  0  0  0  0
   56.5970   23.5590   43.8350 N   0  0  0  0  0  0  0  0  0  0  0  0
   55.1290   23.5520   43.9180 C   0  0  0  0  0  0  0  0  0  0  0  0
   54.6960   23.3350   45.3330 C   0  0  0  0  0  0  0  0  0  0  0  0
   53.5340   22.7090   45.7360 C   0  0  0  0  0  0  0  0  0  0  0  0
   53.5660   22.7230   47.1140 C   0  0  0  0  0  0  0  0  0  0  0  0
   54.7390   23.3590   47.4650 C   0  0  0  0  0  0  0  0  0  0  0  0
   55.3920   23.7110   46.3820 O   0  0  0  0  0  0  0  0  0  0  0  0
   57.3740   22.4340   44.2770 C   0  0  0  0  0  0  0  0  0  0  0  0
   56.8690   21.2800   44.3190 O   0  0  0  0  0  0  0  0  0  0  0  0
   58.7930   22.6310   44.7140 C   0  0  0  0  0  0  0  0  0  0  0  0
   58.8680   23.6150   45.7410 O   0  0  0  0  0  0  0  0  0  0  0  0
   59.0180   33.7350   45.2060 C   0  0  0  0  0  0  0  0  0  0  0  0
   59.7560   34.3110   46.2440 C   0  0  0  0  0  0  0  0  0  0  0  0
   60.2990   35.5420   46.0730 F   0  0  0  0  0  0  0  0  0  0  0  0
   62.4620   31.4151   48.7693 H   0  0  0  0  0  0  0  0  0  0  0  0
   61.5970   31.6617   47.2145 H   0  0  0  0  0  0  0  0  0  0  0  0
   63.2945   31.0742   47.2145 H   0  0  0  0  0  0  0  0  0  0  0  0
   59.5641   31.7649   48.5230 H   0  0  0  0  0  0  0  0  0  0  0  0
   58.2239   30.7522   46.6821 H   0  0  0  0  0  0  0  0  0  0  0  0
   57.1588   32.7139   43.6741 H   0  0  0  0  0  0  0  0  0  0  0  0
   58.1705   31.2200   43.6511 H   0  0  0  0  0  0  0  0  0  0  0  0
   58.2470   29.7660   46.3330 H   0  0  0  0  0  0  0  0  0  0  0  0
   59.1498   27.8031   47.4984 H   0  0  0  0  0  0  0  0  0  0  0  0
   59.6412   25.3675   47.4734 H   0  0  0  0  0  0  0  0  0  0  0  0
   56.8663   27.3899   43.8561 H   0  0  0  0  0  0  0  0  0  0  0  0
   56.5899   25.3998   42.8223 H   0  0  0  0  0  0  0  0  0  0  0  0
   58.1508   24.4922   42.7833 H   0  0  0  0  0  0  0  0  0  0  0  0
   54.7397   24.5174   43.5622 H   0  0  0  0  0  0  0  0  0  0  0  0
   54.7366   22.7370   43.2921 H   0  0  0  0  0  0  0  0  0  0  0  0
   52.7475   22.2874   45.0928 H   0  0  0  0  0  0  0  0  0  0  0  0
   52.8086   22.3101   47.7966 H   0  0  0  0  0  0  0  0  0  0  0  0
   55.0759   23.5431   48.4958 H   0  0  0  0  0  0  0  0  0  0  0  0
   59.1894   21.6786   45.0959 H   0  0  0  0  0  0  0  0  0  0  0  0
   59.3860   22.9711   43.8523 H   0  0  0  0  0  0  0  0  0  0  0  0
   58.8844   34.2821   44.2611 H   0  0  0  0  0  0  0  0  0  0  0  0
  1  2  1  0
  2  3  2  0
  2  4  2  0
  2  5  1  0
  5  6  1  0
  6  7  2  0
  6  8  1  0
  8  9  2  0
  9 10  1  0
 10 11  2  0
 11 12  1  0
 12 13  1  0
 13 14  1  0
 14 15  2  0
 14 16  1  0
 16 17  1  0
 17 18  2  0
 18 19  1  0
 19 20  2  0
 20 21  1  0
 21 22  2  0
 21 23  1  0
 23 24  1  0
 24 25  1  0
 25 26  1  0
 26 27  2  0
 27 28  1  0
 28 29  2  0
 29 30  1  0
 24 31  1  0
 31 32  2  0
 31 33  1  0
 33 34  1  0
 11 35  1  0
 35 36  2  0
 36 37  1  0
 36  8  1  0
 22 17  1  0
 30 26  1  0
 34 20  1  0
  1 38  1  0
  1 39  1  0
  1 40  1  0
  9 41  1  0
 10 42  1  0
 12 43  1  0
 12 44  1  0
 16 45  1  0
 18 46  1  0
 19 47  1  0
 22 48  1  0
 23 49  1  0
 23 50  1  0
 25 51  1  0
 25 52  1  0
 27 53  1  0
 28 54  1  0
 29 55  1  0
 33 56  1  0
 33 57  1  0
 35 58  1  0
M  CHG  2   5  -1  13  -1
M  END
>  <UniqueID>  (48) 
43

>  <SMILES>  (48) 
CS(=O)(=O)[N-]C(=O)c1ccc(C[N-]C(=O)Nc2ccc3c(c2)CN(Cc2ccco2)C(=O)CO3)cc1F

>  <Energy>  (48) 
91.05959121817422

>  <Genealogy>  (48) 
CS(=O)(=O)[N-]C(=O)c1ccc(C[N-]C(=O)Nc2ccc3c(c2)CN(Cc2ccco2)C(=O)CO3)cc1F (protonated)
CS(=O)(=O)[N-]C(=O)c1ccc(C[N-]C(=O)Nc2ccc3c(c2)CN(Cc2ccco2)C(=O)CO3)cc1F (3D coordinates assigned)
CS(=O)(=O)[N-]C(=O)c1ccc(C[N-]C(=O)Nc2ccc3c(c2)CN(Cc2ccco2)C(=O)CO3)cc1F (nonaromatic ring conformer: 91.05959121817422 kcal/mol)

>  <smiles>  (48) 
CS(=O)(=O)NC(=O)c1ccc(CNC(=O)Nc2ccc3c(c2)CN(Cc2ccco2)C(=O)CO3)cc1F

>  <score_type>  (48) 
oracle

>  <origin>  (48) 
adg

>  <m_score__min__energy>  (48) 
-10.130000000000001

>  <m_primary>  (48) 
energy

$$$$
48:0
     RDKit          3D

 67 71  0  0  0  0  0  0  0  0999 V2000
   61.5300   34.5910   48.5990 O   0  0  0  0  0  0  0  0  0  0  0  0
   61.5210   33.8320   47.5960 C   0  0  0  0  0  0  0  0  0  0  0  0
   60.6870   34.1870   46.4050 C   0  0  0  0  0  0  0  0  0  0  0  0
   59.4610   35.0380   46.7790 C   0  0  0  0  0  0  0  0  0  0  0  0
   58.1690   34.2310   47.0110 C   0  0  0  0  0  0  0  0  0  0  0  0
   58.4360   32.8060   47.4380 C   0  0  0  0  0  0  0  0  0  0  0  0
   58.2310   31.6350   46.6980 C   0  0  0  0  0  0  0  0  0  0  0  0
   57.8720   31.5560   45.2710 C   0  0  0  0  0  0  0  0  0  0  0  0
   58.7210   31.8900   44.4000 O   0  0  0  0  0  0  0  0  0  0  0  0
   56.5760   31.1230   44.8510 N   0  0  0  0  0  0  0  0  0  0  0  0
   56.2920   29.5470   44.1880 S   0  0  0  0  0  0  0  0  0  0  0  0
   55.5180   28.7320   45.1890 O   0  0  0  0  0  0  0  0  0  0  0  0
   55.4650   29.6970   42.9400 O   0  0  0  0  0  0  0  0  0  0  0  0
   57.8190   28.7150   43.7720 C   0  0  0  0  0  0  0  0  0  0  0  0
   58.5670   28.3260   45.0180 C   0  0  0  0  0  0  0  0  0  0  0  0
   57.9940   27.4290   45.9350 C   0  0  0  0  0  0  0  0  0  0  0  0
   58.7060   27.0330   47.0730 C   0  0  0  0  0  0  0  0  0  0  0  0
   59.9930   27.5330   47.3040 C   0  0  0  0  0  0  0  0  0  0  0  0
   60.5690   28.4260   46.3960 C   0  0  0  0  0  0  0  0  0  0  0  0
   59.8630   28.8170   45.2540 C   0  0  0  0  0  0  0  0  0  0  0  0
   58.4920   30.5400   47.4500 N   0  0  0  0  0  0  0  0  0  0  0  0
   58.9070   31.0000   48.6410 C   0  0  0  0  0  0  0  0  0  0  0  0
   59.3490   30.2460   49.7270 C   0  0  0  0  0  0  0  0  0  0  0  0
   59.7850   30.9340   50.8740 C   0  0  0  0  0  0  0  0  0  0  0  0
   60.3470   30.0320   52.2740 Cl  0  0  0  0  0  0  0  0  0  0  0  0
   59.7710   32.3470   50.9080 C   0  0  0  0  0  0  0  0  0  0  0  0
   59.3220   33.0820   49.7930 C   0  0  0  0  0  0  0  0  0  0  0  0
   58.8910   32.3730   48.6730 C   0  0  0  0  0  0  0  0  0  0  0  0
   62.3410   32.6580   47.5620 N   0  0  0  0  0  0  0  0  0  0  0  0
   63.2730   32.2540   48.5780 C   0  0  0  0  0  0  0  0  0  0  0  0
   62.9100   31.2310   49.4630 C   0  0  0  0  0  0  0  0  0  0  0  0
   63.7780   30.8390   50.4880 C   0  0  0  0  0  0  0  0  0  0  0  0
   65.0200   31.4700   50.6460 C   0  0  0  0  0  0  0  0  0  0  0  0
   66.1480   30.9320   51.8900 S   0  0  0  0  0  0  0  0  0  0  0  0
   65.8450   31.6120   53.1960 O   0  0  0  0  0  0  0  0  0  0  0  0
   67.5480   31.2980   51.4810 O   0  0  0  0  0  0  0  0  0  0  0  0
   66.0790   29.2040   52.0620 N   0  0  0  0  0  0  0  0  0  0  0  0
   66.7120   28.3370   51.3300 C   0  0  0  0  0  0  0  0  0  0  0  0
   67.6990   28.6960   50.4840 N   0  0  0  0  0  0  0  0  0  0  0  0
   68.1900   27.6290   49.8000 C   0  0  0  0  0  0  0  0  0  0  0  0
   67.5980   26.4090   50.1020 C   0  0  0  0  0  0  0  0  0  0  0  0
   66.4110   26.6790   51.2610 S   0  0  0  0  0  0  0  0  0  0  0  0
   65.3690   32.5210   49.7840 C   0  0  0  0  0  0  0  0  0  0  0  0
   64.5020   32.9130   48.7590 C   0  0  0  0  0  0  0  0  0  0  0  0
   61.3076   34.7544   45.6958 H   0  0  0  0  0  0  0  0  0  0  0  0
   60.3212   33.2495   45.9608 H   0  0  0  0  0  0  0  0  0  0  0  0
   59.6933   35.5875   47.7031 H   0  0  0  0  0  0  0  0  0  0  0  0
   59.2666   35.6997   45.9220 H   0  0  0  0  0  0  0  0  0  0  0  0
   57.5803   34.7284   47.7959 H   0  0  0  0  0  0  0  0  0  0  0  0
   57.6263   34.1936   46.0550 H   0  0  0  0  0  0  0  0  0  0  0  0
   57.5905   27.8099   43.1902 H   0  0  0  0  0  0  0  0  0  0  0  0
   58.4459   29.3992   43.1813 H   0  0  0  0  0  0  0  0  0  0  0  0
   56.9818   27.0364   45.7579 H   0  0  0  0  0  0  0  0  0  0  0  0
   58.2540   26.3283   47.7865 H   0  0  0  0  0  0  0  0  0  0  0  0
   60.5509   27.2232   48.2000 H   0  0  0  0  0  0  0  0  0  0  0  0
   61.5788   28.8216   46.5799 H   0  0  0  0  0  0  0  0  0  0  0  0
   60.3239   29.5121   44.5368 H   0  0  0  0  0  0  0  0  0  0  0  0
   58.4500   29.5420   47.1450 H   0  0  0  0  0  0  0  0  0  0  0  0
   59.3566   29.1467   49.6883 H   0  0  0  0  0  0  0  0  0  0  0  0
   60.1126   32.8758   51.8101 H   0  0  0  0  0  0  0  0  0  0  0  0
   59.3119   34.1819   49.8060 H   0  0  0  0  0  0  0  0  0  0  0  0
   61.9359   30.7323   49.3515 H   0  0  0  0  0  0  0  0  0  0  0  0
   63.4842   30.0309   51.1740 H   0  0  0  0  0  0  0  0  0  0  0  0
   68.9984   27.7246   49.0602 H   0  0  0  0  0  0  0  0  0  0  0  0
   67.8602   25.4365   49.6600 H   0  0  0  0  0  0  0  0  0  0  0  0
   66.3302   33.0396   49.9153 H   0  0  0  0  0  0  0  0  0  0  0  0
   64.7828   33.7408   48.0912 H   0  0  0  0  0  0  0  0  0  0  0  0
  1  2  2  0
  2  3  1  0
  3  4  1  0
  4  5  1  0
  5  6  1  0
  6  7  2  0
  7  8  1  0
  8  9  2  0
  8 10  1  0
 10 11  1  0
 11 12  2  0
 11 13  2  0
 11 14  1  0
 14 15  1  0
 15 16  2  0
 16 17  1  0
 17 18  2  0
 18 19  1  0
 19 20  2  0
  7 21  1  0
 21 22  1  0
 22 23  2  0
 23 24  1  0
 24 25  1  0
 24 26  2  0
 26 27  1  0
 27 28  2  0
  2 29  1  0
 29 30  1  0
 30 31  2  0
 31 32  1  0
 32 33  2  0
 33 34  1  0
 34 35  2  0
 34 36  2  0
 34 37  1  0
 37 38  2  3
 38 39  1  0
 39 40  1  0
 40 41  2  0
 41 42  1  0
 33 43  1  0
 43 44  2  0
 28  6  1  0
 44 30  1  0
 20 15  1  0
 28 22  1  0
 42 38  1  0
  3 45  1  0
  3 46  1  0
  4 47  1  0
  4 48  1  0
  5 49  1  0
  5 50  1  0
 14 51  1  0
 14 52  1  0
 16 53  1  0
 17 54  1  0
 18 55  1  0
 19 56  1  0
 20 57  1  0
 21 58  1  0
 23 59  1  0
 26 60  1  0
 27 61  1  0
 31 62  1  0
 32 63  1  0
 40 64  1  0
 41 65  1  0
 43 66  1  0
 44 67  1  0
M  CHG  3  10  -1  29  -1  39  -1
M  END
>  <UniqueID>  (49) 
44

>  <SMILES>  (49) 
O=C(CCCc1c(C(=O)[N-]S(=O)(=O)Cc2ccccc2)[nH]c2cc(Cl)ccc12)[N-]c1ccc(S(=O)(=O)N=c2[n-]ccs2)cc1

>  <Energy>  (49) 
146.08656138578397

>  <Genealogy>  (49) 
O=C(CCCc1c(C(=O)[N-]S(=O)(=O)Cc2ccccc2)[nH]c2cc(Cl)ccc12)[N-]c1ccc(S(=O)(=O)N=c2[n-]ccs2)cc1 (protonated)
O=C(CCCc1c(C(=O)[N-]S(=O)(=O)Cc2ccccc2)[nH]c2cc(Cl)ccc12)[N-]c1ccc(S(=O)(=O)N=c2[n-]ccs2)cc1 (3D coordinates assigned)
O=C(CCCc1c(C(=O)[N-]S(=O)(=O)Cc2ccccc2)[nH]c2cc(Cl)ccc12)[N-]c1ccc(S(=O)(=O)N=c2[n-]ccs2)cc1 (optimized conformer: 146.08656138578397 kcal/mol)

>  <smiles>  (49) 
O=C(CCCc1c(C(=O)NS(=O)(=O)Cc2ccccc2)[nH]c2cc(Cl)ccc12)Nc1ccc(S(=O)(=O)N=c2[nH]ccs2)cc1

>  <score_type>  (49) 
oracle

>  <origin>  (49) 
adg

>  <m_score__min__energy>  (49) 
-14.99

>  <m_primary>  (49) 
energy

$$$$
49:0
     RDKit          3D

 42 43  0  0  0  0  0  0  0  0999 V2000
   56.3080   27.7100   45.6040 N   0  0  0  0  0  0  0  0  0  0  0  0
   57.7570   27.0130   46.2380 S   0  0  0  0  0  0  0  0  0  0  0  0
   58.3760   26.1110   45.2070 O   0  0  0  0  0  0  0  0  0  0  0  0
   57.4250   26.1960   47.4560 O   0  0  0  0  0  0  0  0  0  0  0  0
   58.8930   28.2910   46.6590 C   0  0  0  0  0  0  0  0  0  0  0  0
   58.9780   28.7630   47.9760 C   0  0  0  0  0  0  0  0  0  0  0  0
   59.8740   29.7870   48.3000 C   0  0  0  0  0  0  0  0  0  0  0  0
   60.6860   30.3580   47.3090 C   0  0  0  0  0  0  0  0  0  0  0  0
   61.6600   31.4450   47.6720 C   0  0  0  0  0  0  0  0  0  0  0  0
   61.1000   32.3040   48.6630 O   0  0  0  0  0  0  0  0  0  0  0  0
   60.2510   33.3730   48.3610 C   0  0  0  0  0  0  0  0  0  0  0  0
   59.2950   33.6700   49.1290 O   0  0  0  0  0  0  0  0  0  0  0  0
   60.4780   34.1260   47.1670 N   0  0  0  0  0  0  0  0  0  0  0  0
   59.5610   35.1470   46.6730 C   0  0  0  0  0  0  0  0  0  0  0  0
   58.4990   34.5160   45.7670 C   0  0  0  0  0  0  0  0  0  0  0  0
   59.1030   33.5100   44.7760 C   0  0  0  0  0  0  0  0  0  0  0  0
   58.1700   32.4040   44.4940 N   0  0  0  0  0  0  0  0  0  0  0  0
   57.8570   32.1040   43.1970 C   0  0  0  0  0  0  0  0  0  0  0  0
   56.9940   31.0500   42.9020 C   0  0  0  0  0  0  0  0  0  0  0  0
   56.4590   30.3140   43.9560 C   0  0  0  0  0  0  0  0  0  0  0  0
   55.6760   29.3560   43.7280 O   0  0  0  0  0  0  0  0  0  0  0  0
   56.7840   30.6320   45.2330 N   0  0  0  0  0  0  0  0  0  0  0  0
   57.6290   31.6600   45.5120 C   0  0  0  0  0  0  0  0  0  0  0  0
   57.9020   31.9170   46.7160 O   0  0  0  0  0  0  0  0  0  0  0  0
   60.5970   29.8860   45.9890 C   0  0  0  0  0  0  0  0  0  0  0  0
   59.7020   28.8610   45.6660 C   0  0  0  0  0  0  0  0  0  0  0  0
   56.2910   27.5000   44.5810 H   0  0  0  0  0  0  0  0  0  0  0  0
   56.4040   28.7470   45.6940 H   0  0  0  0  0  0  0  0  0  0  0  0
   58.3381   28.3268   48.7572 H   0  0  0  0  0  0  0  0  0  0  0  0
   59.9422   30.1464   49.3374 H   0  0  0  0  0  0  0  0  0  0  0  0
   62.5809   30.9899   48.0654 H   0  0  0  0  0  0  0  0  0  0  0  0
   61.8852   32.0371   46.7727 H   0  0  0  0  0  0  0  0  0  0  0  0
   59.0667   35.6340   47.5265 H   0  0  0  0  0  0  0  0  0  0  0  0
   60.1304   35.8884   46.0933 H   0  0  0  0  0  0  0  0  0  0  0  0
   57.7620   33.9947   46.3955 H   0  0  0  0  0  0  0  0  0  0  0  0
   58.0303   35.3229   45.1845 H   0  0  0  0  0  0  0  0  0  0  0  0
   59.3355   34.0304   43.8352 H   0  0  0  0  0  0  0  0  0  0  0  0
   60.0141   33.0875   45.2248 H   0  0  0  0  0  0  0  0  0  0  0  0
   58.2899   32.6995   42.3797 H   0  0  0  0  0  0  0  0  0  0  0  0
   56.7412   30.8051   41.8598 H   0  0  0  0  0  0  0  0  0  0  0  0
   61.2337   30.3242   45.2063 H   0  0  0  0  0  0  0  0  0  0  0  0
   59.6326   28.5007   44.6290 H   0  0  0  0  0  0  0  0  0  0  0  0
  1  2  1  0
  2  3  2  0
  2  4  2  0
  2  5  1  0
  5  6  2  0
  6  7  1  0
  7  8  2  0
  8  9  1  0
  9 10  1  0
 10 11  1  0
 11 12  2  0
 11 13  1  0
 13 14  1  0
 14 15  1  0
 15 16  1  0
 16 17  1  0
 17 18  1  0
 18 19  2  0
 19 20  1  0
 20 21  2  0
 20 22  1  0
 22 23  1  0
 23 24  2  0
  8 25  1  0
 25 26  2  0
 26  5  1  0
 23 17  1  0
  1 27  1  0
  1 28  1  0
  6 29  1  0
  7 30  1  0
  9 31  1  0
  9 32  1  0
 14 33  1  0
 14 34  1  0
 15 35  1  0
 15 36  1  0
 16 37  1  0
 16 38  1  0
 18 39  1  0
 19 40  1  0
 25 41  1  0
 26 42  1  0
M  CHG  2  13  -1  22  -1
M  END
>  <UniqueID>  (50) 
45

>  <SMILES>  (50) 
NS(=O)(=O)c1ccc(COC(=O)[N-]CCCn2ccc(=O)[n-]c2=O)cc1

>  <Energy>  (50) 
35.56240506624204

>  <Genealogy>  (50) 
NS(=O)(=O)c1ccc(COC(=O)[N-]CCCn2ccc(=O)[n-]c2=O)cc1 (protonated)
NS(=O)(=O)c1ccc(COC(=O)[N-]CCCn2ccc(=O)[n-]c2=O)cc1 (3D coordinates assigned)
NS(=O)(=O)c1ccc(COC(=O)[N-]CCCn2ccc(=O)[n-]c2=O)cc1 (optimized conformer: 35.56240506624204 kcal/mol)

>  <smiles>  (50) 
NS(=O)(=O)c1ccc(COC(=O)NCCCn2ccc(=O)[nH]c2=O)cc1

>  <score_type>  (50) 
oracle

>  <origin>  (50) 
adg

>  <m_score__min__energy>  (50) 
-11.5

>  <m_primary>  (50) 
energy

$$$$
50:0
     RDKit          3D

 41 44  0  0  0  0  0  0  0  0999 V2000
   55.5389   27.6371   52.8362 H   0  0  0  0  0  0  0  0  0  0  0  0
   54.7860   28.4330   52.7380 C   0  0  0  0  0  0  0  0  0  0  0  0
   53.7150   28.1838   52.7685 H   0  0  0  0  0  0  0  0  0  0  0  0
   55.1740   29.7080   52.5810 C   0  0  0  0  0  0  0  0  0  0  0  0
   54.3340   30.8190   52.4440 C   0  0  0  0  0  0  0  0  0  0  0  0
   52.9890   30.8210   52.3660 C   0  0  0  0  0  0  0  0  0  0  0  0
   52.4178   30.6622   53.2926 H   0  0  0  0  0  0  0  0  0  0  0  0
   52.2360   31.0230   51.1150 C   0  0  0  0  0  0  0  0  0  0  0  0
   52.2260   30.1310   50.1090 N   0  0  0  0  0  0  0  0  0  0  0  0
   51.3590   30.6680   49.2220 C   0  0  0  0  0  0  0  0  0  0  0  0
   51.0890   30.1200   48.1220 O   0  0  0  0  0  0  0  0  0  0  0  0
   50.8000   31.8330   49.6110 N   0  0  0  0  0  0  0  0  0  0  0  0
   51.3550   32.0390   50.8170 C   0  0  0  0  0  0  0  0  0  0  0  0
   51.0230   33.1060   51.6420 O   0  0  0  0  0  0  0  0  0  0  0  0
   55.1660   31.9270   52.3500 C   0  0  0  0  0  0  0  0  0  0  0  0
   54.8535   32.9751   52.2323 H   0  0  0  0  0  0  0  0  0  0  0  0
   56.4620   31.4570   52.4330 C   0  0  0  0  0  0  0  0  0  0  0  0
   57.6860   32.3190   52.3680 C   0  0  0  0  0  0  0  0  0  0  0  0
   58.0223   32.5558   53.3882 H   0  0  0  0  0  0  0  0  0  0  0  0
   58.4843   31.7827   51.8340 H   0  0  0  0  0  0  0  0  0  0  0  0
   57.4500   33.2513   51.8340 H   0  0  0  0  0  0  0  0  0  0  0  0
   56.4690   30.1130   52.5790 N   0  0  0  0  0  0  0  0  0  0  0  0
   57.6410   29.2860   52.6830 C   0  0  0  0  0  0  0  0  0  0  0  0
   57.7520   28.3420   53.7130 C   0  0  0  0  0  0  0  0  0  0  0  0
   56.9425   28.2398   54.4508 H   0  0  0  0  0  0  0  0  0  0  0  0
   58.8850   27.5300   53.8080 C   0  0  0  0  0  0  0  0  0  0  0  0
   58.9631   26.7961   54.6236 H   0  0  0  0  0  0  0  0  0  0  0  0
   59.9260   27.6430   52.8700 C   0  0  0  0  0  0  0  0  0  0  0  0
   61.1300   26.7790   52.9690 C   0  0  0  0  0  0  0  0  0  0  0  0
   62.4450   27.1980   52.8370 C   0  0  0  0  0  0  0  0  0  0  0  0
   62.7925   28.2231   52.6408 H   0  0  0  0  0  0  0  0  0  0  0  0
   63.2320   26.0770   53.0000 C   0  0  0  0  0  0  0  0  0  0  0  0
   64.3303   26.0330   52.9573 H   0  0  0  0  0  0  0  0  0  0  0  0
   62.3730   25.0220   53.2270 C   0  0  0  0  0  0  0  0  0  0  0  0
   62.6848   23.9814   53.4000 H   0  0  0  0  0  0  0  0  0  0  0  0
   61.0990   25.4510   53.2060 N   0  0  0  0  0  0  0  0  0  0  0  0
   60.2570   24.8550   53.3700 H   0  0  0  0  0  0  0  0  0  0  0  0
   59.8060   28.5890   51.8340 C   0  0  0  0  0  0  0  0  0  0  0  0
   60.6101   28.6888   51.0900 H   0  0  0  0  0  0  0  0  0  0  0  0
   58.6730   29.4020   51.7440 C   0  0  0  0  0  0  0  0  0  0  0  0
   58.5914   30.1377   50.9303 H   0  0  0  0  0  0  0  0  0  0  0  0
  1  2  1  0
  2  3  1  0
  2  4  2  0
  4  5  1  0
  5  6  2  0
  6  7  1  0
  6  8  1  0
  8  9  1  0
  9 10  1  0
 10 11  2  0
 10 12  1  0
 12 13  1  0
 13 14  1  0
  5 15  1  0
 15 16  1  0
 15 17  2  0
 17 18  1  0
 18 19  1  0
 18 20  1  0
 18 21  1  0
 17 22  1  0
 22 23  1  0
 23 24  2  0
 24 25  1  0
 24 26  1  0
 26 27  1  0
 26 28  2  0
 28 29  1  0
 29 30  2  0
 30 31  1  0
 30 32  1  0
 32 33  1  0
 32 34  2  0
 34 35  1  0
 34 36  1  0
 36 37  1  0
 28 38  1  0
 38 39  1  0
 38 40  2  0
 40 41  1  0
 22  4  1  0
 40 23  1  0
 13  8  2  0
 36 29  1  0
M  CHG  3   9  -1  12  -1  14  -1
M  END
>  <UniqueID>  (51) 
46

>  <SMILES>  (51) 
C=c1/c(=C/c2[n-]c(=O)[n-]c2[O-])cc(C)n1-c1ccc(-c2ccc[nH]2)cc1

>  <Energy>  (51) 
143.96949227412847

>  <Genealogy>  (51) 
C=c1c(=Cc2[n-]c(=O)[n-]c2[O-])cc(C)n1-c1ccc(-c2ccc[nH]2)cc1 (protonated)
C=c1/c(=C/c2[n-]c(=O)[n-]c2[O-])cc(C)n1-c1ccc(-c2ccc[nH]2)cc1 (cis-trans isomerization)
C=c1/c(=C/c2[n-]c(=O)[n-]c2[O-])cc(C)n1-c1ccc(-c2ccc[nH]2)cc1 (3D coordinates assigned)
C=c1/c(=C/c2[n-]c(=O)[n-]c2[O-])cc(C)n1-c1ccc(-c2ccc[nH]2)cc1 (optimized conformer: 143.96949227412847 kcal/mol)

>  <smiles>  (51) 
C=c1c(=Cc2[nH]c(=O)[nH]c2O)cc(C)n1-c1ccc(-c2ccc[nH]2)cc1

>  <score_type>  (51) 
oracle

>  <origin>  (51) 
adg

>  <m_score__min__energy>  (51) 
-15.210000000000001

>  <m_primary>  (51) 
energy

$$$$
51:0
     RDKit          3D

 40 42  0  0  0  0  0  0  0  0999 V2000
   62.0180   34.3680   49.6810 N   0  0  0  0  0  0  0  0  0  0  0  0
   60.8500   33.8820   49.0200 C   0  0  0  0  0  0  0  0  0  0  0  0
   59.7610   34.5010   49.1680 O   0  0  0  0  0  0  0  0  0  0  0  0
   60.9130   32.6680   48.1730 C   0  0  0  0  0  0  0  0  0  0  0  0
   62.1430   32.0330   47.9210 C   0  0  0  0  0  0  0  0  0  0  0  0
   62.1990   30.8890   47.1200 C   0  0  0  0  0  0  0  0  0  0  0  0
   61.0320   30.3650   46.5620 C   0  0  0  0  0  0  0  0  0  0  0  0
   59.7950   30.9830   46.8010 C   0  0  0  0  0  0  0  0  0  0  0  0
   58.5900   30.4410   46.2250 N   0  0  0  0  0  0  0  0  0  0  0  0
   57.7660   31.2430   45.4770 C   0  0  0  0  0  0  0  0  0  0  0  0
   58.0430   32.4610   45.2960 O   0  0  0  0  0  0  0  0  0  0  0  0
   56.6330   30.7380   44.9280 N   0  0  0  0  0  0  0  0  0  0  0  0
   56.2770   29.4430   45.1040 C   0  0  0  0  0  0  0  0  0  0  0  0
   55.1200   28.9650   44.4970 O   0  0  0  0  0  0  0  0  0  0  0  0
   57.0800   28.5990   45.8760 C   0  0  0  0  0  0  0  0  0  0  0  0
   56.7120   27.1840   46.0810 C   0  0  0  0  0  0  0  0  0  0  0  0
   55.5050   26.8400   45.9730 O   0  0  0  0  0  0  0  0  0  0  0  0
   57.6960   26.1860   46.3750 N   0  0  0  0  0  0  0  0  0  0  0  0
   58.6070   25.6240   45.3850 C   0  0  0  0  0  0  0  0  0  0  0  0
   57.9760   24.4130   44.7610 C   0  0  0  0  0  0  0  0  0  0  0  0
   56.9960   24.5590   43.7660 C   0  0  0  0  0  0  0  0  0  0  0  0
   56.4330   23.4310   43.1620 C   0  0  0  0  0  0  0  0  0  0  0  0
   56.8520   22.1510   43.5380 C   0  0  0  0  0  0  0  0  0  0  0  0
   56.3070   21.0590   42.9490 F   0  0  0  0  0  0  0  0  0  0  0  0
   57.8390   21.9990   44.5160 C   0  0  0  0  0  0  0  0  0  0  0  0
   58.4050   23.1250   45.1230 C   0  0  0  0  0  0  0  0  0  0  0  0
   58.2610   29.1240   46.4250 C   0  0  0  0  0  0  0  0  0  0  0  0
   59.0200   28.3750   47.1020 O   0  0  0  0  0  0  0  0  0  0  0  0
   59.7420   32.1330   47.6060 C   0  0  0  0  0  0  0  0  0  0  0  0
   62.3560   33.9280   50.5660 H   0  0  0  0  0  0  0  0  0  0  0  0
   63.0671   32.4398   48.3575 H   0  0  0  0  0  0  0  0  0  0  0  0
   63.1657   30.4002   46.9288 H   0  0  0  0  0  0  0  0  0  0  0  0
   61.0820   29.4643   45.9326 H   0  0  0  0  0  0  0  0  0  0  0  0
   58.8119   26.3738   44.6067 H   0  0  0  0  0  0  0  0  0  0  0  0
   59.5504   25.3378   45.8729 H   0  0  0  0  0  0  0  0  0  0  0  0
   56.6702   25.5643   43.4608 H   0  0  0  0  0  0  0  0  0  0  0  0
   55.6590   23.5505   42.3896 H   0  0  0  0  0  0  0  0  0  0  0  0
   58.1712   20.9921   44.8088 H   0  0  0  0  0  0  0  0  0  0  0  0
   59.1880   23.0017   45.8857 H   0  0  0  0  0  0  0  0  0  0  0  0
   58.7742   32.6205   47.7951 H   0  0  0  0  0  0  0  0  0  0  0  0
  1  2  1  0
  2  3  2  0
  2  4  1  0
  4  5  2  0
  5  6  1  0
  6  7  2  0
  7  8  1  0
  8  9  1  0
  9 10  1  0
 10 11  2  0
 10 12  1  0
 12 13  1  0
 13 14  1  0
 13 15  2  0
 15 16  1  0
 16 17  2  0
 16 18  1  0
 18 19  1  0
 19 20  1  0
 20 21  2  0
 21 22  1  0
 22 23  2  0
 23 24  1  0
 23 25  1  0
 25 26  2  0
 15 27  1  0
 27 28  2  0
  8 29  2  0
 29  4  1  0
 27  9  1  0
 26 20  1  0
  1 30  1  0
  5 31  1  0
  6 32  1  0
  7 33  1  0
 19 34  1  0
 19 35  1  0
 21 36  1  0
 22 37  1  0
 25 38  1  0
 26 39  1  0
 29 40  1  0
M  CHG  4   1  -1  12  -1  14  -1  18  -1
M  END
>  <UniqueID>  (52) 
47

>  <SMILES>  (52) 
[NH-]C(=O)c1cccc(-n2c(=O)[n-]c([O-])c(C(=O)[N-]Cc3ccc(F)cc3)c2=O)c1

>  <Energy>  (52) 
59.65845550784994

>  <Genealogy>  (52) 
[NH-]C(=O)c1cccc(-n2c(=O)[n-]c([O-])c(C(=O)[N-]Cc3ccc(F)cc3)c2=O)c1 (protonated)
[NH-]C(=O)c1cccc(-n2c(=O)[n-]c([O-])c(C(=O)[N-]Cc3ccc(F)cc3)c2=O)c1 (3D coordinates assigned)
[NH-]C(=O)c1cccc(-n2c(=O)[n-]c([O-])c(C(=O)[N-]Cc3ccc(F)cc3)c2=O)c1 (optimized conformer: 59.65845550784994 kcal/mol)

>  <smiles>  (52) 
NC(=O)c1cccc(-n2c(=O)[nH]c(O)c(C(=O)NCc3ccc(F)cc3)c2=O)c1

>  <score_type>  (52) 
oracle

>  <origin>  (52) 
adg

>  <m_score__min__energy>  (52) 
-14.15

>  <m_primary>  (52) 
energy

$$$$
52:0
     RDKit          3D

 44 46  0  0  0  0  0  0  0  0999 V2000
   53.0090   29.1580   53.7480 O   0  0  0  0  0  0  0  0  0  0  0  0
   53.4930   29.8450   52.8080 C   0  0  0  0  0  0  0  0  0  0  0  0
   52.6030   30.3460   51.7180 C   0  0  0  0  0  0  0  0  0  0  0  0
   51.7240   31.4270   52.2680 C   0  0  0  0  0  0  0  0  0  0  0  0
   51.3970   31.5440   53.5670 N   0  0  0  0  0  0  0  0  0  0  0  0
   50.4960   32.5520   53.5730 C   0  0  0  0  0  0  0  0  0  0  0  0
   49.9520   32.9680   54.6270 O   0  0  0  0  0  0  0  0  0  0  0  0
   50.2170   33.0700   52.3570 N   0  0  0  0  0  0  0  0  0  0  0  0
   50.9960   32.3400   51.5420 C   0  0  0  0  0  0  0  0  0  0  0  0
   51.0280   32.4930   50.1610 O   0  0  0  0  0  0  0  0  0  0  0  0
   54.9060   30.0460   52.7100 N   0  0  0  0  0  0  0  0  0  0  0  0
   55.5170   30.8210   51.6390 C   0  0  0  0  0  0  0  0  0  0  0  0
   56.8190   31.3960   52.1260 C   0  0  0  0  0  0  0  0  0  0  0  0
   57.2620   31.1340   53.4310 C   0  0  0  0  0  0  0  0  0  0  0  0
   58.4160   31.7510   53.9200 C   0  0  0  0  0  0  0  0  0  0  0  0
   59.1300   32.6420   53.1160 C   0  0  0  0  0  0  0  0  0  0  0  0
   58.7040   32.9130   51.8110 C   0  0  0  0  0  0  0  0  0  0  0  0
   59.4280   33.8730   51.0300 N   0  0  0  0  0  0  0  0  0  0  0  0
   59.9410   33.6450   49.7130 C   0  0  0  0  0  0  0  0  0  0  0  0
   60.7610   32.7090   49.5290 O   0  0  0  0  0  0  0  0  0  0  0  0
   59.5030   34.4180   48.5880 N   0  0  0  0  0  0  0  0  0  0  0  0
   59.3110   33.8970   47.2350 C   0  0  0  0  0  0  0  0  0  0  0  0
   57.8580   33.5160   47.0090 C   0  0  0  0  0  0  0  0  0  0  0  0
   57.6340   33.6530   45.5090 C   0  0  0  0  0  0  0  0  0  0  0  0
   58.7050   34.6150   44.9940 C   0  0  0  0  0  0  0  0  0  0  0  0
   59.6050   34.9530   46.1770 C   0  0  0  0  0  0  0  0  0  0  0  0
   57.5370   32.2970   51.3240 C   0  0  0  0  0  0  0  0  0  0  0  0
   53.2149   30.7492   50.8976 H   0  0  0  0  0  0  0  0  0  0  0  0
   51.9842   29.5218   51.3336 H   0  0  0  0  0  0  0  0  0  0  0  0
   55.7037   30.1688   50.7731 H   0  0  0  0  0  0  0  0  0  0  0  0
   54.8414   31.6361   51.3406 H   0  0  0  0  0  0  0  0  0  0  0  0
   56.6984   30.4399   54.0718 H   0  0  0  0  0  0  0  0  0  0  0  0
   58.7632   31.5344   54.9411 H   0  0  0  0  0  0  0  0  0  0  0  0
   60.0317   33.1332   53.5105 H   0  0  0  0  0  0  0  0  0  0  0  0
   59.9916   33.0374   47.1469 H   0  0  0  0  0  0  0  0  0  0  0  0
   57.6767   32.4804   47.3324 H   0  0  0  0  0  0  0  0  0  0  0  0
   57.1726   34.1547   47.5855 H   0  0  0  0  0  0  0  0  0  0  0  0
   57.7361   32.6735   45.0189 H   0  0  0  0  0  0  0  0  0  0  0  0
   56.6239   34.0302   45.2914 H   0  0  0  0  0  0  0  0  0  0  0  0
   59.2923   34.1353   44.1972 H   0  0  0  0  0  0  0  0  0  0  0  0
   58.2483   35.5239   44.5754 H   0  0  0  0  0  0  0  0  0  0  0  0
   60.6628   34.9119   45.8780 H   0  0  0  0  0  0  0  0  0  0  0  0
   59.4149   35.9687   46.5540 H   0  0  0  0  0  0  0  0  0  0  0  0
   57.1843   32.5230   50.3069 H   0  0  0  0  0  0  0  0  0  0  0  0
  1  2  2  0
  2  3  1  0
  3  4  1  0
  4  5  1  0
  5  6  1  0
  6  7  2  0
  6  8  1  0
  8  9  1  0
  9 10  1  0
  2 11  1  0
 11 12  1  0
 12 13  1  0
 13 14  2  0
 14 15  1  0
 15 16  2  0
 16 17  1  0
 17 18  1  0
 18 19  1  0
 19 20  2  0
 19 21  1  0
 21 22  1  0
 22 23  1  0
 23 24  1  0
 24 25  1  0
 25 26  1  0
 17 27  2  0
  9  4  2  0
 27 13  1  0
 26 22  1  0
  3 28  1  0
  3 29  1  0
 12 30  1  0
 12 31  1  0
 14 32  1  0
 15 33  1  0
 16 34  1  0
 22 35  1  0
 23 36  1  0
 23 37  1  0
 24 38  1  0
 24 39  1  0
 25 40  1  0
 25 41  1  0
 26 42  1  0
 26 43  1  0
 27 44  1  0
M  CHG  6   5  -1   8  -1  10  -1  11  -1  18  -1  21  -1
M  END
>  <UniqueID>  (53) 
48

>  <SMILES>  (53) 
O=C(Cc1[n-]c(=O)[n-]c1[O-])[N-]Cc1cccc([N-]C(=O)[N-]C2CCCC2)c1

>  <Energy>  (53) 
72.93699507278615

>  <Genealogy>  (53) 
O=C(Cc1[n-]c(=O)[n-]c1[O-])[N-]Cc1cccc([N-]C(=O)[N-]C2CCCC2)c1 (protonated)
O=C(Cc1[n-]c(=O)[n-]c1[O-])[N-]Cc1cccc([N-]C(=O)[N-]C2CCCC2)c1 (3D coordinates assigned)
O=C(Cc1[n-]c(=O)[n-]c1[O-])[N-]Cc1cccc([N-]C(=O)[N-]C2CCCC2)c1 (nonaromatic ring conformer: 72.93699507278615 kcal/mol)

>  <smiles>  (53) 
O=C(Cc1[nH]c(=O)[nH]c1O)NCc1cccc(NC(=O)NC2CCCC2)c1

>  <score_type>  (53) 
oracle

>  <origin>  (53) 
adg

>  <m_score__min__energy>  (53) 
-19.609999999999999

>  <m_primary>  (53) 
energy

$$$$
53:0
     RDKit          3D

 38 40  0  0  0  0  0  0  0  0999 V2000
   54.7460   27.0890   46.6180 H   0  0  0  0  0  0  0  0  0  0  0  0
   54.8090   26.2510   45.9980 N   0  0  0  0  0  0  0  0  0  0  0  0
   56.4320   25.6680   46.1000 S   0  0  0  0  0  0  0  0  0  0  0  0
   56.5320   24.6630   47.2120 O   0  0  0  0  0  0  0  0  0  0  0  0
   56.8070   24.9970   44.8080 O   0  0  0  0  0  0  0  0  0  0  0  0
   57.5220   27.0150   46.4100 C   0  0  0  0  0  0  0  0  0  0  0  0
   58.1970   27.1120   47.6320 C   0  0  0  0  0  0  0  0  0  0  0  0
   58.0526   26.3373   48.3995 H   0  0  0  0  0  0  0  0  0  0  0  0
   59.0540   28.1880   47.8830 C   0  0  0  0  0  0  0  0  0  0  0  0
   59.5860   28.2497   48.8438 H   0  0  0  0  0  0  0  0  0  0  0  0
   59.2410   29.1930   46.9150 C   0  0  0  0  0  0  0  0  0  0  0  0
   60.1530   30.3410   47.1550 C   0  0  0  0  0  0  0  0  0  0  0  0
   59.7630   31.5920   46.7810 N   0  0  0  0  0  0  0  0  0  0  0  0
   60.5350   32.6980   46.9630 C   0  0  0  0  0  0  0  0  0  0  0  0
   60.0590   33.8490   46.5730 N   0  0  0  0  0  0  0  0  0  0  0  0
   58.7810   34.1450   45.9860 C   0  0  0  0  0  0  0  0  0  0  0  0
   57.7850   34.4350   46.7010 O   0  0  0  0  0  0  0  0  0  0  0  0
   58.6490   34.1580   44.4990 C   0  0  0  0  0  0  0  0  0  0  0  0
   58.1064   35.0630   44.1882 H   0  0  0  0  0  0  0  0  0  0  0  0
   59.6509   34.1530   44.0449 H   0  0  0  0  0  0  0  0  0  0  0  0
   57.8940   32.9450   44.0470 C   0  0  0  0  0  0  0  0  0  0  0  0
   58.0020   32.4190   42.7600 C   0  0  0  0  0  0  0  0  0  0  0  0
   58.5984   32.8415   41.9379 H   0  0  0  0  0  0  0  0  0  0  0  0
   57.0590   31.0220   42.6830 S   0  0  0  0  0  0  0  0  0  0  0  0
   56.5720   31.1470   44.2840 C   0  0  0  0  0  0  0  0  0  0  0  0
   55.8050   30.3340   44.8630 O   0  0  0  0  0  0  0  0  0  0  0  0
   57.1040   32.2260   44.8920 N   0  0  0  0  0  0  0  0  0  0  0  0
   56.9360   32.4740   45.8920 H   0  0  0  0  0  0  0  0  0  0  0  0
   61.7870   32.5560   47.5960 C   0  0  0  0  0  0  0  0  0  0  0  0
   62.4234   33.4360   47.7711 H   0  0  0  0  0  0  0  0  0  0  0  0
   62.2110   31.2900   47.9980 C   0  0  0  0  0  0  0  0  0  0  0  0
   63.1877   31.1695   48.4895 H   0  0  0  0  0  0  0  0  0  0  0  0
   61.4010   30.1760   47.7790 C   0  0  0  0  0  0  0  0  0  0  0  0
   61.7365   29.1763   48.0922 H   0  0  0  0  0  0  0  0  0  0  0  0
   58.5620   29.0850   45.6870 C   0  0  0  0  0  0  0  0  0  0  0  0
   58.7071   29.8545   44.9145 H   0  0  0  0  0  0  0  0  0  0  0  0
   57.7050   28.0090   45.4400 C   0  0  0  0  0  0  0  0  0  0  0  0
   57.1720   27.9424   44.4801 H   0  0  0  0  0  0  0  0  0  0  0  0
  1  2  1  0
  2  3  1  0
  3  4  2  0
  3  5  2  0
  3  6  1  0
  6  7  2  0
  7  8  1  0
  7  9  1  0
  9 10  1  0
  9 11  2  0
 11 12  1  0
 12 13  1  0
 13 14  1  0
 14 15  2  0
 15 16  1  0
 16 17  2  0
 16 18  1  0
 18 19  1  0
 18 20  1  0
 18 21  1  0
 21 22  2  0
 22 23  1  0
 22 24  1  0
 24 25  1  0
 25 26  2  0
 25 27  1  0
 27 28  1  0
 14 29  1  0
 29 30  1  0
 29 31  2  0
 31 32  1  0
 31 33  1  0
 33 34  1  0
 11 35  1  0
 35 36  1  0
 35 37  2  0
 37 38  1  0
 37  6  1  0
 33 12  2  0
 27 21  1  0
M  CHG  2   2  -1  13  -1
M  END
>  <UniqueID>  (54) 
49

>  <SMILES>  (54) 
[NH-]S(=O)(=O)c1ccc(-c2ccc/c(=N\C(=O)Cc3csc(=O)[nH]3)[n-]2)cc1

>  <Energy>  (54) 
79.79474290812317

>  <Genealogy>  (54) 
[NH-]S(=O)(=O)c1ccc(-c2cccc(=NC(=O)Cc3csc(=O)[nH]3)[n-]2)cc1 (protonated)
[NH-]S(=O)(=O)c1ccc(-c2ccc/c(=N\C(=O)Cc3csc(=O)[nH]3)[n-]2)cc1 (cis-trans isomerization)
[NH-]S(=O)(=O)c1ccc(-c2ccc/c(=N\C(=O)Cc3csc(=O)[nH]3)[n-]2)cc1 (3D coordinates assigned)
[NH-]S(=O)(=O)c1ccc(-c2ccc/c(=N\C(=O)Cc3csc(=O)[nH]3)[n-]2)cc1 (optimized conformer: 79.79474290812317 kcal/mol)

>  <smiles>  (54) 
NS(=O)(=O)c1ccc(-c2cccc(=NC(=O)Cc3csc(=O)[nH]3)[nH]2)cc1

>  <score_type>  (54) 
oracle

>  <origin>  (54) 
adg

>  <m_score__min__energy>  (54) 
-12.31

>  <m_primary>  (54) 
energy

$$$$
54:0
     RDKit          3D

 50 53  0  0  0  0  0  0  0  0999 V2000
   51.9610   19.9740   46.7490 C   0  0  0  0  0  0  0  0  0  0  0  0
   52.6300   21.2560   46.3730 C   0  0  0  0  0  0  0  0  0  0  0  0
   52.0420   22.0500   45.5860 O   0  0  0  0  0  0  0  0  0  0  0  0
   53.9600   21.5330   46.8430 N   0  0  0  0  0  0  0  0  0  0  0  0
   54.6200   22.8050   46.7060 C   0  0  0  0  0  0  0  0  0  0  0  0
   55.6490   23.2020   47.5810 C   0  0  0  0  0  0  0  0  0  0  0  0
   56.2810   24.4370   47.4150 C   0  0  0  0  0  0  0  0  0  0  0  0
   55.9020   25.2910   46.3660 C   0  0  0  0  0  0  0  0  0  0  0  0
   56.5490   26.5530   46.1460 N   0  0  0  0  0  0  0  0  0  0  0  0
   57.9460   26.8250   46.2940 C   0  0  0  0  0  0  0  0  0  0  0  0
   58.7940   25.8930   46.2390 O   0  0  0  0  0  0  0  0  0  0  0  0
   58.4000   28.2250   46.5600 C   0  0  0  0  0  0  0  0  0  0  0  0
   57.7950   29.1650   45.5620 C   0  0  0  0  0  0  0  0  0  0  0  0
   57.5100   28.7980   44.2470 C   0  0  0  0  0  0  0  0  0  0  0  0
   56.8940   30.1510   43.4560 S   0  0  0  0  0  0  0  0  0  0  0  0
   57.0180   31.1300   44.8150 C   0  0  0  0  0  0  0  0  0  0  0  0
   56.6850   32.3880   44.8250 N   0  0  0  0  0  0  0  0  0  0  0  0
   57.3370   33.4710   45.5130 C   0  0  0  0  0  0  0  0  0  0  0  0
   57.6040   34.5160   44.8570 O   0  0  0  0  0  0  0  0  0  0  0  0
   57.7030   33.3960   46.9800 C   0  0  0  0  0  0  0  0  0  0  0  0
   59.1440   33.0010   47.1890 C   0  0  0  0  0  0  0  0  0  0  0  0
   59.4640   31.7780   47.8330 C   0  0  0  0  0  0  0  0  0  0  0  0
   60.8020   31.3930   48.0010 C   0  0  0  0  0  0  0  0  0  0  0  0
   61.7900   32.2390   47.5040 C   0  0  0  0  0  0  0  0  0  0  0  0
   61.4910   33.4040   46.8800 C   0  0  0  0  0  0  0  0  0  0  0  0
   60.1800   33.8270   46.6990 C   0  0  0  0  0  0  0  0  0  0  0  0
   62.6590   34.0300   46.4870 O   0  0  0  0  0  0  0  0  0  0  0  0
   63.7620   33.2030   46.8890 C   0  0  0  0  0  0  0  0  0  0  0  0
   63.1610   32.0720   47.5360 O   0  0  0  0  0  0  0  0  0  0  0  0
   57.5320   30.4630   45.8710 N   0  0  0  0  0  0  0  0  0  0  0  0
   54.9170   24.8720   45.4650 C   0  0  0  0  0  0  0  0  0  0  0  0
   54.2790   23.6420   45.6350 C   0  0  0  0  0  0  0  0  0  0  0  0
   51.9176   19.8908   47.8450 H   0  0  0  0  0  0  0  0  0  0  0  0
   50.9402   19.9592   46.3394 H   0  0  0  0  0  0  0  0  0  0  0  0
   52.5327   19.1282   46.3394 H   0  0  0  0  0  0  0  0  0  0  0  0
   54.5070   20.7370   47.2440 H   0  0  0  0  0  0  0  0  0  0  0  0
   55.9573   22.5359   48.4003 H   0  0  0  0  0  0  0  0  0  0  0  0
   57.0786   24.7418   48.1085 H   0  0  0  0  0  0  0  0  0  0  0  0
   58.0892   28.5213   47.5727 H   0  0  0  0  0  0  0  0  0  0  0  0
   59.4958   28.2687   46.4749 H   0  0  0  0  0  0  0  0  0  0  0  0
   57.6608   27.8020   43.8052 H   0  0  0  0  0  0  0  0  0  0  0  0
   57.5363   34.3824   47.4375 H   0  0  0  0  0  0  0  0  0  0  0  0
   57.0710   32.6260   47.4465 H   0  0  0  0  0  0  0  0  0  0  0  0
   58.6576   31.1277   48.2028 H   0  0  0  0  0  0  0  0  0  0  0  0
   61.0626   30.4528   48.5091 H   0  0  0  0  0  0  0  0  0  0  0  0
   59.9557   34.7759   46.1898 H   0  0  0  0  0  0  0  0  0  0  0  0
   64.3447   32.8827   46.0127 H   0  0  0  0  0  0  0  0  0  0  0  0
   64.4587   33.7367   47.5522 H   0  0  0  0  0  0  0  0  0  0  0  0
   54.6433   25.5164   44.6166 H   0  0  0  0  0  0  0  0  0  0  0  0
   53.5023   23.3272   44.9225 H   0  0  0  0  0  0  0  0  0  0  0  0
  1  2  1  0
  2  3  2  0
  2  4  1  0
  4  5  1  0
  5  6  2  0
  6  7  1  0
  7  8  2  0
  8  9  1  0
  9 10  1  0
 10 11  2  0
 10 12  1  0
 12 13  1  0
 13 14  2  0
 14 15  1  0
 15 16  1  0
 16 17  2  3
 17 18  1  0
 18 19  2  0
 18 20  1  0
 20 21  1  0
 21 22  2  0
 22 23  1  0
 23 24  2  0
 24 25  1  0
 25 26  2  0
 25 27  1  0
 27 28  1  0
 28 29  1  0
 16 30  1  0
  8 31  1  0
 31 32  2  0
 32  5  1  0
 30 13  1  0
 26 21  1  0
 29 24  1  0
  1 33  1  0
  1 34  1  0
  1 35  1  0
  4 36  1  0
  6 37  1  0
  7 38  1  0
 12 39  1  0
 12 40  1  0
 14 41  1  0
 20 42  1  0
 20 43  1  0
 22 44  1  0
 23 45  1  0
 26 46  1  0
 28 47  1  0
 28 48  1  0
 31 49  1  0
 32 50  1  0
M  CHG  2   9  -1  30  -1
M  END
>  <UniqueID>  (55) 
50

>  <SMILES>  (55) 
CC(=O)Nc1ccc([N-]C(=O)Cc2csc(=NC(=O)Cc3ccc4c(c3)OCO4)[n-]2)cc1

>  <Energy>  (55) 
117.58720540234357

>  <Genealogy>  (55) 
CC(=O)Nc1ccc([N-]C(=O)Cc2csc(=NC(=O)Cc3ccc4c(c3)OCO4)[n-]2)cc1 (protonated)
CC(=O)Nc1ccc([N-]C(=O)Cc2csc(=NC(=O)Cc3ccc4c(c3)OCO4)[n-]2)cc1 (3D coordinates assigned)
CC(=O)Nc1ccc([N-]C(=O)Cc2csc(=NC(=O)Cc3ccc4c(c3)OCO4)[n-]2)cc1 (nonaromatic ring conformer: 117.58720540234357 kcal/mol)

>  <smiles>  (55) 
CC(=O)Nc1ccc(NC(=O)Cc2csc(=NC(=O)Cc3ccc4c(c3)OCO4)[nH]2)cc1

>  <score_type>  (55) 
oracle

>  <origin>  (55) 
adg

>  <m_score__min__energy>  (55) 
-11.98

>  <m_primary>  (55) 
energy

$$$$
55:0
     RDKit          3D

 48 51  0  0  0  0  0  0  0  0999 V2000
   65.0070   33.1030   49.1090 N   0  0  0  0  0  0  0  0  0  0  0  0
   63.7320   33.4550   48.5670 C   0  0  0  0  0  0  0  0  0  0  0  0
   62.6780   33.8150   49.4190 C   0  0  0  0  0  0  0  0  0  0  0  0
   61.4410   34.1950   48.8880 C   0  0  0  0  0  0  0  0  0  0  0  0
   61.2420   34.1920   47.5040 C   0  0  0  0  0  0  0  0  0  0  0  0
   59.6540   34.6750   46.8220 S   0  0  0  0  0  0  0  0  0  0  0  0
   59.1460   32.9760   46.5570 C   0  0  0  0  0  0  0  0  0  0  0  0
   59.8250   31.9260   47.1850 C   0  0  0  0  0  0  0  0  0  0  0  0
   59.4090   30.6060   46.9830 C   0  0  0  0  0  0  0  0  0  0  0  0
   58.3020   30.3340   46.1720 C   0  0  0  0  0  0  0  0  0  0  0  0
   57.6030   31.3880   45.5600 C   0  0  0  0  0  0  0  0  0  0  0  0
   56.4390   31.1680   44.7540 N   0  0  0  0  0  0  0  0  0  0  0  0
   55.8840   29.9130   44.3400 C   0  0  0  0  0  0  0  0  0  0  0  0
   55.5360   29.7770   43.1390 O   0  0  0  0  0  0  0  0  0  0  0  0
   55.7070   28.8050   45.2340 N   0  0  0  0  0  0  0  0  0  0  0  0
   56.5450   27.6560   45.4300 C   0  0  0  0  0  0  0  0  0  0  0  0
   57.6740   27.5170   44.6140 C   0  0  0  0  0  0  0  0  0  0  0  0
   58.5100   26.4070   44.7390 C   0  0  0  0  0  0  0  0  0  0  0  0
   58.2450   25.4310   45.7080 C   0  0  0  0  0  0  0  0  0  0  0  0
   59.1450   24.2710   45.8440 C   0  0  0  0  0  0  0  0  0  0  0  0
   60.3890   24.4650   45.8220 O   0  0  0  0  0  0  0  0  0  0  0  0
   58.6600   22.9260   45.9670 N   0  0  0  0  0  0  0  0  0  0  0  0
   57.4480   22.5520   46.2570 C   0  0  0  0  0  0  0  0  0  0  0  0
   57.0860   22.2170   47.5120 N   0  0  0  0  0  0  0  0  0  0  0  0
   55.7620   21.9160   47.5940 C   0  0  0  0  0  0  0  0  0  0  0  0
   55.0550   22.0250   46.4030 C   0  0  0  0  0  0  0  0  0  0  0  0
   56.1280   22.5160   45.2060 S   0  0  0  0  0  0  0  0  0  0  0  0
   57.1060   25.5520   46.5190 C   0  0  0  0  0  0  0  0  0  0  0  0
   56.2420   26.6430   46.3590 C   0  0  0  0  0  0  0  0  0  0  0  0
   58.0550   32.7010   45.7270 C   0  0  0  0  0  0  0  0  0  0  0  0
   62.2830   33.8010   46.6520 C   0  0  0  0  0  0  0  0  0  0  0  0
   63.5270   33.4460   47.1800 C   0  0  0  0  0  0  0  0  0  0  0  0
   65.8520   33.0510   48.4980 H   0  0  0  0  0  0  0  0  0  0  0  0
   65.1130   32.8780   50.1240 H   0  0  0  0  0  0  0  0  0  0  0  0
   62.8246   33.7985   50.5091 H   0  0  0  0  0  0  0  0  0  0  0  0
   60.6239   34.4965   49.5599 H   0  0  0  0  0  0  0  0  0  0  0  0
   60.6851   32.1385   47.8369 H   0  0  0  0  0  0  0  0  0  0  0  0
   59.9536   29.7796   47.4630 H   0  0  0  0  0  0  0  0  0  0  0  0
   57.9787   29.2946   46.0134 H   0  0  0  0  0  0  0  0  0  0  0  0
   57.9043   28.2907   43.8668 H   0  0  0  0  0  0  0  0  0  0  0  0
   59.3798   26.2980   44.0745 H   0  0  0  0  0  0  0  0  0  0  0  0
   55.2850   21.6082   48.5362 H   0  0  0  0  0  0  0  0  0  0  0  0
   53.9819   21.8251   46.2673 H   0  0  0  0  0  0  0  0  0  0  0  0
   56.8914   24.7888   47.2816 H   0  0  0  0  0  0  0  0  0  0  0  0
   55.3239   26.7082   46.9613 H   0  0  0  0  0  0  0  0  0  0  0  0
   57.5482   33.5237   45.2013 H   0  0  0  0  0  0  0  0  0  0  0  0
   62.1206   33.7734   45.5644 H   0  0  0  0  0  0  0  0  0  0  0  0
   64.3474   33.1588   46.5059 H   0  0  0  0  0  0  0  0  0  0  0  0
  1  2  1  0
  2  3  2  0
  3  4  1  0
  4  5  2  0
  5  6  1  0
  6  7  1  0
  7  8  2  0
  8  9  1  0
  9 10  2  0
 10 11  1  0
 11 12  1  0
 12 13  1  0
 13 14  2  0
 13 15  1  0
 15 16  1  0
 16 17  2  0
 17 18  1  0
 18 19  2  0
 19 20  1  0
 20 21  2  0
 20 22  1  0
 22 23  2  3
 23 24  1  0
 24 25  1  0
 25 26  2  0
 26 27  1  0
 19 28  1  0
 28 29  2  0
 11 30  2  0
  5 31  1  0
 31 32  2  0
 32  2  1  0
 30  7  1  0
 29 16  1  0
 27 23  1  0
  1 33  1  0
  1 34  1  0
  3 35  1  0
  4 36  1  0
  8 37  1  0
  9 38  1  0
 10 39  1  0
 17 40  1  0
 18 41  1  0
 25 42  1  0
 26 43  1  0
 28 44  1  0
 29 45  1  0
 30 46  1  0
 31 47  1  0
 32 48  1  0
M  CHG  3  12  -1  15  -1  24  -1
M  END
>  <UniqueID>  (56) 
51

>  <SMILES>  (56) 
Nc1ccc(Sc2cccc([N-]C(=O)[N-]c3ccc(C(=O)N=c4[n-]ccs4)cc3)c2)cc1

>  <Energy>  (56) 
89.24738397961131

>  <Genealogy>  (56) 
Nc1ccc(Sc2cccc([N-]C(=O)[N-]c3ccc(C(=O)N=c4[n-]ccs4)cc3)c2)cc1 (protonated)
Nc1ccc(Sc2cccc([N-]C(=O)[N-]c3ccc(C(=O)N=c4[n-]ccs4)cc3)c2)cc1 (3D coordinates assigned)
Nc1ccc(Sc2cccc([N-]C(=O)[N-]c3ccc(C(=O)N=c4[n-]ccs4)cc3)c2)cc1 (optimized conformer: 89.24738397961131 kcal/mol)

>  <smiles>  (56) 
Nc1ccc(Sc2cccc(NC(=O)Nc3ccc(C(=O)N=c4[nH]ccs4)cc3)c2)cc1

>  <score_type>  (56) 
oracle

>  <origin>  (56) 
adg

>  <m_score__min__energy>  (56) 
-13.34

>  <m_primary>  (56) 
energy

$$$$
56:0
     RDKit          3D

 32 34  0  0  1  0  0  0  0  0999 V2000
   55.7770   30.2830   44.2430 N   0  0  0  0  0  0  0  0  0  0  0  0
   56.4980   29.4760   44.9510 C   0  0  0  0  0  0  0  0  0  0  0  0
   56.0600   28.2410   45.2490 N   0  0  0  0  0  0  0  0  0  0  0  0
   56.8630   27.4640   45.9860 C   0  0  0  0  0  0  0  0  0  0  0  0
   56.4670   26.2910   46.2790 N   0  0  0  0  0  0  0  0  0  0  0  0
   56.2290   25.2340   45.3550 C   0  0  0  0  0  0  0  0  0  0  0  0
   57.2140   25.0530   44.3810 C   0  0  0  0  0  0  0  0  0  0  0  0
   57.0840   24.0470   43.4240 C   0  0  0  0  0  0  0  0  0  0  0  0
   55.9550   23.2320   43.4630 C   0  0  0  0  0  0  0  0  0  0  0  0
   55.8320   22.2250   42.5000 O   0  0  0  0  0  0  0  0  0  0  0  0
   54.9760   23.4220   44.4420 C   0  0  0  0  0  0  0  0  0  0  0  0
   55.1090   24.4300   45.3990 C   0  0  0  0  0  0  0  0  0  0  0  0
   58.1030   27.9020   46.4320 C   0  0  0  0  0  0  0  0  0  0  0  0
   58.9300   27.0790   47.2010 C   0  0  0  0  0  0  0  0  0  0  0  0
   60.1580   27.5120   47.6430 C   0  0  0  0  0  0  0  0  0  0  0  0
   60.9170   26.6490   48.3940 O   0  0  0  0  0  0  0  0  0  0  0  0
   60.5600   28.7940   47.3060 C   0  0  0  0  0  0  0  0  0  0  0  0
   59.7550   29.6390   46.5400 C   0  0  0  0  0  0  0  0  0  0  0  0
   58.5270   29.1860   46.1060 C   0  0  0  0  0  0  0  0  0  0  0  0
   57.6950   29.9530   45.3590 N   0  0  0  0  0  0  0  0  0  0  0  0
   54.7620   30.4750   44.4210 H   0  0  0  0  0  0  0  0  0  0  0  0
   55.1410   27.8910   44.9290 H   0  0  0  0  0  0  0  0  0  0  0  0
   58.0976   25.7081   44.3689 H   0  0  0  0  0  0  0  0  0  0  0  0
   57.8565   23.9002   42.6548 H   0  0  0  0  0  0  0  0  0  0  0  0
   56.2300   22.3580   41.5600 H   0  0  0  0  0  0  0  0  0  0  0  0
   54.0903   22.7699   44.4589 H   0  0  0  0  0  0  0  0  0  0  0  0
   54.3387   24.5795   46.1699 H   0  0  0  0  0  0  0  0  0  0  0  0
   58.5918   26.0643   47.4580 H   0  0  0  0  0  0  0  0  0  0  0  0
   61.1900   26.9610   49.3190 H   0  0  0  0  0  0  0  0  0  0  0  0
   61.5397   29.1559   47.6512 H   0  0  0  0  0  0  0  0  0  0  0  0
   60.0960   30.6535   46.2858 H   0  0  0  0  0  0  0  0  0  0  0  0
   57.9940   30.9300   45.0990 H   0  0  0  0  0  0  0  0  0  0  0  0
  1  2  2  3
  2  3  1  0
  3  4  1  0
  4  5  2  0
  5  6  1  0
  6  7  2  0
  7  8  1  0
  8  9  2  0
  9 10  1  0
  9 11  1  0
 11 12  2  0
  4 13  1  0
 13 14  2  0
 14 15  1  0
 15 16  1  0
 15 17  2  0
 17 18  1  0
 18 19  2  0
 19 20  1  0
 20  2  1  0
 12  6  1  0
 19 13  1  0
  1 21  1  0
  3 22  1  0
  7 23  1  0
  8 24  1  0
 10 25  1  0
 11 26  1  0
 12 27  1  0
 14 28  1  0
 16 29  1  0
 17 30  1  0
 18 31  1  0
 20 32  1  0
M  END
>  <smiles>  (57) 
N=c1[nH]c(=Nc2ccc(O)cc2)c2cc(O)ccc2[nH]1

>  <score_type>  (57) 
oracle

>  <origin>  (57) 
adg

>  <m_score__min__energy>  (57) 
-7.0999999999999996

>  <m_primary>  (57) 
energy

$$$$
57:0
     RDKit          3D

 58 61  0  0  0  0  0  0  0  0999 V2000
   60.1028   35.0666   48.4145 H   0  0  0  0  0  0  0  0  0  0  0  0
   59.5830   34.5470   47.5960 C   0  0  0  0  0  0  0  0  0  0  0  0
   58.8010   33.4210   47.8690 C   0  0  0  0  0  0  0  0  0  0  0  0
   58.7026   33.0579   48.9027 H   0  0  0  0  0  0  0  0  0  0  0  0
   58.1440   32.7560   46.8300 C   0  0  0  0  0  0  0  0  0  0  0  0
   57.5213   31.8763   47.0497 H   0  0  0  0  0  0  0  0  0  0  0  0
   58.2760   33.2070   45.5060 C   0  0  0  0  0  0  0  0  0  0  0  0
   57.5700   32.4900   44.3840 C   0  0  0  0  0  0  0  0  0  0  0  0
   58.2672   31.7733   43.9254 H   0  0  0  0  0  0  0  0  0  0  0  0
   57.2381   33.2425   43.6535 H   0  0  0  0  0  0  0  0  0  0  0  0
   56.3890   31.7650   44.8580 N   0  0  0  0  0  0  0  0  0  0  0  0
   56.4730   30.0660   44.4760 S   0  0  0  0  0  0  0  0  0  0  0  0
   55.3140   29.3640   45.1250 O   0  0  0  0  0  0  0  0  0  0  0  0
   56.3610   29.8840   42.9880 O   0  0  0  0  0  0  0  0  0  0  0  0
   57.9700   29.3420   45.0620 C   0  0  0  0  0  0  0  0  0  0  0  0
   58.9090   28.8500   44.1490 C   0  0  0  0  0  0  0  0  0  0  0  0
   58.7176   28.9307   43.0688 H   0  0  0  0  0  0  0  0  0  0  0  0
   60.0880   28.2570   44.6040 C   0  0  0  0  0  0  0  0  0  0  0  0
   60.8258   27.8778   43.8816 H   0  0  0  0  0  0  0  0  0  0  0  0
   60.3330   28.1440   45.9750 C   0  0  0  0  0  0  0  0  0  0  0  0
   61.2646   27.6767   46.3267 H   0  0  0  0  0  0  0  0  0  0  0  0
   59.3960   28.6240   46.9090 C   0  0  0  0  0  0  0  0  0  0  0  0
   59.6390   28.4860   48.3650 C   0  0  0  0  0  0  0  0  0  0  0  0
   59.8010   27.3390   48.8670 O   0  0  0  0  0  0  0  0  0  0  0  0
   59.6880   29.6580   49.1970 N   0  0  0  0  0  0  0  0  0  0  0  0
   60.5600   30.6200   49.1160 C   0  0  0  0  0  0  0  0  0  0  0  0
   61.4710   30.7440   48.1250 N   0  0  0  0  0  0  0  0  0  0  0  0
   62.2480   31.8490   48.2900 C   0  0  0  0  0  0  0  0  0  0  0  0
   63.3240   32.1890   47.3060 C   0  0  0  0  0  0  0  0  0  0  0  0
   64.2374   32.4776   47.8467 H   0  0  0  0  0  0  0  0  0  0  0  0
   63.5332   31.3132   46.6742 H   0  0  0  0  0  0  0  0  0  0  0  0
   62.9919   33.0260   46.6742 H   0  0  0  0  0  0  0  0  0  0  0  0
   61.9510   32.6120   49.4300 C   0  0  0  0  0  0  0  0  0  0  0  0
   62.6400   33.8370   49.8900 C   0  0  0  0  0  0  0  0  0  0  0  0
   62.3640   34.9450   49.3600 O   0  0  0  0  0  0  0  0  0  0  0  0
   63.6690   33.7920   50.8870 N   0  0  0  0  0  0  0  0  0  0  0  0
   64.8150   32.9270   50.8880 C   0  0  0  0  0  0  0  0  0  0  0  0
   66.0540   33.4680   50.5200 C   0  0  0  0  0  0  0  0  0  0  0  0
   66.1260   34.5299   50.2420 H   0  0  0  0  0  0  0  0  0  0  0  0
   67.1970   32.6680   50.5040 C   0  0  0  0  0  0  0  0  0  0  0  0
   68.1634   33.0970   50.2007 H   0  0  0  0  0  0  0  0  0  0  0  0
   67.1160   31.3250   50.8720 C   0  0  0  0  0  0  0  0  0  0  0  0
   68.0168   30.6942   50.8472 H   0  0  0  0  0  0  0  0  0  0  0  0
   65.8940   30.7790   51.2720 C   0  0  0  0  0  0  0  0  0  0  0  0
   65.8377   29.7209   51.5673 H   0  0  0  0  0  0  0  0  0  0  0  0
   64.7320   31.5780   51.2990 C   0  0  0  0  0  0  0  0  0  0  0  0
   63.5020   31.0690   51.7460 O   0  0  0  0  0  0  0  0  0  0  0  0
   63.0240   29.7550   51.4870 C   0  0  0  0  0  0  0  0  0  0  0  0
   62.8362   29.2387   52.4400 H   0  0  0  0  0  0  0  0  0  0  0  0
   62.0890   29.8120   50.9103 H   0  0  0  0  0  0  0  0  0  0  0  0
   63.7771   29.1979   50.9103 H   0  0  0  0  0  0  0  0  0  0  0  0
   60.6740   31.8580   50.2380 S   0  0  0  0  0  0  0  0  0  0  0  0
   58.2160   29.2310   46.4390 C   0  0  0  0  0  0  0  0  0  0  0  0
   57.4804   29.6217   47.1575 H   0  0  0  0  0  0  0  0  0  0  0  0
   59.0490   34.3490   45.2410 C   0  0  0  0  0  0  0  0  0  0  0  0
   59.1395   34.7230   44.2105 H   0  0  0  0  0  0  0  0  0  0  0  0
   59.7050   35.0130   46.2850 C   0  0  0  0  0  0  0  0  0  0  0  0
   60.3168   35.9021   46.0724 H   0  0  0  0  0  0  0  0  0  0  0  0
  1  2  1  0
  2  3  2  0
  3  4  1  0
  3  5  1  0
  5  6  1  0
  5  7  2  0
  7  8  1  0
  8  9  1  0
  8 10  1  0
  8 11  1  0
 11 12  1  0
 12 13  2  0
 12 14  2  0
 12 15  1  0
 15 16  2  0
 16 17  1  0
 16 18  1  0
 18 19  1  0
 18 20  2  0
 20 21  1  0
 20 22  1  0
 22 23  1  0
 23 24  2  0
 23 25  1  0
 25 26  2  0
 26 27  1  0
 27 28  1  0
 28 29  1  0
 29 30  1  0
 29 31  1  0
 29 32  1  0
 28 33  2  0
 33 34  1  0
 34 35  2  0
 34 36  1  0
 36 37  1  0
 37 38  2  0
 38 39  1  0
 38 40  1  0
 40 41  1  0
 40 42  2  0
 42 43  1  0
 42 44  1  0
 44 45  1  0
 44 46  2  0
 46 47  1  0
 47 48  1  0
 48 49  1  0
 48 50  1  0
 48 51  1  0
 33 52  1  0
 22 53  2  0
 53 54  1  0
  7 55  1  0
 55 56  1  0
 55 57  2  0
 57 58  1  0
 57  2  1  0
 53 15  1  0
 52 26  1  0
 46 37  1  0
M  CHG  3  11  -1  27  -1  36  -1
M  END
>  <UniqueID>  (58) 
52

>  <SMILES>  (58) 
COc1ccccc1[N-]C(=O)c1s/c(=N/C(=O)c2cccc(S(=O)(=O)[N-]Cc3ccccc3)c2)[n-]c1C

>  <Energy>  (58) 
98.89668966079574

>  <Genealogy>  (58) 
COc1ccccc1[N-]C(=O)c1sc(=NC(=O)c2cccc(S(=O)(=O)[N-]Cc3ccccc3)c2)[n-]c1C (protonated)
COc1ccccc1[N-]C(=O)c1s/c(=N/C(=O)c2cccc(S(=O)(=O)[N-]Cc3ccccc3)c2)[n-]c1C (cis-trans isomerization)
COc1ccccc1[N-]C(=O)c1s/c(=N/C(=O)c2cccc(S(=O)(=O)[N-]Cc3ccccc3)c2)[n-]c1C (3D coordinates assigned)
COc1ccccc1[N-]C(=O)c1s/c(=N/C(=O)c2cccc(S(=O)(=O)[N-]Cc3ccccc3)c2)[n-]c1C (optimized conformer: 98.89668966079574 kcal/mol)

>  <smiles>  (58) 
COc1ccccc1NC(=O)c1sc(=NC(=O)c2cccc(S(=O)(=O)NCc3ccccc3)c2)[nH]c1C

>  <score_type>  (58) 
oracle

>  <origin>  (58) 
adg

>  <m_score__min__energy>  (58) 
-14.789999999999999

>  <m_primary>  (58) 
energy

$$$$
58:0
     RDKit          3D

 47 49  0  0  0  0  0  0  0  0999 V2000
   61.1550   32.0750   49.3920 O   0  0  0  0  0  0  0  0  0  0  0  0
   60.5370   31.6650   48.3740 C   0  0  0  0  0  0  0  0  0  0  0  0
   59.7180   30.4130   48.4720 C   0  0  0  0  0  0  0  0  0  0  0  0
   59.7270   29.7460   47.2120 O   0  0  0  0  0  0  0  0  0  0  0  0
   59.1020   28.5150   46.9490 C   0  0  0  0  0  0  0  0  0  0  0  0
   59.3730   27.3770   47.7360 C   0  0  0  0  0  0  0  0  0  0  0  0
   58.7560   26.1580   47.4600 C   0  0  0  0  0  0  0  0  0  0  0  0
   57.8550   26.0500   46.3990 C   0  0  0  0  0  0  0  0  0  0  0  0
   57.0620   24.5170   46.0460 S   0  0  0  0  0  0  0  0  0  0  0  0
   55.5740   24.7170   45.9720 O   0  0  0  0  0  0  0  0  0  0  0  0
   57.3740   23.5530   47.1580 O   0  0  0  0  0  0  0  0  0  0  0  0
   57.6650   23.8970   44.5220 N   0  0  0  0  0  0  0  0  0  0  0  0
   56.7580   24.2210   43.3980 C   0  0  0  0  0  0  0  0  0  0  0  0
   55.8570   23.0390   43.0000 C   0  0  0  0  0  0  0  0  0  0  0  0
   55.5380   22.2650   44.1340 O   0  0  0  0  0  0  0  0  0  0  0  0
   56.6890   21.5850   44.6040 C   0  0  0  0  0  0  0  0  0  0  0  0
   57.9690   22.4570   44.6020 C   0  0  0  0  0  0  0  0  0  0  0  0
   57.5780   27.1710   45.6090 C   0  0  0  0  0  0  0  0  0  0  0  0
   58.1890   28.4120   45.8710 C   0  0  0  0  0  0  0  0  0  0  0  0
   57.8710   29.5450   45.0340 N   0  0  0  0  0  0  0  0  0  0  0  0
   58.6580   29.9400   44.1500 O   0  0  0  0  0  0  0  0  0  0  0  0
   56.6950   30.2340   45.2180 O   0  0  0  0  0  0  0  0  0  0  0  0
   60.7260   32.3430   47.1240 N   0  0  0  0  0  0  0  0  0  0  0  0
   59.8140   32.9260   46.3980 C   0  0  0  0  0  0  0  0  0  0  0  0
   59.8690   34.3170   46.2440 C   0  0  0  0  0  0  0  0  0  0  0  0
   58.9060   34.9680   45.4730 C   0  0  0  0  0  0  0  0  0  0  0  0
   57.8870   34.2310   44.8720 C   0  0  0  0  0  0  0  0  0  0  0  0
   57.8410   32.8490   45.0600 C   0  0  0  0  0  0  0  0  0  0  0  0
   58.7880   32.2260   45.8160 N   0  0  0  0  0  0  0  0  0  0  0  0
   60.1461   29.7528   49.2407 H   0  0  0  0  0  0  0  0  0  0  0  0
   58.6841   30.6688   48.7469 H   0  0  0  0  0  0  0  0  0  0  0  0
   60.0786   27.4519   48.5765 H   0  0  0  0  0  0  0  0  0  0  0  0
   58.9798   25.2777   48.0805 H   0  0  0  0  0  0  0  0  0  0  0  0
   56.1190   25.0660   43.6942 H   0  0  0  0  0  0  0  0  0  0  0  0
   57.3838   24.4684   42.5278 H   0  0  0  0  0  0  0  0  0  0  0  0
   54.9298   23.4244   42.5509 H   0  0  0  0  0  0  0  0  0  0  0  0
   56.3925   22.4085   42.2749 H   0  0  0  0  0  0  0  0  0  0  0  0
   56.4983   21.2498   45.6342 H   0  0  0  0  0  0  0  0  0  0  0  0
   56.8701   20.7451   43.9172 H   0  0  0  0  0  0  0  0  0  0  0  0
   58.5294   22.2648   45.5288 H   0  0  0  0  0  0  0  0  0  0  0  0
   58.5582   22.1877   43.7130 H   0  0  0  0  0  0  0  0  0  0  0  0
   56.8720   27.0813   44.7703 H   0  0  0  0  0  0  0  0  0  0  0  0
   60.6694   34.8945   46.7297 H   0  0  0  0  0  0  0  0  0  0  0  0
   58.9506   36.0590   45.3398 H   0  0  0  0  0  0  0  0  0  0  0  0
   57.1269   34.7336   44.2558 H   0  0  0  0  0  0  0  0  0  0  0  0
   57.0364   32.2598   44.5957 H   0  0  0  0  0  0  0  0  0  0  0  0
   58.6790   31.2000   45.9630 H   0  0  0  0  0  0  0  0  0  0  0  0
  1  2  2  0
  2  3  1  0
  3  4  1  0
  4  5  1  0
  5  6  2  0
  6  7  1  0
  7  8  2  0
  8  9  1  0
  9 10  2  0
  9 11  2  0
  9 12  1  0
 12 13  1  0
 13 14  1  0
 14 15  1  0
 15 16  1  0
 16 17  1  0
  8 18  1  0
 18 19  2  0
 19 20  1  0
 20 21  2  0
 20 22  1  0
  2 23  1  0
 23 24  2  3
 24 25  1  0
 25 26  2  0
 26 27  1  0
 27 28  2  0
 28 29  1  0
 19  5  1  0
 29 24  1  0
 17 12  1  0
  3 30  1  0
  3 31  1  0
  6 32  1  0
  7 33  1  0
 13 34  1  0
 13 35  1  0
 14 36  1  0
 14 37  1  0
 16 38  1  0
 16 39  1  0
 17 40  1  0
 17 41  1  0
 18 42  1  0
 25 43  1  0
 26 44  1  0
 27 45  1  0
 28 46  1  0
 29 47  1  0
M  CHG  2  20   1  22  -1
M  END
>  <UniqueID>  (59) 
53

>  <SMILES>  (59) 
O=C(COc1ccc(S(=O)(=O)N2CCOCC2)cc1[N+](=O)[O-])N=c1cccc[nH]1

>  <Energy>  (59) 
69.97519793589377

>  <Genealogy>  (59) 
O=C(COc1ccc(S(=O)(=O)N2CCOCC2)cc1[N+](=O)[O-])N=c1cccc[nH]1 (3D coordinates assigned)
O=C(COc1ccc(S(=O)(=O)N2CCOCC2)cc1[N+](=O)[O-])N=c1cccc[nH]1 (nonaromatic ring conformer: 69.97519793589377 kcal/mol)

>  <smiles>  (59) 
O=C(COc1ccc(S(=O)(=O)N2CCOCC2)cc1[N+](=O)[O-])N=c1cccc[nH]1

>  <score_type>  (59) 
oracle

>  <origin>  (59) 
adg

>  <m_score__min__energy>  (59) 
-7.8799999999999999

>  <m_primary>  (59) 
energy

$$$$
59:0
     RDKit          3D

 45 47  0  0  0  0  0  0  0  0999 V2000
   54.4781   24.8975   46.3266 H   0  0  0  0  0  0  0  0  0  0  0  0
   55.4160   25.3590   45.9840 C   0  0  0  0  0  0  0  0  0  0  0  0
   55.5520   26.7120   45.9970 N   0  0  0  0  0  0  0  0  0  0  0  0
   56.6920   27.3370   45.5930 C   0  0  0  0  0  0  0  0  0  0  0  0
   56.7250   28.6400   45.6340 N   0  0  0  0  0  0  0  0  0  0  0  0
   57.7690   29.5090   46.1120 C   0  0  0  0  0  0  0  0  0  0  0  0
   58.4790   29.1710   47.0960 O   0  0  0  0  0  0  0  0  0  0  0  0
   57.9480   30.8480   45.5020 C   0  0  0  0  0  0  0  0  0  0  0  0
   57.8380   31.0230   44.1100 C   0  0  0  0  0  0  0  0  0  0  0  0
   57.6167   30.1586   43.4667 H   0  0  0  0  0  0  0  0  0  0  0  0
   58.0080   32.2880   43.5390 C   0  0  0  0  0  0  0  0  0  0  0  0
   57.9194   32.4147   42.4499 H   0  0  0  0  0  0  0  0  0  0  0  0
   58.2900   33.3910   44.3480 C   0  0  0  0  0  0  0  0  0  0  0  0
   58.4248   34.3847   43.8958 H   0  0  0  0  0  0  0  0  0  0  0  0
   58.4010   33.2320   45.7330 C   0  0  0  0  0  0  0  0  0  0  0  0
   58.7550   34.6510   46.7710 S   0  0  0  0  0  0  0  0  0  0  0  0
   60.3510   34.0040   47.2670 C   0  0  0  0  0  0  0  0  0  0  0  0
   61.4020   33.9390   46.3510 C   0  0  0  0  0  0  0  0  0  0  0  0
   61.2552   34.2918   45.3195 H   0  0  0  0  0  0  0  0  0  0  0  0
   62.6400   33.4260   46.7440 C   0  0  0  0  0  0  0  0  0  0  0  0
   63.4715   33.3757   46.0256 H   0  0  0  0  0  0  0  0  0  0  0  0
   62.8180   32.9720   48.0700 C   0  0  0  0  0  0  0  0  0  0  0  0
   63.9490   32.4860   48.5040 N   0  0  0  0  0  0  0  0  0  0  0  0
   64.4280   32.3630   49.8540 C   0  0  0  0  0  0  0  0  0  0  0  0
   63.7070   31.8660   50.7590 O   0  0  0  0  0  0  0  0  0  0  0  0
   65.7560   32.9480   50.2090 C   0  0  0  0  0  0  0  0  0  0  0  0
   65.7222   33.3438   51.2348 H   0  0  0  0  0  0  0  0  0  0  0  0
   65.9994   33.7653   49.5142 H   0  0  0  0  0  0  0  0  0  0  0  0
   66.7400   31.9410   50.1230 O   0  0  0  0  0  0  0  0  0  0  0  0
   66.6230   31.0790   51.2320 C   0  0  0  0  0  0  0  0  0  0  0  0
   66.7023   31.6633   52.1606 H   0  0  0  0  0  0  0  0  0  0  0  0
   65.6477   30.5713   51.2005 H   0  0  0  0  0  0  0  0  0  0  0  0
   67.4277   30.3297   51.2005 H   0  0  0  0  0  0  0  0  0  0  0  0
   61.7760   33.0750   48.9470 N   0  0  0  0  0  0  0  0  0  0  0  0
   61.9000   32.7580   49.9350 H   0  0  0  0  0  0  0  0  0  0  0  0
   60.5640   33.5710   48.5760 C   0  0  0  0  0  0  0  0  0  0  0  0
   59.7485   33.6307   49.3118 H   0  0  0  0  0  0  0  0  0  0  0  0
   58.2360   31.9670   46.3080 C   0  0  0  0  0  0  0  0  0  0  0  0
   58.3318   31.8454   47.3971 H   0  0  0  0  0  0  0  0  0  0  0  0
   57.7640   26.5510   45.1160 C   0  0  0  0  0  0  0  0  0  0  0  0
   58.6883   27.0310   44.7620 H   0  0  0  0  0  0  0  0  0  0  0  0
   57.6420   25.1600   45.0970 C   0  0  0  0  0  0  0  0  0  0  0  0
   58.4752   24.5398   44.7349 H   0  0  0  0  0  0  0  0  0  0  0  0
   56.4640   24.5570   45.5370 C   0  0  0  0  0  0  0  0  0  0  0  0
   56.3635   23.4616   45.5312 H   0  0  0  0  0  0  0  0  0  0  0  0
  1  2  1  0
  2  3  1  0
  3  4  1  0
  4  5  2  0
  5  6  1  0
  6  7  2  0
  6  8  1  0
  8  9  2  0
  9 10  1  0
  9 11  1  0
 11 12  1  0
 11 13  2  0
 13 14  1  0
 13 15  1  0
 15 16  1  0
 16 17  1  0
 17 18  1  0
 18 19  1  0
 18 20  2  0
 20 21  1  0
 20 22  1  0
 22 23  2  3
 23 24  1  0
 24 25  2  0
 24 26  1  0
 26 27  1  0
 26 28  1  0
 26 29  1  0
 29 30  1  0
 30 31  1  0
 30 32  1  0
 30 33  1  0
 22 34  1  0
 34 35  1  0
 34 36  1  0
 36 37  1  0
 15 38  2  0
 38 39  1  0
  4 40  1  0
 40 41  1  0
 40 42  2  0
 42 43  1  0
 42 44  1  0
 44 45  1  0
 44  2  2  0
 38  8  1  0
 36 17  2  0
M  CHG  1   3  -1
M  END
>  <UniqueID>  (60) 
54

>  <SMILES>  (60) 
COCC(=O)N=c1ccc(Sc2cccc(C(=O)/N=c3\cccc[n-]3)c2)c[nH]1

>  <Energy>  (60) 
59.336341377608434

>  <Genealogy>  (60) 
COCC(=O)N=c1ccc(Sc2cccc(C(=O)N=c3cccc[n-]3)c2)c[nH]1 (protonated)
COCC(=O)N=c1ccc(Sc2cccc(C(=O)/N=c3\cccc[n-]3)c2)c[nH]1 (cis-trans isomerization)
COCC(=O)N=c1ccc(Sc2cccc(C(=O)/N=c3\cccc[n-]3)c2)c[nH]1 (3D coordinates assigned)
COCC(=O)N=c1ccc(Sc2cccc(C(=O)/N=c3\cccc[n-]3)c2)c[nH]1 (optimized conformer: 59.336341377608434 kcal/mol)

>  <smiles>  (60) 
COCC(=O)N=c1ccc(Sc2cccc(C(=O)N=c3cccc[nH]3)c2)c[nH]1

>  <score_type>  (60) 
oracle

>  <origin>  (60) 
adg

>  <m_score__min__energy>  (60) 
-10.359999999999999

>  <m_primary>  (60) 
energy

$$$$
60:0
     RDKit          3D

 30 31  0  0  0  0  0  0  0  0999 V2000
   60.7100   29.0420   45.4180 C   0  0  0  0  0  0  0  0  0  0  0  0
   59.9690   28.1660   44.7420 C   0  0  0  0  0  0  0  0  0  0  0  0
   58.6330   27.7080   45.1970 C   0  0  0  0  0  0  0  0  0  0  0  0
   57.5400   28.5370   44.8980 C   0  0  0  0  0  0  0  0  0  0  0  0
   56.2470   28.1710   45.2650 C   0  0  0  0  0  0  0  0  0  0  0  0
   55.1740   28.9900   44.9380 O   0  0  0  0  0  0  0  0  0  0  0  0
   56.0290   26.9870   45.9670 C   0  0  0  0  0  0  0  0  0  0  0  0
   57.1000   26.1640   46.3230 C   0  0  0  0  0  0  0  0  0  0  0  0
   56.8220   25.0380   47.1020 O   0  0  0  0  0  0  0  0  0  0  0  0
   58.4180   26.5010   45.9210 C   0  0  0  0  0  0  0  0  0  0  0  0
   59.5550   25.6290   46.2990 C   0  0  0  0  0  0  0  0  0  0  0  0
   60.5100   26.1230   46.9560 O   0  0  0  0  0  0  0  0  0  0  0  0
   59.5900   24.2300   45.9810 N   0  0  0  0  0  0  0  0  0  0  0  0
   58.6710   23.4960   45.1560 C   0  0  0  0  0  0  0  0  0  0  0  0
   58.5050   22.1030   45.2710 C   0  0  0  0  0  0  0  0  0  0  0  0
   57.5880   21.4340   44.4560 C   0  0  0  0  0  0  0  0  0  0  0  0
   56.8180   22.1480   43.5330 C   0  0  0  0  0  0  0  0  0  0  0  0
   55.9080   21.4810   42.7220 O   0  0  0  0  0  0  0  0  0  0  0  0
   56.9600   23.5340   43.4320 C   0  0  0  0  0  0  0  0  0  0  0  0
   57.8770   24.2060   44.2460 C   0  0  0  0  0  0  0  0  0  0  0  0
   61.6941   29.3445   45.0307 H   0  0  0  0  0  0  0  0  0  0  0  0
   60.3379   29.4631   46.3636 H   0  0  0  0  0  0  0  0  0  0  0  0
   60.3671   27.7619   43.7996 H   0  0  0  0  0  0  0  0  0  0  0  0
   57.7066   29.4863   44.3679 H   0  0  0  0  0  0  0  0  0  0  0  0
   55.0042   26.6980   46.2432 H   0  0  0  0  0  0  0  0  0  0  0  0
   57.4320   24.2330   47.1530 H   0  0  0  0  0  0  0  0  0  0  0  0
   59.0992   21.5390   46.0050 H   0  0  0  0  0  0  0  0  0  0  0  0
   57.4718   20.3435   44.5408 H   0  0  0  0  0  0  0  0  0  0  0  0
   56.3495   24.0975   42.7111 H   0  0  0  0  0  0  0  0  0  0  0  0
   57.9756   25.2990   44.1714 H   0  0  0  0  0  0  0  0  0  0  0  0
  1  2  2  0
  2  3  1  0
  3  4  2  0
  4  5  1  0
  5  6  1  0
  5  7  2  0
  7  8  1  0
  8  9  1  0
  8 10  2  0
 10 11  1  0
 11 12  2  0
 11 13  1  0
 13 14  1  0
 14 15  2  0
 15 16  1  0
 16 17  2  0
 17 18  1  0
 17 19  1  0
 19 20  2  0
 10  3  1  0
 20 14  1  0
  1 21  1  0
  1 22  1  0
  2 23  1  0
  4 24  1  0
  7 25  1  0
  9 26  1  0
 15 27  1  0
 16 28  1  0
 19 29  1  0
 20 30  1  0
M  CHG  3   6  -1  13  -1  18  -1
M  END
>  <UniqueID>  (61) 
55

>  <SMILES>  (61) 
C=Cc1cc([O-])cc(O)c1C(=O)[N-]c1ccc([O-])cc1

>  <Energy>  (61) 
46.73048503707658

>  <Genealogy>  (61) 
C=Cc1cc([O-])cc(O)c1C(=O)[N-]c1ccc([O-])cc1 (protonated)
C=Cc1cc([O-])cc(O)c1C(=O)[N-]c1ccc([O-])cc1 (3D coordinates assigned)
C=Cc1cc([O-])cc(O)c1C(=O)[N-]c1ccc([O-])cc1 (optimized conformer: 46.73048503707658 kcal/mol)

>  <smiles>  (61) 
C=Cc1cc(O)cc(O)c1C(=O)Nc1ccc(O)cc1

>  <score_type>  (61) 
oracle

>  <origin>  (61) 
adg

>  <m_score__min__energy>  (61) 
-11.52

>  <m_primary>  (61) 
energy

$$$$
61:0
     RDKit          3D

 39 41  0  0  0  0  0  0  0  0999 V2000
   64.8180   32.0730   50.0080 C   0  0  0  0  0  0  0  0  0  0  0  0
   64.5620   32.9230   48.8950 O   0  0  0  0  0  0  0  0  0  0  0  0
   63.2820   33.3030   48.4650 C   0  0  0  0  0  0  0  0  0  0  0  0
   62.8640   33.1610   47.1280 C   0  0  0  0  0  0  0  0  0  0  0  0
   61.5780   33.5490   46.7450 C   0  0  0  0  0  0  0  0  0  0  0  0
   60.6810   34.0770   47.6890 C   0  0  0  0  0  0  0  0  0  0  0  0
   59.3160   34.4950   47.2870 C   0  0  0  0  0  0  0  0  0  0  0  0
   59.1040   35.6960   46.9700 O   0  0  0  0  0  0  0  0  0  0  0  0
   58.2360   33.5570   47.1780 N   0  0  0  0  0  0  0  0  0  0  0  0
   58.3620   32.2920   46.9060 C   0  0  0  0  0  0  0  0  0  0  0  0
   58.8510   31.3850   47.8840 N   0  0  0  0  0  0  0  0  0  0  0  0
   58.9390   30.0740   47.3580 C   0  0  0  0  0  0  0  0  0  0  0  0
   59.4050   29.1190   48.0340 O   0  0  0  0  0  0  0  0  0  0  0  0
   58.4920   29.9690   45.9650 C   0  0  0  0  0  0  0  0  0  0  0  0
   58.4100   28.8530   45.2280 C   0  0  0  0  0  0  0  0  0  0  0  0
   57.7000   27.6290   45.6460 C   0  0  0  0  0  0  0  0  0  0  0  0
   58.4450   26.4940   45.9940 C   0  0  0  0  0  0  0  0  0  0  0  0
   57.7980   25.3140   46.3670 C   0  0  0  0  0  0  0  0  0  0  0  0
   56.4020   25.2460   46.3780 C   0  0  0  0  0  0  0  0  0  0  0  0
   55.7830   24.0560   46.7590 O   0  0  0  0  0  0  0  0  0  0  0  0
   55.6470   26.3700   46.0020 C   0  0  0  0  0  0  0  0  0  0  0  0
   54.2570   26.3120   45.9960 O   0  0  0  0  0  0  0  0  0  0  0  0
   56.2930   27.5550   45.6260 C   0  0  0  0  0  0  0  0  0  0  0  0
   55.5360   28.6520   45.2240 O   0  0  0  0  0  0  0  0  0  0  0  0
   58.0660   31.5730   45.2740 S   0  0  0  0  0  0  0  0  0  0  0  0
   61.1050   34.2310   49.0190 C   0  0  0  0  0  0  0  0  0  0  0  0
   62.3920   33.8420   49.4040 C   0  0  0  0  0  0  0  0  0  0  0  0
   62.7870   33.9950   50.7280 O   0  0  0  0  0  0  0  0  0  0  0  0
   64.6501   32.6304   50.9413 H   0  0  0  0  0  0  0  0  0  0  0  0
   64.1409   31.2069   49.9713 H   0  0  0  0  0  0  0  0  0  0  0  0
   65.8608   31.7249   49.9713 H   0  0  0  0  0  0  0  0  0  0  0  0
   63.5541   32.7421   46.3808 H   0  0  0  0  0  0  0  0  0  0  0  0
   61.2650   33.4404   45.6961 H   0  0  0  0  0  0  0  0  0  0  0  0
   59.1200   31.6500   48.8580 H   0  0  0  0  0  0  0  0  0  0  0  0
   58.9051   28.8491   44.2457 H   0  0  0  0  0  0  0  0  0  0  0  0
   59.5441   26.5329   45.9732 H   0  0  0  0  0  0  0  0  0  0  0  0
   58.3906   24.4328   46.6539 H   0  0  0  0  0  0  0  0  0  0  0  0
   54.7760   23.9510   46.7620 H   0  0  0  0  0  0  0  0  0  0  0  0
   60.4193   34.6610   49.7639 H   0  0  0  0  0  0  0  0  0  0  0  0
  1  2  1  0
  2  3  1  0
  3  4  2  0
  4  5  1  0
  5  6  2  0
  6  7  1  0
  7  8  2  0
  7  9  1  0
  9 10  2  3
 10 11  1  0
 11 12  1  0
 12 13  2  0
 12 14  1  0
 14 15  2  3
 15 16  1  0
 16 17  2  0
 17 18  1  0
 18 19  2  0
 19 20  1  0
 19 21  1  0
 21 22  1  0
 21 23  2  0
 23 24  1  0
 14 25  1  0
  6 26  1  0
 26 27  2  0
 27 28  1  0
 27  3  1  0
 25 10  1  0
 23 16  1  0
  1 29  1  0
  1 30  1  0
  1 31  1  0
  4 32  1  0
  5 33  1  0
 11 34  1  0
 15 35  1  0
 17 36  1  0
 18 37  1  0
 20 38  1  0
 26 39  1  0
M  CHG  3  22  -1  24  -1  28  -1
M  END
>  <UniqueID>  (62) 
56

>  <SMILES>  (62) 
COc1ccc(C(=O)N=C2NC(=O)C(=Cc3ccc(O)c([O-])c3[O-])S2)cc1[O-]

>  <Energy>  (62) 
76.96200889307744

>  <Genealogy>  (62) 
COc1ccc(C(=O)N=C2NC(=O)C(=Cc3ccc(O)c([O-])c3[O-])S2)cc1[O-] (protonated)
COc1ccc(C(=O)N=C2NC(=O)C(=Cc3ccc(O)c([O-])c3[O-])S2)cc1[O-] (3D coordinates assigned)
COc1ccc(C(=O)N=C2NC(=O)C(=Cc3ccc(O)c([O-])c3[O-])S2)cc1[O-] (nonaromatic ring conformer: 76.96200889307744 kcal/mol)

>  <smiles>  (62) 
COc1ccc(C(=O)N=C2NC(=O)C(=Cc3ccc(O)c(O)c3O)S2)cc1O

>  <score_type>  (62) 
oracle

>  <origin>  (62) 
adg

>  <m_score__min__energy>  (62) 
-16.370000000000001

>  <m_primary>  (62) 
energy

$$$$
62:0
     RDKit          3D

 46 47  0  0  0  0  0  0  0  0999 V2000
   56.7410   24.1680   47.3280 C   0  0  0  0  0  0  0  0  0  0  0  0
   56.8930   24.2250   45.8320 C   0  0  0  0  0  0  0  0  0  0  0  0
   56.5180   23.0870   45.0790 C   0  0  0  0  0  0  0  0  0  0  0  0
   56.6200   23.0980   43.6900 C   0  0  0  0  0  0  0  0  0  0  0  0
   57.0170   24.2690   43.0300 C   0  0  0  0  0  0  0  0  0  0  0  0
   57.4580   25.4110   43.7710 C   0  0  0  0  0  0  0  0  0  0  0  0
   58.0410   26.5730   43.0180 C   0  0  0  0  0  0  0  0  0  0  0  0
   57.5810   25.2710   45.1750 C   0  0  0  0  0  0  0  0  0  0  0  0
   58.2460   26.2870   45.9370 N   0  0  0  0  0  0  0  0  0  0  0  0
   59.5390   26.0770   46.4930 C   0  0  0  0  0  0  0  0  0  0  0  0
   60.2990   25.1360   45.9940 O   0  0  0  0  0  0  0  0  0  0  0  0
   60.1110   27.1590   47.2870 N   0  0  0  0  0  0  0  0  0  0  0  0
   60.1910   28.5200   46.8040 C   0  0  0  0  0  0  0  0  0  0  0  0
   60.1500   28.7170   45.5480 O   0  0  0  0  0  0  0  0  0  0  0  0
   60.7990   29.5360   47.5920 N   0  0  0  0  0  0  0  0  0  0  0  0
   60.3410   30.9040   47.5510 C   0  0  0  0  0  0  0  0  0  0  0  0
   61.1390   31.9060   47.7550 O   0  0  0  0  0  0  0  0  0  0  0  0
   58.9520   31.1600   47.2460 N   0  0  0  0  0  0  0  0  0  0  0  0
   58.5370   32.2980   46.4650 C   0  0  0  0  0  0  0  0  0  0  0  0
   58.6950   33.5640   47.0440 C   0  0  0  0  0  0  0  0  0  0  0  0
   58.8850   34.6840   46.1930 C   0  0  0  0  0  0  0  0  0  0  0  0
   58.4600   34.6200   44.8720 C   0  0  0  0  0  0  0  0  0  0  0  0
   57.9790   33.4100   44.3870 C   0  0  0  0  0  0  0  0  0  0  0  0
   58.0470   32.2010   45.1400 C   0  0  0  0  0  0  0  0  0  0  0  0
   57.5410   30.9560   44.4950 C   0  0  0  0  0  0  0  0  0  0  0  0
   58.5090   30.0330   43.9650 N   0  0  0  0  0  0  0  0  0  0  0  0
   56.3150   30.6440   44.5590 O   0  0  0  0  0  0  0  0  0  0  0  0
   57.6694   24.5161   47.8044 H   0  0  0  0  0  0  0  0  0  0  0  0
   55.9059   24.8141   47.6366 H   0  0  0  0  0  0  0  0  0  0  0  0
   56.5366   23.1321   47.6366 H   0  0  0  0  0  0  0  0  0  0  0  0
   56.1441   22.1893   45.5932 H   0  0  0  0  0  0  0  0  0  0  0  0
   56.3897   22.1904   43.1127 H   0  0  0  0  0  0  0  0  0  0  0  0
   56.9893   24.3106   41.9311 H   0  0  0  0  0  0  0  0  0  0  0  0
   58.4164   27.3212   43.7317 H   0  0  0  0  0  0  0  0  0  0  0  0
   58.8695   26.2215   42.3855 H   0  0  0  0  0  0  0  0  0  0  0  0
   57.2640   27.0271   42.3855 H   0  0  0  0  0  0  0  0  0  0  0  0
   57.5570   26.8490   46.5340 H   0  0  0  0  0  0  0  0  0  0  0  0
   61.1180   26.7810   47.3850 H   0  0  0  0  0  0  0  0  0  0  0  0
   61.7820   29.7130   47.1730 H   0  0  0  0  0  0  0  0  0  0  0  0
   58.2250   30.6430   47.8020 H   0  0  0  0  0  0  0  0  0  0  0  0
   58.6722   33.6876   48.1368 H   0  0  0  0  0  0  0  0  0  0  0  0
   59.3653   35.5961   46.5768 H   0  0  0  0  0  0  0  0  0  0  0  0
   58.5033   35.5079   44.2241 H   0  0  0  0  0  0  0  0  0  0  0  0
   57.5285   33.3837   43.3838 H   0  0  0  0  0  0  0  0  0  0  0  0
   58.2960   29.1800   43.3780 H   0  0  0  0  0  0  0  0  0  0  0  0
   59.5400   30.2100   44.0740 H   0  0  0  0  0  0  0  0  0  0  0  0
  1  2  1  0
  2  3  2  0
  3  4  1  0
  4  5  2  0
  5  6  1  0
  6  7  1  0
  6  8  2  0
  8  9  1  0
  9 10  1  0
 10 11  2  0
 10 12  1  0
 12 13  1  0
 13 14  2  0
 13 15  1  0
 15 16  1  0
 16 17  2  0
 16 18  1  0
 18 19  1  0
 19 20  2  0
 20 21  1  0
 21 22  2  0
 22 23  1  0
 23 24  2  0
 24 25  1  0
 25 26  1  0
 25 27  2  0
  8  2  1  0
 24 19  1  0
  1 28  1  0
  1 29  1  0
  1 30  1  0
  3 31  1  0
  4 32  1  0
  5 33  1  0
  7 34  1  0
  7 35  1  0
  7 36  1  0
  9 37  1  0
 12 38  1  0
 15 39  1  0
 18 40  1  0
 20 41  1  0
 21 42  1  0
 22 43  1  0
 23 44  1  0
 26 45  1  0
 26 46  1  0
M  END
>  <UniqueID>  (63) 
57

>  <SMILES>  (63) 
Cc1cccc(C)c1NC(=O)NC(=O)NC(=O)Nc1ccccc1C(N)=O

>  <Energy>  (63) 
143.07959620373614

>  <Genealogy>  (63) 
Cc1cccc(C)c1NC(=O)NC(=O)NC(=O)Nc1ccccc1C(N)=O (3D coordinates assigned)
Cc1cccc(C)c1NC(=O)NC(=O)NC(=O)Nc1ccccc1C(N)=O (optimized conformer: 143.07959620373614 kcal/mol)

>  <smiles>  (63) 
Cc1cccc(C)c1NC(=O)NC(=O)NC(=O)Nc1ccccc1C(N)=O

>  <score_type>  (63) 
oracle

>  <origin>  (63) 
adg

>  <m_score__min__energy>  (63) 
-8.5299999999999994

>  <m_primary>  (63) 
energy

$$$$
63:0
     RDKit          3D

 57 58  0  0  0  0  0  0  0  0999 V2000
   56.6400   22.1850   43.0270 C   0  0  0  0  0  0  0  0  0  0  0  0
   56.3070   23.6210   43.4290 C   0  0  0  0  0  0  0  0  0  0  0  0
   55.4160   23.6500   44.6740 C   0  0  0  0  0  0  0  0  0  0  0  0
   55.6700   25.1510   45.6100 S   0  0  0  0  0  0  0  0  0  0  0  0
   56.0600   24.7920   47.0160 O   0  0  0  0  0  0  0  0  0  0  0  0
   54.4050   25.9630   45.6440 O   0  0  0  0  0  0  0  0  0  0  0  0
   56.9480   26.0740   44.8910 N   0  0  0  0  0  0  0  0  0  0  0  0
   58.1490   26.3750   45.6130 C   0  0  0  0  0  0  0  0  0  0  0  0
   59.1310   25.3850   45.7630 C   0  0  0  0  0  0  0  0  0  0  0  0
   58.9540   24.1550   45.2200 F   0  0  0  0  0  0  0  0  0  0  0  0
   60.3110   25.6670   46.4510 C   0  0  0  0  0  0  0  0  0  0  0  0
   60.5170   26.9290   47.0100 C   0  0  0  0  0  0  0  0  0  0  0  0
   59.5380   27.9310   46.8910 C   0  0  0  0  0  0  0  0  0  0  0  0
   59.7400   29.2480   47.5420 C   0  0  0  0  0  0  0  0  0  0  0  0
   58.8180   29.7400   48.2480 O   0  0  0  0  0  0  0  0  0  0  0  0
   60.9660   29.9790   47.3580 N   0  0  0  0  0  0  0  0  0  0  0  0
   61.3920   31.0220   48.2460 C   0  0  0  0  0  0  0  0  0  0  0  0
   60.8160   31.1910   49.3570 O   0  0  0  0  0  0  0  0  0  0  0  0
   62.4920   31.8640   47.8800 N   0  0  0  0  0  0  0  0  0  0  0  0
   62.9720   32.9170   48.7760 C   0  0  0  0  0  0  0  0  0  0  0  0
   62.1700   34.2100   48.5900 C   0  0  0  0  0  0  0  0  0  0  0  0
   60.9190   33.9380   47.7970 C   0  0  0  0  0  0  0  0  0  0  0  0
   59.7050   33.6710   48.4500 C   0  0  0  0  0  0  0  0  0  0  0  0
   58.5600   33.3580   47.7130 C   0  0  0  0  0  0  0  0  0  0  0  0
   58.6100   33.3030   46.3090 C   0  0  0  0  0  0  0  0  0  0  0  0
   57.4150   32.9460   45.5140 C   0  0  0  0  0  0  0  0  0  0  0  0
   56.6390   33.8590   45.1170 O   0  0  0  0  0  0  0  0  0  0  0  0
   57.0980   31.5840   45.1980 N   0  0  0  0  0  0  0  0  0  0  0  0
   55.9380   31.2180   44.5900 O   0  0  0  0  0  0  0  0  0  0  0  0
   56.2590   30.1430   43.7420 C   0  0  0  0  0  0  0  0  0  0  0  0
   59.8300   33.5520   45.6600 C   0  0  0  0  0  0  0  0  0  0  0  0
   60.9730   33.8720   46.3970 C   0  0  0  0  0  0  0  0  0  0  0  0
   58.3470   27.6420   46.1890 C   0  0  0  0  0  0  0  0  0  0  0  0
   57.3760   28.5820   46.0880 F   0  0  0  0  0  0  0  0  0  0  0  0
   56.7815   21.5746   43.9311 H   0  0  0  0  0  0  0  0  0  0  0  0
   55.8142   21.7704   42.4303 H   0  0  0  0  0  0  0  0  0  0  0  0
   57.5640   22.1762   42.4303 H   0  0  0  0  0  0  0  0  0  0  0  0
   57.2414   24.1605   43.6428 H   0  0  0  0  0  0  0  0  0  0  0  0
   55.7661   24.1005   42.5998 H   0  0  0  0  0  0  0  0  0  0  0  0
   54.3623   23.5940   44.3634 H   0  0  0  0  0  0  0  0  0  0  0  0
   55.6767   22.7919   45.3110 H   0  0  0  0  0  0  0  0  0  0  0  0
   56.6930   26.6700   44.0730 H   0  0  0  0  0  0  0  0  0  0  0  0
   61.0834   24.8905   46.5535 H   0  0  0  0  0  0  0  0  0  0  0  0
   61.4527   27.1414   47.5479 H   0  0  0  0  0  0  0  0  0  0  0  0
   61.5660   29.7590   46.5330 H   0  0  0  0  0  0  0  0  0  0  0  0
   62.9370   31.7290   46.9420 H   0  0  0  0  0  0  0  0  0  0  0  0
   62.8687   32.5772   49.8171 H   0  0  0  0  0  0  0  0  0  0  0  0
   64.0261   33.1232   48.5386 H   0  0  0  0  0  0  0  0  0  0  0  0
   61.8946   34.6115   49.5764 H   0  0  0  0  0  0  0  0  0  0  0  0
   62.7877   34.9397   48.0459 H   0  0  0  0  0  0  0  0  0  0  0  0
   59.6551   33.7085   49.5482 H   0  0  0  0  0  0  0  0  0  0  0  0
   57.6134   33.1533   48.2346 H   0  0  0  0  0  0  0  0  0  0  0  0
   56.5216   29.2635   44.3482 H   0  0  0  0  0  0  0  0  0  0  0  0
   55.3926   29.9053   43.1072 H   0  0  0  0  0  0  0  0  0  0  0  0
   57.1138   30.4193   43.1072 H   0  0  0  0  0  0  0  0  0  0  0  0
   59.8863   33.4947   44.5629 H   0  0  0  0  0  0  0  0  0  0  0  0
   61.9208   34.0734   45.8763 H   0  0  0  0  0  0  0  0  0  0  0  0
  1  2  1  0
  2  3  1  0
  3  4  1  0
  4  5  2  0
  4  6  2  0
  4  7  1  0
  7  8  1  0
  8  9  2  0
  9 10  1  0
  9 11  1  0
 11 12  2  0
 12 13  1  0
 13 14  1  0
 14 15  2  0
 14 16  1  0
 16 17  1  0
 17 18  2  0
 17 19  1  0
 19 20  1  0
 20 21  1  0
 21 22  1  0
 22 23  2  0
 23 24  1  0
 24 25  2  0
 25 26  1  0
 26 27  2  0
 26 28  1  0
 28 29  1  0
 29 30  1  0
 25 31  1  0
 31 32  2  0
 13 33  2  0
 33 34  1  0
 33  8  1  0
 32 22  1  0
  1 35  1  0
  1 36  1  0
  1 37  1  0
  2 38  1  0
  2 39  1  0
  3 40  1  0
  3 41  1  0
  7 42  1  0
 11 43  1  0
 12 44  1  0
 16 45  1  0
 19 46  1  0
 20 47  1  0
 20 48  1  0
 21 49  1  0
 21 50  1  0
 23 51  1  0
 24 52  1  0
 30 53  1  0
 30 54  1  0
 30 55  1  0
 31 56  1  0
 32 57  1  0
M  CHG  1  28  -1
M  END
>  <UniqueID>  (64) 
58

>  <SMILES>  (64) 
CCCS(=O)(=O)Nc1c(F)ccc(C(=O)NC(=O)NCCc2ccc(C(=O)[N-]OC)cc2)c1F

>  <Energy>  (64) 
54.57421768800311

>  <Genealogy>  (64) 
CCCS(=O)(=O)Nc1c(F)ccc(C(=O)NC(=O)NCCc2ccc(C(=O)[N-]OC)cc2)c1F (protonated)
CCCS(=O)(=O)Nc1c(F)ccc(C(=O)NC(=O)NCCc2ccc(C(=O)[N-]OC)cc2)c1F (3D coordinates assigned)
CCCS(=O)(=O)Nc1c(F)ccc(C(=O)NC(=O)NCCc2ccc(C(=O)[N-]OC)cc2)c1F (optimized conformer: 54.57421768800311 kcal/mol)

>  <smiles>  (64) 
CCCS(=O)(=O)Nc1c(F)ccc(C(=O)NC(=O)NCCc2ccc(C(=O)NOC)cc2)c1F

>  <score_type>  (64) 
oracle

>  <origin>  (64) 
adg

>  <m_score__min__energy>  (64) 
-12.779999999999999

>  <m_primary>  (64) 
energy

$$$$
64:0
     RDKit          3D

 42 44  0  0  0  0  0  0  0  0999 V2000
   59.7920   35.2380   46.5410 O   0  0  0  0  0  0  0  0  0  0  0  0
   59.2190   34.1150   46.4970 C   0  0  0  0  0  0  0  0  0  0  0  0
   57.7410   34.0610   46.2370 C   0  0  0  0  0  0  0  0  0  0  0  0
   57.3390   33.6280   44.5030 S   0  0  0  0  0  0  0  0  0  0  0  0
   57.5150   31.8590   44.7220 C   0  0  0  0  0  0  0  0  0  0  0  0
   56.4260   31.0500   44.7050 N   0  0  0  0  0  0  0  0  0  0  0  0
   56.5550   29.7130   44.8990 C   0  0  0  0  0  0  0  0  0  0  0  0
   55.5310   28.9800   44.8690 O   0  0  0  0  0  0  0  0  0  0  0  0
   57.8310   29.1710   45.1310 C   0  0  0  0  0  0  0  0  0  0  0  0
   58.0530   27.6910   45.3300 C   0  0  0  0  0  0  0  0  0  0  0  0
   58.1770   27.3690   46.7550 N   0  0  0  0  0  0  0  0  0  0  0  0
   58.9230   28.1420   47.7180 C   0  0  0  0  0  0  0  0  0  0  0  0
   58.5680   29.4640   48.0570 C   0  0  0  0  0  0  0  0  0  0  0  0
   59.3030   30.1700   49.0160 C   0  0  0  0  0  0  0  0  0  0  0  0
   60.4000   29.5720   49.6410 C   0  0  0  0  0  0  0  0  0  0  0  0
   61.1080   30.2580   50.5720 F   0  0  0  0  0  0  0  0  0  0  0  0
   60.7680   28.2680   49.3040 C   0  0  0  0  0  0  0  0  0  0  0  0
   60.0370   27.5580   48.3470 C   0  0  0  0  0  0  0  0  0  0  0  0
   58.8970   30.0130   45.1040 N   0  0  0  0  0  0  0  0  0  0  0  0
   58.7460   31.3220   44.9090 N   0  0  0  0  0  0  0  0  0  0  0  0
   59.9880   32.9070   46.6090 N   0  0  0  0  0  0  0  0  0  0  0  0
   61.2340   32.8020   47.3240 C   0  0  0  0  0  0  0  0  0  0  0  0
   61.6190   33.8400   48.1880 C   0  0  0  0  0  0  0  0  0  0  0  0
   62.8430   33.7850   48.8610 C   0  0  0  0  0  0  0  0  0  0  0  0
   63.6980   32.6970   48.6750 C   0  0  0  0  0  0  0  0  0  0  0  0
   64.8870   32.6480   49.3250 F   0  0  0  0  0  0  0  0  0  0  0  0
   63.3310   31.6630   47.8110 C   0  0  0  0  0  0  0  0  0  0  0  0
   62.1120   31.7170   47.1290 C   0  0  0  0  0  0  0  0  0  0  0  0
   57.2951   33.3051   46.9002 H   0  0  0  0  0  0  0  0  0  0  0  0
   57.3345   35.0648   46.4299 H   0  0  0  0  0  0  0  0  0  0  0  0
   57.2001   27.1387   44.9086 H   0  0  0  0  0  0  0  0  0  0  0  0
   58.9851   27.4033   44.8216 H   0  0  0  0  0  0  0  0  0  0  0  0
   57.6680   26.5180   47.0890 H   0  0  0  0  0  0  0  0  0  0  0  0
   57.7086   29.9429   47.5649 H   0  0  0  0  0  0  0  0  0  0  0  0
   59.0161   31.1990   49.2785 H   0  0  0  0  0  0  0  0  0  0  0  0
   61.6346   27.7985   49.7924 H   0  0  0  0  0  0  0  0  0  0  0  0
   60.3360   26.5328   48.0835 H   0  0  0  0  0  0  0  0  0  0  0  0
   59.6060   32.0460   46.1560 H   0  0  0  0  0  0  0  0  0  0  0  0
   60.9526   34.7025   48.3362 H   0  0  0  0  0  0  0  0  0  0  0  0
   63.1333   34.6011   49.5390 H   0  0  0  0  0  0  0  0  0  0  0  0
   64.0028   30.8040   47.6668 H   0  0  0  0  0  0  0  0  0  0  0  0
   61.8365   30.9081   46.4363 H   0  0  0  0  0  0  0  0  0  0  0  0
  1  2  2  0
  2  3  1  0
  3  4  1  0
  4  5  1  0
  5  6  2  0
  6  7  1  0
  7  8  2  0
  7  9  1  0
  9 10  1  0
 10 11  1  0
 11 12  1  0
 12 13  2  0
 13 14  1  0
 14 15  2  0
 15 16  1  0
 15 17  1  0
 17 18  2  0
  9 19  2  0
 19 20  1  0
  2 21  1  0
 21 22  1  0
 22 23  2  0
 23 24  1  0
 24 25  2  0
 25 26  1  0
 25 27  1  0
 27 28  2  0
 20  5  1  0
 28 22  1  0
 18 12  1  0
  3 29  1  0
  3 30  1  0
 10 31  1  0
 10 32  1  0
 11 33  1  0
 13 34  1  0
 14 35  1  0
 17 36  1  0
 18 37  1  0
 21 38  1  0
 23 39  1  0
 24 40  1  0
 27 41  1  0
 28 42  1  0
M  CHG  1  20  -1
M  END
>  <UniqueID>  (65) 
59

>  <SMILES>  (65) 
O=C(CSc1nc(=O)c(CNc2ccc(F)cc2)n[n-]1)Nc1ccc(F)cc1

>  <Energy>  (65) 
44.58327273426044

>  <Genealogy>  (65) 
O=C(CSc1nc(=O)c(CNc2ccc(F)cc2)n[n-]1)Nc1ccc(F)cc1 (protonated)
O=C(CSc1nc(=O)c(CNc2ccc(F)cc2)n[n-]1)Nc1ccc(F)cc1 (3D coordinates assigned)
O=C(CSc1nc(=O)c(CNc2ccc(F)cc2)n[n-]1)Nc1ccc(F)cc1 (optimized conformer: 44.58327273426044 kcal/mol)

>  <smiles>  (65) 
O=C(CSc1nc(=O)c(CNc2ccc(F)cc2)n[nH]1)Nc1ccc(F)cc1

>  <score_type>  (65) 
oracle

>  <origin>  (65) 
adg

>  <m_score__min__energy>  (65) 
-9.4299999999999997

>  <m_primary>  (65) 
energy

$$$$
65:0
     RDKit          3D

 47 49  0  0  0  0  0  0  0  0999 V2000
   59.2660   34.1670   44.5800 C   0  0  0  0  0  0  0  0  0  0  0  0
   57.9510   33.4320   44.3780 C   0  0  0  0  0  0  0  0  0  0  0  0
   58.1980   32.1850   43.7320 O   0  0  0  0  0  0  0  0  0  0  0  0
   57.6640   30.9570   44.1470 C   0  0  0  0  0  0  0  0  0  0  0  0
   56.2750   30.8470   44.2750 C   0  0  0  0  0  0  0  0  0  0  0  0
   55.6960   29.6620   44.7380 C   0  0  0  0  0  0  0  0  0  0  0  0
   56.4960   28.5560   45.0450 C   0  0  0  0  0  0  0  0  0  0  0  0
   55.8850   27.3930   45.6170 N   0  0  0  0  0  0  0  0  0  0  0  0
   56.5520   26.4650   46.4760 C   0  0  0  0  0  0  0  0  0  0  0  0
   55.9670   25.3960   46.7960 O   0  0  0  0  0  0  0  0  0  0  0  0
   57.9360   26.7080   46.9160 C   0  0  0  0  0  0  0  0  0  0  0  0
   59.0300   26.0060   46.4140 C   0  0  0  0  0  0  0  0  0  0  0  0
   60.4230   26.6860   47.0650 S   0  0  0  0  0  0  0  0  0  0  0  0
   59.5780   27.8320   47.9590 C   0  0  0  0  0  0  0  0  0  0  0  0
   60.2100   28.9100   48.7780 C   0  0  0  0  0  0  0  0  0  0  0  0
   59.5000   30.5050   48.4150 S   0  0  0  0  0  0  0  0  0  0  0  0
   58.4160   30.3660   47.3820 O   0  0  0  0  0  0  0  0  0  0  0  0
   58.8700   31.0390   49.6710 O   0  0  0  0  0  0  0  0  0  0  0  0
   60.7660   31.6340   47.8970 C   0  0  0  0  0  0  0  0  0  0  0  0
   62.0610   31.1170   47.7290 C   0  0  0  0  0  0  0  0  0  0  0  0
   63.1230   31.9500   47.3780 C   0  0  0  0  0  0  0  0  0  0  0  0
   62.9100   33.3150   47.2020 C   0  0  0  0  0  0  0  0  0  0  0  0
   61.6280   33.8450   47.3490 C   0  0  0  0  0  0  0  0  0  0  0  0
   60.5370   33.0160   47.6620 C   0  0  0  0  0  0  0  0  0  0  0  0
   59.1720   33.6390   47.7680 C   0  0  0  0  0  0  0  0  0  0  0  0
   58.2450   27.7190   47.7730 N   0  0  0  0  0  0  0  0  0  0  0  0
   57.8890   28.6480   44.8810 C   0  0  0  0  0  0  0  0  0  0  0  0
   58.4700   29.8430   44.4480 C   0  0  0  0  0  0  0  0  0  0  0  0
   59.4629   34.2771   45.6566 H   0  0  0  0  0  0  0  0  0  0  0  0
   60.0816   33.5939   44.1148 H   0  0  0  0  0  0  0  0  0  0  0  0
   59.2052   35.1619   44.1148 H   0  0  0  0  0  0  0  0  0  0  0  0
   57.4779   33.2517   45.3546 H   0  0  0  0  0  0  0  0  0  0  0  0
   57.2819   34.0423   43.7536 H   0  0  0  0  0  0  0  0  0  0  0  0
   55.6334   31.7000   44.0091 H   0  0  0  0  0  0  0  0  0  0  0  0
   54.6048   29.5986   44.8617 H   0  0  0  0  0  0  0  0  0  0  0  0
   58.9894   25.1572   45.7155 H   0  0  0  0  0  0  0  0  0  0  0  0
   60.0581   28.6850   49.8440 H   0  0  0  0  0  0  0  0  0  0  0  0
   61.2823   28.9453   48.5350 H   0  0  0  0  0  0  0  0  0  0  0  0
   62.2398   30.0417   47.8761 H   0  0  0  0  0  0  0  0  0  0  0  0
   64.1297   31.5286   47.2401 H   0  0  0  0  0  0  0  0  0  0  0  0
   63.7523   33.9750   46.9472 H   0  0  0  0  0  0  0  0  0  0  0  0
   61.4689   34.9256   47.2183 H   0  0  0  0  0  0  0  0  0  0  0  0
   58.9058   33.7605   48.8284 H   0  0  0  0  0  0  0  0  0  0  0  0
   59.1789   34.6231   47.2766 H   0  0  0  0  0  0  0  0  0  0  0  0
   58.4331   32.9890   47.2766 H   0  0  0  0  0  0  0  0  0  0  0  0
   58.5244   27.7758   45.0944 H   0  0  0  0  0  0  0  0  0  0  0  0
   59.5626   29.9134   44.3419 H   0  0  0  0  0  0  0  0  0  0  0  0
  1  2  1  0
  2  3  1  0
  3  4  1  0
  4  5  2  0
  5  6  1  0
  6  7  2  0
  7  8  1  0
  8  9  1  0
  9 10  2  0
  9 11  1  0
 11 12  2  0
 12 13  1  0
 13 14  1  0
 14 15  1  0
 15 16  1  0
 16 17  2  0
 16 18  2  0
 16 19  1  0
 19 20  2  0
 20 21  1  0
 21 22  2  0
 22 23  1  0
 23 24  2  0
 24 25  1  0
 14 26  2  0
  7 27  1  0
 27 28  2  0
 28  4  1  0
 26 11  1  0
 24 19  1  0
  1 29  1  0
  1 30  1  0
  1 31  1  0
  2 32  1  0
  2 33  1  0
  5 34  1  0
  6 35  1  0
 12 36  1  0
 15 37  1  0
 15 38  1  0
 20 39  1  0
 21 40  1  0
 22 41  1  0
 23 42  1  0
 25 43  1  0
 25 44  1  0
 25 45  1  0
 27 46  1  0
 28 47  1  0
M  CHG  1   8  -1
M  END
>  <UniqueID>  (66) 
60

>  <SMILES>  (66) 
CCOc1ccc([N-]C(=O)c2csc(CS(=O)(=O)c3ccccc3C)n2)cc1

>  <Energy>  (66) 
75.3377813330728

>  <Genealogy>  (66) 
CCOc1ccc([N-]C(=O)c2csc(CS(=O)(=O)c3ccccc3C)n2)cc1 (protonated)
CCOc1ccc([N-]C(=O)c2csc(CS(=O)(=O)c3ccccc3C)n2)cc1 (3D coordinates assigned)
CCOc1ccc([N-]C(=O)c2csc(CS(=O)(=O)c3ccccc3C)n2)cc1 (optimized conformer: 75.3377813330728 kcal/mol)

>  <smiles>  (66) 
CCOc1ccc(NC(=O)c2csc(CS(=O)(=O)c3ccccc3C)n2)cc1

>  <score_type>  (66) 
oracle

>  <origin>  (66) 
adg

>  <m_score__min__energy>  (66) 
-10.460000000000001

>  <m_primary>  (66) 
energy

$$$$
66:0
     RDKit          3D

 40 42  0  0  0  0  0  0  0  0999 V2000
   61.9360   34.2080   49.3510 C   0  0  0  0  0  0  0  0  0  0  0  0
   60.6220   33.5810   49.0310 C   0  0  0  0  0  0  0  0  0  0  0  0
   59.6540   34.3100   48.6870 O   0  0  0  0  0  0  0  0  0  0  0  0
   60.5100   32.1530   49.0110 N   0  0  0  0  0  0  0  0  0  0  0  0
   59.8280   31.3340   49.9740 C   0  0  0  0  0  0  0  0  0  0  0  0
   60.4940   30.3010   50.6570 C   0  0  0  0  0  0  0  0  0  0  0  0
   59.8110   29.5080   51.5770 C   0  0  0  0  0  0  0  0  0  0  0  0
   58.4530   29.7200   51.8150 C   0  0  0  0  0  0  0  0  0  0  0  0
   57.7560   30.7200   51.1150 C   0  0  0  0  0  0  0  0  0  0  0  0
   56.3560   30.9510   51.3650 N   0  0  0  0  0  0  0  0  0  0  0  0
   55.6030   30.2670   52.3820 C   0  0  0  0  0  0  0  0  0  0  0  0
   56.2790   29.5740   53.4030 C   0  0  0  0  0  0  0  0  0  0  0  0
   55.5680   28.8760   54.3800 C   0  0  0  0  0  0  0  0  0  0  0  0
   54.1740   28.8500   54.3450 C   0  0  0  0  0  0  0  0  0  0  0  0
   53.4860   28.1650   55.2920 F   0  0  0  0  0  0  0  0  0  0  0  0
   53.4870   29.5220   53.3320 C   0  0  0  0  0  0  0  0  0  0  0  0
   54.1860   30.2370   52.3440 C   0  0  0  0  0  0  0  0  0  0  0  0
   53.4020   30.9430   51.2640 C   0  0  0  0  0  0  0  0  0  0  0  0
   52.1560   31.5500   51.8330 C   0  0  0  0  0  0  0  0  0  0  0  0
   51.7810   31.4420   53.1200 N   0  0  0  0  0  0  0  0  0  0  0  0
   50.6520   32.1810   53.1780 C   0  0  0  0  0  0  0  0  0  0  0  0
   49.9900   32.3240   54.2390 O   0  0  0  0  0  0  0  0  0  0  0  0
   50.2890   32.7580   52.0120 N   0  0  0  0  0  0  0  0  0  0  0  0
   51.2550   32.3510   51.1730 C   0  0  0  0  0  0  0  0  0  0  0  0
   51.3120   32.7060   49.8310 O   0  0  0  0  0  0  0  0  0  0  0  0
   58.4490   31.5310   50.1950 C   0  0  0  0  0  0  0  0  0  0  0  0
   57.7520   32.5280   49.5080 O   0  0  0  0  0  0  0  0  0  0  0  0
   62.0583   34.2663   50.4426 H   0  0  0  0  0  0  0  0  0  0  0  0
   62.7465   33.5996   48.9233 H   0  0  0  0  0  0  0  0  0  0  0  0
   61.9729   35.2208   48.9233 H   0  0  0  0  0  0  0  0  0  0  0  0
   61.5613   30.1177   50.4638 H   0  0  0  0  0  0  0  0  0  0  0  0
   60.3445   28.7122   52.1174 H   0  0  0  0  0  0  0  0  0  0  0  0
   57.9244   29.1010   52.5549 H   0  0  0  0  0  0  0  0  0  0  0  0
   55.8530   31.6320   50.7550 H   0  0  0  0  0  0  0  0  0  0  0  0
   57.3786   29.5825   53.4313 H   0  0  0  0  0  0  0  0  0  0  0  0
   56.1075   28.3457   55.1786 H   0  0  0  0  0  0  0  0  0  0  0  0
   52.3877   29.4916   53.3069 H   0  0  0  0  0  0  0  0  0  0  0  0
   54.0240   31.7371   50.8253 H   0  0  0  0  0  0  0  0  0  0  0  0
   53.1213   30.2116   50.4918 H   0  0  0  0  0  0  0  0  0  0  0  0
   58.1710   33.0720   48.7630 H   0  0  0  0  0  0  0  0  0  0  0  0
  1  2  1  0
  2  3  2  0
  2  4  1  0
  4  5  1  0
  5  6  2  0
  6  7  1  0
  7  8  2  0
  8  9  1  0
  9 10  1  0
 10 11  1  0
 11 12  2  0
 12 13  1  0
 13 14  2  0
 14 15  1  0
 14 16  1  0
 16 17  2  0
 17 18  1  0
 18 19  1  0
 19 20  1  0
 20 21  1  0
 21 22  2  0
 21 23  1  0
 23 24  1  0
 24 25  1  0
  9 26  2  0
 26 27  1  0
 26  5  1  0
 17 11  1  0
 24 19  2  0
  1 28  1  0
  1 29  1  0
  1 30  1  0
  6 31  1  0
  7 32  1  0
  8 33  1  0
 10 34  1  0
 12 35  1  0
 13 36  1  0
 16 37  1  0
 18 38  1  0
 18 39  1  0
 27 40  1  0
M  CHG  4   4  -1  20  -1  23  -1  25  -1
M  END
>  <UniqueID>  (67) 
61

>  <SMILES>  (67) 
CC(=O)[N-]c1cccc(Nc2ccc(F)cc2Cc2[n-]c(=O)[n-]c2[O-])c1O

>  <Energy>  (67) 
79.80147660205127

>  <Genealogy>  (67) 
CC(=O)[N-]c1cccc(Nc2ccc(F)cc2Cc2[n-]c(=O)[n-]c2[O-])c1O (protonated)
CC(=O)[N-]c1cccc(Nc2ccc(F)cc2Cc2[n-]c(=O)[n-]c2[O-])c1O (3D coordinates assigned)
CC(=O)[N-]c1cccc(Nc2ccc(F)cc2Cc2[n-]c(=O)[n-]c2[O-])c1O (optimized conformer: 79.80147660205127 kcal/mol)

>  <smiles>  (67) 
CC(=O)Nc1cccc(Nc2ccc(F)cc2Cc2[nH]c(=O)[nH]c2O)c1O

>  <score_type>  (67) 
oracle

>  <origin>  (67) 
adg

>  <m_score__min__energy>  (67) 
-16.68

>  <m_primary>  (67) 
energy

$$$$
67:0
     RDKit          3D

 48 50  0  0  0  0  0  0  0  0999 V2000
   58.4680   34.5350   44.2390 O   0  0  0  0  0  0  0  0  0  0  0  0
   58.3160   33.4230   44.8170 C   0  0  0  0  0  0  0  0  0  0  0  0
   57.7190   32.2830   44.0360 C   0  0  0  0  0  0  0  0  0  0  0  0
   56.7100   31.6050   44.8420 N   0  0  0  0  0  0  0  0  0  0  0  0
   56.4620   30.1940   44.7890 C   0  0  0  0  0  0  0  0  0  0  0  0
   55.3090   29.7900   44.4810 O   0  0  0  0  0  0  0  0  0  0  0  0
   57.5230   29.2050   45.0540 C   0  0  0  0  0  0  0  0  0  0  0  0
   58.8690   29.5940   44.9760 C   0  0  0  0  0  0  0  0  0  0  0  0
   59.8830   28.6750   45.2520 C   0  0  0  0  0  0  0  0  0  0  0  0
   59.5640   27.3680   45.6210 C   0  0  0  0  0  0  0  0  0  0  0  0
   58.2300   26.9770   45.7230 C   0  0  0  0  0  0  0  0  0  0  0  0
   57.2040   27.8910   45.4520 C   0  0  0  0  0  0  0  0  0  0  0  0
   55.8750   27.5050   45.6060 O   0  0  0  0  0  0  0  0  0  0  0  0
   58.7150   33.2790   46.2410 C   0  0  0  0  0  0  0  0  0  0  0  0
   57.8230   32.7660   47.2030 C   0  0  0  0  0  0  0  0  0  0  0  0
   58.1960   32.6980   48.5470 C   0  0  0  0  0  0  0  0  0  0  0  0
   59.4510   33.1540   48.9530 C   0  0  0  0  0  0  0  0  0  0  0  0
   60.3530   33.6690   48.0100 C   0  0  0  0  0  0  0  0  0  0  0  0
   61.6190   34.2260   48.3910 N   0  0  0  0  0  0  0  0  0  0  0  0
   63.1790   33.6810   47.8560 S   0  0  0  0  0  0  0  0  0  0  0  0
   63.6650   34.5120   46.7060 O   0  0  0  0  0  0  0  0  0  0  0  0
   64.1460   33.8360   48.9950 O   0  0  0  0  0  0  0  0  0  0  0  0
   63.1320   31.9530   47.4070 C   0  0  0  0  0  0  0  0  0  0  0  0
   62.1420   31.1950   48.2470 C   0  0  0  0  0  0  0  0  0  0  0  0
   61.1070   30.4650   47.6380 C   0  0  0  0  0  0  0  0  0  0  0  0
   60.2270   29.7040   48.4140 C   0  0  0  0  0  0  0  0  0  0  0  0
   60.3650   29.6760   49.8050 C   0  0  0  0  0  0  0  0  0  0  0  0
   61.3800   30.4160   50.4230 C   0  0  0  0  0  0  0  0  0  0  0  0
   62.2700   31.1680   49.6480 C   0  0  0  0  0  0  0  0  0  0  0  0
   59.9920   33.6970   46.6550 C   0  0  0  0  0  0  0  0  0  0  0  0
   57.2522   32.6734   43.1196 H   0  0  0  0  0  0  0  0  0  0  0  0
   58.5130   31.5686   43.7729 H   0  0  0  0  0  0  0  0  0  0  0  0
   59.1260   30.6264   44.6965 H   0  0  0  0  0  0  0  0  0  0  0  0
   60.9366   28.9824   45.1783 H   0  0  0  0  0  0  0  0  0  0  0  0
   60.3660   26.6453   45.8317 H   0  0  0  0  0  0  0  0  0  0  0  0
   57.9821   25.9466   46.0175 H   0  0  0  0  0  0  0  0  0  0  0  0
   55.1410   27.8960   45.0290 H   0  0  0  0  0  0  0  0  0  0  0  0
   56.8268   32.4169   46.8937 H   0  0  0  0  0  0  0  0  0  0  0  0
   57.4977   32.2833   49.2888 H   0  0  0  0  0  0  0  0  0  0  0  0
   59.7336   33.1095   50.0151 H   0  0  0  0  0  0  0  0  0  0  0  0
   62.8445   31.8658   46.3488 H   0  0  0  0  0  0  0  0  0  0  0  0
   64.1305   31.5238   47.5767 H   0  0  0  0  0  0  0  0  0  0  0  0
   60.9884   30.4924   46.5448 H   0  0  0  0  0  0  0  0  0  0  0  0
   59.4255   29.1269   47.9296 H   0  0  0  0  0  0  0  0  0  0  0  0
   59.6759   29.0724   50.4139 H   0  0  0  0  0  0  0  0  0  0  0  0
   61.4780   30.4063   51.5186 H   0  0  0  0  0  0  0  0  0  0  0  0
   63.0728   31.7402   50.1359 H   0  0  0  0  0  0  0  0  0  0  0  0
   60.7169   34.0504   45.9069 H   0  0  0  0  0  0  0  0  0  0  0  0
  1  2  2  0
  2  3  1  0
  3  4  1  0
  4  5  1  0
  5  6  2  0
  5  7  1  0
  7  8  2  0
  8  9  1  0
  9 10  2  0
 10 11  1  0
 11 12  2  0
 12 13  1  0
  2 14  1  0
 14 15  2  0
 15 16  1  0
 16 17  2  0
 17 18  1  0
 18 19  1  0
 19 20  1  0
 20 21  2  0
 20 22  2  0
 20 23  1  0
 23 24  1  0
 24 25  2  0
 25 26  1  0
 26 27  2  0
 27 28  1  0
 28 29  2  0
 18 30  2  0
 12  7  1  0
 30 14  1  0
 29 24  1  0
  3 31  1  0
  3 32  1  0
  8 33  1  0
  9 34  1  0
 10 35  1  0
 11 36  1  0
 13 37  1  0
 15 38  1  0
 16 39  1  0
 17 40  1  0
 23 41  1  0
 23 42  1  0
 25 43  1  0
 26 44  1  0
 27 45  1  0
 28 46  1  0
 29 47  1  0
 30 48  1  0
M  CHG  2   4  -1  19  -1
M  END
>  <UniqueID>  (68) 
62

>  <SMILES>  (68) 
O=C(C[N-]C(=O)c1ccccc1O)c1cccc([N-]S(=O)(=O)Cc2ccccc2)c1

>  <Energy>  (68) 
54.72770710842144

>  <Genealogy>  (68) 
O=C(C[N-]C(=O)c1ccccc1O)c1cccc([N-]S(=O)(=O)Cc2ccccc2)c1 (protonated)
O=C(C[N-]C(=O)c1ccccc1O)c1cccc([N-]S(=O)(=O)Cc2ccccc2)c1 (3D coordinates assigned)
O=C(C[N-]C(=O)c1ccccc1O)c1cccc([N-]S(=O)(=O)Cc2ccccc2)c1 (optimized conformer: 54.72770710842144 kcal/mol)

>  <smiles>  (68) 
O=C(CNC(=O)c1ccccc1O)c1cccc(NS(=O)(=O)Cc2ccccc2)c1

>  <score_type>  (68) 
oracle

>  <origin>  (68) 
adg

>  <m_score__min__energy>  (68) 
-12.44

>  <m_primary>  (68) 
energy

$$$$
68:0
     RDKit          3D

 52 55  0  0  0  0  0  0  0  0999 V2000
   58.0840   26.0250   47.3380 O   0  0  0  0  0  0  0  0  0  0  0  0
   57.2320   26.1590   46.4190 C   0  0  0  0  0  0  0  0  0  0  0  0
   57.0440   27.4350   45.7810 N   0  0  0  0  0  0  0  0  0  0  0  0
   57.7860   28.6200   46.1160 C   0  0  0  0  0  0  0  0  0  0  0  0
   58.8460   28.5300   47.0300 C   0  0  0  0  0  0  0  0  0  0  0  0
   59.5690   29.6690   47.3900 C   0  0  0  0  0  0  0  0  0  0  0  0
   59.2370   30.9240   46.8530 C   0  0  0  0  0  0  0  0  0  0  0  0
   59.9720   32.1020   47.2390 N   0  0  0  0  0  0  0  0  0  0  0  0
   59.3880   33.0360   48.2150 C   0  0  0  0  0  0  0  0  0  0  0  0
   60.4240   34.0580   48.7010 C   0  0  0  0  0  0  0  0  0  0  0  0
   61.7050   33.3850   48.9630 N   0  0  0  0  0  0  0  0  0  0  0  0
   62.2640   33.3920   50.2890 C   0  0  0  0  0  0  0  0  0  0  0  0
   61.4950   33.3490   51.2880 O   0  0  0  0  0  0  0  0  0  0  0  0
   63.7270   33.4290   50.5100 C   0  0  0  0  0  0  0  0  0  0  0  0
   64.5630   32.5160   49.8460 C   0  0  0  0  0  0  0  0  0  0  0  0
   65.9470   32.5450   50.0530 C   0  0  0  0  0  0  0  0  0  0  0  0
   66.5050   33.4740   50.9360 C   0  0  0  0  0  0  0  0  0  0  0  0
   68.2410   33.5140   51.1880 Cl  0  0  0  0  0  0  0  0  0  0  0  0
   65.6770   34.3710   51.6180 C   0  0  0  0  0  0  0  0  0  0  0  0
   64.2940   34.3450   51.4120 C   0  0  0  0  0  0  0  0  0  0  0  0
   62.2900   32.5100   47.9300 C   0  0  0  0  0  0  0  0  0  0  0  0
   61.3370   32.3300   46.7440 C   0  0  0  0  0  0  0  0  0  0  0  0
   58.1530   31.0190   45.9660 C   0  0  0  0  0  0  0  0  0  0  0  0
   57.4300   29.8780   45.6020 C   0  0  0  0  0  0  0  0  0  0  0  0
   56.4350   24.9830   46.0060 C   0  0  0  0  0  0  0  0  0  0  0  0
   57.0310   23.7080   46.0280 C   0  0  0  0  0  0  0  0  0  0  0  0
   56.3040   22.5810   45.6360 C   0  0  0  0  0  0  0  0  0  0  0  0
   54.9760   22.7090   45.2290 C   0  0  0  0  0  0  0  0  0  0  0  0
   54.3650   23.9670   45.2230 C   0  0  0  0  0  0  0  0  0  0  0  0
   55.0830   25.1000   45.6210 C   0  0  0  0  0  0  0  0  0  0  0  0
   54.4300   26.3290   45.6600 O   0  0  0  0  0  0  0  0  0  0  0  0
   56.2890   27.5320   45.0650 H   0  0  0  0  0  0  0  0  0  0  0  0
   59.1096   27.5553   47.4663 H   0  0  0  0  0  0  0  0  0  0  0  0
   60.4051   29.5830   48.0996 H   0  0  0  0  0  0  0  0  0  0  0  0
   58.5517   33.5715   47.7418 H   0  0  0  0  0  0  0  0  0  0  0  0
   59.0396   32.4568   49.0828 H   0  0  0  0  0  0  0  0  0  0  0  0
   60.5675   34.8277   47.9284 H   0  0  0  0  0  0  0  0  0  0  0  0
   60.0639   34.5259   49.6291 H   0  0  0  0  0  0  0  0  0  0  0  0
   64.1278   31.7745   49.1599 H   0  0  0  0  0  0  0  0  0  0  0  0
   66.5968   31.8354   49.5198 H   0  0  0  0  0  0  0  0  0  0  0  0
   66.1143   35.0984   52.3178 H   0  0  0  0  0  0  0  0  0  0  0  0
   63.6464   35.0457   51.9593 H   0  0  0  0  0  0  0  0  0  0  0  0
   63.2279   32.9584   47.5705 H   0  0  0  0  0  0  0  0  0  0  0  0
   62.4756   31.5225   48.3776 H   0  0  0  0  0  0  0  0  0  0  0  0
   61.3537   33.2358   46.1201 H   0  0  0  0  0  0  0  0  0  0  0  0
   61.6579   31.4648   46.1453 H   0  0  0  0  0  0  0  0  0  0  0  0
   57.8698   31.9987   45.5538 H   0  0  0  0  0  0  0  0  0  0  0  0
   56.5792   29.9663   44.9104 H   0  0  0  0  0  0  0  0  0  0  0  0
   58.0753   23.5982   46.3557 H   0  0  0  0  0  0  0  0  0  0  0  0
   56.7805   21.5896   45.6484 H   0  0  0  0  0  0  0  0  0  0  0  0
   54.4094   21.8207   44.9128 H   0  0  0  0  0  0  0  0  0  0  0  0
   53.3168   24.0660   44.9044 H   0  0  0  0  0  0  0  0  0  0  0  0
  1  2  2  0
  2  3  1  0
  3  4  1  0
  4  5  2  0
  5  6  1  0
  6  7  2  0
  7  8  1  0
  8  9  1  0
  9 10  1  0
 10 11  1  0
 11 12  1  0
 12 13  2  0
 12 14  1  0
 14 15  2  0
 15 16  1  0
 16 17  2  0
 17 18  1  0
 17 19  1  0
 19 20  2  0
 11 21  1  0
 21 22  1  0
  7 23  1  0
 23 24  2  0
  2 25  1  0
 25 26  2  0
 26 27  1  0
 27 28  2  0
 28 29  1  0
 29 30  2  0
 30 31  1  0
 24  4  1  0
 30 25  1  0
 22  8  1  0
 20 14  1  0
  3 32  1  0
  5 33  1  0
  6 34  1  0
  9 35  1  0
  9 36  1  0
 10 37  1  0
 10 38  1  0
 15 39  1  0
 16 40  1  0
 19 41  1  0
 20 42  1  0
 21 43  1  0
 21 44  1  0
 22 45  1  0
 22 46  1  0
 23 47  1  0
 24 48  1  0
 26 49  1  0
 27 50  1  0
 28 51  1  0
 29 52  1  0
M  CHG  1  31  -1
M  END
>  <UniqueID>  (69) 
63

>  <SMILES>  (69) 
O=C(Nc1ccc(N2CCN(C(=O)c3ccc(Cl)cc3)CC2)cc1)c1ccccc1[O-]

>  <Energy>  (69) 
75.27402148743171

>  <Genealogy>  (69) 
O=C(Nc1ccc(N2CCN(C(=O)c3ccc(Cl)cc3)CC2)cc1)c1ccccc1[O-] (protonated)
O=C(Nc1ccc(N2CCN(C(=O)c3ccc(Cl)cc3)CC2)cc1)c1ccccc1[O-] (3D coordinates assigned)
O=C(Nc1ccc(N2CCN(C(=O)c3ccc(Cl)cc3)CC2)cc1)c1ccccc1[O-] (nonaromatic ring conformer: 75.27402148743171 kcal/mol)

>  <smiles>  (69) 
O=C(Nc1ccc(N2CCN(C(=O)c3ccc(Cl)cc3)CC2)cc1)c1ccccc1O

>  <score_type>  (69) 
oracle

>  <origin>  (69) 
adg

>  <m_score__min__energy>  (69) 
-12.529999999999999

>  <m_primary>  (69) 
energy

$$$$
69:0
     RDKit          3D

 26 27  0  0  0  0  0  0  0  0999 V2000
   50.9720   27.3010   51.6000 N   0  0  0  0  0  0  0  0  0  0  0  0
   51.5020   27.6490   53.2110 S   0  0  0  0  0  0  0  0  0  0  0  0
   50.6870   28.7860   53.7590 O   0  0  0  0  0  0  0  0  0  0  0  0
   51.2880   26.4220   54.0540 O   0  0  0  0  0  0  0  0  0  0  0  0
   53.2160   28.0970   53.2020 C   0  0  0  0  0  0  0  0  0  0  0  0
   54.1200   27.2980   53.9220 C   0  0  0  0  0  0  0  0  0  0  0  0
   55.4700   27.6460   54.0000 C   0  0  0  0  0  0  0  0  0  0  0  0
   55.9340   28.7970   53.3650 C   0  0  0  0  0  0  0  0  0  0  0  0
   55.0530   29.5950   52.6340 C   0  0  0  0  0  0  0  0  0  0  0  0
   53.6960   29.2480   52.5270 C   0  0  0  0  0  0  0  0  0  0  0  0
   52.8230   30.1110   51.7090 C   0  0  0  0  0  0  0  0  0  0  0  0
   52.3150   31.3110   52.2170 C   0  0  0  0  0  0  0  0  0  0  0  0
   51.4760   32.0790   51.4080 C   0  0  0  0  0  0  0  0  0  0  0  0
   51.0150   33.1670   51.8430 O   0  0  0  0  0  0  0  0  0  0  0  0
   51.1560   31.6490   50.1550 N   0  0  0  0  0  0  0  0  0  0  0  0
   50.3280   32.4110   49.3610 O   0  0  0  0  0  0  0  0  0  0  0  0
   51.6440   30.4660   49.6850 C   0  0  0  0  0  0  0  0  0  0  0  0
   51.3390   30.0650   48.5300 O   0  0  0  0  0  0  0  0  0  0  0  0
   52.4640   29.7100   50.4610 N   0  0  0  0  0  0  0  0  0  0  0  0
   51.3850   28.0330   50.9790 H   0  0  0  0  0  0  0  0  0  0  0  0
   51.4060   26.3920   51.3260 H   0  0  0  0  0  0  0  0  0  0  0  0
   53.7610   26.3901   54.4288 H   0  0  0  0  0  0  0  0  0  0  0  0
   56.1689   27.0106   54.5637 H   0  0  0  0  0  0  0  0  0  0  0  0
   56.9953   29.0764   53.4402 H   0  0  0  0  0  0  0  0  0  0  0  0
   55.4243   30.5035   52.1373 H   0  0  0  0  0  0  0  0  0  0  0  0
   52.5716   31.6429   53.2339 H   0  0  0  0  0  0  0  0  0  0  0  0
  1  2  1  0
  2  3  2  0
  2  4  2  0
  2  5  1  0
  5  6  2  0
  6  7  1  0
  7  8  2  0
  8  9  1  0
  9 10  2  0
 10 11  1  0
 11 12  2  0
 12 13  1  0
 13 14  2  0
 13 15  1  0
 15 16  1  0
 15 17  1  0
 17 18  2  0
 17 19  1  0
 10  5  1  0
 19 11  1  0
  1 20  1  0
  1 21  1  0
  6 22  1  0
  7 23  1  0
  8 24  1  0
  9 25  1  0
 12 26  1  0
M  CHG  2  16  -1  19  -1
M  END
>  <UniqueID>  (70) 
64

>  <SMILES>  (70) 
NS(=O)(=O)c1ccccc1-c1cc(=O)n([O-])c(=O)[n-]1

>  <Energy>  (70) 
35.702926388743975

>  <Genealogy>  (70) 
NS(=O)(=O)c1ccccc1-c1cc(=O)n([O-])c(=O)[n-]1 (protonated)
NS(=O)(=O)c1ccccc1-c1cc(=O)n([O-])c(=O)[n-]1 (3D coordinates assigned)
NS(=O)(=O)c1ccccc1-c1cc(=O)n([O-])c(=O)[n-]1 (optimized conformer: 35.702926388743975 kcal/mol)

>  <smiles>  (70) 
NS(=O)(=O)c1ccccc1-c1cc(=O)n(O)c(=O)[nH]1

>  <score_type>  (70) 
oracle

>  <origin>  (70) 
adg

>  <m_score__min__energy>  (70) 
-13.27

>  <m_primary>  (70) 
energy

$$$$
70:0
     RDKit          3D

 65 67  0  0  0  0  0  0  0  0999 V2000
   58.2900   32.7030   41.1270 C   0  0  0  0  0  0  0  0  0  0  0  0
   58.2850   32.5150   42.5390 O   0  0  0  0  0  0  0  0  0  0  0  0
   57.6810   31.4290   43.1930 C   0  0  0  0  0  0  0  0  0  0  0  0
   56.5980   30.7220   42.6380 C   0  0  0  0  0  0  0  0  0  0  0  0
   56.0200   29.6560   43.3350 C   0  0  0  0  0  0  0  0  0  0  0  0
   56.5190   29.2640   44.5830 C   0  0  0  0  0  0  0  0  0  0  0  0
   55.8720   28.1680   45.2530 N   0  0  0  0  0  0  0  0  0  0  0  0
   56.4580   27.0530   45.9440 C   0  0  0  0  0  0  0  0  0  0  0  0
   55.7470   26.1170   46.3990 O   0  0  0  0  0  0  0  0  0  0  0  0
   57.9290   27.0590   46.2200 C   0  0  0  0  0  0  0  0  0  0  0  0
   58.2190   27.7960   47.4480 N   0  0  0  0  0  0  0  0  0  0  0  0
   59.5130   27.9610   48.0470 C   0  0  0  0  0  0  0  0  0  0  0  0
   60.3610   27.0410   47.8930 O   0  0  0  0  0  0  0  0  0  0  0  0
   59.9060   29.2300   48.7830 C   0  0  1  0  0  0  0  0  0  0  0  0
   59.5690   30.5010   47.9680 C   0  0  0  0  0  0  0  0  0  0  0  0
   60.7570   31.0210   47.1940 C   0  0  0  0  0  0  0  0  0  0  0  0
   61.2900   30.2610   46.3380 O   0  0  0  0  0  0  0  0  0  0  0  0
   61.3620   32.3030   47.4800 N   0  0  0  0  0  0  0  0  0  0  0  0
   62.8000   32.5140   47.2840 C   0  0  0  0  0  0  0  0  0  0  0  0
   60.5280   33.3930   48.0080 C   0  0  0  0  0  0  0  0  0  0  0  0
   59.3880   33.6790   47.0550 C   0  0  0  0  0  0  0  0  0  0  0  0
   59.7060   34.2970   45.8320 C   0  0  0  0  0  0  0  0  0  0  0  0
   58.7140   34.5590   44.8840 C   0  0  0  0  0  0  0  0  0  0  0  0
   57.3930   34.1980   45.1380 C   0  0  0  0  0  0  0  0  0  0  0  0
   57.0580   33.5810   46.3430 C   0  0  0  0  0  0  0  0  0  0  0  0
   58.0370   33.3110   47.3090 C   0  0  0  0  0  0  0  0  0  0  0  0
   57.6190   32.6930   48.4890 O   0  0  0  0  0  0  0  0  0  0  0  0
   59.2840   29.2660   50.1990 C   0  0  0  0  0  0  0  0  0  0  0  0
   59.0620   30.6600   50.7390 C   0  0  0  0  0  0  0  0  0  0  0  0
   60.1420   31.5490   50.8800 C   0  0  0  0  0  0  0  0  0  0  0  0
   59.9340   32.8350   51.3890 C   0  0  0  0  0  0  0  0  0  0  0  0
   58.6480   33.2430   51.7590 C   0  0  0  0  0  0  0  0  0  0  0  0
   57.5710   32.3680   51.6180 C   0  0  0  0  0  0  0  0  0  0  0  0
   57.7730   31.0830   51.1060 C   0  0  0  0  0  0  0  0  0  0  0  0
   57.5970   29.9760   45.1410 C   0  0  0  0  0  0  0  0  0  0  0  0
   58.1730   31.0450   44.4460 C   0  0  0  0  0  0  0  0  0  0  0  0
   58.3186   33.7790   40.9005 H   0  0  0  0  0  0  0  0  0  0  0  0
   59.1754   32.2137   40.6951 H   0  0  0  0  0  0  0  0  0  0  0  0
   57.3798   32.2615   40.6951 H   0  0  0  0  0  0  0  0  0  0  0  0
   56.2044   31.0090   41.6518 H   0  0  0  0  0  0  0  0  0  0  0  0
   55.1645   29.1201   42.8981 H   0  0  0  0  0  0  0  0  0  0  0  0
   58.2806   26.0224   46.3290 H   0  0  0  0  0  0  0  0  0  0  0  0
   58.4451   27.5498   45.3817 H   0  0  0  0  0  0  0  0  0  0  0  0
   60.9994   29.2184   48.9026 H   0  0  0  0  0  0  0  0  0  0  0  0
   58.7625   30.2624   47.2590 H   0  0  0  0  0  0  0  0  0  0  0  0
   59.2632   31.2833   48.6783 H   0  0  0  0  0  0  0  0  0  0  0  0
   63.2967   32.5869   48.2628 H   0  0  0  0  0  0  0  0  0  0  0  0
   63.2214   31.6681   46.7211 H   0  0  0  0  0  0  0  0  0  0  0  0
   62.9606   33.4453   46.7211 H   0  0  0  0  0  0  0  0  0  0  0  0
   60.1201   33.0988   48.9863 H   0  0  0  0  0  0  0  0  0  0  0  0
   61.1432   34.2983   48.1179 H   0  0  0  0  0  0  0  0  0  0  0  0
   60.7483   34.5773   45.6196 H   0  0  0  0  0  0  0  0  0  0  0  0
   58.9765   35.0510   43.9358 H   0  0  0  0  0  0  0  0  0  0  0  0
   56.6139   34.3996   44.3881 H   0  0  0  0  0  0  0  0  0  0  0  0
   56.0118   33.3026   46.5379 H   0  0  0  0  0  0  0  0  0  0  0  0
   56.6820   32.7490   48.8630 H   0  0  0  0  0  0  0  0  0  0  0  0
   58.3129   28.7505   50.1632 H   0  0  0  0  0  0  0  0  0  0  0  0
   60.0007   28.7745   50.8734 H   0  0  0  0  0  0  0  0  0  0  0  0
   61.1543   31.2320   50.5889 H   0  0  0  0  0  0  0  0  0  0  0  0
   60.7825   33.5264   51.4985 H   0  0  0  0  0  0  0  0  0  0  0  0
   58.4862   34.2540   52.1612 H   0  0  0  0  0  0  0  0  0  0  0  0
   56.5605   32.6898   51.9103 H   0  0  0  0  0  0  0  0  0  0  0  0
   56.9189   30.3996   50.9898 H   0  0  0  0  0  0  0  0  0  0  0  0
   57.9887   29.6907   46.1285 H   0  0  0  0  0  0  0  0  0  0  0  0
   59.0206   31.5889   44.8884 H   0  0  0  0  0  0  0  0  0  0  0  0
  1  2  1  0
  2  3  1  0
  3  4  2  0
  4  5  1  0
  5  6  2  0
  6  7  1  0
  7  8  1  0
  8  9  2  0
  8 10  1  0
 10 11  1  0
 11 12  1  0
 12 13  2  0
 12 14  1  0
 14 15  1  0
 15 16  1  0
 16 17  2  0
 16 18  1  0
 18 19  1  0
 18 20  1  0
 20 21  1  0
 21 22  2  0
 22 23  1  0
 23 24  2  0
 24 25  1  0
 25 26  2  0
 26 27  1  0
 14 28  1  0
 28 29  1  0
 29 30  2  0
 30 31  1  0
 31 32  2  0
 32 33  1  0
 33 34  2  0
  6 35  1  0
 35 36  2  0
 36  3  1  0
 26 21  1  0
 34 29  1  0
  1 37  1  0
  1 38  1  0
  1 39  1  0
  4 40  1  0
  5 41  1  0
 10 42  1  0
 10 43  1  0
 14 44  1  1
 15 45  1  0
 15 46  1  0
 19 47  1  0
 19 48  1  0
 19 49  1  0
 20 50  1  0
 20 51  1  0
 22 52  1  0
 23 53  1  0
 24 54  1  0
 25 55  1  0
 27 56  1  0
 28 57  1  0
 28 58  1  0
 30 59  1  0
 31 60  1  0
 32 61  1  0
 33 62  1  0
 34 63  1  0
 35 64  1  0
 36 65  1  0
M  CHG  2   7  -1  11  -1
M  END
>  <UniqueID>  (71) 
65

>  <SMILES>  (71) 
COc1ccc([N-]C(=O)C[N-]C(=O)[C@@H](CC(=O)N(C)Cc2ccccc2O)Cc2ccccc2)cc1

>  <Energy>  (71) 
65.04338218133158

>  <Genealogy>  (71) 
COc1ccc([N-]C(=O)C[N-]C(=O)C(CC(=O)N(C)Cc2ccccc2O)Cc2ccccc2)cc1 (protonated)
COc1ccc([N-]C(=O)C[N-]C(=O)[C@@H](CC(=O)N(C)Cc2ccccc2O)Cc2ccccc2)cc1 (chirality)
COc1ccc([N-]C(=O)C[N-]C(=O)[C@@H](CC(=O)N(C)Cc2ccccc2O)Cc2ccccc2)cc1 (3D coordinates assigned)
COc1ccc([N-]C(=O)C[N-]C(=O)[C@@H](CC(=O)N(C)Cc2ccccc2O)Cc2ccccc2)cc1 (optimized conformer: 65.04338218133158 kcal/mol)

>  <smiles>  (71) 
COc1ccc(NC(=O)CNC(=O)C(CC(=O)N(C)Cc2ccccc2O)Cc2ccccc2)cc1

>  <score_type>  (71) 
oracle

>  <origin>  (71) 
adg

>  <m_score__min__energy>  (71) 
-11.99

>  <m_primary>  (71) 
energy

$$$$
71:0
     RDKit          3D

 36 38  0  0  0  0  0  0  0  0999 V2000
   56.8515   35.0593   46.2711 H   0  0  0  0  0  0  0  0  0  0  0  0
   57.3120   34.2540   45.6800 C   0  0  0  0  0  0  0  0  0  0  0  0
   56.8900   33.0170   45.6200 C   0  0  0  0  0  0  0  0  0  0  0  0
   56.0207   32.6084   46.1561 H   0  0  0  0  0  0  0  0  0  0  0  0
   57.7810   32.2570   44.7070 C   0  0  2  0  0  0  0  0  0  0  0  0
   57.2489   32.0005   43.7791 H   0  0  0  0  0  0  0  0  0  0  0  0
   58.2070   30.9690   45.3100 N   0  0  0  0  0  0  0  0  0  0  0  0
   57.5420   29.8060   45.0020 C   0  0  0  0  0  0  0  0  0  0  0  0
   56.5680   29.8400   44.1970 O   0  0  0  0  0  0  0  0  0  0  0  0
   57.9530   28.5600   45.5480 C   0  0  0  0  0  0  0  0  0  0  0  0
   57.3880   27.4180   45.0610 C   0  0  0  0  0  0  0  0  0  0  0  0
   57.0807   27.4286   44.0048 H   0  0  0  0  0  0  0  0  0  0  0  0
   57.1470   26.1640   45.8140 C   0  0  0  0  0  0  0  0  0  0  0  0
   55.8520   25.8450   46.2480 C   0  0  0  0  0  0  0  0  0  0  0  0
   54.7930   26.7160   46.0210 O   0  0  0  0  0  0  0  0  0  0  0  0
   55.6250   24.6800   46.9100 N   0  0  0  0  0  0  0  0  0  0  0  0
   56.6310   23.8020   47.1470 C   0  0  0  0  0  0  0  0  0  0  0  0
   56.3280   22.4120   47.9480 S   0  0  0  0  0  0  0  0  0  0  0  0
   57.8870   24.0710   46.7090 N   0  0  0  0  0  0  0  0  0  0  0  0
   58.1660   25.2200   46.0420 C   0  0  0  0  0  0  0  0  0  0  0  0
   59.3370   25.4200   45.6230 O   0  0  0  0  0  0  0  0  0  0  0  0
   58.9650   28.5990   46.5530 C   0  0  0  0  0  0  0  0  0  0  0  0
   59.2250   27.5700   47.3830 C   0  0  0  0  0  0  0  0  0  0  0  0
   58.7120   26.6071   47.2427 H   0  0  0  0  0  0  0  0  0  0  0  0
   59.9502   27.6928   48.2009 H   0  0  0  0  0  0  0  0  0  0  0  0
   59.6300   29.7670   46.7750 N   0  0  0  0  0  0  0  0  0  0  0  0
   60.4110   29.8030   47.4710 H   0  0  0  0  0  0  0  0  0  0  0  0
   59.2700   30.9290   46.1750 C   0  0  0  0  0  0  0  0  0  0  0  0
   59.9130   31.9780   46.4510 O   0  0  0  0  0  0  0  0  0  0  0  0
   58.8970   33.0850   44.4340 O   0  0  0  0  0  0  0  0  0  0  0  0
   58.5150   34.3930   44.8190 C   0  0  2  0  0  0  0  0  0  0  0  0
   58.2874   35.0149   43.9407 H   0  0  0  0  0  0  0  0  0  0  0  0
   59.6530   35.0870   45.5620 C   0  0  0  0  0  0  0  0  0  0  0  0
   59.4953   34.9908   46.6464 H   0  0  0  0  0  0  0  0  0  0  0  0
   60.6096   34.6184   45.2876 H   0  0  0  0  0  0  0  0  0  0  0  0
   59.6744   36.1520   45.2876 H   0  0  0  0  0  0  0  0  0  0  0  0
  1  2  1  0
  2  3  2  0
  3  4  1  0
  3  5  1  0
  5  6  1  6
  5  7  1  0
  7  8  1  0
  8  9  2  0
  8 10  1  0
 10 11  2  0
 11 12  1  0
 11 13  1  0
 13 14  2  0
 14 15  1  0
 14 16  1  0
 16 17  1  0
 17 18  2  0
 17 19  1  0
 19 20  1  0
 20 21  2  0
 10 22  1  0
 22 23  2  0
 23 24  1  0
 23 25  1  0
 22 26  1  0
 26 27  1  0
 26 28  1  0
 28 29  2  0
  5 30  1  0
 30 31  1  0
 31 32  1  6
 31 33  1  0
 33 34  1  0
 33 35  1  0
 33 36  1  0
 31  2  1  0
 28  7  1  0
 20 13  1  0
M  CHG  3  15  -1  16  -1  19  -1
M  END
>  <UniqueID>  (72) 
66

>  <SMILES>  (72) 
C=c1[nH]c(=O)n([C@H]2C=C[C@@H](C)O2)c(=O)/c1=C/c1c([O-])[n-]c(=S)[n-]c1=O

>  <Energy>  (72) 
74.18578558562506

>  <Genealogy>  (72) 
C=c1[nH]c(=O)n(C2C=CC(C)O2)c(=O)c1=Cc1c([O-])[n-]c(=S)[n-]c1=O (protonated)
C=c1[nH]c(=O)n([C@H]2C=C[C@@H](C)O2)c(=O)c1=Cc1c([O-])[n-]c(=S)[n-]c1=O (chirality)
C=c1[nH]c(=O)n([C@H]2C=C[C@@H](C)O2)c(=O)/c1=C/c1c([O-])[n-]c(=S)[n-]c1=O (cis-trans isomerization)
C=c1[nH]c(=O)n([C@H]2C=C[C@@H](C)O2)c(=O)/c1=C/c1c([O-])[n-]c(=S)[n-]c1=O (3D coordinates assigned)
C=c1[nH]c(=O)n([C@H]2C=C[C@@H](C)O2)c(=O)/c1=C/c1c([O-])[n-]c(=S)[n-]c1=O (nonaromatic ring conformer: 74.18578558562506 kcal/mol)

>  <smiles>  (72) 
C=c1[nH]c(=O)n(C2C=CC(C)O2)c(=O)c1=Cc1c(O)[nH]c(=S)[nH]c1=O

>  <score_type>  (72) 
oracle

>  <origin>  (72) 
adg

>  <m_score__min__energy>  (72) 
-15.289999999999999

>  <m_primary>  (72) 
energy

$$$$
72:0
     RDKit          3D

 54 57  0  0  0  0  0  0  0  0999 V2000
   59.2990   34.3170   50.1630 O   0  0  0  0  0  0  0  0  0  0  0  0
   58.9570   33.1030   50.1780 C   0  0  0  0  0  0  0  0  0  0  0  0
   58.8250   32.3930   51.4890 C   0  0  0  0  0  0  0  0  0  0  0  0
   57.7220   30.9460   51.3320 S   0  0  0  0  0  0  0  0  0  0  0  0
   58.8940   29.9680   50.3970 C   0  0  0  0  0  0  0  0  0  0  0  0
   58.4880   29.3010   49.2850 N   0  0  0  0  0  0  0  0  0  0  0  0
   59.3620   28.5610   48.5520 C   0  0  0  0  0  0  0  0  0  0  0  0
   58.8700   27.8060   47.3520 C   0  0  0  0  0  0  0  0  0  0  0  0
   58.4870   28.7670   46.2610 C   0  0  0  0  0  0  0  0  0  0  0  0
   59.2320   29.9400   46.0540 C   0  0  0  0  0  0  0  0  0  0  0  0
   58.8970   30.8140   45.0160 C   0  0  0  0  0  0  0  0  0  0  0  0
   57.8200   30.5200   44.1710 C   0  0  0  0  0  0  0  0  0  0  0  0
   57.4030   31.6170   42.8680 Cl  0  0  0  0  0  0  0  0  0  0  0  0
   57.0820   29.3480   44.3650 C   0  0  0  0  0  0  0  0  0  0  0  0
   57.4160   28.4720   45.4020 C   0  0  0  0  0  0  0  0  0  0  0  0
   60.6980   28.4670   48.9600 C   0  0  0  0  0  0  0  0  0  0  0  0
   61.0950   29.1570   50.1070 C   0  0  0  0  0  0  0  0  0  0  0  0
   62.2890   29.0990   50.5000 O   0  0  0  0  0  0  0  0  0  0  0  0
   60.1890   29.8910   50.8020 N   0  0  0  0  0  0  0  0  0  0  0  0
   58.6470   32.4190   48.9560 N   0  0  0  0  0  0  0  0  0  0  0  0
   58.7710   33.0440   47.6720 C   0  0  0  0  0  0  0  0  0  0  0  0
   57.6070   33.3440   46.9500 C   0  0  0  0  0  0  0  0  0  0  0  0
   57.6870   33.9870   45.7130 C   0  0  0  0  0  0  0  0  0  0  0  0
   58.9300   34.3260   45.1800 C   0  0  0  0  0  0  0  0  0  0  0  0
   60.1000   34.0100   45.8770 C   0  0  0  0  0  0  0  0  0  0  0  0
   60.0360   33.3610   47.1210 C   0  0  0  0  0  0  0  0  0  0  0  0
   61.2570   32.9620   47.7720 N   0  0  0  0  0  0  0  0  0  0  0  0
   61.8070   31.6170   47.5890 C   0  0  0  0  0  0  0  0  0  0  0  0
   63.2980   31.7270   47.2550 C   0  0  0  0  0  0  0  0  0  0  0  0
   63.9740   32.5140   48.2210 O   0  0  0  0  0  0  0  0  0  0  0  0
   63.4920   33.8450   48.1860 C   0  0  0  0  0  0  0  0  0  0  0  0
   62.0190   33.8990   48.5990 C   0  0  0  0  0  0  0  0  0  0  0  0
   59.8188   32.0554   51.8183 H   0  0  0  0  0  0  0  0  0  0  0  0
   58.3942   33.0875   52.2252 H   0  0  0  0  0  0  0  0  0  0  0  0
   59.6670   27.1408   46.9882 H   0  0  0  0  0  0  0  0  0  0  0  0
   57.9887   27.2120   47.6356 H   0  0  0  0  0  0  0  0  0  0  0  0
   60.0827   30.1716   46.7118 H   0  0  0  0  0  0  0  0  0  0  0  0
   59.4802   31.7340   44.8627 H   0  0  0  0  0  0  0  0  0  0  0  0
   56.2371   29.1150   43.7003 H   0  0  0  0  0  0  0  0  0  0  0  0
   56.8373   27.5476   45.5457 H   0  0  0  0  0  0  0  0  0  0  0  0
   61.4189   27.8629   48.3895 H   0  0  0  0  0  0  0  0  0  0  0  0
   58.1420   31.5060   49.0140 H   0  0  0  0  0  0  0  0  0  0  0  0
   56.6239   33.0709   47.3609 H   0  0  0  0  0  0  0  0  0  0  0  0
   56.7679   34.2265   45.1582 H   0  0  0  0  0  0  0  0  0  0  0  0
   58.9901   34.8424   44.2106 H   0  0  0  0  0  0  0  0  0  0  0  0
   61.0784   34.2717   45.4478 H   0  0  0  0  0  0  0  0  0  0  0  0
   61.6786   31.0373   48.5150 H   0  0  0  0  0  0  0  0  0  0  0  0
   61.2795   31.1092   46.7681 H   0  0  0  0  0  0  0  0  0  0  0  0
   63.7390   30.7194   47.2382 H   0  0  0  0  0  0  0  0  0  0  0  0
   63.4042   32.2082   46.2715 H   0  0  0  0  0  0  0  0  0  0  0  0
   64.0839   34.4615   48.8785 H   0  0  0  0  0  0  0  0  0  0  0  0
   63.5852   34.2276   47.1589 H   0  0  0  0  0  0  0  0  0  0  0  0
   61.9226   33.6185   49.6583 H   0  0  0  0  0  0  0  0  0  0  0  0
   61.6310   34.9187   48.4585 H   0  0  0  0  0  0  0  0  0  0  0  0
  1  2  2  0
  2  3  1  0
  3  4  1  0
  4  5  1  0
  5  6  2  0
  6  7  1  0
  7  8  1  0
  8  9  1  0
  9 10  2  0
 10 11  1  0
 11 12  2  0
 12 13  1  0
 12 14  1  0
 14 15  2  0
  7 16  2  0
 16 17  1  0
 17 18  2  0
 17 19  1  0
  2 20  1  0
 20 21  1  0
 21 22  2  0
 22 23  1  0
 23 24  2  0
 24 25  1  0
 25 26  2  0
 26 27  1  0
 27 28  1  0
 28 29  1  0
 29 30  1  0
 30 31  1  0
 31 32  1  0
 19  5  1  0
 26 21  1  0
 32 27  1  0
 15  9  1  0
  3 33  1  0
  3 34  1  0
  8 35  1  0
  8 36  1  0
 10 37  1  0
 11 38  1  0
 14 39  1  0
 15 40  1  0
 16 41  1  0
 20 42  1  0
 22 43  1  0
 23 44  1  0
 24 45  1  0
 25 46  1  0
 28 47  1  0
 28 48  1  0
 29 49  1  0
 29 50  1  0
 31 51  1  0
 31 52  1  0
 32 53  1  0
 32 54  1  0
M  CHG  1  19  -1
M  END
>  <UniqueID>  (73) 
67

>  <SMILES>  (73) 
O=C(CSc1nc(Cc2ccc(Cl)cc2)cc(=O)[n-]1)Nc1ccccc1N1CCOCC1

>  <Energy>  (73) 
62.11129906580524

>  <Genealogy>  (73) 
O=C(CSc1nc(Cc2ccc(Cl)cc2)cc(=O)[n-]1)Nc1ccccc1N1CCOCC1 (protonated)
O=C(CSc1nc(Cc2ccc(Cl)cc2)cc(=O)[n-]1)Nc1ccccc1N1CCOCC1 (3D coordinates assigned)
O=C(CSc1nc(Cc2ccc(Cl)cc2)cc(=O)[n-]1)Nc1ccccc1N1CCOCC1 (nonaromatic ring conformer: 62.11129906580524 kcal/mol)

>  <smiles>  (73) 
O=C(CSc1nc(Cc2ccc(Cl)cc2)cc(=O)[nH]1)Nc1ccccc1N1CCOCC1

>  <score_type>  (73) 
oracle

>  <origin>  (73) 
adg

>  <m_score__min__energy>  (73) 
-10.369999999999999

>  <m_primary>  (73) 
energy

$$$$
73:0
     RDKit          3D

 42 43  0  0  0  0  0  0  0  0999 V2000
   57.4210   21.5230   43.6150 C   0  0  0  0  0  0  0  0  0  0  0  0
   56.3980   22.3540   44.1550 O   0  0  0  0  0  0  0  0  0  0  0  0
   56.6170   23.6240   44.7060 C   0  0  0  0  0  0  0  0  0  0  0  0
   57.9360   24.0510   44.8900 C   0  0  0  0  0  0  0  0  0  0  0  0
   58.2080   25.3080   45.4340 C   0  0  0  0  0  0  0  0  0  0  0  0
   57.1580   26.1690   45.7950 C   0  0  0  0  0  0  0  0  0  0  0  0
   57.4660   27.5080   46.4120 C   0  0  0  0  0  0  0  0  0  0  0  0
   57.6090   28.5470   45.3430 C   0  0  0  0  0  0  0  0  0  0  0  0
   58.5180   28.4260   44.4780 O   0  0  0  0  0  0  0  0  0  0  0  0
   56.6900   29.6470   45.2810 N   0  0  0  0  0  0  0  0  0  0  0  0
   56.7850   30.6920   44.2660 C   0  0  0  0  0  0  0  0  0  0  0  0
   57.5060   31.8920   44.8190 C   0  0  0  0  0  0  0  0  0  0  0  0
   57.7610   32.9970   43.9940 C   0  0  0  0  0  0  0  0  0  0  0  0
   58.4230   34.1160   44.5030 C   0  0  0  0  0  0  0  0  0  0  0  0
   58.8210   34.1460   45.8410 C   0  0  0  0  0  0  0  0  0  0  0  0
   58.5450   33.0660   46.6880 C   0  0  0  0  0  0  0  0  0  0  0  0
   58.9780   33.1350   48.0550 N   0  0  0  0  0  0  0  0  0  0  0  0
   60.1560   33.7910   48.5420 C   0  0  0  0  0  0  0  0  0  0  0  0
   61.4400   33.6370   47.8010 C   0  0  0  0  0  0  0  0  0  0  0  0
   60.0980   34.5720   49.5300 O   0  0  0  0  0  0  0  0  0  0  0  0
   57.9010   31.9290   46.1660 C   0  0  0  0  0  0  0  0  0  0  0  0
   55.8280   25.7390   45.6240 C   0  0  0  0  0  0  0  0  0  0  0  0
   54.7670   26.5580   45.9940 O   0  0  0  0  0  0  0  0  0  0  0  0
   55.5610   24.4790   45.0770 C   0  0  0  0  0  0  0  0  0  0  0  0
   57.9895   21.0612   44.4357 H   0  0  0  0  0  0  0  0  0  0  0  0
   56.9655   20.7359   42.9962 H   0  0  0  0  0  0  0  0  0  0  0  0
   58.0980   22.1302   42.9962 H   0  0  0  0  0  0  0  0  0  0  0  0
   58.7673   23.3902   44.6034 H   0  0  0  0  0  0  0  0  0  0  0  0
   59.2507   25.6261   45.5808 H   0  0  0  0  0  0  0  0  0  0  0  0
   56.6476   27.7933   47.0894 H   0  0  0  0  0  0  0  0  0  0  0  0
   58.4093   27.4371   46.9734 H   0  0  0  0  0  0  0  0  0  0  0  0
   55.9160   29.7010   45.9810 H   0  0  0  0  0  0  0  0  0  0  0  0
   57.3375   30.3050   43.3971 H   0  0  0  0  0  0  0  0  0  0  0  0
   55.7705   30.9914   43.9640 H   0  0  0  0  0  0  0  0  0  0  0  0
   57.4384   32.9821   42.9425 H   0  0  0  0  0  0  0  0  0  0  0  0
   58.6313   34.9754   43.8488 H   0  0  0  0  0  0  0  0  0  0  0  0
   59.3552   35.0244   46.2323 H   0  0  0  0  0  0  0  0  0  0  0  0
   62.2678   33.5377   48.5185 H   0  0  0  0  0  0  0  0  0  0  0  0
   61.3930   32.7381   47.1688 H   0  0  0  0  0  0  0  0  0  0  0  0
   61.6069   34.5216   47.1688 H   0  0  0  0  0  0  0  0  0  0  0  0
   57.7058   31.0640   46.8170 H   0  0  0  0  0  0  0  0  0  0  0  0
   54.5196   24.1541   44.9358 H   0  0  0  0  0  0  0  0  0  0  0  0
  1  2  1  0
  2  3  1  0
  3  4  2  0
  4  5  1  0
  5  6  2  0
  6  7  1  0
  7  8  1  0
  8  9  2  0
  8 10  1  0
 10 11  1  0
 11 12  1  0
 12 13  2  0
 13 14  1  0
 14 15  2  0
 15 16  1  0
 16 17  1  0
 17 18  1  0
 18 19  1  0
 18 20  2  0
 16 21  2  0
  6 22  1  0
 22 23  1  0
 22 24  2  0
 24  3  1  0
 21 12  1  0
  1 25  1  0
  1 26  1  0
  1 27  1  0
  4 28  1  0
  5 29  1  0
  7 30  1  0
  7 31  1  0
 10 32  1  0
 11 33  1  0
 11 34  1  0
 13 35  1  0
 14 36  1  0
 15 37  1  0
 19 38  1  0
 19 39  1  0
 19 40  1  0
 21 41  1  0
 24 42  1  0
M  CHG  2  17  -1  23  -1
M  END
>  <UniqueID>  (74) 
68

>  <SMILES>  (74) 
COc1ccc(CC(=O)NCc2cccc([N-]C(C)=O)c2)c([O-])c1

>  <Energy>  (74) 
38.80507013438553

>  <Genealogy>  (74) 
COc1ccc(CC(=O)NCc2cccc([N-]C(C)=O)c2)c([O-])c1 (protonated)
COc1ccc(CC(=O)NCc2cccc([N-]C(C)=O)c2)c([O-])c1 (3D coordinates assigned)
COc1ccc(CC(=O)NCc2cccc([N-]C(C)=O)c2)c([O-])c1 (optimized conformer: 38.80507013438553 kcal/mol)

>  <smiles>  (74) 
COc1ccc(CC(=O)NCc2cccc(NC(C)=O)c2)c(O)c1

>  <score_type>  (74) 
oracle

>  <origin>  (74) 
adg

>  <m_score__min__energy>  (74) 
-12.56

>  <m_primary>  (74) 
energy

$$$$
74:0
     RDKit          3D

 51 53  0  0  0  0  0  0  0  0999 V2000
   62.2140   33.1090   53.3060 H   0  0  0  0  0  0  0  0  0  0  0  0
   61.3190   33.4320   52.9560 O   0  0  0  0  0  0  0  0  0  0  0  0
   60.7070   32.8320   51.8570 C   0  0  0  0  0  0  0  0  0  0  0  0
   59.4680   33.2970   51.3990 C   0  0  0  0  0  0  0  0  0  0  0  0
   58.9771   34.1395   51.9081 H   0  0  0  0  0  0  0  0  0  0  0  0
   58.8530   32.6960   50.2990 C   0  0  0  0  0  0  0  0  0  0  0  0
   57.8833   33.0713   49.9402 H   0  0  0  0  0  0  0  0  0  0  0  0
   59.4680   31.6150   49.6500 C   0  0  0  0  0  0  0  0  0  0  0  0
   58.8200   30.9940   48.4420 C   0  0  0  0  0  0  0  0  0  0  0  0
   58.7239   29.9094   48.5981 H   0  0  0  0  0  0  0  0  0  0  0  0
   57.8255   31.4414   48.2975 H   0  0  0  0  0  0  0  0  0  0  0  0
   59.6560   31.2480   47.2180 C   0  0  0  0  0  0  0  0  0  0  0  0
   59.3460   32.2680   46.4690 N   0  0  0  0  0  0  0  0  0  0  0  0
   58.7770   33.5180   46.8840 C   0  0  0  0  0  0  0  0  0  0  0  0
   57.5280   33.5920   47.0370 O   0  0  0  0  0  0  0  0  0  0  0  0
   59.6330   34.6870   47.3000 C   0  0  0  0  0  0  0  0  0  0  0  0
   59.6232   35.4398   46.4980 H   0  0  0  0  0  0  0  0  0  0  0  0
   59.2208   35.1006   48.2323 H   0  0  0  0  0  0  0  0  0  0  0  0
   61.0590   34.2670   47.5600 C   0  0  0  0  0  0  0  0  0  0  0  0
   61.5580   34.2370   48.8750 C   0  0  0  0  0  0  0  0  0  0  0  0
   60.9117   34.5394   49.7122 H   0  0  0  0  0  0  0  0  0  0  0  0
   62.8710   33.8250   49.1240 C   0  0  0  0  0  0  0  0  0  0  0  0
   63.2595   33.8214   50.1531 H   0  0  0  0  0  0  0  0  0  0  0  0
   63.6900   33.4180   48.0680 C   0  0  0  0  0  0  0  0  0  0  0  0
   64.7244   33.1000   48.2650 H   0  0  0  0  0  0  0  0  0  0  0  0
   63.1950   33.4150   46.7620 C   0  0  0  0  0  0  0  0  0  0  0  0
   63.8382   33.0869   45.9321 H   0  0  0  0  0  0  0  0  0  0  0  0
   61.8840   33.8280   46.5070 C   0  0  0  0  0  0  0  0  0  0  0  0
   61.4950   33.8099   45.4782 H   0  0  0  0  0  0  0  0  0  0  0  0
   60.6470   30.2270   46.7930 C   0  0  0  0  0  0  0  0  0  0  0  0
   61.8740   30.4640   46.9470 O   0  0  0  0  0  0  0  0  0  0  0  0
   60.2610   29.0170   46.1270 N   0  0  0  0  0  0  0  0  0  0  0  0
   58.9470   28.4430   46.0440 C   0  0  0  0  0  0  0  0  0  0  0  0
   57.9210   29.0290   45.2820 C   0  0  0  0  0  0  0  0  0  0  0  0
   58.1200   29.9484   44.7118 H   0  0  0  0  0  0  0  0  0  0  0  0
   56.6480   28.4490   45.2450 C   0  0  0  0  0  0  0  0  0  0  0  0
   55.8525   28.9083   44.6398 H   0  0  0  0  0  0  0  0  0  0  0  0
   56.3860   27.2870   45.9760 C   0  0  0  0  0  0  0  0  0  0  0  0
   55.1230   26.7100   45.9360 O   0  0  0  0  0  0  0  0  0  0  0  0
   57.3970   26.7080   46.7500 C   0  0  0  0  0  0  0  0  0  0  0  0
   57.1918   25.7952   47.3284 H   0  0  0  0  0  0  0  0  0  0  0  0
   58.6690   27.2890   46.7890 C   0  0  0  0  0  0  0  0  0  0  0  0
   59.4569   26.8366   47.4091 H   0  0  0  0  0  0  0  0  0  0  0  0
   60.7160   31.1570   50.1010 C   0  0  0  0  0  0  0  0  0  0  0  0
   61.2103   30.3213   49.5840 H   0  0  0  0  0  0  0  0  0  0  0  0
   61.3400   31.7600   51.2110 C   0  0  0  0  0  0  0  0  0  0  0  0
   62.5820   31.3250   51.6980 O   0  0  0  0  0  0  0  0  0  0  0  0
   63.6530   30.8650   50.8780 C   0  0  0  0  0  0  0  0  0  0  0  0
   64.4768   30.5112   51.5152 H   0  0  0  0  0  0  0  0  0  0  0  0
   63.3000   30.0391   50.2429 H   0  0  0  0  0  0  0  0  0  0  0  0
   64.0089   31.6896   50.2429 H   0  0  0  0  0  0  0  0  0  0  0  0
  1  2  1  0
  2  3  1  0
  3  4  2  0
  4  5  1  0
  4  6  1  0
  6  7  1  0
  6  8  2  0
  8  9  1  0
  9 10  1  0
  9 11  1  0
  9 12  1  0
 12 13  2  0
 13 14  1  0
 14 15  2  0
 14 16  1  0
 16 17  1  0
 16 18  1  0
 16 19  1  0
 19 20  2  0
 20 21  1  0
 20 22  1  0
 22 23  1  0
 22 24  2  0
 24 25  1  0
 24 26  1  0
 26 27  1  0
 26 28  2  0
 28 29  1  0
 12 30  1  0
 30 31  2  0
 30 32  1  0
 32 33  1  0
 33 34  2  0
 34 35  1  0
 34 36  1  0
 36 37  1  0
 36 38  2  0
 38 39  1  0
 38 40  1  0
 40 41  1  0
 40 42  2  0
 42 43  1  0
  8 44  1  0
 44 45  1  0
 44 46  2  0
 46 47  1  0
 47 48  1  0
 48 49  1  0
 48 50  1  0
 48 51  1  0
 46  3  1  0
 28 19  1  0
 42 33  1  0
M  CHG  2  32  -1  39  -1
M  END
>  <UniqueID>  (75) 
69

>  <SMILES>  (75) 
COc1cc(C/C(=N/C(=O)Cc2ccccc2)C(=O)[N-]c2ccc([O-])cc2)ccc1O

>  <Energy>  (75) 
64.06774298414656

>  <Genealogy>  (75) 
COc1cc(CC(=NC(=O)Cc2ccccc2)C(=O)[N-]c2ccc([O-])cc2)ccc1O (protonated)
COc1cc(C/C(=N/C(=O)Cc2ccccc2)C(=O)[N-]c2ccc([O-])cc2)ccc1O (cis-trans isomerization)
COc1cc(C/C(=N/C(=O)Cc2ccccc2)C(=O)[N-]c2ccc([O-])cc2)ccc1O (3D coordinates assigned)
COc1cc(C/C(=N/C(=O)Cc2ccccc2)C(=O)[N-]c2ccc([O-])cc2)ccc1O (optimized conformer: 64.06774298414656 kcal/mol)

>  <smiles>  (75) 
COc1cc(CC(=NC(=O)Cc2ccccc2)C(=O)Nc2ccc(O)cc2)ccc1O

>  <score_type>  (75) 
oracle

>  <origin>  (75) 
adg

>  <m_score__min__energy>  (75) 
-12.35

>  <m_primary>  (75) 
energy

$$$$
75:0
     RDKit          3D

 41 43  0  0  0  0  0  0  0  0999 V2000
   55.2700   21.4450   46.0270 C   0  0  0  0  0  0  0  0  0  0  0  0
   54.6260   22.9740   45.3760 S   0  0  0  0  0  0  0  0  0  0  0  0
   53.1330   22.8940   45.2300 O   0  0  0  0  0  0  0  0  0  0  0  0
   55.2300   23.2120   44.0210 O   0  0  0  0  0  0  0  0  0  0  0  0
   55.0500   24.2970   46.4150 N   0  0  0  0  0  0  0  0  0  0  0  0
   56.2690   25.0540   46.3650 C   0  0  0  0  0  0  0  0  0  0  0  0
   56.3310   26.3290   45.7710 C   0  0  0  0  0  0  0  0  0  0  0  0
   57.5430   27.0450   45.7330 C   0  0  0  0  0  0  0  0  0  0  0  0
   57.6020   28.3890   45.1070 C   0  0  0  0  0  0  0  0  0  0  0  0
   56.4200   29.0700   44.7650 C   0  0  0  0  0  0  0  0  0  0  0  0
   56.4740   30.3380   44.1780 C   0  0  0  0  0  0  0  0  0  0  0  0
   57.7110   30.9520   43.9160 C   0  0  0  0  0  0  0  0  0  0  0  0
   57.7690   32.2970   43.2950 C   0  0  0  0  0  0  0  0  0  0  0  0
   58.0100   32.4070   42.0620 O   0  0  0  0  0  0  0  0  0  0  0  0
   57.6380   33.4690   44.1170 N   0  0  0  0  0  0  0  0  0  0  0  0
   58.2540   33.7590   45.2310 C   0  0  0  0  0  0  0  0  0  0  0  0
   57.8640   33.0830   46.3960 C   0  0  0  0  0  0  0  0  0  0  0  0
   58.4860   33.3720   47.6120 C   0  0  0  0  0  0  0  0  0  0  0  0
   59.4610   34.3170   47.6710 N   0  0  0  0  0  0  0  0  0  0  0  0
   59.8560   35.0000   46.5660 C   0  0  0  0  0  0  0  0  0  0  0  0
   59.2610   34.7430   45.3270 C   0  0  0  0  0  0  0  0  0  0  0  0
   58.8930   30.2710   44.2590 C   0  0  0  0  0  0  0  0  0  0  0  0
   58.8380   29.0050   44.8500 C   0  0  0  0  0  0  0  0  0  0  0  0
   58.6960   26.4680   46.2930 C   0  0  0  0  0  0  0  0  0  0  0  0
   58.6370   25.2050   46.8820 C   0  0  0  0  0  0  0  0  0  0  0  0
   57.4310   24.4990   46.9180 C   0  0  0  0  0  0  0  0  0  0  0  0
   57.3930   23.2390   47.5050 O   0  0  0  0  0  0  0  0  0  0  0  0
   55.2554   21.4796   47.1264 H   0  0  0  0  0  0  0  0  0  0  0  0
   54.6483   20.6072   45.6782 H   0  0  0  0  0  0  0  0  0  0  0  0
   56.3037   21.3045   45.6782 H   0  0  0  0  0  0  0  0  0  0  0  0
   55.4238   26.7702   45.3323 H   0  0  0  0  0  0  0  0  0  0  0  0
   55.4445   28.6011   44.9610 H   0  0  0  0  0  0  0  0  0  0  0  0
   55.5406   30.8593   43.9191 H   0  0  0  0  0  0  0  0  0  0  0  0
   57.0680   32.3251   46.3518 H   0  0  0  0  0  0  0  0  0  0  0  0
   58.1865   32.8341   48.5236 H   0  0  0  0  0  0  0  0  0  0  0  0
   60.6480   35.7592   46.6459 H   0  0  0  0  0  0  0  0  0  0  0  0
   59.5754   35.3034   44.4342 H   0  0  0  0  0  0  0  0  0  0  0  0
   59.8688   30.7383   44.0606 H   0  0  0  0  0  0  0  0  0  0  0  0
   59.7711   28.4867   45.1161 H   0  0  0  0  0  0  0  0  0  0  0  0
   59.6498   27.0154   46.2666 H   0  0  0  0  0  0  0  0  0  0  0  0
   59.5437   24.7624   47.3202 H   0  0  0  0  0  0  0  0  0  0  0  0
  1  2  1  0
  2  3  2  0
  2  4  2  0
  2  5  1  0
  5  6  1  0
  6  7  2  0
  7  8  1  0
  8  9  1  0
  9 10  2  0
 10 11  1  0
 11 12  2  0
 12 13  1  0
 13 14  2  0
 13 15  1  0
 15 16  2  3
 16 17  1  0
 17 18  2  0
 18 19  1  0
 19 20  1  0
 20 21  2  0
 12 22  1  0
 22 23  2  0
  8 24  2  0
 24 25  1  0
 25 26  2  0
 26 27  1  0
 26  6  1  0
 23  9  1  0
 21 16  1  0
  1 28  1  0
  1 29  1  0
  1 30  1  0
  7 31  1  0
 10 32  1  0
 11 33  1  0
 17 34  1  0
 18 35  1  0
 20 36  1  0
 21 37  1  0
 22 38  1  0
 23 39  1  0
 24 40  1  0
 25 41  1  0
M  CHG  3   5  -1  19  -1  27  -1
M  END
>  <UniqueID>  (76) 
70

>  <SMILES>  (76) 
CS(=O)(=O)[N-]c1cc(-c2ccc(C(=O)N=c3cc[n-]cc3)cc2)ccc1[O-]

>  <Energy>  (76) 
57.720270231551325

>  <Genealogy>  (76) 
CS(=O)(=O)[N-]c1cc(-c2ccc(C(=O)N=c3cc[n-]cc3)cc2)ccc1[O-] (protonated)
CS(=O)(=O)[N-]c1cc(-c2ccc(C(=O)N=c3cc[n-]cc3)cc2)ccc1[O-] (3D coordinates assigned)
CS(=O)(=O)[N-]c1cc(-c2ccc(C(=O)N=c3cc[n-]cc3)cc2)ccc1[O-] (optimized conformer: 57.720270231551325 kcal/mol)

>  <smiles>  (76) 
CS(=O)(=O)Nc1cc(-c2ccc(C(=O)N=c3cc[nH]cc3)cc2)ccc1O

>  <score_type>  (76) 
oracle

>  <origin>  (76) 
adg

>  <m_score__min__energy>  (76) 
-12.91

>  <m_primary>  (76) 
energy

$$$$
76:0
     RDKit          3D

 45 46  0  0  0  0  0  0  0  0999 V2000
   63.0240   33.8340   46.3750 C   0  0  0  0  0  0  0  0  0  0  0  0
   63.3230   33.4160   47.6080 C   0  0  0  0  0  0  0  0  0  0  0  0
   63.4330   31.9560   47.9390 C   0  0  0  0  0  0  0  0  0  0  0  0
   62.4430   31.5870   48.9510 N   0  0  0  0  0  0  0  0  0  0  0  0
   61.0400   31.4860   48.6650 C   0  0  0  0  0  0  0  0  0  0  0  0
   59.9590   31.7950   49.8550 S   0  0  0  0  0  0  0  0  0  0  0  0
   60.5640   31.1550   47.3550 N   0  0  0  0  0  0  0  0  0  0  0  0
   61.0980   30.0170   46.6060 C   0  0  0  0  0  0  0  0  0  0  0  0
   59.9750   29.2390   45.9780 C   0  0  0  0  0  0  0  0  0  0  0  0
   60.0550   27.8420   45.8530 C   0  0  0  0  0  0  0  0  0  0  0  0
   59.0110   27.1280   45.2580 C   0  0  0  0  0  0  0  0  0  0  0  0
   57.8830   27.8010   44.7830 C   0  0  0  0  0  0  0  0  0  0  0  0
   57.7940   29.1930   44.8950 C   0  0  0  0  0  0  0  0  0  0  0  0
   56.3520   30.0260   44.3170 S   0  0  0  0  0  0  0  0  0  0  0  0
   55.1410   29.3300   44.8690 O   0  0  0  0  0  0  0  0  0  0  0  0
   56.2880   29.9700   42.8150 O   0  0  0  0  0  0  0  0  0  0  0  0
   56.3320   31.6910   44.8330 N   0  0  0  0  0  0  0  0  0  0  0  0
   57.4100   32.4640   44.2120 C   0  0  0  0  0  0  0  0  0  0  0  0
   58.1380   33.3080   45.2250 C   0  0  0  0  0  0  0  0  0  0  0  0
   59.0210   34.3190   44.8100 C   0  0  0  0  0  0  0  0  0  0  0  0
   59.6850   35.1060   45.7550 C   0  0  0  0  0  0  0  0  0  0  0  0
   59.4780   34.8860   47.1200 C   0  0  0  0  0  0  0  0  0  0  0  0
   58.6100   33.8760   47.5410 C   0  0  0  0  0  0  0  0  0  0  0  0
   57.9430   33.0870   46.5990 C   0  0  0  0  0  0  0  0  0  0  0  0
   58.8430   29.9100   45.4890 C   0  0  0  0  0  0  0  0  0  0  0  0
   62.9502   34.9107   46.1620 H   0  0  0  0  0  0  0  0  0  0  0  0
   62.8516   33.1015   45.5726 H   0  0  0  0  0  0  0  0  0  0  0  0
   63.4928   34.1600   48.4003 H   0  0  0  0  0  0  0  0  0  0  0  0
   63.2588   31.3637   47.0286 H   0  0  0  0  0  0  0  0  0  0  0  0
   64.4396   31.7543   48.3340 H   0  0  0  0  0  0  0  0  0  0  0  0
   62.7600   31.4590   49.9390 H   0  0  0  0  0  0  0  0  0  0  0  0
   59.6200   31.5060   47.0770 H   0  0  0  0  0  0  0  0  0  0  0  0
   61.7716   30.3841   45.8177 H   0  0  0  0  0  0  0  0  0  0  0  0
   61.6502   29.3602   47.2942 H   0  0  0  0  0  0  0  0  0  0  0  0
   60.9422   27.3083   46.2246 H   0  0  0  0  0  0  0  0  0  0  0  0
   59.0779   26.0341   45.1637 H   0  0  0  0  0  0  0  0  0  0  0  0
   57.0618   27.2348   44.3193 H   0  0  0  0  0  0  0  0  0  0  0  0
   58.1245   31.7700   43.7453 H   0  0  0  0  0  0  0  0  0  0  0  0
   56.9661   33.1331   43.4602 H   0  0  0  0  0  0  0  0  0  0  0  0
   59.1904   34.4918   43.7369 H   0  0  0  0  0  0  0  0  0  0  0  0
   60.3713   35.8995   45.4244 H   0  0  0  0  0  0  0  0  0  0  0  0
   59.9988   35.5084   47.8625 H   0  0  0  0  0  0  0  0  0  0  0  0
   58.4509   33.7010   48.6153 H   0  0  0  0  0  0  0  0  0  0  0  0
   57.2630   32.2902   46.9347 H   0  0  0  0  0  0  0  0  0  0  0  0
   58.7783   31.0049   45.5722 H   0  0  0  0  0  0  0  0  0  0  0  0
  1  2  2  0
  2  3  1  0
  3  4  1  0
  4  5  1  0
  5  6  2  0
  5  7  1  0
  7  8  1  0
  8  9  1  0
  9 10  2  0
 10 11  1  0
 11 12  2  0
 12 13  1  0
 13 14  1  0
 14 15  2  0
 14 16  2  0
 14 17  1  0
 17 18  1  0
 18 19  1  0
 19 20  2  0
 20 21  1  0
 21 22  2  0
 22 23  1  0
 23 24  2  0
 13 25  2  0
 25  9  1  0
 24 19  1  0
  1 26  1  0
  1 27  1  0
  2 28  1  0
  3 29  1  0
  3 30  1  0
  4 31  1  0
  7 32  1  0
  8 33  1  0
  8 34  1  0
 10 35  1  0
 11 36  1  0
 12 37  1  0
 18 38  1  0
 18 39  1  0
 20 40  1  0
 21 41  1  0
 22 42  1  0
 23 43  1  0
 24 44  1  0
 25 45  1  0
M  CHG  1  17  -1
M  END
>  <UniqueID>  (77) 
71

>  <SMILES>  (77) 
C=CCNC(=S)NCc1cccc(S(=O)(=O)[N-]Cc2ccccc2)c1

>  <Energy>  (77) 
41.11044703272245

>  <Genealogy>  (77) 
C=CCNC(=S)NCc1cccc(S(=O)(=O)[N-]Cc2ccccc2)c1 (protonated)
C=CCNC(=S)NCc1cccc(S(=O)(=O)[N-]Cc2ccccc2)c1 (3D coordinates assigned)
C=CCNC(=S)NCc1cccc(S(=O)(=O)[N-]Cc2ccccc2)c1 (optimized conformer: 41.11044703272245 kcal/mol)

>  <smiles>  (77) 
C=CCNC(=S)NCc1cccc(S(=O)(=O)NCc2ccccc2)c1

>  <score_type>  (77) 
oracle

>  <origin>  (77) 
adg

>  <m_score__min__energy>  (77) 
-9.9199999999999999

>  <m_primary>  (77) 
energy

$$$$
77:0
     RDKit          3D

 62 66  0  0  0  0  0  0  0  0999 V2000
   53.6030   29.9770   56.0680 O   0  0  0  0  0  0  0  0  0  0  0  0
   53.2470   29.9730   54.8560 C   0  0  0  0  0  0  0  0  0  0  0  0
   51.7830   29.8890   54.5220 C   0  0  0  0  0  0  0  0  0  0  0  0
   51.3510   31.1360   53.7990 C   0  0  0  0  0  0  0  0  0  0  0  0
   50.6680   32.1630   54.4660 C   0  0  0  0  0  0  0  0  0  0  0  0
   50.2440   33.2720   53.7280 C   0  0  0  0  0  0  0  0  0  0  0  0
   50.5030   33.3390   52.3930 N   0  0  0  0  0  0  0  0  0  0  0  0
   51.1700   32.3380   51.7590 C   0  0  0  0  0  0  0  0  0  0  0  0
   51.4010   32.4180   50.5210 O   0  0  0  0  0  0  0  0  0  0  0  0
   51.5840   31.2480   52.4590 N   0  0  0  0  0  0  0  0  0  0  0  0
   54.2390   30.1420   53.8250 N   0  0  0  0  0  0  0  0  0  0  0  0
   53.9510   29.7260   52.4390 C   0  0  0  0  0  0  0  0  0  0  0  0
   54.4930   30.7550   51.4280 C   0  0  0  0  0  0  0  0  0  0  0  0
   55.8700   31.1800   51.8230 C   0  0  0  0  0  0  0  0  0  0  0  0
   56.7290   31.9020   51.0820 N   0  0  0  0  0  0  0  0  0  0  0  0
   57.7600   32.2230   51.8470 N   0  0  0  0  0  0  0  0  0  0  0  0
   58.8230   33.0850   51.4280 C   0  0  0  0  0  0  0  0  0  0  0  0
   59.2140   33.9940   52.2150 O   0  0  0  0  0  0  0  0  0  0  0  0
   59.3870   32.9760   50.1040 N   0  0  0  0  0  0  0  0  0  0  0  0
   60.1060   34.1200   49.5210 C   0  0  0  0  0  0  0  0  0  0  0  0
   61.3420   33.6570   48.7970 C   0  0  0  0  0  0  0  0  0  0  0  0
   62.4080   33.0770   49.5100 C   0  0  0  0  0  0  0  0  0  0  0  0
   63.5760   32.6900   48.8410 C   0  0  0  0  0  0  0  0  0  0  0  0
   63.6880   32.8820   47.4590 C   0  0  0  0  0  0  0  0  0  0  0  0
   62.6360   33.4710   46.7450 C   0  0  0  0  0  0  0  0  0  0  0  0
   61.4680   33.8590   47.4100 C   0  0  0  0  0  0  0  0  0  0  0  0
   59.1310   31.7850   49.2710 C   0  0  0  0  0  0  0  0  0  0  0  0
   58.6850   32.1320   47.8650 C   0  0  0  0  0  0  0  0  0  0  0  0
   59.1090   31.3160   46.8030 C   0  0  0  0  0  0  0  0  0  0  0  0
   58.6870   31.5780   45.4940 C   0  0  0  0  0  0  0  0  0  0  0  0
   57.8340   32.6540   45.2340 C   0  0  0  0  0  0  0  0  0  0  0  0
   57.3910   33.4620   46.2820 C   0  0  0  0  0  0  0  0  0  0  0  0
   57.8040   33.2010   47.5930 C   0  0  0  0  0  0  0  0  0  0  0  0
   57.5640   31.7480   53.0970 C   0  0  0  0  0  0  0  0  0  0  0  0
   56.3570   31.0790   53.1020 C   0  0  0  0  0  0  0  0  0  0  0  0
   55.6330   30.4090   54.2240 C   0  0  0  0  0  0  0  0  0  0  0  0
   51.6050   29.0143   53.8791 H   0  0  0  0  0  0  0  0  0  0  0  0
   51.2041   29.7903   55.4521 H   0  0  0  0  0  0  0  0  0  0  0  0
   50.4702   32.0975   55.5461 H   0  0  0  0  0  0  0  0  0  0  0  0
   49.7017   34.0896   54.2253 H   0  0  0  0  0  0  0  0  0  0  0  0
   54.4259   28.7519   52.2500 H   0  0  0  0  0  0  0  0  0  0  0  0
   52.8604   29.6545   52.3147 H   0  0  0  0  0  0  0  0  0  0  0  0
   54.5247   30.3006   50.4267 H   0  0  0  0  0  0  0  0  0  0  0  0
   53.8321   31.6342   51.4168 H   0  0  0  0  0  0  0  0  0  0  0  0
   56.5930   32.2130   50.0920 H   0  0  0  0  0  0  0  0  0  0  0  0
   59.4447   34.6389   48.8115 H   0  0  0  0  0  0  0  0  0  0  0  0
   60.4045   34.8011   50.3315 H   0  0  0  0  0  0  0  0  0  0  0  0
   62.3234   32.9271   50.5965 H   0  0  0  0  0  0  0  0  0  0  0  0
   64.4057   32.2350   49.4018 H   0  0  0  0  0  0  0  0  0  0  0  0
   64.6025   32.5703   46.9331 H   0  0  0  0  0  0  0  0  0  0  0  0
   62.7287   33.6285   45.6603 H   0  0  0  0  0  0  0  0  0  0  0  0
   60.6452   34.3236   46.8468 H   0  0  0  0  0  0  0  0  0  0  0  0
   60.0569   31.1944   49.2095 H   0  0  0  0  0  0  0  0  0  0  0  0
   58.3151   31.2201   49.7456 H   0  0  0  0  0  0  0  0  0  0  0  0
   59.7773   30.4651   47.0013 H   0  0  0  0  0  0  0  0  0  0  0  0
   59.0275   30.9356   44.6686 H   0  0  0  0  0  0  0  0  0  0  0  0
   57.5118   32.8640   44.2034 H   0  0  0  0  0  0  0  0  0  0  0  0
   56.7157   34.3058   46.0769 H   0  0  0  0  0  0  0  0  0  0  0  0
   57.4400   33.8326   48.4168 H   0  0  0  0  0  0  0  0  0  0  0  0
   58.2426   31.8720   53.9538 H   0  0  0  0  0  0  0  0  0  0  0  0
   56.1325   29.4594   54.4664 H   0  0  0  0  0  0  0  0  0  0  0  0
   55.6405   31.0654   55.1066 H   0  0  0  0  0  0  0  0  0  0  0  0
  1  2  2  0
  2  3  1  0
  3  4  1  0
  4  5  1  0
  5  6  2  0
  6  7  1  0
  7  8  1  0
  8  9  2  0
  8 10  1  0
  2 11  1  0
 11 12  1  0
 12 13  1  0
 13 14  1  0
 14 15  2  0
 15 16  1  0
 16 17  1  0
 17 18  2  0
 17 19  1  0
 19 20  1  0
 20 21  1  0
 21 22  2  0
 22 23  1  0
 23 24  2  0
 24 25  1  0
 25 26  2  0
 19 27  1  0
 27 28  1  0
 28 29  2  0
 29 30  1  0
 30 31  2  0
 31 32  1  0
 32 33  2  0
 16 34  1  0
 34 35  2  0
 35 36  1  0
 10  4  2  0
 36 11  1  0
 35 14  1  0
 26 21  1  0
 33 28  1  0
  3 37  1  0
  3 38  1  0
  5 39  1  0
  6 40  1  0
 12 41  1  0
 12 42  1  0
 13 43  1  0
 13 44  1  0
 15 45  1  0
 20 46  1  0
 20 47  1  0
 22 48  1  0
 23 49  1  0
 24 50  1  0
 25 51  1  0
 26 52  1  0
 27 53  1  0
 27 54  1  0
 29 55  1  0
 30 56  1  0
 31 57  1  0
 32 58  1  0
 33 59  1  0
 34 60  1  0
 36 61  1  0
 36 62  1  0
M  CHG  2   7  -1  15   1
M  END
>  <UniqueID>  (78) 
72

>  <SMILES>  (78) 
O=C(Cc1cc[n-]c(=O)n1)N1CCc2[nH+]n(C(=O)N(Cc3ccccc3)Cc3ccccc3)cc2C1

>  <Energy>  (78) 
107.88720581602678

>  <Genealogy>  (78) 
O=C(Cc1cc[n-]c(=O)n1)N1CCc2[nH+]n(C(=O)N(Cc3ccccc3)Cc3ccccc3)cc2C1 (protonated)
O=C(Cc1cc[n-]c(=O)n1)N1CCc2[nH+]n(C(=O)N(Cc3ccccc3)Cc3ccccc3)cc2C1 (3D coordinates assigned)
O=C(Cc1cc[n-]c(=O)n1)N1CCc2[nH+]n(C(=O)N(Cc3ccccc3)Cc3ccccc3)cc2C1 (nonaromatic ring conformer: 107.88720581602678 kcal/mol)

>  <smiles>  (78) 
O=C(Cc1cc[nH]c(=O)n1)N1CCc2nn(C(=O)N(Cc3ccccc3)Cc3ccccc3)cc2C1

>  <score_type>  (78) 
oracle

>  <origin>  (78) 
adg

>  <m_score__min__energy>  (78) 
-11.16

>  <m_primary>  (78) 
energy

$$$$
78:0
     RDKit          3D

 45 48  0  0  0  0  0  0  0  0999 V2000
   55.1490   29.0640   44.8320 N   0  0  0  0  0  0  0  0  0  0  0  0
   56.0300   30.0380   44.2740 C   0  0  0  0  0  0  0  0  0  0  0  0
   55.8580   30.4240   43.0890 O   0  0  0  0  0  0  0  0  0  0  0  0
   57.0700   30.6270   45.0610 N   0  0  0  0  0  0  0  0  0  0  0  0
   57.8360   29.9730   46.0830 C   0  0  0  0  0  0  0  0  0  0  0  0
   57.9780   28.5750   46.1090 C   0  0  0  0  0  0  0  0  0  0  0  0
   58.7460   27.9600   47.0990 C   0  0  0  0  0  0  0  0  0  0  0  0
   59.3810   28.7310   48.0820 C   0  0  0  0  0  0  0  0  0  0  0  0
   60.1800   28.0740   49.1400 C   0  0  0  0  0  0  0  0  0  0  0  0
   61.0330   27.2060   48.8160 O   0  0  0  0  0  0  0  0  0  0  0  0
   60.0430   28.4200   50.5280 N   0  0  0  0  0  0  0  0  0  0  0  0
   59.5210   29.5180   50.9890 C   0  0  0  0  0  0  0  0  0  0  0  0
   58.1890   29.6310   51.2250 N   0  0  0  0  0  0  0  0  0  0  0  0
   58.0760   30.9060   51.6280 C   0  0  0  0  0  0  0  0  0  0  0  0
   56.9180   31.5840   51.9980 C   0  0  0  0  0  0  0  0  0  0  0  0
   57.0440   32.9340   52.3770 C   0  0  0  0  0  0  0  0  0  0  0  0
   58.3120   33.5610   52.3770 C   0  0  0  0  0  0  0  0  0  0  0  0
   59.4610   32.8440   51.9940 C   0  0  0  0  0  0  0  0  0  0  0  0
   59.2960   31.5120   51.6240 C   0  0  0  0  0  0  0  0  0  0  0  0
   60.2400   30.6530   51.2150 N   0  0  0  0  0  0  0  0  0  0  0  0
   59.2820   30.1300   48.0300 C   0  0  0  0  0  0  0  0  0  0  0  0
   58.5160   30.7580   47.0280 C   0  0  0  0  0  0  0  0  0  0  0  0
   58.4040   32.1570   46.9370 O   0  0  0  0  0  0  0  0  0  0  0  0
   58.9510   33.0930   47.8660 C   0  0  0  0  0  0  0  0  0  0  0  0
   60.4470   33.1910   47.7260 C   0  0  0  0  0  0  0  0  0  0  0  0
   61.0150   33.7680   46.5770 C   0  0  0  0  0  0  0  0  0  0  0  0
   62.4020   33.7990   46.4170 C   0  0  0  0  0  0  0  0  0  0  0  0
   63.2330   33.2460   47.3950 C   0  0  0  0  0  0  0  0  0  0  0  0
   62.6780   32.6690   48.5420 C   0  0  0  0  0  0  0  0  0  0  0  0
   63.7220   31.9750   49.7690 Cl  0  0  0  0  0  0  0  0  0  0  0  0
   61.2890   32.6390   48.7060 C   0  0  0  0  0  0  0  0  0  0  0  0
   54.3930   29.3440   45.4960 H   0  0  0  0  0  0  0  0  0  0  0  0
   57.4804   27.9612   45.3438 H   0  0  0  0  0  0  0  0  0  0  0  0
   58.8533   26.8653   47.1077 H   0  0  0  0  0  0  0  0  0  0  0  0
   55.9389   31.0826   51.9944 H   0  0  0  0  0  0  0  0  0  0  0  0
   56.1517   33.5042   52.6747 H   0  0  0  0  0  0  0  0  0  0  0  0
   58.4006   34.6153   52.6781 H   0  0  0  0  0  0  0  0  0  0  0  0
   60.4532   33.3188   51.9872 H   0  0  0  0  0  0  0  0  0  0  0  0
   59.8072   30.7417   48.7783 H   0  0  0  0  0  0  0  0  0  0  0  0
   58.5080   34.0826   47.6806 H   0  0  0  0  0  0  0  0  0  0  0  0
   58.7191   32.7478   48.8844 H   0  0  0  0  0  0  0  0  0  0  0  0
   60.3643   34.1969   45.8007 H   0  0  0  0  0  0  0  0  0  0  0  0
   62.8411   34.2595   45.5197 H   0  0  0  0  0  0  0  0  0  0  0  0
   64.3249   33.2645   47.2627 H   0  0  0  0  0  0  0  0  0  0  0  0
   60.8540   32.1810   49.6066 H   0  0  0  0  0  0  0  0  0  0  0  0
  1  2  1  0
  2  3  2  0
  2  4  1  0
  4  5  1  0
  5  6  2  0
  6  7  1  0
  7  8  2  0
  8  9  1  0
  9 10  2  0
  9 11  1  0
 11 12  2  3
 12 13  1  0
 13 14  1  0
 14 15  2  0
 15 16  1  0
 16 17  2  0
 17 18  1  0
 18 19  2  0
 19 20  1  0
  8 21  1  0
 21 22  2  0
 22 23  1  0
 23 24  1  0
 24 25  1  0
 25 26  2  0
 26 27  1  0
 27 28  2  0
 28 29  1  0
 29 30  1  0
 29 31  2  0
 22  5  1  0
 31 25  1  0
 20 12  1  0
 19 14  1  0
  1 32  1  0
  6 33  1  0
  7 34  1  0
 15 35  1  0
 16 36  1  0
 17 37  1  0
 18 38  1  0
 21 39  1  0
 24 40  1  0
 24 41  1  0
 26 42  1  0
 27 43  1  0
 28 44  1  0
 31 45  1  0
M  CHG  4   1  -1   4  -1  13  -1  20  -1
M  END
>  <UniqueID>  (79) 
73

>  <SMILES>  (79) 
[NH-]C(=O)[N-]c1ccc(C(=O)N=c2[n-]c3ccccc3[n-]2)cc1OCc1cccc(Cl)c1

>  <Energy>  (79) 
89.34558471323585

>  <Genealogy>  (79) 
[NH-]C(=O)[N-]c1ccc(C(=O)N=c2[n-]c3ccccc3[n-]2)cc1OCc1cccc(Cl)c1 (protonated)
[NH-]C(=O)[N-]c1ccc(C(=O)N=c2[n-]c3ccccc3[n-]2)cc1OCc1cccc(Cl)c1 (3D coordinates assigned)
[NH-]C(=O)[N-]c1ccc(C(=O)N=c2[n-]c3ccccc3[n-]2)cc1OCc1cccc(Cl)c1 (optimized conformer: 89.34558471323585 kcal/mol)

>  <smiles>  (79) 
NC(=O)Nc1ccc(C(=O)N=c2[nH]c3ccccc3[nH]2)cc1OCc1cccc(Cl)c1

>  <score_type>  (79) 
oracle

>  <origin>  (79) 
adg

>  <m_score__min__energy>  (79) 
-15.109999999999999

>  <m_primary>  (79) 
energy

$$$$
79:0
     RDKit          3D

 42 44  0  0  0  0  0  0  0  0999 V2000
   57.7620   30.3090   42.8450 H   0  0  0  0  0  0  0  0  0  0  0  0
   57.4390   31.0400   42.2580 O   0  0  0  0  0  0  0  0  0  0  0  0
   57.7670   32.2450   42.8940 C   0  0  0  0  0  0  0  0  0  0  0  0
   57.2910   33.0788   42.3572 H   0  0  0  0  0  0  0  0  0  0  0  0
   58.8605   32.3644   42.8873 H   0  0  0  0  0  0  0  0  0  0  0  0
   57.2750   32.2360   44.3570 C   0  0  1  0  0  0  0  0  0  0  0  0
   56.2607   32.6584   44.3037 H   0  0  0  0  0  0  0  0  0  0  0  0
   57.2170   30.8990   44.8720 O   0  0  0  0  0  0  0  0  0  0  0  0
   58.3000   30.0780   45.2380 C   0  0  0  0  0  0  0  0  0  0  0  0
   58.7960   30.0140   46.5530 C   0  0  0  0  0  0  0  0  0  0  0  0
   58.3102   30.5901   47.3543 H   0  0  0  0  0  0  0  0  0  0  0  0
   59.9180   29.2090   46.8410 C   0  0  0  0  0  0  0  0  0  0  0  0
   60.4160   29.1050   48.0430 N   0  0  0  0  0  0  0  0  0  0  0  0
   60.6650   30.1860   48.9540 C   0  0  0  0  0  0  0  0  0  0  0  0
   60.1300   30.1560   50.0970 O   0  0  0  0  0  0  0  0  0  0  0  0
   61.4710   31.3640   48.5560 C   0  0  0  0  0  0  0  0  0  0  0  0
   61.3290   32.5360   49.2380 N   0  0  0  0  0  0  0  0  0  0  0  0
   62.0290   33.6560   48.9040 C   0  0  0  0  0  0  0  0  0  0  0  0
   61.8887   34.5831   49.4792 H   0  0  0  0  0  0  0  0  0  0  0  0
   62.9240   33.6290   47.8330 C   0  0  0  0  0  0  0  0  0  0  0  0
   63.4919   34.5303   47.5589 H   0  0  0  0  0  0  0  0  0  0  0  0
   63.0890   32.4450   47.1150 C   0  0  0  0  0  0  0  0  0  0  0  0
   63.7962   32.4058   46.2734 H   0  0  0  0  0  0  0  0  0  0  0  0
   62.3560   31.3090   47.4650 C   0  0  0  0  0  0  0  0  0  0  0  0
   62.4703   30.3776   46.8910 H   0  0  0  0  0  0  0  0  0  0  0  0
   60.5240   28.5000   45.8030 C   0  0  0  0  0  0  0  0  0  0  0  0
   61.4274   27.9027   45.9957 H   0  0  0  0  0  0  0  0  0  0  0  0
   59.9800   28.5520   44.5220 C   0  0  0  0  0  0  0  0  0  0  0  0
   60.4369   27.9679   43.7096 H   0  0  0  0  0  0  0  0  0  0  0  0
   58.8870   29.3210   44.2700 N   0  0  0  0  0  0  0  0  0  0  0  0
   58.5050   29.3480   43.2960 H   0  0  0  0  0  0  0  0  0  0  0  0
   58.0100   33.1640   45.3140 C   0  0  0  0  0  0  0  0  0  0  0  0
   57.9000   33.0610   46.7180 C   0  0  0  0  0  0  0  0  0  0  0  0
   57.2195   32.3178   47.1592 H   0  0  0  0  0  0  0  0  0  0  0  0
   58.6490   33.8960   47.5510 C   0  0  0  0  0  0  0  0  0  0  0  0
   58.5558   33.8083   48.6435 H   0  0  0  0  0  0  0  0  0  0  0  0
   59.5160   34.8420   46.9990 C   0  0  0  0  0  0  0  0  0  0  0  0
   60.1004   35.5020   47.6569 H   0  0  0  0  0  0  0  0  0  0  0  0
   59.6410   34.9500   45.6150 C   0  0  0  0  0  0  0  0  0  0  0  0
   60.3267   35.6933   45.1822 H   0  0  0  0  0  0  0  0  0  0  0  0
   58.8970   34.1160   44.7760 C   0  0  0  0  0  0  0  0  0  0  0  0
   59.0054   34.2041   43.6849 H   0  0  0  0  0  0  0  0  0  0  0  0
  1  2  1  0
  2  3  1  0
  3  4  1  0
  3  5  1  0
  3  6  1  0
  6  7  1  6
  6  8  1  0
  8  9  1  0
  9 10  2  0
 10 11  1  0
 10 12  1  0
 12 13  2  0
 13 14  1  0
 14 15  2  0
 14 16  1  0
 16 17  2  0
 17 18  1  0
 18 19  1  0
 18 20  2  0
 20 21  1  0
 20 22  1  0
 22 23  1  0
 22 24  2  0
 24 25  1  0
 12 26  1  0
 26 27  1  0
 26 28  2  0
 28 29  1  0
 28 30  1  0
 30 31  1  0
  6 32  1  0
 32 33  2  0
 33 34  1  0
 33 35  1  0
 35 36  1  0
 35 37  2  0
 37 38  1  0
 37 39  1  0
 39 40  1  0
 39 41  2  0
 41 42  1  0
 30  9  1  0
 41 32  1  0
 24 16  1  0
M  END
>  <UniqueID>  (80) 
74

>  <SMILES>  (80) 
O=C(/N=c1/cc[nH]c(O[C@H](CO)c2ccccc2)c1)c1ccccn1

>  <Energy>  (80) 
56.71347944374917

>  <Genealogy>  (80) 
O=C(N=c1cc[nH]c(O[C@H](CO)c2ccccc2)c1)c1ccccn1 (chirality)
O=C(/N=c1/cc[nH]c(O[C@H](CO)c2ccccc2)c1)c1ccccn1 (cis-trans isomerization)
O=C(/N=c1/cc[nH]c(O[C@H](CO)c2ccccc2)c1)c1ccccn1 (3D coordinates assigned)
O=C(/N=c1/cc[nH]c(O[C@H](CO)c2ccccc2)c1)c1ccccn1 (optimized conformer: 56.71347944374917 kcal/mol)

>  <smiles>  (80) 
O=C(N=c1cc[nH]c(OC(CO)c2ccccc2)c1)c1ccccn1

>  <score_type>  (80) 
oracle

>  <origin>  (80) 
adg

>  <m_score__min__energy>  (80) 
-8.8000000000000007

>  <m_primary>  (80) 
energy

$$$$
80:0
     RDKit          3D

 23 24  0  0  0  0  0  0  0  0999 V2000
   55.1960   27.8030   53.8680 O   0  0  0  0  0  0  0  0  0  0  0  0
   54.8770   28.9680   53.5070 C   0  0  0  0  0  0  0  0  0  0  0  0
   53.5210   29.4190   53.6250 N   0  0  0  0  0  0  0  0  0  0  0  0
   52.7900   30.1950   52.6650 C   0  0  0  0  0  0  0  0  0  0  0  0
   51.9490   31.2580   53.0450 C   0  0  0  0  0  0  0  0  0  0  0  0
   51.2370   31.9730   52.0770 C   0  0  0  0  0  0  0  0  0  0  0  0
   51.3460   31.6260   50.7270 C   0  0  0  0  0  0  0  0  0  0  0  0
   50.6380   32.3390   49.7670 O   0  0  0  0  0  0  0  0  0  0  0  0
   52.1610   30.5570   50.3450 C   0  0  0  0  0  0  0  0  0  0  0  0
   52.8740   29.8410   51.3110 C   0  0  0  0  0  0  0  0  0  0  0  0
   55.9070   29.8970   53.0070 C   0  0  0  0  0  0  0  0  0  0  0  0
   56.4450   30.9020   53.8230 C   0  0  0  0  0  0  0  0  0  0  0  0
   57.4180   31.7540   53.3020 C   0  0  0  0  0  0  0  0  0  0  0  0
   57.8310   31.5860   51.9820 C   0  0  0  0  0  0  0  0  0  0  0  0
   58.7080   32.3420   51.4870 O   0  0  0  0  0  0  0  0  0  0  0  0
   57.2820   30.5990   51.2290 N   0  0  0  0  0  0  0  0  0  0  0  0
   56.3510   29.7810   51.7250 N   0  0  0  0  0  0  0  0  0  0  0  0
   51.8516   31.5271   54.1071 H   0  0  0  0  0  0  0  0  0  0  0  0
   50.5899   32.8100   52.3782 H   0  0  0  0  0  0  0  0  0  0  0  0
   52.2415   30.2789   49.2838 H   0  0  0  0  0  0  0  0  0  0  0  0
   53.5057   28.9935   51.0065 H   0  0  0  0  0  0  0  0  0  0  0  0
   56.1035   31.0171   54.8623 H   0  0  0  0  0  0  0  0  0  0  0  0
   57.8540   32.5487   53.9252 H   0  0  0  0  0  0  0  0  0  0  0  0
  1  2  2  0
  2  3  1  0
  3  4  1  0
  4  5  2  0
  5  6  1  0
  6  7  2  0
  7  8  1  0
  7  9  1  0
  9 10  2  0
  2 11  1  0
 11 12  1  0
 12 13  2  0
 13 14  1  0
 14 15  2  0
 14 16  1  0
 16 17  1  0
 10  4  1  0
 17 11  2  0
  5 18  1  0
  6 19  1  0
  9 20  1  0
 10 21  1  0
 12 22  1  0
 13 23  1  0
M  CHG  3   3  -1   8  -1  16  -1
M  END
>  <UniqueID>  (81) 
75

>  <SMILES>  (81) 
O=C([N-]c1ccc([O-])cc1)c1ccc(=O)[n-]n1

>  <Energy>  (81) 
28.808852698496423

>  <Genealogy>  (81) 
O=C([N-]c1ccc([O-])cc1)c1ccc(=O)[n-]n1 (protonated)
O=C([N-]c1ccc([O-])cc1)c1ccc(=O)[n-]n1 (3D coordinates assigned)
O=C([N-]c1ccc([O-])cc1)c1ccc(=O)[n-]n1 (optimized conformer: 28.808852698496423 kcal/mol)

>  <smiles>  (81) 
O=C(Nc1ccc(O)cc1)c1ccc(=O)[nH]n1

>  <score_type>  (81) 
oracle

>  <origin>  (81) 
adg

>  <m_score__min__energy>  (81) 
-11.710000000000001

>  <m_primary>  (81) 
energy

$$$$
81:0
     RDKit          3D

 54 57  0  0  0  0  0  0  0  0999 V2000
   57.7720   32.1510   43.1610 C   0  0  0  0  0  0  0  0  0  0  0  0
   56.9910   30.5840   43.5140 S   0  0  0  0  0  0  0  0  0  0  0  0
   56.2970   30.0930   42.2730 O   0  0  0  0  0  0  0  0  0  0  0  0
   55.9630   30.7820   44.5940 O   0  0  0  0  0  0  0  0  0  0  0  0
   58.1670   29.3930   44.0290 N   0  0  0  0  0  0  0  0  0  0  0  0
   57.4680   28.1860   44.5480 C   0  0  0  0  0  0  0  0  0  0  0  0
   58.3440   27.3250   45.4640 C   0  0  0  0  0  0  0  0  0  0  0  0
   58.8320   28.2060   46.5540 C   0  0  0  0  0  0  0  0  0  0  0  0
   58.8430   27.8960   48.2030 S   0  0  0  0  0  0  0  0  0  0  0  0
   59.3610   29.4480   48.6270 C   0  0  0  0  0  0  0  0  0  0  0  0
   59.6530   29.8890   49.9580 N   0  0  0  0  0  0  0  0  0  0  0  0
   58.6900   30.4070   50.8850 C   0  0  0  0  0  0  0  0  0  0  0  0
   57.6560   29.7290   51.1220 O   0  0  0  0  0  0  0  0  0  0  0  0
   58.9100   31.6810   51.6090 C   0  0  0  0  0  0  0  0  0  0  0  0
   57.8730   32.6260   51.7130 C   0  0  0  0  0  0  0  0  0  0  0  0
   58.0770   33.8300   52.3920 C   0  0  0  0  0  0  0  0  0  0  0  0
   59.3200   34.1100   52.9640 C   0  0  0  0  0  0  0  0  0  0  0  0
   60.3630   33.1860   52.8540 C   0  0  0  0  0  0  0  0  0  0  0  0
   60.1650   31.9780   52.1770 C   0  0  0  0  0  0  0  0  0  0  0  0
   61.1890   31.0900   52.0980 F   0  0  0  0  0  0  0  0  0  0  0  0
   59.5610   30.2130   47.4760 C   0  0  0  0  0  0  0  0  0  0  0  0
   60.0480   31.6070   47.5120 C   0  0  0  0  0  0  0  0  0  0  0  0
   60.0180   32.2960   46.4570 O   0  0  0  0  0  0  0  0  0  0  0  0
   60.5090   32.1920   48.7390 N   0  0  0  0  0  0  0  0  0  0  0  0
   61.0280   33.5570   48.8110 C   0  0  0  0  0  0  0  0  0  0  0  0
   62.4120   33.5570   49.4150 C   0  0  0  0  0  0  0  0  0  0  0  0
   62.5900   34.1510   50.6790 C   0  0  0  0  0  0  0  0  0  0  0  0
   63.8540   34.1930   51.2750 C   0  0  0  0  0  0  0  0  0  0  0  0
   64.9540   33.6410   50.6160 C   0  0  0  0  0  0  0  0  0  0  0  0
   64.7950   33.0500   49.3610 C   0  0  0  0  0  0  0  0  0  0  0  0
   63.5330   33.0010   48.7530 C   0  0  0  0  0  0  0  0  0  0  0  0
   63.4110   32.2360   47.1710 Cl  0  0  0  0  0  0  0  0  0  0  0  0
   59.2140   29.5050   46.3070 C   0  0  0  0  0  0  0  0  0  0  0  0
   59.2140   30.0170   44.8910 C   0  0  0  0  0  0  0  0  0  0  0  0
   58.0238   32.6561   44.1052 H   0  0  0  0  0  0  0  0  0  0  0  0
   58.6905   31.9803   42.5802 H   0  0  0  0  0  0  0  0  0  0  0  0
   57.0828   32.7816   42.5802 H   0  0  0  0  0  0  0  0  0  0  0  0
   56.5839   28.5117   45.1157 H   0  0  0  0  0  0  0  0  0  0  0  0
   57.1982   27.5672   43.6795 H   0  0  0  0  0  0  0  0  0  0  0  0
   57.7526   26.4978   45.8835 H   0  0  0  0  0  0  0  0  0  0  0  0
   59.1858   26.8898   44.9054 H   0  0  0  0  0  0  0  0  0  0  0  0
   56.8946   32.4155   51.2565 H   0  0  0  0  0  0  0  0  0  0  0  0
   57.2572   34.5586   52.4762 H   0  0  0  0  0  0  0  0  0  0  0  0
   59.4781   35.0571   53.5007 H   0  0  0  0  0  0  0  0  0  0  0  0
   61.3428   33.4095   53.3013 H   0  0  0  0  0  0  0  0  0  0  0  0
   60.4080   31.6590   49.6310 H   0  0  0  0  0  0  0  0  0  0  0  0
   61.0737   33.9824   47.7976 H   0  0  0  0  0  0  0  0  0  0  0  0
   60.3607   34.1621   49.4423 H   0  0  0  0  0  0  0  0  0  0  0  0
   61.7262   34.5863   51.2027 H   0  0  0  0  0  0  0  0  0  0  0  0
   63.9817   34.6606   52.2624 H   0  0  0  0  0  0  0  0  0  0  0  0
   65.9479   33.6717   51.0864 H   0  0  0  0  0  0  0  0  0  0  0  0
   65.6664   32.6197   48.8457 H   0  0  0  0  0  0  0  0  0  0  0  0
   59.0430   31.1034   44.9142 H   0  0  0  0  0  0  0  0  0  0  0  0
   60.1890   29.7557   44.4539 H   0  0  0  0  0  0  0  0  0  0  0  0
  1  2  1  0
  2  3  2  0
  2  4  2  0
  2  5  1  0
  5  6  1  0
  6  7  1  0
  7  8  1  0
  8  9  1  0
  9 10  1  0
 10 11  1  0
 11 12  1  0
 12 13  2  0
 12 14  1  0
 14 15  2  0
 15 16  1  0
 16 17  2  0
 17 18  1  0
 18 19  2  0
 19 20  1  0
 10 21  2  0
 21 22  1  0
 22 23  2  0
 22 24  1  0
 24 25  1  0
 25 26  1  0
 26 27  2  0
 27 28  1  0
 28 29  2  0
 29 30  1  0
 30 31  2  0
 31 32  1  0
 21 33  1  0
 33 34  1  0
 34  5  1  0
 33  8  2  0
 19 14  1  0
 31 26  1  0
  1 35  1  0
  1 36  1  0
  1 37  1  0
  6 38  1  0
  6 39  1  0
  7 40  1  0
  7 41  1  0
 15 42  1  0
 16 43  1  0
 17 44  1  0
 18 45  1  0
 24 46  1  0
 25 47  1  0
 25 48  1  0
 27 49  1  0
 28 50  1  0
 29 51  1  0
 30 52  1  0
 34 53  1  0
 34 54  1  0
M  CHG  1  11  -1
M  END
>  <UniqueID>  (82) 
76

>  <SMILES>  (82) 
CS(=O)(=O)N1CCc2sc([N-]C(=O)c3ccccc3F)c(C(=O)NCc3ccccc3Cl)c2C1

>  <Energy>  (82) 
100.29384305280816

>  <Genealogy>  (82) 
CS(=O)(=O)N1CCc2sc([N-]C(=O)c3ccccc3F)c(C(=O)NCc3ccccc3Cl)c2C1 (protonated)
CS(=O)(=O)N1CCc2sc([N-]C(=O)c3ccccc3F)c(C(=O)NCc3ccccc3Cl)c2C1 (3D coordinates assigned)
CS(=O)(=O)N1CCc2sc([N-]C(=O)c3ccccc3F)c(C(=O)NCc3ccccc3Cl)c2C1 (nonaromatic ring conformer: 100.29384305280816 kcal/mol)

>  <smiles>  (82) 
CS(=O)(=O)N1CCc2sc(NC(=O)c3ccccc3F)c(C(=O)NCc3ccccc3Cl)c2C1

>  <score_type>  (82) 
oracle

>  <origin>  (82) 
adg

>  <m_score__min__energy>  (82) 
-11.68

>  <m_primary>  (82) 
energy

$$$$
82:0
     RDKit          3D

 42 44  0  0  0  0  0  0  0  0999 V2000
   55.9800   24.7330   47.5420 O   0  0  0  0  0  0  0  0  0  0  0  0
   55.6270   24.9830   46.3580 C   0  0  0  0  0  0  0  0  0  0  0  0
   55.4040   23.8590   45.4000 C   0  0  0  0  0  0  0  0  0  0  0  0
   56.6840   23.1220   45.1650 C   0  0  0  0  0  0  0  0  0  0  0  0
   58.1340   23.4190   45.9710 S   0  0  0  0  0  0  0  0  0  0  0  0
   58.9650   22.2710   45.0660 C   0  0  0  0  0  0  0  0  0  0  0  0
   60.1850   22.0020   45.2140 O   0  0  0  0  0  0  0  0  0  0  0  0
   58.1830   21.6640   44.1500 N   0  0  0  0  0  0  0  0  0  0  0  0
   56.9110   22.1430   44.2010 C   0  0  0  0  0  0  0  0  0  0  0  0
   55.9230   21.6810   43.3410 O   0  0  0  0  0  0  0  0  0  0  0  0
   55.5190   26.3360   45.8990 N   0  0  0  0  0  0  0  0  0  0  0  0
   56.6160   27.2180   45.6310 C   0  0  0  0  0  0  0  0  0  0  0  0
   57.9170   26.7270   45.7870 C   0  0  0  0  0  0  0  0  0  0  0  0
   59.0180   27.5430   45.5280 C   0  0  0  0  0  0  0  0  0  0  0  0
   58.8300   28.8570   45.0990 C   0  0  0  0  0  0  0  0  0  0  0  0
   57.5360   29.3650   44.9120 C   0  0  0  0  0  0  0  0  0  0  0  0
   57.3380   31.0440   44.3810 S   0  0  0  0  0  0  0  0  0  0  0  0
   55.9920   31.5610   44.8020 O   0  0  0  0  0  0  0  0  0  0  0  0
   57.3980   31.0940   42.8800 O   0  0  0  0  0  0  0  0  0  0  0  0
   58.5880   32.0750   45.0400 N   0  0  0  0  0  0  0  0  0  0  0  0
   58.4800   33.4410   44.4820 C   0  0  0  0  0  0  0  0  0  0  0  0
   59.2830   34.4470   45.3110 C   0  0  0  0  0  0  0  0  0  0  0  0
   58.7540   34.5290   46.7540 C   0  0  0  0  0  0  0  0  0  0  0  0
   58.0190   33.2510   47.1920 C   0  0  0  0  0  0  0  0  0  0  0  0
   58.6270   32.0110   46.5230 C   0  0  0  0  0  0  0  0  0  0  0  0
   56.4240   28.5320   45.1540 C   0  0  0  0  0  0  0  0  0  0  0  0
   55.1380   28.9960   44.8900 O   0  0  0  0  0  0  0  0  0  0  0  0
   54.6575   23.1675   45.8179 H   0  0  0  0  0  0  0  0  0  0  0  0
   55.0429   24.2669   44.4444 H   0  0  0  0  0  0  0  0  0  0  0  0
   58.0726   25.6891   46.1165 H   0  0  0  0  0  0  0  0  0  0  0  0
   60.0365   27.1497   45.6623 H   0  0  0  0  0  0  0  0  0  0  0  0
   59.7022   29.4989   44.9061 H   0  0  0  0  0  0  0  0  0  0  0  0
   58.8646   33.4383   43.4514 H   0  0  0  0  0  0  0  0  0  0  0  0
   57.4219   33.7412   44.5024 H   0  0  0  0  0  0  0  0  0  0  0  0
   60.3371   34.1334   45.3328 H   0  0  0  0  0  0  0  0  0  0  0  0
   59.1824   35.4392   44.8468 H   0  0  0  0  0  0  0  0  0  0  0  0
   59.6046   34.6951   47.4314 H   0  0  0  0  0  0  0  0  0  0  0  0
   58.0318   35.3576   46.7958 H   0  0  0  0  0  0  0  0  0  0  0  0
   58.0989   33.1463   48.2841 H   0  0  0  0  0  0  0  0  0  0  0  0
   56.9646   33.3315   46.8890 H   0  0  0  0  0  0  0  0  0  0  0  0
   59.6755   31.9187   46.8426 H   0  0  0  0  0  0  0  0  0  0  0  0
   58.0263   31.1426   46.8311 H   0  0  0  0  0  0  0  0  0  0  0  0
  1  2  2  0
  2  3  1  0
  3  4  1  0
  4  5  1  0
  5  6  1  0
  6  7  2  0
  6  8  1  0
  8  9  1  0
  9 10  1  0
  2 11  1  0
 11 12  1  0
 12 13  2  0
 13 14  1  0
 14 15  2  0
 15 16  1  0
 16 17  1  0
 17 18  2  0
 17 19  2  0
 17 20  1  0
 20 21  1  0
 21 22  1  0
 22 23  1  0
 23 24  1  0
 24 25  1  0
 16 26  2  0
 26 27  1  0
  9  4  2  0
 26 12  1  0
 25 20  1  0
  3 28  1  0
  3 29  1  0
 13 30  1  0
 14 31  1  0
 15 32  1  0
 21 33  1  0
 21 34  1  0
 22 35  1  0
 22 36  1  0
 23 37  1  0
 23 38  1  0
 24 39  1  0
 24 40  1  0
 25 41  1  0
 25 42  1  0
M  CHG  4   8  -1  10  -1  11  -1  27  -1
M  END
>  <UniqueID>  (83) 
77

>  <SMILES>  (83) 
O=C(Cc1sc(=O)[n-]c1[O-])[N-]c1cccc(S(=O)(=O)N2CCCCC2)c1[O-]

>  <Energy>  (83) 
82.98271690288753

>  <Genealogy>  (83) 
O=C(Cc1sc(=O)[n-]c1[O-])[N-]c1cccc(S(=O)(=O)N2CCCCC2)c1[O-] (protonated)
O=C(Cc1sc(=O)[n-]c1[O-])[N-]c1cccc(S(=O)(=O)N2CCCCC2)c1[O-] (3D coordinates assigned)
O=C(Cc1sc(=O)[n-]c1[O-])[N-]c1cccc(S(=O)(=O)N2CCCCC2)c1[O-] (nonaromatic ring conformer: 82.98271690288753 kcal/mol)

>  <smiles>  (83) 
O=C(Cc1sc(=O)[nH]c1O)Nc1cccc(S(=O)(=O)N2CCCCC2)c1O

>  <score_type>  (83) 
oracle

>  <origin>  (83) 
adg

>  <m_score__min__energy>  (83) 
-18.670000000000002

>  <m_primary>  (83) 
energy

$$$$
83:0
     RDKit          3D

 54 56  0  0  0  0  0  0  0  0999 V2000
   55.6470   22.4010   42.6060 O   0  0  0  0  0  0  0  0  0  0  0  0
   55.9100   22.3650   43.8390 C   0  0  0  0  0  0  0  0  0  0  0  0
   55.7960   21.1560   44.5160 O   0  0  0  0  0  0  0  0  0  0  0  0
   56.3210   23.5930   44.5570 C   0  0  0  0  0  0  0  0  0  0  0  0
   57.6750   23.8340   44.8250 C   0  0  0  0  0  0  0  0  0  0  0  0
   58.0670   24.9940   45.4950 C   0  0  0  0  0  0  0  0  0  0  0  0
   57.1250   25.9400   45.9080 C   0  0  0  0  0  0  0  0  0  0  0  0
   57.6120   27.0800   46.5740 O   0  0  0  0  0  0  0  0  0  0  0  0
   58.9840   27.4270   46.7570 C   0  0  0  0  0  0  0  0  0  0  0  0
   59.5330   26.7240   48.0000 C   0  0  0  0  0  0  0  0  0  0  0  0
   60.7550   27.4710   48.5590 C   0  0  0  0  0  0  0  0  0  0  0  0
   60.5220   28.0160   49.9790 C   0  0  0  0  0  0  0  0  0  0  0  0
   60.9210   29.4630   50.1150 C   0  0  0  0  0  0  0  0  0  0  0  0
   61.4750   29.8220   51.1900 O   0  0  0  0  0  0  0  0  0  0  0  0
   60.6820   30.4670   49.0340 C   0  0  0  0  0  0  0  0  0  0  0  0
   59.5970   30.3200   48.1480 C   0  0  0  0  0  0  0  0  0  0  0  0
   59.3520   31.2610   47.1500 C   0  0  0  0  0  0  0  0  0  0  0  0
   60.1890   32.3730   47.0010 C   0  0  0  0  0  0  0  0  0  0  0  0
   59.9810   33.3530   45.9760 N   0  0  0  0  0  0  0  0  0  0  0  0
   58.4400   33.8850   45.3740 S   0  0  0  0  0  0  0  0  0  0  0  0
   58.5690   35.1790   44.6280 O   0  0  0  0  0  0  0  0  0  0  0  0
   57.5270   34.1140   46.5450 O   0  0  0  0  0  0  0  0  0  0  0  0
   57.7550   32.6340   44.3340 C   0  0  0  0  0  0  0  0  0  0  0  0
   57.0710   31.5420   44.8930 C   0  0  0  0  0  0  0  0  0  0  0  0
   56.5620   30.5350   44.0670 C   0  0  0  0  0  0  0  0  0  0  0  0
   56.7410   30.6040   42.6800 C   0  0  0  0  0  0  0  0  0  0  0  0
   57.4230   31.6890   42.1180 C   0  0  0  0  0  0  0  0  0  0  0  0
   57.9280   32.7030   42.9420 C   0  0  0  0  0  0  0  0  0  0  0  0
   61.2840   32.5180   47.8520 C   0  0  0  0  0  0  0  0  0  0  0  0
   61.5350   31.5840   48.8690 C   0  0  0  0  0  0  0  0  0  0  0  0
   62.6370   31.7660   49.7040 O   0  0  0  0  0  0  0  0  0  0  0  0
   55.7560   25.7010   45.6410 C   0  0  0  0  0  0  0  0  0  0  0  0
   54.7680   26.5970   46.0330 O   0  0  0  0  0  0  0  0  0  0  0  0
   55.3670   24.5350   44.9740 C   0  0  0  0  0  0  0  0  0  0  0  0
   58.4337   23.1045   44.5054 H   0  0  0  0  0  0  0  0  0  0  0  0
   59.1337   25.1662   45.7011 H   0  0  0  0  0  0  0  0  0  0  0  0
   59.5612   27.1133   45.8747 H   0  0  0  0  0  0  0  0  0  0  0  0
   59.0699   28.5159   46.8869 H   0  0  0  0  0  0  0  0  0  0  0  0
   58.7485   26.6899   48.7703 H   0  0  0  0  0  0  0  0  0  0  0  0
   59.8416   25.7060   47.7201 H   0  0  0  0  0  0  0  0  0  0  0  0
   61.6092   26.7784   48.5841 H   0  0  0  0  0  0  0  0  0  0  0  0
   60.9468   28.3315   47.9012 H   0  0  0  0  0  0  0  0  0  0  0  0
   59.4536   27.9204   50.2226 H   0  0  0  0  0  0  0  0  0  0  0  0
   61.1482   27.4306   50.6684 H   0  0  0  0  0  0  0  0  0  0  0  0
   58.9327   29.4487   48.2454 H   0  0  0  0  0  0  0  0  0  0  0  0
   58.4943   31.1290   46.4741 H   0  0  0  0  0  0  0  0  0  0  0  0
   56.9354   31.4788   45.9828 H   0  0  0  0  0  0  0  0  0  0  0  0
   56.0193   29.6860   44.5082 H   0  0  0  0  0  0  0  0  0  0  0  0
   56.3462   29.8066   42.0332 H   0  0  0  0  0  0  0  0  0  0  0  0
   57.5626   31.7457   41.0284 H   0  0  0  0  0  0  0  0  0  0  0  0
   58.4617   33.5559   42.4974 H   0  0  0  0  0  0  0  0  0  0  0  0
   61.9603   33.3761   47.7245 H   0  0  0  0  0  0  0  0  0  0  0  0
   62.7110   31.2960   50.5990 H   0  0  0  0  0  0  0  0  0  0  0  0
   54.3007   24.3537   44.7736 H   0  0  0  0  0  0  0  0  0  0  0  0
  1  2  2  0
  2  3  1  0
  2  4  1  0
  4  5  2  0
  5  6  1  0
  6  7  2  0
  7  8  1  0
  8  9  1  0
  9 10  1  0
 10 11  1  0
 11 12  1  0
 12 13  1  0
 13 14  2  0
 13 15  1  0
 15 16  2  0
 16 17  1  0
 17 18  2  0
 18 19  1  0
 19 20  1  0
 20 21  2  0
 20 22  2  0
 20 23  1  0
 23 24  2  0
 24 25  1  0
 25 26  2  0
 26 27  1  0
 27 28  2  0
 18 29  1  0
 29 30  2  0
 30 31  1  0
  7 32  1  0
 32 33  1  0
 32 34  2  0
 34  4  1  0
 30 15  1  0
 28 23  1  0
  5 35  1  0
  6 36  1  0
  9 37  1  0
  9 38  1  0
 10 39  1  0
 10 40  1  0
 11 41  1  0
 11 42  1  0
 12 43  1  0
 12 44  1  0
 16 45  1  0
 17 46  1  0
 24 47  1  0
 25 48  1  0
 26 49  1  0
 27 50  1  0
 28 51  1  0
 29 52  1  0
 31 53  1  0
 34 54  1  0
M  CHG  3   3  -1  19  -1  33  -1
M  END
>  <UniqueID>  (84) 
78

>  <SMILES>  (84) 
O=C([O-])c1ccc(OCCCCC(=O)c2ccc([N-]S(=O)(=O)c3ccccc3)cc2O)c([O-])c1

>  <Energy>  (84) 
62.649391573895095

>  <Genealogy>  (84) 
O=C([O-])c1ccc(OCCCCC(=O)c2ccc([N-]S(=O)(=O)c3ccccc3)cc2O)c([O-])c1 (protonated)
O=C([O-])c1ccc(OCCCCC(=O)c2ccc([N-]S(=O)(=O)c3ccccc3)cc2O)c([O-])c1 (3D coordinates assigned)
O=C([O-])c1ccc(OCCCCC(=O)c2ccc([N-]S(=O)(=O)c3ccccc3)cc2O)c([O-])c1 (optimized conformer: 62.649391573895095 kcal/mol)

>  <smiles>  (84) 
O=C(O)c1ccc(OCCCCC(=O)c2ccc(NS(=O)(=O)c3ccccc3)cc2O)c(O)c1

>  <score_type>  (84) 
oracle

>  <origin>  (84) 
adg

>  <m_score__min__energy>  (84) 
-14.93

>  <m_primary>  (84) 
energy

$$$$
84:0
     RDKit          3D

 60 64  0  0  0  0  0  0  0  0999 V2000
   50.2680   32.5050   52.0140 N   0  0  0  0  0  0  0  0  0  0  0  0
   50.8750   31.5840   52.9220 C   0  0  0  0  0  0  0  0  0  0  0  0
   50.1930   31.1190   53.8760 O   0  0  0  0  0  0  0  0  0  0  0  0
   52.2910   31.1770   52.7480 C   0  0  0  0  0  0  0  0  0  0  0  0
   53.0570   30.7560   53.8490 C   0  0  0  0  0  0  0  0  0  0  0  0
   54.3910   30.3730   53.6840 C   0  0  0  0  0  0  0  0  0  0  0  0
   54.9940   30.4090   52.4150 C   0  0  0  0  0  0  0  0  0  0  0  0
   56.4140   30.0300   52.2400 C   0  0  0  0  0  0  0  0  0  0  0  0
   57.1600   29.1950   53.0640 C   0  0  0  0  0  0  0  0  0  0  0  0
   58.4980   29.0720   52.6650 C   0  0  0  0  0  0  0  0  0  0  0  0
   59.4480   28.2980   53.4030 N   0  0  0  0  0  0  0  0  0  0  0  0
   60.0150   27.1010   52.7820 C   0  0  0  0  0  0  0  0  0  0  0  0
   61.2980   26.7020   53.5080 C   0  0  0  0  0  0  0  0  0  0  0  0
   61.0680   26.5940   54.9010 O   0  0  0  0  0  0  0  0  0  0  0  0
   60.7480   27.8640   55.4380 C   0  0  0  0  0  0  0  0  0  0  0  0
   59.4240   28.3820   54.8640 C   0  0  0  0  0  0  0  0  0  0  0  0
   58.8220   29.8040   51.5260 C   0  0  0  0  0  0  0  0  0  0  0  0
   60.1210   29.8530   50.8370 C   0  0  0  0  0  0  0  0  0  0  0  0
   61.1850   29.9350   51.5110 O   0  0  0  0  0  0  0  0  0  0  0  0
   60.1530   29.8250   49.4020 N   0  0  0  0  0  0  0  0  0  0  0  0
   59.7740   28.8580   48.6170 C   0  0  0  0  0  0  0  0  0  0  0  0
   59.1250   29.0940   47.4580 N   0  0  0  0  0  0  0  0  0  0  0  0
   58.8440   27.9410   46.7900 C   0  0  0  0  0  0  0  0  0  0  0  0
   58.2330   27.9570   45.4240 C   0  0  0  0  0  0  0  0  0  0  0  0
   56.7460   28.0290   45.5530 C   0  0  0  0  0  0  0  0  0  0  0  0
   56.1030   27.0330   45.9860 O   0  0  0  0  0  0  0  0  0  0  0  0
   56.0660   29.2380   45.1960 N   0  0  0  0  0  0  0  0  0  0  0  0
   56.6090   30.2990   44.3960 C   0  0  0  0  0  0  0  0  0  0  0  0
   57.3690   31.3410   44.9630 C   0  0  0  0  0  0  0  0  0  0  0  0
   57.9380   32.3230   44.1440 C   0  0  0  0  0  0  0  0  0  0  0  0
   57.7560   32.2710   42.7590 C   0  0  0  0  0  0  0  0  0  0  0  0
   57.0100   31.2350   42.1900 C   0  0  0  0  0  0  0  0  0  0  0  0
   56.4450   30.2480   43.0050 C   0  0  0  0  0  0  0  0  0  0  0  0
   59.2800   26.7740   47.4140 C   0  0  0  0  0  0  0  0  0  0  0  0
   60.0300   27.2070   48.8540 S   0  0  0  0  0  0  0  0  0  0  0  0
   57.4340   30.6010   51.0230 S   0  0  0  0  0  0  0  0  0  0  0  0
   54.2300   30.8390   51.3140 C   0  0  0  0  0  0  0  0  0  0  0  0
   52.8920   31.2120   51.4770 C   0  0  0  0  0  0  0  0  0  0  0  0
   50.2680   32.3250   50.9860 H   0  0  0  0  0  0  0  0  0  0  0  0
   52.6021   30.7277   54.8501 H   0  0  0  0  0  0  0  0  0  0  0  0
   54.9743   30.0404   54.5553 H   0  0  0  0  0  0  0  0  0  0  0  0
   56.7416   28.6816   53.9423 H   0  0  0  0  0  0  0  0  0  0  0  0
   59.2883   26.2776   52.8448 H   0  0  0  0  0  0  0  0  0  0  0  0
   60.2444   27.3122   51.7271 H   0  0  0  0  0  0  0  0  0  0  0  0
   61.6451   25.7320   53.1224 H   0  0  0  0  0  0  0  0  0  0  0  0
   62.0604   27.4753   53.3328 H   0  0  0  0  0  0  0  0  0  0  0  0
   60.6587   27.7808   56.5312 H   0  0  0  0  0  0  0  0  0  0  0  0
   61.5476   28.5705   55.1708 H   0  0  0  0  0  0  0  0  0  0  0  0
   58.5949   27.7713   55.2509 H   0  0  0  0  0  0  0  0  0  0  0  0
   59.2847   29.4310   55.1643 H   0  0  0  0  0  0  0  0  0  0  0  0
   58.5972   28.8336   44.8681 H   0  0  0  0  0  0  0  0  0  0  0  0
   58.5136   27.0417   44.8823 H   0  0  0  0  0  0  0  0  0  0  0  0
   57.5156   31.3829   46.0524 H   0  0  0  0  0  0  0  0  0  0  0  0
   58.5289   33.1363   44.5905 H   0  0  0  0  0  0  0  0  0  0  0  0
   58.2001   33.0457   42.1167 H   0  0  0  0  0  0  0  0  0  0  0  0
   56.8669   31.1956   41.1001 H   0  0  0  0  0  0  0  0  0  0  0  0
   55.8691   29.4277   42.5517 H   0  0  0  0  0  0  0  0  0  0  0  0
   59.1553   25.7502   47.0316 H   0  0  0  0  0  0  0  0  0  0  0  0
   54.6897   30.8821   50.3156 H   0  0  0  0  0  0  0  0  0  0  0  0
   52.3053   31.5352   50.6045 H   0  0  0  0  0  0  0  0  0  0  0  0
  1  2  1  0
  2  3  2  0
  2  4  1  0
  4  5  2  0
  5  6  1  0
  6  7  2  0
  7  8  1  0
  8  9  2  0
  9 10  1  0
 10 11  1  0
 11 12  1  0
 12 13  1  0
 13 14  1  0
 14 15  1  0
 15 16  1  0
 10 17  2  0
 17 18  1  0
 18 19  2  0
 18 20  1  0
 20 21  2  3
 21 22  1  0
 22 23  1  0
 23 24  1  0
 24 25  1  0
 25 26  2  0
 25 27  1  0
 27 28  1  0
 28 29  2  0
 29 30  1  0
 30 31  2  0
 31 32  1  0
 32 33  2  0
 23 34  2  0
 34 35  1  0
 17 36  1  0
  7 37  1  0
 37 38  2  0
 38  4  1  0
 36  8  1  0
 16 11  1  0
 35 21  1  0
 33 28  1  0
  1 39  1  0
  5 40  1  0
  6 41  1  0
  9 42  1  0
 12 43  1  0
 12 44  1  0
 13 45  1  0
 13 46  1  0
 15 47  1  0
 15 48  1  0
 16 49  1  0
 16 50  1  0
 24 51  1  0
 24 52  1  0
 29 53  1  0
 30 54  1  0
 31 55  1  0
 32 56  1  0
 33 57  1  0
 34 58  1  0
 37 59  1  0
 38 60  1  0
M  CHG  3   1  -1  22  -1  27  -1
M  END
>  <UniqueID>  (85) 
79

>  <SMILES>  (85) 
[NH-]C(=O)c1ccc(-c2cc(N3CCOCC3)c(C(=O)N=c3[n-]c(CC(=O)[N-]c4ccccc4)cs3)s2)cc1

>  <Energy>  (85) 
134.91557470475004

>  <Genealogy>  (85) 
[NH-]C(=O)c1ccc(-c2cc(N3CCOCC3)c(C(=O)N=c3[n-]c(CC(=O)[N-]c4ccccc4)cs3)s2)cc1 (protonated)
[NH-]C(=O)c1ccc(-c2cc(N3CCOCC3)c(C(=O)N=c3[n-]c(CC(=O)[N-]c4ccccc4)cs3)s2)cc1 (3D coordinates assigned)
[NH-]C(=O)c1ccc(-c2cc(N3CCOCC3)c(C(=O)N=c3[n-]c(CC(=O)[N-]c4ccccc4)cs3)s2)cc1 (nonaromatic ring conformer: 134.91557470475004 kcal/mol)

>  <smiles>  (85) 
NC(=O)c1ccc(-c2cc(N3CCOCC3)c(C(=O)N=c3[nH]c(CC(=O)Nc4ccccc4)cs3)s2)cc1

>  <score_type>  (85) 
oracle

>  <origin>  (85) 
adg

>  <m_score__min__energy>  (85) 
-14.44

>  <m_primary>  (85) 
energy

$$$$
85:0
     RDKit          3D

 62 66  0  0  0  0  0  0  0  0999 V2000
   58.5620   34.0990   53.6870 C   0  0  0  0  0  0  0  0  0  0  0  0
   59.0280   33.4340   52.4250 C   0  0  0  0  0  0  0  0  0  0  0  0
   59.2800   32.0540   52.4090 C   0  0  0  0  0  0  0  0  0  0  0  0
   59.7490   31.4360   51.2460 C   0  0  0  0  0  0  0  0  0  0  0  0
   59.9790   32.1910   50.0850 C   0  0  0  0  0  0  0  0  0  0  0  0
   60.4620   31.5550   48.8870 N   0  0  0  0  0  0  0  0  0  0  0  0
   61.7420   31.3020   48.5130 C   0  0  0  0  0  0  0  0  0  0  0  0
   62.9510   31.8140   49.1970 C   0  0  0  0  0  0  0  0  0  0  0  0
   63.1070   31.5690   50.5720 C   0  0  0  0  0  0  0  0  0  0  0  0
   64.2090   32.0750   51.2640 C   0  0  0  0  0  0  0  0  0  0  0  0
   65.1630   32.8400   50.5920 C   0  0  0  0  0  0  0  0  0  0  0  0
   65.0220   33.0920   49.2270 C   0  0  0  0  0  0  0  0  0  0  0  0
   63.9260   32.5820   48.5150 C   0  0  0  0  0  0  0  0  0  0  0  0
   63.8470   32.8130   47.1020 N   0  0  0  0  0  0  0  0  0  0  0  0
   61.7780   30.6430   47.3370 N   0  0  0  0  0  0  0  0  0  0  0  0
   60.5250   30.4450   46.9540 N   0  0  0  0  0  0  0  0  0  0  0  0
   60.1160   29.7870   45.7060 C   0  0  0  0  0  0  0  0  0  0  0  0
   58.8940   28.9710   45.8790 N   0  0  0  0  0  0  0  0  0  0  0  0
   59.0700   27.8730   46.8550 C   0  0  0  0  0  0  0  0  0  0  0  0
   57.8470   26.9540   46.8890 C   0  0  0  0  0  0  0  0  0  0  0  0
   57.5620   26.4410   45.5450 N   0  0  0  0  0  0  0  0  0  0  0  0
   56.6650   25.3350   45.3740 C   0  0  0  0  0  0  0  0  0  0  0  0
   57.1650   24.0860   44.9780 C   0  0  0  0  0  0  0  0  0  0  0  0
   56.2990   23.0020   44.8070 C   0  0  0  0  0  0  0  0  0  0  0  0
   54.9280   23.1580   45.0360 C   0  0  0  0  0  0  0  0  0  0  0  0
   54.4240   24.3970   45.4390 C   0  0  0  0  0  0  0  0  0  0  0  0
   55.2870   25.4850   45.6140 C   0  0  0  0  0  0  0  0  0  0  0  0
   54.7730   26.7040   46.0410 O   0  0  0  0  0  0  0  0  0  0  0  0
   58.1710   27.0810   44.3770 C   0  0  0  0  0  0  0  0  0  0  0  0
   58.2340   28.5960   44.6010 C   0  0  0  0  0  0  0  0  0  0  0  0
   59.7360   31.0130   47.8870 C   0  0  0  0  0  0  0  0  0  0  0  0
   58.4760   31.0300   47.8340 O   0  0  0  0  0  0  0  0  0  0  0  0
   59.7450   33.5750   50.1100 C   0  0  0  0  0  0  0  0  0  0  0  0
   59.2780   34.1930   51.2730 C   0  0  0  0  0  0  0  0  0  0  0  0
   58.9486   33.5472   54.5565 H   0  0  0  0  0  0  0  0  0  0  0  0
   58.9334   35.1340   53.7148 H   0  0  0  0  0  0  0  0  0  0  0  0
   57.4624   34.1032   53.7148 H   0  0  0  0  0  0  0  0  0  0  0  0
   59.1078   31.4555   53.3157 H   0  0  0  0  0  0  0  0  0  0  0  0
   59.9388   30.3525   51.2406 H   0  0  0  0  0  0  0  0  0  0  0  0
   62.3538   30.9730   51.1081 H   0  0  0  0  0  0  0  0  0  0  0  0
   64.3251   31.8706   52.3386 H   0  0  0  0  0  0  0  0  0  0  0  0
   66.0272   33.2449   51.1390 H   0  0  0  0  0  0  0  0  0  0  0  0
   65.7776   33.6965   48.7039 H   0  0  0  0  0  0  0  0  0  0  0  0
   64.5190   32.3800   46.4330 H   0  0  0  0  0  0  0  0  0  0  0  0
   63.1500   33.4860   46.7120 H   0  0  0  0  0  0  0  0  0  0  0  0
   62.6280   30.3940   46.7840 H   0  0  0  0  0  0  0  0  0  0  0  0
   59.9224   30.5582   44.9459 H   0  0  0  0  0  0  0  0  0  0  0  0
   60.9298   29.1149   45.3961 H   0  0  0  0  0  0  0  0  0  0  0  0
   59.9539   27.2820   46.5731 H   0  0  0  0  0  0  0  0  0  0  0  0
   59.1982   28.3154   47.8539 H   0  0  0  0  0  0  0  0  0  0  0  0
   58.0455   26.1098   47.5657 H   0  0  0  0  0  0  0  0  0  0  0  0
   56.9781   27.5257   47.2469 H   0  0  0  0  0  0  0  0  0  0  0  0
   58.2432   23.9588   44.8012 H   0  0  0  0  0  0  0  0  0  0  0  0
   56.6960   22.0257   44.4921 H   0  0  0  0  0  0  0  0  0  0  0  0
   54.2468   22.3053   44.8988 H   0  0  0  0  0  0  0  0  0  0  0  0
   53.3456   24.5179   45.6193 H   0  0  0  0  0  0  0  0  0  0  0  0
   59.1885   26.6888   44.2326 H   0  0  0  0  0  0  0  0  0  0  0  0
   57.5660   26.8667   43.4837 H   0  0  0  0  0  0  0  0  0  0  0  0
   58.7958   29.0493   43.7710 H   0  0  0  0  0  0  0  0  0  0  0  0
   57.1982   28.9634   44.6474 H   0  0  0  0  0  0  0  0  0  0  0  0
   59.9305   34.1769   49.2082 H   0  0  0  0  0  0  0  0  0  0  0  0
   59.1058   35.2794   51.2847 H   0  0  0  0  0  0  0  0  0  0  0  0
  1  2  1  0
  2  3  2  0
  3  4  1  0
  4  5  2  0
  5  6  1  0
  6  7  1  0
  7  8  1  0
  8  9  2  0
  9 10  1  0
 10 11  2  0
 11 12  1  0
 12 13  2  0
 13 14  1  0
  7 15  2  0
 15 16  1  0
 16 17  1  0
 17 18  1  0
 18 19  1  0
 19 20  1  0
 20 21  1  0
 21 22  1  0
 22 23  2  0
 23 24  1  0
 24 25  2  0
 25 26  1  0
 26 27  2  0
 27 28  1  0
 21 29  1  0
 29 30  1  0
 16 31  1  0
 31 32  2  0
  5 33  1  0
 33 34  2  0
 34  2  1  0
 31  6  1  0
 13  8  1  0
 30 18  1  0
 27 22  1  0
  1 35  1  0
  1 36  1  0
  1 37  1  0
  3 38  1  0
  4 39  1  0
  9 40  1  0
 10 41  1  0
 11 42  1  0
 12 43  1  0
 14 44  1  0
 14 45  1  0
 15 46  1  0
 17 47  1  0
 17 48  1  0
 19 49  1  0
 19 50  1  0
 20 51  1  0
 20 52  1  0
 23 53  1  0
 24 54  1  0
 25 55  1  0
 26 56  1  0
 29 57  1  0
 29 58  1  0
 30 59  1  0
 30 60  1  0
 33 61  1  0
 34 62  1  0
M  CHG  2  15   1  28  -1
M  END
>  <UniqueID>  (86) 
80

>  <SMILES>  (86) 
Cc1ccc(-n2c(-c3ccccc3N)[nH+]n(CN3CCN(c4ccccc4[O-])CC3)c2=O)cc1

>  <Energy>  (86) 
129.10225725051112

>  <Genealogy>  (86) 
Cc1ccc(-n2c(-c3ccccc3N)[nH+]n(CN3CCN(c4ccccc4[O-])CC3)c2=O)cc1 (protonated)
Cc1ccc(-n2c(-c3ccccc3N)[nH+]n(CN3CCN(c4ccccc4[O-])CC3)c2=O)cc1 (3D coordinates assigned)
Cc1ccc(-n2c(-c3ccccc3N)[nH+]n(CN3CCN(c4ccccc4[O-])CC3)c2=O)cc1 (nonaromatic ring conformer: 129.10225725051112 kcal/mol)

>  <smiles>  (86) 
Cc1ccc(-n2c(-c3ccccc3N)nn(CN3CCN(c4ccccc4O)CC3)c2=O)cc1

>  <score_type>  (86) 
oracle

>  <origin>  (86) 
adg

>  <m_score__min__energy>  (86) 
-10.890000000000001

>  <m_primary>  (86) 
energy

$$$$
86:0
     RDKit          3D

 39 40  0  0  0  0  0  0  0  0999 V2000
   57.0090   34.2110   45.1990 C   0  0  0  0  0  0  0  0  0  0  0  0
   57.9300   33.3350   46.0020 C   0  0  0  0  0  0  0  0  0  0  0  0
   58.8180   33.9260   46.9160 C   0  0  0  0  0  0  0  0  0  0  0  0
   59.6890   33.1370   47.6900 C   0  0  0  0  0  0  0  0  0  0  0  0
   60.6240   33.7800   48.6480 C   0  0  0  0  0  0  0  0  0  0  0  0
   60.1870   34.6460   49.4570 O   0  0  0  0  0  0  0  0  0  0  0  0
   62.0630   33.4410   48.6870 C   0  0  0  0  0  0  0  0  0  0  0  0
   62.9400   33.4670   47.6110 C   0  0  0  0  0  0  0  0  0  0  0  0
   62.5990   33.8440   46.2020 C   0  0  0  0  0  0  0  0  0  0  0  0
   64.1700   33.0820   48.0020 N   0  0  0  0  0  0  0  0  0  0  0  0
   64.0960   32.8070   49.3200 C   0  0  0  0  0  0  0  0  0  0  0  0
   65.2490   32.2960   50.1270 C   0  0  0  0  0  0  0  0  0  0  0  0
   62.7990   32.9920   49.7780 C   0  0  0  0  0  0  0  0  0  0  0  0
   62.3030   32.7250   51.1690 C   0  0  0  0  0  0  0  0  0  0  0  0
   59.6360   31.7390   47.5600 C   0  0  0  0  0  0  0  0  0  0  0  0
   58.7800   31.1470   46.6300 C   0  0  0  0  0  0  0  0  0  0  0  0
   57.9440   31.9370   45.8320 C   0  0  0  0  0  0  0  0  0  0  0  0
   57.1360   31.3080   44.8850 O   0  0  0  0  0  0  0  0  0  0  0  0
   56.8280   29.6300   44.9630 S   0  0  0  0  0  0  0  0  0  0  0  0
   55.1430   29.3440   44.6990 N   0  0  0  0  0  0  0  0  0  0  0  0
   57.6230   28.9160   43.9080 O   0  0  0  0  0  0  0  0  0  0  0  0
   57.2120   29.1030   46.3170 O   0  0  0  0  0  0  0  0  0  0  0  0
   56.3830   34.8064   45.8800 H   0  0  0  0  0  0  0  0  0  0  0  0
   57.6040   34.8846   44.5648 H   0  0  0  0  0  0  0  0  0  0  0  0
   56.3661   33.5830   44.5648 H   0  0  0  0  0  0  0  0  0  0  0  0
   58.8327   35.0202   47.0282 H   0  0  0  0  0  0  0  0  0  0  0  0
   61.8611   34.6598   46.2091 H   0  0  0  0  0  0  0  0  0  0  0  0
   63.5088   34.1770   45.6811 H   0  0  0  0  0  0  0  0  0  0  0  0
   62.1766   32.9721   45.6811 H   0  0  0  0  0  0  0  0  0  0  0  0
   65.0200   33.0070   47.3990 H   0  0  0  0  0  0  0  0  0  0  0  0
   65.0203   32.3973   51.1982 H   0  0  0  0  0  0  0  0  0  0  0  0
   65.4230   31.2365   49.8878 H   0  0  0  0  0  0  0  0  0  0  0  0
   66.1508   32.8787   49.8878 H   0  0  0  0  0  0  0  0  0  0  0  0
   63.0282   33.1154   51.8981 H   0  0  0  0  0  0  0  0  0  0  0  0
   61.3329   33.2228   51.3142 H   0  0  0  0  0  0  0  0  0  0  0  0
   62.1843   31.6411   51.3142 H   0  0  0  0  0  0  0  0  0  0  0  0
   60.2735   31.1067   48.1955 H   0  0  0  0  0  0  0  0  0  0  0  0
   58.7621   30.0523   46.5234 H   0  0  0  0  0  0  0  0  0  0  0  0
   54.6830   29.3670   45.6370 H   0  0  0  0  0  0  0  0  0  0  0  0
  1  2  1  0
  2  3  2  0
  3  4  1  0
  4  5  1  0
  5  6  2  0
  5  7  1  0
  7  8  2  0
  8  9  1  0
  8 10  1  0
 10 11  1  0
 11 12  1  0
 11 13  2  0
 13 14  1  0
  4 15  2  0
 15 16  1  0
 16 17  2  0
 17 18  1  0
 18 19  1  0
 19 20  1  0
 19 21  2  0
 19 22  2  0
 17  2  1  0
 13  7  1  0
  1 23  1  0
  1 24  1  0
  1 25  1  0
  3 26  1  0
  9 27  1  0
  9 28  1  0
  9 29  1  0
 10 30  1  0
 12 31  1  0
 12 32  1  0
 12 33  1  0
 14 34  1  0
 14 35  1  0
 14 36  1  0
 15 37  1  0
 16 38  1  0
 20 39  1  0
M  CHG  1  20  -1
M  END
>  <UniqueID>  (87) 
81

>  <SMILES>  (87) 
Cc1cc(C(=O)c2c(C)[nH]c(C)c2C)ccc1OS([NH-])(=O)=O

>  <Energy>  (87) 
72.30124647534267

>  <Genealogy>  (87) 
Cc1cc(C(=O)c2c(C)[nH]c(C)c2C)ccc1OS([NH-])(=O)=O (protonated)
Cc1cc(C(=O)c2c(C)[nH]c(C)c2C)ccc1OS([NH-])(=O)=O (3D coordinates assigned)
Cc1cc(C(=O)c2c(C)[nH]c(C)c2C)ccc1OS([NH-])(=O)=O (optimized conformer: 72.30124647534267 kcal/mol)

>  <smiles>  (87) 
Cc1cc(C(=O)c2c(C)[nH]c(C)c2C)ccc1OS(N)(=O)=O

>  <score_type>  (87) 
oracle

>  <origin>  (87) 
adg

>  <m_score__min__energy>  (87) 
-11.23

>  <m_primary>  (87) 
energy

$$$$
87:0
     RDKit          3D

 36 37  0  0  0  0  0  0  0  0999 V2000
   56.0350   31.4610   52.2740 C   0  0  0  0  0  0  0  0  0  0  0  0
   57.0330   31.7530   51.2520 N   0  0  0  0  0  0  0  0  0  0  0  0
   58.0330   30.7950   50.8800 C   0  0  0  0  0  0  0  0  0  0  0  0
   58.1610   29.7330   51.5500 O   0  0  0  0  0  0  0  0  0  0  0  0
   58.9450   31.0460   49.7400 C   0  0  0  0  0  0  0  0  0  0  0  0
   59.5130   32.3210   49.5780 C   0  0  0  0  0  0  0  0  0  0  0  0
   60.3710   32.5820   48.5080 C   0  0  0  0  0  0  0  0  0  0  0  0
   60.6800   31.5740   47.5940 C   0  0  0  0  0  0  0  0  0  0  0  0
   60.1380   30.2880   47.7480 C   0  0  0  0  0  0  0  0  0  0  0  0
   60.4480   29.2200   46.8420 N   0  0  0  0  0  0  0  0  0  0  0  0
   59.5370   28.8110   45.4250 S   0  0  0  0  0  0  0  0  0  0  0  0
   60.4910   28.3850   44.3430 O   0  0  0  0  0  0  0  0  0  0  0  0
   58.7460   29.9980   44.9550 O   0  0  0  0  0  0  0  0  0  0  0  0
   58.4230   27.4870   45.8070 C   0  0  0  0  0  0  0  0  0  0  0  0
   58.9580   26.2590   46.2300 C   0  0  0  0  0  0  0  0  0  0  0  0
   58.1210   25.1940   46.5610 C   0  0  0  0  0  0  0  0  0  0  0  0
   56.7390   25.3410   46.4810 C   0  0  0  0  0  0  0  0  0  0  0  0
   56.1820   26.5500   46.0580 C   0  0  0  0  0  0  0  0  0  0  0  0
   54.7970   26.6680   46.0050 O   0  0  0  0  0  0  0  0  0  0  0  0
   57.0140   27.6320   45.6940 C   0  0  0  0  0  0  0  0  0  0  0  0
   56.3900   28.9350   45.2550 C   0  0  0  0  0  0  0  0  0  0  0  0
   59.2770   30.0260   48.8240 C   0  0  0  0  0  0  0  0  0  0  0  0
   58.8070   28.7640   48.9960 F   0  0  0  0  0  0  0  0  0  0  0  0
   56.4817   31.5917   53.2707 H   0  0  0  0  0  0  0  0  0  0  0  0
   55.1829   32.1475   52.1612 H   0  0  0  0  0  0  0  0  0  0  0  0
   55.6874   30.4235   52.1612 H   0  0  0  0  0  0  0  0  0  0  0  0
   57.0380   32.7070   50.8230 H   0  0  0  0  0  0  0  0  0  0  0  0
   59.2801   33.1186   50.2989 H   0  0  0  0  0  0  0  0  0  0  0  0
   60.8047   33.5854   48.3851 H   0  0  0  0  0  0  0  0  0  0  0  0
   61.3512   31.7878   46.7491 H   0  0  0  0  0  0  0  0  0  0  0  0
   60.0488   26.1362   46.3009 H   0  0  0  0  0  0  0  0  0  0  0  0
   58.5534   24.2362   46.8859 H   0  0  0  0  0  0  0  0  0  0  0  0
   56.0825   24.5010   46.7522 H   0  0  0  0  0  0  0  0  0  0  0  0
   56.1082   29.5234   46.1407 H   0  0  0  0  0  0  0  0  0  0  0  0
   57.1136   29.5034   44.6523 H   0  0  0  0  0  0  0  0  0  0  0  0
   55.4935   28.7275   44.6523 H   0  0  0  0  0  0  0  0  0  0  0  0
  1  2  1  0
  2  3  1  0
  3  4  2  0
  3  5  1  0
  5  6  2  0
  6  7  1  0
  7  8  2  0
  8  9  1  0
  9 10  1  0
 10 11  1  0
 11 12  2  0
 11 13  2  0
 11 14  1  0
 14 15  2  0
 15 16  1  0
 16 17  2  0
 17 18  1  0
 18 19  1  0
 18 20  2  0
 20 21  1  0
  9 22  2  0
 22 23  1  0
 22  5  1  0
 20 14  1  0
  1 24  1  0
  1 25  1  0
  1 26  1  0
  2 27  1  0
  6 28  1  0
  7 29  1  0
  8 30  1  0
 15 31  1  0
 16 32  1  0
 17 33  1  0
 21 34  1  0
 21 35  1  0
 21 36  1  0
M  CHG  2  10  -1  19  -1
M  END
>  <UniqueID>  (88) 
82

>  <SMILES>  (88) 
CNC(=O)c1cccc([N-]S(=O)(=O)c2cccc([O-])c2C)c1F

>  <Energy>  (88) 
44.395112835684984

>  <Genealogy>  (88) 
CNC(=O)c1cccc([N-]S(=O)(=O)c2cccc([O-])c2C)c1F (protonated)
CNC(=O)c1cccc([N-]S(=O)(=O)c2cccc([O-])c2C)c1F (3D coordinates assigned)
CNC(=O)c1cccc([N-]S(=O)(=O)c2cccc([O-])c2C)c1F (optimized conformer: 44.395112835684984 kcal/mol)

>  <smiles>  (88) 
CNC(=O)c1cccc(NS(=O)(=O)c2cccc(O)c2C)c1F

>  <score_type>  (88) 
oracle

>  <origin>  (88) 
adg

>  <m_score__min__energy>  (88) 
-11.58

>  <m_primary>  (88) 
energy

$$$$
88:0
     RDKit          3D

 42 44  0  0  0  0  0  0  0  0999 V2000
   60.5390   28.4440   46.9620 O   0  0  0  0  0  0  0  0  0  0  0  0
   59.2820   28.5710   46.3770 C   0  0  0  0  0  0  0  0  0  0  0  0
   58.3300   27.5280   46.4850 C   0  0  0  0  0  0  0  0  0  0  0  0
   57.0600   27.6570   45.8950 C   0  0  0  0  0  0  0  0  0  0  0  0
   56.7750   28.8340   45.2080 C   0  0  0  0  0  0  0  0  0  0  0  0
   55.6270   29.1570   44.5880 N   0  0  0  0  0  0  0  0  0  0  0  0
   55.8120   30.3960   44.0780 C   0  0  0  0  0  0  0  0  0  0  0  0
   57.0920   30.8570   44.3720 C   0  0  0  0  0  0  0  0  0  0  0  0
   57.6490   32.2090   44.0300 C   0  0  0  0  0  0  0  0  0  0  0  0
   57.0320   33.3050   44.9060 C   0  0  0  0  0  0  0  0  0  0  0  0
   57.4090   33.1470   46.3130 N   0  0  0  0  0  0  0  0  0  0  0  0
   58.6570   33.6170   46.8500 C   0  0  0  0  0  0  0  0  0  0  0  0
   59.7860   34.2990   45.8630 S   0  0  0  0  0  0  0  0  0  0  0  0
   58.9130   33.4570   48.2560 N   0  0  0  0  0  0  0  0  0  0  0  0
   60.0440   34.0600   48.9610 C   0  0  0  0  0  0  0  0  0  0  0  0
   61.3330   33.4060   48.5430 C   0  0  0  0  0  0  0  0  0  0  0  0
   61.3190   32.1140   47.9910 C   0  0  0  0  0  0  0  0  0  0  0  0
   62.5140   31.4980   47.6070 C   0  0  0  0  0  0  0  0  0  0  0  0
   63.7300   32.1680   47.7690 C   0  0  0  0  0  0  0  0  0  0  0  0
   63.7530   33.4550   48.3130 C   0  0  0  0  0  0  0  0  0  0  0  0
   62.5590   34.0750   48.6970 C   0  0  0  0  0  0  0  0  0  0  0  0
   57.6950   29.8470   45.1010 C   0  0  0  0  0  0  0  0  0  0  0  0
   58.9630   29.7490   45.6750 C   0  0  0  0  0  0  0  0  0  0  0  0
   60.6740   27.9150   47.8160 H   0  0  0  0  0  0  0  0  0  0  0  0
   58.5859   26.6101   47.0345 H   0  0  0  0  0  0  0  0  0  0  0  0
   56.3142   26.8523   45.9739 H   0  0  0  0  0  0  0  0  0  0  0  0
   54.7620   28.5770   44.5210 H   0  0  0  0  0  0  0  0  0  0  0  0
   55.0570   30.9600   43.5106 H   0  0  0  0  0  0  0  0  0  0  0  0
   58.7379   32.1973   44.1851 H   0  0  0  0  0  0  0  0  0  0  0  0
   57.4071   32.4278   42.9795 H   0  0  0  0  0  0  0  0  0  0  0  0
   57.3821   34.2854   44.5506 H   0  0  0  0  0  0  0  0  0  0  0  0
   55.9371   33.2285   44.8325 H   0  0  0  0  0  0  0  0  0  0  0  0
   56.7430   32.6880   46.9740 H   0  0  0  0  0  0  0  0  0  0  0  0
   58.2250   32.9140   48.8250 H   0  0  0  0  0  0  0  0  0  0  0  0
   60.0885   35.1331   48.7233 H   0  0  0  0  0  0  0  0  0  0  0  0
   59.9065   33.9173   50.0430 H   0  0  0  0  0  0  0  0  0  0  0  0
   60.3636   31.5847   47.8604 H   0  0  0  0  0  0  0  0  0  0  0  0
   62.4972   30.4856   47.1772 H   0  0  0  0  0  0  0  0  0  0  0  0
   64.6697   31.6818   47.4680 H   0  0  0  0  0  0  0  0  0  0  0  0
   64.7107   33.9811   48.4394 H   0  0  0  0  0  0  0  0  0  0  0  0
   62.5801   35.0898   49.1210 H   0  0  0  0  0  0  0  0  0  0  0  0
   59.6917   30.5677   45.5818 H   0  0  0  0  0  0  0  0  0  0  0  0
  1  2  1  0
  2  3  2  0
  3  4  1  0
  4  5  2  0
  5  6  1  0
  6  7  1  0
  7  8  2  0
  8  9  1  0
  9 10  1  0
 10 11  1  0
 11 12  1  0
 12 13  2  0
 12 14  1  0
 14 15  1  0
 15 16  1  0
 16 17  2  0
 17 18  1  0
 18 19  2  0
 19 20  1  0
 20 21  2  0
  8 22  1  0
 22 23  2  0
 23  2  1  0
 22  5  1  0
 21 16  1  0
  1 24  1  0
  3 25  1  0
  4 26  1  0
  6 27  1  0
  7 28  1  0
  9 29  1  0
  9 30  1  0
 10 31  1  0
 10 32  1  0
 11 33  1  0
 14 34  1  0
 15 35  1  0
 15 36  1  0
 17 37  1  0
 18 38  1  0
 19 39  1  0
 20 40  1  0
 21 41  1  0
 23 42  1  0
M  END
>  <UniqueID>  (89) 
83

>  <SMILES>  (89) 
Oc1ccc2[nH]cc(CCNC(=S)NCc3ccccc3)c2c1

>  <Energy>  (89) 
70.7838835036484

>  <Genealogy>  (89) 
Oc1ccc2[nH]cc(CCNC(=S)NCc3ccccc3)c2c1 (3D coordinates assigned)
Oc1ccc2[nH]cc(CCNC(=S)NCc3ccccc3)c2c1 (optimized conformer: 70.7838835036484 kcal/mol)

>  <smiles>  (89) 
Oc1ccc2[nH]cc(CCNC(=S)NCc3ccccc3)c2c1

>  <score_type>  (89) 
oracle

>  <origin>  (89) 
adg

>  <m_score__min__energy>  (89) 
-8.6699999999999999

>  <m_primary>  (89) 
energy

$$$$
89:0
     RDKit          3D

 60 64  0  0  0  0  0  0  0  0999 V2000
   55.1750   29.3420   44.8480 O   0  0  0  0  0  0  0  0  0  0  0  0
   56.2590   29.9330   44.5920 C   0  0  0  0  0  0  0  0  0  0  0  0
   56.2980   31.3590   44.4080 N   0  0  0  0  0  0  0  0  0  0  0  0
   57.1980   32.1830   44.8590 C   0  0  0  0  0  0  0  0  0  0  0  0
   57.9440   32.9510   44.0160 N   0  0  0  0  0  0  0  0  0  0  0  0
   58.8810   33.8110   44.4910 C   0  0  0  0  0  0  0  0  0  0  0  0
   59.0920   33.9240   45.8700 C   0  0  0  0  0  0  0  0  0  0  0  0
   60.1490   34.8430   46.4170 C   0  0  0  0  0  0  0  0  0  0  0  0
   61.2460   34.0450   47.0690 C   0  0  0  0  0  0  0  0  0  0  0  0
   62.4740   33.8680   46.4140 C   0  0  0  0  0  0  0  0  0  0  0  0
   63.5070   33.1610   47.0340 C   0  0  0  0  0  0  0  0  0  0  0  0
   63.3230   32.6270   48.3120 C   0  0  0  0  0  0  0  0  0  0  0  0
   62.0980   32.7880   48.9810 C   0  0  0  0  0  0  0  0  0  0  0  0
   61.9010   32.2330   50.3400 C   0  0  0  0  0  0  0  0  0  0  0  0
   62.8980   32.1060   51.1030 O   0  0  0  0  0  0  0  0  0  0  0  0
   60.6030   31.8150   50.8000 N   0  0  0  0  0  0  0  0  0  0  0  0
   59.4290   32.6790   50.6090 C   0  0  0  0  0  0  0  0  0  0  0  0
   58.1980   31.8560   50.1860 C   0  0  0  0  0  0  0  0  0  0  0  0
   58.1530   30.4440   50.8080 C   0  0  0  0  0  0  0  0  0  0  0  0
   59.0500   30.3190   52.0420 C   0  0  0  0  0  0  0  0  0  0  0  0
   60.5060   30.6350   51.6730 C   0  0  0  0  0  0  0  0  0  0  0  0
   61.0690   33.5160   48.3580 C   0  0  0  0  0  0  0  0  0  0  0  0
   58.3260   33.1170   46.7190 C   0  0  0  0  0  0  0  0  0  0  0  0
   57.3970   32.2730   46.1990 N   0  0  0  0  0  0  0  0  0  0  0  0
   57.4660   29.1630   44.5470 N   0  0  0  0  0  0  0  0  0  0  0  0
   57.9350   28.2540   45.5570 C   0  0  0  0  0  0  0  0  0  0  0  0
   57.4160   26.9500   45.6500 C   0  0  0  0  0  0  0  0  0  0  0  0
   57.8580   26.0770   46.6440 C   0  0  0  0  0  0  0  0  0  0  0  0
   58.8110   26.4930   47.5730 C   0  0  0  0  0  0  0  0  0  0  0  0
   59.3230   27.7960   47.5230 C   0  0  0  0  0  0  0  0  0  0  0  0
   60.2690   28.2210   48.4680 C   0  0  0  0  0  0  0  0  0  0  0  0
   60.7770   29.5210   48.4200 C   0  0  0  0  0  0  0  0  0  0  0  0
   60.3470   30.4060   47.4290 C   0  0  0  0  0  0  0  0  0  0  0  0
   59.4080   29.9980   46.4800 C   0  0  0  0  0  0  0  0  0  0  0  0
   58.8810   28.6910   46.5120 C   0  0  0  0  0  0  0  0  0  0  0  0
   59.4743   34.4189   43.7921 H   0  0  0  0  0  0  0  0  0  0  0  0
   60.5727   35.4391   45.5953 H   0  0  0  0  0  0  0  0  0  0  0  0
   59.6940   35.5066   47.1671 H   0  0  0  0  0  0  0  0  0  0  0  0
   62.6240   34.2876   45.4083 H   0  0  0  0  0  0  0  0  0  0  0  0
   64.4672   33.0244   46.5151 H   0  0  0  0  0  0  0  0  0  0  0  0
   64.1426   32.0770   48.7975 H   0  0  0  0  0  0  0  0  0  0  0  0
   59.2072   33.1977   51.5533 H   0  0  0  0  0  0  0  0  0  0  0  0
   59.6547   33.4043   49.8133 H   0  0  0  0  0  0  0  0  0  0  0  0
   57.2934   32.4005   50.4944 H   0  0  0  0  0  0  0  0  0  0  0  0
   58.2574   31.7255   49.0954 H   0  0  0  0  0  0  0  0  0  0  0  0
   57.1166   30.2203   51.1010 H   0  0  0  0  0  0  0  0  0  0  0  0
   58.5217   29.7340   50.0531 H   0  0  0  0  0  0  0  0  0  0  0  0
   58.7087   31.0261   52.8124 H   0  0  0  0  0  0  0  0  0  0  0  0
   58.9921   29.2895   52.4251 H   0  0  0  0  0  0  0  0  0  0  0  0
   61.0739   30.8265   52.5954 H   0  0  0  0  0  0  0  0  0  0  0  0
   60.9166   29.7717   51.1289 H   0  0  0  0  0  0  0  0  0  0  0  0
   60.1163   33.6727   48.8851 H   0  0  0  0  0  0  0  0  0  0  0  0
   58.4762   33.1661   47.8076 H   0  0  0  0  0  0  0  0  0  0  0  0
   56.6535   26.6152   44.9313 H   0  0  0  0  0  0  0  0  0  0  0  0
   57.4529   25.0556   46.6953 H   0  0  0  0  0  0  0  0  0  0  0  0
   59.1620   25.7956   48.3479 H   0  0  0  0  0  0  0  0  0  0  0  0
   60.6119   27.5274   49.2499 H   0  0  0  0  0  0  0  0  0  0  0  0
   61.5175   29.8486   49.1645 H   0  0  0  0  0  0  0  0  0  0  0  0
   60.7499   31.4290   47.3960 H   0  0  0  0  0  0  0  0  0  0  0  0
   59.0770   30.7014   45.7017 H   0  0  0  0  0  0  0  0  0  0  0  0
  1  2  2  0
  2  3  1  0
  3  4  2  3
  4  5  1  0
  5  6  2  0
  6  7  1  0
  7  8  1  0
  8  9  1  0
  9 10  2  0
 10 11  1  0
 11 12  2  0
 12 13  1  0
 13 14  1  0
 14 15  2  0
 14 16  1  0
 16 17  1  0
 17 18  1  0
 18 19  1  0
 19 20  1  0
 20 21  1  0
 13 22  2  0
  7 23  2  0
 23 24  1  0
  2 25  1  0
 25 26  1  0
 26 27  2  0
 27 28  1  0
 28 29  2  0
 29 30  1  0
 30 31  2  0
 31 32  1  0
 32 33  2  0
 33 34  1  0
 34 35  2  0
 24  4  1  0
 35 26  1  0
 22  9  1  0
 35 30  1  0
 21 16  1  0
  6 36  1  0
  8 37  1  0
  8 38  1  0
 10 39  1  0
 11 40  1  0
 12 41  1  0
 17 42  1  0
 17 43  1  0
 18 44  1  0
 18 45  1  0
 19 46  1  0
 19 47  1  0
 20 48  1  0
 20 49  1  0
 21 50  1  0
 21 51  1  0
 22 52  1  0
 23 53  1  0
 27 54  1  0
 28 55  1  0
 29 56  1  0
 31 57  1  0
 32 58  1  0
 33 59  1  0
 34 60  1  0
M  CHG  2  24  -1  25  -1
M  END
>  <UniqueID>  (90) 
84

>  <SMILES>  (90) 
O=C(N=c1ncc(Cc2cccc(C(=O)N3CCCCC3)c2)c[n-]1)[N-]c1cccc2ccccc12

>  <Energy>  (90) 
80.83591456102053

>  <Genealogy>  (90) 
O=C(N=c1ncc(Cc2cccc(C(=O)N3CCCCC3)c2)c[n-]1)[N-]c1cccc2ccccc12 (protonated)
O=C(N=c1ncc(Cc2cccc(C(=O)N3CCCCC3)c2)c[n-]1)[N-]c1cccc2ccccc12 (3D coordinates assigned)
O=C(N=c1ncc(Cc2cccc(C(=O)N3CCCCC3)c2)c[n-]1)[N-]c1cccc2ccccc12 (nonaromatic ring conformer: 80.83591456102053 kcal/mol)

>  <smiles>  (90) 
O=C(N=c1ncc(Cc2cccc(C(=O)N3CCCCC3)c2)c[nH]1)Nc1cccc2ccccc12

>  <score_type>  (90) 
oracle

>  <origin>  (90) 
adg

>  <m_score__min__energy>  (90) 
-13.449999999999999

>  <m_primary>  (90) 
energy

$$$$
90:0
     RDKit          3D

 43 45  0  0  0  0  0  0  0  0999 V2000
   56.2760   21.3790   42.6100 N   0  0  0  0  0  0  0  0  0  0  0  0
   56.4070   22.0200   43.5640 C   0  0  0  0  0  0  0  0  0  0  0  0
   56.5720   22.8200   44.7500 C   0  0  0  0  0  0  0  0  0  0  0  0
   56.7720   22.2000   45.9890 C   0  0  0  0  0  0  0  0  0  0  0  0
   56.9370   22.9760   47.1380 C   0  0  0  0  0  0  0  0  0  0  0  0
   56.8980   24.3710   47.0580 C   0  0  0  0  0  0  0  0  0  0  0  0
   56.6850   25.0080   45.8200 C   0  0  0  0  0  0  0  0  0  0  0  0
   56.6450   26.4860   45.7090 C   0  0  0  0  0  0  0  0  0  0  0  0
   55.5720   27.0890   45.9850 O   0  0  0  0  0  0  0  0  0  0  0  0
   57.8000   27.2350   45.2850 N   0  0  0  0  0  0  0  0  0  0  0  0
   57.8560   28.6710   45.2540 C   0  0  0  0  0  0  0  0  0  0  0  0
   56.9480   29.4250   44.4880 C   0  0  0  0  0  0  0  0  0  0  0  0
   57.0060   30.8220   44.4970 C   0  0  0  0  0  0  0  0  0  0  0  0
   57.9580   31.4850   45.2830 C   0  0  0  0  0  0  0  0  0  0  0  0
   58.0230   33.2490   45.2980 S   0  0  0  0  0  0  0  0  0  0  0  0
   56.6360   33.7910   45.5040 O   0  0  0  0  0  0  0  0  0  0  0  0
   58.5190   33.7370   43.9650 O   0  0  0  0  0  0  0  0  0  0  0  0
   59.0700   33.8510   46.5600 N   0  0  0  0  0  0  0  0  0  0  0  0
   58.6870   33.2840   47.8610 C   0  0  0  0  0  0  0  0  0  0  0  0
   59.6060   33.8460   48.9680 C   0  0  0  0  0  0  0  0  0  0  0  0
   60.6770   34.6100   48.4410 O   0  0  0  0  0  0  0  0  0  0  0  0
   61.3760   33.8530   47.4720 C   0  0  0  0  0  0  0  0  0  0  0  0
   60.4760   33.5340   46.2610 C   0  0  0  0  0  0  0  0  0  0  0  0
   58.8500   30.7380   46.0630 C   0  0  0  0  0  0  0  0  0  0  0  0
   58.7920   29.3410   46.0560 C   0  0  0  0  0  0  0  0  0  0  0  0
   56.5340   24.2180   44.6660 C   0  0  0  0  0  0  0  0  0  0  0  0
   56.7991   21.1025   46.0574 H   0  0  0  0  0  0  0  0  0  0  0  0
   57.0984   22.4875   48.1103 H   0  0  0  0  0  0  0  0  0  0  0  0
   57.0345   24.9748   47.9673 H   0  0  0  0  0  0  0  0  0  0  0  0
   58.6380   26.7240   44.9310 H   0  0  0  0  0  0  0  0  0  0  0  0
   56.1886   28.9128   43.8789 H   0  0  0  0  0  0  0  0  0  0  0  0
   56.3011   31.4032   43.8843 H   0  0  0  0  0  0  0  0  0  0  0  0
   57.6431   33.5510   48.0826 H   0  0  0  0  0  0  0  0  0  0  0  0
   58.7901   32.1894   47.8245 H   0  0  0  0  0  0  0  0  0  0  0  0
   59.0080   34.4866   49.6329 H   0  0  0  0  0  0  0  0  0  0  0  0
   60.0370   32.9932   49.5129 H   0  0  0  0  0  0  0  0  0  0  0  0
   62.2493   34.4272   47.1291 H   0  0  0  0  0  0  0  0  0  0  0  0
   61.6925   32.9049   47.9313 H   0  0  0  0  0  0  0  0  0  0  0  0
   60.8055   34.1322   45.3987 H   0  0  0  0  0  0  0  0  0  0  0  0
   60.5560   32.4607   46.0338 H   0  0  0  0  0  0  0  0  0  0  0  0
   59.5988   31.2523   46.6833 H   0  0  0  0  0  0  0  0  0  0  0  0
   59.4856   28.7628   46.6842 H   0  0  0  0  0  0  0  0  0  0  0  0
   56.3848   24.7019   43.6895 H   0  0  0  0  0  0  0  0  0  0  0  0
  1  2  3  0
  2  3  1  0
  3  4  2  0
  4  5  1  0
  5  6  2  0
  6  7  1  0
  7  8  1  0
  8  9  2  0
  8 10  1  0
 10 11  1  0
 11 12  2  0
 12 13  1  0
 13 14  2  0
 14 15  1  0
 15 16  2  0
 15 17  2  0
 15 18  1  0
 18 19  1  0
 19 20  1  0
 20 21  1  0
 21 22  1  0
 22 23  1  0
 14 24  1  0
 24 25  2  0
  7 26  2  0
 26  3  1  0
 25 11  1  0
 23 18  1  0
  4 27  1  0
  5 28  1  0
  6 29  1  0
 10 30  1  0
 12 31  1  0
 13 32  1  0
 19 33  1  0
 19 34  1  0
 20 35  1  0
 20 36  1  0
 22 37  1  0
 22 38  1  0
 23 39  1  0
 23 40  1  0
 24 41  1  0
 25 42  1  0
 26 43  1  0
M  END
>  <UniqueID>  (91) 
85

>  <SMILES>  (91) 
N#Cc1cccc(C(=O)Nc2ccc(S(=O)(=O)N3CCOCC3)cc2)c1

>  <Energy>  (91) 
57.871392537990715

>  <Genealogy>  (91) 
N#Cc1cccc(C(=O)Nc2ccc(S(=O)(=O)N3CCOCC3)cc2)c1 (3D coordinates assigned)
N#Cc1cccc(C(=O)Nc2ccc(S(=O)(=O)N3CCOCC3)cc2)c1 (nonaromatic ring conformer: 57.871392537990715 kcal/mol)

>  <smiles>  (91) 
N#Cc1cccc(C(=O)Nc2ccc(S(=O)(=O)N3CCOCC3)cc2)c1

>  <score_type>  (91) 
oracle

>  <origin>  (91) 
adg

>  <m_score__min__energy>  (91) 
-8.8200000000000003

>  <m_primary>  (91) 
energy

$$$$
91:0
     RDKit          3D

 59 62  0  0  0  0  0  0  0  0999 V2000
   53.9850   23.7020   45.7180 C   0  0  0  0  0  0  0  0  0  0  0  0
   55.1640   24.1510   46.3790 O   0  0  0  0  0  0  0  0  0  0  0  0
   56.0710   25.0750   45.8400 C   0  0  0  0  0  0  0  0  0  0  0  0
   56.2930   26.3410   46.4170 C   0  0  0  0  0  0  0  0  0  0  0  0
   57.2050   27.2270   45.8390 C   0  0  0  0  0  0  0  0  0  0  0  0
   57.9120   26.8650   44.6820 C   0  0  0  0  0  0  0  0  0  0  0  0
   58.8590   27.8370   44.0280 C   0  0  0  0  0  0  0  0  0  0  0  0
   58.3290   29.2080   44.1260 N   0  0  0  0  0  0  0  0  0  0  0  0
   57.2200   29.5360   43.3970 C   0  0  0  0  0  0  0  0  0  0  0  0
   56.6500   30.8030   43.4940 C   0  0  0  0  0  0  0  0  0  0  0  0
   57.2190   31.7470   44.3420 C   0  0  0  0  0  0  0  0  0  0  0  0
   58.3610   31.4270   45.0890 C   0  0  0  0  0  0  0  0  0  0  0  0
   58.9500   32.4470   45.9910 C   0  0  0  0  0  0  0  0  0  0  0  0
   58.3340   33.5290   46.1890 O   0  0  0  0  0  0  0  0  0  0  0  0
   60.2380   32.2390   46.5930 N   0  0  0  0  0  0  0  0  0  0  0  0
   60.6760   32.8970   47.7950 C   0  0  0  0  0  0  0  0  0  0  0  0
   61.8950   33.5910   47.7940 C   0  0  0  0  0  0  0  0  0  0  0  0
   62.3550   34.2140   48.9570 C   0  0  0  0  0  0  0  0  0  0  0  0
   61.6090   34.1380   50.1350 C   0  0  0  0  0  0  0  0  0  0  0  0
   60.4010   33.4280   50.1590 C   0  0  0  0  0  0  0  0  0  0  0  0
   59.4720   33.3040   51.6550 S   0  0  0  0  0  0  0  0  0  0  0  0
   58.7220   34.5880   51.8750 O   0  0  0  0  0  0  0  0  0  0  0  0
   60.4160   33.1140   52.8100 O   0  0  0  0  0  0  0  0  0  0  0  0
   58.3430   31.9730   51.6140 N   0  0  0  0  0  0  0  0  0  0  0  0
   58.8630   30.8280   52.3740 C   0  0  0  0  0  0  0  0  0  0  0  0
   57.8610   29.6540   52.3040 C   0  0  0  0  0  0  0  0  0  0  0  0
   56.6400   30.0260   51.6880 O   0  0  0  0  0  0  0  0  0  0  0  0
   56.1080   31.1690   52.3290 C   0  0  0  0  0  0  0  0  0  0  0  0
   57.0370   32.3890   52.1510 C   0  0  0  0  0  0  0  0  0  0  0  0
   59.9380   32.8080   48.9900 C   0  0  0  0  0  0  0  0  0  0  0  0
   58.8990   30.1250   44.9780 C   0  0  0  0  0  0  0  0  0  0  0  0
   59.8940   29.7970   45.6820 O   0  0  0  0  0  0  0  0  0  0  0  0
   57.6850   25.6050   44.1060 C   0  0  0  0  0  0  0  0  0  0  0  0
   56.7750   24.7180   44.6850 C   0  0  0  0  0  0  0  0  0  0  0  0
   53.2317   23.4151   46.4665 H   0  0  0  0  0  0  0  0  0  0  0  0
   53.5867   24.5114   45.0885 H   0  0  0  0  0  0  0  0  0  0  0  0
   54.2260   22.8327   45.0885 H   0  0  0  0  0  0  0  0  0  0  0  0
   55.7462   26.6327   47.3258 H   0  0  0  0  0  0  0  0  0  0  0  0
   57.3702   28.2149   46.2936 H   0  0  0  0  0  0  0  0  0  0  0  0
   59.8354   27.7880   44.5322 H   0  0  0  0  0  0  0  0  0  0  0  0
   58.9705   27.5704   42.9666 H   0  0  0  0  0  0  0  0  0  0  0  0
   56.7719   28.7893   42.7249 H   0  0  0  0  0  0  0  0  0  0  0  0
   55.7564   31.0552   42.9042 H   0  0  0  0  0  0  0  0  0  0  0  0
   56.7713   32.7482   44.4268 H   0  0  0  0  0  0  0  0  0  0  0  0
   60.9260   31.6450   46.0780 H   0  0  0  0  0  0  0  0  0  0  0  0
   62.4925   33.6451   46.8720 H   0  0  0  0  0  0  0  0  0  0  0  0
   63.3067   34.7654   48.9446 H   0  0  0  0  0  0  0  0  0  0  0  0
   61.9705   34.6367   51.0464 H   0  0  0  0  0  0  0  0  0  0  0  0
   59.8257   30.5123   51.9455 H   0  0  0  0  0  0  0  0  0  0  0  0
   59.0034   31.1232   53.4243 H   0  0  0  0  0  0  0  0  0  0  0  0
   58.3144   28.8357   51.7253 H   0  0  0  0  0  0  0  0  0  0  0  0
   57.6368   29.3406   53.3343 H   0  0  0  0  0  0  0  0  0  0  0  0
   55.1245   31.3998   51.8938 H   0  0  0  0  0  0  0  0  0  0  0  0
   56.0145   30.9550   53.4039 H   0  0  0  0  0  0  0  0  0  0  0  0
   56.5697   33.1003   51.4541 H   0  0  0  0  0  0  0  0  0  0  0  0
   57.1918   32.8624   53.1318 H   0  0  0  0  0  0  0  0  0  0  0  0
   58.9913   32.2481   49.0069 H   0  0  0  0  0  0  0  0  0  0  0  0
   58.2268   25.3149   43.1937 H   0  0  0  0  0  0  0  0  0  0  0  0
   56.6104   23.7305   44.2292 H   0  0  0  0  0  0  0  0  0  0  0  0
  1  2  1  0
  2  3  1  0
  3  4  2  0
  4  5  1  0
  5  6  2  0
  6  7  1  0
  7  8  1  0
  8  9  1  0
  9 10  2  0
 10 11  1  0
 11 12  2  0
 12 13  1  0
 13 14  2  0
 13 15  1  0
 15 16  1  0
 16 17  2  0
 17 18  1  0
 18 19  2  0
 19 20  1  0
 20 21  1  0
 21 22  2  0
 21 23  2  0
 21 24  1  0
 24 25  1  0
 25 26  1  0
 26 27  1  0
 27 28  1  0
 28 29  1  0
 20 30  2  0
 12 31  1  0
 31 32  2  0
  6 33  1  0
 33 34  2  0
 34  3  1  0
 31  8  1  0
 30 16  1  0
 29 24  1  0
  1 35  1  0
  1 36  1  0
  1 37  1  0
  4 38  1  0
  5 39  1  0
  7 40  1  0
  7 41  1  0
  9 42  1  0
 10 43  1  0
 11 44  1  0
 15 45  1  0
 17 46  1  0
 18 47  1  0
 19 48  1  0
 25 49  1  0
 25 50  1  0
 26 51  1  0
 26 52  1  0
 28 53  1  0
 28 54  1  0
 29 55  1  0
 29 56  1  0
 30 57  1  0
 33 58  1  0
 34 59  1  0
M  END
>  <UniqueID>  (92) 
86

>  <SMILES>  (92) 
COc1ccc(Cn2cccc(C(=O)Nc3cccc(S(=O)(=O)N4CCOCC4)c3)c2=O)cc1

>  <Energy>  (92) 
77.51177701916527

>  <Genealogy>  (92) 
COc1ccc(Cn2cccc(C(=O)Nc3cccc(S(=O)(=O)N4CCOCC4)c3)c2=O)cc1 (3D coordinates assigned)
COc1ccc(Cn2cccc(C(=O)Nc3cccc(S(=O)(=O)N4CCOCC4)c3)c2=O)cc1 (nonaromatic ring conformer: 77.51177701916527 kcal/mol)

>  <smiles>  (92) 
COc1ccc(Cn2cccc(C(=O)Nc3cccc(S(=O)(=O)N4CCOCC4)c3)c2=O)cc1

>  <score_type>  (92) 
oracle

>  <origin>  (92) 
adg

>  <m_score__min__energy>  (92) 
-11.289999999999999

>  <m_primary>  (92) 
energy

$$$$
92:0
     RDKit          3D

 65 68  0  0  0  0  0  0  0  0999 V2000
   68.2269   29.5934   52.1074 H   0  0  0  0  0  0  0  0  0  0  0  0
   67.1560   29.6380   51.8600 C   0  0  0  0  0  0  0  0  0  0  0  0
   66.5180   28.4020   51.3790 C   0  0  0  0  0  0  0  0  0  0  0  0
   65.2940   28.2270   51.6200 O   0  0  0  0  0  0  0  0  0  0  0  0
   67.2460   27.4250   50.6110 N   0  0  0  0  0  0  0  0  0  0  0  0
   66.7430   26.0490   50.5470 C   0  0  0  0  0  0  0  0  0  0  0  0
   66.6017   25.6624   51.5671 H   0  0  0  0  0  0  0  0  0  0  0  0
   65.7814   26.0346   50.0129 H   0  0  0  0  0  0  0  0  0  0  0  0
   67.4685   25.4178   50.0129 H   0  0  0  0  0  0  0  0  0  0  0  0
   68.3990   27.8340   49.8000 C   0  0  0  0  0  0  0  0  0  0  0  0
   69.2271   28.1277   50.4618 H   0  0  0  0  0  0  0  0  0  0  0  0
   68.7173   26.9939   49.1652 H   0  0  0  0  0  0  0  0  0  0  0  0
   68.1167   28.6869   49.1652 H   0  0  0  0  0  0  0  0  0  0  0  0
   66.5320   30.8150   52.0200 C   0  0  0  0  0  0  0  0  0  0  0  0
   66.7549   31.3759   52.9396 H   0  0  0  0  0  0  0  0  0  0  0  0
   65.5690   31.4320   51.0730 C   0  0  0  0  0  0  0  0  0  0  0  0
   65.9740   32.5600   50.3490 C   0  0  0  0  0  0  0  0  0  0  0  0
   66.9425   33.0347   50.5650 H   0  0  0  0  0  0  0  0  0  0  0  0
   65.1470   33.0810   49.3530 C   0  0  0  0  0  0  0  0  0  0  0  0
   65.4712   33.9598   48.7763 H   0  0  0  0  0  0  0  0  0  0  0  0
   63.9040   32.4890   49.0840 C   0  0  0  0  0  0  0  0  0  0  0  0
   63.0300   32.9840   47.9840 C   0  0  0  0  0  0  0  0  0  0  0  0
   63.4240   32.9020   46.7910 O   0  0  0  0  0  0  0  0  0  0  0  0
   61.7810   33.6430   48.2480 N   0  0  0  0  0  0  0  0  0  0  0  0
   60.7310   33.6620   47.4760 C   0  0  0  0  0  0  0  0  0  0  0  0
   60.3900   34.8300   46.8660 N   0  0  0  0  0  0  0  0  0  0  0  0
   59.2940   34.9390   46.0680 C   0  0  0  0  0  0  0  0  0  0  0  0
   59.0592   35.8991   45.5852 H   0  0  0  0  0  0  0  0  0  0  0  0
   58.4670   33.8340   45.8610 C   0  0  0  0  0  0  0  0  0  0  0  0
   57.5709   33.9205   45.2290 H   0  0  0  0  0  0  0  0  0  0  0  0
   58.7910   32.6140   46.4670 C   0  0  0  0  0  0  0  0  0  0  0  0
   58.0030   31.4740   46.2820 O   0  0  0  0  0  0  0  0  0  0  0  0
   57.6480   30.9250   45.0390 C   0  0  0  0  0  0  0  0  0  0  0  0
   57.4230   31.7270   43.9020 C   0  0  0  0  0  0  0  0  0  0  0  0
   57.5724   32.8152   43.9607 H   0  0  0  0  0  0  0  0  0  0  0  0
   57.0110   31.1450   42.7010 C   0  0  0  0  0  0  0  0  0  0  0  0
   56.8423   31.7745   41.8149 H   0  0  0  0  0  0  0  0  0  0  0  0
   56.8130   29.7650   42.6240 C   0  0  0  0  0  0  0  0  0  0  0  0
   56.4902   29.3089   41.6765 H   0  0  0  0  0  0  0  0  0  0  0  0
   57.0240   28.9620   43.7480 C   0  0  0  0  0  0  0  0  0  0  0  0
   56.8617   27.8759   43.6841 H   0  0  0  0  0  0  0  0  0  0  0  0
   57.4440   29.5390   44.9630 C   0  0  0  0  0  0  0  0  0  0  0  0
   57.6620   28.7730   46.1180 O   0  0  0  0  0  0  0  0  0  0  0  0
   58.4340   27.5720   46.1750 C   0  0  0  0  0  0  0  0  0  0  0  0
   58.6028   27.2020   45.1530 H   0  0  0  0  0  0  0  0  0  0  0  0
   59.3947   27.7909   46.6641 H   0  0  0  0  0  0  0  0  0  0  0  0
   57.7000   26.4960   46.9860 C   0  0  0  0  0  0  0  0  0  0  0  0
   58.3931   26.0621   47.7217 H   0  0  0  0  0  0  0  0  0  0  0  0
   56.8437   26.9598   47.4976 H   0  0  0  0  0  0  0  0  0  0  0  0
   57.2030   25.4280   46.1000 N   0  0  0  0  0  0  0  0  0  0  0  0
   58.0600   24.4460   45.6840 C   0  0  0  0  0  0  0  0  0  0  0  0
   59.0943   24.4315   46.0581 H   0  0  0  0  0  0  0  0  0  0  0  0
   57.6360   23.4650   44.7920 C   0  0  0  0  0  0  0  0  0  0  0  0
   58.3204   22.6678   44.4662 H   0  0  0  0  0  0  0  0  0  0  0  0
   56.3260   23.5150   44.3210 C   0  0  0  0  0  0  0  0  0  0  0  0
   55.9120   22.6550   43.4990 O   0  0  0  0  0  0  0  0  0  0  0  0
   55.4910   24.4910   44.7560 N   0  0  0  0  0  0  0  0  0  0  0  0
   55.9100   25.4390   45.6350 C   0  0  0  0  0  0  0  0  0  0  0  0
   55.0970   26.3230   46.0130 O   0  0  0  0  0  0  0  0  0  0  0  0
   59.9440   32.5170   47.2490 C   0  0  0  0  0  0  0  0  0  0  0  0
   60.2359   31.5504   47.6855 H   0  0  0  0  0  0  0  0  0  0  0  0
   63.5330   31.3620   49.8350 C   0  0  0  0  0  0  0  0  0  0  0  0
   62.5592   30.8839   49.6526 H   0  0  0  0  0  0  0  0  0  0  0  0
   64.3640   30.8540   50.7860 N   0  0  0  0  0  0  0  0  0  0  0  0
   64.0750   29.9630   51.2490 H   0  0  0  0  0  0  0  0  0  0  0  0
  1  2  1  0
  2  3  1  0
  3  4  2  0
  3  5  1  0
  5  6  1  0
  6  7  1  0
  6  8  1  0
  6  9  1  0
  5 10  1  0
 10 11  1  0
 10 12  1  0
 10 13  1  0
  2 14  2  0
 14 15  1  0
 14 16  1  0
 16 17  2  0
 17 18  1  0
 17 19  1  0
 19 20  1  0
 19 21  2  0
 21 22  1  0
 22 23  2  0
 22 24  1  0
 24 25  2  3
 25 26  1  0
 26 27  1  0
 27 28  1  0
 27 29  2  0
 29 30  1  0
 29 31  1  0
 31 32  1  0
 32 33  1  0
 33 34  2  0
 34 35  1  0
 34 36  1  0
 36 37  1  0
 36 38  2  0
 38 39  1  0
 38 40  1  0
 40 41  1  0
 40 42  2  0
 42 43  1  0
 43 44  1  0
 44 45  1  0
 44 46  1  0
 44 47  1  0
 47 48  1  0
 47 49  1  0
 47 50  1  0
 50 51  1  0
 51 52  1  0
 51 53  2  0
 53 54  1  0
 53 55  1  0
 55 56  2  0
 55 57  1  0
 57 58  1  0
 58 59  2  0
 31 60  2  0
 60 61  1  0
 21 62  1  0
 62 63  1  0
 62 64  2  0
 64 65  1  0
 64 16  1  0
 60 25  1  0
 42 33  1  0
 58 50  1  0
M  CHG  3  26  -1  57  -1  64   1
M  END
>  <UniqueID>  (93) 
87

>  <SMILES>  (93) 
CN(C)C(=O)/C=C\c1ccc(C(=O)N=c2cc(Oc3ccccc3OCCn3ccc(=O)[n-]c3=O)cc[n-]2)c[nH+]1

>  <Energy>  (93) 
90.69513345047596

>  <Genealogy>  (93) 
CN(C)C(=O)C=Cc1ccc(C(=O)N=c2cc(Oc3ccccc3OCCn3ccc(=O)[n-]c3=O)cc[n-]2)c[nH+]1 (protonated)
CN(C)C(=O)/C=C\c1ccc(C(=O)N=c2cc(Oc3ccccc3OCCn3ccc(=O)[n-]c3=O)cc[n-]2)c[nH+]1 (cis-trans isomerization)
CN(C)C(=O)/C=C\c1ccc(C(=O)N=c2cc(Oc3ccccc3OCCn3ccc(=O)[n-]c3=O)cc[n-]2)c[nH+]1 (3D coordinates assigned)
CN(C)C(=O)/C=C\c1ccc(C(=O)N=c2cc(Oc3ccccc3OCCn3ccc(=O)[n-]c3=O)cc[n-]2)c[nH+]1 (optimized conformer: 90.69513345047596 kcal/mol)

>  <smiles>  (93) 
CN(C)C(=O)C=Cc1ccc(C(=O)N=c2cc(Oc3ccccc3OCCn3ccc(=O)[nH]c3=O)cc[nH]2)cn1

>  <score_type>  (93) 
oracle

>  <origin>  (93) 
adg

>  <m_score__min__energy>  (93) 
-11.1

>  <m_primary>  (93) 
energy

$$$$
93:0
     RDKit          3D

 48 50  0  0  0  0  0  0  0  0999 V2000
   58.1530   23.0670   45.8900 O   0  0  0  0  0  0  0  0  0  0  0  0
   58.0120   24.2620   46.2680 C   0  0  0  0  0  0  0  0  0  0  0  0
   56.8490   24.6290   47.1330 C   0  0  0  0  0  0  0  0  0  0  0  0
   55.5720   24.0990   46.5370 C   0  0  0  0  0  0  0  0  0  0  0  0
   55.3500   22.7110   46.4880 C   0  0  0  0  0  0  0  0  0  0  0  0
   54.1850   22.2020   45.9070 C   0  0  0  0  0  0  0  0  0  0  0  0
   53.2360   23.0700   45.3630 C   0  0  0  0  0  0  0  0  0  0  0  0
   53.4520   24.4500   45.3930 C   0  0  0  0  0  0  0  0  0  0  0  0
   54.6170   24.9680   45.9730 C   0  0  0  0  0  0  0  0  0  0  0  0
   54.8170   26.3450   45.9820 O   0  0  0  0  0  0  0  0  0  0  0  0
   58.8910   25.2900   45.7970 N   0  0  0  0  0  0  0  0  0  0  0  0
   58.6350   26.7020   45.8030 C   0  0  0  0  0  0  0  0  0  0  0  0
   58.5130   27.4340   46.9980 C   0  0  0  0  0  0  0  0  0  0  0  0
   58.2440   28.8050   46.9610 C   0  0  0  0  0  0  0  0  0  0  0  0
   58.0910   29.4670   45.7320 C   0  0  0  0  0  0  0  0  0  0  0  0
   57.7950   30.9150   45.6870 C   0  0  0  0  0  0  0  0  0  0  0  0
   56.9340   31.3380   44.8670 O   0  0  0  0  0  0  0  0  0  0  0  0
   58.4770   31.8520   46.5460 N   0  0  0  0  0  0  0  0  0  0  0  0
   57.7640   33.0640   46.9810 C   0  0  0  0  0  0  0  0  0  0  0  0
   57.9740   34.2530   46.0180 C   0  0  0  0  0  0  0  0  0  0  0  0
   59.3120   34.9950   46.1840 C   0  0  0  0  0  0  0  0  0  0  0  0
   60.5500   34.0880   46.0930 C   0  0  0  0  0  0  0  0  0  0  0  0
   60.6480   32.9870   47.1660 C   0  0  0  0  0  0  0  0  0  0  0  0
   59.9240   31.6790   46.7940 C   0  0  0  0  0  0  0  0  0  0  0  0
   58.1710   28.7250   44.5420 C   0  0  0  0  0  0  0  0  0  0  0  0
   58.4400   27.3540   44.5800 C   0  0  0  0  0  0  0  0  0  0  0  0
   56.9899   24.1964   48.1345 H   0  0  0  0  0  0  0  0  0  0  0  0
   56.7851   25.7249   47.2037 H   0  0  0  0  0  0  0  0  0  0  0  0
   56.0972   22.0223   46.9092 H   0  0  0  0  0  0  0  0  0  0  0  0
   54.0154   21.1155   45.8783 H   0  0  0  0  0  0  0  0  0  0  0  0
   52.3179   22.6670   44.9106 H   0  0  0  0  0  0  0  0  0  0  0  0
   52.7051   25.1316   44.9599 H   0  0  0  0  0  0  0  0  0  0  0  0
   58.6299   26.9250   47.9661 H   0  0  0  0  0  0  0  0  0  0  0  0
   58.1515   29.3692   47.9007 H   0  0  0  0  0  0  0  0  0  0  0  0
   56.6884   32.8399   47.0352 H   0  0  0  0  0  0  0  0  0  0  0  0
   58.1673   33.3542   47.9624 H   0  0  0  0  0  0  0  0  0  0  0  0
   57.9208   33.8713   44.9877 H   0  0  0  0  0  0  0  0  0  0  0  0
   57.1859   34.9831   46.2541 H   0  0  0  0  0  0  0  0  0  0  0  0
   59.3840   35.7576   45.3945 H   0  0  0  0  0  0  0  0  0  0  0  0
   59.3105   35.4280   47.1952 H   0  0  0  0  0  0  0  0  0  0  0  0
   60.5405   33.6001   45.1072 H   0  0  0  0  0  0  0  0  0  0  0  0
   61.4172   34.7449   46.2554 H   0  0  0  0  0  0  0  0  0  0  0  0
   61.7114   32.7584   47.3301 H   0  0  0  0  0  0  0  0  0  0  0  0
   60.1531   33.3779   48.0673 H   0  0  0  0  0  0  0  0  0  0  0  0
   60.3867   31.2728   45.8824 H   0  0  0  0  0  0  0  0  0  0  0  0
   60.0245   30.9997   47.6533 H   0  0  0  0  0  0  0  0  0  0  0  0
   58.0210   29.2260   43.5743 H   0  0  0  0  0  0  0  0  0  0  0  0
   58.4989   26.7831   43.6416 H   0  0  0  0  0  0  0  0  0  0  0  0
  1  2  2  0
  2  3  1  0
  3  4  1  0
  4  5  2  0
  5  6  1  0
  6  7  2  0
  7  8  1  0
  8  9  2  0
  9 10  1  0
  2 11  1  0
 11 12  1  0
 12 13  2  0
 13 14  1  0
 14 15  2  0
 15 16  1  0
 16 17  2  0
 16 18  1  0
 18 19  1  0
 19 20  1  0
 20 21  1  0
 21 22  1  0
 22 23  1  0
 23 24  1  0
 15 25  1  0
 25 26  2  0
  9  4  1  0
 26 12  1  0
 24 18  1  0
  3 27  1  0
  3 28  1  0
  5 29  1  0
  6 30  1  0
  7 31  1  0
  8 32  1  0
 13 33  1  0
 14 34  1  0
 19 35  1  0
 19 36  1  0
 20 37  1  0
 20 38  1  0
 21 39  1  0
 21 40  1  0
 22 41  1  0
 22 42  1  0
 23 43  1  0
 23 44  1  0
 24 45  1  0
 24 46  1  0
 25 47  1  0
 26 48  1  0
M  CHG  2  10  -1  11  -1
M  END
>  <UniqueID>  (94) 
88

>  <SMILES>  (94) 
O=C(Cc1ccccc1[O-])[N-]c1ccc(C(=O)N2CCCCCC2)cc1

>  <Energy>  (94) 
60.92886433901976

>  <Genealogy>  (94) 
O=C(Cc1ccccc1[O-])[N-]c1ccc(C(=O)N2CCCCCC2)cc1 (protonated)
O=C(Cc1ccccc1[O-])[N-]c1ccc(C(=O)N2CCCCCC2)cc1 (3D coordinates assigned)
O=C(Cc1ccccc1[O-])[N-]c1ccc(C(=O)N2CCCCCC2)cc1 (nonaromatic ring conformer: 60.92886433901976 kcal/mol)

>  <smiles>  (94) 
O=C(Cc1ccccc1O)Nc1ccc(C(=O)N2CCCCCC2)cc1

>  <score_type>  (94) 
oracle

>  <origin>  (94) 
adg

>  <m_score__min__energy>  (94) 
-12.130000000000001

>  <m_primary>  (94) 
energy

$$$$
