0:0
     RDKit          3D

 44 46  0  0  0  0  0  0  0  0999 V2000
   60.3950   27.5600   49.0790 C   0  0  0  0  0  0  0  0  0  0  0  0
   60.7870   27.1230   47.6700 C   0  0  0  0  0  0  0  0  0  0  0  0
   60.0230   27.8790   46.6650 N   0  0  0  0  0  0  0  0  0  0  0  0
   60.7350   28.8670   45.8350 C   0  0  0  0  0  0  0  0  0  0  0  0
   60.5550   30.2570   46.3900 C   0  0  0  0  0  0  0  0  0  0  0  0
   59.4180   31.0140   46.0580 C   0  0  0  0  0  0  0  0  0  0  0  0
   59.2390   32.2920   46.5970 C   0  0  0  0  0  0  0  0  0  0  0  0
   60.1910   32.8220   47.4710 C   0  0  0  0  0  0  0  0  0  0  0  0
   61.3220   32.0770   47.8110 C   0  0  0  0  0  0  0  0  0  0  0  0
   61.5050   30.7970   47.2750 C   0  0  0  0  0  0  0  0  0  0  0  0
   58.6520   27.5040   46.3910 C   0  0  0  0  0  0  0  0  0  0  0  0
   57.7520   28.3890   45.7730 C   0  0  0  0  0  0  0  0  0  0  0  0
   56.4340   27.9860   45.5480 C   0  0  0  0  0  0  0  0  0  0  0  0
   55.6240   28.7770   44.9930 O   0  0  0  0  0  0  0  0  0  0  0  0
   56.0120   26.7120   45.9430 C   0  0  0  0  0  0  0  0  0  0  0  0
   54.6950   26.3230   45.7240 O   0  0  0  0  0  0  0  0  0  0  0  0
   56.9300   25.8490   46.5720 C   0  0  0  0  0  0  0  0  0  0  0  0
   56.5550   24.4780   46.9980 C   0  0  0  0  0  0  0  0  0  0  0  0
   55.7370   24.3240   47.9460 O   0  0  0  0  0  0  0  0  0  0  0  0
   57.0860   23.2770   46.3090 C   0  0  0  0  0  0  0  0  0  0  0  0
   58.0500   23.4140   45.2990 C   0  0  0  0  0  0  0  0  0  0  0  0
   58.5450   22.2770   44.6540 C   0  0  0  0  0  0  0  0  0  0  0  0
   58.0860   21.0430   44.9950 N   0  0  0  0  0  0  0  0  0  0  0  0
   57.1380   20.8800   45.9570 C   0  0  0  0  0  0  0  0  0  0  0  0
   56.6170   21.9900   46.6250 C   0  0  0  0  0  0  0  0  0  0  0  0
   58.2080   26.2750   46.7690 N   0  0  0  0  0  0  0  0  0  0  0  0
   60.9401   26.9523   49.8163 H   0  0  0  0  0  0  0  0  0  0  0  0
   60.6498   28.6210   49.2180 H   0  0  0  0  0  0  0  0  0  0  0  0
   59.3126   27.4216   49.2180 H   0  0  0  0  0  0  0  0  0  0  0  0
   61.8614   27.3050   47.5202 H   0  0  0  0  0  0  0  0  0  0  0  0
   60.5643   26.0520   47.5547 H   0  0  0  0  0  0  0  0  0  0  0  0
   61.8069   28.6203   45.8195 H   0  0  0  0  0  0  0  0  0  0  0  0
   60.3218   28.8366   44.8160 H   0  0  0  0  0  0  0  0  0  0  0  0
   58.6656   30.5992   45.3711 H   0  0  0  0  0  0  0  0  0  0  0  0
   58.3479   32.8802   46.3325 H   0  0  0  0  0  0  0  0  0  0  0  0
   60.0495   33.8282   47.8923 H   0  0  0  0  0  0  0  0  0  0  0  0
   62.0696   32.4963   48.5005 H   0  0  0  0  0  0  0  0  0  0  0  0
   62.3954   30.2112   47.5471 H   0  0  0  0  0  0  0  0  0  0  0  0
   58.0836   29.3926   45.4685 H   0  0  0  0  0  0  0  0  0  0  0  0
   58.4149   24.4123   45.0158 H   0  0  0  0  0  0  0  0  0  0  0  0
   59.3079   22.3806   43.8684 H   0  0  0  0  0  0  0  0  0  0  0  0
   58.4660   20.2020   44.5030 H   0  0  0  0  0  0  0  0  0  0  0  0
   56.7808   19.8707   46.2094 H   0  0  0  0  0  0  0  0  0  0  0  0
   55.8429   21.8579   47.3952 H   0  0  0  0  0  0  0  0  0  0  0  0
  1  2  1  0
  2  3  1  0
  3  4  1  0
  4  5  1  0
  5  6  2  0
  6  7  1  0
  7  8  2  0
  8  9  1  0
  9 10  2  0
  3 11  1  0
 11 12  2  0
 12 13  1  0
 13 14  2  0
 13 15  1  0
 15 16  1  0
 15 17  2  0
 17 18  1  0
 18 19  2  0
 18 20  1  0
 20 21  2  0
 21 22  1  0
 22 23  2  0
 23 24  1  0
 24 25  2  0
 17 26  1  0
 10  5  1  0
 26 11  1  0
 25 20  1  0
  1 27  1  0
  1 28  1  0
  1 29  1  0
  2 30  1  0
  2 31  1  0
  4 32  1  0
  4 33  1  0
  6 34  1  0
  7 35  1  0
  8 36  1  0
  9 37  1  0
 10 38  1  0
 12 39  1  0
 21 40  1  0
 22 41  1  0
 23 42  1  0
 24 43  1  0
 25 44  1  0
M  CHG  3  16  -1  23   1  26  -1
M  END
>  <UniqueID>  (1) 
1

>  <SMILES>  (1) 
CCN(Cc1ccccc1)c1cc(=O)c([O-])c(C(=O)c2cc[nH+]cc2)[n-]1

>  <Energy>  (1) 
51.010180475964354

>  <Genealogy>  (1) 
CCN(Cc1ccccc1)c1cc(=O)c([O-])c(C(=O)c2cc[nH+]cc2)[n-]1 (protonated)
CCN(Cc1ccccc1)c1cc(=O)c([O-])c(C(=O)c2cc[nH+]cc2)[n-]1 (3D coordinates assigned)
CCN(Cc1ccccc1)c1cc(=O)c([O-])c(C(=O)c2cc[nH+]cc2)[n-]1 (optimized conformer: 51.010180475964354 kcal/mol)

>  <smiles>  (1) 
CCN(Cc1ccccc1)c1cc(=O)c(O)c(C(=O)c2ccncc2)[nH]1

>  <score_type>  (1) 
oracle

>  <origin>  (1) 
adg

>  <m_score__min__energy>  (1) 
-10.92

>  <m_primary>  (1) 
energy

$$$$
1:0
     RDKit          3D

 41 43  0  0  0  0  0  0  0  0999 V2000
   55.3160   29.0730   44.8530 O   0  0  0  0  0  0  0  0  0  0  0  0
   56.5300   29.0240   45.1830 C   0  0  0  0  0  0  0  0  0  0  0  0
   57.2760   30.2480   45.2460 N   0  0  0  0  0  0  0  0  0  0  0  0
   58.2710   30.5870   46.2230 C   0  0  0  0  0  0  0  0  0  0  0  0
   58.5160   29.7720   47.3410 C   0  0  0  0  0  0  0  0  0  0  0  0
   59.5000   30.1270   48.2660 C   0  0  0  0  0  0  0  0  0  0  0  0
   60.2270   31.3070   48.0970 C   0  0  0  0  0  0  0  0  0  0  0  0
   59.9610   32.1560   47.0160 C   0  0  0  0  0  0  0  0  0  0  0  0
   60.7390   33.3530   46.8720 N   0  0  0  0  0  0  0  0  0  0  0  0
   62.1560   33.4790   47.0480 C   0  0  0  0  0  0  0  0  0  0  0  0
   62.8980   33.6410   46.0410 O   0  0  0  0  0  0  0  0  0  0  0  0
   62.7540   33.4880   48.4120 C   0  0  0  0  0  0  0  0  0  0  0  0
   64.0390   32.9420   48.6070 C   0  0  0  0  0  0  0  0  0  0  0  0
   64.6440   32.9340   49.8750 C   0  0  0  0  0  0  0  0  0  0  0  0
   65.9590   32.3750   50.0530 N   0  0  0  0  0  0  0  0  0  0  0  0
   66.1050   31.2090   50.4740 O   0  0  0  0  0  0  0  0  0  0  0  0
   67.0810   33.1180   49.7600 O   0  0  0  0  0  0  0  0  0  0  0  0
   63.9470   33.4790   50.9640 C   0  0  0  0  0  0  0  0  0  0  0  0
   62.6730   34.0170   50.7900 C   0  0  0  0  0  0  0  0  0  0  0  0
   62.0670   34.0250   49.5260 C   0  0  0  0  0  0  0  0  0  0  0  0
   60.7850   34.5560   49.3910 O   0  0  0  0  0  0  0  0  0  0  0  0
   58.9860   31.7820   46.0720 C   0  0  0  0  0  0  0  0  0  0  0  0
   57.1520   27.7080   45.4600 C   0  0  0  0  0  0  0  0  0  0  0  0
   58.5490   27.5740   45.3710 C   0  0  0  0  0  0  0  0  0  0  0  0
   59.1590   26.3400   45.6120 C   0  0  0  0  0  0  0  0  0  0  0  0
   58.3830   25.2300   45.9540 C   0  0  0  0  0  0  0  0  0  0  0  0
   58.9920   24.0040   46.1890 O   0  0  0  0  0  0  0  0  0  0  0  0
   56.9970   25.3550   46.0660 C   0  0  0  0  0  0  0  0  0  0  0  0
   56.3780   26.5880   45.8310 C   0  0  0  0  0  0  0  0  0  0  0  0
   55.0010   26.6940   45.9940 O   0  0  0  0  0  0  0  0  0  0  0  0
   57.9312   28.8520   47.4880 H   0  0  0  0  0  0  0  0  0  0  0  0
   59.7027   29.4760   49.1292 H   0  0  0  0  0  0  0  0  0  0  0  0
   61.0143   31.5715   48.8183 H   0  0  0  0  0  0  0  0  0  0  0  0
   64.5787   32.5138   47.7494 H   0  0  0  0  0  0  0  0  0  0  0  0
   64.4093   33.4817   51.9621 H   0  0  0  0  0  0  0  0  0  0  0  0
   62.1378   34.4395   51.6532 H   0  0  0  0  0  0  0  0  0  0  0  0
   60.2190   34.3830   48.5680 H   0  0  0  0  0  0  0  0  0  0  0  0
   58.7840   32.4334   45.2089 H   0  0  0  0  0  0  0  0  0  0  0  0
   59.1659   28.4465   45.1099 H   0  0  0  0  0  0  0  0  0  0  0  0
   60.2518   26.2426   45.5323 H   0  0  0  0  0  0  0  0  0  0  0  0
   56.3888   24.4804   46.3402 H   0  0  0  0  0  0  0  0  0  0  0  0
  1  2  2  0
  2  3  1  0
  3  4  1  0
  4  5  2  0
  5  6  1  0
  6  7  2  0
  7  8  1  0
  8  9  1  0
  9 10  1  0
 10 11  2  0
 10 12  1  0
 12 13  2  0
 13 14  1  0
 14 15  1  0
 15 16  2  0
 15 17  1  0
 14 18  2  0
 18 19  1  0
 19 20  2  0
 20 21  1  0
  8 22  2  0
  2 23  1  0
 23 24  2  0
 24 25  1  0
 25 26  2  0
 26 27  1  0
 26 28  1  0
 28 29  2  0
 29 30  1  0
 22  4  1  0
 29 23  1  0
 20 12  1  0
  5 31  1  0
  6 32  1  0
  7 33  1  0
 13 34  1  0
 18 35  1  0
 19 36  1  0
 21 37  1  0
 22 38  1  0
 24 39  1  0
 25 40  1  0
 28 41  1  0
M  CHG  6   3  -1   9  -1  15   1  17  -1  27  -1  30  -1
M  END
>  <UniqueID>  (2) 
2

>  <SMILES>  (2) 
O=C([N-]c1cccc([N-]C(=O)c2cc([N+](=O)[O-])ccc2O)c1)c1ccc([O-])cc1[O-]

>  <Energy>  (2) 
60.28953633515286

>  <Genealogy>  (2) 
O=C([N-]c1cccc([N-]C(=O)c2cc([N+](=O)[O-])ccc2O)c1)c1ccc([O-])cc1[O-] (protonated)
O=C([N-]c1cccc([N-]C(=O)c2cc([N+](=O)[O-])ccc2O)c1)c1ccc([O-])cc1[O-] (3D coordinates assigned)
O=C([N-]c1cccc([N-]C(=O)c2cc([N+](=O)[O-])ccc2O)c1)c1ccc([O-])cc1[O-] (optimized conformer: 60.28953633515286 kcal/mol)

>  <smiles>  (2) 
O=C(Nc1cccc(NC(=O)c2cc([N+](=O)[O-])ccc2O)c1)c1ccc(O)cc1O

>  <score_type>  (2) 
oracle

>  <origin>  (2) 
adg

>  <m_score__min__energy>  (2) 
-16.260000000000002

>  <m_primary>  (2) 
energy

$$$$
2:0
     RDKit          3D

 40 42  0  0  0  0  0  0  0  0999 V2000
   60.7870   29.1560   45.6240 C   0  0  0  0  0  0  0  0  0  0  0  0
   59.8490   28.9720   44.6940 C   0  0  0  0  0  0  0  0  0  0  0  0
   58.5650   29.7080   44.6350 C   0  0  0  0  0  0  0  0  0  0  0  0
   57.3170   29.0710   44.5120 C   0  0  0  0  0  0  0  0  0  0  0  0
   56.1640   29.8600   44.4740 C   0  0  0  0  0  0  0  0  0  0  0  0
   55.0310   29.3220   44.3630 O   0  0  0  0  0  0  0  0  0  0  0  0
   56.2620   31.2120   44.5610 N   0  0  0  0  0  0  0  0  0  0  0  0
   57.4730   31.8130   44.6890 C   0  0  0  0  0  0  0  0  0  0  0  0
   57.5750   33.5930   44.8230 S   0  0  0  0  0  0  0  0  0  0  0  0
   58.6610   33.5010   46.2460 C   0  0  0  0  0  0  0  0  0  0  0  0
   59.4790   34.5880   46.5700 C   0  0  0  0  0  0  0  0  0  0  0  0
   60.3260   34.5030   47.6750 C   0  0  0  0  0  0  0  0  0  0  0  0
   60.3500   33.3360   48.4460 C   0  0  0  0  0  0  0  0  0  0  0  0
   61.3980   33.1960   49.8550 S   0  0  0  0  0  0  0  0  0  0  0  0
   60.6440   32.5820   51.0030 O   0  0  0  0  0  0  0  0  0  0  0  0
   61.8460   34.5740   50.2520 O   0  0  0  0  0  0  0  0  0  0  0  0
   62.7900   32.2130   49.4530 N   0  0  0  0  0  0  0  0  0  0  0  0
   63.9900   33.0460   49.3240 C   0  0  0  0  0  0  0  0  0  0  0  0
   64.1490   33.4260   47.8590 C   0  0  0  0  0  0  0  0  0  0  0  0
   63.2490   32.4760   47.0920 C   0  0  0  0  0  0  0  0  0  0  0  0
   62.6100   31.5790   48.1430 C   0  0  0  0  0  0  0  0  0  0  0  0
   59.5120   32.2720   48.0920 C   0  0  0  0  0  0  0  0  0  0  0  0
   58.6910   32.3750   47.0110 N   0  0  0  0  0  0  0  0  0  0  0  0
   58.6050   31.0640   44.7270 N   0  0  0  0  0  0  0  0  0  0  0  0
   61.7145   28.5653   45.5941 H   0  0  0  0  0  0  0  0  0  0  0  0
   60.6332   29.8984   46.4210 H   0  0  0  0  0  0  0  0  0  0  0  0
   60.0428   28.2199   43.9151 H   0  0  0  0  0  0  0  0  0  0  0  0
   57.2499   27.9750   44.4471 H   0  0  0  0  0  0  0  0  0  0  0  0
   59.4547   35.5022   45.9587 H   0  0  0  0  0  0  0  0  0  0  0  0
   60.9737   35.3518   47.9396 H   0  0  0  0  0  0  0  0  0  0  0  0
   63.8803   33.9543   49.9346 H   0  0  0  0  0  0  0  0  0  0  0  0
   64.8754   32.4937   49.6718 H   0  0  0  0  0  0  0  0  0  0  0  0
   63.8355   34.4677   47.6962 H   0  0  0  0  0  0  0  0  0  0  0  0
   65.1959   33.3503   47.5299 H   0  0  0  0  0  0  0  0  0  0  0  0
   62.4768   33.0364   46.5447 H   0  0  0  0  0  0  0  0  0  0  0  0
   63.8120   31.8936   46.3478 H   0  0  0  0  0  0  0  0  0  0  0  0
   61.5373   31.4609   47.9301 H   0  0  0  0  0  0  0  0  0  0  0  0
   63.0806   30.5848   48.1328 H   0  0  0  0  0  0  0  0  0  0  0  0
   59.5169   31.3487   48.6899 H   0  0  0  0  0  0  0  0  0  0  0  0
   58.0760   31.5670   46.7640 H   0  0  0  0  0  0  0  0  0  0  0  0
  1  2  2  0
  2  3  1  0
  3  4  2  0
  4  5  1  0
  5  6  2  0
  5  7  1  0
  7  8  1  0
  8  9  1  0
  9 10  1  0
 10 11  2  0
 11 12  1  0
 12 13  2  0
 13 14  1  0
 14 15  2  0
 14 16  2  0
 14 17  1  0
 17 18  1  0
 18 19  1  0
 19 20  1  0
 20 21  1  0
 13 22  1  0
 22 23  2  0
  8 24  2  0
 24  3  1  0
 23 10  1  0
 21 17  1  0
  1 25  1  0
  1 26  1  0
  2 27  1  0
  4 28  1  0
 11 29  1  0
 12 30  1  0
 18 31  1  0
 18 32  1  0
 19 33  1  0
 19 34  1  0
 20 35  1  0
 20 36  1  0
 21 37  1  0
 21 38  1  0
 22 39  1  0
 23 40  1  0
M  CHG  2   7  -1  23   1
M  END
>  <UniqueID>  (3) 
3

>  <SMILES>  (3) 
C=Cc1cc(=O)[n-]c(Sc2ccc(S(=O)(=O)N3CCCC3)c[nH+]2)n1

>  <Energy>  (3) 
39.87161481947219

>  <Genealogy>  (3) 
C=Cc1cc(=O)[n-]c(Sc2ccc(S(=O)(=O)N3CCCC3)c[nH+]2)n1 (protonated)
C=Cc1cc(=O)[n-]c(Sc2ccc(S(=O)(=O)N3CCCC3)c[nH+]2)n1 (3D coordinates assigned)
C=Cc1cc(=O)[n-]c(Sc2ccc(S(=O)(=O)N3CCCC3)c[nH+]2)n1 (nonaromatic ring conformer: 39.87161481947219 kcal/mol)

>  <smiles>  (3) 
C=Cc1cc(=O)[nH]c(Sc2ccc(S(=O)(=O)N3CCCC3)cn2)n1

>  <score_type>  (3) 
oracle

>  <origin>  (3) 
adg

>  <m_score__min__energy>  (3) 
-8.3100000000000005

>  <m_primary>  (3) 
energy

$$$$
3:0
     RDKit          3D

 45 47  0  0  0  0  0  0  0  0999 V2000
   59.3575   30.1103   49.2905 H   0  0  0  0  0  0  0  0  0  0  0  0
   59.0860   29.4650   48.4420 C   0  0  0  0  0  0  0  0  0  0  0  0
   59.0882   28.3713   48.5600 H   0  0  0  0  0  0  0  0  0  0  0  0
   58.7520   30.0120   47.2630 C   0  0  0  0  0  0  0  0  0  0  0  0
   58.3870   29.3080   46.1060 C   0  0  0  0  0  0  0  0  0  0  0  0
   58.3930   27.9660   45.9380 C   0  0  0  0  0  0  0  0  0  0  0  0
   59.3559   27.4978   45.6856 H   0  0  0  0  0  0  0  0  0  0  0  0
   57.2210   27.0700   46.0630 C   0  0  0  0  0  0  0  0  0  0  0  0
   57.2330   25.8080   46.5300 N   0  0  0  0  0  0  0  0  0  0  0  0
   55.9460   25.4140   46.4110 C   0  0  0  0  0  0  0  0  0  0  0  0
   55.5540   24.2690   46.7570 O   0  0  0  0  0  0  0  0  0  0  0  0
   55.1160   26.3420   45.8930 N   0  0  0  0  0  0  0  0  0  0  0  0
   55.9380   27.3810   45.6740 C   0  0  0  0  0  0  0  0  0  0  0  0
   55.5240   28.5900   45.1300 O   0  0  0  0  0  0  0  0  0  0  0  0
   58.0160   30.2670   45.1750 C   0  0  0  0  0  0  0  0  0  0  0  0
   57.6638   30.0826   44.1493 H   0  0  0  0  0  0  0  0  0  0  0  0
   58.1730   31.4960   45.7810 C   0  0  0  0  0  0  0  0  0  0  0  0
   57.7850   32.7980   45.1450 C   0  0  0  0  0  0  0  0  0  0  0  0
   57.5646   33.5376   45.9288 H   0  0  0  0  0  0  0  0  0  0  0  0
   58.6137   33.1621   44.5199 H   0  0  0  0  0  0  0  0  0  0  0  0
   56.8922   32.6491   44.5199 H   0  0  0  0  0  0  0  0  0  0  0  0
   58.6610   31.3530   47.0370 N   0  0  0  0  0  0  0  0  0  0  0  0
   58.9130   32.4560   47.9860 C   0  0  0  0  0  0  0  0  0  0  0  0
   58.5076   33.3851   47.5589 H   0  0  0  0  0  0  0  0  0  0  0  0
   58.4232   32.1914   48.9347 H   0  0  0  0  0  0  0  0  0  0  0  0
   60.4000   32.6640   48.2820 C   0  0  0  0  0  0  0  0  0  0  0  0
   60.9550   32.2500   49.5280 C   0  0  0  0  0  0  0  0  0  0  0  0
   60.1110   31.6430   50.6230 C   0  0  0  0  0  0  0  0  0  0  0  0
   60.5166   31.9347   51.6030 H   0  0  0  0  0  0  0  0  0  0  0  0
   59.0763   32.0052   50.5319 H   0  0  0  0  0  0  0  0  0  0  0  0
   60.1251   30.5469   50.5319 H   0  0  0  0  0  0  0  0  0  0  0  0
   62.3320   32.3940   49.7620 C   0  0  0  0  0  0  0  0  0  0  0  0
   62.7607   32.0375   50.7102 H   0  0  0  0  0  0  0  0  0  0  0  0
   63.1650   32.9830   48.8090 C   0  0  0  0  0  0  0  0  0  0  0  0
   64.6410   33.0850   49.0570 C   0  0  0  0  0  0  0  0  0  0  0  0
   64.8307   33.0981   50.1404 H   0  0  0  0  0  0  0  0  0  0  0  0
   65.1492   32.2198   48.6062 H   0  0  0  0  0  0  0  0  0  0  0  0
   65.0254   34.0118   48.6062 H   0  0  0  0  0  0  0  0  0  0  0  0
   62.6230   33.4300   47.6030 C   0  0  0  0  0  0  0  0  0  0  0  0
   63.2826   33.8809   46.8470 H   0  0  0  0  0  0  0  0  0  0  0  0
   61.2490   33.3130   47.3400 C   0  0  0  0  0  0  0  0  0  0  0  0
   60.7330   33.8720   46.0390 C   0  0  0  0  0  0  0  0  0  0  0  0
   60.0002   34.6658   46.2460 H   0  0  0  0  0  0  0  0  0  0  0  0
   61.5710   34.2883   45.4607 H   0  0  0  0  0  0  0  0  0  0  0  0
   60.2511   33.0699   45.4607 H   0  0  0  0  0  0  0  0  0  0  0  0
  1  2  1  0
  2  3  1  0
  2  4  2  0
  4  5  1  0
  5  6  2  0
  6  7  1  0
  6  8  1  0
  8  9  1  0
  9 10  1  0
 10 11  2  0
 10 12  1  0
 12 13  1  0
 13 14  1  0
  5 15  1  0
 15 16  1  0
 15 17  2  0
 17 18  1  0
 18 19  1  0
 18 20  1  0
 18 21  1  0
 17 22  1  0
 22 23  1  0
 23 24  1  0
 23 25  1  0
 23 26  1  0
 26 27  2  0
 27 28  1  0
 28 29  1  0
 28 30  1  0
 28 31  1  0
 27 32  1  0
 32 33  1  0
 32 34  2  0
 34 35  1  0
 35 36  1  0
 35 37  1  0
 35 38  1  0
 34 39  1  0
 39 40  1  0
 39 41  2  0
 41 42  1  0
 42 43  1  0
 42 44  1  0
 42 45  1  0
 22  4  1  0
 41 26  1  0
 13  8  2  0
M  CHG  3   9  -1  12  -1  14  -1
M  END
>  <UniqueID>  (4) 
4

>  <SMILES>  (4) 
C=c1/c(=C/c2[n-]c(=O)[n-]c2[O-])cc(C)n1Cc1c(C)cc(C)cc1C

>  <Energy>  (4) 
113.33754866528551

>  <Genealogy>  (4) 
C=c1c(=Cc2[n-]c(=O)[n-]c2[O-])cc(C)n1Cc1c(C)cc(C)cc1C (protonated)
C=c1/c(=C/c2[n-]c(=O)[n-]c2[O-])cc(C)n1Cc1c(C)cc(C)cc1C (cis-trans isomerization)
C=c1/c(=C/c2[n-]c(=O)[n-]c2[O-])cc(C)n1Cc1c(C)cc(C)cc1C (3D coordinates assigned)
C=c1/c(=C/c2[n-]c(=O)[n-]c2[O-])cc(C)n1Cc1c(C)cc(C)cc1C (optimized conformer: 113.33754866528551 kcal/mol)

>  <smiles>  (4) 
C=c1c(=Cc2[nH]c(=O)[nH]c2O)cc(C)n1Cc1c(C)cc(C)cc1C

>  <score_type>  (4) 
oracle

>  <origin>  (4) 
adg

>  <m_score__min__energy>  (4) 
-15.74

>  <m_primary>  (4) 
energy

$$$$
4:0
     RDKit          3D

 51 53  0  0  0  0  0  0  0  0999 V2000
   55.5040   30.8390   44.5280 O   0  0  0  0  0  0  0  0  0  0  0  0
   56.6130   30.4060   44.1160 C   0  0  0  0  0  0  0  0  0  0  0  0
   56.9280   28.9400   44.2320 C   0  0  0  0  0  0  0  0  0  0  0  0
   56.0710   28.3190   45.2410 N   0  0  0  0  0  0  0  0  0  0  0  0
   56.8520   26.9130   45.8990 S   0  0  0  0  0  0  0  0  0  0  0  0
   57.3480   26.0390   44.7820 O   0  0  0  0  0  0  0  0  0  0  0  0
   55.8540   26.1290   46.7030 O   0  0  0  0  0  0  0  0  0  0  0  0
   58.2050   27.3610   46.9380 C   0  0  0  0  0  0  0  0  0  0  0  0
   59.0940   26.3810   47.4050 C   0  0  0  0  0  0  0  0  0  0  0  0
   60.1870   26.7460   48.1980 C   0  0  0  0  0  0  0  0  0  0  0  0
   60.3890   28.0860   48.5400 C   0  0  0  0  0  0  0  0  0  0  0  0
   59.5000   29.0640   48.0850 C   0  0  0  0  0  0  0  0  0  0  0  0
   58.4110   28.7040   47.2860 C   0  0  0  0  0  0  0  0  0  0  0  0
   57.5160   31.3270   43.4860 N   0  0  0  0  0  0  0  0  0  0  0  0
   57.6500   32.7480   43.8050 C   0  0  0  0  0  0  0  0  0  0  0  0
   58.4880   32.9540   45.0380 C   0  0  0  0  0  0  0  0  0  0  0  0
   58.9710   31.8500   45.7590 C   0  0  0  0  0  0  0  0  0  0  0  0
   59.7130   32.0390   46.9280 C   0  0  0  0  0  0  0  0  0  0  0  0
   60.0000   33.3340   47.3760 C   0  0  0  0  0  0  0  0  0  0  0  0
   60.8550   33.5690   48.8980 S   0  0  0  0  0  0  0  0  0  0  0  0
   60.9140   32.2650   49.6450 O   0  0  0  0  0  0  0  0  0  0  0  0
   60.0850   34.5530   49.7320 O   0  0  0  0  0  0  0  0  0  0  0  0
   62.4670   34.1980   48.6110 N   0  0  0  0  0  0  0  0  0  0  0  0
   62.9740   33.8400   47.2750 C   0  0  0  0  0  0  0  0  0  0  0  0
   63.3770   32.3470   47.1830 C   0  0  0  0  0  0  0  0  0  0  0  0
   63.5610   31.7330   48.4470 O   0  0  0  0  0  0  0  0  0  0  0  0
   64.2760   32.5950   49.3040 C   0  0  0  0  0  0  0  0  0  0  0  0
   63.4080   33.8080   49.6840 C   0  0  0  0  0  0  0  0  0  0  0  0
   59.5590   34.4390   46.6340 C   0  0  0  0  0  0  0  0  0  0  0  0
   58.8080   34.2490   45.4730 C   0  0  0  0  0  0  0  0  0  0  0  0
   56.7571   28.4534   43.2604 H   0  0  0  0  0  0  0  0  0  0  0  0
   57.9798   28.8209   44.5311 H   0  0  0  0  0  0  0  0  0  0  0  0
   58.9312   25.3241   47.1471 H   0  0  0  0  0  0  0  0  0  0  0  0
   60.8888   25.9770   48.5531 H   0  0  0  0  0  0  0  0  0  0  0  0
   61.2469   28.3708   49.1668 H   0  0  0  0  0  0  0  0  0  0  0  0
   59.6576   30.1184   48.3561 H   0  0  0  0  0  0  0  0  0  0  0  0
   57.7136   29.4762   46.9291 H   0  0  0  0  0  0  0  0  0  0  0  0
   58.1267   33.2623   42.9575 H   0  0  0  0  0  0  0  0  0  0  0  0
   56.6469   33.1579   43.9940 H   0  0  0  0  0  0  0  0  0  0  0  0
   58.7641   30.8305   45.4015 H   0  0  0  0  0  0  0  0  0  0  0  0
   60.0722   31.1689   47.4971 H   0  0  0  0  0  0  0  0  0  0  0  0
   62.1881   34.0412   46.5322 H   0  0  0  0  0  0  0  0  0  0  0  0
   63.8721   34.4449   47.0813 H   0  0  0  0  0  0  0  0  0  0  0  0
   62.5856   31.8051   46.6444 H   0  0  0  0  0  0  0  0  0  0  0  0
   64.3428   32.3039   46.6583 H   0  0  0  0  0  0  0  0  0  0  0  0
   64.5566   32.0490   50.2167 H   0  0  0  0  0  0  0  0  0  0  0  0
   65.1790   32.9487   48.7849 H   0  0  0  0  0  0  0  0  0  0  0  0
   62.8292   33.5575   50.5852 H   0  0  0  0  0  0  0  0  0  0  0  0
   64.0843   34.6582   49.8567 H   0  0  0  0  0  0  0  0  0  0  0  0
   59.8054   35.4578   46.9676 H   0  0  0  0  0  0  0  0  0  0  0  0
   58.4648   35.1200   44.8954 H   0  0  0  0  0  0  0  0  0  0  0  0
  1  2  2  0
  2  3  1  0
  3  4  1  0
  4  5  1  0
  5  6  2  0
  5  7  2  0
  5  8  1  0
  8  9  2  0
  9 10  1  0
 10 11  2  0
 11 12  1  0
 12 13  2  0
  2 14  1  0
 14 15  1  0
 15 16  1  0
 16 17  2  0
 17 18  1  0
 18 19  2  0
 19 20  1  0
 20 21  2  0
 20 22  2  0
 20 23  1  0
 23 24  1  0
 24 25  1  0
 25 26  1  0
 26 27  1  0
 27 28  1  0
 19 29  1  0
 29 30  2  0
 13  8  1  0
 30 16  1  0
 28 23  1  0
  3 31  1  0
  3 32  1  0
  9 33  1  0
 10 34  1  0
 11 35  1  0
 12 36  1  0
 13 37  1  0
 15 38  1  0
 15 39  1  0
 17 40  1  0
 18 41  1  0
 24 42  1  0
 24 43  1  0
 25 44  1  0
 25 45  1  0
 27 46  1  0
 27 47  1  0
 28 48  1  0
 28 49  1  0
 29 50  1  0
 30 51  1  0
M  CHG  2   4  -1  14  -1
M  END
>  <UniqueID>  (5) 
5

>  <SMILES>  (5) 
O=C(C[N-]S(=O)(=O)c1ccccc1)[N-]Cc1ccc(S(=O)(=O)N2CCOCC2)cc1

>  <Energy>  (5) 
54.0380243494342

>  <Genealogy>  (5) 
O=C(C[N-]S(=O)(=O)c1ccccc1)[N-]Cc1ccc(S(=O)(=O)N2CCOCC2)cc1 (protonated)
O=C(C[N-]S(=O)(=O)c1ccccc1)[N-]Cc1ccc(S(=O)(=O)N2CCOCC2)cc1 (3D coordinates assigned)
O=C(C[N-]S(=O)(=O)c1ccccc1)[N-]Cc1ccc(S(=O)(=O)N2CCOCC2)cc1 (nonaromatic ring conformer: 54.0380243494342 kcal/mol)

>  <smiles>  (5) 
O=C(CNS(=O)(=O)c1ccccc1)NCc1ccc(S(=O)(=O)N2CCOCC2)cc1

>  <score_type>  (5) 
oracle

>  <origin>  (5) 
adg

>  <m_score__min__energy>  (5) 
-12.6

>  <m_primary>  (5) 
energy

$$$$
5:0
     RDKit          3D

 69 73  0  0  1  0  0  0  0  0999 V2000
   61.3970   30.1880   46.5170 O   0  0  0  0  0  0  0  0  0  0  0  0
   60.6440   29.3000   47.0740 C   0  0  0  0  0  0  0  0  0  0  0  0
   60.5160   29.2820   48.5610 C   0  0  0  0  0  0  0  0  0  0  0  0
   60.4760   30.3920   49.2460 C   0  0  0  0  0  0  0  0  0  0  0  0
   59.4050   30.9320   50.0280 C   0  0  0  0  0  0  0  0  0  0  0  0
   58.6410   30.0140   50.7830 C   0  0  0  0  0  0  0  0  0  0  0  0
   57.6220   30.4200   51.5990 C   0  0  0  0  0  0  0  0  0  0  0  0
   57.2650   31.7400   51.7500 C   0  0  0  0  0  0  0  0  0  0  0  0
   58.0020   32.6560   51.0190 C   0  0  0  0  0  0  0  0  0  0  0  0
   59.0500   32.2400   50.1810 C   0  0  0  0  0  0  0  0  0  0  0  0
   59.9540   33.5430   49.3870 S   0  0  0  0  0  0  0  0  0  0  0  0
   59.3860   33.6820   47.6920 C   0  0  0  0  0  0  0  0  0  0  0  0
   58.0260   33.7490   47.4940 C   0  0  0  0  0  0  0  0  0  0  0  0
   57.4580   33.8610   46.2380 C   0  0  0  0  0  0  0  0  0  0  0  0
   58.3080   33.9060   45.1540 C   0  0  0  0  0  0  0  0  0  0  0  0
   59.6740   33.8380   45.3690 C   0  0  0  0  0  0  0  0  0  0  0  0
   60.2410   33.7250   46.6190 C   0  0  0  0  0  0  0  0  0  0  0  0
   61.6850   33.6410   46.8230 C   0  0  0  0  0  0  0  0  0  0  0  0
   62.4220   34.5570   46.3440 O   0  0  0  0  0  0  0  0  0  0  0  0
   62.2720   32.5370   47.5580 N   0  0  0  0  0  0  0  0  0  0  0  0
   63.6910   32.4830   47.7420 C   0  0  0  0  0  0  0  0  0  0  0  0
   64.1160   32.3610   49.1730 C   0  0  0  0  0  0  0  0  0  0  0  0
   63.1420   32.4680   50.1700 N   0  0  0  0  0  0  0  0  0  0  0  0
   62.9780   33.8280   50.6180 C   0  0  0  0  0  0  0  0  0  0  0  0
   63.0440   33.8470   52.1280 C   0  0  0  0  0  0  0  0  0  0  0  0
   62.0370   33.0770   52.6880 O   0  0  0  0  0  0  0  0  0  0  0  0
   61.9570   31.7900   52.1740 C   0  0  0  0  0  0  0  0  0  0  0  0
   63.1490   31.5430   51.2120 C   0  0  0  0  0  0  0  0  0  0  0  0
   59.9890   28.4190   46.2540 N   0  0  0  0  0  0  0  0  0  0  0  0
   58.8080   28.2710   45.9640 C   0  0  0  0  0  0  0  0  0  0  0  0
   58.1360   27.2060   46.4770 N   0  0  0  0  0  0  0  0  0  0  0  0
   56.8440   26.9530   46.2510 C   0  0  0  0  0  0  0  0  0  0  0  0
   56.2880   25.9330   46.7680 O   0  0  0  0  0  0  0  0  0  0  0  0
   56.1620   27.8140   45.4630 N   0  0  0  0  0  0  0  0  0  0  0  0
   56.8060   28.8840   44.9370 C   0  0  0  0  0  0  0  0  0  0  0  0
   56.0410   29.7110   44.1440 C   0  0  0  0  0  0  0  0  0  0  0  0
   56.6780   30.8040   43.5950 C   0  0  0  0  0  0  0  0  0  0  0  0
   57.9870   31.1220   43.7790 C   0  0  0  0  0  0  0  0  0  0  0  0
   58.7240   30.2450   44.6000 C   0  0  0  0  0  0  0  0  0  0  0  0
   58.1380   29.1490   45.1660 C   0  0  0  0  0  0  0  0  0  0  0  0
   60.4544   28.3182   49.0876 H   0  0  0  0  0  0  0  0  0  0  0  0
   61.3938   30.9978   49.2188 H   0  0  0  0  0  0  0  0  0  0  0  0
   58.8729   28.9411   50.7121 H   0  0  0  0  0  0  0  0  0  0  0  0
   57.0624   29.6570   52.1600 H   0  0  0  0  0  0  0  0  0  0  0  0
   56.4429   32.0492   52.4122 H   0  0  0  0  0  0  0  0  0  0  0  0
   57.7631   33.7270   51.0956 H   0  0  0  0  0  0  0  0  0  0  0  0
   57.3631   33.7119   48.3710 H   0  0  0  0  0  0  0  0  0  0  0  0
   56.3668   33.9123   46.1088 H   0  0  0  0  0  0  0  0  0  0  0  0
   57.9072   33.9946   44.1335 H   0  0  0  0  0  0  0  0  0  0  0  0
   60.3415   33.8762   44.4955 H   0  0  0  0  0  0  0  0  0  0  0  0
   61.5720   31.8340   47.8730 H   0  0  0  0  0  0  0  0  0  0  0  0
   64.0783   31.6134   47.1909 H   0  0  0  0  0  0  0  0  0  0  0  0
   64.0964   33.4355   47.3699 H   0  0  0  0  0  0  0  0  0  0  0  0
   64.5910   31.3755   49.2877 H   0  0  0  0  0  0  0  0  0  0  0  0
   64.7651   33.2339   49.3362 H   0  0  0  0  0  0  0  0  0  0  0  0
   63.7815   34.4546   50.2036 H   0  0  0  0  0  0  0  0  0  0  0  0
   62.0090   34.2224   50.2782 H   0  0  0  0  0  0  0  0  0  0  0  0
   64.0184   33.4499   52.4486 H   0  0  0  0  0  0  0  0  0  0  0  0
   62.9149   34.8854   52.4671 H   0  0  0  0  0  0  0  0  0  0  0  0
   61.9943   31.0628   52.9985 H   0  0  0  0  0  0  0  0  0  0  0  0
   61.0114   31.6725   51.6244 H   0  0  0  0  0  0  0  0  0  0  0  0
   64.0907   31.6378   51.7725 H   0  0  0  0  0  0  0  0  0  0  0  0
   63.0569   30.5323   50.7877 H   0  0  0  0  0  0  0  0  0  0  0  0
   58.6430   26.5210   47.0900 H   0  0  0  0  0  0  0  0  0  0  0  0
   55.1470   27.6220   45.2830 H   0  0  0  0  0  0  0  0  0  0  0  0
   54.9757   29.5096   43.9581 H   0  0  0  0  0  0  0  0  0  0  0  0
   56.0795   31.4715   42.9576 H   0  0  0  0  0  0  0  0  0  0  0  0
   58.4429   32.0093   43.3155 H   0  0  0  0  0  0  0  0  0  0  0  0
   59.7889   30.4467   44.7880 H   0  0  0  0  0  0  0  0  0  0  0  0
  1  2  2  0
  2  3  1  0
  3  4  2  0
  4  5  1  0
  5  6  2  0
  6  7  1  0
  7  8  2  0
  8  9  1  0
  9 10  2  0
 10 11  1  0
 11 12  1  0
 12 13  2  0
 13 14  1  0
 14 15  2  0
 15 16  1  0
 16 17  2  0
 17 18  1  0
 18 19  2  0
 18 20  1  0
 20 21  1  0
 21 22  1  0
 22 23  1  0
 23 24  1  0
 24 25  1  0
 25 26  1  0
 26 27  1  0
 27 28  1  0
  2 29  1  0
 29 30  2  0
 30 31  1  0
 31 32  1  0
 32 33  2  0
 32 34  1  0
 34 35  1  0
 35 36  2  0
 36 37  1  0
 37 38  2  0
 38 39  1  0
 39 40  2  0
 10  5  1  0
 17 12  1  0
 28 23  1  0
 40 30  1  0
 40 35  1  0
  3 41  1  0
  4 42  1  0
  6 43  1  0
  7 44  1  0
  8 45  1  0
  9 46  1  0
 13 47  1  0
 14 48  1  0
 15 49  1  0
 16 50  1  0
 20 51  1  0
 21 52  1  0
 21 53  1  0
 22 54  1  0
 22 55  1  0
 24 56  1  0
 24 57  1  0
 25 58  1  0
 25 59  1  0
 27 60  1  0
 27 61  1  0
 28 62  1  0
 28 63  1  0
 31 64  1  0
 34 65  1  0
 36 66  1  0
 37 67  1  0
 38 68  1  0
 39 69  1  0
M  END
>  <smiles>  (6) 
O=C(C=Cc1ccccc1Sc1ccccc1C(=O)NCCN1CCOCC1)N=c1[nH]c(=O)[nH]c2ccccc12

>  <score_type>  (6) 
oracle

>  <origin>  (6) 
adg

>  <m_score__min__energy>  (6) 
-11.859999999999999

>  <m_primary>  (6) 
energy

$$$$
6:0
     RDKit          3D

 42 45  0  0  0  0  0  0  0  0999 V2000
   58.8810   34.5320   44.9830 C   0  0  0  0  0  0  0  0  0  0  0  0
   59.1540   34.1550   46.4080 C   0  0  0  0  0  0  0  0  0  0  0  0
   58.2240   33.3890   47.1280 C   0  0  0  0  0  0  0  0  0  0  0  0
   58.4930   33.0140   48.4470 C   0  0  0  0  0  0  0  0  0  0  0  0
   59.6970   33.3860   49.0510 C   0  0  0  0  0  0  0  0  0  0  0  0
   60.6500   34.1240   48.3330 C   0  0  0  0  0  0  0  0  0  0  0  0
   61.9330   34.5440   48.9890 C   0  0  0  0  0  0  0  0  0  0  0  0
   63.3060   33.5350   48.3410 S   0  0  0  0  0  0  0  0  0  0  0  0
   62.3840   32.0060   48.4500 C   0  0  0  0  0  0  0  0  0  0  0  0
   62.2950   31.3480   49.6290 N   0  0  0  0  0  0  0  0  0  0  0  0
   61.6150   30.2060   49.7210 N   0  0  0  0  0  0  0  0  0  0  0  0
   60.9820   29.6650   48.6400 C   0  0  0  0  0  0  0  0  0  0  0  0
   61.0680   30.3400   47.4030 C   0  0  0  0  0  0  0  0  0  0  0  0
   61.7750   31.4980   47.3530 N   0  0  0  0  0  0  0  0  0  0  0  0
   60.5090   29.8930   46.1920 O   0  0  0  0  0  0  0  0  0  0  0  0
   59.5660   28.8910   45.8940 C   0  0  0  0  0  0  0  0  0  0  0  0
   59.4440   28.5510   44.5380 C   0  0  0  0  0  0  0  0  0  0  0  0
   58.5180   27.5990   44.1130 C   0  0  0  0  0  0  0  0  0  0  0  0
   57.6890   26.9720   45.0400 C   0  0  0  0  0  0  0  0  0  0  0  0
   57.7890   27.2950   46.3920 C   0  0  0  0  0  0  0  0  0  0  0  0
   58.7250   28.2490   46.8390 C   0  0  0  0  0  0  0  0  0  0  0  0
   58.7950   28.5510   48.3050 C   0  0  0  0  0  0  0  0  0  0  0  0
   60.2230   28.3850   48.8060 C   0  0  0  0  0  0  0  0  0  0  0  0
   60.3700   34.5120   47.0120 C   0  0  0  0  0  0  0  0  0  0  0  0
   58.2360   35.4227   44.9565 H   0  0  0  0  0  0  0  0  0  0  0  0
   59.8308   34.7517   44.4734 H   0  0  0  0  0  0  0  0  0  0  0  0
   58.3759   33.6982   44.4734 H   0  0  0  0  0  0  0  0  0  0  0  0
   57.2805   33.0829   46.6525 H   0  0  0  0  0  0  0  0  0  0  0  0
   57.7552   32.4246   49.0112 H   0  0  0  0  0  0  0  0  0  0  0  0
   59.8984   33.0990   50.0936 H   0  0  0  0  0  0  0  0  0  0  0  0
   62.1246   35.6055   48.7734 H   0  0  0  0  0  0  0  0  0  0  0  0
   61.8532   34.3991   50.0765 H   0  0  0  0  0  0  0  0  0  0  0  0
   61.5740   29.7310   50.6510 H   0  0  0  0  0  0  0  0  0  0  0  0
   60.0904   29.0443   43.7971 H   0  0  0  0  0  0  0  0  0  0  0  0
   58.4423   27.3433   43.0458 H   0  0  0  0  0  0  0  0  0  0  0  0
   56.9563   26.2228   44.7055 H   0  0  0  0  0  0  0  0  0  0  0  0
   57.1292   26.7992   47.1192 H   0  0  0  0  0  0  0  0  0  0  0  0
   58.4664   29.5862   48.4793 H   0  0  0  0  0  0  0  0  0  0  0  0
   58.1398   27.8538   48.8478 H   0  0  0  0  0  0  0  0  0  0  0  0
   60.2046   28.1091   49.8707 H   0  0  0  0  0  0  0  0  0  0  0  0
   60.7186   27.5958   48.2216 H   0  0  0  0  0  0  0  0  0  0  0  0
   61.1087   35.0996   46.4471 H   0  0  0  0  0  0  0  0  0  0  0  0
  1  2  1  0
  2  3  2  0
  3  4  1  0
  4  5  2  0
  5  6  1  0
  6  7  1  0
  7  8  1  0
  8  9  1  0
  9 10  2  0
 10 11  1  0
 11 12  2  0
 12 13  1  0
 13 14  2  0
 13 15  1  0
 15 16  1  0
 16 17  2  0
 17 18  1  0
 18 19  2  0
 19 20  1  0
 20 21  2  0
 21 22  1  0
 22 23  1  0
  6 24  2  0
 24  2  1  0
 14  9  1  0
 21 16  1  0
 23 12  1  0
  1 25  1  0
  1 26  1  0
  1 27  1  0
  3 28  1  0
  4 29  1  0
  5 30  1  0
  7 31  1  0
  7 32  1  0
 11 33  1  0
 17 34  1  0
 18 35  1  0
 19 36  1  0
 20 37  1  0
 22 38  1  0
 22 39  1  0
 23 40  1  0
 23 41  1  0
 24 42  1  0
M  CHG  1  11   1
M  END
>  <UniqueID>  (7) 
6

>  <SMILES>  (7) 
Cc1cccc(CSc2n[nH+]c3c(n2)Oc2ccccc2CC3)c1

>  <Energy>  (7) 
55.334224803498905

>  <Genealogy>  (7) 
Cc1cccc(CSc2n[nH+]c3c(n2)Oc2ccccc2CC3)c1 (protonated)
Cc1cccc(CSc2n[nH+]c3c(n2)Oc2ccccc2CC3)c1 (3D coordinates assigned)
Cc1cccc(CSc2n[nH+]c3c(n2)Oc2ccccc2CC3)c1 (nonaromatic ring conformer: 55.334224803498905 kcal/mol)

>  <smiles>  (7) 
Cc1cccc(CSc2nnc3c(n2)Oc2ccccc2CC3)c1

>  <score_type>  (7) 
oracle

>  <origin>  (7) 
adg

>  <m_score__min__energy>  (7) 
-5.8300000000000001

>  <m_primary>  (7) 
energy

$$$$
7:0
     RDKit          3D

 40 42  0  0  0  0  0  0  0  0999 V2000
   53.5110   23.0500   44.5160 N   0  0  0  0  0  0  0  0  0  0  0  0
   54.3400   23.9720   45.7240 S   0  0  0  0  0  0  0  0  0  0  0  0
   53.8760   25.4010   45.6300 O   0  0  0  0  0  0  0  0  0  0  0  0
   54.0030   23.4340   47.0880 O   0  0  0  0  0  0  0  0  0  0  0  0
   56.0850   23.8920   45.4890 C   0  0  0  0  0  0  0  0  0  0  0  0
   56.6550   22.8070   44.8120 C   0  0  0  0  0  0  0  0  0  0  0  0
   58.0440   22.6970   44.7020 C   0  0  0  0  0  0  0  0  0  0  0  0
   58.8720   23.6620   45.2840 C   0  0  0  0  0  0  0  0  0  0  0  0
   58.3160   24.7570   45.9560 C   0  0  0  0  0  0  0  0  0  0  0  0
   59.1860   25.7180   46.5730 N   0  0  0  0  0  0  0  0  0  0  0  0
   59.5070   27.0030   46.0240 C   0  0  0  0  0  0  0  0  0  0  0  0
   60.7150   27.3410   45.9210 O   0  0  0  0  0  0  0  0  0  0  0  0
   58.4530   27.9110   45.5380 C   0  0  0  0  0  0  0  0  0  0  0  0
   57.0860   27.7070   45.6270 C   0  0  0  0  0  0  0  0  0  0  0  0
   56.5120   28.8110   45.0330 C   0  0  0  0  0  0  0  0  0  0  0  0
   55.1450   29.0120   44.8770 O   0  0  0  0  0  0  0  0  0  0  0  0
   57.4540   29.6800   44.6160 N   0  0  0  0  0  0  0  0  0  0  0  0
   57.2460   30.9380   43.9010 C   0  0  0  0  0  0  0  0  0  0  0  0
   57.7750   32.0850   44.7150 C   0  0  0  0  0  0  0  0  0  0  0  0
   58.2200   33.2570   44.0810 C   0  0  0  0  0  0  0  0  0  0  0  0
   58.7010   34.3280   44.8390 C   0  0  0  0  0  0  0  0  0  0  0  0
   58.7300   34.2410   46.2350 C   0  0  0  0  0  0  0  0  0  0  0  0
   58.2670   33.0880   46.8740 C   0  0  0  0  0  0  0  0  0  0  0  0
   57.7850   32.0140   46.1190 C   0  0  0  0  0  0  0  0  0  0  0  0
   58.6480   29.1340   44.9170 C   0  0  0  0  0  0  0  0  0  0  0  0
   56.9180   24.8670   46.0590 C   0  0  0  0  0  0  0  0  0  0  0  0
   52.6550   22.6330   44.9510 H   0  0  0  0  0  0  0  0  0  0  0  0
   56.0073   22.0384   44.3651 H   0  0  0  0  0  0  0  0  0  0  0  0
   58.4865   21.8502   44.1569 H   0  0  0  0  0  0  0  0  0  0  0  0
   59.9650   23.5602   45.2135 H   0  0  0  0  0  0  0  0  0  0  0  0
   56.5681   26.8468   46.0762 H   0  0  0  0  0  0  0  0  0  0  0  0
   57.7747   30.9009   42.9371 H   0  0  0  0  0  0  0  0  0  0  0  0
   56.1690   31.0826   43.7303 H   0  0  0  0  0  0  0  0  0  0  0  0
   58.1897   33.3319   42.9840 H   0  0  0  0  0  0  0  0  0  0  0  0
   59.0571   35.2401   44.3377 H   0  0  0  0  0  0  0  0  0  0  0  0
   59.1176   35.0810   46.8300 H   0  0  0  0  0  0  0  0  0  0  0  0
   58.2816   33.0249   47.9721 H   0  0  0  0  0  0  0  0  0  0  0  0
   57.4127   31.1111   46.6252 H   0  0  0  0  0  0  0  0  0  0  0  0
   59.6264   29.5888   44.7029 H   0  0  0  0  0  0  0  0  0  0  0  0
   56.4746   25.7225   46.5896 H   0  0  0  0  0  0  0  0  0  0  0  0
  1  2  1  0
  2  3  2  0
  2  4  2  0
  2  5  1  0
  5  6  2  0
  6  7  1  0
  7  8  2  0
  8  9  1  0
  9 10  1  0
 10 11  1  0
 11 12  2  0
 11 13  1  0
 13 14  1  0
 14 15  2  0
 15 16  1  0
 15 17  1  0
 17 18  1  0
 18 19  1  0
 19 20  2  0
 20 21  1  0
 21 22  2  0
 22 23  1  0
 23 24  2  0
 17 25  1  0
  9 26  2  0
 26  5  1  0
 25 13  2  0
 24 19  1  0
  1 27  1  0
  6 28  1  0
  7 29  1  0
  8 30  1  0
 14 31  1  0
 18 32  1  0
 18 33  1  0
 20 34  1  0
 21 35  1  0
 22 36  1  0
 23 37  1  0
 24 38  1  0
 25 39  1  0
 26 40  1  0
M  CHG  3   1  -1  10  -1  16  -1
M  END
>  <UniqueID>  (8) 
7

>  <SMILES>  (8) 
[NH-]S(=O)(=O)c1cccc([N-]C(=O)c2cc([O-])n(Cc3ccccc3)c2)c1

>  <Energy>  (8) 
70.40123062654452

>  <Genealogy>  (8) 
[NH-]S(=O)(=O)c1cccc([N-]C(=O)c2cc([O-])n(Cc3ccccc3)c2)c1 (protonated)
[NH-]S(=O)(=O)c1cccc([N-]C(=O)c2cc([O-])n(Cc3ccccc3)c2)c1 (3D coordinates assigned)
[NH-]S(=O)(=O)c1cccc([N-]C(=O)c2cc([O-])n(Cc3ccccc3)c2)c1 (optimized conformer: 70.40123062654452 kcal/mol)

>  <smiles>  (8) 
NS(=O)(=O)c1cccc(NC(=O)c2cc(O)n(Cc3ccccc3)c2)c1

>  <score_type>  (8) 
oracle

>  <origin>  (8) 
adg

>  <m_score__min__energy>  (8) 
-15.83

>  <m_primary>  (8) 
energy

$$$$
8:0
     RDKit          3D

 78 81  0  0  1  0  0  0  0  0999 V2000
   58.6020   32.5440   50.3150 N   0  0  0  0  0  0  0  0  0  0  0  0
   58.6410   31.2360   51.4670 S   0  0  0  0  0  0  0  0  0  0  0  0
   57.6550   30.1730   51.1620 O   0  0  0  0  0  0  0  0  0  0  0  0
   58.2720   31.8250   52.8020 O   0  0  0  0  0  0  0  0  0  0  0  0
   60.2500   30.5650   51.5370 C   0  0  0  0  0  0  0  0  0  0  0  0
   60.3790   29.2390   51.9220 C   0  0  0  0  0  0  0  0  0  0  0  0
   61.6400   28.6850   51.9810 C   0  0  0  0  0  0  0  0  0  0  0  0
   62.7430   29.4590   51.6580 C   0  0  0  0  0  0  0  0  0  0  0  0
   62.6540   30.7760   51.2720 C   0  0  0  0  0  0  0  0  0  0  0  0
   63.8350   31.6100   50.9210 C   0  0  0  0  0  0  0  0  0  0  0  0
   63.9930   31.6600   49.5020 N   0  0  0  0  0  0  0  0  0  0  0  0
   63.0800   32.1240   48.7390 C   0  0  0  0  0  0  0  0  0  0  0  0
   63.2900   33.3350   48.1050 C   0  0  0  0  0  0  0  0  0  0  0  0
   62.2960   33.8570   47.2670 C   0  0  0  0  0  0  0  0  0  0  0  0
   61.1340   33.2130   47.0590 N   0  0  0  0  0  0  0  0  0  0  0  0
   60.1210   33.7790   46.1830 C   0  0  1  0  0  0  0  0  0  0  0  0
   59.6110   32.8900   45.2990 O   0  0  0  0  0  0  0  0  0  0  0  0
   58.3560   32.4910   45.6180 C   0  0  2  0  0  0  0  0  0  0  0  0
   57.3340   32.6040   44.5020 C   0  0  0  0  0  0  0  0  0  0  0  0
   56.3160   31.6510   44.8450 O   0  0  0  0  0  0  0  0  0  0  0  0
   56.4310   30.3120   44.4740 C   0  0  0  0  0  0  0  0  0  0  0  0
   55.5240   29.5460   44.8670 O   0  0  0  0  0  0  0  0  0  0  0  0
   57.5990   29.9360   43.6650 C   0  0  0  0  0  0  0  0  0  0  0  0
   58.7090   29.4490   44.5330 C   0  0  0  0  0  0  0  0  0  0  0  0
   59.2700   28.1100   44.1450 C   0  0  0  0  0  0  0  0  0  0  0  0
   58.1320   27.1510   43.9120 C   0  0  0  0  0  0  0  0  0  0  0  0
   57.9300   26.1750   45.0570 C   0  0  0  0  0  0  0  0  0  0  0  0
   57.4290   26.8490   46.2930 C   0  0  0  0  0  0  0  0  0  0  0  0
   58.5450   27.2950   47.1780 C   0  0  0  0  0  0  0  0  0  0  0  0
   58.5240   28.4960   47.8520 C   0  0  0  0  0  0  0  0  0  0  0  0
   59.6140   28.8170   48.6470 C   0  0  0  0  0  0  0  0  0  0  0  0
   60.7000   27.9430   48.7580 C   0  0  0  0  0  0  0  0  0  0  0  0
   60.7120   26.7500   48.0840 C   0  0  0  0  0  0  0  0  0  0  0  0
   59.6210   26.4070   47.2740 C   0  0  0  0  0  0  0  0  0  0  0  0
   57.8970   33.2750   46.8080 C   0  0  1  0  0  0  0  0  0  0  0  0
   57.7740   32.4640   47.9460 O   0  0  0  0  0  0  0  0  0  0  0  0
   58.9770   34.2930   46.9870 C   0  0  1  0  0  0  0  0  0  0  0  0
   59.3110   34.2690   48.3520 O   0  0  0  0  0  0  0  0  0  0  0  0
   60.9780   32.0370   47.6990 C   0  0  0  0  0  0  0  0  0  0  0  0
   59.9210   31.3840   47.5500 O   0  0  0  0  0  0  0  0  0  0  0  0
   61.9150   31.5110   48.5100 N   0  0  0  0  0  0  0  0  0  0  0  0
   61.3570   31.3030   51.2240 C   0  0  0  0  0  0  0  0  0  0  0  0
   59.2030   32.3510   49.5060 H   0  0  0  0  0  0  0  0  0  0  0  0
   57.6070   32.7080   50.0530 H   0  0  0  0  0  0  0  0  0  0  0  0
   59.4917   28.6404   52.1756 H   0  0  0  0  0  0  0  0  0  0  0  0
   61.7697   27.6351   52.2826 H   0  0  0  0  0  0  0  0  0  0  0  0
   63.7397   28.9969   51.7131 H   0  0  0  0  0  0  0  0  0  0  0  0
   63.6889   32.6295   51.3075 H   0  0  0  0  0  0  0  0  0  0  0  0
   64.7364   31.1668   51.3695 H   0  0  0  0  0  0  0  0  0  0  0  0
   64.2307   33.8844   48.2576 H   0  0  0  0  0  0  0  0  0  0  0  0
   62.4709   34.8202   46.7654 H   0  0  0  0  0  0  0  0  0  0  0  0
   60.6316   34.5781   45.6256 H   0  0  0  0  0  0  0  0  0  0  0  0
   58.4210   31.4137   45.8304 H   0  0  0  0  0  0  0  0  0  0  0  0
   56.9159   33.6206   44.4598 H   0  0  0  0  0  0  0  0  0  0  0  0
   57.7731   32.4074   43.5128 H   0  0  0  0  0  0  0  0  0  0  0  0
   57.3112   29.1374   42.9654 H   0  0  0  0  0  0  0  0  0  0  0  0
   57.9457   30.8220   43.1128 H   0  0  0  0  0  0  0  0  0  0  0  0
   59.5241   30.1865   44.4925 H   0  0  0  0  0  0  0  0  0  0  0  0
   58.2843   29.3272   45.5404 H   0  0  0  0  0  0  0  0  0  0  0  0
   59.8619   28.2110   43.2233 H   0  0  0  0  0  0  0  0  0  0  0  0
   59.9172   27.7307   44.9495 H   0  0  0  0  0  0  0  0  0  0  0  0
   57.2070   27.7314   43.7797 H   0  0  0  0  0  0  0  0  0  0  0  0
   58.3797   26.5600   43.0179 H   0  0  0  0  0  0  0  0  0  0  0  0
   57.1990   25.4132   44.7481 H   0  0  0  0  0  0  0  0  0  0  0  0
   58.9053   25.7232   45.2910 H   0  0  0  0  0  0  0  0  0  0  0  0
   56.8337   27.7271   46.0022 H   0  0  0  0  0  0  0  0  0  0  0  0
   56.8205   26.1235   46.8528 H   0  0  0  0  0  0  0  0  0  0  0  0
   57.6676   29.1805   47.7623 H   0  0  0  0  0  0  0  0  0  0  0  0
   59.6245   29.7699   49.1965 H   0  0  0  0  0  0  0  0  0  0  0  0
   61.5548   28.2165   49.3940 H   0  0  0  0  0  0  0  0  0  0  0  0
   61.5699   26.0679   48.1778 H   0  0  0  0  0  0  0  0  0  0  0  0
   59.6112   25.4551   46.7229 H   0  0  0  0  0  0  0  0  0  0  0  0
   56.9014   33.7201   46.6640 H   0  0  0  0  0  0  0  0  0  0  0  0
   58.7000   32.2100   48.2040 H   0  0  0  0  0  0  0  0  0  0  0  0
   58.7002   35.3130   46.6821 H   0  0  0  0  0  0  0  0  0  0  0  0
   59.5310   33.3140   48.5840 H   0  0  0  0  0  0  0  0  0  0  0  0
   61.7240   30.6020   48.9660 H   0  0  0  0  0  0  0  0  0  0  0  0
   61.2242   32.3525   50.9224 H   0  0  0  0  0  0  0  0  0  0  0  0
  1  2  1  0
  2  3  2  0
  2  4  2  0
  2  5  1  0
  5  6  2  0
  6  7  1  0
  7  8  2  0
  8  9  1  0
  9 10  1  0
 10 11  1  0
 11 12  2  0
 12 13  1  0
 13 14  2  0
 14 15  1  0
 15 16  1  0
 16 17  1  0
 17 18  1  0
 18 19  1  0
 19 20  1  0
 20 21  1  0
 21 22  2  0
 21 23  1  0
 23 24  1  0
 24 25  1  0
 25 26  1  0
 26 27  1  0
 27 28  1  0
 28 29  1  0
 29 30  2  0
 30 31  1  0
 31 32  2  0
 32 33  1  0
 33 34  2  0
 18 35  1  0
 35 36  1  0
 35 37  1  0
 37 38  1  0
 15 39  1  0
 39 40  2  0
 39 41  1  0
  9 42  2  0
 42  5  1  0
 41 12  1  0
 37 16  1  0
 34 29  1  0
  1 43  1  0
  1 44  1  0
  6 45  1  0
  7 46  1  0
  8 47  1  0
 10 48  1  0
 10 49  1  0
 13 50  1  0
 14 51  1  0
 16 52  1  6
 18 53  1  1
 19 54  1  0
 19 55  1  0
 23 56  1  0
 23 57  1  0
 24 58  1  0
 24 59  1  0
 25 60  1  0
 25 61  1  0
 26 62  1  0
 26 63  1  0
 27 64  1  0
 27 65  1  0
 28 66  1  0
 28 67  1  0
 30 68  1  0
 31 69  1  0
 32 70  1  0
 33 71  1  0
 34 72  1  0
 35 73  1  6
 36 74  1  0
 37 75  1  6
 38 76  1  0
 41 77  1  0
 42 78  1  0
M  END
>  <smiles>  (9) 
NS(=O)(=O)c1cccc(CN=c2ccn(C3OC(COC(=O)CCCCCCc4ccccc4)C(O)C3O)c(=O)[nH]2)c1

>  <score_type>  (9) 
oracle

>  <origin>  (9) 
adg

>  <m_score__min__energy>  (9) 
-10.06

>  <m_primary>  (9) 
energy

$$$$
9:0
     RDKit          3D

 48 51  0  0  0  0  0  0  0  0999 V2000
   58.1600   33.2140   44.1220 C   0  0  0  0  0  0  0  0  0  0  0  0
   58.1640   32.0290   43.5130 C   0  0  0  0  0  0  0  0  0  0  0  0
   57.6430   30.7910   44.1350 C   0  0  0  0  0  0  0  0  0  0  0  0
   56.2680   30.4920   43.9700 C   0  0  0  0  0  0  0  0  0  0  0  0
   55.7040   29.3410   44.5420 C   0  0  0  0  0  0  0  0  0  0  0  0
   56.5430   28.4920   45.2540 C   0  0  0  0  0  0  0  0  0  0  0  0
   56.2720   27.3150   45.9080 C   0  0  0  0  0  0  0  0  0  0  0  0
   55.0260   26.7010   45.9740 O   0  0  0  0  0  0  0  0  0  0  0  0
   57.4010   26.8180   46.4640 N   0  0  0  0  0  0  0  0  0  0  0  0
   57.5030   25.5210   47.1470 C   0  0  0  0  0  0  0  0  0  0  0  0
   56.5380   24.5330   46.5600 C   0  0  0  0  0  0  0  0  0  0  0  0
   55.4970   24.0170   47.2370 N   0  0  0  0  0  0  0  0  0  0  0  0
   54.9180   23.1760   46.3540 C   0  0  0  0  0  0  0  0  0  0  0  0
   55.5410   23.1300   45.1570 N   0  0  0  0  0  0  0  0  0  0  0  0
   56.5670   23.9870   45.2940 C   0  0  0  0  0  0  0  0  0  0  0  0
   57.5520   24.2840   44.2120 C   0  0  0  0  0  0  0  0  0  0  0  0
   58.4100   27.6740   46.1350 C   0  0  0  0  0  0  0  0  0  0  0  0
   59.8340   27.4610   46.4540 C   0  0  0  0  0  0  0  0  0  0  0  0
   60.7100   27.6100   45.5600 O   0  0  0  0  0  0  0  0  0  0  0  0
   60.2170   27.0920   47.7800 N   0  0  0  0  0  0  0  0  0  0  0  0
   60.4270   28.0640   48.8430 C   0  0  0  0  0  0  0  0  0  0  0  0
   60.1480   29.4410   48.3130 C   0  0  0  0  0  0  0  0  0  0  0  0
   61.1880   30.2050   47.7570 C   0  0  0  0  0  0  0  0  0  0  0  0
   60.9400   31.5040   47.3010 C   0  0  0  0  0  0  0  0  0  0  0  0
   59.6590   32.0520   47.4080 C   0  0  0  0  0  0  0  0  0  0  0  0
   59.4210   33.3110   46.9680 F   0  0  0  0  0  0  0  0  0  0  0  0
   58.6240   31.3030   47.9750 C   0  0  0  0  0  0  0  0  0  0  0  0
   58.8670   30.0040   48.4320 C   0  0  0  0  0  0  0  0  0  0  0  0
   57.8870   28.7320   45.3930 C   0  0  0  0  0  0  0  0  0  0  0  0
   58.4750   29.8840   44.8480 C   0  0  0  0  0  0  0  0  0  0  0  0
   59.8360   30.1230   44.9950 O   0  0  0  0  0  0  0  0  0  0  0  0
   58.5620   34.0987   43.6065 H   0  0  0  0  0  0  0  0  0  0  0  0
   57.7547   33.3077   45.1403 H   0  0  0  0  0  0  0  0  0  0  0  0
   58.5760   31.9675   42.4949 H   0  0  0  0  0  0  0  0  0  0  0  0
   55.6325   31.1726   43.3844 H   0  0  0  0  0  0  0  0  0  0  0  0
   54.6326   29.1181   44.4304 H   0  0  0  0  0  0  0  0  0  0  0  0
   58.5269   25.1346   47.0364 H   0  0  0  0  0  0  0  0  0  0  0  0
   57.2602   25.6622   48.2105 H   0  0  0  0  0  0  0  0  0  0  0  0
   54.0216   22.5830   46.5880 H   0  0  0  0  0  0  0  0  0  0  0  0
   58.5135   24.5739   44.6609 H   0  0  0  0  0  0  0  0  0  0  0  0
   57.6934   23.3885   43.5890 H   0  0  0  0  0  0  0  0  0  0  0  0
   57.1748   25.1084   43.5890 H   0  0  0  0  0  0  0  0  0  0  0  0
   59.7471   27.8469   49.6800 H   0  0  0  0  0  0  0  0  0  0  0  0
   61.4671   28.0071   49.1965 H   0  0  0  0  0  0  0  0  0  0  0  0
   62.1999   29.7805   47.6801 H   0  0  0  0  0  0  0  0  0  0  0  0
   61.7548   32.0951   46.8574 H   0  0  0  0  0  0  0  0  0  0  0  0
   57.6166   31.7362   48.0619 H   0  0  0  0  0  0  0  0  0  0  0  0
   58.0521   29.4212   48.8862 H   0  0  0  0  0  0  0  0  0  0  0  0
  1  2  2  0
  2  3  1  0
  3  4  1  0
  4  5  2  0
  5  6  1  0
  6  7  2  0
  7  8  1  0
  7  9  1  0
  9 10  1  0
 10 11  1  0
 11 12  1  0
 12 13  2  0
 13 14  1  0
 14 15  1  0
 15 16  1  0
  9 17  1  0
 17 18  1  0
 18 19  2  0
 18 20  1  0
 20 21  1  0
 21 22  1  0
 22 23  2  0
 23 24  1  0
 24 25  2  0
 25 26  1  0
 25 27  1  0
 27 28  2  0
 17 29  2  0
 29 30  1  0
 30 31  1  0
 30  3  2  0
 29  6  1  0
 15 11  2  0
 28 22  1  0
  1 32  1  0
  1 33  1  0
  2 34  1  0
  4 35  1  0
  5 36  1  0
 10 37  1  0
 10 38  1  0
 13 39  1  0
 16 40  1  0
 16 41  1  0
 16 42  1  0
 21 43  1  0
 21 44  1  0
 23 45  1  0
 24 46  1  0
 27 47  1  0
 28 48  1  0
M  CHG  4   8  -1  14  -1  20  -1  31  -1
M  END
>  <UniqueID>  (10) 
8

>  <SMILES>  (10) 
C=Cc1ccc2c([O-])n(Cc3nc[n-]c3C)c(C(=O)[N-]Cc3ccc(F)cc3)c2c1[O-]

>  <Energy>  (10) 
119.81739401099617

>  <Genealogy>  (10) 
C=Cc1ccc2c([O-])n(Cc3nc[n-]c3C)c(C(=O)[N-]Cc3ccc(F)cc3)c2c1[O-] (protonated)
C=Cc1ccc2c([O-])n(Cc3nc[n-]c3C)c(C(=O)[N-]Cc3ccc(F)cc3)c2c1[O-] (3D coordinates assigned)
C=Cc1ccc2c([O-])n(Cc3nc[n-]c3C)c(C(=O)[N-]Cc3ccc(F)cc3)c2c1[O-] (optimized conformer: 119.81739401099617 kcal/mol)

>  <smiles>  (10) 
C=Cc1ccc2c(O)n(Cc3nc[nH]c3C)c(C(=O)NCc3ccc(F)cc3)c2c1O

>  <score_type>  (10) 
oracle

>  <origin>  (10) 
adg

>  <m_score__min__energy>  (10) 
-15.65

>  <m_primary>  (10) 
energy

$$$$
10:0
     RDKit          3D

 62 66  0  0  0  0  0  0  0  0999 V2000
   57.2850   22.2620   49.4020 O   0  0  0  0  0  0  0  0  0  0  0  0
   56.6770   21.4930   48.6060 C   0  0  0  0  0  0  0  0  0  0  0  0
   55.2500   21.4220   48.6140 N   0  0  0  0  0  0  0  0  0  0  0  0
   54.3670   22.0450   47.6690 C   0  0  0  0  0  0  0  0  0  0  0  0
   52.9700   21.9630   47.7970 C   0  0  0  0  0  0  0  0  0  0  0  0
   52.1420   22.5800   46.8560 C   0  0  0  0  0  0  0  0  0  0  0  0
   52.6990   23.2700   45.7760 C   0  0  0  0  0  0  0  0  0  0  0  0
   54.0910   23.3330   45.6200 C   0  0  0  0  0  0  0  0  0  0  0  0
   54.6940   24.1390   44.5030 C   0  0  0  0  0  0  0  0  0  0  0  0
   55.8980   24.8710   45.0100 C   0  0  0  0  0  0  0  0  0  0  0  0
   57.1650   24.4220   44.8800 N   0  0  0  0  0  0  0  0  0  0  0  0
   57.8970   25.3170   45.5860 C   0  0  0  0  0  0  0  0  0  0  0  0
   59.1460   25.2180   45.7230 O   0  0  0  0  0  0  0  0  0  0  0  0
   57.1590   26.3020   46.1480 N   0  0  0  0  0  0  0  0  0  0  0  0
   57.6020   27.3670   47.0560 C   0  0  0  0  0  0  0  0  0  0  0  0
   58.7660   28.1260   46.4800 C   0  0  0  0  0  0  0  0  0  0  0  0
   59.8650   27.5260   46.3350 O   0  0  0  0  0  0  0  0  0  0  0  0
   58.6640   29.5210   46.1340 N   0  0  0  0  0  0  0  0  0  0  0  0
   57.9790   29.9120   44.9380 C   0  0  0  0  0  0  0  0  0  0  0  0
   57.1610   28.9950   44.2640 C   0  0  0  0  0  0  0  0  0  0  0  0
   56.4970   29.3810   43.0960 C   0  0  0  0  0  0  0  0  0  0  0  0
   56.6400   30.6850   42.6040 C   0  0  0  0  0  0  0  0  0  0  0  0
   57.4510   31.6050   43.2770 C   0  0  0  0  0  0  0  0  0  0  0  0
   58.1240   31.2200   44.4400 C   0  0  0  0  0  0  0  0  0  0  0  0
   59.2870   30.5370   46.9260 C   0  0  0  0  0  0  0  0  0  0  0  0
   60.6820   30.5850   47.0440 C   0  0  0  0  0  0  0  0  0  0  0  0
   61.2670   31.5810   47.8280 C   0  0  0  0  0  0  0  0  0  0  0  0
   60.4620   32.5200   48.4750 C   0  0  0  0  0  0  0  0  0  0  0  0
   59.0760   32.4500   48.3240 C   0  0  0  0  0  0  0  0  0  0  0  0
   58.5230   31.4710   47.5590 N   0  0  0  0  0  0  0  0  0  0  0  0
   55.8940   25.9990   45.8060 C   0  0  0  0  0  0  0  0  0  0  0  0
   54.7710   26.7120   46.2120 O   0  0  0  0  0  0  0  0  0  0  0  0
   54.9190   22.7150   46.5700 C   0  0  0  0  0  0  0  0  0  0  0  0
   57.3820   20.6910   47.7020 O   0  0  0  0  0  0  0  0  0  0  0  0
   57.3660   20.8450   46.3050 C   0  0  0  0  0  0  0  0  0  0  0  0
   56.3540   20.2070   45.5760 C   0  0  0  0  0  0  0  0  0  0  0  0
   56.2810   20.3520   44.1870 C   0  0  0  0  0  0  0  0  0  0  0  0
   57.2200   21.1390   43.5130 C   0  0  0  0  0  0  0  0  0  0  0  0
   58.2240   21.7920   44.2320 C   0  0  0  0  0  0  0  0  0  0  0  0
   58.2950   21.6530   45.6250 C   0  0  0  0  0  0  0  0  0  0  0  0
   52.5275   21.4119   48.6399 H   0  0  0  0  0  0  0  0  0  0  0  0
   51.0490   22.5225   46.9655 H   0  0  0  0  0  0  0  0  0  0  0  0
   52.0428   23.7657   45.0454 H   0  0  0  0  0  0  0  0  0  0  0  0
   54.9912   23.4667   43.6846 H   0  0  0  0  0  0  0  0  0  0  0  0
   53.9537   24.8631   44.1319 H   0  0  0  0  0  0  0  0  0  0  0  0
   56.7679   28.0639   47.2251 H   0  0  0  0  0  0  0  0  0  0  0  0
   57.9215   26.9063   48.0024 H   0  0  0  0  0  0  0  0  0  0  0  0
   57.0417   27.9732   44.6535 H   0  0  0  0  0  0  0  0  0  0  0  0
   55.8610   28.6595   42.5622 H   0  0  0  0  0  0  0  0  0  0  0  0
   56.1134   30.9861   41.6864 H   0  0  0  0  0  0  0  0  0  0  0  0
   57.5589   32.6296   42.8916 H   0  0  0  0  0  0  0  0  0  0  0  0
   58.7676   31.9402   44.9664 H   0  0  0  0  0  0  0  0  0  0  0  0
   61.3097   29.8459   46.5246 H   0  0  0  0  0  0  0  0  0  0  0  0
   62.3608   31.6257   47.9357 H   0  0  0  0  0  0  0  0  0  0  0  0
   60.9147   33.3063   49.0969 H   0  0  0  0  0  0  0  0  0  0  0  0
   58.4307   33.1872   48.8241 H   0  0  0  0  0  0  0  0  0  0  0  0
   56.0116   22.7573   46.4502 H   0  0  0  0  0  0  0  0  0  0  0  0
   55.6113   19.5874   46.1000 H   0  0  0  0  0  0  0  0  0  0  0  0
   55.4833   19.8459   43.6235 H   0  0  0  0  0  0  0  0  0  0  0  0
   57.1682   21.2436   42.4192 H   0  0  0  0  0  0  0  0  0  0  0  0
   58.9600   22.4163   43.7042 H   0  0  0  0  0  0  0  0  0  0  0  0
   59.0804   22.1779   46.1886 H   0  0  0  0  0  0  0  0  0  0  0  0
  1  2  2  0
  2  3  1  0
  3  4  1  0
  4  5  2  0
  5  6  1  0
  6  7  2  0
  7  8  1  0
  8  9  1  0
  9 10  1  0
 10 11  1  0
 11 12  1  0
 12 13  2  0
 12 14  1  0
 14 15  1  0
 15 16  1  0
 16 17  2  0
 16 18  1  0
 18 19  1  0
 19 20  2  0
 20 21  1  0
 21 22  2  0
 22 23  1  0
 23 24  2  0
 18 25  1  0
 25 26  2  0
 26 27  1  0
 27 28  2  0
 28 29  1  0
 29 30  2  0
 14 31  1  0
 31 32  1  0
  8 33  2  0
  2 34  1  0
 34 35  1  0
 35 36  2  0
 36 37  1  0
 37 38  2  0
 38 39  1  0
 39 40  2  0
 33  4  1  0
 40 35  1  0
 31 10  2  0
 24 19  1  0
 30 25  1  0
  5 41  1  0
  6 42  1  0
  7 43  1  0
  9 44  1  0
  9 45  1  0
 15 46  1  0
 15 47  1  0
 20 48  1  0
 21 49  1  0
 22 50  1  0
 23 51  1  0
 24 52  1  0
 26 53  1  0
 27 54  1  0
 28 55  1  0
 29 56  1  0
 33 57  1  0
 36 58  1  0
 37 59  1  0
 38 60  1  0
 39 61  1  0
 40 62  1  0
M  CHG  3   3  -1  11  -1  32  -1
M  END
>  <UniqueID>  (11) 
9

>  <SMILES>  (11) 
O=C([N-]c1cccc(Cc2[n-]c(=O)n(CC(=O)N(c3ccccc3)c3ccccn3)c2[O-])c1)Oc1ccccc1

>  <Energy>  (11) 
120.20040032576793

>  <Genealogy>  (11) 
O=C([N-]c1cccc(Cc2[n-]c(=O)n(CC(=O)N(c3ccccc3)c3ccccn3)c2[O-])c1)Oc1ccccc1 (protonated)
O=C([N-]c1cccc(Cc2[n-]c(=O)n(CC(=O)N(c3ccccc3)c3ccccn3)c2[O-])c1)Oc1ccccc1 (3D coordinates assigned)
O=C([N-]c1cccc(Cc2[n-]c(=O)n(CC(=O)N(c3ccccc3)c3ccccn3)c2[O-])c1)Oc1ccccc1 (optimized conformer: 120.20040032576793 kcal/mol)

>  <smiles>  (11) 
O=C(Nc1cccc(Cc2[nH]c(=O)n(CC(=O)N(c3ccccc3)c3ccccn3)c2O)c1)Oc1ccccc1

>  <score_type>  (11) 
oracle

>  <origin>  (11) 
adg

>  <m_score__min__energy>  (11) 
-15.56

>  <m_primary>  (11) 
energy

$$$$
11:0
     RDKit          3D

 87 90  0  0  0  0  0  0  0  0999 V2000
   51.2970   30.1690   52.2800 C   0  0  0  0  0  0  0  0  0  0  0  0
   51.9490   31.0080   50.8510 S   0  0  0  0  0  0  0  0  0  0  0  0
   51.5210   30.2730   49.6120 O   0  0  0  0  0  0  0  0  0  0  0  0
   51.4070   32.4090   50.8050 O   0  0  0  0  0  0  0  0  0  0  0  0
   53.6860   31.0400   50.9060 N   0  0  0  0  0  0  0  0  0  0  0  0
   54.1820   30.1250   51.9320 C   0  0  0  0  0  0  0  0  0  0  0  0
   55.4540   30.6810   52.5120 C   0  0  0  0  0  0  0  0  0  0  0  0
   56.2330   31.5820   51.7680 C   0  0  0  0  0  0  0  0  0  0  0  0
   57.3890   32.1390   52.3210 C   0  0  0  0  0  0  0  0  0  0  0  0
   57.7660   31.8300   53.6400 C   0  0  0  0  0  0  0  0  0  0  0  0
   59.0190   32.4230   54.2260 C   0  0  0  0  0  0  0  0  0  0  0  0
   60.1700   32.0770   53.3960 N   0  0  0  0  0  0  0  0  0  0  0  0
   60.7020   32.9700   52.4080 C   0  0  0  0  0  0  0  0  0  0  0  0
   59.9740   33.9050   51.9610 O   0  0  0  0  0  0  0  0  0  0  0  0
   62.1030   32.8220   51.9180 C   0  0  0  0  0  0  0  0  0  0  0  0
   62.7030   33.8890   51.0350 C   0  0  0  0  0  0  0  0  0  0  0  0
   62.4670   33.6170   49.5680 C   0  0  0  0  0  0  0  0  0  0  0  0
   61.3740   34.1930   48.8880 C   0  0  0  0  0  0  0  0  0  0  0  0
   61.1870   33.9510   47.5280 C   0  0  0  0  0  0  0  0  0  0  0  0
   62.0960   33.1560   46.8250 C   0  0  0  0  0  0  0  0  0  0  0  0
   63.1990   32.6060   47.4820 C   0  0  0  0  0  0  0  0  0  0  0  0
   63.3870   32.8390   48.8460 C   0  0  0  0  0  0  0  0  0  0  0  0
   62.8160   31.7520   52.1490 N   0  0  0  0  0  0  0  0  0  0  0  0
   62.5650   30.4460   51.6160 C   0  0  0  0  0  0  0  0  0  0  0  0
   63.0380   30.1280   50.4890 O   0  0  0  0  0  0  0  0  0  0  0  0
   61.8070   29.4310   52.4220 C   0  0  0  0  0  0  0  0  0  0  0  0
   60.8410   28.5960   51.5720 C   0  0  0  0  0  0  0  0  0  0  0  0
   60.3050   29.3750   50.3950 C   0  0  0  0  0  0  0  0  0  0  0  0
   59.5680   30.5540   50.5920 C   0  0  0  0  0  0  0  0  0  0  0  0
   59.0880   31.2750   49.4980 C   0  0  0  0  0  0  0  0  0  0  0  0
   59.3250   30.8330   48.1840 C   0  0  0  0  0  0  0  0  0  0  0  0
   58.7700   31.5950   47.0310 C   0  0  0  0  0  0  0  0  0  0  0  0
   58.4720   32.8110   47.1910 O   0  0  0  0  0  0  0  0  0  0  0  0
   58.5290   30.9800   45.7470 N   0  0  0  0  0  0  0  0  0  0  0  0
   59.5000   30.0680   45.1280 C   0  0  0  0  0  0  0  0  0  0  0  0
   58.7870   28.8520   44.4850 C   0  0  0  0  0  0  0  0  0  0  0  0
   57.3590   29.1010   44.1430 N   0  0  0  0  0  0  0  0  0  0  0  0
   56.4380   28.6170   45.2060 C   0  0  0  0  0  0  0  0  0  0  0  0
   56.7680   27.1920   45.6830 C   0  0  0  0  0  0  0  0  0  0  0  0
   55.5940   26.5560   46.2800 N   0  0  0  0  0  0  0  0  0  0  0  0
   57.1380   30.5120   43.7510 C   0  0  0  0  0  0  0  0  0  0  0  0
   57.4190   31.4730   44.9190 C   0  0  0  0  0  0  0  0  0  0  0  0
   60.0380   29.6330   47.9930 C   0  0  0  0  0  0  0  0  0  0  0  0
   60.5410   28.9240   49.0860 C   0  0  0  0  0  0  0  0  0  0  0  0
   56.9910   30.9250   54.3850 C   0  0  0  0  0  0  0  0  0  0  0  0
   55.8410   30.3610   53.8260 C   0  0  0  0  0  0  0  0  0  0  0  0
   51.6734   30.6534   53.1931 H   0  0  0  0  0  0  0  0  0  0  0  0
   50.1982   30.2188   52.2648 H   0  0  0  0  0  0  0  0  0  0  0  0
   51.6166   29.1166   52.2648 H   0  0  0  0  0  0  0  0  0  0  0  0
   53.4293   30.0199   52.7272 H   0  0  0  0  0  0  0  0  0  0  0  0
   54.3773   29.1384   51.4865 H   0  0  0  0  0  0  0  0  0  0  0  0
   55.9316   31.8506   50.7448 H   0  0  0  0  0  0  0  0  0  0  0  0
   58.0075   32.8229   51.7213 H   0  0  0  0  0  0  0  0  0  0  0  0
   58.9178   33.5174   54.2708 H   0  0  0  0  0  0  0  0  0  0  0  0
   59.1698   32.0209   55.2387 H   0  0  0  0  0  0  0  0  0  0  0  0
   60.6910   31.1980   53.6300 H   0  0  0  0  0  0  0  0  0  0  0  0
   62.2500   34.8577   51.2927 H   0  0  0  0  0  0  0  0  0  0  0  0
   63.7896   33.8961   51.2059 H   0  0  0  0  0  0  0  0  0  0  0  0
   60.6665   34.8355   49.4327 H   0  0  0  0  0  0  0  0  0  0  0  0
   60.3218   34.3869   47.0070 H   0  0  0  0  0  0  0  0  0  0  0  0
   61.9427   32.9631   45.7529 H   0  0  0  0  0  0  0  0  0  0  0  0
   63.9197   31.9893   46.9250 H   0  0  0  0  0  0  0  0  0  0  0  0
   64.2611   32.4106   49.3582 H   0  0  0  0  0  0  0  0  0  0  0  0
   62.5287   28.7532   52.9014 H   0  0  0  0  0  0  0  0  0  0  0  0
   61.2063   29.9789   53.1629 H   0  0  0  0  0  0  0  0  0  0  0  0
   61.3730   27.7088   51.1980 H   0  0  0  0  0  0  0  0  0  0  0  0
   59.9892   28.3110   52.2070 H   0  0  0  0  0  0  0  0  0  0  0  0
   59.3682   30.9107   51.6132 H   0  0  0  0  0  0  0  0  0  0  0  0
   58.5173   32.2004   49.6653 H   0  0  0  0  0  0  0  0  0  0  0  0
   60.0581   30.6103   44.3506 H   0  0  0  0  0  0  0  0  0  0  0  0
   60.1836   29.7016   45.9080 H   0  0  0  0  0  0  0  0  0  0  0  0
   59.3226   28.5847   43.5621 H   0  0  0  0  0  0  0  0  0  0  0  0
   58.8004   28.0433   45.2305 H   0  0  0  0  0  0  0  0  0  0  0  0
   56.5059   29.2993   46.0662 H   0  0  0  0  0  0  0  0  0  0  0  0
   55.4245   28.5950   44.7789 H   0  0  0  0  0  0  0  0  0  0  0  0
   57.1038   26.5933   44.8235 H   0  0  0  0  0  0  0  0  0  0  0  0
   57.5605   27.2509   46.4436 H   0  0  0  0  0  0  0  0  0  0  0  0
   54.7460   27.1010   46.0140 H   0  0  0  0  0  0  0  0  0  0  0  0
   55.6790   26.6380   47.3190 H   0  0  0  0  0  0  0  0  0  0  0  0
   57.8087   30.7599   42.9151 H   0  0  0  0  0  0  0  0  0  0  0  0
   56.0846   30.6269   43.4557 H   0  0  0  0  0  0  0  0  0  0  0  0
   57.6816   32.4624   44.5164 H   0  0  0  0  0  0  0  0  0  0  0  0
   56.5165   31.5404   45.5442 H   0  0  0  0  0  0  0  0  0  0  0  0
   60.1999   29.2512   46.9742 H   0  0  0  0  0  0  0  0  0  0  0  0
   61.1255   28.0069   48.9207 H   0  0  0  0  0  0  0  0  0  0  0  0
   57.2900   30.6601   55.4099 H   0  0  0  0  0  0  0  0  0  0  0  0
   55.2334   29.6611   54.4184 H   0  0  0  0  0  0  0  0  0  0  0  0
  1  2  1  0
  2  3  2  0
  2  4  2  0
  2  5  1  0
  5  6  1  0
  6  7  1  0
  7  8  2  0
  8  9  1  0
  9 10  2  0
 10 11  1  0
 11 12  1  0
 12 13  1  0
 13 14  2  0
 13 15  1  0
 15 16  1  0
 16 17  1  0
 17 18  2  0
 18 19  1  0
 19 20  2  0
 20 21  1  0
 21 22  2  0
 15 23  2  3
 23 24  1  0
 24 25  2  0
 24 26  1  0
 26 27  1  0
 27 28  1  0
 28 29  2  0
 29 30  1  0
 30 31  2  0
 31 32  1  0
 32 33  2  0
 32 34  1  0
 34 35  1  0
 35 36  1  0
 36 37  1  0
 37 38  1  0
 38 39  1  0
 39 40  1  0
 37 41  1  0
 41 42  1  0
 31 43  1  0
 43 44  2  0
 10 45  1  0
 45 46  2  0
 46  7  1  0
 22 17  1  0
 44 28  1  0
 42 34  1  0
  1 47  1  0
  1 48  1  0
  1 49  1  0
  6 50  1  0
  6 51  1  0
  8 52  1  0
  9 53  1  0
 11 54  1  0
 11 55  1  0
 12 56  1  0
 16 57  1  0
 16 58  1  0
 18 59  1  0
 19 60  1  0
 20 61  1  0
 21 62  1  0
 22 63  1  0
 26 64  1  0
 26 65  1  0
 27 66  1  0
 27 67  1  0
 29 68  1  0
 30 69  1  0
 35 70  1  0
 35 71  1  0
 36 72  1  0
 36 73  1  0
 38 74  1  0
 38 75  1  0
 39 76  1  0
 39 77  1  0
 40 78  1  0
 40 79  1  0
 41 80  1  0
 41 81  1  0
 42 82  1  0
 42 83  1  0
 43 84  1  0
 44 85  1  0
 45 86  1  0
 46 87  1  0
M  CHG  1   5  -1
M  END
>  <UniqueID>  (12) 
10

>  <SMILES>  (12) 
CS(=O)(=O)[N-]Cc1ccc(CNC(=O)C(Cc2ccccc2)=NC(=O)CCc2ccc(C(=O)N3CCN(CCN)CC3)cc2)cc1

>  <Energy>  (12) 
100.34612779281234

>  <Genealogy>  (12) 
CS(=O)(=O)[N-]Cc1ccc(CNC(=O)C(Cc2ccccc2)=NC(=O)CCc2ccc(C(=O)N3CCN(CCN)CC3)cc2)cc1 (protonated)
CS(=O)(=O)[N-]Cc1ccc(CNC(=O)C(Cc2ccccc2)=NC(=O)CCc2ccc(C(=O)N3CCN(CCN)CC3)cc2)cc1 (3D coordinates assigned)
CS(=O)(=O)[N-]Cc1ccc(CNC(=O)C(Cc2ccccc2)=NC(=O)CCc2ccc(C(=O)N3CCN(CCN)CC3)cc2)cc1 (nonaromatic ring conformer: 100.34612779281234 kcal/mol)

>  <smiles>  (12) 
CS(=O)(=O)NCc1ccc(CNC(=O)C(Cc2ccccc2)=NC(=O)CCc2ccc(C(=O)N3CCN(CCN)CC3)cc2)cc1

>  <score_type>  (12) 
oracle

>  <origin>  (12) 
adg

>  <m_score__min__energy>  (12) 
-11.98

>  <m_primary>  (12) 
energy

$$$$
12:0
     RDKit          3D

 57 59  0  0  0  0  0  0  0  0999 V2000
   64.9660   32.7620   49.7040 C   0  0  0  0  0  0  0  0  0  0  0  0
   63.7780   31.8070   49.5910 C   0  0  0  0  0  0  0  0  0  0  0  0
   62.8890   32.1250   48.4120 C   0  0  0  0  0  0  0  0  0  0  0  0
   63.0520   33.2120   47.7920 O   0  0  0  0  0  0  0  0  0  0  0  0
   61.8140   31.2400   48.0290 N   0  0  0  0  0  0  0  0  0  0  0  0
   61.1290   31.4430   46.7420 C   0  0  0  0  0  0  0  0  0  0  0  0
   60.7090   30.1010   46.1340 C   0  0  0  0  0  0  0  0  0  0  0  0
   60.0530   29.2430   47.1270 N   0  0  0  0  0  0  0  0  0  0  0  0
   59.4870   27.9920   46.7140 C   0  0  0  0  0  0  0  0  0  0  0  0
   60.2730   26.8330   46.7520 C   0  0  0  0  0  0  0  0  0  0  0  0
   59.7370   25.6050   46.3540 C   0  0  0  0  0  0  0  0  0  0  0  0
   58.4150   25.5310   45.9120 C   0  0  0  0  0  0  0  0  0  0  0  0
   57.6210   26.6810   45.8790 C   0  0  0  0  0  0  0  0  0  0  0  0
   58.1420   27.9150   46.3040 C   0  0  0  0  0  0  0  0  0  0  0  0
   57.3440   29.1080   46.2740 N   0  0  0  0  0  0  0  0  0  0  0  0
   56.5850   29.5980   45.1610 C   0  0  0  0  0  0  0  0  0  0  0  0
   55.5260   28.9980   44.8410 O   0  0  0  0  0  0  0  0  0  0  0  0
   57.0360   30.7840   44.3560 C   0  0  0  0  0  0  0  0  0  0  0  0
   56.4640   32.0160   44.9040 N   0  0  0  0  0  0  0  0  0  0  0  0
   57.6210   33.3150   44.8720 S   0  0  0  0  0  0  0  0  0  0  0  0
   58.6710   33.0180   43.8390 O   0  0  0  0  0  0  0  0  0  0  0  0
   56.9340   34.6010   44.5010 O   0  0  0  0  0  0  0  0  0  0  0  0
   58.3920   33.4640   46.4480 C   0  0  0  0  0  0  0  0  0  0  0  0
   58.0470   32.6030   47.5000 C   0  0  0  0  0  0  0  0  0  0  0  0
   58.6790   32.7190   48.7410 C   0  0  0  0  0  0  0  0  0  0  0  0
   59.6740   33.6890   48.9410 C   0  0  0  0  0  0  0  0  0  0  0  0
   60.3260   33.8390   50.2830 C   0  0  0  0  0  0  0  0  0  0  0  0
   60.0060   34.5600   47.8920 C   0  0  0  0  0  0  0  0  0  0  0  0
   59.3740   34.4410   46.6500 C   0  0  0  0  0  0  0  0  0  0  0  0
   59.9640   29.6530   48.5310 C   0  0  0  0  0  0  0  0  0  0  0  0
   61.3000   30.2440   48.9870 C   0  0  0  0  0  0  0  0  0  0  0  0
   65.1912   32.9431   50.7654 H   0  0  0  0  0  0  0  0  0  0  0  0
   65.8436   32.3151   49.2140 H   0  0  0  0  0  0  0  0  0  0  0  0
   64.7182   33.7151   49.2140 H   0  0  0  0  0  0  0  0  0  0  0  0
   64.1595   30.7814   49.4784 H   0  0  0  0  0  0  0  0  0  0  0  0
   63.1738   31.9164   50.5037 H   0  0  0  0  0  0  0  0  0  0  0  0
   60.2342   32.0622   46.9030 H   0  0  0  0  0  0  0  0  0  0  0  0
   61.8205   31.9442   46.0487 H   0  0  0  0  0  0  0  0  0  0  0  0
   60.0103   30.2871   45.3050 H   0  0  0  0  0  0  0  0  0  0  0  0
   61.6128   29.5862   45.7760 H   0  0  0  0  0  0  0  0  0  0  0  0
   61.3162   26.8896   47.0964 H   0  0  0  0  0  0  0  0  0  0  0  0
   60.3569   24.6970   46.3891 H   0  0  0  0  0  0  0  0  0  0  0  0
   57.9973   24.5660   45.5891 H   0  0  0  0  0  0  0  0  0  0  0  0
   56.5835   26.6197   45.5187 H   0  0  0  0  0  0  0  0  0  0  0  0
   58.1337   30.8480   44.3874 H   0  0  0  0  0  0  0  0  0  0  0  0
   56.6958   30.6622   43.3170 H   0  0  0  0  0  0  0  0  0  0  0  0
   57.2759   31.8334   47.3477 H   0  0  0  0  0  0  0  0  0  0  0  0
   58.3956   32.0473   49.5647 H   0  0  0  0  0  0  0  0  0  0  0  0
   59.5809   33.6676   51.0739 H   0  0  0  0  0  0  0  0  0  0  0  0
   61.1391   33.1044   50.3798 H   0  0  0  0  0  0  0  0  0  0  0  0
   60.7363   34.8550   50.3798 H   0  0  0  0  0  0  0  0  0  0  0  0
   60.7664   35.3395   48.0472 H   0  0  0  0  0  0  0  0  0  0  0  0
   59.6498   35.1182   45.8282 H   0  0  0  0  0  0  0  0  0  0  0  0
   59.1739   30.4104   48.6403 H   0  0  0  0  0  0  0  0  0  0  0  0
   59.7262   28.7754   49.1501 H   0  0  0  0  0  0  0  0  0  0  0  0
   61.1596   30.7293   49.9641 H   0  0  0  0  0  0  0  0  0  0  0  0
   62.0311   29.4248   49.0536 H   0  0  0  0  0  0  0  0  0  0  0  0
  1  2  1  0
  2  3  1  0
  3  4  2  0
  3  5  1  0
  5  6  1  0
  6  7  1  0
  7  8  1  0
  8  9  1  0
  9 10  2  0
 10 11  1  0
 11 12  2  0
 12 13  1  0
 13 14  2  0
 14 15  1  0
 15 16  1  0
 16 17  2  0
 16 18  1  0
 18 19  1  0
 19 20  1  0
 20 21  2  0
 20 22  2  0
 20 23  1  0
 23 24  2  0
 24 25  1  0
 25 26  2  0
 26 27  1  0
 26 28  1  0
 28 29  2  0
  8 30  1  0
 30 31  1  0
 31  5  1  0
 14  9  1  0
 29 23  1  0
  1 32  1  0
  1 33  1  0
  1 34  1  0
  2 35  1  0
  2 36  1  0
  6 37  1  0
  6 38  1  0
  7 39  1  0
  7 40  1  0
 10 41  1  0
 11 42  1  0
 12 43  1  0
 13 44  1  0
 18 45  1  0
 18 46  1  0
 24 47  1  0
 25 48  1  0
 27 49  1  0
 27 50  1  0
 27 51  1  0
 28 52  1  0
 29 53  1  0
 30 54  1  0
 30 55  1  0
 31 56  1  0
 31 57  1  0
M  CHG  2  15  -1  19  -1
M  END
>  <UniqueID>  (13) 
11

>  <SMILES>  (13) 
CCC(=O)N1CCN(c2ccccc2[N-]C(=O)C[N-]S(=O)(=O)c2ccc(C)cc2)CC1

>  <Energy>  (13) 
65.31427754751526

>  <Genealogy>  (13) 
CCC(=O)N1CCN(c2ccccc2[N-]C(=O)C[N-]S(=O)(=O)c2ccc(C)cc2)CC1 (protonated)
CCC(=O)N1CCN(c2ccccc2[N-]C(=O)C[N-]S(=O)(=O)c2ccc(C)cc2)CC1 (3D coordinates assigned)
CCC(=O)N1CCN(c2ccccc2[N-]C(=O)C[N-]S(=O)(=O)c2ccc(C)cc2)CC1 (nonaromatic ring conformer: 65.31427754751526 kcal/mol)

>  <smiles>  (13) 
CCC(=O)N1CCN(c2ccccc2NC(=O)CNS(=O)(=O)c2ccc(C)cc2)CC1

>  <score_type>  (13) 
oracle

>  <origin>  (13) 
adg

>  <m_score__min__energy>  (13) 
-12.08

>  <m_primary>  (13) 
energy

$$$$
13:0
     RDKit          3D

 43 45  0  0  0  0  0  0  0  0999 V2000
   57.0870   25.3550   47.4980 C   0  0  0  0  0  0  0  0  0  0  0  0
   57.5110   25.8300   46.3120 C   0  0  0  0  0  0  0  0  0  0  0  0
   57.1900   25.2880   45.0610 C   0  0  0  0  0  0  0  0  0  0  0  0
   56.4350   24.1930   44.8150 C   0  0  0  0  0  0  0  0  0  0  0  0
   54.9730   24.0910   45.0190 C   0  0  0  0  0  0  0  0  0  0  0  0
   54.2150   23.0070   44.7720 N   0  0  0  0  0  0  0  0  0  0  0  0
   52.9800   23.3870   45.1650 C   0  0  0  0  0  0  0  0  0  0  0  0
   51.9790   22.6300   45.0830 O   0  0  0  0  0  0  0  0  0  0  0  0
   52.9050   24.6410   45.6590 N   0  0  0  0  0  0  0  0  0  0  0  0
   54.1750   25.0690   45.5630 C   0  0  0  0  0  0  0  0  0  0  0  0
   54.5950   26.3310   45.9680 O   0  0  0  0  0  0  0  0  0  0  0  0
   57.7650   26.1270   44.1250 C   0  0  0  0  0  0  0  0  0  0  0  0
   58.4100   27.1310   44.8190 C   0  0  0  0  0  0  0  0  0  0  0  0
   59.0890   28.2740   44.1190 C   0  0  0  0  0  0  0  0  0  0  0  0
   58.2900   26.9420   46.1640 N   0  0  0  0  0  0  0  0  0  0  0  0
   58.7930   27.7800   47.2840 C   0  0  1  0  0  0  0  0  0  0  0  0
   60.2570   27.5380   47.6660 C   0  0  0  0  0  0  0  0  0  0  0  0
   58.5320   29.2440   47.0360 C   0  0  0  0  0  0  0  0  0  0  0  0
   57.5140   29.5750   46.3680 O   0  0  0  0  0  0  0  0  0  0  0  0
   59.3860   30.2570   47.5930 N   0  0  0  0  0  0  0  0  0  0  0  0
   59.4350   31.6130   47.1170 C   0  0  0  0  0  0  0  0  0  0  0  0
   60.6270   32.3430   47.2410 C   0  0  0  0  0  0  0  0  0  0  0  0
   60.7050   33.6540   46.7630 C   0  0  0  0  0  0  0  0  0  0  0  0
   59.6010   34.2420   46.1430 C   0  0  0  0  0  0  0  0  0  0  0  0
   58.4150   33.5160   45.9920 C   0  0  0  0  0  0  0  0  0  0  0  0
   57.0350   34.2450   45.1910 Cl  0  0  0  0  0  0  0  0  0  0  0  0
   58.3330   32.2030   46.4710 C   0  0  0  0  0  0  0  0  0  0  0  0
   57.3940   25.8509   48.4306 H   0  0  0  0  0  0  0  0  0  0  0  0
   56.4335   24.4709   47.5345 H   0  0  0  0  0  0  0  0  0  0  0  0
   56.9523   23.3017   44.4302 H   0  0  0  0  0  0  0  0  0  0  0  0
   57.7175   26.0155   43.0317 H   0  0  0  0  0  0  0  0  0  0  0  0
   59.5015   28.9683   44.8658 H   0  0  0  0  0  0  0  0  0  0  0  0
   59.9035   27.8865   43.4893 H   0  0  0  0  0  0  0  0  0  0  0  0
   58.3591   28.8039   43.4893 H   0  0  0  0  0  0  0  0  0  0  0  0
   58.2119   27.4536   48.1591 H   0  0  0  0  0  0  0  0  0  0  0  0
   60.3522   27.5223   48.7618 H   0  0  0  0  0  0  0  0  0  0  0  0
   60.5884   26.5729   47.2552 H   0  0  0  0  0  0  0  0  0  0  0  0
   60.8814   28.3451   47.2552 H   0  0  0  0  0  0  0  0  0  0  0  0
   59.9690   30.0140   48.4240 H   0  0  0  0  0  0  0  0  0  0  0  0
   61.5045   31.8810   47.7169 H   0  0  0  0  0  0  0  0  0  0  0  0
   61.6389   34.2242   46.8756 H   0  0  0  0  0  0  0  0  0  0  0  0
   59.6638   35.2761   45.7733 H   0  0  0  0  0  0  0  0  0  0  0  0
   57.4029   31.6301   46.3417 H   0  0  0  0  0  0  0  0  0  0  0  0
  1  2  2  0
  2  3  1  0
  3  4  2  3
  4  5  1  0
  5  6  1  0
  6  7  1  0
  7  8  2  0
  7  9  1  0
  9 10  1  0
 10 11  1  0
  3 12  1  0
 12 13  2  0
 13 14  1  0
 13 15  1  0
 15 16  1  0
 16 17  1  0
 16 18  1  0
 18 19  2  0
 18 20  1  0
 20 21  1  0
 21 22  2  0
 22 23  1  0
 23 24  2  0
 24 25  1  0
 25 26  1  0
 25 27  2  0
 15  2  1  0
 27 21  1  0
 10  5  2  0
  1 28  1  0
  1 29  1  0
  4 30  1  0
 12 31  1  0
 14 32  1  0
 14 33  1  0
 14 34  1  0
 16 35  1  1
 17 36  1  0
 17 37  1  0
 17 38  1  0
 20 39  1  0
 22 40  1  0
 23 41  1  0
 24 42  1  0
 27 43  1  0
M  CHG  3   6  -1   9  -1  11  -1
M  END
>  <UniqueID>  (14) 
12

>  <SMILES>  (14) 
C=c1c(=Cc2[n-]c(=O)[n-]c2[O-])cc(C)n1[C@@H](C)C(=O)Nc1cccc(Cl)c1

>  <Energy>  (14) 
114.738215741058

>  <Genealogy>  (14) 
C=c1c(=Cc2[n-]c(=O)[n-]c2[O-])cc(C)n1C(C)C(=O)Nc1cccc(Cl)c1 (protonated)
C=c1c(=Cc2[n-]c(=O)[n-]c2[O-])cc(C)n1[C@@H](C)C(=O)Nc1cccc(Cl)c1 (chirality)
C=c1c(=Cc2[n-]c(=O)[n-]c2[O-])cc(C)n1[C@@H](C)C(=O)Nc1cccc(Cl)c1 (3D coordinates assigned)
C=c1c(=Cc2[n-]c(=O)[n-]c2[O-])cc(C)n1[C@@H](C)C(=O)Nc1cccc(Cl)c1 (optimized conformer: 114.738215741058 kcal/mol)

>  <smiles>  (14) 
C=c1c(=Cc2[nH]c(=O)[nH]c2O)cc(C)n1C(C)C(=O)Nc1cccc(Cl)c1

>  <score_type>  (14) 
oracle

>  <origin>  (14) 
adg

>  <m_score__min__energy>  (14) 
-16.670000000000002

>  <m_primary>  (14) 
energy

$$$$
14:0
     RDKit          3D

 36 38  0  0  0  0  0  0  0  0999 V2000
   57.0247   33.5409   43.4518 H   0  0  0  0  0  0  0  0  0  0  0  0
   57.3640   33.2680   44.4620 C   0  0  0  0  0  0  0  0  0  0  0  0
   57.6220   31.8460   44.7640 C   0  0  0  0  0  0  0  0  0  0  0  0
   56.6450   31.0540   44.8250 O   0  0  0  0  0  0  0  0  0  0  0  0
   58.9370   31.3430   45.0440 N   0  0  0  0  0  0  0  0  0  0  0  0
   59.2040   30.2330   45.6690 C   0  0  0  0  0  0  0  0  0  0  0  0
   59.1560   28.6800   45.0040 S   0  0  0  0  0  0  0  0  0  0  0  0
   59.5710   27.9460   46.4640 C   0  0  0  0  0  0  0  0  0  0  0  0
   59.6600   26.4720   46.6940 C   0  0  0  0  0  0  0  0  0  0  0  0
   60.4547   26.0521   46.0599 H   0  0  0  0  0  0  0  0  0  0  0  0
   59.8895   26.2859   47.7536 H   0  0  0  0  0  0  0  0  0  0  0  0
   58.3510   25.8160   46.3510 C   0  0  0  0  0  0  0  0  0  0  0  0
   58.3170   24.4710   45.9460 C   0  0  0  0  0  0  0  0  0  0  0  0
   59.2481   23.8865   45.9073 H   0  0  0  0  0  0  0  0  0  0  0  0
   57.1040   23.8730   45.5920 C   0  0  0  0  0  0  0  0  0  0  0  0
   57.0812   22.8177   45.2825 H   0  0  0  0  0  0  0  0  0  0  0  0
   55.9200   24.6150   45.6310 C   0  0  0  0  0  0  0  0  0  0  0  0
   54.9658   24.1418   45.3559 H   0  0  0  0  0  0  0  0  0  0  0  0
   55.9470   25.9570   46.0190 C   0  0  0  0  0  0  0  0  0  0  0  0
   54.7700   26.6950   46.0490 O   0  0  0  0  0  0  0  0  0  0  0  0
   57.1590   26.5590   46.3750 C   0  0  0  0  0  0  0  0  0  0  0  0
   57.1784   27.6172   46.6746 H   0  0  0  0  0  0  0  0  0  0  0  0
   59.7040   28.9320   47.4390 C   0  0  0  0  0  0  0  0  0  0  0  0
   59.9522   28.7057   48.4865 H   0  0  0  0  0  0  0  0  0  0  0  0
   59.5010   30.1980   46.9860 N   0  0  0  0  0  0  0  0  0  0  0  0
   59.5610   31.0440   47.5960 H   0  0  0  0  0  0  0  0  0  0  0  0
   57.5270   34.2380   45.3700 C   0  0  0  0  0  0  0  0  0  0  0  0
   56.8842   35.1289   45.3142 H   0  0  0  0  0  0  0  0  0  0  0  0
   58.5350   34.1570   46.4410 C   0  0  0  0  0  0  0  0  0  0  0  0
   60.0200   34.9540   46.5000 S   0  0  0  0  0  0  0  0  0  0  0  0
   60.5120   34.3230   47.9790 C   0  0  0  0  0  0  0  0  0  0  0  0
   61.4607   34.5434   48.4902 H   0  0  0  0  0  0  0  0  0  0  0  0
   59.5150   33.4760   48.4440 C   0  0  0  0  0  0  0  0  0  0  0  0
   59.5854   32.9304   49.3966 H   0  0  0  0  0  0  0  0  0  0  0  0
   58.4110   33.3810   47.5870 C   0  0  0  0  0  0  0  0  0  0  0  0
   57.5327   32.7540   47.8002 H   0  0  0  0  0  0  0  0  0  0  0  0
  1  2  1  0
  2  3  1  0
  3  4  2  0
  3  5  1  0
  5  6  2  0
  6  7  1  0
  7  8  1  0
  8  9  1  0
  9 10  1  0
  9 11  1  0
  9 12  1  0
 12 13  2  0
 13 14  1  0
 13 15  1  0
 15 16  1  0
 15 17  2  0
 17 18  1  0
 17 19  1  0
 19 20  1  0
 19 21  2  0
 21 22  1  0
  8 23  2  0
 23 24  1  0
 23 25  1  0
 25 26  1  0
  2 27  2  0
 27 28  1  0
 27 29  1  0
 29 30  1  0
 30 31  1  0
 31 32  1  0
 31 33  2  0
 33 34  1  0
 33 35  1  0
 35 36  1  0
 25  6  1  0
 35 29  2  0
 21 12  1  0
M  CHG  1  20  -1
M  END
>  <UniqueID>  (15) 
13

>  <SMILES>  (15) 
O=C(/C=C/c1cccs1)/N=c1/[nH]cc(Cc2cccc([O-])c2)s1

>  <Energy>  (15) 
98.48132378576294

>  <Genealogy>  (15) 
O=C(C=Cc1cccs1)N=c1[nH]cc(Cc2cccc([O-])c2)s1 (protonated)
O=C(/C=C/c1cccs1)/N=c1/[nH]cc(Cc2cccc([O-])c2)s1 (cis-trans isomerization)
O=C(/C=C/c1cccs1)/N=c1/[nH]cc(Cc2cccc([O-])c2)s1 (3D coordinates assigned)
O=C(/C=C/c1cccs1)/N=c1/[nH]cc(Cc2cccc([O-])c2)s1 (optimized conformer: 98.48132378576294 kcal/mol)

>  <smiles>  (15) 
O=C(C=Cc1cccs1)N=c1[nH]cc(Cc2cccc(O)c2)s1

>  <score_type>  (15) 
oracle

>  <origin>  (15) 
adg

>  <m_score__min__energy>  (15) 
-11.68

>  <m_primary>  (15) 
energy

$$$$
15:0
     RDKit          3D

 34 35  0  0  0  0  0  0  0  0999 V2000
   60.4440   28.1380   50.3590 N   0  0  0  0  0  0  0  0  0  0  0  0
   61.1960   28.1370   51.5690 C   0  0  0  0  0  0  0  0  0  0  0  0
   62.3240   27.5780   51.6070 O   0  0  0  0  0  0  0  0  0  0  0  0
   60.6600   28.8290   52.7840 C   0  0  0  0  0  0  0  0  0  0  0  0
   59.3820   29.4040   52.5120 O   0  0  0  0  0  0  0  0  0  0  0  0
   59.1140   30.7800   52.3860 C   0  0  0  0  0  0  0  0  0  0  0  0
   60.1310   31.7520   52.4880 C   0  0  0  0  0  0  0  0  0  0  0  0
   59.8290   33.1080   52.3410 C   0  0  0  0  0  0  0  0  0  0  0  0
   58.5190   33.5110   52.0860 C   0  0  0  0  0  0  0  0  0  0  0  0
   57.5030   32.5600   51.9820 C   0  0  0  0  0  0  0  0  0  0  0  0
   57.7870   31.1940   52.1430 C   0  0  0  0  0  0  0  0  0  0  0  0
   56.6820   30.1830   52.0030 C   0  0  0  0  0  0  0  0  0  0  0  0
   55.4350   30.8700   51.6940 N   0  0  0  0  0  0  0  0  0  0  0  0
   54.1290   30.3010   51.8510 C   0  0  0  0  0  0  0  0  0  0  0  0
   53.9330   29.4830   52.7880 O   0  0  0  0  0  0  0  0  0  0  0  0
   53.0020   30.6160   50.9080 C   0  0  0  0  0  0  0  0  0  0  0  0
   51.9060   31.3410   51.6260 C   0  0  0  0  0  0  0  0  0  0  0  0
   51.6390   31.2010   52.9370 N   0  0  0  0  0  0  0  0  0  0  0  0
   50.6120   32.0550   53.1370 C   0  0  0  0  0  0  0  0  0  0  0  0
   50.0690   32.2110   54.2620 O   0  0  0  0  0  0  0  0  0  0  0  0
   50.2130   32.7310   52.0380 N   0  0  0  0  0  0  0  0  0  0  0  0
   51.0450   32.2680   51.0920 C   0  0  0  0  0  0  0  0  0  0  0  0
   51.0190   32.6850   49.7670 O   0  0  0  0  0  0  0  0  0  0  0  0
   59.5230   28.6270   50.3000 H   0  0  0  0  0  0  0  0  0  0  0  0
   60.5617   28.0997   53.6016 H   0  0  0  0  0  0  0  0  0  0  0  0
   61.3558   29.6311   53.0712 H   0  0  0  0  0  0  0  0  0  0  0  0
   61.1676   31.4406   52.6844 H   0  0  0  0  0  0  0  0  0  0  0  0
   60.6272   33.8600   52.4267 H   0  0  0  0  0  0  0  0  0  0  0  0
   58.2860   34.5794   51.9667 H   0  0  0  0  0  0  0  0  0  0  0  0
   56.4724   32.8825   51.7724 H   0  0  0  0  0  0  0  0  0  0  0  0
   56.9261   29.4823   51.1909 H   0  0  0  0  0  0  0  0  0  0  0  0
   56.5714   29.6261   52.9452 H   0  0  0  0  0  0  0  0  0  0  0  0
   53.3795   31.2480   50.0907 H   0  0  0  0  0  0  0  0  0  0  0  0
   52.6014   29.6744   50.5044 H   0  0  0  0  0  0  0  0  0  0  0  0
  1  2  1  0
  2  3  2  0
  2  4  1  0
  4  5  1  0
  5  6  1  0
  6  7  2  0
  7  8  1  0
  8  9  2  0
  9 10  1  0
 10 11  2  0
 11 12  1  0
 12 13  1  0
 13 14  1  0
 14 15  2  0
 14 16  1  0
 16 17  1  0
 17 18  1  0
 18 19  1  0
 19 20  2  0
 19 21  1  0
 21 22  1  0
 22 23  1  0
 11  6  1  0
 22 17  2  0
  1 24  1  0
  4 25  1  0
  4 26  1  0
  7 27  1  0
  8 28  1  0
  9 29  1  0
 10 30  1  0
 12 31  1  0
 12 32  1  0
 16 33  1  0
 16 34  1  0
M  CHG  5   1  -1  13  -1  18  -1  21  -1  23  -1
M  END
>  <UniqueID>  (16) 
14

>  <SMILES>  (16) 
[NH-]C(=O)COc1ccccc1C[N-]C(=O)Cc1[n-]c(=O)[n-]c1[O-]

>  <Energy>  (16) 
58.302109177874094

>  <Genealogy>  (16) 
[NH-]C(=O)COc1ccccc1C[N-]C(=O)Cc1[n-]c(=O)[n-]c1[O-] (protonated)
[NH-]C(=O)COc1ccccc1C[N-]C(=O)Cc1[n-]c(=O)[n-]c1[O-] (3D coordinates assigned)
[NH-]C(=O)COc1ccccc1C[N-]C(=O)Cc1[n-]c(=O)[n-]c1[O-] (optimized conformer: 58.302109177874094 kcal/mol)

>  <smiles>  (16) 
NC(=O)COc1ccccc1CNC(=O)Cc1[nH]c(=O)[nH]c1O

>  <score_type>  (16) 
oracle

>  <origin>  (16) 
adg

>  <m_score__min__energy>  (16) 
-17.940000000000001

>  <m_primary>  (16) 
energy

$$$$
16:0
     RDKit          3D

 36 38  0  0  0  0  0  0  0  0999 V2000
   59.6680   35.4850   47.1160 O   0  0  0  0  0  0  0  0  0  0  0  0
   60.0710   34.2960   47.0140 C   0  0  0  0  0  0  0  0  0  0  0  0
   59.1920   33.3200   46.4370 N   0  0  0  0  0  0  0  0  0  0  0  0
   59.1260   31.9280   46.7850 C   0  0  0  0  0  0  0  0  0  0  0  0
   59.6040   31.5200   48.0350 C   0  0  0  0  0  0  0  0  0  0  0  0
   59.5710   30.1700   48.3950 C   0  0  0  0  0  0  0  0  0  0  0  0
   59.0600   29.2190   47.5080 C   0  0  0  0  0  0  0  0  0  0  0  0
   58.5760   29.6100   46.2540 C   0  0  0  0  0  0  0  0  0  0  0  0
   58.0720   28.6060   45.3620 N   0  0  0  0  0  0  0  0  0  0  0  0
   56.8460   27.8760   45.5160 C   0  0  0  0  0  0  0  0  0  0  0  0
   55.7510   28.4300   45.2290 O   0  0  0  0  0  0  0  0  0  0  0  0
   56.8580   26.4910   46.0660 C   0  0  0  0  0  0  0  0  0  0  0  0
   55.6590   25.7730   46.2670 C   0  0  0  0  0  0  0  0  0  0  0  0
   54.4230   26.3380   45.9720 O   0  0  0  0  0  0  0  0  0  0  0  0
   55.6950   24.5120   46.7680 N   0  0  0  0  0  0  0  0  0  0  0  0
   56.8680   23.9140   47.0850 C   0  0  0  0  0  0  0  0  0  0  0  0
   56.8730   22.7440   47.5490 O   0  0  0  0  0  0  0  0  0  0  0  0
   58.0380   24.5750   46.9020 N   0  0  0  0  0  0  0  0  0  0  0  0
   58.0640   25.8360   46.4040 C   0  0  0  0  0  0  0  0  0  0  0  0
   59.1790   26.4000   46.2380 O   0  0  0  0  0  0  0  0  0  0  0  0
   58.6470   30.9630   45.8800 C   0  0  0  0  0  0  0  0  0  0  0  0
   61.4590   33.9600   47.4080 C   0  0  0  0  0  0  0  0  0  0  0  0
   62.4440   33.8380   46.4120 C   0  0  0  0  0  0  0  0  0  0  0  0
   63.7600   33.5170   46.7510 C   0  0  0  0  0  0  0  0  0  0  0  0
   64.1090   33.3160   48.0870 C   0  0  0  0  0  0  0  0  0  0  0  0
   63.1420   33.4340   49.0870 C   0  0  0  0  0  0  0  0  0  0  0  0
   61.8180   33.7540   48.7590 C   0  0  0  0  0  0  0  0  0  0  0  0
   60.5350   33.8180   50.1850 Br  0  0  0  0  0  0  0  0  0  0  0  0
   60.0073   32.2646   48.7371 H   0  0  0  0  0  0  0  0  0  0  0  0
   59.9483   29.8553   49.3792 H   0  0  0  0  0  0  0  0  0  0  0  0
   59.0379   28.1577   47.7965 H   0  0  0  0  0  0  0  0  0  0  0  0
   58.3261   31.2694   44.8735 H   0  0  0  0  0  0  0  0  0  0  0  0
   62.1757   33.9967   45.3571 H   0  0  0  0  0  0  0  0  0  0  0  0
   64.5225   33.4225   45.9639 H   0  0  0  0  0  0  0  0  0  0  0  0
   65.1465   33.0645   48.3524 H   0  0  0  0  0  0  0  0  0  0  0  0
   63.4213   33.2747   50.1390 H   0  0  0  0  0  0  0  0  0  0  0  0
  1  2  2  0
  2  3  1  0
  3  4  1  0
  4  5  2  0
  5  6  1  0
  6  7  2  0
  7  8  1  0
  8  9  1  0
  9 10  1  0
 10 11  2  0
 10 12  1  0
 12 13  2  0
 13 14  1  0
 13 15  1  0
 15 16  1  0
 16 17  2  0
 16 18  1  0
 18 19  1  0
 19 20  2  0
  8 21  2  0
  2 22  1  0
 22 23  2  0
 23 24  1  0
 24 25  2  0
 25 26  1  0
 26 27  2  0
 27 28  1  0
 21  4  1  0
 27 22  1  0
 19 12  1  0
  5 29  1  0
  6 30  1  0
  7 31  1  0
 21 32  1  0
 23 33  1  0
 24 34  1  0
 25 35  1  0
 26 36  1  0
M  CHG  5   3  -1   9  -1  14  -1  15  -1  18  -1
M  END
>  <UniqueID>  (17) 
15

>  <SMILES>  (17) 
O=C([N-]c1cccc([N-]C(=O)c2c([O-])[n-]c(=O)[n-]c2=O)c1)c1ccccc1Br

>  <Energy>  (17) 
56.279331234200605

>  <Genealogy>  (17) 
O=C([N-]c1cccc([N-]C(=O)c2c([O-])[n-]c(=O)[n-]c2=O)c1)c1ccccc1Br (protonated)
O=C([N-]c1cccc([N-]C(=O)c2c([O-])[n-]c(=O)[n-]c2=O)c1)c1ccccc1Br (3D coordinates assigned)
O=C([N-]c1cccc([N-]C(=O)c2c([O-])[n-]c(=O)[n-]c2=O)c1)c1ccccc1Br (optimized conformer: 56.279331234200605 kcal/mol)

>  <smiles>  (17) 
O=C(Nc1cccc(NC(=O)c2c(O)[nH]c(=O)[nH]c2=O)c1)c1ccccc1Br

>  <score_type>  (17) 
oracle

>  <origin>  (17) 
adg

>  <m_score__min__energy>  (17) 
-18.879999999999999

>  <m_primary>  (17) 
energy

$$$$
17:0
     RDKit          3D

 47 49  0  0  0  0  0  0  0  0999 V2000
   57.8120   26.6240   43.1340 C   0  0  0  0  0  0  0  0  0  0  0  0
   57.9700   26.8240   44.4520 C   0  0  0  0  0  0  0  0  0  0  0  0
   57.6220   25.9300   45.4690 C   0  0  0  0  0  0  0  0  0  0  0  0
   57.0810   24.7040   45.3350 C   0  0  0  0  0  0  0  0  0  0  0  0
   55.6210   24.4550   45.3030 C   0  0  0  0  0  0  0  0  0  0  0  0
   54.6940   25.4580   45.6350 C   0  0  0  0  0  0  0  0  0  0  0  0
   55.1210   26.7270   46.0070 O   0  0  0  0  0  0  0  0  0  0  0  0
   53.3630   25.1970   45.5730 N   0  0  0  0  0  0  0  0  0  0  0  0
   52.9030   23.9830   45.1750 C   0  0  0  0  0  0  0  0  0  0  0  0
   51.6650   23.7640   45.1290 O   0  0  0  0  0  0  0  0  0  0  0  0
   53.7790   23.0070   44.8210 N   0  0  0  0  0  0  0  0  0  0  0  0
   55.1190   23.2160   44.8680 C   0  0  0  0  0  0  0  0  0  0  0  0
   55.9030   22.2890   44.5290 O   0  0  0  0  0  0  0  0  0  0  0  0
   57.9890   26.5340   46.6640 C   0  0  0  0  0  0  0  0  0  0  0  0
   58.5340   27.7590   46.3360 C   0  0  0  0  0  0  0  0  0  0  0  0
   59.0670   28.7440   47.3330 C   0  0  0  0  0  0  0  0  0  0  0  0
   58.5080   27.9480   44.9950 N   0  0  0  0  0  0  0  0  0  0  0  0
   59.0410   29.1200   44.2830 C   0  0  0  0  0  0  0  0  0  0  0  0
   57.8960   30.0300   43.8260 C   0  0  0  0  0  0  0  0  0  0  0  0
   57.0390   30.4830   45.0260 C   0  0  0  0  0  0  0  0  0  0  0  0
   57.2910   31.8710   45.4710 N   0  0  0  0  0  0  0  0  0  0  0  0
   58.1620   31.9560   46.6610 C   0  0  0  0  0  0  0  0  0  0  0  0
   58.5610   33.4170   46.9430 C   0  0  0  0  0  0  0  0  0  0  0  0
   57.6440   34.3070   46.3380 O   0  0  0  0  0  0  0  0  0  0  0  0
   57.7510   34.2300   44.9240 C   0  0  0  0  0  0  0  0  0  0  0  0
   57.7440   32.7770   44.4020 C   0  0  0  0  0  0  0  0  0  0  0  0
   58.1227   27.3999   42.4188 H   0  0  0  0  0  0  0  0  0  0  0  0
   57.3718   25.6842   42.7692 H   0  0  0  0  0  0  0  0  0  0  0  0
   57.7587   23.8423   45.2446 H   0  0  0  0  0  0  0  0  0  0  0  0
   57.8689   26.1175   47.6750 H   0  0  0  0  0  0  0  0  0  0  0  0
   58.8692   28.3784   48.3514 H   0  0  0  0  0  0  0  0  0  0  0  0
   60.1513   28.8607   47.1895 H   0  0  0  0  0  0  0  0  0  0  0  0
   58.5715   29.7155   47.1895 H   0  0  0  0  0  0  0  0  0  0  0  0
   59.7051   29.6824   44.9558 H   0  0  0  0  0  0  0  0  0  0  0  0
   59.6011   28.7784   43.4000 H   0  0  0  0  0  0  0  0  0  0  0  0
   58.3171   30.9166   43.3293 H   0  0  0  0  0  0  0  0  0  0  0  0
   57.2563   29.4669   43.1305 H   0  0  0  0  0  0  0  0  0  0  0  0
   55.9795   30.4003   44.7421 H   0  0  0  0  0  0  0  0  0  0  0  0
   57.3110   29.8303   45.8686 H   0  0  0  0  0  0  0  0  0  0  0  0
   57.6230   31.5547   47.5319 H   0  0  0  0  0  0  0  0  0  0  0  0
   59.0744   31.3711   46.4729 H   0  0  0  0  0  0  0  0  0  0  0  0
   58.5671   33.5871   48.0297 H   0  0  0  0  0  0  0  0  0  0  0  0
   59.5619   33.5992   46.5247 H   0  0  0  0  0  0  0  0  0  0  0  0
   56.9018   34.7680   44.4774 H   0  0  0  0  0  0  0  0  0  0  0  0
   58.7138   34.6796   44.6396 H   0  0  0  0  0  0  0  0  0  0  0  0
   57.0615   32.6998   43.5428 H   0  0  0  0  0  0  0  0  0  0  0  0
   58.7607   32.4955   44.0905 H   0  0  0  0  0  0  0  0  0  0  0  0
  1  2  2  0
  2  3  1  0
  3  4  2  3
  4  5  1  0
  5  6  2  0
  6  7  1  0
  6  8  1  0
  8  9  1  0
  9 10  2  0
  9 11  1  0
 11 12  1  0
 12 13  2  0
  3 14  1  0
 14 15  2  0
 15 16  1  0
 15 17  1  0
 17 18  1  0
 18 19  1  0
 19 20  1  0
 20 21  1  0
 21 22  1  0
 22 23  1  0
 23 24  1  0
 24 25  1  0
 25 26  1  0
 17  2  1  0
 26 21  1  0
 12  5  1  0
  1 27  1  0
  1 28  1  0
  4 29  1  0
 14 30  1  0
 16 31  1  0
 16 32  1  0
 16 33  1  0
 18 34  1  0
 18 35  1  0
 19 36  1  0
 19 37  1  0
 20 38  1  0
 20 39  1  0
 22 40  1  0
 22 41  1  0
 23 42  1  0
 23 43  1  0
 25 44  1  0
 25 45  1  0
 26 46  1  0
 26 47  1  0
M  CHG  3   7  -1   8  -1  11  -1
M  END
>  <UniqueID>  (18) 
16

>  <SMILES>  (18) 
C=c1c(=Cc2c([O-])[n-]c(=O)[n-]c2=O)cc(C)n1CCCN1CCOCC1

>  <Energy>  (18) 
95.2143876325956

>  <Genealogy>  (18) 
C=c1c(=Cc2c([O-])[n-]c(=O)[n-]c2=O)cc(C)n1CCCN1CCOCC1 (protonated)
C=c1c(=Cc2c([O-])[n-]c(=O)[n-]c2=O)cc(C)n1CCCN1CCOCC1 (3D coordinates assigned)
C=c1c(=Cc2c([O-])[n-]c(=O)[n-]c2=O)cc(C)n1CCCN1CCOCC1 (nonaromatic ring conformer: 95.2143876325956 kcal/mol)

>  <smiles>  (18) 
C=c1c(=Cc2c(O)[nH]c(=O)[nH]c2=O)cc(C)n1CCCN1CCOCC1

>  <score_type>  (18) 
oracle

>  <origin>  (18) 
adg

>  <m_score__min__energy>  (18) 
-15.6

>  <m_primary>  (18) 
energy

$$$$
18:0
     RDKit          3D

 46 49  0  0  0  0  0  0  0  0999 V2000
   55.9220   31.8700   44.8710 O   0  0  0  0  0  0  0  0  0  0  0  0
   56.8230   31.0940   44.4540 C   0  0  0  0  0  0  0  0  0  0  0  0
   56.4340   29.8000   43.8110 C   0  0  0  0  0  0  0  0  0  0  0  0
   57.0220   28.6580   44.5740 C   0  0  0  0  0  0  0  0  0  0  0  0
   58.3570   28.4000   44.5940 N   0  0  0  0  0  0  0  0  0  0  0  0
   58.4350   27.3500   45.4240 C   0  0  0  0  0  0  0  0  0  0  0  0
   59.5790   26.6580   45.8170 C   0  0  0  0  0  0  0  0  0  0  0  0
   59.4140   25.5830   46.7120 C   0  0  0  0  0  0  0  0  0  0  0  0
   58.1280   25.2350   47.1830 C   0  0  0  0  0  0  0  0  0  0  0  0
   56.9960   25.9580   46.7620 C   0  0  0  0  0  0  0  0  0  0  0  0
   57.1970   27.0150   45.8760 C   0  0  0  0  0  0  0  0  0  0  0  0
   56.2730   27.8350   45.3550 N   0  0  0  0  0  0  0  0  0  0  0  0
   58.2050   31.4830   44.5010 N   0  0  0  0  0  0  0  0  0  0  0  0
   58.7020   32.6330   45.2100 C   0  0  0  0  0  0  0  0  0  0  0  0
   58.7370   33.8750   44.5610 C   0  0  0  0  0  0  0  0  0  0  0  0
   59.2320   35.0030   45.2180 C   0  0  0  0  0  0  0  0  0  0  0  0
   59.7060   34.9000   46.5270 C   0  0  0  0  0  0  0  0  0  0  0  0
   59.6910   33.6650   47.1880 C   0  0  0  0  0  0  0  0  0  0  0  0
   60.2980   33.5350   48.8430 S   0  0  0  0  0  0  0  0  0  0  0  0
   59.6600   34.6000   49.6870 O   0  0  0  0  0  0  0  0  0  0  0  0
   59.9030   32.1980   49.4060 O   0  0  0  0  0  0  0  0  0  0  0  0
   62.0340   33.6990   48.9390 N   0  0  0  0  0  0  0  0  0  0  0  0
   62.6580   32.5780   49.6400 C   0  0  0  0  0  0  0  0  0  0  0  0
   64.0830   32.4780   49.1140 C   0  0  0  0  0  0  0  0  0  0  0  0
   64.0880   33.2590   47.8080 C   0  0  0  0  0  0  0  0  0  0  0  0
   62.6560   33.7300   47.6180 C   0  0  0  0  0  0  0  0  0  0  0  0
   59.2080   32.5290   46.5200 C   0  0  0  0  0  0  0  0  0  0  0  0
   55.3377   29.7098   43.8061 H   0  0  0  0  0  0  0  0  0  0  0  0
   56.8125   29.7797   42.7784 H   0  0  0  0  0  0  0  0  0  0  0  0
   60.5738   26.9408   45.4422 H   0  0  0  0  0  0  0  0  0  0  0  0
   60.2918   25.0107   47.0465 H   0  0  0  0  0  0  0  0  0  0  0  0
   58.0109   24.3943   47.8826 H   0  0  0  0  0  0  0  0  0  0  0  0
   55.9887   25.6981   47.1195 H   0  0  0  0  0  0  0  0  0  0  0  0
   58.8780   30.9470   43.9080 H   0  0  0  0  0  0  0  0  0  0  0  0
   58.3719   33.9614   43.5270 H   0  0  0  0  0  0  0  0  0  0  0  0
   59.2485   35.9749   44.7031 H   0  0  0  0  0  0  0  0  0  0  0  0
   60.0928   35.7921   47.0414 H   0  0  0  0  0  0  0  0  0  0  0  0
   62.6654   32.7645   50.7240 H   0  0  0  0  0  0  0  0  0  0  0  0
   62.1041   31.6434   49.4677 H   0  0  0  0  0  0  0  0  0  0  0  0
   64.7897   32.9220   49.8305 H   0  0  0  0  0  0  0  0  0  0  0  0
   64.3919   31.4326   48.9664 H   0  0  0  0  0  0  0  0  0  0  0  0
   64.7708   34.1188   47.8757 H   0  0  0  0  0  0  0  0  0  0  0  0
   64.4334   32.6444   46.9636 H   0  0  0  0  0  0  0  0  0  0  0  0
   62.6423   34.7533   47.2148 H   0  0  0  0  0  0  0  0  0  0  0  0
   62.1155   33.0877   46.9072 H   0  0  0  0  0  0  0  0  0  0  0  0
   59.2248   31.5510   47.0231 H   0  0  0  0  0  0  0  0  0  0  0  0
  1  2  2  0
  2  3  1  0
  3  4  1  0
  4  5  2  0
  5  6  1  0
  6  7  2  0
  7  8  1  0
  8  9  2  0
  9 10  1  0
 10 11  2  0
 11 12  1  0
  2 13  1  0
 13 14  1  0
 14 15  2  0
 15 16  1  0
 16 17  2  0
 17 18  1  0
 18 19  1  0
 19 20  2  0
 19 21  2  0
 19 22  1  0
 22 23  1  0
 23 24  1  0
 24 25  1  0
 25 26  1  0
 18 27  2  0
 12  4  1  0
 27 14  1  0
 11  6  1  0
 26 22  1  0
  3 28  1  0
  3 29  1  0
  7 30  1  0
  8 31  1  0
  9 32  1  0
 10 33  1  0
 13 34  1  0
 15 35  1  0
 16 36  1  0
 17 37  1  0
 23 38  1  0
 23 39  1  0
 24 40  1  0
 24 41  1  0
 25 42  1  0
 25 43  1  0
 26 44  1  0
 26 45  1  0
 27 46  1  0
M  CHG  1  12  -1
M  END
>  <UniqueID>  (19) 
17

>  <SMILES>  (19) 
O=C(Cc1nc2ccccc2[n-]1)Nc1cccc(S(=O)(=O)N2CCCC2)c1

>  <Energy>  (19) 
85.22189665865679

>  <Genealogy>  (19) 
O=C(Cc1nc2ccccc2[n-]1)Nc1cccc(S(=O)(=O)N2CCCC2)c1 (protonated)
O=C(Cc1nc2ccccc2[n-]1)Nc1cccc(S(=O)(=O)N2CCCC2)c1 (3D coordinates assigned)
O=C(Cc1nc2ccccc2[n-]1)Nc1cccc(S(=O)(=O)N2CCCC2)c1 (nonaromatic ring conformer: 85.22189665865679 kcal/mol)

>  <smiles>  (19) 
O=C(Cc1nc2ccccc2[nH]1)Nc1cccc(S(=O)(=O)N2CCCC2)c1

>  <score_type>  (19) 
oracle

>  <origin>  (19) 
adg

>  <m_score__min__energy>  (19) 
-11.039999999999999

>  <m_primary>  (19) 
energy

$$$$
19:0
     RDKit          3D

 64 68  0  0  1  0  0  0  0  0999 V2000
   56.0750   25.9480   45.9950 C   0  0  0  0  0  0  0  0  0  0  0  0
   57.3460   26.1720   45.1590 C   0  0  0  0  0  0  0  0  0  0  0  0
   58.2070   24.9750   45.3910 C   0  0  0  0  0  0  0  0  0  0  0  0
   57.8840   27.4390   45.5100 N   0  0  0  0  0  0  0  0  0  0  0  0
   59.0060   27.5730   46.2910 C   0  0  0  0  0  0  0  0  0  0  0  0
   59.2610   28.9090   46.4660 C   0  0  0  0  0  0  0  0  0  0  0  0
   60.2860   29.5970   47.2540 C   0  0  0  0  0  0  0  0  0  0  0  0
   61.3180   30.1050   46.7510 O   0  0  0  0  0  0  0  0  0  0  0  0
   60.0170   29.6480   48.7090 C   0  0  0  0  0  0  0  0  0  0  0  0
   60.6060   28.6620   49.5190 C   0  0  0  0  0  0  0  0  0  0  0  0
   60.4140   28.6350   50.8820 C   0  0  0  0  0  0  0  0  0  0  0  0
   59.6390   29.5890   51.4070 N   0  0  0  0  0  0  0  0  0  0  0  0
   59.0470   30.5660   50.6440 C   0  0  0  0  0  0  0  0  0  0  0  0
   58.3310   31.3900   51.2970 N   0  0  0  0  0  0  0  0  0  0  0  0
   58.6570   32.7550   51.4090 C   0  0  0  0  0  0  0  0  0  0  0  0
   58.2320   33.5620   52.2370 O   0  0  0  0  0  0  0  0  0  0  0  0
   59.6370   33.2510   50.3980 C   0  0  0  0  0  0  0  0  0  0  0  0
   59.2600   33.6640   49.1420 N   0  0  0  0  0  0  0  0  0  0  0  0
   60.3470   34.0590   48.4790 C   0  0  0  0  0  0  0  0  0  0  0  0
   60.3180   34.6210   47.0980 C   0  0  0  0  0  0  0  0  0  0  0  0
   58.8940   34.5590   46.4350 C   0  0  0  0  0  0  0  0  0  0  0  0
   60.0390   33.7480   45.9460 C   0  0  0  0  0  0  0  0  0  0  0  0
   61.4090   33.8870   49.3350 C   0  0  0  0  0  0  0  0  0  0  0  0
   62.8080   34.2200   48.9460 C   0  0  0  0  0  0  0  0  0  0  0  0
   63.3780   33.2410   48.1110 N   0  0  0  0  0  0  0  0  0  0  0  0
   63.4720   33.4740   46.7350 C   0  0  0  0  0  0  0  0  0  0  0  0
   63.3230   31.8900   48.5330 C   0  0  0  0  0  0  0  0  0  0  0  0
   60.9570   33.3890   50.5160 N   0  0  0  0  0  0  0  0  0  0  0  0
   59.2250   30.6170   49.2780 C   0  0  0  0  0  0  0  0  0  0  0  0
   58.2790   29.6150   45.7810 C   0  0  0  0  0  0  0  0  0  0  0  0
   58.0660   30.9730   45.6190 C   0  0  0  0  0  0  0  0  0  0  0  0
   57.0160   31.4250   44.8750 N   0  0  0  0  0  0  0  0  0  0  0  0
   56.1730   30.5230   44.2890 C   0  0  0  0  0  0  0  0  0  0  0  0
   56.3960   29.1620   44.4580 C   0  0  0  0  0  0  0  0  0  0  0  0
   57.4420   28.6610   45.1990 C   0  0  0  0  0  0  0  0  0  0  0  0
   56.3272   25.9924   47.0648 H   0  0  0  0  0  0  0  0  0  0  0  0
   55.3384   26.7302   45.7591 H   0  0  0  0  0  0  0  0  0  0  0  0
   55.6502   24.9611   45.7591 H   0  0  0  0  0  0  0  0  0  0  0  0
   57.1977   26.2360   44.0709 H   0  0  0  0  0  0  0  0  0  0  0  0
   58.3244   24.8118   46.4725 H   0  0  0  0  0  0  0  0  0  0  0  0
   57.7365   24.0911   44.9357 H   0  0  0  0  0  0  0  0  0  0  0  0
   59.1947   25.1400   44.9357 H   0  0  0  0  0  0  0  0  0  0  0  0
   59.6008   26.7464   46.7068 H   0  0  0  0  0  0  0  0  0  0  0  0
   61.2370   27.8916   49.0517 H   0  0  0  0  0  0  0  0  0  0  0  0
   60.8783   27.8618   51.5117 H   0  0  0  0  0  0  0  0  0  0  0  0
   59.5010   29.5630   52.4410 H   0  0  0  0  0  0  0  0  0  0  0  0
   61.1064   35.3606   47.3019 H   0  0  0  0  0  0  0  0  0  0  0  0
   58.0555   34.0786   46.9605 H   0  0  0  0  0  0  0  0  0  0  0  0
   58.1917   35.2835   45.9968 H   0  0  0  0  0  0  0  0  0  0  0  0
   60.0254   32.6573   46.0883 H   0  0  0  0  0  0  0  0  0  0  0  0
   60.5108   33.6309   44.9592 H   0  0  0  0  0  0  0  0  0  0  0  0
   62.8074   35.1824   48.4133 H   0  0  0  0  0  0  0  0  0  0  0  0
   63.4099   34.2698   49.8653 H   0  0  0  0  0  0  0  0  0  0  0  0
   63.8784   34.4812   46.5606 H   0  0  0  0  0  0  0  0  0  0  0  0
   64.1387   32.7260   46.2812 H   0  0  0  0  0  0  0  0  0  0  0  0
   62.4729   33.3980   46.2812 H   0  0  0  0  0  0  0  0  0  0  0  0
   63.3213   31.8490   49.6322 H   0  0  0  0  0  0  0  0  0  0  0  0
   62.4051   31.4224   48.1472 H   0  0  0  0  0  0  0  0  0  0  0  0
   64.1999   31.3494   48.1472 H   0  0  0  0  0  0  0  0  0  0  0  0
   61.5340   33.1640   51.3420 H   0  0  0  0  0  0  0  0  0  0  0  0
   58.7526   31.4011   48.6681 H   0  0  0  0  0  0  0  0  0  0  0  0
   58.7486   31.6931   46.0938 H   0  0  0  0  0  0  0  0  0  0  0  0
   55.3219   30.8728   43.6863 H   0  0  0  0  0  0  0  0  0  0  0  0
   55.7054   28.4530   43.9779 H   0  0  0  0  0  0  0  0  0  0  0  0
  1  2  1  0
  2  3  1  0
  2  4  1  0
  4  5  1  0
  5  6  2  0
  6  7  1  0
  7  8  2  0
  7  9  1  0
  9 10  1  0
 10 11  2  0
 11 12  1  0
 12 13  1  0
 13 14  2  0
 14 15  1  0
 15 16  2  0
 15 17  1  0
 17 18  2  0
 18 19  1  0
 19 20  1  0
 20 21  1  0
 21 22  1  0
 19 23  2  0
 23 24  1  0
 24 25  1  0
 25 26  1  0
 25 27  1  0
 23 28  1  0
 13 29  1  0
  6 30  1  0
 30 31  2  0
 31 32  1  0
 32 33  2  0
 33 34  1  0
 34 35  2  0
 35  4  1  0
 29  9  2  0
 35 30  1  0
 28 17  1  0
 22 20  1  0
  1 36  1  0
  1 37  1  0
  1 38  1  0
  2 39  1  0
  3 40  1  0
  3 41  1  0
  3 42  1  0
  5 43  1  0
 10 44  1  0
 11 45  1  0
 12 46  1  0
 20 47  1  0
 21 48  1  0
 21 49  1  0
 22 50  1  0
 22 51  1  0
 24 52  1  0
 24 53  1  0
 26 54  1  0
 26 55  1  0
 26 56  1  0
 27 57  1  0
 27 58  1  0
 27 59  1  0
 28 60  1  0
 29 61  1  0
 31 62  1  0
 33 63  1  0
 34 64  1  0
M  END
>  <smiles>  (20) 
CC(C)n1cc(C(=O)c2cc[nH]c(=NC(=O)c3nc(C4CC4)c(CN(C)C)[nH]3)c2)c2cnccc21

>  <score_type>  (20) 
oracle

>  <origin>  (20) 
adg

>  <m_score__min__energy>  (20) 
-9.8000000000000007

>  <m_primary>  (20) 
energy

$$$$
20:0
     RDKit          3D

 48 50  0  0  0  0  0  0  0  0999 V2000
   59.2370   27.9100   47.1090 C   0  0  0  0  0  0  0  0  0  0  0  0
   58.5470   28.6060   46.1900 C   0  0  0  0  0  0  0  0  0  0  0  0
   57.9180   28.0780   45.0500 C   0  0  0  0  0  0  0  0  0  0  0  0
   57.6710   26.8060   44.6790 C   0  0  0  0  0  0  0  0  0  0  0  0
   57.1540   25.7400   45.5520 C   0  0  0  0  0  0  0  0  0  0  0  0
   57.8820   24.7060   46.0160 N   0  0  0  0  0  0  0  0  0  0  0  0
   57.0380   24.0890   46.8710 C   0  0  0  0  0  0  0  0  0  0  0  0
   57.3560   23.0490   47.5030 O   0  0  0  0  0  0  0  0  0  0  0  0
   55.8310   24.6790   47.0010 N   0  0  0  0  0  0  0  0  0  0  0  0
   55.9280   25.7310   46.1710 C   0  0  0  0  0  0  0  0  0  0  0  0
   54.9190   26.6700   45.9830 O   0  0  0  0  0  0  0  0  0  0  0  0
   57.5190   29.1610   44.2920 C   0  0  0  0  0  0  0  0  0  0  0  0
   57.8340   30.2930   45.0100 C   0  0  0  0  0  0  0  0  0  0  0  0
   57.5640   31.6860   44.5190 C   0  0  0  0  0  0  0  0  0  0  0  0
   58.4720   29.9670   46.1620 N   0  0  0  0  0  0  0  0  0  0  0  0
   59.0280   30.9290   47.1340 C   0  0  0  0  0  0  0  0  0  0  0  0
   60.5390   31.1370   46.9370 C   0  0  0  0  0  0  0  0  0  0  0  0
   61.2270   31.8610   48.1080 C   0  0  0  0  0  0  0  0  0  0  0  0
   61.6190   33.2520   47.7710 N   0  0  0  0  0  0  0  0  0  0  0  0
   61.2700   33.6260   46.3720 C   0  0  0  0  0  0  0  0  0  0  0  0
   60.0460   34.5590   46.2480 C   0  0  0  0  0  0  0  0  0  0  0  0
   59.0170   34.2740   47.3400 C   0  0  0  0  0  0  0  0  0  0  0  0
   59.6260   34.4410   48.7410 C   0  0  0  0  0  0  0  0  0  0  0  0
   61.1570   34.2570   48.7540 C   0  0  0  0  0  0  0  0  0  0  0  0
   59.6901   28.4294   47.9663 H   0  0  0  0  0  0  0  0  0  0  0  0
   59.3489   26.8207   47.0041 H   0  0  0  0  0  0  0  0  0  0  0  0
   57.8738   26.5412   43.6308 H   0  0  0  0  0  0  0  0  0  0  0  0
   54.7690   27.0910   45.0730 H   0  0  0  0  0  0  0  0  0  0  0  0
   57.0403   29.1261   43.3022 H   0  0  0  0  0  0  0  0  0  0  0  0
   57.4335   32.3591   45.3792 H   0  0  0  0  0  0  0  0  0  0  0  0
   58.4121   32.0306   43.9091 H   0  0  0  0  0  0  0  0  0  0  0  0
   56.6486   31.6888   43.9091 H   0  0  0  0  0  0  0  0  0  0  0  0
   58.5171   31.8952   47.0097 H   0  0  0  0  0  0  0  0  0  0  0  0
   58.8692   30.5227   48.1438 H   0  0  0  0  0  0  0  0  0  0  0  0
   61.0111   30.1511   46.8140 H   0  0  0  0  0  0  0  0  0  0  0  0
   60.6602   31.7770   46.0506 H   0  0  0  0  0  0  0  0  0  0  0  0
   60.5334   31.8879   48.9613 H   0  0  0  0  0  0  0  0  0  0  0  0
   62.1459   31.3059   48.3477 H   0  0  0  0  0  0  0  0  0  0  0  0
   62.1370   34.1346   45.9253 H   0  0  0  0  0  0  0  0  0  0  0  0
   61.0069   32.6922   45.8536 H   0  0  0  0  0  0  0  0  0  0  0  0
   60.3812   35.6030   46.3354 H   0  0  0  0  0  0  0  0  0  0  0  0
   59.5728   34.3822   45.2709 H   0  0  0  0  0  0  0  0  0  0  0  0
   58.1751   34.9734   47.2299 H   0  0  0  0  0  0  0  0  0  0  0  0
   58.6765   33.2336   47.2321 H   0  0  0  0  0  0  0  0  0  0  0  0
   59.3904   35.4507   49.1083 H   0  0  0  0  0  0  0  0  0  0  0  0
   59.1936   33.6608   49.3847 H   0  0  0  0  0  0  0  0  0  0  0  0
   61.6296   35.2222   48.5193 H   0  0  0  0  0  0  0  0  0  0  0  0
   61.4404   33.8984   49.7545 H   0  0  0  0  0  0  0  0  0  0  0  0
  1  2  2  0
  2  3  1  0
  3  4  2  3
  4  5  1  0
  5  6  1  0
  6  7  1  0
  7  8  2  0
  7  9  1  0
  9 10  1  0
 10 11  1  0
  3 12  1  0
 12 13  2  0
 13 14  1  0
 13 15  1  0
 15 16  1  0
 16 17  1  0
 17 18  1  0
 18 19  1  0
 19 20  1  0
 20 21  1  0
 21 22  1  0
 22 23  1  0
 23 24  1  0
 15  2  1  0
 24 19  1  0
 10  5  2  0
  1 25  1  0
  1 26  1  0
  4 27  1  0
 11 28  1  0
 12 29  1  0
 14 30  1  0
 14 31  1  0
 14 32  1  0
 16 33  1  0
 16 34  1  0
 17 35  1  0
 17 36  1  0
 18 37  1  0
 18 38  1  0
 20 39  1  0
 20 40  1  0
 21 41  1  0
 21 42  1  0
 22 43  1  0
 22 44  1  0
 23 45  1  0
 23 46  1  0
 24 47  1  0
 24 48  1  0
M  CHG  2   6  -1   9  -1
M  END
>  <UniqueID>  (21) 
18

>  <SMILES>  (21) 
C=c1c(=Cc2[n-]c(=O)[n-]c2O)cc(C)n1CCCN1CCCCC1

>  <Energy>  (21) 
122.94010338283755

>  <Genealogy>  (21) 
C=c1c(=Cc2[n-]c(=O)[n-]c2O)cc(C)n1CCCN1CCCCC1 (protonated)
C=c1c(=Cc2[n-]c(=O)[n-]c2O)cc(C)n1CCCN1CCCCC1 (3D coordinates assigned)
C=c1c(=Cc2[n-]c(=O)[n-]c2O)cc(C)n1CCCN1CCCCC1 (nonaromatic ring conformer: 122.94010338283755 kcal/mol)

>  <smiles>  (21) 
C=c1c(=Cc2[nH]c(=O)[nH]c2O)cc(C)n1CCCN1CCCCC1

>  <score_type>  (21) 
oracle

>  <origin>  (21) 
adg

>  <m_score__min__energy>  (21) 
-12.949999999999999

>  <m_primary>  (21) 
energy

$$$$
21:0
     RDKit          3D

 63 67  0  0  0  0  0  0  0  0999 V2000
   54.0540   26.3230   46.4920 H   0  0  0  0  0  0  0  0  0  0  0  0
   54.1690   25.7950   45.6340 O   0  0  0  0  0  0  0  0  0  0  0  0
   53.8040   24.4550   45.5480 C   0  0  0  0  0  0  0  0  0  0  0  0
   52.5620   24.0100   45.8010 N   0  0  0  0  0  0  0  0  0  0  0  0
   52.6770   22.6770   45.6210 C   0  0  0  0  0  0  0  0  0  0  0  0
   51.7100   21.8850   45.7670 O   0  0  0  0  0  0  0  0  0  0  0  0
   53.9130   22.2600   45.2720 N   0  0  0  0  0  0  0  0  0  0  0  0
   54.6240   23.4010   45.2070 C   0  0  0  0  0  0  0  0  0  0  0  0
   56.0820   23.4680   44.9940 C   0  0  0  0  0  0  0  0  0  0  0  0
   56.6025   22.5243   44.7741 H   0  0  0  0  0  0  0  0  0  0  0  0
   56.8300   24.5870   45.0460 C   0  0  0  0  0  0  0  0  0  0  0  0
   57.3020   25.2270   43.9100 C   0  0  0  0  0  0  0  0  0  0  0  0
   57.1906   24.8849   42.8705 H   0  0  0  0  0  0  0  0  0  0  0  0
   57.9380   26.3750   44.3340 C   0  0  0  0  0  0  0  0  0  0  0  0
   58.5740   27.3840   43.4270 C   0  0  0  0  0  0  0  0  0  0  0  0
   59.0644   28.1620   44.0306 H   0  0  0  0  0  0  0  0  0  0  0  0
   59.3221   26.8865   42.7923 H   0  0  0  0  0  0  0  0  0  0  0  0
   57.8025   27.8443   42.7923 H   0  0  0  0  0  0  0  0  0  0  0  0
   57.9190   26.4530   45.6840 N   0  0  0  0  0  0  0  0  0  0  0  0
   58.5540   27.4720   46.4750 C   0  0  0  0  0  0  0  0  0  0  0  0
   59.5490   27.1310   47.4000 C   0  0  0  0  0  0  0  0  0  0  0  0
   59.8681   26.0831   47.5002 H   0  0  0  0  0  0  0  0  0  0  0  0
   60.1370   28.1160   48.1950 C   0  0  0  0  0  0  0  0  0  0  0  0
   60.9197   27.8408   48.9172 H   0  0  0  0  0  0  0  0  0  0  0  0
   59.7350   29.4560   48.0780 C   0  0  0  0  0  0  0  0  0  0  0  0
   60.3290   30.4940   48.9440 C   0  0  0  0  0  0  0  0  0  0  0  0
   60.7430   30.1700   50.0920 O   0  0  0  0  0  0  0  0  0  0  0  0
   60.4580   31.8590   48.4940 N   0  0  0  0  0  0  0  0  0  0  0  0
   60.6720   32.1480   47.0650 C   0  0  0  0  0  0  0  0  0  0  0  0
   61.3560   31.3943   46.6479 H   0  0  0  0  0  0  0  0  0  0  0  0
   59.6951   32.1180   46.5602 H   0  0  0  0  0  0  0  0  0  0  0  0
   61.2790   33.5450   46.8490 C   0  0  0  0  0  0  0  0  0  0  0  0
   62.3197   33.5327   47.2051 H   0  0  0  0  0  0  0  0  0  0  0  0
   61.2124   33.7674   45.7738 H   0  0  0  0  0  0  0  0  0  0  0  0
   60.5130   34.6690   47.6010 C   0  0  0  0  0  0  0  0  0  0  0  0
   61.2987   35.3559   47.9487 H   0  0  0  0  0  0  0  0  0  0  0  0
   59.6330   35.4720   46.7200 N   0  0  0  0  0  0  0  0  0  0  0  0
   58.7520   35.6560   47.2550 H   0  0  0  0  0  0  0  0  0  0  0  0
   59.2850   34.8360   45.4360 C   0  0  0  0  0  0  0  0  0  0  0  0
   59.3470   35.5965   44.6436 H   0  0  0  0  0  0  0  0  0  0  0  0
   59.9964   34.0112   45.2824 H   0  0  0  0  0  0  0  0  0  0  0  0
   57.8660   34.2200   45.4120 C   0  0  0  0  0  0  0  0  0  0  0  0
   57.4113   35.1382   45.0118 H   0  0  0  0  0  0  0  0  0  0  0  0
   57.8410   32.7240   45.1240 C   0  0  0  0  0  0  0  0  0  0  0  0
   57.0892   32.3091   44.4365 H   0  0  0  0  0  0  0  0  0  0  0  0
   58.5764   31.9896   44.7638 H   0  0  0  0  0  0  0  0  0  0  0  0
   57.4180   33.2400   46.4920 C   0  0  0  0  0  0  0  0  0  0  0  0
   56.3607   33.1985   46.7927 H   0  0  0  0  0  0  0  0  0  0  0  0
   57.7210   33.0334   47.5291 H   0  0  0  0  0  0  0  0  0  0  0  0
   59.7910   34.1820   48.8870 C   0  0  0  0  0  0  0  0  0  0  0  0
   59.8053   34.9901   49.6332 H   0  0  0  0  0  0  0  0  0  0  0  0
   58.7577   33.9127   48.6229 H   0  0  0  0  0  0  0  0  0  0  0  0
   60.4740   32.9480   49.4770 C   0  0  0  0  0  0  0  0  0  0  0  0
   61.5149   33.1936   49.7342 H   0  0  0  0  0  0  0  0  0  0  0  0
   59.9359   32.6306   50.3824 H   0  0  0  0  0  0  0  0  0  0  0  0
   58.7640   29.8030   47.1250 C   0  0  0  0  0  0  0  0  0  0  0  0
   58.4691   30.8554   47.0003 H   0  0  0  0  0  0  0  0  0  0  0  0
   58.1710   28.8140   46.3340 C   0  0  0  0  0  0  0  0  0  0  0  0
   57.4011   29.0895   45.5983 H   0  0  0  0  0  0  0  0  0  0  0  0
   57.2760   25.3470   46.1410 C   0  0  0  0  0  0  0  0  0  0  0  0
   57.2550   24.9920   47.4360 C   0  0  0  0  0  0  0  0  0  0  0  0
   57.6367   25.6831   48.2020 H   0  0  0  0  0  0  0  0  0  0  0  0
   56.8561   24.0102   47.7307 H   0  0  0  0  0  0  0  0  0  0  0  0
  1  2  1  0
  2  3  1  0
  3  4  1  0
  4  5  1  0
  5  6  2  0
  5  7  1  0
  7  8  1  0
  8  9  1  0
  9 10  1  0
  9 11  2  0
 11 12  1  0
 12 13  1  0
 12 14  2  0
 14 15  1  0
 15 16  1  0
 15 17  1  0
 15 18  1  0
 14 19  1  0
 19 20  1  0
 20 21  2  0
 21 22  1  0
 21 23  1  0
 23 24  1  0
 23 25  2  0
 25 26  1  0
 26 27  2  0
 26 28  1  0
 28 29  1  0
 29 30  1  0
 29 31  1  0
 29 32  1  0
 32 33  1  0
 32 34  1  0
 32 35  1  0
 35 36  1  0
 35 37  1  0
 37 38  1  0
 37 39  1  0
 39 40  1  0
 39 41  1  0
 39 42  1  0
 42 43  1  0
 42 44  1  0
 44 45  1  0
 44 46  1  0
 44 47  1  0
 47 48  1  0
 47 49  1  0
 35 50  1  0
 50 51  1  0
 50 52  1  0
 50 53  1  0
 53 54  1  0
 53 55  1  0
 25 56  1  0
 56 57  1  0
 56 58  2  0
 58 59  1  0
 19 60  1  0
 60 61  2  0
 61 62  1  0
 61 63  1  0
  8  3  2  0
 60 11  1  0
 58 20  1  0
 53 28  1  0
 47 42  1  0
M  CHG  2   4  -1   7  -1
M  END
>  <UniqueID>  (22) 
19

>  <SMILES>  (22) 
C=c1/c(=C\c2[n-]c(=O)[n-]c2O)cc(C)n1-c1ccc(C(=O)N2CCC(NCC3CC3)CC2)cc1

>  <Energy>  (22) 
419.55650987328073

>  <Genealogy>  (22) 
C=c1c(=Cc2[n-]c(=O)[n-]c2O)cc(C)n1-c1ccc(C(=O)N2CCC(NCC3CC3)CC2)cc1 (protonated)
C=c1/c(=C\c2[n-]c(=O)[n-]c2O)cc(C)n1-c1ccc(C(=O)N2CCC(NCC3CC3)CC2)cc1 (cis-trans isomerization)
C=c1/c(=C\c2[n-]c(=O)[n-]c2O)cc(C)n1-c1ccc(C(=O)N2CCC(NCC3CC3)CC2)cc1 (3D coordinates assigned)
C=c1/c(=C\c2[n-]c(=O)[n-]c2O)cc(C)n1-c1ccc(C(=O)N2CCC(NCC3CC3)CC2)cc1 (nonaromatic ring conformer: 419.55650987328073 kcal/mol)

>  <smiles>  (22) 
C=c1c(=Cc2[nH]c(=O)[nH]c2O)cc(C)n1-c1ccc(C(=O)N2CCC(NCC3CC3)CC2)cc1

>  <score_type>  (22) 
oracle

>  <origin>  (22) 
adg

>  <m_score__min__energy>  (22) 
-13.85

>  <m_primary>  (22) 
energy

$$$$
22:0
     RDKit          3D

 48 51  0  0  0  0  0  0  0  0999 V2000
   59.3310   34.2690   50.9210 O   0  0  0  0  0  0  0  0  0  0  0  0
   59.4020   33.1100   50.4300 C   0  0  0  0  0  0  0  0  0  0  0  0
   59.8380   32.9670   49.0690 N   0  0  0  0  0  0  0  0  0  0  0  0
   59.1960   32.3860   48.0940 C   0  0  0  0  0  0  0  0  0  0  0  0
   58.9450   30.9990   48.0720 C   0  0  0  0  0  0  0  0  0  0  0  0
   58.2190   30.4480   47.0160 C   0  0  0  0  0  0  0  0  0  0  0  0
   57.7430   31.2720   45.9870 C   0  0  0  0  0  0  0  0  0  0  0  0
   56.9660   30.7510   44.8990 N   0  0  0  0  0  0  0  0  0  0  0  0
   56.3950   29.4370   44.8270 C   0  0  0  0  0  0  0  0  0  0  0  0
   55.1840   29.3230   44.4990 O   0  0  0  0  0  0  0  0  0  0  0  0
   57.1700   28.2230   45.1860 C   0  0  0  0  0  0  0  0  0  0  0  0
   58.5610   28.1860   44.9690 C   0  0  0  0  0  0  0  0  0  0  0  0
   59.2980   27.0440   45.2910 C   0  0  0  0  0  0  0  0  0  0  0  0
   58.6620   25.9310   45.8440 C   0  0  0  0  0  0  0  0  0  0  0  0
   57.2850   25.9610   46.0800 C   0  0  0  0  0  0  0  0  0  0  0  0
   56.5370   27.0980   45.7550 C   0  0  0  0  0  0  0  0  0  0  0  0
   55.1650   27.0920   45.9830 O   0  0  0  0  0  0  0  0  0  0  0  0
   58.0690   32.6290   46.0090 C   0  0  0  0  0  0  0  0  0  0  0  0
   58.7720   33.1490   47.0510 N   0  0  0  0  0  0  0  0  0  0  0  0
   58.9580   31.9460   51.2370 C   0  0  0  0  0  0  0  0  0  0  0  0
   59.8330   30.8750   51.4980 C   0  0  0  0  0  0  0  0  0  0  0  0
   59.4160   29.7960   52.2800 C   0  0  0  0  0  0  0  0  0  0  0  0
   58.1170   29.7600   52.7900 C   0  0  0  0  0  0  0  0  0  0  0  0
   57.2180   30.7940   52.5070 C   0  0  0  0  0  0  0  0  0  0  0  0
   55.8950   30.7340   53.0590 N   0  0  0  0  0  0  0  0  0  0  0  0
   54.7570   30.1010   52.4600 C   0  0  0  0  0  0  0  0  0  0  0  0
   54.8470   28.8920   52.1180 O   0  0  0  0  0  0  0  0  0  0  0  0
   53.5150   30.8440   52.1700 C   0  0  0  0  0  0  0  0  0  0  0  0
   52.4480   30.9790   53.0420 C   0  0  0  0  0  0  0  0  0  0  0  0
   51.4990   31.7220   52.3770 C   0  0  0  0  0  0  0  0  0  0  0  0
   52.0360   31.9900   51.1380 C   0  0  0  0  0  0  0  0  0  0  0  0
   51.3990   32.7220   50.1430 O   0  0  0  0  0  0  0  0  0  0  0  0
   53.2650   31.4570   50.9950 N   0  0  0  0  0  0  0  0  0  0  0  0
   57.6500   31.8970   51.7480 C   0  0  0  0  0  0  0  0  0  0  0  0
   59.3191   30.3556   48.8820 H   0  0  0  0  0  0  0  0  0  0  0  0
   58.0200   29.3664   46.9909 H   0  0  0  0  0  0  0  0  0  0  0  0
   59.0707   29.0627   44.5429 H   0  0  0  0  0  0  0  0  0  0  0  0
   60.3825   27.0215   45.1084 H   0  0  0  0  0  0  0  0  0  0  0  0
   59.2441   25.0316   46.0936 H   0  0  0  0  0  0  0  0  0  0  0  0
   56.7866   25.0864   46.5235 H   0  0  0  0  0  0  0  0  0  0  0  0
   57.7560   33.2808   45.1800 H   0  0  0  0  0  0  0  0  0  0  0  0
   60.8518   30.8880   51.0833 H   0  0  0  0  0  0  0  0  0  0  0  0
   60.1128   28.9723   52.4947 H   0  0  0  0  0  0  0  0  0  0  0  0
   57.7987   28.9145   53.4175 H   0  0  0  0  0  0  0  0  0  0  0  0
   52.3736   30.5737   54.0619 H   0  0  0  0  0  0  0  0  0  0  0  0
   50.5157   32.0364   52.7568 H   0  0  0  0  0  0  0  0  0  0  0  0
   51.8440   32.8700   49.2460 H   0  0  0  0  0  0  0  0  0  0  0  0
   56.9573   32.7289   51.5528 H   0  0  0  0  0  0  0  0  0  0  0  0
  1  2  2  0
  2  3  1  0
  3  4  2  3
  4  5  1  0
  5  6  2  0
  6  7  1  0
  7  8  1  0
  8  9  1  0
  9 10  2  0
  9 11  1  0
 11 12  2  0
 12 13  1  0
 13 14  2  0
 14 15  1  0
 15 16  2  0
 16 17  1  0
  7 18  2  0
 18 19  1  0
  2 20  1  0
 20 21  2  0
 21 22  1  0
 22 23  2  0
 23 24  1  0
 24 25  1  0
 25 26  1  0
 26 27  2  0
 26 28  1  0
 28 29  2  0
 29 30  1  0
 30 31  2  0
 31 32  1  0
 31 33  1  0
 24 34  2  0
 19  4  1  0
 34 20  1  0
 16 11  1  0
 33 28  1  0
  5 35  1  0
  6 36  1  0
 12 37  1  0
 13 38  1  0
 14 39  1  0
 15 40  1  0
 18 41  1  0
 21 42  1  0
 22 43  1  0
 23 44  1  0
 29 45  1  0
 30 46  1  0
 32 47  1  0
 34 48  1  0
M  CHG  5   8  -1  17  -1  19  -1  25  -1  33  -1
M  END
>  <UniqueID>  (23) 
20

>  <SMILES>  (23) 
O=C(N=c1ccc([N-]C(=O)c2ccccc2[O-])c[n-]1)c1cccc([N-]C(=O)c2ccc(O)[n-]2)c1

>  <Energy>  (23) 
100.54158487575563

>  <Genealogy>  (23) 
O=C(N=c1ccc([N-]C(=O)c2ccccc2[O-])c[n-]1)c1cccc([N-]C(=O)c2ccc(O)[n-]2)c1 (protonated)
O=C(N=c1ccc([N-]C(=O)c2ccccc2[O-])c[n-]1)c1cccc([N-]C(=O)c2ccc(O)[n-]2)c1 (3D coordinates assigned)
O=C(N=c1ccc([N-]C(=O)c2ccccc2[O-])c[n-]1)c1cccc([N-]C(=O)c2ccc(O)[n-]2)c1 (optimized conformer: 100.54158487575563 kcal/mol)

>  <smiles>  (23) 
O=C(N=c1ccc(NC(=O)c2ccccc2O)c[nH]1)c1cccc(NC(=O)c2ccc(O)[nH]2)c1

>  <score_type>  (23) 
oracle

>  <origin>  (23) 
adg

>  <m_score__min__energy>  (23) 
-18.960000000000001

>  <m_primary>  (23) 
energy

$$$$
23:0
     RDKit          3D

 38 41  0  0  0  0  0  0  0  0999 V2000
   53.9600   28.5560   54.0210 C   0  0  0  0  0  0  0  0  0  0  0  0
   54.4850   29.5260   53.2560 C   0  0  0  0  0  0  0  0  0  0  0  0
   53.7810   30.4170   52.4330 C   0  0  0  0  0  0  0  0  0  0  0  0
   52.4460   30.4440   52.2290 C   0  0  0  0  0  0  0  0  0  0  0  0
   51.7710   30.8250   50.9680 C   0  0  0  0  0  0  0  0  0  0  0  0
   51.7040   30.0820   49.8490 N   0  0  0  0  0  0  0  0  0  0  0  0
   51.0270   30.8680   48.9850 C   0  0  0  0  0  0  0  0  0  0  0  0
   50.7580   30.5100   47.8090 O   0  0  0  0  0  0  0  0  0  0  0  0
   50.6650   32.0710   49.4810 N   0  0  0  0  0  0  0  0  0  0  0  0
   51.1460   32.0290   50.7330 C   0  0  0  0  0  0  0  0  0  0  0  0
   51.0170   33.0690   51.6430 O   0  0  0  0  0  0  0  0  0  0  0  0
   54.7390   31.2490   51.8620 C   0  0  0  0  0  0  0  0  0  0  0  0
   55.9650   30.8360   52.3440 C   0  0  0  0  0  0  0  0  0  0  0  0
   57.2780   31.4660   51.9880 C   0  0  0  0  0  0  0  0  0  0  0  0
   55.8120   29.8020   53.1980 N   0  0  0  0  0  0  0  0  0  0  0  0
   56.8740   29.1130   53.8810 C   0  0  0  0  0  0  0  0  0  0  0  0
   57.8310   28.4010   53.1480 C   0  0  0  0  0  0  0  0  0  0  0  0
   58.8690   27.7370   53.8110 C   0  0  0  0  0  0  0  0  0  0  0  0
   59.8440   27.0180   53.1030 C   0  0  0  0  0  0  0  0  0  0  0  0
   60.8720   26.3660   53.7940 C   0  0  0  0  0  0  0  0  0  0  0  0
   62.0890   25.4670   52.9100 Cl  0  0  0  0  0  0  0  0  0  0  0  0
   60.9290   26.4310   55.1920 C   0  0  0  0  0  0  0  0  0  0  0  0
   59.9610   27.1460   55.9040 C   0  0  0  0  0  0  0  0  0  0  0  0
   58.9310   27.8000   55.2210 C   0  0  0  0  0  0  0  0  0  0  0  0
   57.9870   28.4960   55.9110 N   0  0  0  0  0  0  0  0  0  0  0  0
   56.9700   29.1450   55.2830 C   0  0  0  0  0  0  0  0  0  0  0  0
   56.1150   29.7650   55.9670 O   0  0  0  0  0  0  0  0  0  0  0  0
   54.6185   27.9166   54.6272 H   0  0  0  0  0  0  0  0  0  0  0  0
   52.8712   28.4005   54.0417 H   0  0  0  0  0  0  0  0  0  0  0  0
   51.8037   30.1575   53.0748 H   0  0  0  0  0  0  0  0  0  0  0  0
   54.5549   32.0767   51.1613 H   0  0  0  0  0  0  0  0  0  0  0  0
   57.8212   31.7266   52.9084 H   0  0  0  0  0  0  0  0  0  0  0  0
   57.8766   30.7571   51.3972 H   0  0  0  0  0  0  0  0  0  0  0  0
   57.0996   32.3766   51.3972 H   0  0  0  0  0  0  0  0  0  0  0  0
   57.7669   28.3636   52.0505 H   0  0  0  0  0  0  0  0  0  0  0  0
   59.8005   26.9667   52.0051 H   0  0  0  0  0  0  0  0  0  0  0  0
   61.7383   25.9176   55.7318 H   0  0  0  0  0  0  0  0  0  0  0  0
   60.0098   27.1940   57.0019 H   0  0  0  0  0  0  0  0  0  0  0  0
  1  2  2  0
  2  3  1  0
  3  4  2  3
  4  5  1  0
  5  6  1  0
  6  7  1  0
  7  8  2  0
  7  9  1  0
  9 10  1  0
 10 11  1  0
  3 12  1  0
 12 13  2  0
 13 14  1  0
 13 15  1  0
 15 16  1  0
 16 17  2  0
 17 18  1  0
 18 19  2  0
 19 20  1  0
 20 21  1  0
 20 22  2  0
 22 23  1  0
 23 24  2  0
 24 25  1  0
 25 26  1  0
 26 27  2  0
 15  2  1  0
 26 16  1  0
 10  5  2  0
 24 18  1  0
  1 28  1  0
  1 29  1  0
  4 30  1  0
 12 31  1  0
 14 32  1  0
 14 33  1  0
 14 34  1  0
 17 35  1  0
 19 36  1  0
 22 37  1  0
 23 38  1  0
M  CHG  4   6  -1   9  -1  11  -1  25  -1
M  END
>  <UniqueID>  (24) 
21

>  <SMILES>  (24) 
C=c1c(=Cc2[n-]c(=O)[n-]c2[O-])cc(C)n1-c1cc2cc(Cl)ccc2[n-]c1=O

>  <Energy>  (24) 
114.76455405211088

>  <Genealogy>  (24) 
C=c1c(=Cc2[n-]c(=O)[n-]c2[O-])cc(C)n1-c1cc2cc(Cl)ccc2[n-]c1=O (protonated)
C=c1c(=Cc2[n-]c(=O)[n-]c2[O-])cc(C)n1-c1cc2cc(Cl)ccc2[n-]c1=O (3D coordinates assigned)
C=c1c(=Cc2[n-]c(=O)[n-]c2[O-])cc(C)n1-c1cc2cc(Cl)ccc2[n-]c1=O (optimized conformer: 114.76455405211088 kcal/mol)

>  <smiles>  (24) 
C=c1c(=Cc2[nH]c(=O)[nH]c2O)cc(C)n1-c1cc2cc(Cl)ccc2[nH]c1=O

>  <score_type>  (24) 
oracle

>  <origin>  (24) 
adg

>  <m_score__min__energy>  (24) 
-17.059999999999999

>  <m_primary>  (24) 
energy

$$$$
24:0
     RDKit          3D

 43 45  0  0  0  0  0  0  0  0999 V2000
   58.7500   32.0173   45.6425 H   0  0  0  0  0  0  0  0  0  0  0  0
   58.6280   30.9280   45.5500 C   0  0  0  0  0  0  0  0  0  0  0  0
   58.2725   30.4927   44.6044 H   0  0  0  0  0  0  0  0  0  0  0  0
   58.9130   30.1300   46.5910 C   0  0  0  0  0  0  0  0  0  0  0  0
   58.8060   28.7360   46.6180 C   0  0  0  0  0  0  0  0  0  0  0  0
   58.3690   27.9280   45.6320 C   0  0  0  0  0  0  0  0  0  0  0  0
   58.7740   28.0746   44.6198 H   0  0  0  0  0  0  0  0  0  0  0  0
   57.3720   26.8530   45.8400 C   0  0  0  0  0  0  0  0  0  0  0  0
   55.9980   27.0760   45.6500 C   0  0  0  0  0  0  0  0  0  0  0  0
   55.5250   28.3230   45.2560 O   0  0  0  0  0  0  0  0  0  0  0  0
   55.1110   26.0710   45.8720 N   0  0  0  0  0  0  0  0  0  0  0  0
   55.5270   24.8500   46.2930 C   0  0  0  0  0  0  0  0  0  0  0  0
   54.4390   23.6610   46.5500 S   0  0  0  0  0  0  0  0  0  0  0  0
   56.8470   24.6190   46.5130 N   0  0  0  0  0  0  0  0  0  0  0  0
   57.7730   25.5900   46.3030 C   0  0  0  0  0  0  0  0  0  0  0  0
   58.9890   25.3410   46.5210 O   0  0  0  0  0  0  0  0  0  0  0  0
   59.2050   28.3380   47.8850 C   0  0  0  0  0  0  0  0  0  0  0  0
   59.2430   27.3075   48.2680 H   0  0  0  0  0  0  0  0  0  0  0  0
   59.5450   29.4850   48.5720 C   0  0  0  0  0  0  0  0  0  0  0  0
   60.0210   29.5120   49.9930 C   0  0  0  0  0  0  0  0  0  0  0  0
   59.1558   29.4629   50.6705 H   0  0  0  0  0  0  0  0  0  0  0  0
   60.6791   28.6497   50.1757 H   0  0  0  0  0  0  0  0  0  0  0  0
   60.5774   30.4431   50.1757 H   0  0  0  0  0  0  0  0  0  0  0  0
   59.3660   30.5780   47.7910 N   0  0  0  0  0  0  0  0  0  0  0  0
   59.6310   31.9740   48.1730 C   0  0  0  0  0  0  0  0  0  0  0  0
   58.8674   32.6211   47.7168 H   0  0  0  0  0  0  0  0  0  0  0  0
   59.5978   32.0450   49.2702 H   0  0  0  0  0  0  0  0  0  0  0  0
   61.0040   32.4250   47.7060 C   0  0  0  0  0  0  0  0  0  0  0  0
   62.1430   31.7390   48.1690 C   0  0  0  0  0  0  0  0  0  0  0  0
   62.0252   30.9181   48.8916 H   0  0  0  0  0  0  0  0  0  0  0  0
   63.4190   32.0860   47.7240 C   0  0  0  0  0  0  0  0  0  0  0  0
   64.2971   31.5319   48.0870 H   0  0  0  0  0  0  0  0  0  0  0  0
   63.5820   33.1340   46.8200 C   0  0  0  0  0  0  0  0  0  0  0  0
   64.5866   33.3936   46.4548 H   0  0  0  0  0  0  0  0  0  0  0  0
   62.4720   33.8540   46.3780 C   0  0  0  0  0  0  0  0  0  0  0  0
   62.6102   34.6854   45.6712 H   0  0  0  0  0  0  0  0  0  0  0  0
   61.1780   33.5300   46.8250 C   0  0  0  0  0  0  0  0  0  0  0  0
   60.0450   34.3790   46.3860 C   0  0  0  0  0  0  0  0  0  0  0  0
   59.6340   35.3110   47.1280 O   0  0  0  0  0  0  0  0  0  0  0  0
   59.4330   34.2090   45.0300 C   0  0  0  0  0  0  0  0  0  0  0  0
   58.3782   33.9160   45.1379 H   0  0  0  0  0  0  0  0  0  0  0  0
   59.4952   35.1584   44.4780 H   0  0  0  0  0  0  0  0  0  0  0  0
   59.9760   33.4277   44.4780 H   0  0  0  0  0  0  0  0  0  0  0  0
  1  2  1  0
  2  3  1  0
  2  4  2  0
  4  5  1  0
  5  6  2  0
  6  7  1  0
  6  8  1  0
  8  9  2  0
  9 10  1  0
  9 11  1  0
 11 12  1  0
 12 13  2  0
 12 14  1  0
 14 15  1  0
 15 16  2  0
  5 17  1  0
 17 18  1  0
 17 19  2  0
 19 20  1  0
 20 21  1  0
 20 22  1  0
 20 23  1  0
 19 24  1  0
 24 25  1  0
 25 26  1  0
 25 27  1  0
 25 28  1  0
 28 29  2  0
 29 30  1  0
 29 31  1  0
 31 32  1  0
 31 33  2  0
 33 34  1  0
 33 35  1  0
 35 36  1  0
 35 37  2  0
 37 38  1  0
 38 39  2  0
 38 40  1  0
 40 41  1  0
 40 42  1  0
 40 43  1  0
 24  4  1  0
 37 28  1  0
 15  8  1  0
M  CHG  3  10  -1  11  -1  14  -1
M  END
>  <UniqueID>  (25) 
22

>  <SMILES>  (25) 
C=c1/c(=C/c2c([O-])[n-]c(=S)[n-]c2=O)cc(C)n1Cc1ccccc1C(C)=O

>  <Energy>  (25) 
88.70701336394164

>  <Genealogy>  (25) 
C=c1c(=Cc2c([O-])[n-]c(=S)[n-]c2=O)cc(C)n1Cc1ccccc1C(C)=O (protonated)
C=c1/c(=C/c2c([O-])[n-]c(=S)[n-]c2=O)cc(C)n1Cc1ccccc1C(C)=O (cis-trans isomerization)
C=c1/c(=C/c2c([O-])[n-]c(=S)[n-]c2=O)cc(C)n1Cc1ccccc1C(C)=O (3D coordinates assigned)
C=c1/c(=C/c2c([O-])[n-]c(=S)[n-]c2=O)cc(C)n1Cc1ccccc1C(C)=O (optimized conformer: 88.70701336394164 kcal/mol)

>  <smiles>  (25) 
C=c1c(=Cc2c(O)[nH]c(=S)[nH]c2=O)cc(C)n1Cc1ccccc1C(C)=O

>  <score_type>  (25) 
oracle

>  <origin>  (25) 
adg

>  <m_score__min__energy>  (25) 
-15.9

>  <m_primary>  (25) 
energy

$$$$
25:0
     RDKit          3D

 36 38  0  0  0  0  0  0  0  0999 V2000
   59.6410   34.6010   49.4950 N   0  0  0  0  0  0  0  0  0  0  0  0
   60.3410   34.2650   48.2980 C   0  0  0  0  0  0  0  0  0  0  0  0
   61.5990   34.2040   48.3200 O   0  0  0  0  0  0  0  0  0  0  0  0
   59.6000   33.9890   47.0430 C   0  0  0  0  0  0  0  0  0  0  0  0
   59.4690   34.9830   46.0580 C   0  0  0  0  0  0  0  0  0  0  0  0
   58.7720   34.7210   44.8780 C   0  0  0  0  0  0  0  0  0  0  0  0
   58.1960   33.4670   44.6640 C   0  0  0  0  0  0  0  0  0  0  0  0
   58.3110   32.4560   45.6330 C   0  0  0  0  0  0  0  0  0  0  0  0
   57.7050   31.1190   45.4220 C   0  0  0  0  0  0  0  0  0  0  0  0
   58.2410   29.8850   45.7410 C   0  0  0  0  0  0  0  0  0  0  0  0
   57.3320   28.9630   45.3610 N   0  0  0  0  0  0  0  0  0  0  0  0
   57.4220   27.5280   45.4730 C   0  0  0  0  0  0  0  0  0  0  0  0
   58.4510   26.8070   44.8430 C   0  0  0  0  0  0  0  0  0  0  0  0
   58.5210   25.4180   44.9630 C   0  0  0  0  0  0  0  0  0  0  0  0
   57.5700   24.7140   45.7160 C   0  0  0  0  0  0  0  0  0  0  0  0
   57.6960   22.9540   45.8390 S   0  0  0  0  0  0  0  0  0  0  0  0
   57.2330   22.4470   47.4250 N   0  0  0  0  0  0  0  0  0  0  0  0
   59.1100   22.5290   45.5610 O   0  0  0  0  0  0  0  0  0  0  0  0
   56.7890   22.2940   44.8380 O   0  0  0  0  0  0  0  0  0  0  0  0
   56.5340   25.4300   46.3560 C   0  0  0  0  0  0  0  0  0  0  0  0
   55.5530   24.7950   47.1220 O   0  0  0  0  0  0  0  0  0  0  0  0
   56.4710   26.8210   46.2300 C   0  0  0  0  0  0  0  0  0  0  0  0
   56.2980   29.6040   44.8370 N   0  0  0  0  0  0  0  0  0  0  0  0
   56.4960   30.9130   44.8620 N   0  0  0  0  0  0  0  0  0  0  0  0
   59.0170   32.7270   46.8210 C   0  0  0  0  0  0  0  0  0  0  0  0
   59.2640   35.5630   49.6450 H   0  0  0  0  0  0  0  0  0  0  0  0
   59.9189   35.9739   46.2184 H   0  0  0  0  0  0  0  0  0  0  0  0
   58.6758   35.5056   44.1130 H   0  0  0  0  0  0  0  0  0  0  0  0
   57.6486   33.2694   43.7306 H   0  0  0  0  0  0  0  0  0  0  0  0
   59.2164   29.6928   46.2118 H   0  0  0  0  0  0  0  0  0  0  0  0
   59.2077   27.3419   44.2503 H   0  0  0  0  0  0  0  0  0  0  0  0
   59.3315   24.8692   44.4611 H   0  0  0  0  0  0  0  0  0  0  0  0
   56.8750   23.2940   47.9230 H   0  0  0  0  0  0  0  0  0  0  0  0
   55.6570   23.8650   47.5010 H   0  0  0  0  0  0  0  0  0  0  0  0
   55.6626   27.3725   46.7323 H   0  0  0  0  0  0  0  0  0  0  0  0
   59.1142   31.9422   47.5856 H   0  0  0  0  0  0  0  0  0  0  0  0
  1  2  1  0
  2  3  2  0
  2  4  1  0
  4  5  2  0
  5  6  1  0
  6  7  2  0
  7  8  1  0
  8  9  1  0
  9 10  2  0
 10 11  1  0
 11 12  1  0
 12 13  2  0
 13 14  1  0
 14 15  2  0
 15 16  1  0
 16 17  1  0
 16 18  2  0
 16 19  2  0
 15 20  1  0
 20 21  1  0
 20 22  2  0
 11 23  1  0
 23 24  2  0
  8 25  2  0
 25  4  1  0
 24  9  1  0
 22 12  1  0
  1 26  1  0
  5 27  1  0
  6 28  1  0
  7 29  1  0
 10 30  1  0
 13 31  1  0
 14 32  1  0
 17 33  1  0
 21 34  1  0
 22 35  1  0
 25 36  1  0
M  CHG  2   1  -1  17  -1
M  END
>  <UniqueID>  (26) 
23

>  <SMILES>  (26) 
[NH-]C(=O)c1cccc(-c2cn(-c3ccc(S([NH-])(=O)=O)c(O)c3)nn2)c1

>  <Energy>  (26) 
79.40118726276262

>  <Genealogy>  (26) 
[NH-]C(=O)c1cccc(-c2cn(-c3ccc(S([NH-])(=O)=O)c(O)c3)nn2)c1 (protonated)
[NH-]C(=O)c1cccc(-c2cn(-c3ccc(S([NH-])(=O)=O)c(O)c3)nn2)c1 (3D coordinates assigned)
[NH-]C(=O)c1cccc(-c2cn(-c3ccc(S([NH-])(=O)=O)c(O)c3)nn2)c1 (optimized conformer: 79.40118726276262 kcal/mol)

>  <smiles>  (26) 
NC(=O)c1cccc(-c2cn(-c3ccc(S(N)(=O)=O)c(O)c3)nn2)c1

>  <score_type>  (26) 
oracle

>  <origin>  (26) 
adg

>  <m_score__min__energy>  (26) 
-11.82

>  <m_primary>  (26) 
energy

$$$$
26:0
     RDKit          3D

 51 54  0  0  0  0  0  0  0  0999 V2000
   61.1710   29.9240   48.7850 O   0  0  0  0  0  0  0  0  0  0  0  0
   61.4350   31.0800   49.2170 C   0  0  0  0  0  0  0  0  0  0  0  0
   61.2800   31.3880   50.6130 N   0  0  0  0  0  0  0  0  0  0  0  0
   60.2740   31.9920   51.1780 C   0  0  0  0  0  0  0  0  0  0  0  0
   60.4730   32.9440   52.1350 N   0  0  0  0  0  0  0  0  0  0  0  0
   59.4400   33.6060   52.7200 C   0  0  0  0  0  0  0  0  0  0  0  0
   58.1270   33.3160   52.3550 C   0  0  0  0  0  0  0  0  0  0  0  0
   57.8890   32.3470   51.3810 C   0  0  0  0  0  0  0  0  0  0  0  0
   58.9590   31.6790   50.7790 C   0  0  0  0  0  0  0  0  0  0  0  0
   58.6940   30.7210   49.8000 O   0  0  0  0  0  0  0  0  0  0  0  0
   61.9380   32.1130   48.2730 C   0  0  0  0  0  0  0  0  0  0  0  0
   63.2890   32.0610   47.8810 C   0  0  0  0  0  0  0  0  0  0  0  0
   63.8370   33.0690   47.0910 C   0  0  0  0  0  0  0  0  0  0  0  0
   63.0370   34.1350   46.6910 C   0  0  0  0  0  0  0  0  0  0  0  0
   61.7270   34.1690   47.0460 N   0  0  0  0  0  0  0  0  0  0  0  0
   61.1480   33.1950   47.8000 C   0  0  0  0  0  0  0  0  0  0  0  0
   59.6930   33.2990   48.0370 C   0  0  0  0  0  0  0  0  0  0  0  0
   59.2530   34.2660   48.7130 O   0  0  0  0  0  0  0  0  0  0  0  0
   58.7650   32.3400   47.5140 N   0  0  0  0  0  0  0  0  0  0  0  0
   58.3790   32.2170   46.1380 C   0  0  0  0  0  0  0  0  0  0  0  0
   58.5950   33.2580   45.2190 C   0  0  0  0  0  0  0  0  0  0  0  0
   58.1860   33.1190   43.8900 C   0  0  0  0  0  0  0  0  0  0  0  0
   57.5530   31.9460   43.4710 C   0  0  0  0  0  0  0  0  0  0  0  0
   57.3230   30.9070   44.3830 C   0  0  0  0  0  0  0  0  0  0  0  0
   56.5450   29.4160   43.8650 S   0  0  0  0  0  0  0  0  0  0  0  0
   57.5030   28.5520   43.0900 O   0  0  0  0  0  0  0  0  0  0  0  0
   55.3800   29.7570   42.9810 O   0  0  0  0  0  0  0  0  0  0  0  0
   55.9760   28.5330   45.2440 N   0  0  0  0  0  0  0  0  0  0  0  0
   56.5940   27.3600   45.7910 C   0  0  0  0  0  0  0  0  0  0  0  0
   57.9870   27.2700   45.9810 C   0  0  0  0  0  0  0  0  0  0  0  0
   58.5510   26.1090   46.5200 C   0  0  0  0  0  0  0  0  0  0  0  0
   57.7360   25.0290   46.8640 C   0  0  0  0  0  0  0  0  0  0  0  0
   56.3560   25.1050   46.6660 C   0  0  0  0  0  0  0  0  0  0  0  0
   55.7840   26.2680   46.1400 C   0  0  0  0  0  0  0  0  0  0  0  0
   54.4060   26.3330   45.9580 O   0  0  0  0  0  0  0  0  0  0  0  0
   57.7280   31.0510   45.7170 C   0  0  0  0  0  0  0  0  0  0  0  0
   59.6410   34.3723   53.4832 H   0  0  0  0  0  0  0  0  0  0  0  0
   57.2878   33.8454   52.8298 H   0  0  0  0  0  0  0  0  0  0  0  0
   56.8567   32.1077   51.0857 H   0  0  0  0  0  0  0  0  0  0  0  0
   59.1460   30.7320   48.8940 H   0  0  0  0  0  0  0  0  0  0  0  0
   63.9175   31.2170   48.2013 H   0  0  0  0  0  0  0  0  0  0  0  0
   64.8929   33.0227   46.7860 H   0  0  0  0  0  0  0  0  0  0  0  0
   63.4654   34.9491   46.0879 H   0  0  0  0  0  0  0  0  0  0  0  0
   59.0876   34.1853   45.5469 H   0  0  0  0  0  0  0  0  0  0  0  0
   58.3626   33.9341   43.1728 H   0  0  0  0  0  0  0  0  0  0  0  0
   57.2347   31.8378   42.4236 H   0  0  0  0  0  0  0  0  0  0  0  0
   58.6335   28.1159   45.7045 H   0  0  0  0  0  0  0  0  0  0  0  0
   59.6385   26.0468   46.6731 H   0  0  0  0  0  0  0  0  0  0  0  0
   58.1811   24.1182   47.2910 H   0  0  0  0  0  0  0  0  0  0  0  0
   55.7168   24.2479   46.9244 H   0  0  0  0  0  0  0  0  0  0  0  0
   57.5333   30.2431   46.4377 H   0  0  0  0  0  0  0  0  0  0  0  0
  1  2  2  0
  2  3  1  0
  3  4  2  3
  4  5  1  0
  5  6  1  0
  6  7  2  0
  7  8  1  0
  8  9  2  0
  9 10  1  0
  2 11  1  0
 11 12  2  0
 12 13  1  0
 13 14  2  0
 14 15  1  0
 15 16  2  0
 16 17  1  0
 17 18  2  0
 17 19  1  0
 19 20  1  0
 20 21  2  0
 21 22  1  0
 22 23  2  0
 23 24  1  0
 24 25  1  0
 25 26  2  0
 25 27  2  0
 25 28  1  0
 28 29  1  0
 29 30  2  0
 30 31  1  0
 31 32  2  0
 32 33  1  0
 33 34  2  0
 34 35  1  0
 24 36  2  0
  9  4  1  0
 16 11  1  0
 36 20  1  0
 34 29  1  0
  6 37  1  0
  7 38  1  0
  8 39  1  0
 10 40  1  0
 12 41  1  0
 13 42  1  0
 14 43  1  0
 21 44  1  0
 22 45  1  0
 23 46  1  0
 30 47  1  0
 31 48  1  0
 32 49  1  0
 33 50  1  0
 36 51  1  0
M  CHG  4   5  -1  19  -1  28  -1  35  -1
M  END
>  <UniqueID>  (27) 
24

>  <SMILES>  (27) 
O=C(N=c1[n-]cccc1O)c1cccnc1C(=O)[N-]c1cccc(S(=O)(=O)[N-]c2ccccc2[O-])c1

>  <Energy>  (27) 
72.14131205362554

>  <Genealogy>  (27) 
O=C(N=c1[n-]cccc1O)c1cccnc1C(=O)[N-]c1cccc(S(=O)(=O)[N-]c2ccccc2[O-])c1 (protonated)
O=C(N=c1[n-]cccc1O)c1cccnc1C(=O)[N-]c1cccc(S(=O)(=O)[N-]c2ccccc2[O-])c1 (3D coordinates assigned)
O=C(N=c1[n-]cccc1O)c1cccnc1C(=O)[N-]c1cccc(S(=O)(=O)[N-]c2ccccc2[O-])c1 (optimized conformer: 72.14131205362554 kcal/mol)

>  <smiles>  (27) 
O=C(N=c1[nH]cccc1O)c1cccnc1C(=O)Nc1cccc(S(=O)(=O)Nc2ccccc2O)c1

>  <score_type>  (27) 
oracle

>  <origin>  (27) 
adg

>  <m_score__min__energy>  (27) 
-17.140000000000001

>  <m_primary>  (27) 
energy

$$$$
27:0
     RDKit          3D

 54 57  0  0  0  0  0  0  0  0999 V2000
   61.2122   33.8913   50.3245 H   0  0  0  0  0  0  0  0  0  0  0  0
   60.6680   33.2230   49.6410 C   0  0  0  0  0  0  0  0  0  0  0  0
   61.2330   31.8730   49.4060 C   0  0  0  0  0  0  0  0  0  0  0  0
   62.3070   31.5630   49.9900 O   0  0  0  0  0  0  0  0  0  0  0  0
   60.5560   30.8660   48.5540 C   0  0  0  0  0  0  0  0  0  0  0  0
   59.3090   30.3420   48.9350 C   0  0  0  0  0  0  0  0  0  0  0  0
   58.8359   30.6824   49.8679 H   0  0  0  0  0  0  0  0  0  0  0  0
   58.6650   29.3910   48.1370 C   0  0  0  0  0  0  0  0  0  0  0  0
   57.6809   29.0007   48.4358 H   0  0  0  0  0  0  0  0  0  0  0  0
   59.2670   28.9350   46.9620 C   0  0  0  0  0  0  0  0  0  0  0  0
   58.6020   27.9770   46.1260 N   0  0  0  0  0  0  0  0  0  0  0  0
   58.2970   28.1480   44.8230 C   0  0  0  0  0  0  0  0  0  0  0  0
   58.4870   29.4280   44.0670 C   0  0  0  0  0  0  0  0  0  0  0  0
   58.6103   30.2586   44.7775 H   0  0  0  0  0  0  0  0  0  0  0  0
   59.3835   29.3506   43.4343 H   0  0  0  0  0  0  0  0  0  0  0  0
   57.6067   29.6143   43.4343 H   0  0  0  0  0  0  0  0  0  0  0  0
   57.7520   26.9960   44.2960 C   0  0  0  0  0  0  0  0  0  0  0  0
   57.4000   26.8465   43.2646 H   0  0  0  0  0  0  0  0  0  0  0  0
   57.7350   26.0630   45.3220 C   0  0  0  0  0  0  0  0  0  0  0  0
   57.2520   24.8110   45.2450 C   0  0  0  0  0  0  0  0  0  0  0  0
   57.9542   23.9979   45.0089 H   0  0  0  0  0  0  0  0  0  0  0  0
   55.8340   24.4650   45.4590 C   0  0  0  0  0  0  0  0  0  0  0  0
   55.3200   23.2450   45.2220 N   0  0  0  0  0  0  0  0  0  0  0  0
   53.9950   23.4190   45.4380 C   0  0  0  0  0  0  0  0  0  0  0  0
   53.1640   22.4820   45.3320 O   0  0  0  0  0  0  0  0  0  0  0  0
   53.6310   24.6810   45.7660 N   0  0  0  0  0  0  0  0  0  0  0  0
   54.8050   25.3330   45.7640 C   0  0  0  0  0  0  0  0  0  0  0  0
   54.9230   26.7030   45.9880 O   0  0  0  0  0  0  0  0  0  0  0  0
   58.2700   26.7060   46.4440 C   0  0  0  0  0  0  0  0  0  0  0  0
   58.4490   26.1710   47.6610 C   0  0  0  0  0  0  0  0  0  0  0  0
   58.8814   26.7777   48.4703 H   0  0  0  0  0  0  0  0  0  0  0  0
   58.1634   25.1256   47.8497 H   0  0  0  0  0  0  0  0  0  0  0  0
   60.5060   29.4570   46.5720 C   0  0  0  0  0  0  0  0  0  0  0  0
   60.9836   29.0997   45.6478 H   0  0  0  0  0  0  0  0  0  0  0  0
   61.1390   30.4290   47.3500 C   0  0  0  0  0  0  0  0  0  0  0  0
   62.0980   30.8550   47.0200 H   0  0  0  0  0  0  0  0  0  0  0  0
   59.5410   33.6900   49.0810 C   0  0  0  0  0  0  0  0  0  0  0  0
   58.6842   33.8836   49.7431 H   0  0  0  0  0  0  0  0  0  0  0  0
   59.3680   33.9640   47.6320 C   0  0  0  0  0  0  0  0  0  0  0  0
   59.8690   35.1420   47.0500 C   0  0  0  0  0  0  0  0  0  0  0  0
   60.4396   35.8547   47.6636 H   0  0  0  0  0  0  0  0  0  0  0  0
   59.6460   35.4140   45.6930 C   0  0  0  0  0  0  0  0  0  0  0  0
   60.0534   36.3321   45.2445 H   0  0  0  0  0  0  0  0  0  0  0  0
   58.9100   34.5260   44.9090 C   0  0  0  0  0  0  0  0  0  0  0  0
   58.7340   34.7507   43.8467 H   0  0  0  0  0  0  0  0  0  0  0  0
   58.3900   33.3410   45.4710 C   0  0  0  0  0  0  0  0  0  0  0  0
   57.5990   32.4000   44.6230 C   0  0  0  0  0  0  0  0  0  0  0  0
   56.7500   31.6380   45.1680 O   0  0  0  0  0  0  0  0  0  0  0  0
   57.7610   32.3420   43.1370 C   0  0  0  0  0  0  0  0  0  0  0  0
   58.7706   31.9805   42.8921 H   0  0  0  0  0  0  0  0  0  0  0  0
   57.0130   31.6558   42.7131 H   0  0  0  0  0  0  0  0  0  0  0  0
   57.6185   33.3470   42.7131 H   0  0  0  0  0  0  0  0  0  0  0  0
   58.6270   33.0720   46.8400 C   0  0  0  0  0  0  0  0  0  0  0  0
   58.2254   32.1519   47.2897 H   0  0  0  0  0  0  0  0  0  0  0  0
  1  2  1  0
  2  3  1  0
  3  4  2  0
  3  5  1  0
  5  6  2  0
  6  7  1  0
  6  8  1  0
  8  9  1  0
  8 10  2  0
 10 11  1  0
 11 12  1  0
 12 13  1  0
 13 14  1  0
 13 15  1  0
 13 16  1  0
 12 17  2  0
 17 18  1  0
 17 19  1  0
 19 20  2  0
 20 21  1  0
 20 22  1  0
 22 23  1  0
 23 24  1  0
 24 25  2  0
 24 26  1  0
 26 27  1  0
 27 28  1  0
 19 29  1  0
 29 30  2  0
 30 31  1  0
 30 32  1  0
 10 33  1  0
 33 34  1  0
 33 35  2  0
 35 36  1  0
  2 37  2  3
 37 38  1  0
 37 39  1  0
 39 40  2  0
 40 41  1  0
 40 42  1  0
 42 43  1  0
 42 44  2  0
 44 45  1  0
 44 46  1  0
 46 47  1  0
 47 48  2  0
 47 49  1  0
 49 50  1  0
 49 51  1  0
 49 52  1  0
 46 53  2  0
 53 54  1  0
 35  5  1  0
 53 39  1  0
 29 11  1  0
 27 22  2  0
M  CHG  3  23  -1  26  -1  28  -1
M  END
>  <UniqueID>  (28) 
25

>  <SMILES>  (28) 
C=c1/c(=C/c2[n-]c(=O)[n-]c2[O-])cc(C)n1-c1ccc(C(=O)C=Cc2cccc(C(C)=O)c2)cc1

>  <Energy>  (28) 
139.4960936186683

>  <Genealogy>  (28) 
C=c1c(=Cc2[n-]c(=O)[n-]c2[O-])cc(C)n1-c1ccc(C(=O)C=Cc2cccc(C(C)=O)c2)cc1 (protonated)
C=c1/c(=C/c2[n-]c(=O)[n-]c2[O-])cc(C)n1-c1ccc(C(=O)C=Cc2cccc(C(C)=O)c2)cc1 (cis-trans isomerization)
C=c1/c(=C/c2[n-]c(=O)[n-]c2[O-])cc(C)n1-c1ccc(C(=O)C=Cc2cccc(C(C)=O)c2)cc1 (3D coordinates assigned)
C=c1/c(=C/c2[n-]c(=O)[n-]c2[O-])cc(C)n1-c1ccc(C(=O)C=Cc2cccc(C(C)=O)c2)cc1 (optimized conformer: 139.4960936186683 kcal/mol)

>  <smiles>  (28) 
C=c1c(=Cc2[nH]c(=O)[nH]c2O)cc(C)n1-c1ccc(C(=O)C=Cc2cccc(C(C)=O)c2)cc1

>  <score_type>  (28) 
oracle

>  <origin>  (28) 
adg

>  <m_score__min__energy>  (28) 
-17.530000000000001

>  <m_primary>  (28) 
energy

$$$$
28:0
     RDKit          3D

 39 41  0  0  0  0  0  0  0  0999 V2000
   58.9680   30.8690   47.5010 C   0  0  0  0  0  0  0  0  0  0  0  0
   58.1950   30.9730   46.4100 C   0  0  0  0  0  0  0  0  0  0  0  0
   57.8140   29.9430   45.5440 C   0  0  0  0  0  0  0  0  0  0  0  0
   58.1170   28.6320   45.6740 C   0  0  0  0  0  0  0  0  0  0  0  0
   57.1700   27.5690   46.0440 C   0  0  0  0  0  0  0  0  0  0  0  0
   55.8940   27.5060   45.6230 N   0  0  0  0  0  0  0  0  0  0  0  0
   55.4700   26.3110   46.0870 C   0  0  0  0  0  0  0  0  0  0  0  0
   54.2980   25.8890   45.9060 O   0  0  0  0  0  0  0  0  0  0  0  0
   56.4030   25.5980   46.7520 N   0  0  0  0  0  0  0  0  0  0  0  0
   57.4780   26.4020   46.7050 C   0  0  0  0  0  0  0  0  0  0  0  0
   58.7120   26.0650   47.2580 O   0  0  0  0  0  0  0  0  0  0  0  0
   57.0290   30.5900   44.5800 C   0  0  0  0  0  0  0  0  0  0  0  0
   56.2570   29.9960   43.4420 C   0  0  0  0  0  0  0  0  0  0  0  0
   56.9760   31.9090   44.8520 N   0  0  0  0  0  0  0  0  0  0  0  0
   57.6730   32.1360   45.9520 N   0  0  0  0  0  0  0  0  0  0  0  0
   57.8440   33.4780   46.5140 C   0  0  0  0  0  0  0  0  0  0  0  0
   58.9020   34.2290   45.7550 C   0  0  0  0  0  0  0  0  0  0  0  0
   58.8300   34.2900   44.5000 O   0  0  0  0  0  0  0  0  0  0  0  0
   60.0260   34.8290   46.4120 N   0  0  0  0  0  0  0  0  0  0  0  0
   61.0650   34.1400   47.1210 C   0  0  0  0  0  0  0  0  0  0  0  0
   60.9430   33.8270   48.4870 C   0  0  0  0  0  0  0  0  0  0  0  0
   61.9870   33.1810   49.1560 C   0  0  0  0  0  0  0  0  0  0  0  0
   63.1630   32.8590   48.4720 C   0  0  0  0  0  0  0  0  0  0  0  0
   63.3010   33.1910   47.1220 C   0  0  0  0  0  0  0  0  0  0  0  0
   62.2580   33.8370   46.4510 C   0  0  0  0  0  0  0  0  0  0  0  0
   59.1948   31.7623   48.1016 H   0  0  0  0  0  0  0  0  0  0  0  0
   59.3752   29.8904   47.7953 H   0  0  0  0  0  0  0  0  0  0  0  0
   59.1596   28.3351   45.4874 H   0  0  0  0  0  0  0  0  0  0  0  0
   59.5660   26.1320   46.7190 H   0  0  0  0  0  0  0  0  0  0  0  0
   55.4436   29.3701   43.8378 H   0  0  0  0  0  0  0  0  0  0  0  0
   55.8325   30.8027   42.8262 H   0  0  0  0  0  0  0  0  0  0  0  0
   56.9279   29.3790   42.8262 H   0  0  0  0  0  0  0  0  0  0  0  0
   56.8916   34.0242   46.4460 H   0  0  0  0  0  0  0  0  0  0  0  0
   58.1525   33.3893   47.5661 H   0  0  0  0  0  0  0  0  0  0  0  0
   60.0237   34.0912   49.0303 H   0  0  0  0  0  0  0  0  0  0  0  0
   61.8830   32.9260   50.2210 H   0  0  0  0  0  0  0  0  0  0  0  0
   63.9806   32.3437   48.9974 H   0  0  0  0  0  0  0  0  0  0  0  0
   64.2299   32.9443   46.5870 H   0  0  0  0  0  0  0  0  0  0  0  0
   62.3746   34.1088   45.3915 H   0  0  0  0  0  0  0  0  0  0  0  0
  1  2  2  0
  2  3  1  0
  3  4  2  3
  4  5  1  0
  5  6  1  0
  6  7  1  0
  7  8  2  0
  7  9  1  0
  9 10  1  0
 10 11  1  0
  3 12  1  0
 12 13  1  0
 12 14  2  0
 14 15  1  0
 15 16  1  0
 16 17  1  0
 17 18  2  0
 17 19  1  0
 19 20  1  0
 20 21  2  0
 21 22  1  0
 22 23  2  0
 23 24  1  0
 24 25  2  0
 15  2  1  0
 25 20  1  0
 10  5  2  0
  1 26  1  0
  1 27  1  0
  4 28  1  0
 11 29  1  0
 13 30  1  0
 13 31  1  0
 13 32  1  0
 16 33  1  0
 16 34  1  0
 21 35  1  0
 22 36  1  0
 23 37  1  0
 24 38  1  0
 25 39  1  0
M  CHG  3   6  -1   9  -1  19  -1
M  END
>  <UniqueID>  (29) 
26

>  <SMILES>  (29) 
C=c1c(=Cc2[n-]c(=O)[n-]c2O)c(C)nn1CC(=O)[N-]c1ccccc1

>  <Energy>  (29) 
115.16990346321123

>  <Genealogy>  (29) 
C=c1c(=Cc2[n-]c(=O)[n-]c2O)c(C)nn1CC(=O)[N-]c1ccccc1 (protonated)
C=c1c(=Cc2[n-]c(=O)[n-]c2O)c(C)nn1CC(=O)[N-]c1ccccc1 (3D coordinates assigned)
C=c1c(=Cc2[n-]c(=O)[n-]c2O)c(C)nn1CC(=O)[N-]c1ccccc1 (optimized conformer: 115.16990346321123 kcal/mol)

>  <smiles>  (29) 
C=c1c(=Cc2[nH]c(=O)[nH]c2O)c(C)nn1CC(=O)Nc1ccccc1

>  <score_type>  (29) 
oracle

>  <origin>  (29) 
adg

>  <m_score__min__energy>  (29) 
-14

>  <m_primary>  (29) 
energy

$$$$
29:0
     RDKit          3D

 38 40  0  0  0  0  0  0  0  0999 V2000
   52.9010   25.1340   45.6850 H   0  0  0  0  0  0  0  0  0  0  0  0
   53.4700   24.3000   45.6040 O   0  0  0  0  0  0  0  0  0  0  0  0
   54.8540   24.3580   45.4520 C   0  0  0  0  0  0  0  0  0  0  0  0
   55.5450   23.1960   45.0950 C   0  0  0  0  0  0  0  0  0  0  0  0
   54.9934   22.2577   44.9357 H   0  0  0  0  0  0  0  0  0  0  0  0
   56.9320   23.2220   44.9400 C   0  0  0  0  0  0  0  0  0  0  0  0
   57.4711   22.3036   44.6646 H   0  0  0  0  0  0  0  0  0  0  0  0
   57.6360   24.4120   45.1340 C   0  0  0  0  0  0  0  0  0  0  0  0
   58.7297   24.4245   45.0167 H   0  0  0  0  0  0  0  0  0  0  0  0
   56.9580   25.5940   45.4780 C   0  0  0  0  0  0  0  0  0  0  0  0
   57.7440   26.8770   45.6250 C   0  0  0  0  0  0  0  0  0  0  0  0
   58.7284   26.7550   45.1496 H   0  0  0  0  0  0  0  0  0  0  0  0
   57.8649   27.0995   46.6955 H   0  0  0  0  0  0  0  0  0  0  0  0
   57.0350   27.9890   44.9870 N   0  0  0  0  0  0  0  0  0  0  0  0
   56.0960   27.7860   44.5740 H   0  0  0  0  0  0  0  0  0  0  0  0
   57.4400   29.3610   45.1270 C   0  0  0  0  0  0  0  0  0  0  0  0
   58.0660   29.8240   46.2980 C   0  0  0  0  0  0  0  0  0  0  0  0
   58.3314   29.1125   47.0938 H   0  0  0  0  0  0  0  0  0  0  0  0
   58.3530   31.1820   46.4570 C   0  0  0  0  0  0  0  0  0  0  0  0
   58.8404   31.5360   47.3774 H   0  0  0  0  0  0  0  0  0  0  0  0
   58.0210   32.0940   45.4460 C   0  0  0  0  0  0  0  0  0  0  0  0
   58.2140   33.8250   45.7060 S   0  0  0  0  0  0  0  0  0  0  0  0
   57.4210   34.6070   44.6980 O   0  0  0  0  0  0  0  0  0  0  0  0
   57.7210   34.1700   47.0830 O   0  0  0  0  0  0  0  0  0  0  0  0
   59.8920   34.2420   45.5730 N   0  0  0  0  0  0  0  0  0  0  0  0
   60.7490   34.0560   46.5280 C   0  0  0  0  0  0  0  0  0  0  0  0
   62.0300   33.6730   46.3310 N   0  0  0  0  0  0  0  0  0  0  0  0
   62.6940   33.5360   47.5090 C   0  0  0  0  0  0  0  0  0  0  0  0
   63.7496   33.2308   47.5595 H   0  0  0  0  0  0  0  0  0  0  0  0
   61.9410   33.8100   48.6460 C   0  0  0  0  0  0  0  0  0  0  0  0
   62.2978   33.7548   49.6851 H   0  0  0  0  0  0  0  0  0  0  0  0
   60.3880   34.2410   48.1560 S   0  0  0  0  0  0  0  0  0  0  0  0
   57.4410   31.6310   44.2590 C   0  0  0  0  0  0  0  0  0  0  0  0
   57.2056   32.3395   43.4511 H   0  0  0  0  0  0  0  0  0  0  0  0
   57.1600   30.2710   44.0970 C   0  0  0  0  0  0  0  0  0  0  0  0
   56.7167   29.9126   43.1562 H   0  0  0  0  0  0  0  0  0  0  0  0
   55.5580   25.5600   45.6480 C   0  0  0  0  0  0  0  0  0  0  0  0
   54.8630   26.7110   46.0070 O   0  0  0  0  0  0  0  0  0  0  0  0
  1  2  1  0
  2  3  1  0
  3  4  2  0
  4  5  1  0
  4  6  1  0
  6  7  1  0
  6  8  2  0
  8  9  1  0
  8 10  1  0
 10 11  1  0
 11 12  1  0
 11 13  1  0
 11 14  1  0
 14 15  1  0
 14 16  1  0
 16 17  2  0
 17 18  1  0
 17 19  1  0
 19 20  1  0
 19 21  2  0
 21 22  1  0
 22 23  2  0
 22 24  2  0
 22 25  1  0
 25 26  2  0
 26 27  1  0
 27 28  1  0
 28 29  1  0
 28 30  2  0
 30 31  1  0
 30 32  1  0
 21 33  1  0
 33 34  1  0
 33 35  2  0
 35 36  1  0
 10 37  2  0
 37 38  1  0
 37  3  1  0
 35 16  1  0
 32 26  1  0
M  CHG  2  27  -1  38  -1
M  END
>  <UniqueID>  (30) 
27

>  <SMILES>  (30) 
O=S(=O)(/N=c1\[n-]ccs1)c1ccc(NCc2cccc(O)c2[O-])cc1

>  <Energy>  (30) 
73.33533371316318

>  <Genealogy>  (30) 
O=S(=O)(N=c1[n-]ccs1)c1ccc(NCc2cccc(O)c2[O-])cc1 (protonated)
O=S(=O)(/N=c1\[n-]ccs1)c1ccc(NCc2cccc(O)c2[O-])cc1 (cis-trans isomerization)
O=S(=O)(/N=c1\[n-]ccs1)c1ccc(NCc2cccc(O)c2[O-])cc1 (3D coordinates assigned)
O=S(=O)(/N=c1\[n-]ccs1)c1ccc(NCc2cccc(O)c2[O-])cc1 (optimized conformer: 73.33533371316318 kcal/mol)

>  <smiles>  (30) 
O=S(=O)(N=c1[nH]ccs1)c1ccc(NCc2cccc(O)c2O)cc1

>  <score_type>  (30) 
oracle

>  <origin>  (30) 
adg

>  <m_score__min__energy>  (30) 
-12.91

>  <m_primary>  (30) 
energy

$$$$
30:0
     RDKit          3D

 54 57  0  0  0  0  0  0  0  0999 V2000
   54.0360   26.3170   46.3660 H   0  0  0  0  0  0  0  0  0  0  0  0
   54.9890   26.3930   46.0350 O   0  0  0  0  0  0  0  0  0  0  0  0
   55.9600   25.4270   46.3000 C   0  0  0  0  0  0  0  0  0  0  0  0
   55.7020   24.4840   47.2430 N   0  0  0  0  0  0  0  0  0  0  0  0
   56.6070   23.5190   47.5430 C   0  0  0  0  0  0  0  0  0  0  0  0
   56.3410   22.6590   48.4230 O   0  0  0  0  0  0  0  0  0  0  0  0
   57.7970   23.4760   46.8920 N   0  0  0  0  0  0  0  0  0  0  0  0
   58.1090   24.3920   45.9410 C   0  0  0  0  0  0  0  0  0  0  0  0
   59.2170   24.3120   45.3460 O   0  0  0  0  0  0  0  0  0  0  0  0
   57.1960   25.4150   45.6250 C   0  0  0  0  0  0  0  0  0  0  0  0
   57.4920   26.3940   44.5610 C   0  0  0  0  0  0  0  0  0  0  0  0
   57.2249   26.1143   43.5312 H   0  0  0  0  0  0  0  0  0  0  0  0
   58.0620   27.6020   44.7440 C   0  0  0  0  0  0  0  0  0  0  0  0
   59.3900   27.7500   45.1030 C   0  0  0  0  0  0  0  0  0  0  0  0
   60.1249   26.9427   45.2377 H   0  0  0  0  0  0  0  0  0  0  0  0
   59.6180   29.1000   45.2600 C   0  0  0  0  0  0  0  0  0  0  0  0
   60.9430   29.6950   45.6320 C   0  0  0  0  0  0  0  0  0  0  0  0
   61.0323   29.7351   46.7276 H   0  0  0  0  0  0  0  0  0  0  0  0
   61.7523   29.0739   45.2206 H   0  0  0  0  0  0  0  0  0  0  0  0
   61.0165   30.7125   45.2206 H   0  0  0  0  0  0  0  0  0  0  0  0
   58.4940   29.8050   44.9880 N   0  0  0  0  0  0  0  0  0  0  0  0
   58.3570   31.2690   45.0460 C   0  0  0  0  0  0  0  0  0  0  0  0
   59.0714   31.7263   44.3456 H   0  0  0  0  0  0  0  0  0  0  0  0
   57.3265   31.5383   44.7712 H   0  0  0  0  0  0  0  0  0  0  0  0
   58.6350   31.7770   46.4380 C   0  0  0  0  0  0  0  0  0  0  0  0
   58.7720   30.8820   47.5090 C   0  0  0  0  0  0  0  0  0  0  0  0
   58.6774   29.8003   47.3329 H   0  0  0  0  0  0  0  0  0  0  0  0
   59.0280   31.3560   48.7990 C   0  0  0  0  0  0  0  0  0  0  0  0
   59.1412   30.6435   49.6294 H   0  0  0  0  0  0  0  0  0  0  0  0
   59.1420   32.7360   49.0440 C   0  0  0  0  0  0  0  0  0  0  0  0
   59.4140   33.2360   50.4130 C   0  0  0  0  0  0  0  0  0  0  0  0
   58.5100   33.1900   51.2920 O   0  0  0  0  0  0  0  0  0  0  0  0
   60.6930   33.7940   50.7360 N   0  0  0  0  0  0  0  0  0  0  0  0
   61.9030   33.4920   50.0310 C   0  0  0  0  0  0  0  0  0  0  0  0
   62.1490   34.1460   48.8170 C   0  0  0  0  0  0  0  0  0  0  0  0
   61.4023   34.8453   48.4127 H   0  0  0  0  0  0  0  0  0  0  0  0
   63.3350   33.9170   48.1160 C   0  0  0  0  0  0  0  0  0  0  0  0
   63.5238   34.4432   47.1686 H   0  0  0  0  0  0  0  0  0  0  0  0
   64.2800   33.0220   48.6160 C   0  0  0  0  0  0  0  0  0  0  0  0
   65.2203   32.8543   48.0705 H   0  0  0  0  0  0  0  0  0  0  0  0
   64.0340   32.3380   49.8090 C   0  0  0  0  0  0  0  0  0  0  0  0
   64.7803   31.6283   50.1955 H   0  0  0  0  0  0  0  0  0  0  0  0
   62.8410   32.5500   50.5180 C   0  0  0  0  0  0  0  0  0  0  0  0
   62.5740   31.7630   51.6860 N   0  0  0  0  0  0  0  0  0  0  0  0
   61.6730   31.8710   52.2030 H   0  0  0  0  0  0  0  0  0  0  0  0
   63.2950   31.1350   52.1020 H   0  0  0  0  0  0  0  0  0  0  0  0
   58.9940   33.6310   47.9700 C   0  0  0  0  0  0  0  0  0  0  0  0
   59.0779   34.7136   48.1459 H   0  0  0  0  0  0  0  0  0  0  0  0
   58.7410   33.1550   46.6800 C   0  0  0  0  0  0  0  0  0  0  0  0
   58.6242   33.8659   45.8488 H   0  0  0  0  0  0  0  0  0  0  0  0
   57.5340   28.9020   44.6480 C   0  0  0  0  0  0  0  0  0  0  0  0
   56.3160   29.2510   44.2050 C   0  0  0  0  0  0  0  0  0  0  0  0
   56.0227   30.3109   44.1799 H   0  0  0  0  0  0  0  0  0  0  0  0
   55.6111   28.4771   43.8670 H   0  0  0  0  0  0  0  0  0  0  0  0
  1  2  1  0
  2  3  1  0
  3  4  1  0
  4  5  1  0
  5  6  2  0
  5  7  1  0
  7  8  1  0
  8  9  2  0
  8 10  1  0
 10 11  1  0
 11 12  1  0
 11 13  2  0
 13 14  1  0
 14 15  1  0
 14 16  2  0
 16 17  1  0
 17 18  1  0
 17 19  1  0
 17 20  1  0
 16 21  1  0
 21 22  1  0
 22 23  1  0
 22 24  1  0
 22 25  1  0
 25 26  2  0
 26 27  1  0
 26 28  1  0
 28 29  1  0
 28 30  2  0
 30 31  1  0
 31 32  2  0
 31 33  1  0
 33 34  1  0
 34 35  2  0
 35 36  1  0
 35 37  1  0
 37 38  1  0
 37 39  2  0
 39 40  1  0
 39 41  1  0
 41 42  1  0
 41 43  2  0
 43 44  1  0
 44 45  1  0
 44 46  1  0
 30 47  1  0
 47 48  1  0
 47 49  2  0
 49 50  1  0
 21 51  1  0
 51 52  2  0
 52 53  1  0
 52 54  1  0
 10  3  2  0
 51 13  1  0
 49 25  1  0
 43 34  1  0
M  CHG  3   4  -1   7  -1  33  -1
M  END
>  <UniqueID>  (31) 
28

>  <SMILES>  (31) 
C=c1/c(=C\c2c(O)[n-]c(=O)[n-]c2=O)cc(C)n1Cc1ccc(C(=O)[N-]c2ccccc2N)cc1

>  <Energy>  (31) 
108.21725626970704

>  <Genealogy>  (31) 
C=c1c(=Cc2c(O)[n-]c(=O)[n-]c2=O)cc(C)n1Cc1ccc(C(=O)[N-]c2ccccc2N)cc1 (protonated)
C=c1/c(=C\c2c(O)[n-]c(=O)[n-]c2=O)cc(C)n1Cc1ccc(C(=O)[N-]c2ccccc2N)cc1 (cis-trans isomerization)
C=c1/c(=C\c2c(O)[n-]c(=O)[n-]c2=O)cc(C)n1Cc1ccc(C(=O)[N-]c2ccccc2N)cc1 (3D coordinates assigned)
C=c1/c(=C\c2c(O)[n-]c(=O)[n-]c2=O)cc(C)n1Cc1ccc(C(=O)[N-]c2ccccc2N)cc1 (optimized conformer: 108.21725626970704 kcal/mol)

>  <smiles>  (31) 
C=c1c(=Cc2c(O)[nH]c(=O)[nH]c2=O)cc(C)n1Cc1ccc(C(=O)Nc2ccccc2N)cc1

>  <score_type>  (31) 
oracle

>  <origin>  (31) 
adg

>  <m_score__min__energy>  (31) 
-14.140000000000001

>  <m_primary>  (31) 
energy

$$$$
31:0
     RDKit          3D

 48 51  0  0  0  0  0  0  0  0999 V2000
   55.7940   26.3550   46.2780 O   0  0  0  0  0  0  0  0  0  0  0  0
   57.0050   26.6880   46.1660 C   0  0  0  0  0  0  0  0  0  0  0  0
   57.5370   27.1230   44.8360 C   0  0  0  0  0  0  0  0  0  0  0  0
   57.1480   28.5410   44.5530 C   0  0  0  0  0  0  0  0  0  0  0  0
   57.9850   29.4580   44.0210 N   0  0  0  0  0  0  0  0  0  0  0  0
   57.1950   30.5550   43.9950 C   0  0  0  0  0  0  0  0  0  0  0  0
   57.6260   31.8780   43.4510 C   0  0  0  0  0  0  0  0  0  0  0  0
   58.0290   32.7860   44.5800 C   0  0  0  0  0  0  0  0  0  0  0  0
   57.5070   32.5880   45.8690 C   0  0  0  0  0  0  0  0  0  0  0  0
   57.8460   33.4610   46.9070 C   0  0  0  0  0  0  0  0  0  0  0  0
   58.6990   34.5410   46.6640 C   0  0  0  0  0  0  0  0  0  0  0  0
   59.2140   34.7520   45.3820 C   0  0  0  0  0  0  0  0  0  0  0  0
   58.8780   33.8810   44.3400 C   0  0  0  0  0  0  0  0  0  0  0  0
   55.9960   30.3070   44.4670 O   0  0  0  0  0  0  0  0  0  0  0  0
   55.9390   29.0630   44.8280 N   0  0  0  0  0  0  0  0  0  0  0  0
   57.9020   26.5760   47.2780 N   0  0  0  0  0  0  0  0  0  0  0  0
   58.7860   27.5970   47.7620 C   0  0  0  0  0  0  0  0  0  0  0  0
   59.9010   27.2180   48.5200 C   0  0  0  0  0  0  0  0  0  0  0  0
   60.8040   28.1800   48.9810 C   0  0  0  0  0  0  0  0  0  0  0  0
   60.6180   29.5370   48.6610 C   0  0  0  0  0  0  0  0  0  0  0  0
   61.4980   30.5310   49.1130 O   0  0  0  0  0  0  0  0  0  0  0  0
   61.9440   31.6250   48.3570 C   0  0  0  0  0  0  0  0  0  0  0  0
   63.2080   31.5550   47.7570 C   0  0  0  0  0  0  0  0  0  0  0  0
   63.7010   32.6360   47.0160 C   0  0  0  0  0  0  0  0  0  0  0  0
   62.9340   33.7970   46.8790 C   0  0  0  0  0  0  0  0  0  0  0  0
   61.6770   33.8820   47.4870 C   0  0  0  0  0  0  0  0  0  0  0  0
   61.1850   32.8040   48.2300 C   0  0  0  0  0  0  0  0  0  0  0  0
   59.5070   29.9150   47.9000 C   0  0  0  0  0  0  0  0  0  0  0  0
   58.6010   28.9530   47.4400 C   0  0  0  0  0  0  0  0  0  0  0  0
   58.6341   27.0429   44.8413 H   0  0  0  0  0  0  0  0  0  0  0  0
   57.1129   26.4754   44.0545 H   0  0  0  0  0  0  0  0  0  0  0  0
   58.4818   31.7337   42.7751 H   0  0  0  0  0  0  0  0  0  0  0  0
   56.7906   32.3334   42.8991 H   0  0  0  0  0  0  0  0  0  0  0  0
   56.8293   31.7434   46.0623 H   0  0  0  0  0  0  0  0  0  0  0  0
   57.4407   33.2976   47.9165 H   0  0  0  0  0  0  0  0  0  0  0  0
   58.9654   35.2258   47.4826 H   0  0  0  0  0  0  0  0  0  0  0  0
   59.8840   35.6035   45.1921 H   0  0  0  0  0  0  0  0  0  0  0  0
   59.2790   34.0532   43.3303 H   0  0  0  0  0  0  0  0  0  0  0  0
   55.1100   28.5840   45.2440 H   0  0  0  0  0  0  0  0  0  0  0  0
   60.0672   26.1561   48.7541 H   0  0  0  0  0  0  0  0  0  0  0  0
   61.6632   27.8748   49.5963 H   0  0  0  0  0  0  0  0  0  0  0  0
   63.8167   30.6456   47.8686 H   0  0  0  0  0  0  0  0  0  0  0  0
   64.6915   32.5718   46.5418 H   0  0  0  0  0  0  0  0  0  0  0  0
   63.3193   34.6442   46.2927 H   0  0  0  0  0  0  0  0  0  0  0  0
   61.0754   34.7968   47.3807 H   0  0  0  0  0  0  0  0  0  0  0  0
   60.2014   32.8776   48.7169 H   0  0  0  0  0  0  0  0  0  0  0  0
   59.3443   30.9764   47.6614 H   0  0  0  0  0  0  0  0  0  0  0  0
   57.7418   29.2585   46.8248 H   0  0  0  0  0  0  0  0  0  0  0  0
  1  2  2  0
  2  3  1  0
  3  4  1  0
  4  5  1  0
  5  6  2  0
  6  7  1  0
  7  8  1  0
  8  9  2  0
  9 10  1  0
 10 11  2  0
 11 12  1  0
 12 13  2  0
  6 14  1  0
 14 15  1  0
  2 16  1  0
 16 17  1  0
 17 18  2  0
 18 19  1  0
 19 20  2  0
 20 21  1  0
 21 22  1  0
 22 23  2  0
 23 24  1  0
 24 25  2  0
 25 26  1  0
 26 27  2  0
 20 28  1  0
 28 29  2  0
 15  4  2  0
 29 17  1  0
 13  8  1  0
 27 22  1  0
  3 30  1  0
  3 31  1  0
  7 32  1  0
  7 33  1  0
  9 34  1  0
 10 35  1  0
 11 36  1  0
 12 37  1  0
 13 38  1  0
 15 39  1  0
 18 40  1  0
 19 41  1  0
 23 42  1  0
 24 43  1  0
 25 44  1  0
 26 45  1  0
 27 46  1  0
 28 47  1  0
 29 48  1  0
M  CHG  2  15   1  16  -1
M  END
>  <UniqueID>  (32) 
29

>  <SMILES>  (32) 
O=C(Cc1nc(Cc2ccccc2)o[nH+]1)[N-]c1ccc(Oc2ccccc2)cc1

>  <Energy>  (32) 
92.60651665475544

>  <Genealogy>  (32) 
O=C(Cc1nc(Cc2ccccc2)o[nH+]1)[N-]c1ccc(Oc2ccccc2)cc1 (protonated)
O=C(Cc1nc(Cc2ccccc2)o[nH+]1)[N-]c1ccc(Oc2ccccc2)cc1 (3D coordinates assigned)
O=C(Cc1nc(Cc2ccccc2)o[nH+]1)[N-]c1ccc(Oc2ccccc2)cc1 (optimized conformer: 92.60651665475544 kcal/mol)

>  <smiles>  (32) 
O=C(Cc1noc(Cc2ccccc2)n1)Nc1ccc(Oc2ccccc2)cc1

>  <score_type>  (32) 
oracle

>  <origin>  (32) 
adg

>  <m_score__min__energy>  (32) 
-10

>  <m_primary>  (32) 
energy

$$$$
32:0
     RDKit          3D

 50 53  0  0  0  0  0  0  0  0999 V2000
   58.8649   30.0232   47.8512 H   0  0  0  0  0  0  0  0  0  0  0  0
   58.6330   29.0440   47.4070 C   0  0  0  0  0  0  0  0  0  0  0  0
   58.6985   28.1328   48.0196 H   0  0  0  0  0  0  0  0  0  0  0  0
   58.2700   28.9610   46.1170 C   0  0  0  0  0  0  0  0  0  0  0  0
   57.9440   27.7950   45.4060 C   0  0  0  0  0  0  0  0  0  0  0  0
   58.1190   26.4940   45.7110 C   0  0  0  0  0  0  0  0  0  0  0  0
   59.1520   26.1166   45.7324 H   0  0  0  0  0  0  0  0  0  0  0  0
   57.0450   25.5350   46.0180 C   0  0  0  0  0  0  0  0  0  0  0  0
   57.2060   24.2010   46.0960 N   0  0  0  0  0  0  0  0  0  0  0  0
   55.9450   23.7440   46.2560 C   0  0  0  0  0  0  0  0  0  0  0  0
   55.6790   22.5210   46.3840 O   0  0  0  0  0  0  0  0  0  0  0  0
   54.9910   24.7000   46.2550 N   0  0  0  0  0  0  0  0  0  0  0  0
   55.7050   25.8260   46.0910 C   0  0  0  0  0  0  0  0  0  0  0  0
   55.1410   27.0920   46.0010 O   0  0  0  0  0  0  0  0  0  0  0  0
   57.3750   28.2150   44.2150 C   0  0  0  0  0  0  0  0  0  0  0  0
   56.9495   27.5728   43.4298 H   0  0  0  0  0  0  0  0  0  0  0  0
   57.4440   29.5920   44.2020 C   0  0  0  0  0  0  0  0  0  0  0  0
   56.9600   30.4560   43.0760 C   0  0  0  0  0  0  0  0  0  0  0  0
   56.4611   31.3467   43.4856 H   0  0  0  0  0  0  0  0  0  0  0  0
   57.8155   30.7665   42.4582 H   0  0  0  0  0  0  0  0  0  0  0  0
   56.2484   29.8886   42.4582 H   0  0  0  0  0  0  0  0  0  0  0  0
   57.9860   30.0470   45.3540 N   0  0  0  0  0  0  0  0  0  0  0  0
   58.1840   31.4300   45.7030 C   0  0  0  0  0  0  0  0  0  0  0  0
   57.1990   32.3830   45.4130 C   0  0  0  0  0  0  0  0  0  0  0  0
   56.2680   32.0755   44.9144 H   0  0  0  0  0  0  0  0  0  0  0  0
   57.3960   33.7210   45.7550 C   0  0  0  0  0  0  0  0  0  0  0  0
   56.6196   34.4655   45.5248 H   0  0  0  0  0  0  0  0  0  0  0  0
   58.5760   34.1190   46.3890 C   0  0  0  0  0  0  0  0  0  0  0  0
   58.7223   35.1755   46.6583 H   0  0  0  0  0  0  0  0  0  0  0  0
   59.5780   33.1770   46.6850 C   0  0  0  0  0  0  0  0  0  0  0  0
   60.7910   33.5810   47.3570 N   0  0  0  0  0  0  0  0  0  0  0  0
   61.9800   33.9110   46.5480 C   0  0  0  0  0  0  0  0  0  0  0  0
   62.2789   34.9453   46.7737 H   0  0  0  0  0  0  0  0  0  0  0  0
   61.7005   33.7791   45.4923 H   0  0  0  0  0  0  0  0  0  0  0  0
   63.1840   32.9840   46.8190 C   0  0  0  0  0  0  0  0  0  0  0  0
   63.8021   32.9449   45.9099 H   0  0  0  0  0  0  0  0  0  0  0  0
   62.7738   32.0012   47.0944 H   0  0  0  0  0  0  0  0  0  0  0  0
   64.0360   33.4210   47.9410 N   0  0  0  0  0  0  0  0  0  0  0  0
   64.8730   32.7930   47.9790 H   0  0  0  0  0  0  0  0  0  0  0  0
   63.4020   33.4000   49.2700 C   0  0  0  0  0  0  0  0  0  0  0  0
   64.1297   33.7681   50.0082 H   0  0  0  0  0  0  0  0  0  0  0  0
   63.0967   32.3614   49.4652 H   0  0  0  0  0  0  0  0  0  0  0  0
   62.1340   34.2680   49.3620 C   0  0  0  0  0  0  0  0  0  0  0  0
   62.3070   35.1872   48.7831 H   0  0  0  0  0  0  0  0  0  0  0  0
   61.9644   34.4519   50.4332 H   0  0  0  0  0  0  0  0  0  0  0  0
   60.8460   33.6010   48.8290 C   0  0  0  0  0  0  0  0  0  0  0  0
   59.9768   34.1590   49.2073 H   0  0  0  0  0  0  0  0  0  0  0  0
   60.8393   32.5581   49.1788 H   0  0  0  0  0  0  0  0  0  0  0  0
   59.3700   31.8300   46.3380 C   0  0  0  0  0  0  0  0  0  0  0  0
   60.1443   31.0828   46.5665 H   0  0  0  0  0  0  0  0  0  0  0  0
  1  2  1  0
  2  3  1  0
  2  4  2  0
  4  5  1  0
  5  6  2  0
  6  7  1  0
  6  8  1  0
  8  9  1  0
  9 10  1  0
 10 11  2  0
 10 12  1  0
 12 13  1  0
 13 14  1  0
  5 15  1  0
 15 16  1  0
 15 17  2  0
 17 18  1  0
 18 19  1  0
 18 20  1  0
 18 21  1  0
 17 22  1  0
 22 23  1  0
 23 24  2  0
 24 25  1  0
 24 26  1  0
 26 27  1  0
 26 28  2  0
 28 29  1  0
 28 30  1  0
 30 31  1  0
 31 32  1  0
 32 33  1  0
 32 34  1  0
 32 35  1  0
 35 36  1  0
 35 37  1  0
 35 38  1  0
 38 39  1  0
 38 40  1  0
 40 41  1  0
 40 42  1  0
 40 43  1  0
 43 44  1  0
 43 45  1  0
 43 46  1  0
 46 47  1  0
 46 48  1  0
 30 49  2  0
 49 50  1  0
 22  4  1  0
 49 23  1  0
 13  8  2  0
 46 31  1  0
M  CHG  3   9  -1  12  -1  14  -1
M  END
>  <UniqueID>  (33) 
30

>  <SMILES>  (33) 
C=c1/c(=C\c2[n-]c(=O)[n-]c2[O-])cc(C)n1-c1cccc(N2CCCNCC2)c1

>  <Energy>  (33) 
140.1914316703747

>  <Genealogy>  (33) 
C=c1c(=Cc2[n-]c(=O)[n-]c2[O-])cc(C)n1-c1cccc(N2CCCNCC2)c1 (protonated)
C=c1/c(=C\c2[n-]c(=O)[n-]c2[O-])cc(C)n1-c1cccc(N2CCCNCC2)c1 (cis-trans isomerization)
C=c1/c(=C\c2[n-]c(=O)[n-]c2[O-])cc(C)n1-c1cccc(N2CCCNCC2)c1 (3D coordinates assigned)
C=c1/c(=C\c2[n-]c(=O)[n-]c2[O-])cc(C)n1-c1cccc(N2CCCNCC2)c1 (nonaromatic ring conformer: 140.1914316703747 kcal/mol)

>  <smiles>  (33) 
C=c1c(=Cc2[nH]c(=O)[nH]c2O)cc(C)n1-c1cccc(N2CCCNCC2)c1

>  <score_type>  (33) 
oracle

>  <origin>  (33) 
adg

>  <m_score__min__energy>  (33) 
-15.06

>  <m_primary>  (33) 
energy

$$$$
33:0
     RDKit          3D

 34 35  0  0  0  0  0  0  0  0999 V2000
   59.9040   28.4330   44.6530 O   0  0  0  0  0  0  0  0  0  0  0  0
   58.9770   29.2380   44.9450 C   0  0  0  0  0  0  0  0  0  0  0  0
   58.0850   28.9430   46.1110 C   0  0  0  0  0  0  0  0  0  0  0  0
   58.3240   27.5320   46.6620 C   0  0  0  0  0  0  0  0  0  0  0  0
   57.1470   26.6360   46.4180 C   0  0  0  0  0  0  0  0  0  0  0  0
   57.0900   25.2850   46.6760 C   0  0  0  0  0  0  0  0  0  0  0  0
   55.8550   24.8370   46.3930 N   0  0  0  0  0  0  0  0  0  0  0  0
   55.2060   25.9440   45.9780 C   0  0  0  0  0  0  0  0  0  0  0  0
   54.0000   25.9300   45.6210 O   0  0  0  0  0  0  0  0  0  0  0  0
   55.9510   27.0680   45.9810 N   0  0  0  0  0  0  0  0  0  0  0  0
   58.8480   30.4960   44.2650 N   0  0  0  0  0  0  0  0  0  0  0  0
   57.7540   31.1190   43.9280 C   0  0  0  0  0  0  0  0  0  0  0  0
   57.7930   32.6190   43.8460 C   0  0  0  0  0  0  0  0  0  0  0  0
   58.2320   33.2010   45.1660 C   0  0  0  0  0  0  0  0  0  0  0  0
   57.7550   32.6520   46.3660 C   0  0  0  0  0  0  0  0  0  0  0  0
   58.1900   33.1610   47.5910 C   0  0  0  0  0  0  0  0  0  0  0  0
   59.1100   34.2100   47.6100 C   0  0  0  0  0  0  0  0  0  0  0  0
   59.5530   34.7230   48.8240 O   0  0  0  0  0  0  0  0  0  0  0  0
   59.5750   34.7260   46.4400 N   0  0  0  0  0  0  0  0  0  0  0  0
   59.1690   34.2520   45.2310 C   0  0  0  0  0  0  0  0  0  0  0  0
   59.6400   34.7620   44.1800 O   0  0  0  0  0  0  0  0  0  0  0  0
   56.4530   30.4290   43.7600 C   0  0  0  0  0  0  0  0  0  0  0  0
   56.0590   30.1000   42.6110 O   0  0  0  0  0  0  0  0  0  0  0  0
   55.6220   30.2060   44.8510 O   0  0  0  0  0  0  0  0  0  0  0  0
   58.2841   29.6755   46.9071 H   0  0  0  0  0  0  0  0  0  0  0  0
   57.0410   29.0070   45.7703 H   0  0  0  0  0  0  0  0  0  0  0  0
   59.2082   27.1016   46.1691 H   0  0  0  0  0  0  0  0  0  0  0  0
   58.4776   27.6090   47.7485 H   0  0  0  0  0  0  0  0  0  0  0  0
   57.9213   24.6711   47.0530 H   0  0  0  0  0  0  0  0  0  0  0  0
   58.5021   32.9218   43.0615 H   0  0  0  0  0  0  0  0  0  0  0  0
   56.7863   32.9918   43.6062 H   0  0  0  0  0  0  0  0  0  0  0  0
   57.0370   31.8190   46.3414 H   0  0  0  0  0  0  0  0  0  0  0  0
   57.8107   32.7387   48.5333 H   0  0  0  0  0  0  0  0  0  0  0  0
   59.2860   35.6540   49.1240 H   0  0  0  0  0  0  0  0  0  0  0  0
  1  2  2  0
  2  3  1  0
  3  4  1  0
  4  5  1  0
  5  6  2  0
  6  7  1  0
  7  8  1  0
  8  9  2  0
  8 10  1  0
  2 11  1  0
 11 12  2  3
 12 13  1  0
 13 14  1  0
 14 15  2  0
 15 16  1  0
 16 17  2  0
 17 18  1  0
 17 19  1  0
 19 20  1  0
 20 21  2  0
 12 22  1  0
 22 23  2  0
 22 24  1  0
 10  5  1  0
 20 14  1  0
  3 25  1  0
  3 26  1  0
  4 27  1  0
  4 28  1  0
  6 29  1  0
 13 30  1  0
 13 31  1  0
 15 32  1  0
 16 33  1  0
 18 34  1  0
M  CHG  4   7  -1  10  -1  19  -1  24  -1
M  END
>  <UniqueID>  (34) 
31

>  <SMILES>  (34) 
O=C(CCc1c[n-]c(=O)[n-]1)N=C(Cc1ccc(O)[n-]c1=O)C(=O)[O-]

>  <Energy>  (34) 
65.29487363022838

>  <Genealogy>  (34) 
O=C(CCc1c[n-]c(=O)[n-]1)N=C(Cc1ccc(O)[n-]c1=O)C(=O)[O-] (protonated)
O=C(CCc1c[n-]c(=O)[n-]1)N=C(Cc1ccc(O)[n-]c1=O)C(=O)[O-] (3D coordinates assigned)
O=C(CCc1c[n-]c(=O)[n-]1)N=C(Cc1ccc(O)[n-]c1=O)C(=O)[O-] (optimized conformer: 65.29487363022838 kcal/mol)

>  <smiles>  (34) 
O=C(CCc1c[nH]c(=O)[nH]1)N=C(Cc1ccc(O)[nH]c1=O)C(=O)O

>  <score_type>  (34) 
oracle

>  <origin>  (34) 
adg

>  <m_score__min__energy>  (34) 
-14.6

>  <m_primary>  (34) 
energy

$$$$
34:0
     RDKit          3D

 54 57  0  0  0  0  0  0  0  0999 V2000
   59.7450   27.8240   47.4120 O   0  0  0  0  0  0  0  0  0  0  0  0
   58.9710   28.4370   46.6260 C   0  0  0  0  0  0  0  0  0  0  0  0
   57.6770   27.9230   46.3820 C   0  0  0  0  0  0  0  0  0  0  0  0
   57.1980   26.6440   47.0400 C   0  0  0  0  0  0  0  0  0  0  0  0
   56.9540   25.5600   46.0170 C   0  0  0  0  0  0  0  0  0  0  0  0
   58.0250   24.7690   45.5660 C   0  0  0  0  0  0  0  0  0  0  0  0
   57.8120   23.7480   44.6360 C   0  0  0  0  0  0  0  0  0  0  0  0
   56.5290   23.5050   44.1450 C   0  0  0  0  0  0  0  0  0  0  0  0
   56.3180   22.4890   43.2210 O   0  0  0  0  0  0  0  0  0  0  0  0
   55.4540   24.2850   44.5810 C   0  0  0  0  0  0  0  0  0  0  0  0
   55.6580   25.3130   45.5130 C   0  0  0  0  0  0  0  0  0  0  0  0
   54.5790   26.0870   45.9360 O   0  0  0  0  0  0  0  0  0  0  0  0
   56.8350   28.6190   45.4970 C   0  0  0  0  0  0  0  0  0  0  0  0
   55.5430   28.1740   45.2430 O   0  0  0  0  0  0  0  0  0  0  0  0
   57.2920   29.7670   44.8600 C   0  0  0  0  0  0  0  0  0  0  0  0
   58.5760   30.2350   45.1200 C   0  0  0  0  0  0  0  0  0  0  0  0
   59.3890   29.5970   46.0160 N   0  0  0  0  0  0  0  0  0  0  0  0
   60.7330   30.1450   46.2790 C   0  0  0  0  0  0  0  0  0  0  0  0
   60.7690   30.9390   47.5680 C   0  0  0  0  0  0  0  0  0  0  0  0
   61.5480   30.4670   48.6430 C   0  0  0  0  0  0  0  0  0  0  0  0
   61.5750   31.1540   49.8580 C   0  0  0  0  0  0  0  0  0  0  0  0
   60.8310   32.3230   50.0180 C   0  0  0  0  0  0  0  0  0  0  0  0
   60.0590   32.8100   48.9610 C   0  0  0  0  0  0  0  0  0  0  0  0
   60.0220   32.1300   47.7340 C   0  0  0  0  0  0  0  0  0  0  0  0
   59.2380   32.6750   46.6620 N   0  0  0  0  0  0  0  0  0  0  0  0
   59.8910   33.4700   45.6160 C   0  0  0  0  0  0  0  0  0  0  0  0
   59.1730   34.8140   45.4670 C   0  0  0  0  0  0  0  0  0  0  0  0
   57.6500   34.6610   45.2500 C   0  0  0  0  0  0  0  0  0  0  0  0
   57.1200   33.2410   45.5120 C   0  0  0  0  0  0  0  0  0  0  0  0
   57.7720   32.6160   46.7490 C   0  0  0  0  0  0  0  0  0  0  0  0
   57.9621   26.2993   47.7523 H   0  0  0  0  0  0  0  0  0  0  0  0
   56.2503   26.8532   47.5577 H   0  0  0  0  0  0  0  0  0  0  0  0
   59.0394   24.9553   45.9484 H   0  0  0  0  0  0  0  0  0  0  0  0
   58.6574   23.1349   44.2905 H   0  0  0  0  0  0  0  0  0  0  0  0
   54.4436   24.0917   44.1914 H   0  0  0  0  0  0  0  0  0  0  0  0
   54.6420   27.0960   46.0000 H   0  0  0  0  0  0  0  0  0  0  0  0
   56.6412   30.3030   44.1535 H   0  0  0  0  0  0  0  0  0  0  0  0
   58.9427   31.1309   44.5976 H   0  0  0  0  0  0  0  0  0  0  0  0
   61.4495   29.3136   46.3518 H   0  0  0  0  0  0  0  0  0  0  0  0
   60.9972   30.8201   45.4517 H   0  0  0  0  0  0  0  0  0  0  0  0
   62.1408   29.5481   48.5237 H   0  0  0  0  0  0  0  0  0  0  0  0
   62.1842   30.7727   50.6908 H   0  0  0  0  0  0  0  0  0  0  0  0
   60.8524   32.8614   50.9770 H   0  0  0  0  0  0  0  0  0  0  0  0
   59.4756   33.7334   49.0912 H   0  0  0  0  0  0  0  0  0  0  0  0
   60.9414   33.6450   45.8916 H   0  0  0  0  0  0  0  0  0  0  0  0
   59.8459   32.9246   44.6618 H   0  0  0  0  0  0  0  0  0  0  0  0
   59.3400   35.4044   46.3800 H   0  0  0  0  0  0  0  0  0  0  0  0
   59.5851   35.3118   44.5769 H   0  0  0  0  0  0  0  0  0  0  0  0
   57.1325   35.3542   45.9295 H   0  0  0  0  0  0  0  0  0  0  0  0
   57.4558   34.8825   44.1902 H   0  0  0  0  0  0  0  0  0  0  0  0
   56.0321   33.2889   45.6674 H   0  0  0  0  0  0  0  0  0  0  0  0
   57.3648   32.6158   44.6407 H   0  0  0  0  0  0  0  0  0  0  0  0
   57.4430   33.1642   47.6441 H   0  0  0  0  0  0  0  0  0  0  0  0
   57.4680   31.5605   46.8082 H   0  0  0  0  0  0  0  0  0  0  0  0
  1  2  2  0
  2  3  1  0
  3  4  1  0
  4  5  1  0
  5  6  2  0
  6  7  1  0
  7  8  2  0
  8  9  1  0
  8 10  1  0
 10 11  2  0
 11 12  1  0
  3 13  2  0
 13 14  1  0
 13 15  1  0
 15 16  2  0
 16 17  1  0
 17 18  1  0
 18 19  1  0
 19 20  2  0
 20 21  1  0
 21 22  2  0
 22 23  1  0
 23 24  2  0
 24 25  1  0
 25 26  1  0
 26 27  1  0
 27 28  1  0
 28 29  1  0
 29 30  1  0
 17  2  1  0
 24 19  1  0
 30 25  1  0
 11  5  1  0
  4 31  1  0
  4 32  1  0
  6 33  1  0
  7 34  1  0
 10 35  1  0
 12 36  1  0
 15 37  1  0
 16 38  1  0
 18 39  1  0
 18 40  1  0
 20 41  1  0
 21 42  1  0
 22 43  1  0
 23 44  1  0
 26 45  1  0
 26 46  1  0
 27 47  1  0
 27 48  1  0
 28 49  1  0
 28 50  1  0
 29 51  1  0
 29 52  1  0
 30 53  1  0
 30 54  1  0
M  CHG  2   9  -1  14  -1
M  END
>  <UniqueID>  (35) 
32

>  <SMILES>  (35) 
O=c1c(Cc2ccc([O-])cc2O)c([O-])ccn1Cc1ccccc1N1CCCCC1

>  <Energy>  (35) 
66.1859495520913

>  <Genealogy>  (35) 
O=c1c(Cc2ccc([O-])cc2O)c([O-])ccn1Cc1ccccc1N1CCCCC1 (protonated)
O=c1c(Cc2ccc([O-])cc2O)c([O-])ccn1Cc1ccccc1N1CCCCC1 (3D coordinates assigned)
O=c1c(Cc2ccc([O-])cc2O)c([O-])ccn1Cc1ccccc1N1CCCCC1 (nonaromatic ring conformer: 66.1859495520913 kcal/mol)

>  <smiles>  (35) 
O=c1c(Cc2ccc(O)cc2O)c(O)ccn1Cc1ccccc1N1CCCCC1

>  <score_type>  (35) 
oracle

>  <origin>  (35) 
adg

>  <m_score__min__energy>  (35) 
-14.199999999999999

>  <m_primary>  (35) 
energy

$$$$
35:0
     RDKit          3D

 54 57  0  0  0  0  0  0  0  0999 V2000
   60.2369   30.2049   44.4113 H   0  0  0  0  0  0  0  0  0  0  0  0
   59.6140   29.3390   44.6800 C   0  0  0  0  0  0  0  0  0  0  0  0
   59.2968   28.6275   43.9033 H   0  0  0  0  0  0  0  0  0  0  0  0
   59.2400   29.1500   45.9590 C   0  0  0  0  0  0  0  0  0  0  0  0
   58.4500   28.0900   46.4290 C   0  0  0  0  0  0  0  0  0  0  0  0
   57.9420   27.0690   45.7020 C   0  0  0  0  0  0  0  0  0  0  0  0
   58.0592   27.1266   44.6098 H   0  0  0  0  0  0  0  0  0  0  0  0
   57.2420   25.8800   46.2420 C   0  0  0  0  0  0  0  0  0  0  0  0
   57.8200   24.7460   46.6780 N   0  0  0  0  0  0  0  0  0  0  0  0
   56.7730   23.9720   47.0340 C   0  0  0  0  0  0  0  0  0  0  0  0
   56.9150   22.8100   47.4980 O   0  0  0  0  0  0  0  0  0  0  0  0
   55.5630   24.5370   46.8490 N   0  0  0  0  0  0  0  0  0  0  0  0
   55.8780   25.7410   46.3430 C   0  0  0  0  0  0  0  0  0  0  0  0
   54.9340   26.6960   45.9890 O   0  0  0  0  0  0  0  0  0  0  0  0
   58.2810   28.3150   47.7850 C   0  0  0  0  0  0  0  0  0  0  0  0
   57.7115   27.6847   48.4838 H   0  0  0  0  0  0  0  0  0  0  0  0
   58.9590   29.4760   48.0980 C   0  0  0  0  0  0  0  0  0  0  0  0
   58.9930   30.0460   49.4670 C   0  0  0  0  0  0  0  0  0  0  0  0
   58.1460   29.7150   50.3370 O   0  0  0  0  0  0  0  0  0  0  0  0
   60.0010   31.0000   49.8160 N   0  0  0  0  0  0  0  0  0  0  0  0
   59.6630   32.4260   49.8070 C   0  0  0  0  0  0  0  0  0  0  0  0
   59.4422   32.7342   48.7744 H   0  0  0  0  0  0  0  0  0  0  0  0
   58.7885   32.5769   50.4569 H   0  0  0  0  0  0  0  0  0  0  0  0
   60.8150   33.2810   50.3460 C   0  0  0  0  0  0  0  0  0  0  0  0
   60.6349   34.3355   50.0898 H   0  0  0  0  0  0  0  0  0  0  0  0
   60.8680   33.1622   51.4383 H   0  0  0  0  0  0  0  0  0  0  0  0
   62.0920   32.8490   49.7550 N   0  0  0  0  0  0  0  0  0  0  0  0
   63.0680   33.8310   49.3440 C   0  0  0  0  0  0  0  0  0  0  0  0
   62.9450   35.0350   49.7030 O   0  0  0  0  0  0  0  0  0  0  0  0
   64.2390   33.4540   48.4870 C   0  0  0  0  0  0  0  0  0  0  0  0
   65.0897   33.1801   49.1284 H   0  0  0  0  0  0  0  0  0  0  0  0
   63.9680   32.5977   47.8519 H   0  0  0  0  0  0  0  0  0  0  0  0
   64.5185   34.3076   47.8519 H   0  0  0  0  0  0  0  0  0  0  0  0
   62.4190   31.4140   49.6760 C   0  0  0  0  0  0  0  0  0  0  0  0
   62.5556   31.1384   48.6199 H   0  0  0  0  0  0  0  0  0  0  0  0
   63.3392   31.2427   50.2539 H   0  0  0  0  0  0  0  0  0  0  0  0
   61.3120   30.5390   50.2770 C   0  0  0  0  0  0  0  0  0  0  0  0
   61.4620   29.4955   49.9628 H   0  0  0  0  0  0  0  0  0  0  0  0
   61.3532   30.6089   51.3740 H   0  0  0  0  0  0  0  0  0  0  0  0
   59.5600   29.9850   46.9890 N   0  0  0  0  0  0  0  0  0  0  0  0
   60.3790   31.2090   46.9240 C   0  0  0  0  0  0  0  0  0  0  0  0
   60.7670   31.4343   47.9284 H   0  0  0  0  0  0  0  0  0  0  0  0
   61.2044   31.0373   46.2174 H   0  0  0  0  0  0  0  0  0  0  0  0
   59.5690   32.3860   46.4340 C   0  0  0  0  0  0  0  0  0  0  0  0
   58.2410   32.2130   46.0060 C   0  0  0  0  0  0  0  0  0  0  0  0
   57.7758   31.2174   46.0542 H   0  0  0  0  0  0  0  0  0  0  0  0
   57.5080   33.3010   45.5190 C   0  0  0  0  0  0  0  0  0  0  0  0
   56.4674   33.1597   45.1915 H   0  0  0  0  0  0  0  0  0  0  0  0
   58.0960   34.5670   45.4480 C   0  0  0  0  0  0  0  0  0  0  0  0
   57.5168   35.4225   45.0704 H   0  0  0  0  0  0  0  0  0  0  0  0
   59.4200   34.7450   45.8570 C   0  0  0  0  0  0  0  0  0  0  0  0
   59.8835   35.7408   45.7981 H   0  0  0  0  0  0  0  0  0  0  0  0
   60.1570   33.6600   46.3410 C   0  0  0  0  0  0  0  0  0  0  0  0
   61.2027   33.8037   46.6508 H   0  0  0  0  0  0  0  0  0  0  0  0
  1  2  1  0
  2  3  1  0
  2  4  2  0
  4  5  1  0
  5  6  2  0
  6  7  1  0
  6  8  1  0
  8  9  1  0
  9 10  1  0
 10 11  2  0
 10 12  1  0
 12 13  1  0
 13 14  1  0
  5 15  1  0
 15 16  1  0
 15 17  2  0
 17 18  1  0
 18 19  2  0
 18 20  1  0
 20 21  1  0
 21 22  1  0
 21 23  1  0
 21 24  1  0
 24 25  1  0
 24 26  1  0
 24 27  1  0
 27 28  1  0
 28 29  2  0
 28 30  1  0
 30 31  1  0
 30 32  1  0
 30 33  1  0
 27 34  1  0
 34 35  1  0
 34 36  1  0
 34 37  1  0
 37 38  1  0
 37 39  1  0
 17 40  1  0
 40 41  1  0
 41 42  1  0
 41 43  1  0
 41 44  1  0
 44 45  2  0
 45 46  1  0
 45 47  1  0
 47 48  1  0
 47 49  2  0
 49 50  1  0
 49 51  1  0
 51 52  1  0
 51 53  2  0
 53 54  1  0
 40  4  1  0
 53 44  1  0
 13  8  2  0
 37 20  1  0
M  CHG  3   9  -1  12  -1  14  -1
M  END
>  <UniqueID>  (36) 
33

>  <SMILES>  (36) 
C=c1/c(=C/c2[n-]c(=O)[n-]c2[O-])cc(C(=O)N2CCN(C(C)=O)CC2)n1Cc1ccccc1

>  <Energy>  (36) 
125.5558390773622

>  <Genealogy>  (36) 
C=c1c(=Cc2[n-]c(=O)[n-]c2[O-])cc(C(=O)N2CCN(C(C)=O)CC2)n1Cc1ccccc1 (protonated)
C=c1/c(=C/c2[n-]c(=O)[n-]c2[O-])cc(C(=O)N2CCN(C(C)=O)CC2)n1Cc1ccccc1 (cis-trans isomerization)
C=c1/c(=C/c2[n-]c(=O)[n-]c2[O-])cc(C(=O)N2CCN(C(C)=O)CC2)n1Cc1ccccc1 (3D coordinates assigned)
C=c1/c(=C/c2[n-]c(=O)[n-]c2[O-])cc(C(=O)N2CCN(C(C)=O)CC2)n1Cc1ccccc1 (nonaromatic ring conformer: 125.5558390773622 kcal/mol)

>  <smiles>  (36) 
C=c1c(=Cc2[nH]c(=O)[nH]c2O)cc(C(=O)N2CCN(C(C)=O)CC2)n1Cc1ccccc1

>  <score_type>  (36) 
oracle

>  <origin>  (36) 
adg

>  <m_score__min__energy>  (36) 
-16.27

>  <m_primary>  (36) 
energy

$$$$
36:0
     RDKit          3D

 51 54  0  0  0  0  0  0  0  0999 V2000
   55.1230   30.6860   52.1220 C   0  0  0  0  0  0  0  0  0  0  0  0
   56.3690   30.1390   51.7040 O   0  0  0  0  0  0  0  0  0  0  0  0
   57.5450   30.8850   51.5320 C   0  0  0  0  0  0  0  0  0  0  0  0
   57.7050   32.1760   52.0700 C   0  0  0  0  0  0  0  0  0  0  0  0
   58.8970   32.8790   51.8740 C   0  0  0  0  0  0  0  0  0  0  0  0
   59.9530   32.3000   51.1540 C   0  0  0  0  0  0  0  0  0  0  0  0
   61.1990   33.0650   50.9440 C   0  0  0  0  0  0  0  0  0  0  0  0
   62.1570   33.1430   51.8400 O   0  0  0  0  0  0  0  0  0  0  0  0
   63.0870   33.9330   51.3510 C   0  0  0  0  0  0  0  0  0  0  0  0
   64.3610   34.2540   52.0570 C   0  0  0  0  0  0  0  0  0  0  0  0
   62.7740   34.3860   50.1230 N   0  0  0  0  0  0  0  0  0  0  0  0
   61.5790   33.8320   49.8460 C   0  0  0  0  0  0  0  0  0  0  0  0
   60.9070   33.9560   48.5350 C   0  0  0  0  0  0  0  0  0  0  0  0
   59.5350   34.2390   48.4540 C   0  0  0  0  0  0  0  0  0  0  0  0
   58.9030   34.3240   47.2110 C   0  0  0  0  0  0  0  0  0  0  0  0
   59.6300   34.1080   46.0300 C   0  0  0  0  0  0  0  0  0  0  0  0
   58.9350   34.1130   44.6950 C   0  0  0  0  0  0  0  0  0  0  0  0
   57.1570   33.7210   44.8750 S   0  0  0  0  0  0  0  0  0  0  0  0
   57.3970   31.9480   44.9470 C   0  0  0  0  0  0  0  0  0  0  0  0
   58.6330   31.4450   45.2060 N   0  0  0  0  0  0  0  0  0  0  0  0
   58.8390   30.1050   45.3080 C   0  0  0  0  0  0  0  0  0  0  0  0
   60.1980   29.5880   45.6560 C   0  0  0  0  0  0  0  0  0  0  0  0
   57.7590   29.2290   45.1550 C   0  0  0  0  0  0  0  0  0  0  0  0
   56.5000   29.7640   44.8790 C   0  0  0  0  0  0  0  0  0  0  0  0
   55.5090   29.0040   44.7260 O   0  0  0  0  0  0  0  0  0  0  0  0
   56.3420   31.1100   44.7830 N   0  0  0  0  0  0  0  0  0  0  0  0
   61.0000   33.8130   46.1100 C   0  0  0  0  0  0  0  0  0  0  0  0
   61.6330   33.7330   47.3540 C   0  0  0  0  0  0  0  0  0  0  0  0
   59.7820   31.0210   50.5980 C   0  0  0  0  0  0  0  0  0  0  0  0
   58.5900   30.3200   50.7940 C   0  0  0  0  0  0  0  0  0  0  0  0
   55.0809   30.7045   53.2210 H   0  0  0  0  0  0  0  0  0  0  0  0
   55.0237   31.7105   51.7340 H   0  0  0  0  0  0  0  0  0  0  0  0
   54.3016   30.0657   51.7340 H   0  0  0  0  0  0  0  0  0  0  0  0
   56.8881   32.6336   52.6473 H   0  0  0  0  0  0  0  0  0  0  0  0
   59.0080   33.8926   52.2868 H   0  0  0  0  0  0  0  0  0  0  0  0
   64.1982   34.2130   53.1441 H   0  0  0  0  0  0  0  0  0  0  0  0
   65.1317   33.5220   51.7738 H   0  0  0  0  0  0  0  0  0  0  0  0
   64.6928   35.2638   51.7738 H   0  0  0  0  0  0  0  0  0  0  0  0
   63.3580   34.9890   49.5020 H   0  0  0  0  0  0  0  0  0  0  0  0
   58.9536   34.3948   49.3747 H   0  0  0  0  0  0  0  0  0  0  0  0
   57.8303   34.5614   47.1576 H   0  0  0  0  0  0  0  0  0  0  0  0
   59.0388   35.1091   44.2399 H   0  0  0  0  0  0  0  0  0  0  0  0
   59.3986   33.3458   44.0575 H   0  0  0  0  0  0  0  0  0  0  0  0
   60.3057   29.5470   46.7499 H   0  0  0  0  0  0  0  0  0  0  0  0
   60.3248   28.5788   45.2370 H   0  0  0  0  0  0  0  0  0  0  0  0
   60.9635   30.2577   45.2370 H   0  0  0  0  0  0  0  0  0  0  0  0
   57.8992   28.1421   45.2502 H   0  0  0  0  0  0  0  0  0  0  0  0
   61.5783   33.6440   45.1896 H   0  0  0  0  0  0  0  0  0  0  0  0
   62.7054   33.4941   47.4078 H   0  0  0  0  0  0  0  0  0  0  0  0
   60.5912   30.5694   50.0053 H   0  0  0  0  0  0  0  0  0  0  0  0
   58.4721   29.3144   50.3640 H   0  0  0  0  0  0  0  0  0  0  0  0
  1  2  1  0
  2  3  1  0
  3  4  2  0
  4  5  1  0
  5  6  2  0
  6  7  1  0
  7  8  1  0
  8  9  1  0
  9 10  1  0
  9 11  2  0
 11 12  1  0
 12 13  1  0
 13 14  2  0
 14 15  1  0
 15 16  2  0
 16 17  1  0
 17 18  1  0
 18 19  1  0
 19 20  2  0
 20 21  1  0
 21 22  1  0
 21 23  2  0
 23 24  1  0
 24 25  2  0
 24 26  1  0
 16 27  1  0
 27 28  2  0
  6 29  1  0
 29 30  2  0
 30  3  1  0
 12  7  2  0
 28 13  1  0
 26 19  1  0
  1 31  1  0
  1 32  1  0
  1 33  1  0
  4 34  1  0
  5 35  1  0
 10 36  1  0
 10 37  1  0
 10 38  1  0
 11 39  1  0
 14 40  1  0
 15 41  1  0
 17 42  1  0
 17 43  1  0
 22 44  1  0
 22 45  1  0
 22 46  1  0
 23 47  1  0
 27 48  1  0
 28 49  1  0
 29 50  1  0
 30 51  1  0
M  CHG  2  11   1  26  -1
M  END
>  <UniqueID>  (37) 
34

>  <SMILES>  (37) 
COc1ccc(-c2oc(C)[nH+]c2-c2ccc(CSc3nc(C)cc(=O)[n-]3)cc2)cc1

>  <Energy>  (37) 
85.65186588776469

>  <Genealogy>  (37) 
COc1ccc(-c2oc(C)[nH+]c2-c2ccc(CSc3nc(C)cc(=O)[n-]3)cc2)cc1 (protonated)
COc1ccc(-c2oc(C)[nH+]c2-c2ccc(CSc3nc(C)cc(=O)[n-]3)cc2)cc1 (3D coordinates assigned)
COc1ccc(-c2oc(C)[nH+]c2-c2ccc(CSc3nc(C)cc(=O)[n-]3)cc2)cc1 (optimized conformer: 85.65186588776469 kcal/mol)

>  <smiles>  (37) 
COc1ccc(-c2oc(C)nc2-c2ccc(CSc3nc(C)cc(=O)[nH]3)cc2)cc1

>  <score_type>  (37) 
oracle

>  <origin>  (37) 
adg

>  <m_score__min__energy>  (37) 
-9.2300000000000004

>  <m_primary>  (37) 
energy

$$$$
37:0
     RDKit          3D

 46 48  0  0  0  0  0  0  0  0999 V2000
   55.6800   28.6580   45.2320 N   0  0  0  0  0  0  0  0  0  0  0  0
   56.9200   29.2280   45.6450 C   0  0  0  0  0  0  0  0  0  0  0  0
   57.1500   30.4410   45.3980 O   0  0  0  0  0  0  0  0  0  0  0  0
   57.9290   28.4030   46.3590 C   0  0  0  0  0  0  0  0  0  0  0  0
   58.0670   27.0290   46.0480 C   0  0  0  0  0  0  0  0  0  0  0  0
   57.2370   26.4290   45.0400 N   0  0  0  0  0  0  0  0  0  0  0  0
   56.4200   25.2620   45.2090 C   0  0  0  0  0  0  0  0  0  0  0  0
   55.2840   25.3920   45.7360 O   0  0  0  0  0  0  0  0  0  0  0  0
   56.8540   23.9300   44.7230 C   0  0  0  0  0  0  0  0  0  0  0  0
   58.0750   23.3810   45.1580 C   0  0  0  0  0  0  0  0  0  0  0  0
   58.4930   22.1290   44.6980 C   0  0  0  0  0  0  0  0  0  0  0  0
   57.7010   21.4160   43.7950 C   0  0  0  0  0  0  0  0  0  0  0  0
   56.4930   21.9550   43.3470 C   0  0  0  0  0  0  0  0  0  0  0  0
   56.0690   23.2070   43.8030 C   0  0  0  0  0  0  0  0  0  0  0  0
   54.8820   23.7000   43.3650 F   0  0  0  0  0  0  0  0  0  0  0  0
   59.0170   26.2520   46.7320 C   0  0  0  0  0  0  0  0  0  0  0  0
   59.8420   26.8280   47.6920 C   0  0  0  0  0  0  0  0  0  0  0  0
   59.7340   28.1830   47.9870 C   0  0  0  0  0  0  0  0  0  0  0  0
   58.7950   28.9880   47.3190 C   0  0  0  0  0  0  0  0  0  0  0  0
   58.6740   30.3780   47.6710 N   0  0  0  0  0  0  0  0  0  0  0  0
   58.7840   30.8570   49.0230 C   0  0  0  0  0  0  0  0  0  0  0  0
   58.7230   30.0550   49.9950 O   0  0  0  0  0  0  0  0  0  0  0  0
   58.9760   32.3210   49.2870 C   0  0  0  0  0  0  0  0  0  0  0  0
   60.5780   32.9110   48.6330 S   0  0  0  0  0  0  0  0  0  0  0  0
   59.8750   33.7180   47.1960 C   0  0  0  0  0  0  0  0  0  0  0  0
   59.0110   33.0420   46.3950 N   0  0  0  0  0  0  0  0  0  0  0  0
   58.4650   33.6290   45.2970 C   0  0  0  0  0  0  0  0  0  0  0  0
   57.5470   32.8990   44.4840 N   0  0  0  0  0  0  0  0  0  0  0  0
   58.8030   34.9470   44.9790 C   0  0  0  0  0  0  0  0  0  0  0  0
   59.6950   35.6250   45.8130 C   0  0  0  0  0  0  0  0  0  0  0  0
   60.0190   36.8150   45.5590 O   0  0  0  0  0  0  0  0  0  0  0  0
   60.2130   35.0010   46.9020 N   0  0  0  0  0  0  0  0  0  0  0  0
   55.5220   27.6270   45.2760 H   0  0  0  0  0  0  0  0  0  0  0  0
   58.7046   23.9412   45.8649 H   0  0  0  0  0  0  0  0  0  0  0  0
   59.4460   21.7051   45.0473 H   0  0  0  0  0  0  0  0  0  0  0  0
   58.0290   20.4292   43.4364 H   0  0  0  0  0  0  0  0  0  0  0  0
   55.8731   21.3928   42.6331 H   0  0  0  0  0  0  0  0  0  0  0  0
   59.1090   25.1793   46.5063 H   0  0  0  0  0  0  0  0  0  0  0  0
   60.5828   26.2097   48.2201 H   0  0  0  0  0  0  0  0  0  0  0  0
   60.3893   28.6286   48.7499 H   0  0  0  0  0  0  0  0  0  0  0  0
   58.6470   31.0820   46.9010 H   0  0  0  0  0  0  0  0  0  0  0  0
   58.1631   32.8818   48.8026 H   0  0  0  0  0  0  0  0  0  0  0  0
   58.9657   32.4813   50.3752 H   0  0  0  0  0  0  0  0  0  0  0  0
   57.0320   33.3790   43.7120 H   0  0  0  0  0  0  0  0  0  0  0  0
   57.3850   31.8790   44.6390 H   0  0  0  0  0  0  0  0  0  0  0  0
   58.3765   35.4391   44.0925 H   0  0  0  0  0  0  0  0  0  0  0  0
  1  2  1  0
  2  3  2  0
  2  4  1  0
  4  5  2  0
  5  6  1  0
  6  7  1  0
  7  8  2  0
  7  9  1  0
  9 10  2  0
 10 11  1  0
 11 12  2  0
 12 13  1  0
 13 14  2  0
 14 15  1  0
  5 16  1  0
 16 17  2  0
 17 18  1  0
 18 19  2  0
 19 20  1  0
 20 21  1  0
 21 22  2  0
 21 23  1  0
 23 24  1  0
 24 25  1  0
 25 26  2  0
 26 27  1  0
 27 28  1  0
 27 29  2  0
 29 30  1  0
 30 31  2  0
 30 32  1  0
 19  4  1  0
 32 25  1  0
 14  9  1  0
  1 33  1  0
 10 34  1  0
 11 35  1  0
 12 36  1  0
 13 37  1  0
 16 38  1  0
 17 39  1  0
 18 40  1  0
 20 41  1  0
 23 42  1  0
 23 43  1  0
 28 44  1  0
 28 45  1  0
 29 46  1  0
M  CHG  3   1  -1   6  -1  32  -1
M  END
>  <UniqueID>  (38) 
35

>  <SMILES>  (38) 
[NH-]C(=O)c1c([N-]C(=O)c2ccccc2F)cccc1NC(=O)CSc1nc(N)cc(=O)[n-]1

>  <Energy>  (38) 
59.36610053922049

>  <Genealogy>  (38) 
[NH-]C(=O)c1c([N-]C(=O)c2ccccc2F)cccc1NC(=O)CSc1nc(N)cc(=O)[n-]1 (protonated)
[NH-]C(=O)c1c([N-]C(=O)c2ccccc2F)cccc1NC(=O)CSc1nc(N)cc(=O)[n-]1 (3D coordinates assigned)
[NH-]C(=O)c1c([N-]C(=O)c2ccccc2F)cccc1NC(=O)CSc1nc(N)cc(=O)[n-]1 (optimized conformer: 59.36610053922049 kcal/mol)

>  <smiles>  (38) 
NC(=O)c1c(NC(=O)CSc2nc(N)cc(=O)[nH]2)cccc1NC(=O)c1ccccc1F

>  <score_type>  (38) 
oracle

>  <origin>  (38) 
adg

>  <m_score__min__energy>  (38) 
-15.34

>  <m_primary>  (38) 
energy

$$$$
38:0
     RDKit          3D

 35 37  0  0  0  0  0  0  0  0999 V2000
   55.6910   28.2420   44.1660 H   0  0  0  0  0  0  0  0  0  0  0  0
   55.4810   29.2400   44.3920 N   0  0  0  0  0  0  0  0  0  0  0  0
   56.2330   30.2100   43.9800 C   0  0  0  0  0  0  0  0  0  0  0  0
   57.0060   30.8810   44.8730 N   0  0  0  0  0  0  0  0  0  0  0  0
   57.8170   31.9050   44.4930 C   0  0  0  0  0  0  0  0  0  0  0  0
   58.6360   32.6030   45.5160 C   0  0  0  0  0  0  0  0  0  0  0  0
   58.9140   33.9810   45.4200 C   0  0  0  0  0  0  0  0  0  0  0  0
   58.5151   34.5602   44.5742 H   0  0  0  0  0  0  0  0  0  0  0  0
   59.6920   34.6180   46.3900 C   0  0  0  0  0  0  0  0  0  0  0  0
   59.9045   35.6934   46.2988 H   0  0  0  0  0  0  0  0  0  0  0  0
   60.2030   33.9000   47.4760 C   0  0  0  0  0  0  0  0  0  0  0  0
   60.9900   34.5740   48.4210 O   0  0  0  0  0  0  0  0  0  0  0  0
   62.2230   34.1280   48.9190 C   0  0  0  0  0  0  0  0  0  0  0  0
   63.1970   33.5450   48.0860 C   0  0  0  0  0  0  0  0  0  0  0  0
   63.0055   33.4416   47.0077 H   0  0  0  0  0  0  0  0  0  0  0  0
   64.4070   33.0970   48.6250 C   0  0  0  0  0  0  0  0  0  0  0  0
   65.1683   32.6491   47.9694 H   0  0  0  0  0  0  0  0  0  0  0  0
   64.6500   33.2180   49.9970 C   0  0  0  0  0  0  0  0  0  0  0  0
   65.6048   32.8715   50.4192 H   0  0  0  0  0  0  0  0  0  0  0  0
   63.6800   33.7790   50.8310 C   0  0  0  0  0  0  0  0  0  0  0  0
   63.8696   33.8693   51.9108 H   0  0  0  0  0  0  0  0  0  0  0  0
   62.4680   34.2260   50.2950 C   0  0  0  0  0  0  0  0  0  0  0  0
   61.7028   34.6569   50.9574 H   0  0  0  0  0  0  0  0  0  0  0  0
   59.9560   32.5200   47.5620 C   0  0  0  0  0  0  0  0  0  0  0  0
   60.3766   31.9403   48.3969 H   0  0  0  0  0  0  0  0  0  0  0  0
   59.1790   31.8790   46.5930 C   0  0  0  0  0  0  0  0  0  0  0  0
   58.9903   30.7983   46.6733 H   0  0  0  0  0  0  0  0  0  0  0  0
   57.8400   32.2850   43.1420 C   0  0  0  0  0  0  0  0  0  0  0  0
   58.4764   33.1170   42.8062 H   0  0  0  0  0  0  0  0  0  0  0  0
   57.0410   31.5890   42.2300 C   0  0  0  0  0  0  0  0  0  0  0  0
   57.0440   31.9550   40.8470 N   0  0  0  0  0  0  0  0  0  0  0  0
   57.7660   32.6100   40.4740 H   0  0  0  0  0  0  0  0  0  0  0  0
   56.3260   31.5760   40.1900 H   0  0  0  0  0  0  0  0  0  0  0  0
   56.2560   30.5630   42.6630 N   0  0  0  0  0  0  0  0  0  0  0  0
   55.6610   30.0490   41.9740 H   0  0  0  0  0  0  0  0  0  0  0  0
  1  2  1  0
  2  3  2  0
  3  4  1  0
  4  5  2  0
  5  6  1  0
  6  7  2  0
  7  8  1  0
  7  9  1  0
  9 10  1  0
  9 11  2  0
 11 12  1  0
 12 13  1  0
 13 14  2  0
 14 15  1  0
 14 16  1  0
 16 17  1  0
 16 18  2  0
 18 19  1  0
 18 20  1  0
 20 21  1  0
 20 22  2  0
 22 23  1  0
 11 24  1  0
 24 25  1  0
 24 26  2  0
 26 27  1  0
  5 28  1  0
 28 29  1  0
 28 30  2  0
 30 31  1  0
 31 32  1  0
 31 33  1  0
 30 34  1  0
 34 35  1  0
 34  3  1  0
 26  6  1  0
 22 13  1  0
M  END
>  <UniqueID>  (39) 
36

>  <SMILES>  (39) 
[H]/N=c1/nc(-c2ccc(Oc3ccccc3)cc2)cc(N)[nH]1

>  <Energy>  (39) 
47.6814193265215

>  <Genealogy>  (39) 
[H]/N=c1/nc(-c2ccc(Oc3ccccc3)cc2)cc(N)[nH]1 (cis-trans isomerization)
[H]/N=c1/nc(-c2ccc(Oc3ccccc3)cc2)cc(N)[nH]1 (3D coordinates assigned)
[H]/N=c1/nc(-c2ccc(Oc3ccccc3)cc2)cc(N)[nH]1 (optimized conformer: 47.6814193265215 kcal/mol)

>  <smiles>  (39) 
N=c1nc(-c2ccc(Oc3ccccc3)cc2)cc(N)[nH]1

>  <score_type>  (39) 
oracle

>  <origin>  (39) 
adg

>  <m_score__min__energy>  (39) 
-7.7599999999999998

>  <m_primary>  (39) 
energy

$$$$
39:0
     RDKit          3D

 51 54  0  0  0  0  0  0  0  0999 V2000
   59.3730   26.9860   46.3420 O   0  0  0  0  0  0  0  0  0  0  0  0
   58.2190   27.4870   46.4290 C   0  0  0  0  0  0  0  0  0  0  0  0
   57.0790   26.6490   46.6600 N   0  0  0  0  0  0  0  0  0  0  0  0
   56.6600   25.5350   45.8580 C   0  0  0  0  0  0  0  0  0  0  0  0
   57.1440   25.4320   44.5500 C   0  0  0  0  0  0  0  0  0  0  0  0
   56.7600   24.3640   43.7350 C   0  0  0  0  0  0  0  0  0  0  0  0
   55.8750   23.3950   44.2150 C   0  0  0  0  0  0  0  0  0  0  0  0
   55.5250   22.3260   43.3970 O   0  0  0  0  0  0  0  0  0  0  0  0
   55.3520   23.5050   45.5140 C   0  0  0  0  0  0  0  0  0  0  0  0
   54.2470   22.2770   46.1410 S   0  0  0  0  0  0  0  0  0  0  0  0
   53.8360   22.6280   47.5440 O   0  0  0  0  0  0  0  0  0  0  0  0
   53.0140   22.2600   45.2810 O   0  0  0  0  0  0  0  0  0  0  0  0
   55.0010   20.6950   46.1010 N   0  0  0  0  0  0  0  0  0  0  0  0
   56.3340   20.7360   45.4750 C   0  0  0  0  0  0  0  0  0  0  0  0
   57.3920   21.3960   46.3910 C   0  0  0  0  0  0  0  0  0  0  0  0
   57.0120   21.4390   47.7570 O   0  0  0  0  0  0  0  0  0  0  0  0
   56.4050   20.2240   48.1340 C   0  0  0  0  0  0  0  0  0  0  0  0
   55.0360   20.0730   47.4430 C   0  0  0  0  0  0  0  0  0  0  0  0
   55.7430   24.5780   46.3290 C   0  0  0  0  0  0  0  0  0  0  0  0
   58.0290   28.9360   46.1870 C   0  0  0  0  0  0  0  0  0  0  0  0
   56.9750   29.4220   45.3890 C   0  0  0  0  0  0  0  0  0  0  0  0
   55.9880   28.5870   44.8640 O   0  0  0  0  0  0  0  0  0  0  0  0
   56.8850   30.7510   45.1400 N   0  0  0  0  0  0  0  0  0  0  0  0
   57.7660   31.6400   45.6580 C   0  0  0  0  0  0  0  0  0  0  0  0
   57.6360   32.8630   45.3770 O   0  0  0  0  0  0  0  0  0  0  0  0
   58.7830   31.2110   46.4680 N   0  0  0  0  0  0  0  0  0  0  0  0
   59.7060   32.1670   47.0320 C   0  0  0  0  0  0  0  0  0  0  0  0
   61.0810   32.0760   46.7530 C   0  0  0  0  0  0  0  0  0  0  0  0
   61.9730   33.0060   47.2990 C   0  0  0  0  0  0  0  0  0  0  0  0
   61.4990   34.0290   48.1250 C   0  0  0  0  0  0  0  0  0  0  0  0
   60.1340   34.1260   48.4060 C   0  0  0  0  0  0  0  0  0  0  0  0
   59.2380   33.1990   47.8620 C   0  0  0  0  0  0  0  0  0  0  0  0
   58.9280   29.8740   46.7370 C   0  0  0  0  0  0  0  0  0  0  0  0
   59.8720   29.4770   47.4750 O   0  0  0  0  0  0  0  0  0  0  0  0
   57.8317   26.1969   44.1601 H   0  0  0  0  0  0  0  0  0  0  0  0
   57.1558   24.2857   42.7117 H   0  0  0  0  0  0  0  0  0  0  0  0
   56.6519   19.7069   45.2516 H   0  0  0  0  0  0  0  0  0  0  0  0
   56.2575   21.3402   44.5590 H   0  0  0  0  0  0  0  0  0  0  0  0
   58.3286   20.8251   46.3082 H   0  0  0  0  0  0  0  0  0  0  0  0
   57.5060   22.4371   46.0546 H   0  0  0  0  0  0  0  0  0  0  0  0
   57.0547   19.3869   47.8389 H   0  0  0  0  0  0  0  0  0  0  0  0
   56.2578   20.2207   49.2241 H   0  0  0  0  0  0  0  0  0  0  0  0
   54.8103   19.0013   47.3400 H   0  0  0  0  0  0  0  0  0  0  0  0
   54.2907   20.5880   48.0670 H   0  0  0  0  0  0  0  0  0  0  0  0
   55.3293   24.6716   47.3439 H   0  0  0  0  0  0  0  0  0  0  0  0
   56.0680   27.5790   44.8390 H   0  0  0  0  0  0  0  0  0  0  0  0
   61.4568   31.2715   46.1037 H   0  0  0  0  0  0  0  0  0  0  0  0
   63.0480   32.9318   47.0779 H   0  0  0  0  0  0  0  0  0  0  0  0
   62.2015   34.7585   48.5543 H   0  0  0  0  0  0  0  0  0  0  0  0
   59.7630   34.9323   49.0558 H   0  0  0  0  0  0  0  0  0  0  0  0
   58.1638   33.2787   48.0851 H   0  0  0  0  0  0  0  0  0  0  0  0
  1  2  2  0
  2  3  1  0
  3  4  1  0
  4  5  2  0
  5  6  1  0
  6  7  2  0
  7  8  1  0
  7  9  1  0
  9 10  1  0
 10 11  2  0
 10 12  2  0
 10 13  1  0
 13 14  1  0
 14 15  1  0
 15 16  1  0
 16 17  1  0
 17 18  1  0
  9 19  2  0
  2 20  1  0
 20 21  2  0
 21 22  1  0
 21 23  1  0
 23 24  1  0
 24 25  2  0
 24 26  1  0
 26 27  1  0
 27 28  2  0
 28 29  1  0
 29 30  2  0
 30 31  1  0
 31 32  2  0
 26 33  1  0
 33 34  2  0
 19  4  1  0
 33 20  1  0
 18 13  1  0
 32 27  1  0
  5 35  1  0
  6 36  1  0
 14 37  1  0
 14 38  1  0
 15 39  1  0
 15 40  1  0
 17 41  1  0
 17 42  1  0
 18 43  1  0
 18 44  1  0
 19 45  1  0
 22 46  1  0
 28 47  1  0
 29 48  1  0
 30 49  1  0
 31 50  1  0
 32 51  1  0
M  CHG  3   3  -1   8  -1  23  -1
M  END
>  <UniqueID>  (40) 
37

>  <SMILES>  (40) 
O=C([N-]c1ccc([O-])c(S(=O)(=O)N2CCOCC2)c1)c1c(O)[n-]c(=O)n(-c2ccccc2)c1=O

>  <Energy>  (40) 
87.66631601203335

>  <Genealogy>  (40) 
O=C([N-]c1ccc([O-])c(S(=O)(=O)N2CCOCC2)c1)c1c(O)[n-]c(=O)n(-c2ccccc2)c1=O (protonated)
O=C([N-]c1ccc([O-])c(S(=O)(=O)N2CCOCC2)c1)c1c(O)[n-]c(=O)n(-c2ccccc2)c1=O (3D coordinates assigned)
O=C([N-]c1ccc([O-])c(S(=O)(=O)N2CCOCC2)c1)c1c(O)[n-]c(=O)n(-c2ccccc2)c1=O (nonaromatic ring conformer: 87.66631601203335 kcal/mol)

>  <smiles>  (40) 
O=C(Nc1ccc(O)c(S(=O)(=O)N2CCOCC2)c1)c1c(O)[nH]c(=O)n(-c2ccccc2)c1=O

>  <score_type>  (40) 
oracle

>  <origin>  (40) 
adg

>  <m_score__min__energy>  (40) 
-14.24

>  <m_primary>  (40) 
energy

$$$$
40:0
     RDKit          3D

 35 36  0  0  0  0  0  0  0  0999 V2000
   55.1460   29.3710   44.8780 O   0  0  0  0  0  0  0  0  0  0  0  0
   56.3380   29.5660   44.5200 C   0  0  0  0  0  0  0  0  0  0  0  0
   56.6510   30.7780   43.6890 C   0  0  0  0  0  0  0  0  0  0  0  0
   58.0140   31.2310   43.9780 N   0  0  0  0  0  0  0  0  0  0  0  0
   57.9680   32.6640   44.9600 S   0  0  0  0  0  0  0  0  0  0  0  0
   58.1050   33.8890   44.0970 O   0  0  0  0  0  0  0  0  0  0  0  0
   56.6480   32.7320   45.6740 O   0  0  0  0  0  0  0  0  0  0  0  0
   59.2620   32.6170   46.1540 C   0  0  0  0  0  0  0  0  0  0  0  0
   59.7880   33.8030   46.6860 C   0  0  0  0  0  0  0  0  0  0  0  0
   60.8060   33.7540   47.6430 C   0  0  0  0  0  0  0  0  0  0  0  0
   61.3090   32.5200   48.0670 C   0  0  0  0  0  0  0  0  0  0  0  0
   60.8000   31.3350   47.5290 C   0  0  0  0  0  0  0  0  0  0  0  0
   59.7790   31.3820   46.5740 C   0  0  0  0  0  0  0  0  0  0  0  0
   57.3450   28.6430   44.9590 N   0  0  0  0  0  0  0  0  0  0  0  0
   57.8910   28.5260   46.3080 C   0  0  0  0  0  0  0  0  0  0  0  0
   58.3330   27.0880   46.5980 C   0  0  0  0  0  0  0  0  0  0  0  0
   57.1650   26.1490   46.5930 C   0  0  0  0  0  0  0  0  0  0  0  0
   55.9390   26.3770   46.0130 C   0  0  0  0  0  0  0  0  0  0  0  0
   55.1730   25.2830   46.1720 N   0  0  0  0  0  0  0  0  0  0  0  0
   55.9660   24.4210   46.8440 C   0  0  0  0  0  0  0  0  0  0  0  0
   57.1930   24.9120   47.1150 N   0  0  0  0  0  0  0  0  0  0  0  0
   56.5683   30.5223   42.6223 H   0  0  0  0  0  0  0  0  0  0  0  0
   55.9393   31.5812   43.9304 H   0  0  0  0  0  0  0  0  0  0  0  0
   58.4900   30.4920   44.5440 H   0  0  0  0  0  0  0  0  0  0  0  0
   59.3984   34.7750   46.3493 H   0  0  0  0  0  0  0  0  0  0  0  0
   61.2115   34.6865   48.0626 H   0  0  0  0  0  0  0  0  0  0  0  0
   62.1058   32.4821   48.8244 H   0  0  0  0  0  0  0  0  0  0  0  0
   61.2023   30.3650   47.8566 H   0  0  0  0  0  0  0  0  0  0  0  0
   59.3803   30.4481   46.1511 H   0  0  0  0  0  0  0  0  0  0  0  0
   58.7585   29.1954   46.4044 H   0  0  0  0  0  0  0  0  0  0  0  0
   57.1079   28.8043   47.0286 H   0  0  0  0  0  0  0  0  0  0  0  0
   59.0510   26.7712   45.8272 H   0  0  0  0  0  0  0  0  0  0  0  0
   58.7964   27.0611   47.5953 H   0  0  0  0  0  0  0  0  0  0  0  0
   55.6347   27.3027   45.5026 H   0  0  0  0  0  0  0  0  0  0  0  0
   55.6419   23.4131   47.1424 H   0  0  0  0  0  0  0  0  0  0  0  0
  1  2  2  0
  2  3  1  0
  3  4  1  0
  4  5  1  0
  5  6  2  0
  5  7  2  0
  5  8  1  0
  8  9  2  0
  9 10  1  0
 10 11  2  0
 11 12  1  0
 12 13  2  0
  2 14  1  0
 14 15  1  0
 15 16  1  0
 16 17  1  0
 17 18  2  0
 18 19  1  0
 19 20  1  0
 20 21  2  0
 13  8  1  0
 21 17  1  0
  3 22  1  0
  3 23  1  0
  4 24  1  0
  9 25  1  0
 10 26  1  0
 11 27  1  0
 12 28  1  0
 13 29  1  0
 15 30  1  0
 15 31  1  0
 16 32  1  0
 16 33  1  0
 18 34  1  0
 20 35  1  0
M  CHG  2  14  -1  19  -1
M  END
>  <UniqueID>  (41) 
38

>  <SMILES>  (41) 
O=C(CNS(=O)(=O)c1ccccc1)[N-]CCc1c[n-]cn1

>  <Energy>  (41) 
52.26102637585308

>  <Genealogy>  (41) 
O=C(CNS(=O)(=O)c1ccccc1)[N-]CCc1c[n-]cn1 (protonated)
O=C(CNS(=O)(=O)c1ccccc1)[N-]CCc1c[n-]cn1 (3D coordinates assigned)
O=C(CNS(=O)(=O)c1ccccc1)[N-]CCc1c[n-]cn1 (optimized conformer: 52.26102637585308 kcal/mol)

>  <smiles>  (41) 
O=C(CNS(=O)(=O)c1ccccc1)NCCc1c[nH]cn1

>  <score_type>  (41) 
oracle

>  <origin>  (41) 
adg

>  <m_score__min__energy>  (41) 
-11.07

>  <m_primary>  (41) 
energy

$$$$
41:0
     RDKit          3D

 35 37  0  0  0  0  0  0  0  0999 V2000
   58.6799   27.6409   42.4351 H   0  0  0  0  0  0  0  0  0  0  0  0
   58.1390   26.7660   42.8250 C   0  0  0  0  0  0  0  0  0  0  0  0
   57.6768   26.0502   42.1293 H   0  0  0  0  0  0  0  0  0  0  0  0
   58.0430   26.5720   44.1490 C   0  0  0  0  0  0  0  0  0  0  0  0
   57.3990   25.5240   44.8190 C   0  0  0  0  0  0  0  0  0  0  0  0
   56.5590   24.5670   44.3710 C   0  0  0  0  0  0  0  0  0  0  0  0
   56.8961   23.9587   43.5187 H   0  0  0  0  0  0  0  0  0  0  0  0
   55.2300   24.2700   44.9280 C   0  0  0  0  0  0  0  0  0  0  0  0
   54.5310   23.1450   44.6870 N   0  0  0  0  0  0  0  0  0  0  0  0
   53.3400   23.3850   45.2780 C   0  0  0  0  0  0  0  0  0  0  0  0
   52.4050   22.5440   45.2840 O   0  0  0  0  0  0  0  0  0  0  0  0
   53.2290   24.6020   45.8530 N   0  0  0  0  0  0  0  0  0  0  0  0
   54.4280   25.1530   45.6080 C   0  0  0  0  0  0  0  0  0  0  0  0
   54.7800   26.4400   45.9940 O   0  0  0  0  0  0  0  0  0  0  0  0
   57.7960   25.6770   46.1430 C   0  0  0  0  0  0  0  0  0  0  0  0
   57.3850   24.8310   47.3080 C   0  0  0  0  0  0  0  0  0  0  0  0
   57.6370   25.3496   48.2448 H   0  0  0  0  0  0  0  0  0  0  0  0
   56.3002   24.6534   47.2676 H   0  0  0  0  0  0  0  0  0  0  0  0
   57.9159   23.8684   47.2676 H   0  0  0  0  0  0  0  0  0  0  0  0
   58.5630   26.7750   46.2690 N   0  0  0  0  0  0  0  0  0  0  0  0
   58.7080   27.3140   45.0700 N   0  0  0  0  0  0  0  0  0  0  0  0
   59.4940   28.5320   44.8480 C   0  0  0  0  0  0  0  0  0  0  0  0
   60.2478   28.6266   45.6435 H   0  0  0  0  0  0  0  0  0  0  0  0
   59.9856   28.4645   43.8663 H   0  0  0  0  0  0  0  0  0  0  0  0
   58.6000   29.7470   44.8640 C   0  0  0  0  0  0  0  0  0  0  0  0
   57.4190   29.7480   44.1020 C   0  0  0  0  0  0  0  0  0  0  0  0
   57.1548   28.8644   43.5025 H   0  0  0  0  0  0  0  0  0  0  0  0
   56.5790   30.8630   44.1010 C   0  0  0  0  0  0  0  0  0  0  0  0
   55.6594   30.8571   43.4974 H   0  0  0  0  0  0  0  0  0  0  0  0
   56.9040   31.9860   44.8650 C   0  0  0  0  0  0  0  0  0  0  0  0
   56.2416   32.8642   44.8595 H   0  0  0  0  0  0  0  0  0  0  0  0
   58.0700   31.9960   45.6370 C   0  0  0  0  0  0  0  0  0  0  0  0
   58.4630   33.4110   46.5970 Cl  0  0  0  0  0  0  0  0  0  0  0  0
   58.9180   30.8780   45.6420 C   0  0  0  0  0  0  0  0  0  0  0  0
   60.0410   30.8980   46.4050 F   0  0  0  0  0  0  0  0  0  0  0  0
  1  2  1  0
  2  3  1  0
  2  4  2  0
  4  5  1  0
  5  6  2  0
  6  7  1  0
  6  8  1  0
  8  9  1  0
  9 10  1  0
 10 11  2  0
 10 12  1  0
 12 13  1  0
 13 14  1  0
  5 15  1  0
 15 16  1  0
 16 17  1  0
 16 18  1  0
 16 19  1  0
 15 20  2  0
 20 21  1  0
 21 22  1  0
 22 23  1  0
 22 24  1  0
 22 25  1  0
 25 26  2  0
 26 27  1  0
 26 28  1  0
 28 29  1  0
 28 30  2  0
 30 31  1  0
 30 32  1  0
 32 33  1  0
 32 34  2  0
 34 35  1  0
 21  4  1  0
 34 25  1  0
 13  8  2  0
M  CHG  3   9  -1  12  -1  14  -1
M  END
>  <UniqueID>  (42) 
39

>  <SMILES>  (42) 
C=c1/c(=C\c2[n-]c(=O)[n-]c2[O-])c(C)nn1Cc1cccc(Cl)c1F

>  <Energy>  (42) 
109.23562069053668

>  <Genealogy>  (42) 
C=c1c(=Cc2[n-]c(=O)[n-]c2[O-])c(C)nn1Cc1cccc(Cl)c1F (protonated)
C=c1/c(=C\c2[n-]c(=O)[n-]c2[O-])c(C)nn1Cc1cccc(Cl)c1F (cis-trans isomerization)
C=c1/c(=C\c2[n-]c(=O)[n-]c2[O-])c(C)nn1Cc1cccc(Cl)c1F (3D coordinates assigned)
C=c1/c(=C\c2[n-]c(=O)[n-]c2[O-])c(C)nn1Cc1cccc(Cl)c1F (optimized conformer: 109.23562069053668 kcal/mol)

>  <smiles>  (42) 
C=c1c(=Cc2[nH]c(=O)[nH]c2O)c(C)nn1Cc1cccc(Cl)c1F

>  <score_type>  (42) 
oracle

>  <origin>  (42) 
adg

>  <m_score__min__energy>  (42) 
-15.859999999999999

>  <m_primary>  (42) 
energy

$$$$
42:0
     RDKit          3D

 47 49  0  0  0  0  0  0  0  0999 V2000
   54.8010   27.0100   45.0660 H   0  0  0  0  0  0  0  0  0  0  0  0
   55.1380   26.4780   45.9000 N   0  0  0  0  0  0  0  0  0  0  0  0
   56.3570   26.5800   46.3220 C   0  0  0  0  0  0  0  0  0  0  0  0
   56.8850   25.6010   47.1070 N   0  0  0  0  0  0  0  0  0  0  0  0
   58.1630   25.6590   47.5600 C   0  0  0  0  0  0  0  0  0  0  0  0
   58.5638   24.8532   48.1925 H   0  0  0  0  0  0  0  0  0  0  0  0
   58.9660   26.7500   47.2170 C   0  0  0  0  0  0  0  0  0  0  0  0
   60.3580   26.8390   47.6980 C   0  0  0  0  0  0  0  0  0  0  0  0
   61.1335   26.2501   47.1864 H   0  0  0  0  0  0  0  0  0  0  0  0
   60.7110   27.6060   48.7290 C   0  0  0  0  0  0  0  0  0  0  0  0
   61.7614   27.6418   49.0536 H   0  0  0  0  0  0  0  0  0  0  0  0
   59.9520   28.2033   49.2554 H   0  0  0  0  0  0  0  0  0  0  0  0
   58.4410   27.7290   46.4310 N   0  0  0  0  0  0  0  0  0  0  0  0
   57.1630   27.6840   45.9690 C   0  0  0  0  0  0  0  0  0  0  0  0
   56.6740   28.8120   45.1410 C   0  0  0  0  0  0  0  0  0  0  0  0
   55.4410   29.0640   45.0750 O   0  0  0  0  0  0  0  0  0  0  0  0
   57.5940   29.6850   44.4770 N   0  0  0  0  0  0  0  0  0  0  0  0
   57.7980   31.0670   44.8180 C   0  0  0  0  0  0  0  0  0  0  0  0
   58.1050   31.4340   46.1390 C   0  0  0  0  0  0  0  0  0  0  0  0
   58.1597   30.6603   46.9190 H   0  0  0  0  0  0  0  0  0  0  0  0
   58.3430   32.7770   46.4760 C   0  0  0  0  0  0  0  0  0  0  0  0
   58.7240   33.1330   47.8650 C   0  0  0  0  0  0  0  0  0  0  0  0
   58.1320   32.5760   48.8270 O   0  0  0  0  0  0  0  0  0  0  0  0
   59.7730   34.0670   48.1570 N   0  0  0  0  0  0  0  0  0  0  0  0
   61.1770   33.8480   47.9590 C   0  0  0  0  0  0  0  0  0  0  0  0
   61.6710   33.9110   46.6510 C   0  0  0  0  0  0  0  0  0  0  0  0
   60.9793   34.0967   45.8161 H   0  0  0  0  0  0  0  0  0  0  0  0
   63.0290   33.7410   46.3960 C   0  0  0  0  0  0  0  0  0  0  0  0
   63.4068   33.8049   45.3649 H   0  0  0  0  0  0  0  0  0  0  0  0
   63.9100   33.4900   47.4460 C   0  0  0  0  0  0  0  0  0  0  0  0
   64.9849   33.3760   47.2421 H   0  0  0  0  0  0  0  0  0  0  0  0
   63.4360   33.3820   48.7580 C   0  0  0  0  0  0  0  0  0  0  0  0
   64.6110   33.0440   50.0260 Cl  0  0  0  0  0  0  0  0  0  0  0  0
   62.0540   33.5300   49.0290 C   0  0  0  0  0  0  0  0  0  0  0  0
   61.5310   33.3490   50.4320 C   0  0  0  0  0  0  0  0  0  0  0  0
   62.3155   33.6205   51.1536 H   0  0  0  0  0  0  0  0  0  0  0  0
   60.6543   33.9960   50.5828 H   0  0  0  0  0  0  0  0  0  0  0  0
   61.2417   32.2985   50.5828 H   0  0  0  0  0  0  0  0  0  0  0  0
   58.2780   33.7520   45.4690 C   0  0  0  0  0  0  0  0  0  0  0  0
   58.4667   34.8067   45.7181 H   0  0  0  0  0  0  0  0  0  0  0  0
   57.9760   33.3950   44.1540 C   0  0  0  0  0  0  0  0  0  0  0  0
   57.9186   34.1717   43.3772 H   0  0  0  0  0  0  0  0  0  0  0  0
   57.7450   32.0530   43.8150 C   0  0  0  0  0  0  0  0  0  0  0  0
   57.4160   31.6800   42.3960 C   0  0  0  0  0  0  0  0  0  0  0  0
   56.6884   30.8550   42.3930 H   0  0  0  0  0  0  0  0  0  0  0  0
   56.9859   32.5501   41.8784 H   0  0  0  0  0  0  0  0  0  0  0  0
   58.3330   31.3619   41.8784 H   0  0  0  0  0  0  0  0  0  0  0  0
  1  2  1  0
  2  3  2  0
  3  4  1  0
  4  5  1  0
  5  6  1  0
  5  7  2  0
  7  8  1  0
  8  9  1  0
  8 10  2  0
 10 11  1  0
 10 12  1  0
  7 13  1  0
 13 14  2  0
 14 15  1  0
 15 16  2  0
 15 17  1  0
 17 18  1  0
 18 19  2  0
 19 20  1  0
 19 21  1  0
 21 22  1  0
 22 23  2  0
 22 24  1  0
 24 25  1  0
 25 26  2  0
 26 27  1  0
 26 28  1  0
 28 29  1  0
 28 30  2  0
 30 31  1  0
 30 32  1  0
 32 33  1  0
 32 34  2  0
 34 35  1  0
 35 36  1  0
 35 37  1  0
 35 38  1  0
 21 39  2  0
 39 40  1  0
 39 41  1  0
 41 42  1  0
 41 43  2  0
 43 44  1  0
 44 45  1  0
 44 46  1  0
 44 47  1  0
 14  3  1  0
 43 18  1  0
 34 25  1  0
M  CHG  3   4  -1  17  -1  24  -1
M  END
>  <UniqueID>  (43) 
40

>  <SMILES>  (43) 
[H]/N=c1\[n-]cc(C=C)nc1C(=O)[N-]c1cc(C(=O)[N-]c2cccc(Cl)c2C)ccc1C

>  <Energy>  (43) 
64.99451563381938

>  <Genealogy>  (43) 
C=Cc1c[n-]c(=N)c(C(=O)[N-]c2cc(C(=O)[N-]c3cccc(Cl)c3C)ccc2C)n1 (protonated)
[H]/N=c1\[n-]cc(C=C)nc1C(=O)[N-]c1cc(C(=O)[N-]c2cccc(Cl)c2C)ccc1C (cis-trans isomerization)
[H]/N=c1\[n-]cc(C=C)nc1C(=O)[N-]c1cc(C(=O)[N-]c2cccc(Cl)c2C)ccc1C (3D coordinates assigned)
[H]/N=c1\[n-]cc(C=C)nc1C(=O)[N-]c1cc(C(=O)[N-]c2cccc(Cl)c2C)ccc1C (optimized conformer: 64.99451563381938 kcal/mol)

>  <smiles>  (43) 
C=Cc1c[nH]c(=N)c(C(=O)Nc2cc(C(=O)Nc3cccc(Cl)c3C)ccc2C)n1

>  <score_type>  (43) 
oracle

>  <origin>  (43) 
adg

>  <m_score__min__energy>  (43) 
-14.109999999999999

>  <m_primary>  (43) 
energy

$$$$
43:0
     RDKit          3D

 48 51  0  0  0  0  0  0  0  0999 V2000
   56.4650   29.3500   44.5760 C   0  0  0  0  0  0  0  0  0  0  0  0
   57.7150   29.0730   44.9830 C   0  0  0  0  0  0  0  0  0  0  0  0
   58.2880   27.7990   45.1110 C   0  0  0  0  0  0  0  0  0  0  0  0
   57.7090   26.6180   44.8040 C   0  0  0  0  0  0  0  0  0  0  0  0
   57.1300   25.6600   45.7720 C   0  0  0  0  0  0  0  0  0  0  0  0
   57.7600   24.6010   46.3140 N   0  0  0  0  0  0  0  0  0  0  0  0
   56.8390   24.0760   47.1480 C   0  0  0  0  0  0  0  0  0  0  0  0
   57.0590   23.0500   47.8430 O   0  0  0  0  0  0  0  0  0  0  0  0
   55.6630   24.7350   47.1800 N   0  0  0  0  0  0  0  0  0  0  0  0
   55.8650   25.7350   46.3070 C   0  0  0  0  0  0  0  0  0  0  0  0
   54.9090   26.6970   46.0020 O   0  0  0  0  0  0  0  0  0  0  0  0
   59.5730   28.0060   45.6050 C   0  0  0  0  0  0  0  0  0  0  0  0
   59.7320   29.3700   45.7460 C   0  0  0  0  0  0  0  0  0  0  0  0
   60.9750   30.0320   46.2580 C   0  0  0  0  0  0  0  0  0  0  0  0
   58.6070   30.0180   45.3760 N   0  0  0  0  0  0  0  0  0  0  0  0
   58.4190   31.4440   45.3880 C   0  0  0  0  0  0  0  0  0  0  0  0
   57.9800   32.1070   44.2330 C   0  0  0  0  0  0  0  0  0  0  0  0
   57.8140   33.4930   44.2410 C   0  0  0  0  0  0  0  0  0  0  0  0
   58.0820   34.2270   45.4000 C   0  0  0  0  0  0  0  0  0  0  0  0
   58.5180   33.5760   46.5700 C   0  0  0  0  0  0  0  0  0  0  0  0
   58.7990   34.2980   47.7810 N   0  0  0  0  0  0  0  0  0  0  0  0
   59.7280   33.6510   49.0950 S   0  0  0  0  0  0  0  0  0  0  0  0
   59.1560   32.3220   49.5000 O   0  0  0  0  0  0  0  0  0  0  0  0
   59.6520   34.5880   50.2660 O   0  0  0  0  0  0  0  0  0  0  0  0
   61.4140   33.4900   48.6110 C   0  0  0  0  0  0  0  0  0  0  0  0
   61.7600   33.5940   47.2570 C   0  0  0  0  0  0  0  0  0  0  0  0
   63.0950   33.4630   46.8600 C   0  0  0  0  0  0  0  0  0  0  0  0
   64.0890   33.2260   47.8140 C   0  0  0  0  0  0  0  0  0  0  0  0
   63.7480   33.1170   49.1660 C   0  0  0  0  0  0  0  0  0  0  0  0
   62.4140   33.2500   49.5660 C   0  0  0  0  0  0  0  0  0  0  0  0
   58.6900   32.1830   46.5480 C   0  0  0  0  0  0  0  0  0  0  0  0
   56.1252   30.3944   44.5149 H   0  0  0  0  0  0  0  0  0  0  0  0
   55.7813   28.5324   44.3039 H   0  0  0  0  0  0  0  0  0  0  0  0
   57.6638   26.3438   43.7397 H   0  0  0  0  0  0  0  0  0  0  0  0
   60.3185   27.2314   45.8382 H   0  0  0  0  0  0  0  0  0  0  0  0
   60.9664   30.0274   47.3580 H   0  0  0  0  0  0  0  0  0  0  0  0
   61.8577   29.4845   45.8959 H   0  0  0  0  0  0  0  0  0  0  0  0
   61.0133   31.0700   45.8959 H   0  0  0  0  0  0  0  0  0  0  0  0
   57.7660   31.5338   43.3189 H   0  0  0  0  0  0  0  0  0  0  0  0
   57.4711   34.0093   43.3322 H   0  0  0  0  0  0  0  0  0  0  0  0
   57.9516   35.3192   45.3981 H   0  0  0  0  0  0  0  0  0  0  0  0
   58.5260   35.3040   47.8460 H   0  0  0  0  0  0  0  0  0  0  0  0
   60.9796   33.7792   46.5042 H   0  0  0  0  0  0  0  0  0  0  0  0
   63.3628   33.5465   45.7964 H   0  0  0  0  0  0  0  0  0  0  0  0
   65.1388   33.1253   47.5014 H   0  0  0  0  0  0  0  0  0  0  0  0
   64.5298   32.9264   49.9159 H   0  0  0  0  0  0  0  0  0  0  0  0
   62.1486   33.1664   50.6302 H   0  0  0  0  0  0  0  0  0  0  0  0
   59.0418   31.6648   47.4523 H   0  0  0  0  0  0  0  0  0  0  0  0
  1  2  2  0
  2  3  1  0
  3  4  2  3
  4  5  1  0
  5  6  1  0
  6  7  1  0
  7  8  2  0
  7  9  1  0
  9 10  1  0
 10 11  1  0
  3 12  1  0
 12 13  2  0
 13 14  1  0
 13 15  1  0
 15 16  1  0
 16 17  2  0
 17 18  1  0
 18 19  2  0
 19 20  1  0
 20 21  1  0
 21 22  1  0
 22 23  2  0
 22 24  2  0
 22 25  1  0
 25 26  2  0
 26 27  1  0
 27 28  2  0
 28 29  1  0
 29 30  2  0
 20 31  2  0
 15  2  1  0
 31 16  1  0
 10  5  2  0
 30 25  1  0
  1 32  1  0
  1 33  1  0
  4 34  1  0
 12 35  1  0
 14 36  1  0
 14 37  1  0
 14 38  1  0
 17 39  1  0
 18 40  1  0
 19 41  1  0
 21 42  1  0
 26 43  1  0
 27 44  1  0
 28 45  1  0
 29 46  1  0
 30 47  1  0
 31 48  1  0
M  CHG  3   6  -1   9  -1  11  -1
M  END
>  <UniqueID>  (44) 
41

>  <SMILES>  (44) 
C=c1c(=Cc2[n-]c(=O)[n-]c2[O-])cc(C)n1-c1cccc(NS(=O)(=O)c2ccccc2)c1

>  <Energy>  (44) 
123.33400993731668

>  <Genealogy>  (44) 
C=c1c(=Cc2[n-]c(=O)[n-]c2[O-])cc(C)n1-c1cccc(NS(=O)(=O)c2ccccc2)c1 (protonated)
C=c1c(=Cc2[n-]c(=O)[n-]c2[O-])cc(C)n1-c1cccc(NS(=O)(=O)c2ccccc2)c1 (3D coordinates assigned)
C=c1c(=Cc2[n-]c(=O)[n-]c2[O-])cc(C)n1-c1cccc(NS(=O)(=O)c2ccccc2)c1 (optimized conformer: 123.33400993731668 kcal/mol)

>  <smiles>  (44) 
C=c1c(=Cc2[nH]c(=O)[nH]c2O)cc(C)n1-c1cccc(NS(=O)(=O)c2ccccc2)c1

>  <score_type>  (44) 
oracle

>  <origin>  (44) 
adg

>  <m_score__min__energy>  (44) 
-17.489999999999998

>  <m_primary>  (44) 
energy

$$$$
44:0
     RDKit          3D

 74 77  0  0  0  0  0  0  0  0999 V2000
   59.3610   29.9710   50.3360 C   0  0  0  0  0  0  0  0  0  0  0  0
   59.7830   28.9410   49.3420 C   0  0  0  0  0  0  0  0  0  0  0  0
   60.0220   27.6610   49.6850 N   0  0  0  0  0  0  0  0  0  0  0  0
   60.2510   27.0020   48.5890 O   0  0  0  0  0  0  0  0  0  0  0  0
   60.1730   27.7830   47.5340 C   0  0  0  0  0  0  0  0  0  0  0  0
   60.3020   27.2810   46.1110 C   0  0  0  0  0  0  0  0  0  0  0  0
   59.3650   28.0720   45.1720 C   0  0  0  0  0  0  0  0  0  0  0  0
   57.8900   27.7710   45.4770 C   0  0  0  0  0  0  0  0  0  0  0  0
   57.6550   26.3310   45.6680 N   0  0  0  0  0  0  0  0  0  0  0  0
   56.3550   25.8780   46.0950 C   0  0  0  0  0  0  0  0  0  0  0  0
   55.4610   26.7230   46.3750 O   0  0  0  0  0  0  0  0  0  0  0  0
   56.0910   24.5030   46.1970 O   0  0  0  0  0  0  0  0  0  0  0  0
   55.5330   23.6630   45.1750 C   0  0  0  0  0  0  0  0  0  0  0  0
   56.1770   23.9680   43.8060 C   0  0  0  0  0  0  0  0  0  0  0  0
   55.8480   22.2090   45.5590 C   0  0  0  0  0  0  0  0  0  0  0  0
   54.0030   23.8370   45.1040 C   0  0  0  0  0  0  0  0  0  0  0  0
   58.7180   25.3700   45.3310 C   0  0  0  0  0  0  0  0  0  0  0  0
   60.0430   25.7470   46.0190 C   0  0  0  0  0  0  0  0  0  0  0  0
   59.8940   29.0790   47.9640 C   0  0  0  0  0  0  0  0  0  0  0  0
   59.5880   30.2700   47.1270 C   0  0  0  0  0  0  0  0  0  0  0  0
   58.3960   30.6490   47.0100 O   0  0  0  0  0  0  0  0  0  0  0  0
   60.6060   31.0550   46.4960 N   0  0  0  0  0  0  0  0  0  0  0  0
   61.5670   31.9040   47.1400 C   0  0  0  0  0  0  0  0  0  0  0  0
   62.7370   31.3010   47.6220 C   0  0  0  0  0  0  0  0  0  0  0  0
   63.7190   32.0570   48.2600 C   0  0  0  0  0  0  0  0  0  0  0  0
   63.5250   33.4200   48.4590 C   0  0  0  0  0  0  0  0  0  0  0  0
   62.3430   34.0300   48.0390 C   0  0  0  0  0  0  0  0  0  0  0  0
   61.3370   33.2870   47.3850 C   0  0  0  0  0  0  0  0  0  0  0  0
   60.0320   33.9440   47.0980 C   0  0  0  0  0  0  0  0  0  0  0  0
   59.8210   35.1140   47.5080 O   0  0  0  0  0  0  0  0  0  0  0  0
   59.0270   33.2780   46.3160 N   0  0  0  0  0  0  0  0  0  0  0  0
   57.7450   33.9200   46.0170 C   0  0  0  0  0  0  0  0  0  0  0  0
   57.4490   33.9270   44.5070 C   0  0  0  0  0  0  0  0  0  0  0  0
   58.1430   32.7850   43.7440 C   0  0  0  0  0  0  0  0  0  0  0  0
   57.3140   31.5810   43.6960 N   0  0  0  0  0  0  0  0  0  0  0  0
   57.0110   30.8460   42.6090 C   0  0  0  0  0  0  0  0  0  0  0  0
   56.2300   29.7840   43.0210 C   0  0  0  0  0  0  0  0  0  0  0  0
   56.0520   29.8460   44.3600 N   0  0  0  0  0  0  0  0  0  0  0  0
   56.7300   30.9530   44.7370 C   0  0  0  0  0  0  0  0  0  0  0  0
   59.5192   29.5849   51.3538 H   0  0  0  0  0  0  0  0  0  0  0  0
   59.9575   30.8842   50.1935 H   0  0  0  0  0  0  0  0  0  0  0  0
   58.2953   30.2032   50.1935 H   0  0  0  0  0  0  0  0  0  0  0  0
   61.3378   27.4508   45.7819 H   0  0  0  0  0  0  0  0  0  0  0  0
   59.5469   29.1484   45.3070 H   0  0  0  0  0  0  0  0  0  0  0  0
   59.5750   27.7703   44.1352 H   0  0  0  0  0  0  0  0  0  0  0  0
   57.6000   28.3040   46.3945 H   0  0  0  0  0  0  0  0  0  0  0  0
   57.2880   28.1051   44.6191 H   0  0  0  0  0  0  0  0  0  0  0  0
   57.1614   24.4342   43.9596 H   0  0  0  0  0  0  0  0  0  0  0  0
   56.2987   23.0319   43.2413 H   0  0  0  0  0  0  0  0  0  0  0  0
   55.5299   24.6553   43.2413 H   0  0  0  0  0  0  0  0  0  0  0  0
   55.8683   22.1153   46.6548 H   0  0  0  0  0  0  0  0  0  0  0  0
   55.0728   21.5452   45.1485 H   0  0  0  0  0  0  0  0  0  0  0  0
   56.8284   21.9255   45.1485 H   0  0  0  0  0  0  0  0  0  0  0  0
   53.5916   23.8838   46.1231 H   0  0  0  0  0  0  0  0  0  0  0  0
   53.7643   24.7681   44.5691 H   0  0  0  0  0  0  0  0  0  0  0  0
   53.5613   22.9833   44.5691 H   0  0  0  0  0  0  0  0  0  0  0  0
   58.4136   24.3663   45.6627 H   0  0  0  0  0  0  0  0  0  0  0  0
   58.8722   25.3865   44.2420 H   0  0  0  0  0  0  0  0  0  0  0  0
   60.0301   25.3376   47.0399 H   0  0  0  0  0  0  0  0  0  0  0  0
   60.8503   25.3269   45.4011 H   0  0  0  0  0  0  0  0  0  0  0  0
   62.8820   30.2180   47.4952 H   0  0  0  0  0  0  0  0  0  0  0  0
   64.6461   31.5764   48.6057 H   0  0  0  0  0  0  0  0  0  0  0  0
   64.3066   34.0189   48.9494 H   0  0  0  0  0  0  0  0  0  0  0  0
   62.1929   35.1046   48.2200 H   0  0  0  0  0  0  0  0  0  0  0  0
   59.2070   32.3140   45.9630 H   0  0  0  0  0  0  0  0  0  0  0  0
   56.9433   33.3729   46.5346 H   0  0  0  0  0  0  0  0  0  0  0  0
   57.7964   34.9637   46.3606 H   0  0  0  0  0  0  0  0  0  0  0  0
   56.3624   33.8323   44.3640 H   0  0  0  0  0  0  0  0  0  0  0  0
   57.8401   34.8726   44.1033 H   0  0  0  0  0  0  0  0  0  0  0  0
   58.3483   33.1171   42.7156 H   0  0  0  0  0  0  0  0  0  0  0  0
   59.0750   32.5373   44.2731 H   0  0  0  0  0  0  0  0  0  0  0  0
   57.3289   31.0544   41.5768 H   0  0  0  0  0  0  0  0  0  0  0  0
   55.8163   29.0071   42.3612 H   0  0  0  0  0  0  0  0  0  0  0  0
   56.7979   31.3029   45.7776 H   0  0  0  0  0  0  0  0  0  0  0  0
  1  2  1  0
  2  3  2  0
  3  4  1  0
  4  5  1  0
  5  6  1  0
  6  7  1  0
  7  8  1  0
  8  9  1  0
  9 10  1  0
 10 11  2  0
 10 12  1  0
 12 13  1  0
 13 14  1  0
 13 15  1  0
 13 16  1  0
  9 17  1  0
 17 18  1  0
  5 19  2  0
 19 20  1  0
 20 21  2  0
 20 22  1  0
 22 23  1  0
 23 24  2  0
 24 25  1  0
 25 26  2  0
 26 27  1  0
 27 28  2  0
 28 29  1  0
 29 30  2  0
 29 31  1  0
 31 32  1  0
 32 33  1  0
 33 34  1  0
 34 35  1  0
 35 36  1  0
 36 37  2  0
 37 38  1  0
 38 39  2  0
 19  2  1  0
 28 23  1  0
 39 35  1  0
 18  6  1  0
  1 40  1  0
  1 41  1  0
  1 42  1  0
  6 43  1  0
  7 44  1  0
  7 45  1  0
  8 46  1  0
  8 47  1  0
 14 48  1  0
 14 49  1  0
 14 50  1  0
 15 51  1  0
 15 52  1  0
 15 53  1  0
 16 54  1  0
 16 55  1  0
 16 56  1  0
 17 57  1  0
 17 58  1  0
 18 59  1  0
 18 60  1  0
 24 61  1  0
 25 62  1  0
 26 63  1  0
 27 64  1  0
 31 65  1  0
 32 66  1  0
 32 67  1  0
 33 68  1  0
 33 69  1  0
 34 70  1  0
 34 71  1  0
 36 72  1  0
 37 73  1  0
 39 74  1  0
M  CHG  1  22  -1
M  END
>  <UniqueID>  (45) 
42

>  <SMILES>  (45) 
Cc1noc(C2CCN(C(=O)OC(C)(C)C)CC2)c1C(=O)[N-]c1ccccc1C(=O)NCCCn1ccnc1

>  <Energy>  (45) 
139.60807318680057

>  <Genealogy>  (45) 
Cc1noc(C2CCN(C(=O)OC(C)(C)C)CC2)c1C(=O)[N-]c1ccccc1C(=O)NCCCn1ccnc1 (protonated)
Cc1noc(C2CCN(C(=O)OC(C)(C)C)CC2)c1C(=O)[N-]c1ccccc1C(=O)NCCCn1ccnc1 (3D coordinates assigned)
Cc1noc(C2CCN(C(=O)OC(C)(C)C)CC2)c1C(=O)[N-]c1ccccc1C(=O)NCCCn1ccnc1 (nonaromatic ring conformer: 139.60807318680057 kcal/mol)

>  <smiles>  (45) 
Cc1noc(C2CCN(C(=O)OC(C)(C)C)CC2)c1C(=O)Nc1ccccc1C(=O)NCCCn1ccnc1

>  <score_type>  (45) 
oracle

>  <origin>  (45) 
adg

>  <m_score__min__energy>  (45) 
-10.74

>  <m_primary>  (45) 
energy

$$$$
45:0
     RDKit          3D

 49 53  0  0  0  0  0  0  0  0999 V2000
   57.7310   27.9390   44.0380 C   0  0  0  0  0  0  0  0  0  0  0  0
   58.0500   27.3250   45.1880 C   0  0  0  0  0  0  0  0  0  0  0  0
   57.8770   25.9670   45.5010 C   0  0  0  0  0  0  0  0  0  0  0  0
   57.1820   24.9970   44.8750 C   0  0  0  0  0  0  0  0  0  0  0  0
   55.8230   24.5550   45.2260 C   0  0  0  0  0  0  0  0  0  0  0  0
   55.3280   23.3270   44.9800 N   0  0  0  0  0  0  0  0  0  0  0  0
   54.0300   23.4380   45.3390 C   0  0  0  0  0  0  0  0  0  0  0  0
   53.2240   22.4740   45.2670 O   0  0  0  0  0  0  0  0  0  0  0  0
   53.6630   24.6640   45.7670 N   0  0  0  0  0  0  0  0  0  0  0  0
   54.8060   25.3610   45.6750 C   0  0  0  0  0  0  0  0  0  0  0  0
   54.9170   26.7100   45.9900 O   0  0  0  0  0  0  0  0  0  0  0  0
   58.5790   25.7470   46.6750 C   0  0  0  0  0  0  0  0  0  0  0  0
   59.0810   26.9680   47.0760 C   0  0  0  0  0  0  0  0  0  0  0  0
   59.8940   27.1890   48.3170 C   0  0  0  0  0  0  0  0  0  0  0  0
   58.7650   27.9240   46.1740 N   0  0  0  0  0  0  0  0  0  0  0  0
   59.1570   29.3060   46.2430 C   0  0  0  0  0  0  0  0  0  0  0  0
   60.4530   29.6440   46.6900 C   0  0  0  0  0  0  0  0  0  0  0  0
   60.7940   30.9910   46.7390 C   0  0  0  0  0  0  0  0  0  0  0  0
   61.9610   31.5290   47.1180 N   0  0  0  0  0  0  0  0  0  0  0  0
   61.7340   32.8610   46.9670 C   0  0  0  0  0  0  0  0  0  0  0  0
   62.7860   33.8910   47.2180 C   0  0  0  0  0  0  0  0  0  0  0  0
   63.3740   33.7000   48.5880 C   0  0  0  0  0  0  0  0  0  0  0  0
   62.8110   34.3540   49.6970 C   0  0  0  0  0  0  0  0  0  0  0  0
   63.3350   34.1470   50.9770 C   0  0  0  0  0  0  0  0  0  0  0  0
   64.4190   33.2780   51.1630 C   0  0  0  0  0  0  0  0  0  0  0  0
   64.9500   33.0650   52.4330 O   0  0  0  0  0  0  0  0  0  0  0  0
   64.9730   32.6160   50.0630 C   0  0  0  0  0  0  0  0  0  0  0  0
   64.4510   32.8200   48.7820 C   0  0  0  0  0  0  0  0  0  0  0  0
   60.4960   33.1750   46.4990 N   0  0  0  0  0  0  0  0  0  0  0  0
   59.9230   31.9700   46.3710 C   0  0  0  0  0  0  0  0  0  0  0  0
   58.6350   31.6820   45.9270 C   0  0  0  0  0  0  0  0  0  0  0  0
   58.2490   30.3300   45.8660 C   0  0  0  0  0  0  0  0  0  0  0  0
   56.9930   30.0150   45.4640 F   0  0  0  0  0  0  0  0  0  0  0  0
   57.9192   29.0162   43.9191 H   0  0  0  0  0  0  0  0  0  0  0  0
   57.2814   27.3650   43.2144 H   0  0  0  0  0  0  0  0  0  0  0  0
   57.6724   24.4925   44.0294 H   0  0  0  0  0  0  0  0  0  0  0  0
   58.7109   24.7834   47.1890 H   0  0  0  0  0  0  0  0  0  0  0  0
   59.2647   27.0179   49.2029 H   0  0  0  0  0  0  0  0  0  0  0  0
   60.7423   26.4889   48.3291 H   0  0  0  0  0  0  0  0  0  0  0  0
   60.2711   28.2223   48.3291 H   0  0  0  0  0  0  0  0  0  0  0  0
   61.1704   28.8660   46.9901 H   0  0  0  0  0  0  0  0  0  0  0  0
   63.5803   33.7922   46.4634 H   0  0  0  0  0  0  0  0  0  0  0  0
   62.3345   34.8920   47.1546 H   0  0  0  0  0  0  0  0  0  0  0  0
   61.9553   35.0310   49.5579 H   0  0  0  0  0  0  0  0  0  0  0  0
   62.8952   34.6677   51.8404 H   0  0  0  0  0  0  0  0  0  0  0  0
   64.8720   32.1670   52.8950 H   0  0  0  0  0  0  0  0  0  0  0  0
   65.8227   31.9322   50.2059 H   0  0  0  0  0  0  0  0  0  0  0  0
   64.8859   32.2889   47.9225 H   0  0  0  0  0  0  0  0  0  0  0  0
   57.9423   32.4846   45.6337 H   0  0  0  0  0  0  0  0  0  0  0  0
  1  2  2  0
  2  3  1  0
  3  4  2  3
  4  5  1  0
  5  6  1  0
  6  7  1  0
  7  8  2  0
  7  9  1  0
  9 10  1  0
 10 11  1  0
  3 12  1  0
 12 13  2  0
 13 14  1  0
 13 15  1  0
 15 16  1  0
 16 17  2  0
 17 18  1  0
 18 19  1  0
 19 20  1  0
 20 21  1  0
 21 22  1  0
 22 23  2  0
 23 24  1  0
 24 25  2  0
 25 26  1  0
 25 27  1  0
 27 28  2  0
 20 29  2  0
 29 30  1  0
 30 31  1  0
 31 32  2  0
 32 33  1  0
 15  2  1  0
 32 16  1  0
 10  5  2  0
 30 18  2  0
 28 22  1  0
  1 34  1  0
  1 35  1  0
  4 36  1  0
 12 37  1  0
 14 38  1  0
 14 39  1  0
 14 40  1  0
 17 41  1  0
 21 42  1  0
 21 43  1  0
 23 44  1  0
 24 45  1  0
 26 46  1  0
 27 47  1  0
 28 48  1  0
 31 49  1  0
M  CHG  4   6  -1   9  -1  11  -1  19  -1
M  END
>  <UniqueID>  (46) 
43

>  <SMILES>  (46) 
C=c1c(=Cc2[n-]c(=O)[n-]c2[O-])cc(C)n1-c1cc2[n-]c(Cc3ccc(O)cc3)nc2cc1F

>  <Energy>  (46) 
162.688540086685

>  <Genealogy>  (46) 
C=c1c(=Cc2[n-]c(=O)[n-]c2[O-])cc(C)n1-c1cc2[n-]c(Cc3ccc(O)cc3)nc2cc1F (protonated)
C=c1c(=Cc2[n-]c(=O)[n-]c2[O-])cc(C)n1-c1cc2[n-]c(Cc3ccc(O)cc3)nc2cc1F (3D coordinates assigned)
C=c1c(=Cc2[n-]c(=O)[n-]c2[O-])cc(C)n1-c1cc2[n-]c(Cc3ccc(O)cc3)nc2cc1F (optimized conformer: 162.688540086685 kcal/mol)

>  <smiles>  (46) 
C=c1c(=Cc2[nH]c(=O)[nH]c2O)cc(C)n1-c1cc2[nH]c(Cc3ccc(O)cc3)nc2cc1F

>  <score_type>  (46) 
oracle

>  <origin>  (46) 
adg

>  <m_score__min__energy>  (46) 
-16.760000000000002

>  <m_primary>  (46) 
energy

$$$$
46:0
     RDKit          3D

 44 47  0  0  0  0  0  0  0  0999 V2000
   64.8550   32.0240   48.6540 H   0  0  0  0  0  0  0  0  0  0  0  0
   64.1510   31.9420   49.4220 N   0  0  0  0  0  0  0  0  0  0  0  0
   62.9400   31.5380   49.1980 C   0  0  0  0  0  0  0  0  0  0  0  0
   62.1340   32.1930   48.1370 C   0  0  0  0  0  0  0  0  0  0  0  0
   62.6590   33.3080   47.4260 C   0  0  0  0  0  0  0  0  0  0  0  0
   63.6657   33.6795   47.6681 H   0  0  0  0  0  0  0  0  0  0  0  0
   61.9110   33.9420   46.4190 C   0  0  0  0  0  0  0  0  0  0  0  0
   62.3197   34.7984   45.8627 H   0  0  0  0  0  0  0  0  0  0  0  0
   60.6370   33.4520   46.1480 C   0  0  0  0  0  0  0  0  0  0  0  0
   60.1160   32.3860   46.8310 C   0  0  0  0  0  0  0  0  0  0  0  0
   60.8300   31.7310   47.8300 C   0  0  0  0  0  0  0  0  0  0  0  0
   60.3933   30.8765   48.3676 H   0  0  0  0  0  0  0  0  0  0  0  0
   58.8560   32.1480   46.3290 C   0  0  0  0  0  0  0  0  0  0  0  0
   58.1483   31.3644   46.6374 H   0  0  0  0  0  0  0  0  0  0  0  0
   58.6740   33.1170   45.3450 C   0  0  0  0  0  0  0  0  0  0  0  0
   57.4730   33.2280   44.4570 C   0  0  0  0  0  0  0  0  0  0  0  0
   56.5970   33.4997   45.0642 H   0  0  0  0  0  0  0  0  0  0  0  0
   57.6606   34.0013   43.6975 H   0  0  0  0  0  0  0  0  0  0  0  0
   57.2060   31.8980   43.7550 C   0  0  0  0  0  0  0  0  0  0  0  0
   56.7692   32.0882   42.7635 H   0  0  0  0  0  0  0  0  0  0  0  0
   58.1518   31.3481   43.6403 H   0  0  0  0  0  0  0  0  0  0  0  0
   56.2770   31.1050   44.5510 N   0  0  0  0  0  0  0  0  0  0  0  0
   56.4840   29.7360   44.9240 C   0  0  0  0  0  0  0  0  0  0  0  0
   55.5100   28.9400   44.8680 O   0  0  0  0  0  0  0  0  0  0  0  0
   57.8070   29.2230   45.3300 C   0  0  0  0  0  0  0  0  0  0  0  0
   58.7140   28.7430   44.3730 C   0  0  0  0  0  0  0  0  0  0  0  0
   58.4371   28.7398   43.3084 H   0  0  0  0  0  0  0  0  0  0  0  0
   59.9680   28.2690   44.7680 C   0  0  0  0  0  0  0  0  0  0  0  0
   60.6716   27.8854   44.0145 H   0  0  0  0  0  0  0  0  0  0  0  0
   60.3300   28.2810   46.1160 C   0  0  0  0  0  0  0  0  0  0  0  0
   61.3158   27.8994   46.4205 H   0  0  0  0  0  0  0  0  0  0  0  0
   59.4440   28.7770   47.0860 C   0  0  0  0  0  0  0  0  0  0  0  0
   59.8300   28.7990   48.5120 C   0  0  0  0  0  0  0  0  0  0  0  0
   59.2980   29.6230   49.4340 N   0  0  0  0  0  0  0  0  0  0  0  0
   59.9200   29.3160   50.5610 N   0  0  0  0  0  0  0  0  0  0  0  0
   60.7940   28.3480   50.3390 N   0  0  0  0  0  0  0  0  0  0  0  0
   60.7630   28.0000   49.0630 N   0  0  0  0  0  0  0  0  0  0  0  0
   58.1830   29.2540   46.6820 C   0  0  0  0  0  0  0  0  0  0  0  0
   57.4858   29.6547   47.4326 H   0  0  0  0  0  0  0  0  0  0  0  0
   59.7670   33.9070   45.2310 N   0  0  0  0  0  0  0  0  0  0  0  0
   59.9090   34.6960   44.5610 H   0  0  0  0  0  0  0  0  0  0  0  0
   62.4020   30.4570   49.9690 N   0  0  0  0  0  0  0  0  0  0  0  0
   62.9500   30.0450   50.7570 H   0  0  0  0  0  0  0  0  0  0  0  0
   61.4970   30.0030   49.7170 H   0  0  0  0  0  0  0  0  0  0  0  0
  1  2  1  0
  2  3  2  0
  3  4  1  0
  4  5  2  0
  5  6  1  0
  5  7  1  0
  7  8  1  0
  7  9  2  0
  9 10  1  0
 10 11  2  0
 11 12  1  0
 10 13  1  0
 13 14  1  0
 13 15  2  0
 15 16  1  0
 16 17  1  0
 16 18  1  0
 16 19  1  0
 19 20  1  0
 19 21  1  0
 19 22  1  0
 22 23  1  0
 23 24  2  0
 23 25  1  0
 25 26  2  0
 26 27  1  0
 26 28  1  0
 28 29  1  0
 28 30  2  0
 30 31  1  0
 30 32  1  0
 32 33  1  0
 33 34  1  0
 34 35  2  0
 35 36  1  0
 36 37  1  0
 32 38  2  0
 38 39  1  0
 15 40  1  0
 40 41  1  0
  3 42  1  0
 42 43  1  0
 42 44  1  0
 11  4  1  0
 38 25  1  0
 40  9  1  0
 37 33  2  0
M  CHG  2  22  -1  36  -1
M  END
>  <UniqueID>  (47) 
44

>  <SMILES>  (47) 
[H]/N=C(\N)c1ccc2[nH]c(CC[N-]C(=O)c3cccc(-c4nn[n-]n4)c3)cc2c1

>  <Energy>  (47) 
120.99303085495396

>  <Genealogy>  (47) 
N=C(N)c1ccc2[nH]c(CC[N-]C(=O)c3cccc(-c4nn[n-]n4)c3)cc2c1 (protonated)
[H]/N=C(\N)c1ccc2[nH]c(CC[N-]C(=O)c3cccc(-c4nn[n-]n4)c3)cc2c1 (cis-trans isomerization)
[H]/N=C(\N)c1ccc2[nH]c(CC[N-]C(=O)c3cccc(-c4nn[n-]n4)c3)cc2c1 (3D coordinates assigned)
[H]/N=C(\N)c1ccc2[nH]c(CC[N-]C(=O)c3cccc(-c4nn[n-]n4)c3)cc2c1 (optimized conformer: 120.99303085495396 kcal/mol)

>  <smiles>  (47) 
N=C(N)c1ccc2[nH]c(CCNC(=O)c3cccc(-c4nn[nH]n4)c3)cc2c1

>  <score_type>  (47) 
oracle

>  <origin>  (47) 
adg

>  <m_score__min__energy>  (47) 
-11.06

>  <m_primary>  (47) 
energy

$$$$
47:0
     RDKit          3D

 40 43  0  0  0  0  0  0  0  0999 V2000
   58.1040   32.4940   48.3470 H   0  0  0  0  0  0  0  0  0  0  0  0
   58.2150   33.2870   47.7260 O   0  0  0  0  0  0  0  0  0  0  0  0
   58.1560   33.1400   46.3420 C   0  0  0  0  0  0  0  0  0  0  0  0
   58.6790   34.1390   45.4850 C   0  0  0  0  0  0  0  0  0  0  0  0
   59.1371   35.0418   45.9152 H   0  0  0  0  0  0  0  0  0  0  0  0
   58.6190   33.9900   44.1270 N   0  0  0  0  0  0  0  0  0  0  0  0
   58.0520   32.8730   43.6100 C   0  0  0  0  0  0  0  0  0  0  0  0
   57.5370   31.8830   44.4010 C   0  0  0  0  0  0  0  0  0  0  0  0
   57.5720   31.9860   45.7900 C   0  0  0  0  0  0  0  0  0  0  0  0
   57.1581   31.1938   46.4312 H   0  0  0  0  0  0  0  0  0  0  0  0
   57.0530   30.9100   43.5490 C   0  0  0  0  0  0  0  0  0  0  0  0
   56.4470   29.5880   43.9100 C   0  0  0  0  0  0  0  0  0  0  0  0
   56.3280   28.9823   42.9995 H   0  0  0  0  0  0  0  0  0  0  0  0
   55.4666   29.7590   44.3786 H   0  0  0  0  0  0  0  0  0  0  0  0
   57.3320   28.8580   44.8790 C   0  0  0  0  0  0  0  0  0  0  0  0
   58.6340   29.2260   44.9980 N   0  0  0  0  0  0  0  0  0  0  0  0
   59.4760   28.6310   45.8820 C   0  0  0  0  0  0  0  0  0  0  0  0
   60.6860   28.9740   45.8880 O   0  0  0  0  0  0  0  0  0  0  0  0
   58.9780   27.6130   46.7340 C   0  0  0  0  0  0  0  0  0  0  0  0
   59.6940   26.9840   47.6270 N   0  0  0  0  0  0  0  0  0  0  0  0
   60.1720   27.4450   48.9010 C   0  0  0  0  0  0  0  0  0  0  0  0
   60.7800   26.6500   49.6700 O   0  0  0  0  0  0  0  0  0  0  0  0
   60.0580   28.8760   49.2620 C   0  0  0  0  0  0  0  0  0  0  0  0
   61.1410   29.7540   49.0610 C   0  0  0  0  0  0  0  0  0  0  0  0
   62.0788   29.3748   48.6289 H   0  0  0  0  0  0  0  0  0  0  0  0
   61.0320   31.1040   49.4070 C   0  0  0  0  0  0  0  0  0  0  0  0
   61.8827   31.7820   49.2442 H   0  0  0  0  0  0  0  0  0  0  0  0
   59.8460   31.5950   49.9590 C   0  0  0  0  0  0  0  0  0  0  0  0
   59.7020   33.4400   50.4300 Br  0  0  0  0  0  0  0  0  0  0  0  0
   58.7650   30.7330   50.1650 C   0  0  0  0  0  0  0  0  0  0  0  0
   57.8305   31.1185   50.5987 H   0  0  0  0  0  0  0  0  0  0  0  0
   58.8690   29.3820   49.8210 C   0  0  0  0  0  0  0  0  0  0  0  0
   58.0151   28.7090   49.9884 H   0  0  0  0  0  0  0  0  0  0  0  0
   57.6770   27.2410   46.5920 N   0  0  0  0  0  0  0  0  0  0  0  0
   56.8430   27.8340   45.7010 C   0  0  0  0  0  0  0  0  0  0  0  0
   55.5200   27.4160   45.6180 O   0  0  0  0  0  0  0  0  0  0  0  0
   57.3190   31.3730   42.2610 C   0  0  0  0  0  0  0  0  0  0  0  0
   57.0687   30.8317   41.3367 H   0  0  0  0  0  0  0  0  0  0  0  0
   57.9280   32.5810   42.3060 N   0  0  0  0  0  0  0  0  0  0  0  0
   58.2440   33.1570   41.4950 H   0  0  0  0  0  0  0  0  0  0  0  0
  1  2  1  0
  2  3  1  0
  3  4  2  0
  4  5  1  0
  4  6  1  0
  6  7  2  0
  7  8  1  0
  8  9  2  0
  9 10  1  0
  8 11  1  0
 11 12  1  0
 12 13  1  0
 12 14  1  0
 12 15  1  0
 15 16  1  0
 16 17  1  0
 17 18  2  0
 17 19  1  0
 19 20  2  0
 20 21  1  0
 21 22  2  0
 21 23  1  0
 23 24  2  0
 24 25  1  0
 24 26  1  0
 26 27  1  0
 26 28  2  0
 28 29  1  0
 28 30  1  0
 30 31  1  0
 30 32  2  0
 32 33  1  0
 19 34  1  0
 34 35  1  0
 35 36  1  0
 11 37  2  0
 37 38  1  0
 37 39  1  0
 39 40  1  0
  9  3  1  0
 35 15  2  0
 39  7  1  0
 32 23  1  0
M  CHG  3  16  -1  34  -1  36  -1
M  END
>  <UniqueID>  (48) 
45

>  <SMILES>  (48) 
O=C(/N=c1/[n-]c([O-])c(Cc2c[nH]c3ncc(O)cc23)[n-]c1=O)c1ccc(Br)cc1

>  <Energy>  (48) 
92.7716823114809

>  <Genealogy>  (48) 
O=C(N=c1[n-]c([O-])c(Cc2c[nH]c3ncc(O)cc23)[n-]c1=O)c1ccc(Br)cc1 (protonated)
O=C(/N=c1/[n-]c([O-])c(Cc2c[nH]c3ncc(O)cc23)[n-]c1=O)c1ccc(Br)cc1 (cis-trans isomerization)
O=C(/N=c1/[n-]c([O-])c(Cc2c[nH]c3ncc(O)cc23)[n-]c1=O)c1ccc(Br)cc1 (3D coordinates assigned)
O=C(/N=c1/[n-]c([O-])c(Cc2c[nH]c3ncc(O)cc23)[n-]c1=O)c1ccc(Br)cc1 (optimized conformer: 92.7716823114809 kcal/mol)

>  <smiles>  (48) 
O=C(N=c1[nH]c(O)c(Cc2c[nH]c3ncc(O)cc23)[nH]c1=O)c1ccc(Br)cc1

>  <score_type>  (48) 
oracle

>  <origin>  (48) 
adg

>  <m_score__min__energy>  (48) 
-15.630000000000001

>  <m_primary>  (48) 
energy

$$$$
48:0
     RDKit          3D

 59 62  0  0  0  0  0  0  0  0999 V2000
   64.1400   32.6060   46.9410 N   0  0  0  0  0  0  0  0  0  0  0  0
   62.8300   32.7310   47.5010 C   0  0  0  0  0  0  0  0  0  0  0  0
   62.3830   31.8120   48.4590 C   0  0  0  0  0  0  0  0  0  0  0  0
   61.1080   31.9390   49.0140 C   0  0  0  0  0  0  0  0  0  0  0  0
   60.2650   32.9750   48.6030 C   0  0  0  0  0  0  0  0  0  0  0  0
   60.6840   33.8870   47.6190 C   0  0  0  0  0  0  0  0  0  0  0  0
   59.7650   35.0000   47.1520 C   0  0  0  0  0  0  0  0  0  0  0  0
   58.7460   34.5630   46.1680 N   0  0  0  0  0  0  0  0  0  0  0  0
   59.3050   34.2480   44.8320 C   0  0  0  0  0  0  0  0  0  0  0  0
   58.3490   33.3940   43.9940 C   0  0  0  0  0  0  0  0  0  0  0  0
   58.0410   32.1540   44.7150 N   0  0  0  0  0  0  0  0  0  0  0  0
   57.6270   30.9860   43.9820 C   0  0  0  0  0  0  0  0  0  0  0  0
   57.0140   31.1240   42.8890 O   0  0  0  0  0  0  0  0  0  0  0  0
   57.9030   29.6220   44.4870 C   0  0  0  0  0  0  0  0  0  0  0  0
   59.2150   29.1280   44.5320 C   0  0  0  0  0  0  0  0  0  0  0  0
   59.4720   27.8420   45.0120 C   0  0  0  0  0  0  0  0  0  0  0  0
   58.4180   27.0170   45.4510 C   0  0  0  0  0  0  0  0  0  0  0  0
   58.6720   25.6490   45.9700 C   0  0  0  0  0  0  0  0  0  0  0  0
   59.8550   25.2070   45.9880 O   0  0  0  0  0  0  0  0  0  0  0  0
   57.5570   24.7970   46.5270 C   0  0  0  0  0  0  0  0  0  0  0  0
   57.1940   23.6640   45.6000 C   0  0  0  0  0  0  0  0  0  0  0  0
   57.2460   22.3340   46.0470 C   0  0  0  0  0  0  0  0  0  0  0  0
   56.9340   21.2850   45.1770 C   0  0  0  0  0  0  0  0  0  0  0  0
   56.5770   21.5530   43.8510 C   0  0  0  0  0  0  0  0  0  0  0  0
   56.2700   20.4980   42.9940 O   0  0  0  0  0  0  0  0  0  0  0  0
   56.5380   22.8780   43.3950 C   0  0  0  0  0  0  0  0  0  0  0  0
   56.8480   23.9280   44.2650 C   0  0  0  0  0  0  0  0  0  0  0  0
   57.1020   27.5070   45.3750 C   0  0  0  0  0  0  0  0  0  0  0  0
   56.8460   28.7940   44.8940 C   0  0  0  0  0  0  0  0  0  0  0  0
   57.9820   32.1710   46.1840 C   0  0  0  0  0  0  0  0  0  0  0  0
   57.7510   33.6000   46.6970 C   0  0  0  0  0  0  0  0  0  0  0  0
   61.9830   33.7710   47.0910 C   0  0  0  0  0  0  0  0  0  0  0  0
   64.8610   33.3460   47.0950 H   0  0  0  0  0  0  0  0  0  0  0  0
   64.4010   31.7680   46.3750 H   0  0  0  0  0  0  0  0  0  0  0  0
   63.0387   30.9873   48.7752 H   0  0  0  0  0  0  0  0  0  0  0  0
   60.7667   31.2226   49.7758 H   0  0  0  0  0  0  0  0  0  0  0  0
   59.2664   33.0775   49.0528 H   0  0  0  0  0  0  0  0  0  0  0  0
   59.2451   35.4114   48.0298 H   0  0  0  0  0  0  0  0  0  0  0  0
   60.3969   35.7462   46.6480 H   0  0  0  0  0  0  0  0  0  0  0  0
   59.4999   35.1898   44.2981 H   0  0  0  0  0  0  0  0  0  0  0  0
   60.2314   33.6736   44.9794 H   0  0  0  0  0  0  0  0  0  0  0  0
   57.4195   33.9539   43.8138 H   0  0  0  0  0  0  0  0  0  0  0  0
   58.8229   33.1505   43.0316 H   0  0  0  0  0  0  0  0  0  0  0  0
   60.0477   29.7583   44.1866 H   0  0  0  0  0  0  0  0  0  0  0  0
   60.5066   27.4700   45.0476 H   0  0  0  0  0  0  0  0  0  0  0  0
   57.8788   24.3774   47.4916 H   0  0  0  0  0  0  0  0  0  0  0  0
   56.6693   25.4354   46.6468 H   0  0  0  0  0  0  0  0  0  0  0  0
   57.5335   22.1164   47.0862 H   0  0  0  0  0  0  0  0  0  0  0  0
   56.9693   20.2459   45.5361 H   0  0  0  0  0  0  0  0  0  0  0  0
   56.7940   19.6310   43.0120 H   0  0  0  0  0  0  0  0  0  0  0  0
   56.2632   23.0920   42.3516 H   0  0  0  0  0  0  0  0  0  0  0  0
   56.8207   24.9659   43.9017 H   0  0  0  0  0  0  0  0  0  0  0  0
   56.2650   26.8704   45.6977 H   0  0  0  0  0  0  0  0  0  0  0  0
   55.8103   29.1597   44.8342 H   0  0  0  0  0  0  0  0  0  0  0  0
   57.1556   31.5277   46.5205 H   0  0  0  0  0  0  0  0  0  0  0  0
   58.9379   31.8003   46.5825 H   0  0  0  0  0  0  0  0  0  0  0  0
   56.7466   33.9266   46.3897 H   0  0  0  0  0  0  0  0  0  0  0  0
   57.8542   33.5818   47.7920 H   0  0  0  0  0  0  0  0  0  0  0  0
   62.3375   34.5026   46.3500 H   0  0  0  0  0  0  0  0  0  0  0  0
  1  2  1  0
  2  3  2  0
  3  4  1  0
  4  5  2  0
  5  6  1  0
  6  7  1  0
  7  8  1  0
  8  9  1  0
  9 10  1  0
 10 11  1  0
 11 12  1  0
 12 13  2  0
 12 14  1  0
 14 15  2  0
 15 16  1  0
 16 17  2  0
 17 18  1  0
 18 19  2  0
 18 20  1  0
 20 21  1  0
 21 22  2  0
 22 23  1  0
 23 24  2  0
 24 25  1  0
 24 26  1  0
 26 27  2  0
 17 28  1  0
 28 29  2  0
 11 30  1  0
 30 31  1  0
  6 32  2  0
 32  2  1  0
 31  8  1  0
 29 14  1  0
 27 21  1  0
  1 33  1  0
  1 34  1  0
  3 35  1  0
  4 36  1  0
  5 37  1  0
  7 38  1  0
  7 39  1  0
  9 40  1  0
  9 41  1  0
 10 42  1  0
 10 43  1  0
 15 44  1  0
 16 45  1  0
 20 46  1  0
 20 47  1  0
 22 48  1  0
 23 49  1  0
 25 50  1  0
 26 51  1  0
 27 52  1  0
 28 53  1  0
 29 54  1  0
 30 55  1  0
 30 56  1  0
 31 57  1  0
 31 58  1  0
 32 59  1  0
M  END
>  <UniqueID>  (49) 
46

>  <SMILES>  (49) 
Nc1cccc(CN2CCN(C(=O)c3ccc(C(=O)Cc4ccc(O)cc4)cc3)CC2)c1

>  <Energy>  (49) 
76.83371311864148

>  <Genealogy>  (49) 
Nc1cccc(CN2CCN(C(=O)c3ccc(C(=O)Cc4ccc(O)cc4)cc3)CC2)c1 (3D coordinates assigned)
Nc1cccc(CN2CCN(C(=O)c3ccc(C(=O)Cc4ccc(O)cc4)cc3)CC2)c1 (nonaromatic ring conformer: 76.83371311864148 kcal/mol)

>  <smiles>  (49) 
Nc1cccc(CN2CCN(C(=O)c3ccc(C(=O)Cc4ccc(O)cc4)cc3)CC2)c1

>  <score_type>  (49) 
oracle

>  <origin>  (49) 
adg

>  <m_score__min__energy>  (49) 
-10.699999999999999

>  <m_primary>  (49) 
energy

$$$$
49:0
     RDKit          3D

 31 34  0  0  0  0  0  0  0  0999 V2000
   57.8588   23.4457   42.9617 H   0  0  0  0  0  0  0  0  0  0  0  0
   57.0460   23.5110   43.7000 C   0  0  0  0  0  0  0  0  0  0  0  0
   56.7440   24.7370   44.3000 C   0  0  0  0  0  0  0  0  0  0  0  0
   57.3096   25.6371   44.0173 H   0  0  0  0  0  0  0  0  0  0  0  0
   55.7260   24.8280   45.2590 C   0  0  0  0  0  0  0  0  0  0  0  0
   55.4290   26.1140   45.8280 N   0  0  0  0  0  0  0  0  0  0  0  0
   56.2610   27.0990   45.9990 C   0  0  0  0  0  0  0  0  0  0  0  0
   57.3140   27.0530   46.8590 N   0  0  0  0  0  0  0  0  0  0  0  0
   57.8880   28.2490   46.6660 C   0  0  0  0  0  0  0  0  0  0  0  0
   59.0190   28.7670   47.2860 C   0  0  0  0  0  0  0  0  0  0  0  0
   59.5636   28.1840   48.0433 H   0  0  0  0  0  0  0  0  0  0  0  0
   59.4380   30.0200   46.9310 N   0  0  0  0  0  0  0  0  0  0  0  0
   60.2890   30.4080   47.3980 H   0  0  0  0  0  0  0  0  0  0  0  0
   58.7700   30.7640   45.9870 C   0  0  0  0  0  0  0  0  0  0  0  0
   59.2190   32.0480   45.6390 C   0  0  0  0  0  0  0  0  0  0  0  0
   60.1128   32.4674   46.1240 H   0  0  0  0  0  0  0  0  0  0  0  0
   58.5310   32.7950   44.6760 C   0  0  0  0  0  0  0  0  0  0  0  0
   58.8876   33.8003   44.4072 H   0  0  0  0  0  0  0  0  0  0  0  0
   57.3930   32.2720   44.0530 C   0  0  0  0  0  0  0  0  0  0  0  0
   56.8595   32.8678   43.2977 H   0  0  0  0  0  0  0  0  0  0  0  0
   56.9310   30.9960   44.3860 C   0  0  0  0  0  0  0  0  0  0  0  0
   56.0361   30.5872   43.8941 H   0  0  0  0  0  0  0  0  0  0  0  0
   57.6120   30.2390   45.3490 C   0  0  0  0  0  0  0  0  0  0  0  0
   57.2060   28.9600   45.7310 C   0  0  0  0  0  0  0  0  0  0  0  0
   56.1620   28.2470   45.2810 N   0  0  0  0  0  0  0  0  0  0  0  0
   54.9740   23.6780   45.5720 C   0  0  0  0  0  0  0  0  0  0  0  0
   54.1459   23.7446   46.2930 H   0  0  0  0  0  0  0  0  0  0  0  0
   55.2760   22.4530   44.9700 C   0  0  0  0  0  0  0  0  0  0  0  0
   54.6955   21.5555   45.2298 H   0  0  0  0  0  0  0  0  0  0  0  0
   56.3150   22.3670   44.0380 C   0  0  0  0  0  0  0  0  0  0  0  0
   56.6920   20.8300   43.2810 Cl  0  0  0  0  0  0  0  0  0  0  0  0
  1  2  1  0
  2  3  2  0
  3  4  1  0
  3  5  1  0
  5  6  1  0
  6  7  2  0
  7  8  1  0
  8  9  1  0
  9 10  2  0
 10 11  1  0
 10 12  1  0
 12 13  1  0
 12 14  2  0
 14 15  1  0
 15 16  1  0
 15 17  2  0
 17 18  1  0
 17 19  1  0
 19 20  1  0
 19 21  2  0
 21 22  1  0
 21 23  1  0
 23 24  2  0
 24 25  1  0
  5 26  2  0
 26 27  1  0
 26 28  1  0
 28 29  1  0
 28 30  2  0
 30 31  1  0
 30  2  1  0
 25  7  1  0
 24  9  1  0
 23 14  1  0
M  CHG  3   8  -1  12   1  25  -1
M  END
>  <UniqueID>  (50) 
47

>  <SMILES>  (50) 
Clc1ccc(/N=c2\[n-]c3c[nH+]c4ccccc4c3[n-]2)cc1

>  <Energy>  (50) 
80.54349789042044

>  <Genealogy>  (50) 
Clc1ccc(N=c2[n-]c3c[nH+]c4ccccc4c3[n-]2)cc1 (protonated)
Clc1ccc(/N=c2\[n-]c3c[nH+]c4ccccc4c3[n-]2)cc1 (cis-trans isomerization)
Clc1ccc(/N=c2\[n-]c3c[nH+]c4ccccc4c3[n-]2)cc1 (3D coordinates assigned)
Clc1ccc(/N=c2\[n-]c3c[nH+]c4ccccc4c3[n-]2)cc1 (optimized conformer: 80.54349789042044 kcal/mol)

>  <smiles>  (50) 
Clc1ccc(N=c2[nH]c3cnc4ccccc4c3[nH]2)cc1

>  <score_type>  (50) 
oracle

>  <origin>  (50) 
adg

>  <m_score__min__energy>  (50) 
-8.7599999999999998

>  <m_primary>  (50) 
energy

$$$$
50:0
     RDKit          3D

 47 50  0  0  0  0  0  0  0  0999 V2000
   58.9180   29.1280   46.6740 C   0  0  0  0  0  0  0  0  0  0  0  0
   58.3540   29.1200   45.4550 C   0  0  0  0  0  0  0  0  0  0  0  0
   58.0340   28.0020   44.6650 C   0  0  0  0  0  0  0  0  0  0  0  0
   58.3170   26.6940   44.8210 C   0  0  0  0  0  0  0  0  0  0  0  0
   57.6110   25.7630   45.7230 C   0  0  0  0  0  0  0  0  0  0  0  0
   56.2710   25.9740   46.1130 C   0  0  0  0  0  0  0  0  0  0  0  0
   55.5320   27.0680   45.6600 O   0  0  0  0  0  0  0  0  0  0  0  0
   55.6740   25.0920   46.9570 N   0  0  0  0  0  0  0  0  0  0  0  0
   56.3460   24.0230   47.4520 C   0  0  0  0  0  0  0  0  0  0  0  0
   55.7660   23.2210   48.2300 O   0  0  0  0  0  0  0  0  0  0  0  0
   57.6440   23.8180   47.1140 N   0  0  0  0  0  0  0  0  0  0  0  0
   58.2900   24.6630   46.2710 C   0  0  0  0  0  0  0  0  0  0  0  0
   59.4970   24.4450   45.9830 O   0  0  0  0  0  0  0  0  0  0  0  0
   57.3310   28.4880   43.5730 C   0  0  0  0  0  0  0  0  0  0  0  0
   57.2910   29.8600   43.7000 C   0  0  0  0  0  0  0  0  0  0  0  0
   56.6350   30.7860   42.7230 C   0  0  0  0  0  0  0  0  0  0  0  0
   57.9040   30.2440   44.8400 N   0  0  0  0  0  0  0  0  0  0  0  0
   58.0420   31.6010   45.2980 C   0  0  0  0  0  0  0  0  0  0  0  0
   56.9530   32.4810   45.2240 C   0  0  0  0  0  0  0  0  0  0  0  0
   57.0800   33.7930   45.6820 C   0  0  0  0  0  0  0  0  0  0  0  0
   58.2940   34.2350   46.2140 C   0  0  0  0  0  0  0  0  0  0  0  0
   59.3940   33.3700   46.2900 C   0  0  0  0  0  0  0  0  0  0  0  0
   60.6210   33.8730   46.8330 N   0  0  0  0  0  0  0  0  0  0  0  0
   61.2200   33.5660   48.4300 S   0  0  0  0  0  0  0  0  0  0  0  0
   60.7990   32.1820   48.8350 O   0  0  0  0  0  0  0  0  0  0  0  0
   60.6180   34.5540   49.3930 O   0  0  0  0  0  0  0  0  0  0  0  0
   63.0120   33.6390   48.4270 C   0  0  0  0  0  0  0  0  0  0  0  0
   63.6270   33.2750   47.0850 C   0  0  0  0  0  0  0  0  0  0  0  0
   63.7450   32.3180   48.2570 C   0  0  0  0  0  0  0  0  0  0  0  0
   59.2600   32.0470   45.8320 C   0  0  0  0  0  0  0  0  0  0  0  0
   59.1145   30.0832   47.1828 H   0  0  0  0  0  0  0  0  0  0  0  0
   59.1834   28.1793   47.1635 H   0  0  0  0  0  0  0  0  0  0  0  0
   59.1457   26.2846   44.2247 H   0  0  0  0  0  0  0  0  0  0  0  0
   54.7720   27.4750   46.1880 H   0  0  0  0  0  0  0  0  0  0  0  0
   56.8895   27.8923   42.7604 H   0  0  0  0  0  0  0  0  0  0  0  0
   56.0832   31.5649   43.2697 H   0  0  0  0  0  0  0  0  0  0  0  0
   57.4028   31.2559   42.0908 H   0  0  0  0  0  0  0  0  0  0  0  0
   55.9371   30.2175   42.0908 H   0  0  0  0  0  0  0  0  0  0  0  0
   55.9965   32.1365   44.8040 H   0  0  0  0  0  0  0  0  0  0  0  0
   56.2231   34.4803   45.6241 H   0  0  0  0  0  0  0  0  0  0  0  0
   58.3870   35.2696   46.5759 H   0  0  0  0  0  0  0  0  0  0  0  0
   63.0933   34.4691   49.1442 H   0  0  0  0  0  0  0  0  0  0  0  0
   62.9783   33.0236   46.2330 H   0  0  0  0  0  0  0  0  0  0  0  0
   64.3400   33.7572   46.4001 H   0  0  0  0  0  0  0  0  0  0  0  0
   63.1818   31.3731   48.2541 H   0  0  0  0  0  0  0  0  0  0  0  0
   64.5790   31.8197   48.7729 H   0  0  0  0  0  0  0  0  0  0  0  0
   60.1153   31.3580   45.8929 H   0  0  0  0  0  0  0  0  0  0  0  0
  1  2  2  0
  2  3  1  0
  3  4  2  3
  4  5  1  0
  5  6  2  0
  6  7  1  0
  6  8  1  0
  8  9  1  0
  9 10  2  0
  9 11  1  0
 11 12  1  0
 12 13  2  0
  3 14  1  0
 14 15  2  0
 15 16  1  0
 15 17  1  0
 17 18  1  0
 18 19  2  0
 19 20  1  0
 20 21  2  0
 21 22  1  0
 22 23  1  0
 23 24  1  0
 24 25  2  0
 24 26  2  0
 24 27  1  0
 27 28  1  0
 28 29  1  0
 22 30  2  0
 17  2  1  0
 30 18  1  0
 12  5  1  0
 29 27  1  0
  1 31  1  0
  1 32  1  0
  4 33  1  0
  7 34  1  0
 14 35  1  0
 16 36  1  0
 16 37  1  0
 16 38  1  0
 19 39  1  0
 20 40  1  0
 21 41  1  0
 27 42  1  0
 28 43  1  0
 28 44  1  0
 29 45  1  0
 29 46  1  0
 30 47  1  0
M  CHG  3   8  -1  11  -1  23  -1
M  END
>  <UniqueID>  (51) 
48

>  <SMILES>  (51) 
C=c1c(=Cc2c(O)[n-]c(=O)[n-]c2=O)cc(C)n1-c1cccc([N-]S(=O)(=O)C2CC2)c1

>  <Energy>  (51) 
362.9791451332767

>  <Genealogy>  (51) 
C=c1c(=Cc2c(O)[n-]c(=O)[n-]c2=O)cc(C)n1-c1cccc([N-]S(=O)(=O)C2CC2)c1 (protonated)
C=c1c(=Cc2c(O)[n-]c(=O)[n-]c2=O)cc(C)n1-c1cccc([N-]S(=O)(=O)C2CC2)c1 (3D coordinates assigned)
C=c1c(=Cc2c(O)[n-]c(=O)[n-]c2=O)cc(C)n1-c1cccc([N-]S(=O)(=O)C2CC2)c1 (nonaromatic ring conformer: 362.9791451332767 kcal/mol)

>  <smiles>  (51) 
C=c1c(=Cc2c(O)[nH]c(=O)[nH]c2=O)cc(C)n1-c1cccc(NS(=O)(=O)C2CC2)c1

>  <score_type>  (51) 
oracle

>  <origin>  (51) 
adg

>  <m_score__min__energy>  (51) 
-14.43

>  <m_primary>  (51) 
energy

$$$$
51:0
     RDKit          3D

 43 45  0  0  0  0  0  0  0  0999 V2000
   54.6850   25.9730   45.9780 O   0  0  0  0  0  0  0  0  0  0  0  0
   55.9130   25.6980   45.9140 C   0  0  0  0  0  0  0  0  0  0  0  0
   56.8400   26.5320   46.6210 N   0  0  0  0  0  0  0  0  0  0  0  0
   57.6810   27.5450   46.0490 C   0  0  0  0  0  0  0  0  0  0  0  0
   59.0550   27.3030   45.9430 C   0  0  0  0  0  0  0  0  0  0  0  0
   59.9020   28.2710   45.3960 C   0  0  0  0  0  0  0  0  0  0  0  0
   59.3830   29.4930   44.9630 C   0  0  0  0  0  0  0  0  0  0  0  0
   58.0130   29.7620   45.0890 C   0  0  0  0  0  0  0  0  0  0  0  0
   57.3570   31.3140   44.5660 S   0  0  0  0  0  0  0  0  0  0  0  0
   57.8780   31.6360   43.1920 O   0  0  0  0  0  0  0  0  0  0  0  0
   55.8590   31.2140   44.4820 O   0  0  0  0  0  0  0  0  0  0  0  0
   57.7920   32.6000   45.6680 N   0  0  0  0  0  0  0  0  0  0  0  0
   58.5620   32.0890   46.8300 C   0  0  0  0  0  0  0  0  0  0  0  0
   60.0660   32.3820   46.7270 C   0  0  0  0  0  0  0  0  0  0  0  0
   60.3310   33.8930   46.6080 C   0  0  0  0  0  0  0  0  0  0  0  0
   59.1980   34.6410   45.8850 C   0  0  0  0  0  0  0  0  0  0  0  0
   58.4410   33.7090   44.9340 C   0  0  0  0  0  0  0  0  0  0  0  0
   57.1670   28.7880   45.6390 C   0  0  0  0  0  0  0  0  0  0  0  0
   56.3530   24.5020   45.1580 C   0  0  0  0  0  0  0  0  0  0  0  0
   56.8740   23.3910   45.8420 C   0  0  0  0  0  0  0  0  0  0  0  0
   57.2680   22.2630   45.1230 C   0  0  0  0  0  0  0  0  0  0  0  0
   57.1490   22.2480   43.7340 C   0  0  0  0  0  0  0  0  0  0  0  0
   56.6430   23.3730   43.0810 C   0  0  0  0  0  0  0  0  0  0  0  0
   56.2640   24.4680   43.7940 N   0  0  0  0  0  0  0  0  0  0  0  0
   59.4707   26.3462   46.2919 H   0  0  0  0  0  0  0  0  0  0  0  0
   60.9797   28.0698   45.3064 H   0  0  0  0  0  0  0  0  0  0  0  0
   60.0514   30.2469   44.5216 H   0  0  0  0  0  0  0  0  0  0  0  0
   58.1740   32.5629   47.7437 H   0  0  0  0  0  0  0  0  0  0  0  0
   58.4398   30.9960   46.8516 H   0  0  0  0  0  0  0  0  0  0  0  0
   60.5687   31.9993   47.6274 H   0  0  0  0  0  0  0  0  0  0  0  0
   60.4565   31.8875   45.8253 H   0  0  0  0  0  0  0  0  0  0  0  0
   60.4393   34.3117   47.6194 H   0  0  0  0  0  0  0  0  0  0  0  0
   61.2468   34.0231   46.0127 H   0  0  0  0  0  0  0  0  0  0  0  0
   58.4959   35.0389   46.6325 H   0  0  0  0  0  0  0  0  0  0  0  0
   59.6393   35.4582   45.2956 H   0  0  0  0  0  0  0  0  0  0  0  0
   57.6697   34.2875   44.4045 H   0  0  0  0  0  0  0  0  0  0  0  0
   59.1624   33.2787   44.2238 H   0  0  0  0  0  0  0  0  0  0  0  0
   56.0930   28.9980   45.7505 H   0  0  0  0  0  0  0  0  0  0  0  0
   56.9705   23.4108   46.9376 H   0  0  0  0  0  0  0  0  0  0  0  0
   57.6720   21.3866   45.6509 H   0  0  0  0  0  0  0  0  0  0  0  0
   57.4504   21.3598   43.1594 H   0  0  0  0  0  0  0  0  0  0  0  0
   56.5502   23.3743   41.9849 H   0  0  0  0  0  0  0  0  0  0  0  0
   55.9130   25.2990   43.2680 H   0  0  0  0  0  0  0  0  0  0  0  0
  1  2  2  0
  2  3  1  0
  3  4  1  0
  4  5  2  0
  5  6  1  0
  6  7  2  0
  7  8  1  0
  8  9  1  0
  9 10  2  0
  9 11  2  0
  9 12  1  0
 12 13  1  0
 13 14  1  0
 14 15  1  0
 15 16  1  0
 16 17  1  0
  8 18  2  0
  2 19  1  0
 19 20  2  0
 20 21  1  0
 21 22  2  0
 22 23  1  0
 23 24  2  0
 18  4  1  0
 24 19  1  0
 17 12  1  0
  5 25  1  0
  6 26  1  0
  7 27  1  0
 13 28  1  0
 13 29  1  0
 14 30  1  0
 14 31  1  0
 15 32  1  0
 15 33  1  0
 16 34  1  0
 16 35  1  0
 17 36  1  0
 17 37  1  0
 18 38  1  0
 20 39  1  0
 21 40  1  0
 22 41  1  0
 23 42  1  0
 24 43  1  0
M  CHG  2   3  -1  24   1
M  END
>  <UniqueID>  (52) 
49

>  <SMILES>  (52) 
O=C([N-]c1cccc(S(=O)(=O)N2CCCCC2)c1)c1cccc[nH+]1

>  <Energy>  (52) 
54.68711348749547

>  <Genealogy>  (52) 
O=C([N-]c1cccc(S(=O)(=O)N2CCCCC2)c1)c1cccc[nH+]1 (protonated)
O=C([N-]c1cccc(S(=O)(=O)N2CCCCC2)c1)c1cccc[nH+]1 (3D coordinates assigned)
O=C([N-]c1cccc(S(=O)(=O)N2CCCCC2)c1)c1cccc[nH+]1 (nonaromatic ring conformer: 54.68711348749547 kcal/mol)

>  <smiles>  (52) 
O=C(Nc1cccc(S(=O)(=O)N2CCCCC2)c1)c1ccccn1

>  <score_type>  (52) 
oracle

>  <origin>  (52) 
adg

>  <m_score__min__energy>  (52) 
-9.5399999999999991

>  <m_primary>  (52) 
energy

$$$$
52:0
     RDKit          3D

 30 31  0  0  0  0  0  0  0  0999 V2000
   55.4400   29.7810   44.7350 O   0  0  0  0  0  0  0  0  0  0  0  0
   56.5370   29.7120   44.2020 C   0  0  0  0  0  0  0  0  0  0  0  0
   57.3640   28.4620   44.3640 C   0  0  0  0  0  0  0  0  0  0  0  0
   57.4570   28.0220   45.8040 C   0  0  0  0  0  0  0  0  0  0  0  0
   57.7130   28.8990   46.6720 O   0  0  0  0  0  0  0  0  0  0  0  0
   57.2630   26.6060   46.2390 C   0  0  0  0  0  0  0  0  0  0  0  0
   55.9840   26.0230   46.3650 C   0  0  0  0  0  0  0  0  0  0  0  0
   54.8360   26.7160   46.0040 O   0  0  0  0  0  0  0  0  0  0  0  0
   55.8590   24.7490   46.8160 N   0  0  0  0  0  0  0  0  0  0  0  0
   56.9450   24.0050   47.1350 C   0  0  0  0  0  0  0  0  0  0  0  0
   56.8000   22.8290   47.5590 O   0  0  0  0  0  0  0  0  0  0  0  0
   58.1890   24.5230   46.9890 N   0  0  0  0  0  0  0  0  0  0  0  0
   58.3740   25.7920   46.5460 C   0  0  0  0  0  0  0  0  0  0  0  0
   59.5500   26.2300   46.4280 O   0  0  0  0  0  0  0  0  0  0  0  0
   57.0370   30.8780   43.3900 C   0  0  0  0  0  0  0  0  0  0  0  0
   57.6670   31.9260   44.2720 C   0  0  0  0  0  0  0  0  0  0  0  0
   58.1460   33.1270   43.7200 C   0  0  0  0  0  0  0  0  0  0  0  0
   58.7170   34.1040   44.5420 C   0  0  0  0  0  0  0  0  0  0  0  0
   58.8280   33.8840   45.9170 C   0  0  0  0  0  0  0  0  0  0  0  0
   58.3710   32.6860   46.4730 C   0  0  0  0  0  0  0  0  0  0  0  0
   57.7910   31.7100   45.6550 C   0  0  0  0  0  0  0  0  0  0  0  0
   56.9038   27.6543   43.7759 H   0  0  0  0  0  0  0  0  0  0  0  0
   58.3825   28.6834   44.0124 H   0  0  0  0  0  0  0  0  0  0  0  0
   57.7859   30.5184   42.6690 H   0  0  0  0  0  0  0  0  0  0  0  0
   56.1817   31.3309   42.8672 H   0  0  0  0  0  0  0  0  0  0  0  0
   58.0713   33.2992   42.6361 H   0  0  0  0  0  0  0  0  0  0  0  0
   59.0790   35.0465   44.1053 H   0  0  0  0  0  0  0  0  0  0  0  0
   59.2754   34.6542   46.5625 H   0  0  0  0  0  0  0  0  0  0  0  0
   58.4673   32.5102   47.5546 H   0  0  0  0  0  0  0  0  0  0  0  0
   57.4304   30.7693   46.0966 H   0  0  0  0  0  0  0  0  0  0  0  0
  1  2  2  0
  2  3  1  0
  3  4  1  0
  4  5  2  0
  4  6  1  0
  6  7  2  0
  7  8  1  0
  7  9  1  0
  9 10  1  0
 10 11  2  0
 10 12  1  0
 12 13  1  0
 13 14  2  0
  2 15  1  0
 15 16  1  0
 16 17  2  0
 17 18  1  0
 18 19  2  0
 19 20  1  0
 20 21  2  0
 13  6  1  0
 21 16  1  0
  3 22  1  0
  3 23  1  0
 15 24  1  0
 15 25  1  0
 17 26  1  0
 18 27  1  0
 19 28  1  0
 20 29  1  0
 21 30  1  0
M  CHG  3   8  -1   9  -1  12  -1
M  END
>  <UniqueID>  (53) 
50

>  <SMILES>  (53) 
O=C(CC(=O)c1c([O-])[n-]c(=O)[n-]c1=O)Cc1ccccc1

>  <Energy>  (53) 
32.629725991761255

>  <Genealogy>  (53) 
O=C(CC(=O)c1c([O-])[n-]c(=O)[n-]c1=O)Cc1ccccc1 (protonated)
O=C(CC(=O)c1c([O-])[n-]c(=O)[n-]c1=O)Cc1ccccc1 (3D coordinates assigned)
O=C(CC(=O)c1c([O-])[n-]c(=O)[n-]c1=O)Cc1ccccc1 (optimized conformer: 32.629725991761255 kcal/mol)

>  <smiles>  (53) 
O=C(CC(=O)c1c(O)[nH]c(=O)[nH]c1=O)Cc1ccccc1

>  <score_type>  (53) 
oracle

>  <origin>  (53) 
adg

>  <m_score__min__energy>  (53) 
-15.34

>  <m_primary>  (53) 
energy

$$$$
53:0
     RDKit          3D

 56 59  0  0  0  0  0  0  0  0999 V2000
   62.8780   34.3000   46.0690 O   0  0  0  0  0  0  0  0  0  0  0  0
   62.8790   33.3630   47.2450 S   0  0  0  0  0  0  0  0  0  0  0  0
   64.1420   32.5500   47.1950 O   0  0  0  0  0  0  0  0  0  0  0  0
   61.5090   32.2590   47.1220 C   0  0  0  0  0  0  0  0  0  0  0  0
   60.2180   32.7450   46.8720 C   0  0  0  0  0  0  0  0  0  0  0  0
   59.1400   31.8610   46.7910 C   0  0  0  0  0  0  0  0  0  0  0  0
   59.3360   30.4820   46.9840 C   0  0  0  0  0  0  0  0  0  0  0  0
   58.2470   29.5510   46.8610 N   0  0  0  0  0  0  0  0  0  0  0  0
   57.4720   29.3390   45.6650 C   0  0  0  0  0  0  0  0  0  0  0  0
   57.6080   30.3270   44.3540 S   0  0  0  0  0  0  0  0  0  0  0  0
   56.5460   28.2470   45.6070 N   0  0  0  0  0  0  0  0  0  0  0  0
   56.7740   26.9930   45.8890 C   0  0  0  0  0  0  0  0  0  0  0  0
   58.0720   26.5880   45.9730 N   0  0  0  0  0  0  0  0  0  0  0  0
   58.4230   25.3060   46.2650 C   0  0  0  0  0  0  0  0  0  0  0  0
   57.4390   24.3430   46.4830 C   0  0  0  0  0  0  0  0  0  0  0  0
   56.0980   24.7100   46.3850 C   0  0  0  0  0  0  0  0  0  0  0  0
   55.7470   26.0300   46.0830 C   0  0  0  0  0  0  0  0  0  0  0  0
   54.3990   26.3410   45.9480 O   0  0  0  0  0  0  0  0  0  0  0  0
   60.6320   29.9990   47.2140 C   0  0  0  0  0  0  0  0  0  0  0  0
   61.7100   30.8830   47.2890 C   0  0  0  0  0  0  0  0  0  0  0  0
   62.8470   34.2580   48.7540 N   0  0  0  0  0  0  0  0  0  0  0  0
   63.7210   33.6760   49.7880 C   0  0  0  0  0  0  0  0  0  0  0  0
   63.1910   32.3290   50.3240 C   0  0  0  0  0  0  0  0  0  0  0  0
   61.7410   32.1600   50.0800 N   0  0  0  0  0  0  0  0  0  0  0  0
   61.1740   31.0870   50.9220 C   0  0  0  0  0  0  0  0  0  0  0  0
   59.7890   31.4540   51.3930 C   0  0  0  0  0  0  0  0  0  0  0  0
   58.6870   31.2600   50.5440 C   0  0  0  0  0  0  0  0  0  0  0  0
   57.3950   31.5810   50.9750 C   0  0  0  0  0  0  0  0  0  0  0  0
   57.1990   32.1130   52.2530 C   0  0  0  0  0  0  0  0  0  0  0  0
   58.2910   32.3150   53.1030 C   0  0  0  0  0  0  0  0  0  0  0  0
   59.5810   31.9820   52.6780 C   0  0  0  0  0  0  0  0  0  0  0  0
   61.0280   33.4280   50.2960 C   0  0  0  0  0  0  0  0  0  0  0  0
   61.4660   34.4700   49.2440 C   0  0  0  0  0  0  0  0  0  0  0  0
   60.0539   33.8246   46.7394 H   0  0  0  0  0  0  0  0  0  0  0  0
   58.1322   32.2454   46.5751 H   0  0  0  0  0  0  0  0  0  0  0  0
   57.9660   29.0270   47.7220 H   0  0  0  0  0  0  0  0  0  0  0  0
   59.4856   25.0290   46.3291 H   0  0  0  0  0  0  0  0  0  0  0  0
   57.7171   23.3076   46.7290 H   0  0  0  0  0  0  0  0  0  0  0  0
   55.3117   23.9578   46.5459 H   0  0  0  0  0  0  0  0  0  0  0  0
   60.8002   28.9188   47.3359 H   0  0  0  0  0  0  0  0  0  0  0  0
   62.7221   30.4969   47.4802 H   0  0  0  0  0  0  0  0  0  0  0  0
   64.7194   33.5147   49.3554 H   0  0  0  0  0  0  0  0  0  0  0  0
   63.7535   34.3808   50.6320 H   0  0  0  0  0  0  0  0  0  0  0  0
   63.7316   31.5118   49.8242 H   0  0  0  0  0  0  0  0  0  0  0  0
   63.3540   32.3115   51.4117 H   0  0  0  0  0  0  0  0  0  0  0  0
   61.1215   30.1577   50.3357 H   0  0  0  0  0  0  0  0  0  0  0  0
   61.8209   30.9481   51.8007 H   0  0  0  0  0  0  0  0  0  0  0  0
   58.8406   30.8531   49.5337 H   0  0  0  0  0  0  0  0  0  0  0  0
   56.5350   31.4151   50.3095 H   0  0  0  0  0  0  0  0  0  0  0  0
   56.1848   32.3730   52.5903 H   0  0  0  0  0  0  0  0  0  0  0  0
   58.1350   32.7363   54.1071 H   0  0  0  0  0  0  0  0  0  0  0  0
   60.4363   32.1342   53.3527 H   0  0  0  0  0  0  0  0  0  0  0  0
   59.9451   33.2558   50.2083 H   0  0  0  0  0  0  0  0  0  0  0  0
   61.2669   33.8084   51.3001 H   0  0  0  0  0  0  0  0  0  0  0  0
   60.7783   34.4126   48.3874 H   0  0  0  0  0  0  0  0  0  0  0  0
   61.4389   35.4566   49.7297 H   0  0  0  0  0  0  0  0  0  0  0  0
  1  2  2  0
  2  3  2  0
  2  4  1  0
  4  5  2  0
  5  6  1  0
  6  7  2  0
  7  8  1  0
  8  9  1  0
  9 10  2  0
  9 11  1  0
 11 12  2  3
 12 13  1  0
 13 14  1  0
 14 15  2  0
 15 16  1  0
 16 17  2  0
 17 18  1  0
  7 19  1  0
 19 20  2  0
  2 21  1  0
 21 22  1  0
 22 23  1  0
 23 24  1  0
 24 25  1  0
 25 26  1  0
 26 27  2  0
 27 28  1  0
 28 29  2  0
 29 30  1  0
 30 31  2  0
 24 32  1  0
 32 33  1  0
 20  4  1  0
 33 21  1  0
 17 12  1  0
 31 26  1  0
  5 34  1  0
  6 35  1  0
  8 36  1  0
 14 37  1  0
 15 38  1  0
 16 39  1  0
 19 40  1  0
 20 41  1  0
 22 42  1  0
 22 43  1  0
 23 44  1  0
 23 45  1  0
 25 46  1  0
 25 47  1  0
 27 48  1  0
 28 49  1  0
 29 50  1  0
 30 51  1  0
 31 52  1  0
 32 53  1  0
 32 54  1  0
 33 55  1  0
 33 56  1  0
M  CHG  2  13  -1  18  -1
M  END
>  <UniqueID>  (54) 
51

>  <SMILES>  (54) 
O=S(=O)(c1ccc(NC(=S)N=c2[n-]cccc2[O-])cc1)N1CCN(Cc2ccccc2)CC1

>  <Energy>  (54) 
87.18643483901977

>  <Genealogy>  (54) 
O=S(=O)(c1ccc(NC(=S)N=c2[n-]cccc2[O-])cc1)N1CCN(Cc2ccccc2)CC1 (protonated)
O=S(=O)(c1ccc(NC(=S)N=c2[n-]cccc2[O-])cc1)N1CCN(Cc2ccccc2)CC1 (3D coordinates assigned)
O=S(=O)(c1ccc(NC(=S)N=c2[n-]cccc2[O-])cc1)N1CCN(Cc2ccccc2)CC1 (nonaromatic ring conformer: 87.18643483901977 kcal/mol)

>  <smiles>  (54) 
O=S(=O)(c1ccc(NC(=S)N=c2[nH]cccc2O)cc1)N1CCN(Cc2ccccc2)CC1

>  <score_type>  (54) 
oracle

>  <origin>  (54) 
adg

>  <m_score__min__energy>  (54) 
-14.800000000000001

>  <m_primary>  (54) 
energy

$$$$
54:0
     RDKit          3D

 52 56  0  0  0  0  0  0  0  0999 V2000
   54.2920   24.0170   45.2140 O   0  0  0  0  0  0  0  0  0  0  0  0
   55.5120   24.3410   45.2450 C   0  0  0  0  0  0  0  0  0  0  0  0
   55.8850   25.6340   45.6460 C   0  0  0  0  0  0  0  0  0  0  0  0
   54.9170   26.5860   45.9740 O   0  0  0  0  0  0  0  0  0  0  0  0
   57.2550   25.9650   45.6830 C   0  0  0  0  0  0  0  0  0  0  0  0
   57.7290   27.3000   46.1120 C   0  0  0  0  0  0  0  0  0  0  0  0
   58.4960   27.4660   47.2780 C   0  0  0  0  0  0  0  0  0  0  0  0
   58.9510   28.7340   47.6510 C   0  0  0  0  0  0  0  0  0  0  0  0
   58.6660   29.8550   46.8570 C   0  0  0  0  0  0  0  0  0  0  0  0
   59.1250   31.1630   47.2490 N   0  0  0  0  0  0  0  0  0  0  0  0
   58.6550   31.7810   48.4960 C   0  0  0  0  0  0  0  0  0  0  0  0
   59.8570   32.1820   49.3610 C   0  0  0  0  0  0  0  0  0  0  0  0
   60.9160   32.8050   48.5510 N   0  0  0  0  0  0  0  0  0  0  0  0
   62.2090   33.0490   49.1380 C   0  0  0  0  0  0  0  0  0  0  0  0
   62.3320   33.8490   50.2870 C   0  0  0  0  0  0  0  0  0  0  0  0
   63.5870   34.0720   50.8630 C   0  0  0  0  0  0  0  0  0  0  0  0
   64.7280   33.4950   50.2990 C   0  0  0  0  0  0  0  0  0  0  0  0
   64.6170   32.6920   49.1620 C   0  0  0  0  0  0  0  0  0  0  0  0
   63.3640   32.4660   48.5840 C   0  0  0  0  0  0  0  0  0  0  0  0
   60.6670   33.1060   47.1340 C   0  0  0  0  0  0  0  0  0  0  0  0
   60.1310   31.8570   46.4260 C   0  0  0  0  0  0  0  0  0  0  0  0
   57.9130   29.6870   45.6830 C   0  0  0  0  0  0  0  0  0  0  0  0
   57.4560   28.4190   45.3100 C   0  0  0  0  0  0  0  0  0  0  0  0
   58.1640   25.0670   45.3080 O   0  0  0  0  0  0  0  0  0  0  0  0
   57.8520   23.8370   44.9140 C   0  0  0  0  0  0  0  0  0  0  0  0
   58.8700   22.9510   44.5420 C   0  0  0  0  0  0  0  0  0  0  0  0
   58.5550   21.6530   44.1290 C   0  0  0  0  0  0  0  0  0  0  0  0
   57.2220   21.2350   44.0880 C   0  0  0  0  0  0  0  0  0  0  0  0
   56.1970   22.1110   44.4570 C   0  0  0  0  0  0  0  0  0  0  0  0
   56.5030   23.4200   44.8730 C   0  0  0  0  0  0  0  0  0  0  0  0
   54.0210   26.3320   46.3730 H   0  0  0  0  0  0  0  0  0  0  0  0
   58.7397   26.5927   47.9009 H   0  0  0  0  0  0  0  0  0  0  0  0
   59.5370   28.8538   48.5742 H   0  0  0  0  0  0  0  0  0  0  0  0
   58.0606   32.6758   48.2590 H   0  0  0  0  0  0  0  0  0  0  0  0
   58.0342   31.0599   49.0479 H   0  0  0  0  0  0  0  0  0  0  0  0
   59.5241   32.8979   50.1269 H   0  0  0  0  0  0  0  0  0  0  0  0
   60.2665   31.2740   49.8279 H   0  0  0  0  0  0  0  0  0  0  0  0
   61.4360   34.3024   50.7360 H   0  0  0  0  0  0  0  0  0  0  0  0
   63.6759   34.7019   51.7604 H   0  0  0  0  0  0  0  0  0  0  0  0
   65.7147   33.6736   50.7512 H   0  0  0  0  0  0  0  0  0  0  0  0
   65.5160   32.2369   48.7207 H   0  0  0  0  0  0  0  0  0  0  0  0
   63.2805   31.8289   47.6912 H   0  0  0  0  0  0  0  0  0  0  0  0
   59.9265   33.9158   47.0570 H   0  0  0  0  0  0  0  0  0  0  0  0
   61.6079   33.4187   46.6577 H   0  0  0  0  0  0  0  0  0  0  0  0
   59.6696   32.1559   45.4732 H   0  0  0  0  0  0  0  0  0  0  0  0
   60.9718   31.1690   46.2535 H   0  0  0  0  0  0  0  0  0  0  0  0
   57.6813   30.5585   45.0530 H   0  0  0  0  0  0  0  0  0  0  0  0
   56.8786   28.2978   44.3816 H   0  0  0  0  0  0  0  0  0  0  0  0
   59.9201   23.2768   44.5747 H   0  0  0  0  0  0  0  0  0  0  0  0
   59.3573   20.9599   43.8360 H   0  0  0  0  0  0  0  0  0  0  0  0
   56.9784   20.2124   43.7640 H   0  0  0  0  0  0  0  0  0  0  0  0
   55.1497   21.7766   44.4221 H   0  0  0  0  0  0  0  0  0  0  0  0
  1  2  2  0
  2  3  1  0
  3  4  1  0
  3  5  2  0
  5  6  1  0
  6  7  2  0
  7  8  1  0
  8  9  2  0
  9 10  1  0
 10 11  1  0
 11 12  1  0
 12 13  1  0
 13 14  1  0
 14 15  2  0
 15 16  1  0
 16 17  2  0
 17 18  1  0
 18 19  2  0
 13 20  1  0
 20 21  1  0
  9 22  1  0
 22 23  2  0
  5 24  1  0
 24 25  1  0
 25 26  2  0
 26 27  1  0
 27 28  2  0
 28 29  1  0
 29 30  2  0
 30  2  1  0
 23  6  1  0
 30 25  1  0
 21 10  1  0
 19 14  1  0
  4 31  1  0
  7 32  1  0
  8 33  1  0
 11 34  1  0
 11 35  1  0
 12 36  1  0
 12 37  1  0
 15 38  1  0
 16 39  1  0
 17 40  1  0
 18 41  1  0
 19 42  1  0
 20 43  1  0
 20 44  1  0
 21 45  1  0
 21 46  1  0
 22 47  1  0
 23 48  1  0
 26 49  1  0
 27 50  1  0
 28 51  1  0
 29 52  1  0
M  END
>  <UniqueID>  (55) 
52

>  <SMILES>  (55) 
O=c1c(O)c(-c2ccc(N3CCN(c4ccccc4)CC3)cc2)oc2ccccc12

>  <Energy>  (55) 
77.92769700380713

>  <Genealogy>  (55) 
O=c1c(O)c(-c2ccc(N3CCN(c4ccccc4)CC3)cc2)oc2ccccc12 (3D coordinates assigned)
O=c1c(O)c(-c2ccc(N3CCN(c4ccccc4)CC3)cc2)oc2ccccc12 (nonaromatic ring conformer: 77.92769700380713 kcal/mol)

>  <smiles>  (55) 
O=c1c(O)c(-c2ccc(N3CCN(c4ccccc4)CC3)cc2)oc2ccccc12

>  <score_type>  (55) 
oracle

>  <origin>  (55) 
adg

>  <m_score__min__energy>  (55) 
-9.0099999999999998

>  <m_primary>  (55) 
energy

$$$$
55:0
     RDKit          3D

 43 45  0  0  0  0  0  0  0  0999 V2000
   59.3230   35.3760   49.1050 H   0  0  0  0  0  0  0  0  0  0  0  0
   59.9270   34.6160   49.3950 O   0  0  0  0  0  0  0  0  0  0  0  0
   61.0180   34.2140   48.6230 C   0  0  0  0  0  0  0  0  0  0  0  0
   62.2450   33.9350   49.2450 C   0  0  0  0  0  0  0  0  0  0  0  0
   62.3474   34.0565   50.3335 H   0  0  0  0  0  0  0  0  0  0  0  0
   63.3360   33.5040   48.4880 C   0  0  0  0  0  0  0  0  0  0  0  0
   64.2977   33.2965   48.9800 H   0  0  0  0  0  0  0  0  0  0  0  0
   63.2090   33.3360   47.1090 C   0  0  0  0  0  0  0  0  0  0  0  0
   64.0666   32.9847   46.5165 H   0  0  0  0  0  0  0  0  0  0  0  0
   61.9920   33.6140   46.4800 C   0  0  0  0  0  0  0  0  0  0  0  0
   61.8930   33.4668   45.3944 H   0  0  0  0  0  0  0  0  0  0  0  0
   60.8940   34.0800   47.2230 C   0  0  0  0  0  0  0  0  0  0  0  0
   59.6390   34.4330   46.5150 C   0  0  0  0  0  0  0  0  0  0  0  0
   58.9130   35.3480   46.9870 O   0  0  0  0  0  0  0  0  0  0  0  0
   59.2100   33.7810   45.2550 C   0  0  0  0  0  0  0  0  0  0  0  0
   59.8411   33.9356   44.3674 H   0  0  0  0  0  0  0  0  0  0  0  0
   58.1150   33.0170   45.1060 C   0  0  0  0  0  0  0  0  0  0  0  0
   57.1998   33.5035   44.7376 H   0  0  0  0  0  0  0  0  0  0  0  0
   58.0510   31.5710   45.4010 C   0  0  0  0  0  0  0  0  0  0  0  0
   58.8760   31.0340   46.3960 C   0  0  0  0  0  0  0  0  0  0  0  0
   59.5974   31.6810   46.9165 H   0  0  0  0  0  0  0  0  0  0  0  0
   58.7880   29.6790   46.7320 C   0  0  0  0  0  0  0  0  0  0  0  0
   59.4221   29.2722   47.5335 H   0  0  0  0  0  0  0  0  0  0  0  0
   57.8920   28.8320   46.0500 C   0  0  0  0  0  0  0  0  0  0  0  0
   57.7210   27.4030   46.4030 C   0  0  0  0  0  0  0  0  0  0  0  0
   57.1703   27.1591   47.3234 H   0  0  0  0  0  0  0  0  0  0  0  0
   58.1990   26.3890   45.6650 C   0  0  0  0  0  0  0  0  0  0  0  0
   59.2288   26.0455   45.8428 H   0  0  0  0  0  0  0  0  0  0  0  0
   57.3960   25.7160   44.6230 C   0  0  0  0  0  0  0  0  0  0  0  0
   57.7240   25.8770   43.4180 O   0  0  0  0  0  0  0  0  0  0  0  0
   56.2300   24.8530   44.9390 C   0  0  0  0  0  0  0  0  0  0  0  0
   55.1140   25.3780   45.6140 C   0  0  0  0  0  0  0  0  0  0  0  0
   55.0910   26.7080   46.0200 O   0  0  0  0  0  0  0  0  0  0  0  0
   54.0490   24.5810   45.8880 N   0  0  0  0  0  0  0  0  0  0  0  0
   54.0350   23.2760   45.5150 C   0  0  0  0  0  0  0  0  0  0  0  0
   53.0380   22.5580   45.7850 O   0  0  0  0  0  0  0  0  0  0  0  0
   55.0920   22.7470   44.8500 N   0  0  0  0  0  0  0  0  0  0  0  0
   56.1810   23.5010   44.5480 C   0  0  0  0  0  0  0  0  0  0  0  0
   57.1300   22.9800   43.9040 O   0  0  0  0  0  0  0  0  0  0  0  0
   57.0930   29.3720   45.0290 C   0  0  0  0  0  0  0  0  0  0  0  0
   56.3899   28.7225   44.4869 H   0  0  0  0  0  0  0  0  0  0  0  0
   57.1820   30.7250   44.6950 C   0  0  0  0  0  0  0  0  0  0  0  0
   56.5690   31.1289   43.8759 H   0  0  0  0  0  0  0  0  0  0  0  0
  1  2  1  0
  2  3  1  0
  3  4  2  0
  4  5  1  0
  4  6  1  0
  6  7  1  0
  6  8  2  0
  8  9  1  0
  8 10  1  0
 10 11  1  0
 10 12  2  0
 12 13  1  0
 13 14  2  0
 13 15  1  0
 15 16  1  0
 15 17  2  0
 17 18  1  0
 17 19  1  0
 19 20  2  0
 20 21  1  0
 20 22  1  0
 22 23  1  0
 22 24  2  0
 24 25  1  0
 25 26  1  0
 25 27  2  0
 27 28  1  0
 27 29  1  0
 29 30  2  0
 29 31  1  0
 31 32  2  0
 32 33  1  0
 32 34  1  0
 34 35  1  0
 35 36  2  0
 35 37  1  0
 37 38  1  0
 38 39  2  0
 24 40  1  0
 40 41  1  0
 40 42  2  0
 42 43  1  0
 12  3  1  0
 42 19  1  0
 38 31  1  0
M  CHG  3  33  -1  34  -1  37  -1
M  END
>  <UniqueID>  (56) 
53

>  <SMILES>  (56) 
O=C(/C=C\c1ccc(/C=C/C(=O)c2c([O-])[n-]c(=O)[n-]c2=O)cc1)c1ccccc1O

>  <Energy>  (56) 
67.25496980238337

>  <Genealogy>  (56) 
O=C(C=Cc1ccc(C=CC(=O)c2c([O-])[n-]c(=O)[n-]c2=O)cc1)c1ccccc1O (protonated)
O=C(/C=C\c1ccc(/C=C/C(=O)c2c([O-])[n-]c(=O)[n-]c2=O)cc1)c1ccccc1O (cis-trans isomerization)
O=C(/C=C\c1ccc(/C=C/C(=O)c2c([O-])[n-]c(=O)[n-]c2=O)cc1)c1ccccc1O (3D coordinates assigned)
O=C(/C=C\c1ccc(/C=C/C(=O)c2c([O-])[n-]c(=O)[n-]c2=O)cc1)c1ccccc1O (optimized conformer: 67.25496980238337 kcal/mol)

>  <smiles>  (56) 
O=C(C=Cc1ccc(C=CC(=O)c2c(O)[nH]c(=O)[nH]c2=O)cc1)c1ccccc1O

>  <score_type>  (56) 
oracle

>  <origin>  (56) 
adg

>  <m_score__min__energy>  (56) 
-16.48

>  <m_primary>  (56) 
energy

$$$$
56:0
     RDKit          3D

 49 52  0  0  0  0  0  0  0  0999 V2000
   60.5141   30.5249   44.6459 H   0  0  0  0  0  0  0  0  0  0  0  0
   59.7960   29.7300   44.8960 C   0  0  0  0  0  0  0  0  0  0  0  0
   59.3190   29.1475   44.0940 H   0  0  0  0  0  0  0  0  0  0  0  0
   59.5020   29.4710   46.1790 C   0  0  0  0  0  0  0  0  0  0  0  0
   58.6140   28.4970   46.6470 C   0  0  0  0  0  0  0  0  0  0  0  0
   57.8770   27.6420   45.9130 C   0  0  0  0  0  0  0  0  0  0  0  0
   57.5499   27.9641   44.9134 H   0  0  0  0  0  0  0  0  0  0  0  0
   57.4820   26.2910   46.3770 C   0  0  0  0  0  0  0  0  0  0  0  0
   56.1290   25.9200   46.3800 C   0  0  0  0  0  0  0  0  0  0  0  0
   55.1460   26.8200   45.9850 O   0  0  0  0  0  0  0  0  0  0  0  0
   55.7680   24.6740   46.7820 N   0  0  0  0  0  0  0  0  0  0  0  0
   56.6980   23.7660   47.1720 C   0  0  0  0  0  0  0  0  0  0  0  0
   56.3400   22.6190   47.5450 O   0  0  0  0  0  0  0  0  0  0  0  0
   58.0150   24.0910   47.1520 N   0  0  0  0  0  0  0  0  0  0  0  0
   58.4290   25.3230   46.7570 C   0  0  0  0  0  0  0  0  0  0  0  0
   59.6620   25.5760   46.7190 O   0  0  0  0  0  0  0  0  0  0  0  0
   58.5860   28.6270   48.0310 C   0  0  0  0  0  0  0  0  0  0  0  0
   57.9875   28.0304   48.7351 H   0  0  0  0  0  0  0  0  0  0  0  0
   59.4550   29.6500   48.3490 C   0  0  0  0  0  0  0  0  0  0  0  0
   59.7010   30.1580   49.7370 C   0  0  0  0  0  0  0  0  0  0  0  0
   59.3425   29.4177   50.4673 H   0  0  0  0  0  0  0  0  0  0  0  0
   60.7789   30.3232   49.8813 H   0  0  0  0  0  0  0  0  0  0  0  0
   59.1622   31.1061   49.8813 H   0  0  0  0  0  0  0  0  0  0  0  0
   60.0120   30.1630   47.2290 N   0  0  0  0  0  0  0  0  0  0  0  0
   60.9110   31.2890   47.1780 C   0  0  0  0  0  0  0  0  0  0  0  0
   62.2430   31.1120   47.5800 C   0  0  0  0  0  0  0  0  0  0  0  0
   62.5969   30.1121   47.8715 H   0  0  0  0  0  0  0  0  0  0  0  0
   63.1230   32.1950   47.6130 C   0  0  0  0  0  0  0  0  0  0  0  0
   64.1673   32.0449   47.9242 H   0  0  0  0  0  0  0  0  0  0  0  0
   62.6800   33.4670   47.2520 C   0  0  0  0  0  0  0  0  0  0  0  0
   63.3731   34.3204   47.2869 H   0  0  0  0  0  0  0  0  0  0  0  0
   61.3570   33.6590   46.8460 C   0  0  0  0  0  0  0  0  0  0  0  0
   61.0116   34.6665   46.5710 H   0  0  0  0  0  0  0  0  0  0  0  0
   60.4640   32.5760   46.7860 C   0  0  0  0  0  0  0  0  0  0  0  0
   59.0810   32.8150   46.3200 C   0  0  0  0  0  0  0  0  0  0  0  0
   58.1410   32.8420   47.1610 O   0  0  0  0  0  0  0  0  0  0  0  0
   58.8040   33.0500   44.9330 N   0  0  0  0  0  0  0  0  0  0  0  0
   59.6020   33.2350   44.2840 H   0  0  0  0  0  0  0  0  0  0  0  0
   57.4330   33.0920   44.4280 C   0  0  0  0  0  0  0  0  0  0  0  0
   56.7689   33.4750   45.2169 H   0  0  0  0  0  0  0  0  0  0  0  0
   57.3994   33.7517   43.5484 H   0  0  0  0  0  0  0  0  0  0  0  0
   56.9780   31.7250   44.0230 C   0  0  0  0  0  0  0  0  0  0  0  0
   56.3710   30.8840   44.8250 O   0  0  0  0  0  0  0  0  0  0  0  0
   56.1270   29.7770   44.1620 C   0  0  0  0  0  0  0  0  0  0  0  0
   55.6237   28.8897   44.5737 H   0  0  0  0  0  0  0  0  0  0  0  0
   56.5980   29.8960   42.8700 C   0  0  0  0  0  0  0  0  0  0  0  0
   56.5436   29.1384   42.0743 H   0  0  0  0  0  0  0  0  0  0  0  0
   57.1500   31.1550   42.7780 C   0  0  0  0  0  0  0  0  0  0  0  0
   57.6273   31.6100   41.8976 H   0  0  0  0  0  0  0  0  0  0  0  0
  1  2  1  0
  2  3  1  0
  2  4  2  0
  4  5  1  0
  5  6  2  0
  6  7  1  0
  6  8  1  0
  8  9  2  0
  9 10  1  0
  9 11  1  0
 11 12  1  0
 12 13  2  0
 12 14  1  0
 14 15  1  0
 15 16  2  0
  5 17  1  0
 17 18  1  0
 17 19  2  0
 19 20  1  0
 20 21  1  0
 20 22  1  0
 20 23  1  0
 19 24  1  0
 24 25  1  0
 25 26  2  0
 26 27  1  0
 26 28  1  0
 28 29  1  0
 28 30  2  0
 30 31  1  0
 30 32  1  0
 32 33  1  0
 32 34  2  0
 34 35  1  0
 35 36  2  0
 35 37  1  0
 37 38  1  0
 37 39  1  0
 39 40  1  0
 39 41  1  0
 39 42  1  0
 42 43  1  0
 43 44  1  0
 44 45  1  0
 44 46  2  0
 46 47  1  0
 46 48  1  0
 48 49  1  0
 24  4  1  0
 34 25  1  0
 48 42  2  0
 15  8  1  0
M  CHG  3  10  -1  11  -1  14  -1
M  END
>  <UniqueID>  (57) 
54

>  <SMILES>  (57) 
C=c1/c(=C/c2c([O-])[n-]c(=O)[n-]c2=O)cc(C)n1-c1ccccc1C(=O)NCc1ccco1

>  <Energy>  (57) 
123.38181884930586

>  <Genealogy>  (57) 
C=c1c(=Cc2c([O-])[n-]c(=O)[n-]c2=O)cc(C)n1-c1ccccc1C(=O)NCc1ccco1 (protonated)
C=c1/c(=C/c2c([O-])[n-]c(=O)[n-]c2=O)cc(C)n1-c1ccccc1C(=O)NCc1ccco1 (cis-trans isomerization)
C=c1/c(=C/c2c([O-])[n-]c(=O)[n-]c2=O)cc(C)n1-c1ccccc1C(=O)NCc1ccco1 (3D coordinates assigned)
C=c1/c(=C/c2c([O-])[n-]c(=O)[n-]c2=O)cc(C)n1-c1ccccc1C(=O)NCc1ccco1 (optimized conformer: 123.38181884930586 kcal/mol)

>  <smiles>  (57) 
C=c1c(=Cc2c(O)[nH]c(=O)[nH]c2=O)cc(C)n1-c1ccccc1C(=O)NCc1ccco1

>  <score_type>  (57) 
oracle

>  <origin>  (57) 
adg

>  <m_score__min__energy>  (57) 
-16.640000000000001

>  <m_primary>  (57) 
energy

$$$$
57:0
     RDKit          3D

 53 56  0  0  0  0  0  0  0  0999 V2000
   58.1370   26.8040   42.6560 C   0  0  0  0  0  0  0  0  0  0  0  0
   58.1550   26.4680   43.9550 C   0  0  0  0  0  0  0  0  0  0  0  0
   57.4760   25.3970   44.5600 C   0  0  0  0  0  0  0  0  0  0  0  0
   56.5310   24.5640   44.0830 C   0  0  0  0  0  0  0  0  0  0  0  0
   55.3020   24.1720   44.7890 C   0  0  0  0  0  0  0  0  0  0  0  0
   54.6870   22.9830   44.6400 N   0  0  0  0  0  0  0  0  0  0  0  0
   53.5520   23.1260   45.3580 C   0  0  0  0  0  0  0  0  0  0  0  0
   52.7040   22.2050   45.4750 O   0  0  0  0  0  0  0  0  0  0  0  0
   53.3960   24.3380   45.9340 N   0  0  0  0  0  0  0  0  0  0  0  0
   54.5040   24.9940   45.5530 C   0  0  0  0  0  0  0  0  0  0  0  0
   54.7750   26.3140   45.9050 O   0  0  0  0  0  0  0  0  0  0  0  0
   57.9480   25.3240   45.8590 C   0  0  0  0  0  0  0  0  0  0  0  0
   58.8380   26.3630   46.0240 C   0  0  0  0  0  0  0  0  0  0  0  0
   59.5120   26.7010   47.3200 C   0  0  0  0  0  0  0  0  0  0  0  0
   58.9620   27.0670   44.8730 N   0  0  0  0  0  0  0  0  0  0  0  0
   59.8670   28.2070   44.6490 C   0  0  0  0  0  0  0  0  0  0  0  0
   59.5540   29.3410   45.5950 C   0  0  0  0  0  0  0  0  0  0  0  0
   58.4400   30.1660   45.3680 C   0  0  0  0  0  0  0  0  0  0  0  0
   58.1390   31.2100   46.2480 C   0  0  0  0  0  0  0  0  0  0  0  0
   58.9330   31.4280   47.3870 C   0  0  0  0  0  0  0  0  0  0  0  0
   58.6780   32.5040   48.3020 N   0  0  0  0  0  0  0  0  0  0  0  0
   59.6290   33.4590   48.7890 C   0  0  0  0  0  0  0  0  0  0  0  0
   59.3360   34.1940   49.7710 O   0  0  0  0  0  0  0  0  0  0  0  0
   60.9960   33.5240   48.2110 C   0  0  0  0  0  0  0  0  0  0  0  0
   62.0900   33.2360   49.0500 C   0  0  0  0  0  0  0  0  0  0  0  0
   63.3950   33.2540   48.5560 C   0  0  0  0  0  0  0  0  0  0  0  0
   63.6320   33.5600   47.2190 C   0  0  0  0  0  0  0  0  0  0  0  0
   62.5670   33.8660   46.3720 C   0  0  0  0  0  0  0  0  0  0  0  0
   61.2440   33.8700   46.8530 C   0  0  0  0  0  0  0  0  0  0  0  0
   60.1390   34.2510   45.9020 C   0  0  0  0  0  0  0  0  0  0  0  0
   60.0480   30.6120   47.6080 C   0  0  0  0  0  0  0  0  0  0  0  0
   60.3510   29.5710   46.7280 C   0  0  0  0  0  0  0  0  0  0  0  0
   58.7154   27.6710   42.3041 H   0  0  0  0  0  0  0  0  0  0  0  0
   57.5439   26.2125   41.9431 H   0  0  0  0  0  0  0  0  0  0  0  0
   56.6923   24.1411   43.0804 H   0  0  0  0  0  0  0  0  0  0  0  0
   54.3980   26.7210   46.7530 H   0  0  0  0  0  0  0  0  0  0  0  0
   57.6660   24.5778   46.6164 H   0  0  0  0  0  0  0  0  0  0  0  0
   58.8755   26.3818   48.1585 H   0  0  0  0  0  0  0  0  0  0  0  0
   60.4801   26.1817   47.3762 H   0  0  0  0  0  0  0  0  0  0  0  0
   59.6749   27.7874   47.3762 H   0  0  0  0  0  0  0  0  0  0  0  0
   60.9046   27.8796   44.8109 H   0  0  0  0  0  0  0  0  0  0  0  0
   59.7317   28.5641   43.6174 H   0  0  0  0  0  0  0  0  0  0  0  0
   57.7996   29.9894   44.4913 H   0  0  0  0  0  0  0  0  0  0  0  0
   57.2771   31.8635   46.0480 H   0  0  0  0  0  0  0  0  0  0  0  0
   61.9135   32.9937   50.1084 H   0  0  0  0  0  0  0  0  0  0  0  0
   64.2381   33.0259   49.2246 H   0  0  0  0  0  0  0  0  0  0  0  0
   64.6608   33.5605   46.8298 H   0  0  0  0  0  0  0  0  0  0  0  0
   62.7630   34.1068   45.3167 H   0  0  0  0  0  0  0  0  0  0  0  0
   59.2513   34.5571   46.4750 H   0  0  0  0  0  0  0  0  0  0  0  0
   60.4723   35.0861   45.2684 H   0  0  0  0  0  0  0  0  0  0  0  0
   59.8867   33.3879   45.2684 H   0  0  0  0  0  0  0  0  0  0  0  0
   60.6911   30.7920   48.4821 H   0  0  0  0  0  0  0  0  0  0  0  0
   61.2205   28.9263   46.9238 H   0  0  0  0  0  0  0  0  0  0  0  0
  1  2  2  0
  2  3  1  0
  3  4  2  3
  4  5  1  0
  5  6  1  0
  6  7  1  0
  7  8  2  0
  7  9  1  0
  9 10  1  0
 10 11  1  0
  3 12  1  0
 12 13  2  0
 13 14  1  0
 13 15  1  0
 15 16  1  0
 16 17  1  0
 17 18  2  0
 18 19  1  0
 19 20  2  0
 20 21  1  0
 21 22  1  0
 22 23  2  0
 22 24  1  0
 24 25  2  0
 25 26  1  0
 26 27  2  0
 27 28  1  0
 28 29  2  0
 29 30  1  0
 20 31  1  0
 31 32  2  0
 15  2  1  0
 32 17  1  0
 10  5  2  0
 29 24  1  0
  1 33  1  0
  1 34  1  0
  4 35  1  0
 11 36  1  0
 12 37  1  0
 14 38  1  0
 14 39  1  0
 14 40  1  0
 16 41  1  0
 16 42  1  0
 18 43  1  0
 19 44  1  0
 25 45  1  0
 26 46  1  0
 27 47  1  0
 28 48  1  0
 30 49  1  0
 30 50  1  0
 30 51  1  0
 31 52  1  0
 32 53  1  0
M  CHG  3   6  -1   9  -1  21  -1
M  END
>  <UniqueID>  (58) 
55

>  <SMILES>  (58) 
C=c1c(=Cc2[n-]c(=O)[n-]c2O)cc(C)n1Cc1ccc([N-]C(=O)c2ccccc2C)cc1

>  <Energy>  (58) 
132.7287620160956

>  <Genealogy>  (58) 
C=c1c(=Cc2[n-]c(=O)[n-]c2O)cc(C)n1Cc1ccc([N-]C(=O)c2ccccc2C)cc1 (protonated)
C=c1c(=Cc2[n-]c(=O)[n-]c2O)cc(C)n1Cc1ccc([N-]C(=O)c2ccccc2C)cc1 (3D coordinates assigned)
C=c1c(=Cc2[n-]c(=O)[n-]c2O)cc(C)n1Cc1ccc([N-]C(=O)c2ccccc2C)cc1 (optimized conformer: 132.7287620160956 kcal/mol)

>  <smiles>  (58) 
C=c1c(=Cc2[nH]c(=O)[nH]c2O)cc(C)n1Cc1ccc(NC(=O)c2ccccc2C)cc1

>  <score_type>  (58) 
oracle

>  <origin>  (58) 
adg

>  <m_score__min__energy>  (58) 
-14.99

>  <m_primary>  (58) 
energy

$$$$
58:0
     RDKit          3D

 54 56  0  0  0  0  0  0  0  0999 V2000
   55.1370   26.7180   45.9970 O   0  0  0  0  0  0  0  0  0  0  0  0
   56.2090   26.0730   46.1510 C   0  0  0  0  0  0  0  0  0  0  0  0
   56.3420   25.2090   47.2330 O   0  0  0  0  0  0  0  0  0  0  0  0
   57.3430   26.2550   45.1880 C   0  0  0  0  0  0  0  0  0  0  0  0
   58.6900   25.8380   45.8000 C   0  0  0  0  0  0  0  0  0  0  0  0
   59.6290   27.0210   46.0920 C   0  0  0  0  0  0  0  0  0  0  0  0
   58.9850   28.3470   45.7770 C   0  0  0  0  0  0  0  0  0  0  0  0
   58.9780   28.8320   44.4590 C   0  0  0  0  0  0  0  0  0  0  0  0
   58.4080   30.0740   44.1650 C   0  0  0  0  0  0  0  0  0  0  0  0
   57.8320   30.8480   45.1870 C   0  0  0  0  0  0  0  0  0  0  0  0
   57.2700   32.2080   44.8780 C   0  0  0  0  0  0  0  0  0  0  0  0
   58.1140   33.2750   45.5210 C   0  0  0  0  0  0  0  0  0  0  0  0
   58.8030   34.2060   44.7310 C   0  0  0  0  0  0  0  0  0  0  0  0
   59.6130   35.1720   45.3310 C   0  0  0  0  0  0  0  0  0  0  0  0
   59.7510   35.2080   46.7190 C   0  0  0  0  0  0  0  0  0  0  0  0
   59.0850   34.2740   47.5280 C   0  0  0  0  0  0  0  0  0  0  0  0
   59.2630   34.3340   48.9570 N   0  0  0  0  0  0  0  0  0  0  0  0
   59.3640   32.9450   49.9930 S   0  0  0  0  0  0  0  0  0  0  0  0
   59.8710   33.3570   51.3470 O   0  0  0  0  0  0  0  0  0  0  0  0
   57.9900   32.3570   50.1550 O   0  0  0  0  0  0  0  0  0  0  0  0
   60.4330   31.7180   49.2540 C   0  0  0  0  0  0  0  0  0  0  0  0
   61.6710   32.3670   48.7000 C   0  0  0  0  0  0  0  0  0  0  0  0
   62.6210   32.9330   49.5670 C   0  0  0  0  0  0  0  0  0  0  0  0
   63.7860   33.5140   49.0520 C   0  0  0  0  0  0  0  0  0  0  0  0
   64.0100   33.5300   47.6730 C   0  0  0  0  0  0  0  0  0  0  0  0
   63.0750   32.9570   46.8050 C   0  0  0  0  0  0  0  0  0  0  0  0
   61.9100   32.3740   47.3160 C   0  0  0  0  0  0  0  0  0  0  0  0
   58.2660   33.3060   46.9170 C   0  0  0  0  0  0  0  0  0  0  0  0
   57.8510   30.3700   46.5060 C   0  0  0  0  0  0  0  0  0  0  0  0
   58.4200   29.1270   46.7990 C   0  0  0  0  0  0  0  0  0  0  0  0
   57.1531   25.6409   44.2954 H   0  0  0  0  0  0  0  0  0  0  0  0
   57.4025   27.3228   44.9307 H   0  0  0  0  0  0  0  0  0  0  0  0
   58.4936   25.3092   46.7443 H   0  0  0  0  0  0  0  0  0  0  0  0
   59.1961   25.2009   45.0597 H   0  0  0  0  0  0  0  0  0  0  0  0
   59.9013   27.0031   47.1576 H   0  0  0  0  0  0  0  0  0  0  0  0
   60.5169   26.9149   45.4515 H   0  0  0  0  0  0  0  0  0  0  0  0
   59.4239   28.2307   43.6530 H   0  0  0  0  0  0  0  0  0  0  0  0
   58.4103   30.4469   43.1301 H   0  0  0  0  0  0  0  0  0  0  0  0
   57.2609   32.3588   43.7884 H   0  0  0  0  0  0  0  0  0  0  0  0
   56.2456   32.2724   45.2736 H   0  0  0  0  0  0  0  0  0  0  0  0
   58.7052   34.1753   43.6358 H   0  0  0  0  0  0  0  0  0  0  0  0
   60.1438   35.9067   44.7078 H   0  0  0  0  0  0  0  0  0  0  0  0
   60.3876   35.9754   47.1836 H   0  0  0  0  0  0  0  0  0  0  0  0
   59.3580   35.2710   49.4150 H   0  0  0  0  0  0  0  0  0  0  0  0
   60.7211   30.9809   50.0180 H   0  0  0  0  0  0  0  0  0  0  0  0
   59.8931   31.2214   48.4343 H   0  0  0  0  0  0  0  0  0  0  0  0
   62.4488   32.9195   50.6534 H   0  0  0  0  0  0  0  0  0  0  0  0
   64.5259   33.9585   49.7339 H   0  0  0  0  0  0  0  0  0  0  0  0
   64.9224   33.9936   47.2697 H   0  0  0  0  0  0  0  0  0  0  0  0
   63.2555   32.9646   45.7199 H   0  0  0  0  0  0  0  0  0  0  0  0
   61.1788   31.9196   46.6313 H   0  0  0  0  0  0  0  0  0  0  0  0
   57.7399   32.5666   47.5388 H   0  0  0  0  0  0  0  0  0  0  0  0
   57.4159   30.9765   47.3139 H   0  0  0  0  0  0  0  0  0  0  0  0
   58.4251   28.7581   47.8353 H   0  0  0  0  0  0  0  0  0  0  0  0
  1  2  2  0
  2  3  1  0
  2  4  1  0
  4  5  1  0
  5  6  1  0
  6  7  1  0
  7  8  2  0
  8  9  1  0
  9 10  2  0
 10 11  1  0
 11 12  1  0
 12 13  2  0
 13 14  1  0
 14 15  2  0
 15 16  1  0
 16 17  1  0
 17 18  1  0
 18 19  2  0
 18 20  2  0
 18 21  1  0
 21 22  1  0
 22 23  2  0
 23 24  1  0
 24 25  2  0
 25 26  1  0
 26 27  2  0
 16 28  2  0
 10 29  1  0
 29 30  2  0
 30  7  1  0
 28 12  1  0
 27 22  1  0
  4 31  1  0
  4 32  1  0
  5 33  1  0
  5 34  1  0
  6 35  1  0
  6 36  1  0
  8 37  1  0
  9 38  1  0
 11 39  1  0
 11 40  1  0
 13 41  1  0
 14 42  1  0
 15 43  1  0
 17 44  1  0
 21 45  1  0
 21 46  1  0
 23 47  1  0
 24 48  1  0
 25 49  1  0
 26 50  1  0
 27 51  1  0
 28 52  1  0
 29 53  1  0
 30 54  1  0
M  CHG  1   3  -1
M  END
>  <UniqueID>  (59) 
56

>  <SMILES>  (59) 
O=C([O-])CCCc1ccc(Cc2cccc(NS(=O)(=O)Cc3ccccc3)c2)cc1

>  <Energy>  (59) 
46.86513296141153

>  <Genealogy>  (59) 
O=C([O-])CCCc1ccc(Cc2cccc(NS(=O)(=O)Cc3ccccc3)c2)cc1 (protonated)
O=C([O-])CCCc1ccc(Cc2cccc(NS(=O)(=O)Cc3ccccc3)c2)cc1 (3D coordinates assigned)
O=C([O-])CCCc1ccc(Cc2cccc(NS(=O)(=O)Cc3ccccc3)c2)cc1 (optimized conformer: 46.86513296141153 kcal/mol)

>  <smiles>  (59) 
O=C(O)CCCc1ccc(Cc2cccc(NS(=O)(=O)Cc3ccccc3)c2)cc1

>  <score_type>  (59) 
oracle

>  <origin>  (59) 
adg

>  <m_score__min__energy>  (59) 
-12.800000000000001

>  <m_primary>  (59) 
energy

$$$$
59:0
     RDKit          3D

 62 66  0  0  0  0  0  0  0  0999 V2000
   64.4670   33.1820   47.5510 N   0  0  0  0  0  0  0  0  0  0  0  0
   63.7170   32.7280   49.0420 S   0  0  0  0  0  0  0  0  0  0  0  0
   64.6950   31.9530   49.8810 O   0  0  0  0  0  0  0  0  0  0  0  0
   63.3120   33.9640   49.7960 O   0  0  0  0  0  0  0  0  0  0  0  0
   62.3000   31.7360   48.7120 C   0  0  0  0  0  0  0  0  0  0  0  0
   62.0010   31.3510   47.3990 C   0  0  0  0  0  0  0  0  0  0  0  0
   60.8700   30.5730   47.1350 C   0  0  0  0  0  0  0  0  0  0  0  0
   60.0160   30.1800   48.1810 C   0  0  0  0  0  0  0  0  0  0  0  0
   58.8020   29.3340   47.8950 C   0  0  0  0  0  0  0  0  0  0  0  0
   58.4240   29.3970   46.4430 C   0  0  0  0  0  0  0  0  0  0  0  0
   57.9010   30.5100   45.8660 N   0  0  0  0  0  0  0  0  0  0  0  0
   57.6830   30.1150   44.5960 C   0  0  0  0  0  0  0  0  0  0  0  0
   58.0000   28.8610   44.3630 N   0  0  0  0  0  0  0  0  0  0  0  0
   58.4520   28.3520   45.5180 C   0  0  0  0  0  0  0  0  0  0  0  0
   58.7680   26.9280   45.7530 C   0  0  0  0  0  0  0  0  0  0  0  0
   59.8930   26.6190   46.2290 O   0  0  0  0  0  0  0  0  0  0  0  0
   57.7920   25.8560   45.4500 C   0  0  0  0  0  0  0  0  0  0  0  0
   56.8490   25.4460   46.4110 C   0  0  0  0  0  0  0  0  0  0  0  0
   55.9270   24.4390   46.1120 C   0  0  0  0  0  0  0  0  0  0  0  0
   55.9260   23.8410   44.8490 C   0  0  0  0  0  0  0  0  0  0  0  0
   55.0280   22.8660   44.5610 F   0  0  0  0  0  0  0  0  0  0  0  0
   56.8450   24.2530   43.8810 C   0  0  0  0  0  0  0  0  0  0  0  0
   57.7710   25.2590   44.1760 C   0  0  0  0  0  0  0  0  0  0  0  0
   57.3760   28.3220   43.1750 C   0  0  0  0  0  0  0  0  0  0  0  0
   56.6470   29.5450   42.5620 C   0  0  0  0  0  0  0  0  0  0  0  0
   56.8260   30.7280   43.5590 C   0  0  2  0  0  0  0  0  0  0  0  0
   57.4850   31.9150   42.9170 C   0  0  0  0  0  0  0  0  0  0  0  0
   57.2980   32.1660   41.6930 O   0  0  0  0  0  0  0  0  0  0  0  0
   58.2670   32.8000   43.7240 N   0  0  0  0  0  0  0  0  0  0  0  0
   57.6990   33.6770   44.7420 C   0  0  0  0  0  0  0  0  0  0  0  0
   58.6620   33.8430   45.8900 C   0  0  0  0  0  0  0  0  0  0  0  0
   59.9580   34.3340   45.6610 C   0  0  0  0  0  0  0  0  0  0  0  0
   60.8390   34.5250   46.7300 C   0  0  0  0  0  0  0  0  0  0  0  0
   60.4330   34.2300   48.0350 C   0  0  0  0  0  0  0  0  0  0  0  0
   59.1460   33.7380   48.2700 C   0  0  0  0  0  0  0  0  0  0  0  0
   58.2610   33.5440   47.2040 C   0  0  0  0  0  0  0  0  0  0  0  0
   57.0120   33.0750   47.4550 F   0  0  0  0  0  0  0  0  0  0  0  0
   60.3260   30.5610   49.4960 C   0  0  0  0  0  0  0  0  0  0  0  0
   61.4550   31.3410   49.7580 C   0  0  0  0  0  0  0  0  0  0  0  0
   65.4560   33.4350   47.7700 H   0  0  0  0  0  0  0  0  0  0  0  0
   64.4940   32.3290   46.9490 H   0  0  0  0  0  0  0  0  0  0  0  0
   62.6580   31.6617   46.5732 H   0  0  0  0  0  0  0  0  0  0  0  0
   60.6466   30.2662   46.1025 H   0  0  0  0  0  0  0  0  0  0  0  0
   59.0212   28.2900   48.1634 H   0  0  0  0  0  0  0  0  0  0  0  0
   57.9613   29.7200   48.4901 H   0  0  0  0  0  0  0  0  0  0  0  0
   56.8375   25.9208   47.4032 H   0  0  0  0  0  0  0  0  0  0  0  0
   55.2006   24.1165   46.8725 H   0  0  0  0  0  0  0  0  0  0  0  0
   56.8405   23.7856   42.8853 H   0  0  0  0  0  0  0  0  0  0  0  0
   58.4871   25.5854   43.4074 H   0  0  0  0  0  0  0  0  0  0  0  0
   58.1308   27.9253   42.4800 H   0  0  0  0  0  0  0  0  0  0  0  0
   56.6980   27.4830   43.3905 H   0  0  0  0  0  0  0  0  0  0  0  0
   57.0910   29.8007   41.5886 H   0  0  0  0  0  0  0  0  0  0  0  0
   55.5813   29.3261   42.3996 H   0  0  0  0  0  0  0  0  0  0  0  0
   55.8774   31.1310   43.9434 H   0  0  0  0  0  0  0  0  0  0  0  0
   57.4919   34.6616   44.2975 H   0  0  0  0  0  0  0  0  0  0  0  0
   56.7679   33.2291   45.1195 H   0  0  0  0  0  0  0  0  0  0  0  0
   60.2813   34.5693   44.6362 H   0  0  0  0  0  0  0  0  0  0  0  0
   61.8532   34.9080   46.5439 H   0  0  0  0  0  0  0  0  0  0  0  0
   61.1254   34.3849   48.8756 H   0  0  0  0  0  0  0  0  0  0  0  0
   58.8280   33.5026   49.2964 H   0  0  0  0  0  0  0  0  0  0  0  0
   59.6763   30.2436   50.3249 H   0  0  0  0  0  0  0  0  0  0  0  0
   61.6818   31.6466   50.7901 H   0  0  0  0  0  0  0  0  0  0  0  0
  1  2  1  0
  2  3  2  0
  2  4  2  0
  2  5  1  0
  5  6  2  0
  6  7  1  0
  7  8  2  0
  8  9  1  0
  9 10  1  0
 10 11  1  0
 11 12  2  0
 12 13  1  0
 13 14  1  0
 14 15  1  0
 15 16  2  0
 15 17  1  0
 17 18  2  0
 18 19  1  0
 19 20  2  0
 20 21  1  0
 20 22  1  0
 22 23  2  0
 13 24  1  0
 24 25  1  0
 25 26  1  0
 26 27  1  0
 27 28  2  0
 27 29  1  0
 29 30  1  0
 30 31  1  0
 31 32  2  0
 32 33  1  0
 33 34  2  0
 34 35  1  0
 35 36  2  0
 36 37  1  0
  8 38  1  0
 38 39  2  0
 39  5  1  0
 14 10  2  0
 23 17  1  0
 36 31  1  0
 26 12  1  0
  1 40  1  0
  1 41  1  0
  6 42  1  0
  7 43  1  0
  9 44  1  0
  9 45  1  0
 18 46  1  0
 19 47  1  0
 22 48  1  0
 23 49  1  0
 24 50  1  0
 24 51  1  0
 25 52  1  0
 25 53  1  0
 26 54  1  1
 30 55  1  0
 30 56  1  0
 32 57  1  0
 33 58  1  0
 34 59  1  0
 35 60  1  0
 38 61  1  0
 39 62  1  0
M  CHG  1  29  -1
M  END
>  <UniqueID>  (60) 
57

>  <SMILES>  (60) 
NS(=O)(=O)c1ccc(Cc2nc3n(c2C(=O)c2ccc(F)cc2)CC[C@@H]3C(=O)[N-]Cc2ccccc2F)cc1

>  <Energy>  (60) 
117.64091086461627

>  <Genealogy>  (60) 
NS(=O)(=O)c1ccc(Cc2nc3n(c2C(=O)c2ccc(F)cc2)CCC3C(=O)[N-]Cc2ccccc2F)cc1 (protonated)
NS(=O)(=O)c1ccc(Cc2nc3n(c2C(=O)c2ccc(F)cc2)CC[C@@H]3C(=O)[N-]Cc2ccccc2F)cc1 (chirality)
NS(=O)(=O)c1ccc(Cc2nc3n(c2C(=O)c2ccc(F)cc2)CC[C@@H]3C(=O)[N-]Cc2ccccc2F)cc1 (3D coordinates assigned)
NS(=O)(=O)c1ccc(Cc2nc3n(c2C(=O)c2ccc(F)cc2)CC[C@@H]3C(=O)[N-]Cc2ccccc2F)cc1 (nonaromatic ring conformer: 117.64091086461627 kcal/mol)

>  <smiles>  (60) 
NS(=O)(=O)c1ccc(Cc2nc3n(c2C(=O)c2ccc(F)cc2)CCC3C(=O)NCc2ccccc2F)cc1

>  <score_type>  (60) 
oracle

>  <origin>  (60) 
adg

>  <m_score__min__energy>  (60) 
-11.34

>  <m_primary>  (60) 
energy

$$$$
60:0
     RDKit          3D

 62 65  0  0  0  0  0  0  0  0999 V2000
   56.8540   32.4110   50.0980 H   0  0  0  0  0  0  0  0  0  0  0  0
   57.8430   32.1880   50.3480 N   0  0  0  0  0  0  0  0  0  0  0  0
   58.5940   33.0460   51.2020 C   0  0  0  0  0  0  0  0  0  0  0  0
   58.0360   33.5570   52.2080 O   0  0  0  0  0  0  0  0  0  0  0  0
   60.0280   33.3000   50.9430 C   0  0  0  0  0  0  0  0  0  0  0  0
   61.0580   33.1370   51.8560 C   0  0  0  0  0  0  0  0  0  0  0  0
   60.9490   32.6960   53.2860 C   0  0  0  0  0  0  0  0  0  0  0  0
   60.1970   31.8968   53.3614 H   0  0  0  0  0  0  0  0  0  0  0  0
   61.9306   32.3278   53.6192 H   0  0  0  0  0  0  0  0  0  0  0  0
   60.5330   33.8610   54.1770 C   0  0  0  0  0  0  0  0  0  0  0  0
   60.6368   33.5704   55.2328 H   0  0  0  0  0  0  0  0  0  0  0  0
   61.1769   34.7286   53.9705 H   0  0  0  0  0  0  0  0  0  0  0  0
   59.4852   34.1246   53.9705 H   0  0  0  0  0  0  0  0  0  0  0  0
   62.2280   33.4690   51.2810 N   0  0  0  0  0  0  0  0  0  0  0  0
   61.8980   33.8310   50.0240 C   0  0  0  0  0  0  0  0  0  0  0  0
   62.9410   34.2540   49.0230 C   0  0  0  0  0  0  0  0  0  0  0  0
   62.5281   35.0566   48.3942 H   0  0  0  0  0  0  0  0  0  0  0  0
   63.8261   34.6042   49.5743 H   0  0  0  0  0  0  0  0  0  0  0  0
   63.3650   33.0860   48.1250 C   0  0  0  0  0  0  0  0  0  0  0  0
   64.3778   32.7681   48.4135 H   0  0  0  0  0  0  0  0  0  0  0  0
   62.6341   32.2753   48.2614 H   0  0  0  0  0  0  0  0  0  0  0  0
   63.3720   33.4630   46.6440 C   0  0  0  0  0  0  0  0  0  0  0  0
   63.3923   34.5583   46.5446 H   0  0  0  0  0  0  0  0  0  0  0  0
   64.2623   33.0344   46.1607 H   0  0  0  0  0  0  0  0  0  0  0  0
   62.4664   33.0677   46.1607 H   0  0  0  0  0  0  0  0  0  0  0  0
   60.5670   33.7350   49.7780 N   0  0  0  0  0  0  0  0  0  0  0  0
   59.8640   34.1940   48.5690 C   0  0  0  0  0  0  0  0  0  0  0  0
   60.5345   34.8426   47.9861 H   0  0  0  0  0  0  0  0  0  0  0  0
   58.9642   34.7488   48.8733 H   0  0  0  0  0  0  0  0  0  0  0  0
   59.4450   33.0230   47.7170 C   0  0  0  0  0  0  0  0  0  0  0  0
   60.3330   31.9590   47.4900 C   0  0  0  0  0  0  0  0  0  0  0  0
   61.3382   31.9804   47.9362 H   0  0  0  0  0  0  0  0  0  0  0  0
   59.9460   30.8730   46.7000 C   0  0  0  0  0  0  0  0  0  0  0  0
   60.6445   30.0394   46.5354 H   0  0  0  0  0  0  0  0  0  0  0  0
   58.6710   30.8410   46.1160 C   0  0  0  0  0  0  0  0  0  0  0  0
   58.2690   29.7160   45.3150 N   0  0  0  0  0  0  0  0  0  0  0  0
   57.6940   29.7850   44.0930 C   0  0  0  0  0  0  0  0  0  0  0  0
   57.3880   31.0540   43.3590 C   0  0  0  0  0  0  0  0  0  0  0  0
   57.1939   31.8588   44.0833 H   0  0  0  0  0  0  0  0  0  0  0  0
   58.2458   31.3282   42.7273 H   0  0  0  0  0  0  0  0  0  0  0  0
   56.4995   30.9071   42.7273 H   0  0  0  0  0  0  0  0  0  0  0  0
   57.4300   28.5170   43.6130 C   0  0  0  0  0  0  0  0  0  0  0  0
   56.9713   28.2632   42.6460 H   0  0  0  0  0  0  0  0  0  0  0  0
   57.8560   27.6250   44.5880 C   0  0  0  0  0  0  0  0  0  0  0  0
   57.7470   26.2820   44.5460 C   0  0  0  0  0  0  0  0  0  0  0  0
   58.0493   25.7683   43.6215 H   0  0  0  0  0  0  0  0  0  0  0  0
   57.2480   25.4600   45.6620 C   0  0  0  0  0  0  0  0  0  0  0  0
   57.8900   24.3720   46.1220 N   0  0  0  0  0  0  0  0  0  0  0  0
   57.0540   23.8880   47.0650 C   0  0  0  0  0  0  0  0  0  0  0  0
   57.3190   22.8600   47.7420 O   0  0  0  0  0  0  0  0  0  0  0  0
   55.9090   24.5850   47.2180 N   0  0  0  0  0  0  0  0  0  0  0  0
   56.0380   25.5700   46.3140 C   0  0  0  0  0  0  0  0  0  0  0  0
   55.0550   26.5200   46.0600 O   0  0  0  0  0  0  0  0  0  0  0  0
   54.3340   26.7140   46.7450 H   0  0  0  0  0  0  0  0  0  0  0  0
   58.3680   28.4010   45.6340 C   0  0  0  0  0  0  0  0  0  0  0  0
   58.9190   27.9430   46.7690 C   0  0  0  0  0  0  0  0  0  0  0  0
   59.2896   28.6508   47.5251 H   0  0  0  0  0  0  0  0  0  0  0  0
   58.9999   26.8599   46.9431 H   0  0  0  0  0  0  0  0  0  0  0  0
   57.7880   31.9080   46.3320 C   0  0  0  0  0  0  0  0  0  0  0  0
   56.7862   31.8894   45.8781 H   0  0  0  0  0  0  0  0  0  0  0  0
   58.1730   32.9940   47.1200 C   0  0  0  0  0  0  0  0  0  0  0  0
   57.4770   33.8317   47.2745 H   0  0  0  0  0  0  0  0  0  0  0  0
  1  2  1  0
  2  3  1  0
  3  4  2  0
  3  5  1  0
  5  6  2  0
  6  7  1  0
  7  8  1  0
  7  9  1  0
  7 10  1  0
 10 11  1  0
 10 12  1  0
 10 13  1  0
  6 14  1  0
 14 15  2  0
 15 16  1  0
 16 17  1  0
 16 18  1  0
 16 19  1  0
 19 20  1  0
 19 21  1  0
 19 22  1  0
 22 23  1  0
 22 24  1  0
 22 25  1  0
 15 26  1  0
 26 27  1  0
 27 28  1  0
 27 29  1  0
 27 30  1  0
 30 31  2  0
 31 32  1  0
 31 33  1  0
 33 34  1  0
 33 35  2  0
 35 36  1  0
 36 37  1  0
 37 38  1  0
 38 39  1  0
 38 40  1  0
 38 41  1  0
 37 42  2  0
 42 43  1  0
 42 44  1  0
 44 45  2  0
 45 46  1  0
 45 47  1  0
 47 48  1  0
 48 49  1  0
 49 50  2  0
 49 51  1  0
 51 52  1  0
 52 53  1  0
 53 54  1  0
 44 55  1  0
 55 56  2  0
 56 57  1  0
 56 58  1  0
 35 59  1  0
 59 60  1  0
 59 61  2  0
 61 62  1  0
 26  5  1  0
 61 30  1  0
 55 36  1  0
 52 47  2  0
M  CHG  3   2  -1  48  -1  51  -1
M  END
>  <UniqueID>  (61) 
58

>  <SMILES>  (61) 
C=c1/c(=C/c2[n-]c(=O)[n-]c2O)cc(C)n1-c1ccc(Cn2c(CCC)nc(CC)c2C([NH-])=O)cc1

>  <Energy>  (61) 
159.13487004541827

>  <Genealogy>  (61) 
C=c1c(=Cc2[n-]c(=O)[n-]c2O)cc(C)n1-c1ccc(Cn2c(CCC)nc(CC)c2C([NH-])=O)cc1 (protonated)
C=c1/c(=C/c2[n-]c(=O)[n-]c2O)cc(C)n1-c1ccc(Cn2c(CCC)nc(CC)c2C([NH-])=O)cc1 (cis-trans isomerization)
C=c1/c(=C/c2[n-]c(=O)[n-]c2O)cc(C)n1-c1ccc(Cn2c(CCC)nc(CC)c2C([NH-])=O)cc1 (3D coordinates assigned)
C=c1/c(=C/c2[n-]c(=O)[n-]c2O)cc(C)n1-c1ccc(Cn2c(CCC)nc(CC)c2C([NH-])=O)cc1 (optimized conformer: 159.13487004541827 kcal/mol)

>  <smiles>  (61) 
C=c1c(=Cc2[nH]c(=O)[nH]c2O)cc(C)n1-c1ccc(Cn2c(CCC)nc(CC)c2C(N)=O)cc1

>  <score_type>  (61) 
oracle

>  <origin>  (61) 
adg

>  <m_score__min__energy>  (61) 
-14.73

>  <m_primary>  (61) 
energy

$$$$
61:0
     RDKit          3D

 50 52  0  0  0  0  0  0  0  0999 V2000
   54.5630   28.2190   53.0430 C   0  0  0  0  0  0  0  0  0  0  0  0
   54.9160   29.4490   52.6340 C   0  0  0  0  0  0  0  0  0  0  0  0
   54.0490   30.4510   52.1640 C   0  0  0  0  0  0  0  0  0  0  0  0
   52.7400   30.4140   51.8430 C   0  0  0  0  0  0  0  0  0  0  0  0
   51.7090   31.3450   52.3240 C   0  0  0  0  0  0  0  0  0  0  0  0
   51.4320   31.5430   53.6240 N   0  0  0  0  0  0  0  0  0  0  0  0
   50.5350   32.5510   53.6030 C   0  0  0  0  0  0  0  0  0  0  0  0
   50.0160   33.0180   54.6500 O   0  0  0  0  0  0  0  0  0  0  0  0
   50.2450   33.0290   52.3740 N   0  0  0  0  0  0  0  0  0  0  0  0
   51.0070   32.2640   51.5760 C   0  0  0  0  0  0  0  0  0  0  0  0
   51.0820   32.4240   50.1980 O   0  0  0  0  0  0  0  0  0  0  0  0
   54.8040   31.6040   52.0680 C   0  0  0  0  0  0  0  0  0  0  0  0
   56.0960   31.2670   52.4040 C   0  0  0  0  0  0  0  0  0  0  0  0
   57.2240   32.2530   52.4780 C   0  0  0  0  0  0  0  0  0  0  0  0
   56.1760   29.9580   52.7480 N   0  0  0  0  0  0  0  0  0  0  0  0
   57.3830   29.2950   53.2730 C   0  0  0  0  0  0  0  0  0  0  0  0
   58.4390   29.2010   52.2010 C   0  0  0  0  0  0  0  0  0  0  0  0
   59.6280   28.4870   52.4290 C   0  0  0  0  0  0  0  0  0  0  0  0
   60.5650   28.3360   51.4040 C   0  0  0  0  0  0  0  0  0  0  0  0
   60.3210   28.8820   50.1420 C   0  0  0  0  0  0  0  0  0  0  0  0
   59.1390   29.5980   49.9030 C   0  0  0  0  0  0  0  0  0  0  0  0
   58.8540   30.1280   48.6060 N   0  0  0  0  0  0  0  0  0  0  0  0
   59.1390   31.7990   48.2390 S   0  0  0  0  0  0  0  0  0  0  0  0
   58.2040   32.6790   49.0200 O   0  0  0  0  0  0  0  0  0  0  0  0
   58.9040   32.0270   46.7730 O   0  0  0  0  0  0  0  0  0  0  0  0
   60.8290   32.2330   48.6460 C   0  0  0  0  0  0  0  0  0  0  0  0
   61.8260   31.8800   47.5320 C   0  0  0  0  0  0  0  0  0  0  0  0
   63.0220   32.8310   47.4780 C   0  0  0  0  0  0  0  0  0  0  0  0
   58.2190   29.7800   50.9420 C   0  0  0  0  0  0  0  0  0  0  0  0
   55.3316   27.5139   53.3925 H   0  0  0  0  0  0  0  0  0  0  0  0
   53.5054   27.9170   53.0284 H   0  0  0  0  0  0  0  0  0  0  0  0
   52.4143   29.6156   51.1600 H   0  0  0  0  0  0  0  0  0  0  0  0
   54.4419   32.6014   51.7783 H   0  0  0  0  0  0  0  0  0  0  0  0
   57.4612   32.4603   53.5319 H   0  0  0  0  0  0  0  0  0  0  0  0
   58.1101   31.8346   51.9782 H   0  0  0  0  0  0  0  0  0  0  0  0
   56.9279   33.1871   51.9782 H   0  0  0  0  0  0  0  0  0  0  0  0
   57.7767   29.8764   54.1197 H   0  0  0  0  0  0  0  0  0  0  0  0
   57.1177   28.2797   53.6027 H   0  0  0  0  0  0  0  0  0  0  0  0
   59.8213   28.0456   53.4178 H   0  0  0  0  0  0  0  0  0  0  0  0
   61.4984   27.7850   51.5916 H   0  0  0  0  0  0  0  0  0  0  0  0
   61.0565   28.7504   49.3347 H   0  0  0  0  0  0  0  0  0  0  0  0
   58.8200   29.4710   47.7950 H   0  0  0  0  0  0  0  0  0  0  0  0
   60.8779   33.3165   48.8293 H   0  0  0  0  0  0  0  0  0  0  0  0
   61.1119   31.6519   49.5361 H   0  0  0  0  0  0  0  0  0  0  0  0
   62.1974   30.8590   47.7044 H   0  0  0  0  0  0  0  0  0  0  0  0
   61.2931   31.9664   46.5736 H   0  0  0  0  0  0  0  0  0  0  0  0
   63.3375   33.0819   48.5015 H   0  0  0  0  0  0  0  0  0  0  0  0
   63.8535   32.3447   46.9468 H   0  0  0  0  0  0  0  0  0  0  0  0
   62.7355   33.7507   46.9468 H   0  0  0  0  0  0  0  0  0  0  0  0
   57.3150   30.3826   50.7699 H   0  0  0  0  0  0  0  0  0  0  0  0
  1  2  2  0
  2  3  1  0
  3  4  2  3
  4  5  1  0
  5  6  1  0
  6  7  1  0
  7  8  2  0
  7  9  1  0
  9 10  1  0
 10 11  1  0
  3 12  1  0
 12 13  2  0
 13 14  1  0
 13 15  1  0
 15 16  1  0
 16 17  1  0
 17 18  2  0
 18 19  1  0
 19 20  2  0
 20 21  1  0
 21 22  1  0
 22 23  1  0
 23 24  2  0
 23 25  2  0
 23 26  1  0
 26 27  1  0
 27 28  1  0
 21 29  2  0
 15  2  1  0
 29 17  1  0
 10  5  2  0
  1 30  1  0
  1 31  1  0
  4 32  1  0
 12 33  1  0
 14 34  1  0
 14 35  1  0
 14 36  1  0
 16 37  1  0
 16 38  1  0
 18 39  1  0
 19 40  1  0
 20 41  1  0
 22 42  1  0
 26 43  1  0
 26 44  1  0
 27 45  1  0
 27 46  1  0
 28 47  1  0
 28 48  1  0
 28 49  1  0
 29 50  1  0
M  CHG  3   6  -1   9  -1  11  -1
M  END
>  <UniqueID>  (62) 
59

>  <SMILES>  (62) 
C=c1c(=Cc2[n-]c(=O)[n-]c2[O-])cc(C)n1Cc1cccc(NS(=O)(=O)CCC)c1

>  <Energy>  (62) 
115.76364702061555

>  <Genealogy>  (62) 
C=c1c(=Cc2[n-]c(=O)[n-]c2[O-])cc(C)n1Cc1cccc(NS(=O)(=O)CCC)c1 (protonated)
C=c1c(=Cc2[n-]c(=O)[n-]c2[O-])cc(C)n1Cc1cccc(NS(=O)(=O)CCC)c1 (3D coordinates assigned)
C=c1c(=Cc2[n-]c(=O)[n-]c2[O-])cc(C)n1Cc1cccc(NS(=O)(=O)CCC)c1 (optimized conformer: 115.76364702061555 kcal/mol)

>  <smiles>  (62) 
C=c1c(=Cc2[nH]c(=O)[nH]c2O)cc(C)n1Cc1cccc(NS(=O)(=O)CCC)c1

>  <score_type>  (62) 
oracle

>  <origin>  (62) 
adg

>  <m_score__min__energy>  (62) 
-16.510000000000002

>  <m_primary>  (62) 
energy

$$$$
62:0
     RDKit          3D

 89 93  0  0  0  0  0  0  0  0999 V2000
   61.3600   25.6080   50.8870 O   0  0  0  0  0  0  0  0  0  0  0  0
   60.7800   26.6120   50.3910 C   0  0  0  0  0  0  0  0  0  0  0  0
   60.7960   27.9010   51.1680 C   0  0  0  0  0  0  0  0  0  0  0  0
   61.0050   29.0270   50.2530 N   0  0  0  0  0  0  0  0  0  0  0  0
   60.7990   30.3870   50.6570 C   0  0  0  0  0  0  0  0  0  0  0  0
   59.9970   30.6400   51.5970 O   0  0  0  0  0  0  0  0  0  0  0  0
   61.5480   31.4940   50.0080 C   0  0  0  0  0  0  0  0  0  0  0  0
   61.0900   32.0530   48.8020 C   0  0  0  0  0  0  0  0  0  0  0  0
   61.8240   33.0510   48.1470 C   0  0  0  0  0  0  0  0  0  0  0  0
   61.3580   33.6070   46.8560 C   0  0  0  0  0  0  0  0  0  0  0  0
   62.2100   33.8200   45.9450 O   0  0  0  0  0  0  0  0  0  0  0  0
   59.9660   33.8890   46.6050 N   0  0  0  0  0  0  0  0  0  0  0  0
   58.9010   33.1710   47.3100 C   0  0  0  0  0  0  0  0  0  0  0  0
   57.7320   32.9280   46.3570 C   0  0  0  0  0  0  0  0  0  0  0  0
   57.3090   34.1400   45.7650 O   0  0  0  0  0  0  0  0  0  0  0  0
   58.3340   34.6540   44.9370 C   0  0  0  0  0  0  0  0  0  0  0  0
   59.5730   35.0240   45.7610 C   0  0  0  0  0  0  0  0  0  0  0  0
   63.0030   33.5320   48.7310 C   0  0  0  0  0  0  0  0  0  0  0  0
   63.4750   32.9960   49.9390 C   0  0  0  0  0  0  0  0  0  0  0  0
   64.7000   33.4860   50.5210 N   0  0  0  0  0  0  0  0  0  0  0  0
   64.6540   34.4640   51.6150 C   0  0  0  0  0  0  0  0  0  0  0  0
   66.0330   34.6260   52.2560 C   0  0  0  0  0  0  0  0  0  0  0  0
   66.6570   33.3080   52.3920 N   0  0  0  0  0  0  0  0  0  0  0  0
   67.0060   32.7290   51.0810 C   0  0  0  0  0  0  0  0  0  0  0  0
   66.0040   33.0960   49.9620 C   0  0  0  0  0  0  0  0  0  0  0  0
   62.7490   31.9660   50.5640 C   0  0  0  0  0  0  0  0  0  0  0  0
   60.0280   26.4410   49.1740 N   0  0  0  0  0  0  0  0  0  0  0  0
   60.0490   27.2680   47.9600 C   0  0  2  0  0  0  0  0  0  0  0  0
   58.9930   28.3940   48.0520 C   0  0  0  0  0  0  0  0  0  0  0  0
   58.5650   28.9000   46.6970 C   0  0  0  0  0  0  0  0  0  0  0  0
   59.3110   29.8940   46.0390 C   0  0  0  0  0  0  0  0  0  0  0  0
   58.9020   30.3750   44.7900 C   0  0  0  0  0  0  0  0  0  0  0  0
   57.7380   29.8760   44.1970 C   0  0  0  0  0  0  0  0  0  0  0  0
   56.9910   28.8860   44.8450 C   0  0  0  0  0  0  0  0  0  0  0  0
   57.4010   28.3980   46.0900 C   0  0  0  0  0  0  0  0  0  0  0  0
   59.9290   26.4440   46.7010 C   0  0  0  0  0  0  0  0  0  0  0  0
   60.4870   26.8060   45.6370 O   0  0  0  0  0  0  0  0  0  0  0  0
   59.1680   25.2330   46.7110 N   0  0  0  0  0  0  0  0  0  0  0  0
   57.7140   25.2450   46.7740 C   0  0  0  0  0  0  0  0  0  0  0  0
   57.1490   24.0080   46.0700 C   0  0  0  0  0  0  0  0  0  0  0  0
   57.7700   23.7320   44.7520 N   0  0  0  0  0  0  0  0  0  0  0  0
   56.9980   24.2130   43.5860 C   0  0  0  0  0  0  0  0  0  0  0  0
   56.0450   23.1400   43.0040 C   0  0  0  0  0  0  0  0  0  0  0  0
   56.1870   21.8730   43.6110 O   0  0  0  0  0  0  0  0  0  0  0  0
   57.5470   21.5030   43.6120 C   0  0  0  0  0  0  0  0  0  0  0  0
   58.3410   22.3740   44.5990 C   0  0  0  0  0  0  0  0  0  0  0  0
   59.8350   28.0262   51.6883 H   0  0  0  0  0  0  0  0  0  0  0  0
   61.6134   27.8728   51.9035 H   0  0  0  0  0  0  0  0  0  0  0  0
   61.2850   28.8380   49.2630 H   0  0  0  0  0  0  0  0  0  0  0  0
   60.1427   31.7022   48.3667 H   0  0  0  0  0  0  0  0  0  0  0  0
   59.2863   32.2060   47.6709 H   0  0  0  0  0  0  0  0  0  0  0  0
   58.5577   33.7722   48.1649 H   0  0  0  0  0  0  0  0  0  0  0  0
   58.0492   32.2317   45.5667 H   0  0  0  0  0  0  0  0  0  0  0  0
   56.8936   32.5019   46.9275 H   0  0  0  0  0  0  0  0  0  0  0  0
   58.6111   33.8926   44.1931 H   0  0  0  0  0  0  0  0  0  0  0  0
   57.9605   35.5612   44.4395 H   0  0  0  0  0  0  0  0  0  0  0  0
   60.4005   35.2781   45.0822 H   0  0  0  0  0  0  0  0  0  0  0  0
   59.3393   35.8882   46.4002 H   0  0  0  0  0  0  0  0  0  0  0  0
   63.5649   34.3386   48.2373 H   0  0  0  0  0  0  0  0  0  0  0  0
   64.3248   35.4352   51.2171 H   0  0  0  0  0  0  0  0  0  0  0  0
   63.9494   34.1052   52.3797 H   0  0  0  0  0  0  0  0  0  0  0  0
   66.6615   35.2671   51.6204 H   0  0  0  0  0  0  0  0  0  0  0  0
   65.9280   35.0900   53.2478 H   0  0  0  0  0  0  0  0  0  0  0  0
   67.5350   33.4130   52.9470 H   0  0  0  0  0  0  0  0  0  0  0  0
   68.0018   33.0959   50.7916 H   0  0  0  0  0  0  0  0  0  0  0  0
   66.9825   31.6349   51.1923 H   0  0  0  0  0  0  0  0  0  0  0  0
   66.4097   33.9357   49.3786 H   0  0  0  0  0  0  0  0  0  0  0  0
   65.8582   32.2131   49.3222 H   0  0  0  0  0  0  0  0  0  0  0  0
   63.1258   31.5250   51.4987 H   0  0  0  0  0  0  0  0  0  0  0  0
   61.0349   27.7513   47.8943 H   0  0  0  0  0  0  0  0  0  0  0  0
   58.1087   28.0055   48.5784 H   0  0  0  0  0  0  0  0  0  0  0  0
   59.4499   29.2358   48.5929 H   0  0  0  0  0  0  0  0  0  0  0  0
   60.2210   30.2957   46.5086 H   0  0  0  0  0  0  0  0  0  0  0  0
   59.4956   31.1449   44.2752 H   0  0  0  0  0  0  0  0  0  0  0  0
   57.4095   30.2619   43.2207 H   0  0  0  0  0  0  0  0  0  0  0  0
   56.0790   28.4905   44.3740 H   0  0  0  0  0  0  0  0  0  0  0  0
   56.8109   27.6193   46.5954 H   0  0  0  0  0  0  0  0  0  0  0  0
   57.3950   25.2425   47.8267 H   0  0  0  0  0  0  0  0  0  0  0  0
   57.3383   26.1490   46.2724 H   0  0  0  0  0  0  0  0  0  0  0  0
   57.3117   23.1351   46.7193 H   0  0  0  0  0  0  0  0  0  0  0  0
   56.0823   24.2039   45.8862 H   0  0  0  0  0  0  0  0  0  0  0  0
   56.3990   25.0817   43.8969 H   0  0  0  0  0  0  0  0  0  0  0  0
   57.7208   24.4718   42.7982 H   0  0  0  0  0  0  0  0  0  0  0  0
   55.0087   23.4803   43.1465 H   0  0  0  0  0  0  0  0  0  0  0  0
   56.3020   23.0207   41.9411 H   0  0  0  0  0  0  0  0  0  0  0  0
   57.6348   20.4475   43.9090 H   0  0  0  0  0  0  0  0  0  0  0  0
   57.9559   21.6477   42.6011 H   0  0  0  0  0  0  0  0  0  0  0  0
   58.3419   21.8801   45.5819 H   0  0  0  0  0  0  0  0  0  0  0  0
   59.3593   22.4855   44.1981 H   0  0  0  0  0  0  0  0  0  0  0  0
  1  2  2  0
  2  3  1  0
  3  4  1  0
  4  5  1  0
  5  6  2  0
  5  7  1  0
  7  8  2  0
  8  9  1  0
  9 10  1  0
 10 11  2  0
 10 12  1  0
 12 13  1  0
 13 14  1  0
 14 15  1  0
 15 16  1  0
 16 17  1  0
  9 18  2  0
 18 19  1  0
 19 20  1  0
 20 21  1  0
 21 22  1  0
 22 23  1  0
 23 24  1  0
 24 25  1  0
 19 26  2  0
  2 27  1  0
 27 28  1  0
 28 29  1  0
 29 30  1  0
 30 31  2  0
 31 32  1  0
 32 33  2  0
 33 34  1  0
 34 35  2  0
 28 36  1  0
 36 37  2  0
 36 38  1  0
 38 39  1  0
 39 40  1  0
 40 41  1  0
 41 42  1  0
 42 43  1  0
 43 44  1  0
 44 45  1  0
 45 46  1  0
 26  7  1  0
 35 30  1  0
 46 41  1  0
 17 12  1  0
 25 20  1  0
  3 47  1  0
  3 48  1  0
  4 49  1  0
  8 50  1  0
 13 51  1  0
 13 52  1  0
 14 53  1  0
 14 54  1  0
 16 55  1  0
 16 56  1  0
 17 57  1  0
 17 58  1  0
 18 59  1  0
 21 60  1  0
 21 61  1  0
 22 62  1  0
 22 63  1  0
 23 64  1  0
 24 65  1  0
 24 66  1  0
 25 67  1  0
 25 68  1  0
 26 69  1  0
 28 70  1  6
 29 71  1  0
 29 72  1  0
 31 73  1  0
 32 74  1  0
 33 75  1  0
 34 76  1  0
 35 77  1  0
 39 78  1  0
 39 79  1  0
 40 80  1  0
 40 81  1  0
 42 82  1  0
 42 83  1  0
 43 84  1  0
 43 85  1  0
 45 86  1  0
 45 87  1  0
 46 88  1  0
 46 89  1  0
M  CHG  2  27  -1  38  -1
M  END
>  <UniqueID>  (63) 
60

>  <SMILES>  (63) 
O=C(CNC(=O)c1cc(C(=O)N2CCOCC2)cc(N2CCNCC2)c1)[N-][C@H](Cc1ccccc1)C(=O)[N-]CCN1CCOCC1

>  <Energy>  (63) 
117.3506209344025

>  <Genealogy>  (63) 
O=C(CNC(=O)c1cc(C(=O)N2CCOCC2)cc(N2CCNCC2)c1)[N-]C(Cc1ccccc1)C(=O)[N-]CCN1CCOCC1 (protonated)
O=C(CNC(=O)c1cc(C(=O)N2CCOCC2)cc(N2CCNCC2)c1)[N-][C@H](Cc1ccccc1)C(=O)[N-]CCN1CCOCC1 (chirality)
O=C(CNC(=O)c1cc(C(=O)N2CCOCC2)cc(N2CCNCC2)c1)[N-][C@H](Cc1ccccc1)C(=O)[N-]CCN1CCOCC1 (3D coordinates assigned)
O=C(CNC(=O)c1cc(C(=O)N2CCOCC2)cc(N2CCNCC2)c1)[N-][C@H](Cc1ccccc1)C(=O)[N-]CCN1CCOCC1 (nonaromatic ring conformer: 117.3506209344025 kcal/mol)

>  <smiles>  (63) 
O=C(CNC(=O)c1cc(C(=O)N2CCOCC2)cc(N2CCNCC2)c1)NC(Cc1ccccc1)C(=O)NCCN1CCOCC1

>  <score_type>  (63) 
oracle

>  <origin>  (63) 
adg

>  <m_score__min__energy>  (63) 
-14.52

>  <m_primary>  (63) 
energy

$$$$
63:0
     RDKit          3D

 42 44  0  0  0  0  0  0  0  0999 V2000
   55.9960   27.5950   45.6200 N   0  0  0  0  0  0  0  0  0  0  0  0
   56.3280   28.8700   45.0760 C   0  0  0  0  0  0  0  0  0  0  0  0
   55.4310   29.7410   44.9250 O   0  0  0  0  0  0  0  0  0  0  0  0
   57.7310   29.1560   44.6400 C   0  0  0  0  0  0  0  0  0  0  0  0
   57.9490   30.6090   44.5590 N   0  0  0  0  0  0  0  0  0  0  0  0
   58.6040   31.2370   45.5850 C   0  0  0  0  0  0  0  0  0  0  0  0
   58.8190   32.6250   45.5660 C   0  0  0  0  0  0  0  0  0  0  0  0
   59.5050   33.2870   46.6470 N   0  0  0  0  0  0  0  0  0  0  0  0
   58.9050   34.2640   47.5520 C   0  0  0  0  0  0  0  0  0  0  0  0
   59.9830   34.5770   48.6180 C   0  0  0  0  0  0  0  0  0  0  0  0
   61.1460   33.7640   48.2680 N   0  0  0  0  0  0  0  0  0  0  0  0
   62.3470   33.6480   49.0580 C   0  0  0  0  0  0  0  0  0  0  0  0
   63.5450   33.2140   48.4650 C   0  0  0  0  0  0  0  0  0  0  0  0
   64.7160   33.1070   49.2220 C   0  0  0  0  0  0  0  0  0  0  0  0
   64.7110   33.4450   50.5880 C   0  0  0  0  0  0  0  0  0  0  0  0
   65.8570   33.3570   51.3950 O   0  0  0  0  0  0  0  0  0  0  0  0
   66.9670   32.4940   51.1600 C   0  0  0  0  0  0  0  0  0  0  0  0
   66.5250   31.2170   50.8700 F   0  0  0  0  0  0  0  0  0  0  0  0
   67.7470   32.4460   52.3000 F   0  0  0  0  0  0  0  0  0  0  0  0
   67.7340   32.9780   50.1150 F   0  0  0  0  0  0  0  0  0  0  0  0
   63.5230   33.8900   51.1740 C   0  0  0  0  0  0  0  0  0  0  0  0
   62.3510   33.9950   50.4200 C   0  0  0  0  0  0  0  0  0  0  0  0
   60.8320   33.0550   47.0830 C   0  0  0  0  0  0  0  0  0  0  0  0
   61.6760   32.3910   46.4240 O   0  0  0  0  0  0  0  0  0  0  0  0
   58.3160   33.3620   44.4860 C   0  0  0  0  0  0  0  0  0  0  0  0
   57.6380   32.7200   43.4550 C   0  0  0  0  0  0  0  0  0  0  0  0
   57.4570   31.3360   43.5040 C   0  0  0  0  0  0  0  0  0  0  0  0
   56.8320   30.7690   42.5650 O   0  0  0  0  0  0  0  0  0  0  0  0
   55.1430   27.4690   46.2090 H   0  0  0  0  0  0  0  0  0  0  0  0
   58.4335   28.7227   45.3672 H   0  0  0  0  0  0  0  0  0  0  0  0
   57.8975   28.7111   43.6479 H   0  0  0  0  0  0  0  0  0  0  0  0
   58.9676   30.6448   46.4377 H   0  0  0  0  0  0  0  0  0  0  0  0
   58.6341   35.1777   47.0027 H   0  0  0  0  0  0  0  0  0  0  0  0
   57.9847   33.8749   48.0120 H   0  0  0  0  0  0  0  0  0  0  0  0
   60.2433   35.6455   48.5956 H   0  0  0  0  0  0  0  0  0  0  0  0
   59.6236   34.3493   49.6324 H   0  0  0  0  0  0  0  0  0  0  0  0
   63.5617   32.9562   47.3958 H   0  0  0  0  0  0  0  0  0  0  0  0
   65.6448   32.7572   48.7477 H   0  0  0  0  0  0  0  0  0  0  0  0
   63.5102   34.1605   52.2401 H   0  0  0  0  0  0  0  0  0  0  0  0
   61.4255   34.3516   50.8956 H   0  0  0  0  0  0  0  0  0  0  0  0
   58.4577   34.4523   44.4532 H   0  0  0  0  0  0  0  0  0  0  0  0
   57.2465   33.2992   42.6057 H   0  0  0  0  0  0  0  0  0  0  0  0
  1  2  1  0
  2  3  2  0
  2  4  1  0
  4  5  1  0
  5  6  1  0
  6  7  2  0
  7  8  1  0
  8  9  1  0
  9 10  1  0
 10 11  1  0
 11 12  1  0
 12 13  2  0
 13 14  1  0
 14 15  2  0
 15 16  1  0
 16 17  1  0
 17 18  1  0
 17 19  1  0
 17 20  1  0
 15 21  1  0
 21 22  2  0
 11 23  1  0
 23 24  2  0
  7 25  1  0
 25 26  2  0
 26 27  1  0
 27 28  2  0
 27  5  1  0
 23  8  1  0
 22 12  1  0
  1 29  1  0
  4 30  1  0
  4 31  1  0
  6 32  1  0
  9 33  1  0
  9 34  1  0
 10 35  1  0
 10 36  1  0
 13 37  1  0
 14 38  1  0
 21 39  1  0
 22 40  1  0
 25 41  1  0
 26 42  1  0
M  CHG  1   1  -1
M  END
>  <UniqueID>  (64) 
61

>  <SMILES>  (64) 
[NH-]C(=O)Cn1cc(N2CCN(c3ccc(OC(F)(F)F)cc3)C2=O)ccc1=O

>  <Energy>  (64) 
65.49421921644736

>  <Genealogy>  (64) 
[NH-]C(=O)Cn1cc(N2CCN(c3ccc(OC(F)(F)F)cc3)C2=O)ccc1=O (protonated)
[NH-]C(=O)Cn1cc(N2CCN(c3ccc(OC(F)(F)F)cc3)C2=O)ccc1=O (3D coordinates assigned)
[NH-]C(=O)Cn1cc(N2CCN(c3ccc(OC(F)(F)F)cc3)C2=O)ccc1=O (nonaromatic ring conformer: 65.49421921644736 kcal/mol)

>  <smiles>  (64) 
NC(=O)Cn1cc(N2CCN(c3ccc(OC(F)(F)F)cc3)C2=O)ccc1=O

>  <score_type>  (64) 
oracle

>  <origin>  (64) 
adg

>  <m_score__min__energy>  (64) 
-10.130000000000001

>  <m_primary>  (64) 
energy

$$$$
64:0
     RDKit          3D

 51 54  0  0  0  0  0  0  0  0999 V2000
   54.2400   29.8450   44.0560 H   0  0  0  0  0  0  0  0  0  0  0  0
   55.1560   30.0530   43.5980 N   0  0  0  0  0  0  0  0  0  0  0  0
   56.2760   29.6930   44.1350 C   0  0  0  0  0  0  0  0  0  0  0  0
   57.0020   28.6660   43.5910 N   0  0  0  0  0  0  0  0  0  0  0  0
   58.1840   28.2610   44.1370 C   0  0  0  0  0  0  0  0  0  0  0  0
   58.8220   27.3030   43.6260 O   0  0  0  0  0  0  0  0  0  0  0  0
   58.6480   28.9330   45.2680 C   0  0  0  0  0  0  0  0  0  0  0  0
   59.7600   28.7820   46.0850 C   0  0  0  0  0  0  0  0  0  0  0  0
   60.8370   27.7460   45.9660 C   0  0  0  0  0  0  0  0  0  0  0  0
   60.9238   27.4353   44.9144 H   0  0  0  0  0  0  0  0  0  0  0  0
   61.7847   28.1809   46.3164 H   0  0  0  0  0  0  0  0  0  0  0  0
   60.5110   26.5200   46.8270 C   0  0  0  0  0  0  0  0  0  0  0  0
   61.4450   26.1335   47.2608 H   0  0  0  0  0  0  0  0  0  0  0  0
   59.8059   26.8356   47.6101 H   0  0  0  0  0  0  0  0  0  0  0  0
   59.8430   25.4010   46.0150 C   0  0  0  0  0  0  0  0  0  0  0  0
   60.2031   25.4508   44.9768 H   0  0  0  0  0  0  0  0  0  0  0  0
   60.1054   24.4387   46.4788 H   0  0  0  0  0  0  0  0  0  0  0  0
   58.3400   25.5280   46.0170 C   0  0  0  0  0  0  0  0  0  0  0  0
   57.7180   26.5380   46.7690 C   0  0  0  0  0  0  0  0  0  0  0  0
   58.3268   27.2173   47.3837 H   0  0  0  0  0  0  0  0  0  0  0  0
   56.3280   26.6830   46.7390 C   0  0  0  0  0  0  0  0  0  0  0  0
   55.8463   27.4733   47.3335 H   0  0  0  0  0  0  0  0  0  0  0  0
   55.5480   25.8270   45.9560 C   0  0  0  0  0  0  0  0  0  0  0  0
   54.1670   25.9840   45.9330 O   0  0  0  0  0  0  0  0  0  0  0  0
   56.1610   24.8190   45.1980 C   0  0  0  0  0  0  0  0  0  0  0  0
   55.1970   23.7400   44.2010 Cl  0  0  0  0  0  0  0  0  0  0  0  0
   57.5530   24.6720   45.2290 C   0  0  0  0  0  0  0  0  0  0  0  0
   58.0330   23.8818   44.6330 H   0  0  0  0  0  0  0  0  0  0  0  0
   59.5990   29.7390   47.0970 C   0  0  0  0  0  0  0  0  0  0  0  0
   60.6250   29.9510   48.5630 S   0  0  0  0  0  0  0  0  0  0  0  0
   60.6860   31.7600   48.4920 C   0  0  0  0  0  0  0  0  0  0  0  0
   59.6740   32.5490   49.1000 C   0  0  0  0  0  0  0  0  0  0  0  0
   58.5230   31.9440   49.8570 C   0  0  0  0  0  0  0  0  0  0  0  0
   58.7044   32.0393   50.9377 H   0  0  0  0  0  0  0  0  0  0  0  0
   57.5937   32.4702   49.5933 H   0  0  0  0  0  0  0  0  0  0  0  0
   58.4295   30.8802   49.5933 H   0  0  0  0  0  0  0  0  0  0  0  0
   59.7090   33.9450   48.9610 C   0  0  0  0  0  0  0  0  0  0  0  0
   58.8954   34.5546   49.3810 H   0  0  0  0  0  0  0  0  0  0  0  0
   60.7630   34.5660   48.2970 C   0  0  0  0  0  0  0  0  0  0  0  0
   60.7722   35.6602   48.1847 H   0  0  0  0  0  0  0  0  0  0  0  0
   61.8050   33.8060   47.7750 C   0  0  0  0  0  0  0  0  0  0  0  0
   62.6535   34.3082   47.2874 H   0  0  0  0  0  0  0  0  0  0  0  0
   61.7850   32.4050   47.8640 C   0  0  0  0  0  0  0  0  0  0  0  0
   63.0150   31.6590   47.4080 C   0  0  0  0  0  0  0  0  0  0  0  0
   63.5818   31.3152   48.2858 H   0  0  0  0  0  0  0  0  0  0  0  0
   62.7141   30.7911   46.8029 H   0  0  0  0  0  0  0  0  0  0  0  0
   63.6456   32.3269   46.8029 H   0  0  0  0  0  0  0  0  0  0  0  0
   58.4620   30.4460   46.9060 N   0  0  0  0  0  0  0  0  0  0  0  0
   58.0680   31.1890   47.5260 H   0  0  0  0  0  0  0  0  0  0  0  0
   57.9040   29.9470   45.7950 C   0  0  0  0  0  0  0  0  0  0  0  0
   56.7260   30.3370   45.2520 N   0  0  0  0  0  0  0  0  0  0  0  0
  1  2  1  0
  2  3  2  0
  3  4  1  0
  4  5  1  0
  5  6  2  0
  5  7  1  0
  7  8  1  0
  8  9  1  0
  9 10  1  0
  9 11  1  0
  9 12  1  0
 12 13  1  0
 12 14  1  0
 12 15  1  0
 15 16  1  0
 15 17  1  0
 15 18  1  0
 18 19  2  0
 19 20  1  0
 19 21  1  0
 21 22  1  0
 21 23  2  0
 23 24  1  0
 23 25  1  0
 25 26  1  0
 25 27  2  0
 27 28  1  0
  8 29  2  0
 29 30  1  0
 30 31  1  0
 31 32  2  0
 32 33  1  0
 33 34  1  0
 33 35  1  0
 33 36  1  0
 32 37  1  0
 37 38  1  0
 37 39  2  0
 39 40  1  0
 39 41  1  0
 41 42  1  0
 41 43  2  0
 43 44  1  0
 44 45  1  0
 44 46  1  0
 44 47  1  0
 29 48  1  0
 48 49  1  0
 48 50  1  0
 50 51  1  0
 51  3  1  0
 50  7  2  0
 27 18  1  0
 43 31  1  0
M  CHG  3   4  -1  24  -1  51  -1
M  END
>  <UniqueID>  (65) 
62

>  <SMILES>  (65) 
[H]/N=c1\[n-]c(=O)c2c(CCCc3ccc([O-])c(Cl)c3)c(Sc3c(C)cccc3C)[nH]c2[n-]1

>  <Energy>  (65) 
86.52133534557439

>  <Genealogy>  (65) 
Cc1cccc(C)c1Sc1[nH]c2[n-]c(=N)[n-]c(=O)c2c1CCCc1ccc([O-])c(Cl)c1 (protonated)
[H]/N=c1\[n-]c(=O)c2c(CCCc3ccc([O-])c(Cl)c3)c(Sc3c(C)cccc3C)[nH]c2[n-]1 (cis-trans isomerization)
[H]/N=c1\[n-]c(=O)c2c(CCCc3ccc([O-])c(Cl)c3)c(Sc3c(C)cccc3C)[nH]c2[n-]1 (3D coordinates assigned)
[H]/N=c1\[n-]c(=O)c2c(CCCc3ccc([O-])c(Cl)c3)c(Sc3c(C)cccc3C)[nH]c2[n-]1 (optimized conformer: 86.52133534557439 kcal/mol)

>  <smiles>  (65) 
Cc1cccc(C)c1Sc1[nH]c2[nH]c(=N)[nH]c(=O)c2c1CCCc1ccc(O)c(Cl)c1

>  <score_type>  (65) 
oracle

>  <origin>  (65) 
adg

>  <m_score__min__energy>  (65) 
-15.01

>  <m_primary>  (65) 
energy

$$$$
65:0
     RDKit          3D

 53 56  0  0  0  0  0  0  0  0999 V2000
   58.5590   30.0330   45.2940 C   0  0  0  0  0  0  0  0  0  0  0  0
   58.8090   29.3130   46.4010 C   0  0  0  0  0  0  0  0  0  0  0  0
   58.6790   27.9200   46.5330 C   0  0  0  0  0  0  0  0  0  0  0  0
   58.1040   27.0020   45.7300 C   0  0  0  0  0  0  0  0  0  0  0  0
   57.3290   25.8330   46.1750 C   0  0  0  0  0  0  0  0  0  0  0  0
   57.8760   24.7250   46.6980 N   0  0  0  0  0  0  0  0  0  0  0  0
   56.8270   23.9810   47.1010 C   0  0  0  0  0  0  0  0  0  0  0  0
   56.9550   22.8490   47.6360 O   0  0  0  0  0  0  0  0  0  0  0  0
   55.6270   24.5630   46.8920 N   0  0  0  0  0  0  0  0  0  0  0  0
   55.9590   25.7380   46.3240 C   0  0  0  0  0  0  0  0  0  0  0  0
   55.0330   26.7140   45.9810 O   0  0  0  0  0  0  0  0  0  0  0  0
   59.2520   27.5910   47.7460 C   0  0  0  0  0  0  0  0  0  0  0  0
   59.6460   28.7700   48.3390 C   0  0  0  0  0  0  0  0  0  0  0  0
   60.2100   28.8560   49.7250 C   0  0  0  0  0  0  0  0  0  0  0  0
   59.3660   29.8260   47.5340 N   0  0  0  0  0  0  0  0  0  0  0  0
   59.5600   31.2440   47.8900 C   0  0  0  0  0  0  0  0  0  0  0  0
   61.0320   31.5500   48.0500 C   0  0  0  0  0  0  0  0  0  0  0  0
   61.9220   31.1970   47.0200 C   0  0  0  0  0  0  0  0  0  0  0  0
   63.2790   31.5070   47.1180 C   0  0  0  0  0  0  0  0  0  0  0  0
   63.7620   32.1830   48.2370 C   0  0  0  0  0  0  0  0  0  0  0  0
   62.8930   32.5350   49.2710 C   0  0  0  0  0  0  0  0  0  0  0  0
   61.5260   32.2020   49.2020 C   0  0  0  0  0  0  0  0  0  0  0  0
   60.6320   32.5410   50.2300 O   0  0  0  0  0  0  0  0  0  0  0  0
   59.5220   33.3870   50.1180 C   0  0  0  0  0  0  0  0  0  0  0  0
   58.4080   33.0760   50.6200 O   0  0  0  0  0  0  0  0  0  0  0  0
   59.6390   34.6240   49.2880 C   0  0  0  0  0  0  0  0  0  0  0  0
   59.3210   34.3120   47.8540 C   0  0  0  0  0  0  0  0  0  0  0  0
   60.2730   34.5530   46.8470 C   0  0  0  0  0  0  0  0  0  0  0  0
   59.9620   34.2930   45.5080 C   0  0  0  0  0  0  0  0  0  0  0  0
   58.7000   33.8020   45.1640 C   0  0  0  0  0  0  0  0  0  0  0  0
   57.7440   33.5720   46.1580 C   0  0  0  0  0  0  0  0  0  0  0  0
   58.0490   33.8300   47.4980 C   0  0  0  0  0  0  0  0  0  0  0  0
   58.6958   31.1244   45.3052 H   0  0  0  0  0  0  0  0  0  0  0  0
   58.2175   29.5309   44.3768 H   0  0  0  0  0  0  0  0  0  0  0  0
   58.2251   27.1393   44.6453 H   0  0  0  0  0  0  0  0  0  0  0  0
   58.8910   24.4980   46.7900 H   0  0  0  0  0  0  0  0  0  0  0  0
   59.3711   26.5789   48.1600 H   0  0  0  0  0  0  0  0  0  0  0  0
   59.3999   28.7325   50.4588 H   0  0  0  0  0  0  0  0  0  0  0  0
   60.9574   28.0614   49.8667 H   0  0  0  0  0  0  0  0  0  0  0  0
   60.6866   29.8372   49.8667 H   0  0  0  0  0  0  0  0  0  0  0  0
   59.1423   31.8781   47.0941 H   0  0  0  0  0  0  0  0  0  0  0  0
   59.0477   31.4464   48.8421 H   0  0  0  0  0  0  0  0  0  0  0  0
   61.5453   30.6722   46.1297 H   0  0  0  0  0  0  0  0  0  0  0  0
   63.9683   31.2175   46.3111 H   0  0  0  0  0  0  0  0  0  0  0  0
   64.8295   32.4395   48.3054 H   0  0  0  0  0  0  0  0  0  0  0  0
   63.2788   33.0769   50.1470 H   0  0  0  0  0  0  0  0  0  0  0  0
   58.9337   35.3812   49.6612 H   0  0  0  0  0  0  0  0  0  0  0  0
   60.6678   35.0077   49.3546 H   0  0  0  0  0  0  0  0  0  0  0  0
   61.2649   34.9471   47.1131 H   0  0  0  0  0  0  0  0  0  0  0  0
   60.7124   34.4755   44.7246 H   0  0  0  0  0  0  0  0  0  0  0  0
   58.4585   33.5963   44.1107 H   0  0  0  0  0  0  0  0  0  0  0  0
   56.7501   33.1874   45.8854 H   0  0  0  0  0  0  0  0  0  0  0  0
   57.2914   33.6553   48.2761 H   0  0  0  0  0  0  0  0  0  0  0  0
  1  2  2  0
  2  3  1  0
  3  4  2  3
  4  5  1  0
  5  6  1  0
  6  7  1  0
  7  8  2  0
  7  9  1  0
  9 10  1  0
 10 11  1  0
  3 12  1  0
 12 13  2  0
 13 14  1  0
 13 15  1  0
 15 16  1  0
 16 17  1  0
 17 18  2  0
 18 19  1  0
 19 20  2  0
 20 21  1  0
 21 22  2  0
 22 23  1  0
 23 24  1  0
 24 25  2  0
 24 26  1  0
 26 27  1  0
 27 28  2  0
 28 29  1  0
 29 30  2  0
 30 31  1  0
 31 32  2  0
 15  2  1  0
 22 17  1  0
 32 27  1  0
 10  5  2  0
  1 33  1  0
  1 34  1  0
  4 35  1  0
  6 36  1  0
 12 37  1  0
 14 38  1  0
 14 39  1  0
 14 40  1  0
 16 41  1  0
 16 42  1  0
 18 43  1  0
 19 44  1  0
 20 45  1  0
 21 46  1  0
 26 47  1  0
 26 48  1  0
 28 49  1  0
 29 50  1  0
 30 51  1  0
 31 52  1  0
 32 53  1  0
M  CHG  2   9  -1  11  -1
M  END
>  <UniqueID>  (66) 
63

>  <SMILES>  (66) 
C=c1c(=Cc2[nH]c(=O)[n-]c2[O-])cc(C)n1Cc1ccccc1OC(=O)Cc1ccccc1

>  <Energy>  (66) 
130.4426062714868

>  <Genealogy>  (66) 
C=c1c(=Cc2[nH]c(=O)[n-]c2[O-])cc(C)n1Cc1ccccc1OC(=O)Cc1ccccc1 (protonated)
C=c1c(=Cc2[nH]c(=O)[n-]c2[O-])cc(C)n1Cc1ccccc1OC(=O)Cc1ccccc1 (3D coordinates assigned)
C=c1c(=Cc2[nH]c(=O)[n-]c2[O-])cc(C)n1Cc1ccccc1OC(=O)Cc1ccccc1 (optimized conformer: 130.4426062714868 kcal/mol)

>  <smiles>  (66) 
C=c1c(=Cc2[nH]c(=O)[nH]c2O)cc(C)n1Cc1ccccc1OC(=O)Cc1ccccc1

>  <score_type>  (66) 
oracle

>  <origin>  (66) 
adg

>  <m_score__min__energy>  (66) 
-14.91

>  <m_primary>  (66) 
energy

$$$$
66:0
     RDKit          3D

 47 50  0  0  0  0  0  0  0  0999 V2000
   58.2110   24.3310   46.4290 C   0  0  0  0  0  0  0  0  0  0  0  0
   56.8910   24.9000   46.1470 N   0  0  0  0  0  0  0  0  0  0  0  0
   56.5160   26.1990   46.1280 C   0  0  0  0  0  0  0  0  0  0  0  0
   57.4460   27.3900   46.1880 C   0  0  0  0  0  0  0  0  0  0  0  0
   57.4380   28.1890   44.9400 N   0  0  0  0  0  0  0  0  0  0  0  0
   58.7930   28.5600   44.4610 C   0  0  0  0  0  0  0  0  0  0  0  0
   59.1800   29.9430   44.9010 C   0  0  0  0  0  0  0  0  0  0  0  0
   58.2800   30.9290   44.8360 C   0  0  0  0  0  0  0  0  0  0  0  0
   58.6130   32.3110   45.2660 C   0  0  0  0  0  0  0  0  0  0  0  0
   58.2520   33.4100   44.4650 C   0  0  0  0  0  0  0  0  0  0  0  0
   58.5640   34.7130   44.8680 C   0  0  0  0  0  0  0  0  0  0  0  0
   59.2390   34.9330   46.0710 C   0  0  0  0  0  0  0  0  0  0  0  0
   59.6010   33.8500   46.8750 C   0  0  0  0  0  0  0  0  0  0  0  0
   59.2850   32.5470   46.4820 C   0  0  0  0  0  0  0  0  0  0  0  0
   56.9160   30.5880   44.2940 C   0  0  0  0  0  0  0  0  0  0  0  0
   56.4200   29.2770   44.9310 C   0  0  0  0  0  0  0  0  0  0  0  0
   55.1800   26.3210   46.0020 N   0  0  0  0  0  0  0  0  0  0  0  0
   54.6800   25.0970   45.9450 N   0  0  0  0  0  0  0  0  0  0  0  0
   55.7150   24.2420   46.0490 C   0  0  0  0  0  0  0  0  0  0  0  0
   55.5520   22.7540   45.9730 C   0  0  0  0  0  0  0  0  0  0  0  0
   55.9300   22.2800   44.6430 N   0  0  0  0  0  0  0  0  0  0  0  0
   56.1150   23.0290   43.5440 C   0  0  0  0  0  0  0  0  0  0  0  0
   56.5250   22.1950   42.5290 C   0  0  0  0  0  0  0  0  0  0  0  0
   56.6150   20.9320   42.9910 N   0  0  0  0  0  0  0  0  0  0  0  0
   56.2490   21.0220   44.2870 C   0  0  0  0  0  0  0  0  0  0  0  0
   58.3581   24.2676   47.5173 H   0  0  0  0  0  0  0  0  0  0  0  0
   58.2776   23.3243   45.9907 H   0  0  0  0  0  0  0  0  0  0  0  0
   58.9886   24.9738   45.9907 H   0  0  0  0  0  0  0  0  0  0  0  0
   57.1349   28.0370   47.0214 H   0  0  0  0  0  0  0  0  0  0  0  0
   58.4671   27.0058   46.3284 H   0  0  0  0  0  0  0  0  0  0  0  0
   59.5221   27.8412   44.8631 H   0  0  0  0  0  0  0  0  0  0  0  0
   58.7845   28.5406   43.3612 H   0  0  0  0  0  0  0  0  0  0  0  0
   60.1955   30.1427   45.2736 H   0  0  0  0  0  0  0  0  0  0  0  0
   57.7212   33.2437   43.5160 H   0  0  0  0  0  0  0  0  0  0  0  0
   58.2770   35.5663   44.2359 H   0  0  0  0  0  0  0  0  0  0  0  0
   59.4851   35.9582   46.3847 H   0  0  0  0  0  0  0  0  0  0  0  0
   60.1363   34.0233   47.8202 H   0  0  0  0  0  0  0  0  0  0  0  0
   59.5626   31.6996   47.1261 H   0  0  0  0  0  0  0  0  0  0  0  0
   56.2135   31.4000   44.5333 H   0  0  0  0  0  0  0  0  0  0  0  0
   56.9772   30.4636   43.2028 H   0  0  0  0  0  0  0  0  0  0  0  0
   56.1267   29.4859   45.9704 H   0  0  0  0  0  0  0  0  0  0  0  0
   55.5779   28.9222   44.3186 H   0  0  0  0  0  0  0  0  0  0  0  0
   56.1960   22.2775   46.7268 H   0  0  0  0  0  0  0  0  0  0  0  0
   54.5005   22.4943   46.1650 H   0  0  0  0  0  0  0  0  0  0  0  0
   55.9654   24.1162   43.4684 H   0  0  0  0  0  0  0  0  0  0  0  0
   56.7455   22.5107   41.4986 H   0  0  0  0  0  0  0  0  0  0  0  0
   56.2153   20.1640   44.9746 H   0  0  0  0  0  0  0  0  0  0  0  0
  1  2  1  0
  2  3  1  0
  3  4  1  0
  4  5  1  0
  5  6  1  0
  6  7  1  0
  7  8  2  0
  8  9  1  0
  9 10  2  0
 10 11  1  0
 11 12  2  0
 12 13  1  0
 13 14  2  0
  8 15  1  0
 15 16  1  0
  3 17  2  0
 17 18  1  0
 18 19  2  0
 19 20  1  0
 20 21  1  0
 21 22  1  0
 22 23  2  0
 23 24  1  0
 24 25  2  0
 19  2  1  0
 25 21  1  0
 16  5  1  0
 14  9  1  0
  1 26  1  0
  1 27  1  0
  1 28  1  0
  4 29  1  0
  4 30  1  0
  6 31  1  0
  6 32  1  0
  7 33  1  0
 10 34  1  0
 11 35  1  0
 12 36  1  0
 13 37  1  0
 14 38  1  0
 15 39  1  0
 15 40  1  0
 16 41  1  0
 16 42  1  0
 20 43  1  0
 20 44  1  0
 22 45  1  0
 23 46  1  0
 25 47  1  0
M  END
>  <UniqueID>  (67) 
64

>  <SMILES>  (67) 
Cn1c(CN2CC=C(c3ccccc3)CC2)nnc1Cn1ccnc1

>  <Energy>  (67) 
123.88496790643525

>  <Genealogy>  (67) 
Cn1c(CN2CC=C(c3ccccc3)CC2)nnc1Cn1ccnc1 (3D coordinates assigned)
Cn1c(CN2CC=C(c3ccccc3)CC2)nnc1Cn1ccnc1 (nonaromatic ring conformer: 123.88496790643525 kcal/mol)

>  <smiles>  (67) 
Cn1c(CN2CC=C(c3ccccc3)CC2)nnc1Cn1ccnc1

>  <score_type>  (67) 
oracle

>  <origin>  (67) 
adg

>  <m_score__min__energy>  (67) 
-9.2899999999999991

>  <m_primary>  (67) 
energy

$$$$
67:0
     RDKit          3D

 42 44  0  0  0  0  0  0  0  0999 V2000
   67.7410   32.6490   52.4140 N   0  0  0  0  0  0  0  0  0  0  0  0
   66.7150   32.7760   51.6360 C   0  0  0  0  0  0  0  0  0  0  0  0
   66.5360   31.9060   50.5590 C   0  0  0  0  0  0  0  0  0  0  0  0
   65.4520   32.0590   49.7540 N   0  0  0  0  0  0  0  0  0  0  0  0
   64.5320   33.0390   49.9650 C   0  0  0  0  0  0  0  0  0  0  0  0
   63.3650   33.1660   49.0560 C   0  0  0  0  0  0  0  0  0  0  0  0
   63.5440   33.2020   47.6590 C   0  0  0  0  0  0  0  0  0  0  0  0
   62.4460   33.3140   46.8040 C   0  0  0  0  0  0  0  0  0  0  0  0
   61.1500   33.3980   47.3280 C   0  0  0  0  0  0  0  0  0  0  0  0
   59.9940   33.5150   46.4240 C   0  0  0  0  0  0  0  0  0  0  0  0
   59.6690   34.7890   45.9330 C   0  0  0  0  0  0  0  0  0  0  0  0
   58.5880   34.9610   45.0680 C   0  0  0  0  0  0  0  0  0  0  0  0
   57.8190   33.8620   44.6840 C   0  0  0  0  0  0  0  0  0  0  0  0
   58.1300   32.5890   45.1650 C   0  0  0  0  0  0  0  0  0  0  0  0
   59.2100   32.3960   46.0400 C   0  0  0  0  0  0  0  0  0  0  0  0
   59.5390   30.7360   46.5760 S   0  0  0  0  0  0  0  0  0  0  0  0
   61.0110   30.4610   46.7070 O   0  0  0  0  0  0  0  0  0  0  0  0
   58.9080   30.5400   47.9250 O   0  0  0  0  0  0  0  0  0  0  0  0
   58.8370   29.6050   45.4580 N   0  0  0  0  0  0  0  0  0  0  0  0
   57.4660   29.2970   45.8630 C   0  0  0  0  0  0  0  0  0  0  0  0
   56.5140   29.7360   44.7970 C   0  0  0  0  0  0  0  0  0  0  0  0
   55.1540   29.3140   44.8380 N   0  0  0  0  0  0  0  0  0  0  0  0
   56.9240   30.4450   43.8390 O   0  0  0  0  0  0  0  0  0  0  0  0
   60.9590   33.3380   48.7140 C   0  0  0  0  0  0  0  0  0  0  0  0
   62.0550   33.2260   49.5750 C   0  0  0  0  0  0  0  0  0  0  0  0
   61.8320   33.2050   50.9130 F   0  0  0  0  0  0  0  0  0  0  0  0
   64.7160   33.9090   51.0550 C   0  0  0  0  0  0  0  0  0  0  0  0
   65.7990   33.7560   51.8610 N   0  0  0  0  0  0  0  0  0  0  0  0
   68.4610   31.9090   52.2520 H   0  0  0  0  0  0  0  0  0  0  0  0
   67.2646   31.1053   50.3641 H   0  0  0  0  0  0  0  0  0  0  0  0
   64.5584   33.1413   47.2380 H   0  0  0  0  0  0  0  0  0  0  0  0
   62.5994   33.3363   45.7150 H   0  0  0  0  0  0  0  0  0  0  0  0
   60.2716   35.6591   46.2327 H   0  0  0  0  0  0  0  0  0  0  0  0
   58.3418   35.9637   44.6885 H   0  0  0  0  0  0  0  0  0  0  0  0
   56.9671   33.9988   44.0017 H   0  0  0  0  0  0  0  0  0  0  0  0
   57.5213   31.7270   44.8545 H   0  0  0  0  0  0  0  0  0  0  0  0
   58.8030   30.0860   44.5300 H   0  0  0  0  0  0  0  0  0  0  0  0
   57.3657   28.2127   46.0186 H   0  0  0  0  0  0  0  0  0  0  0  0
   57.2349   29.8278   46.7983 H   0  0  0  0  0  0  0  0  0  0  0  0
   54.5990   29.3770   45.7200 H   0  0  0  0  0  0  0  0  0  0  0  0
   59.9406   33.3792   49.1278 H   0  0  0  0  0  0  0  0  0  0  0  0
   63.9872   34.7086   51.2536 H   0  0  0  0  0  0  0  0  0  0  0  0
  1  2  2  3
  2  3  1  0
  3  4  2  0
  4  5  1  0
  5  6  1  0
  6  7  2  0
  7  8  1  0
  8  9  2  0
  9 10  1  0
 10 11  2  0
 11 12  1  0
 12 13  2  0
 13 14  1  0
 14 15  2  0
 15 16  1  0
 16 17  2  0
 16 18  2  0
 16 19  1  0
 19 20  1  0
 20 21  1  0
 21 22  1  0
 21 23  2  0
  9 24  1  0
 24 25  2  0
 25 26  1  0
  5 27  2  0
 27 28  1  0
 28  2  1  0
 25  6  1  0
 15 10  1  0
  1 29  1  0
  3 30  1  0
  7 31  1  0
  8 32  1  0
 11 33  1  0
 12 34  1  0
 13 35  1  0
 14 36  1  0
 19 37  1  0
 20 38  1  0
 20 39  1  0
 22 40  1  0
 24 41  1  0
 27 42  1  0
M  CHG  2  22  -1  28  -1
M  END
>  <UniqueID>  (68) 
65

>  <SMILES>  (68) 
N=c1cnc(-c2ccc(-c3ccccc3S(=O)(=O)NCC([NH-])=O)cc2F)c[n-]1

>  <Energy>  (68) 
56.38282998640878

>  <Genealogy>  (68) 
N=c1cnc(-c2ccc(-c3ccccc3S(=O)(=O)NCC([NH-])=O)cc2F)c[n-]1 (protonated)
N=c1cnc(-c2ccc(-c3ccccc3S(=O)(=O)NCC([NH-])=O)cc2F)c[n-]1 (3D coordinates assigned)
N=c1cnc(-c2ccc(-c3ccccc3S(=O)(=O)NCC([NH-])=O)cc2F)c[n-]1 (optimized conformer: 56.38282998640878 kcal/mol)

>  <smiles>  (68) 
N=c1cnc(-c2ccc(-c3ccccc3S(=O)(=O)NCC(N)=O)cc2F)c[nH]1

>  <score_type>  (68) 
oracle

>  <origin>  (68) 
adg

>  <m_score__min__energy>  (68) 
-12.470000000000001

>  <m_primary>  (68) 
energy

$$$$
68:0
     RDKit          3D

 28 29  0  0  0  0  0  0  0  0999 V2000
   59.4470   32.4290   49.2710 C   0  0  0  0  0  0  0  0  0  0  0  0
   59.4290   33.3890   48.1380 C   0  0  0  0  0  0  0  0  0  0  0  0
   59.2280   34.7370   48.1960 N   0  0  0  0  0  0  0  0  0  0  0  0
   59.2840   35.2540   46.9870 N   0  0  0  0  0  0  0  0  0  0  0  0
   59.5220   34.2720   46.0960 C   0  0  0  0  0  0  0  0  0  0  0  0
   59.6430   34.3760   44.8350 O   0  0  0  0  0  0  0  0  0  0  0  0
   59.6180   33.0710   46.8120 C   0  0  0  0  0  0  0  0  0  0  0  0
   59.8750   31.7740   46.1600 C   0  0  0  0  0  0  0  0  0  0  0  0
   58.6820   31.0840   45.6710 C   0  0  0  0  0  0  0  0  0  0  0  0
   57.7280   31.8260   44.9750 C   0  0  0  0  0  0  0  0  0  0  0  0
   56.5720   31.2380   44.4800 C   0  0  0  0  0  0  0  0  0  0  0  0
   56.3280   29.8880   44.6620 C   0  0  0  0  0  0  0  0  0  0  0  0
   55.1700   29.3730   44.1500 O   0  0  0  0  0  0  0  0  0  0  0  0
   57.2730   29.1300   45.3580 C   0  0  0  0  0  0  0  0  0  0  0  0
   57.0240   27.7730   45.5400 O   0  0  0  0  0  0  0  0  0  0  0  0
   58.4060   29.7480   45.8330 C   0  0  0  0  0  0  0  0  0  0  0  0
   59.4366   32.9830   50.2212 H   0  0  0  0  0  0  0  0  0  0  0  0
   58.5609   31.7796   49.2155 H   0  0  0  0  0  0  0  0  0  0  0  0
   60.3568   31.8133   49.2155 H   0  0  0  0  0  0  0  0  0  0  0  0
   59.0510   35.2960   49.0810 H   0  0  0  0  0  0  0  0  0  0  0  0
   59.1600   36.2660   46.7690 H   0  0  0  0  0  0  0  0  0  0  0  0
   60.5439   31.9482   45.3043 H   0  0  0  0  0  0  0  0  0  0  0  0
   60.3142   31.1230   46.9302 H   0  0  0  0  0  0  0  0  0  0  0  0
   57.8953   32.9013   44.8147 H   0  0  0  0  0  0  0  0  0  0  0  0
   55.8403   31.8533   43.9359 H   0  0  0  0  0  0  0  0  0  0  0  0
   54.7670   28.5070   44.5030 H   0  0  0  0  0  0  0  0  0  0  0  0
   56.6010   27.1830   44.8120 H   0  0  0  0  0  0  0  0  0  0  0  0
   59.1380   29.1333   46.3774 H   0  0  0  0  0  0  0  0  0  0  0  0
  1  2  1  0
  2  3  1  0
  3  4  1  0
  4  5  1  0
  5  6  2  0
  5  7  1  0
  7  8  1  0
  8  9  1  0
  9 10  2  0
 10 11  1  0
 11 12  2  0
 12 13  1  0
 12 14  1  0
 14 15  1  0
 14 16  2  0
  7  2  2  0
 16  9  1  0
  1 17  1  0
  1 18  1  0
  1 19  1  0
  3 20  1  0
  4 21  1  0
  8 22  1  0
  8 23  1  0
 10 24  1  0
 11 25  1  0
 13 26  1  0
 15 27  1  0
 16 28  1  0
M  END
>  <smiles>  (69) 
Cc1[nH][nH]c(=O)c1Cc1ccc(O)c(O)c1

>  <score_type>  (69) 
oracle

>  <origin>  (69) 
adg

>  <m_score__min__energy>  (69) 
-6.2999999999999998

>  <m_primary>  (69) 
energy

$$$$
69:0
     RDKit          3D

 27 28  0  0  0  0  0  0  0  0999 V2000
   55.1770   29.6420   44.8490 N   0  0  0  0  0  0  0  0  0  0  0  0
   56.1770   30.3600   44.1250 C   0  0  0  0  0  0  0  0  0  0  0  0
   56.2240   30.2340   42.8730 O   0  0  0  0  0  0  0  0  0  0  0  0
   57.1470   31.2330   44.8460 C   0  0  0  0  0  0  0  0  0  0  0  0
   56.8300   32.5920   45.0400 C   0  0  0  0  0  0  0  0  0  0  0  0
   57.7080   33.4450   45.7090 C   0  0  0  0  0  0  0  0  0  0  0  0
   58.9220   32.9610   46.1880 C   0  0  0  0  0  0  0  0  0  0  0  0
   59.2600   31.6190   46.0080 C   0  0  0  0  0  0  0  0  0  0  0  0
   58.3750   30.7370   45.3580 C   0  0  0  0  0  0  0  0  0  0  0  0
   58.7470   29.3660   45.1420 N   0  0  0  0  0  0  0  0  0  0  0  0
   58.1450   28.2150   45.7440 C   0  0  0  0  0  0  0  0  0  0  0  0
   58.0500   28.1150   46.9970 O   0  0  0  0  0  0  0  0  0  0  0  0
   57.6110   27.1250   44.8720 C   0  0  0  0  0  0  0  0  0  0  0  0
   57.1480   25.9800   45.7180 C   0  0  0  0  0  0  0  0  0  0  0  0
   58.1310   24.7400   46.2970 S   0  0  0  0  0  0  0  0  0  0  0  0
   56.8730   24.0390   47.1650 C   0  0  0  0  0  0  0  0  0  0  0  0
   56.9870   22.9950   47.8570 O   0  0  0  0  0  0  0  0  0  0  0  0
   55.7150   24.7220   47.0480 N   0  0  0  0  0  0  0  0  0  0  0  0
   55.8700   25.8080   46.2460 C   0  0  0  0  0  0  0  0  0  0  0  0
   54.8190   26.6800   45.9880 O   0  0  0  0  0  0  0  0  0  0  0  0
   55.1730   28.5990   44.8680 H   0  0  0  0  0  0  0  0  0  0  0  0
   55.8765   32.9861   44.6585 H   0  0  0  0  0  0  0  0  0  0  0  0
   57.4406   34.5015   45.8582 H   0  0  0  0  0  0  0  0  0  0  0  0
   59.6158   33.6371   46.7090 H   0  0  0  0  0  0  0  0  0  0  0  0
   60.2269   31.2465   46.3773 H   0  0  0  0  0  0  0  0  0  0  0  0
   56.7651   27.5096   44.2833 H   0  0  0  0  0  0  0  0  0  0  0  0
   58.4062   26.7786   44.1955 H   0  0  0  0  0  0  0  0  0  0  0  0
  1  2  1  0
  2  3  2  0
  2  4  1  0
  4  5  2  0
  5  6  1  0
  6  7  2  0
  7  8  1  0
  8  9  2  0
  9 10  1  0
 10 11  1  0
 11 12  2  0
 11 13  1  0
 13 14  1  0
 14 15  1  0
 15 16  1  0
 16 17  2  0
 16 18  1  0
 18 19  1  0
 19 20  1  0
  9  4  1  0
 19 14  2  0
  1 21  1  0
  5 22  1  0
  6 23  1  0
  7 24  1  0
  8 25  1  0
 13 26  1  0
 13 27  1  0
M  CHG  4   1  -1  10  -1  18  -1  20  -1
M  END
>  <UniqueID>  (70) 
66

>  <SMILES>  (70) 
[NH-]C(=O)c1ccccc1[N-]C(=O)Cc1sc(=O)[n-]c1[O-]

>  <Energy>  (70) 
62.310871847014525

>  <Genealogy>  (70) 
[NH-]C(=O)c1ccccc1[N-]C(=O)Cc1sc(=O)[n-]c1[O-] (protonated)
[NH-]C(=O)c1ccccc1[N-]C(=O)Cc1sc(=O)[n-]c1[O-] (3D coordinates assigned)
[NH-]C(=O)c1ccccc1[N-]C(=O)Cc1sc(=O)[n-]c1[O-] (optimized conformer: 62.310871847014525 kcal/mol)

>  <smiles>  (70) 
NC(=O)c1ccccc1NC(=O)Cc1sc(=O)[nH]c1O

>  <score_type>  (70) 
oracle

>  <origin>  (70) 
adg

>  <m_score__min__energy>  (70) 
-16.98

>  <m_primary>  (70) 
energy

$$$$
70:0
     RDKit          3D

 54 57  0  0  0  0  0  0  0  0999 V2000
   54.7430   26.3470   45.7560 N   0  0  0  0  0  0  0  0  0  0  0  0
   54.6860   24.9210   45.7590 C   0  0  0  0  0  0  0  0  0  0  0  0
   53.7240   24.3480   46.3370 O   0  0  0  0  0  0  0  0  0  0  0  0
   55.7320   24.1320   45.0600 C   0  0  0  0  0  0  0  0  0  0  0  0
   55.3920   22.8670   44.5420 C   0  0  0  0  0  0  0  0  0  0  0  0
   56.3530   22.0670   43.9200 C   0  0  0  0  0  0  0  0  0  0  0  0
   57.6660   22.5150   43.8030 C   0  0  0  0  0  0  0  0  0  0  0  0
   58.0230   23.7690   44.3000 C   0  0  0  0  0  0  0  0  0  0  0  0
   57.0700   24.5900   44.9310 C   0  0  0  0  0  0  0  0  0  0  0  0
   57.4410   25.9190   45.3350 N   0  0  0  0  0  0  0  0  0  0  0  0
   58.7780   26.2690   45.7250 C   0  0  0  0  0  0  0  0  0  0  0  0
   59.5770   25.3720   46.1050 O   0  0  0  0  0  0  0  0  0  0  0  0
   59.2400   27.7020   45.7300 C   0  0  0  0  0  0  0  0  0  0  0  0
   58.4010   28.5530   44.8650 N   0  0  0  0  0  0  0  0  0  0  0  0
   57.8700   28.0110   43.6320 C   0  0  0  0  0  0  0  0  0  0  0  0
   58.1560   26.8350   43.2730 O   0  0  0  0  0  0  0  0  0  0  0  0
   57.0020   28.8480   42.7410 C   0  0  0  0  0  0  0  0  0  0  0  0
   55.7640   29.6860   43.7690 S   0  0  0  0  0  0  0  0  0  0  0  0
   57.0130   30.6010   44.6780 C   0  0  0  0  0  0  0  0  0  0  0  0
   56.8440   31.9780   44.8630 C   0  0  0  0  0  0  0  0  0  0  0  0
   57.7690   32.7050   45.6130 C   0  0  0  0  0  0  0  0  0  0  0  0
   58.8680   32.0580   46.1870 C   0  0  0  0  0  0  0  0  0  0  0  0
   60.0440   32.9520   47.1450 S   0  0  0  0  0  0  0  0  0  0  0  0
   59.7840   32.7270   48.6100 O   0  0  0  0  0  0  0  0  0  0  0  0
   59.8940   34.4170   46.8380 O   0  0  0  0  0  0  0  0  0  0  0  0
   61.6540   32.4070   46.7230 N   0  0  0  0  0  0  0  0  0  0  0  0
   62.1210   31.3190   47.6140 C   0  0  0  0  0  0  0  0  0  0  0  0
   63.0520   31.8230   48.7330 C   0  0  0  0  0  0  0  0  0  0  0  0
   62.7020   33.1370   49.1070 O   0  0  0  0  0  0  0  0  0  0  0  0
   63.0100   34.0420   48.0600 C   0  0  0  0  0  0  0  0  0  0  0  0
   62.6120   33.5240   46.6560 C   0  0  0  0  0  0  0  0  0  0  0  0
   59.0510   30.6850   45.9870 C   0  0  0  0  0  0  0  0  0  0  0  0
   58.1410   29.9400   45.2090 C   0  0  0  0  0  0  0  0  0  0  0  0
   54.8200   26.8850   46.6460 H   0  0  0  0  0  0  0  0  0  0  0  0
   54.3569   22.5048   44.6285 H   0  0  0  0  0  0  0  0  0  0  0  0
   56.0720   21.0809   43.5217 H   0  0  0  0  0  0  0  0  0  0  0  0
   58.4224   21.8800   43.3185 H   0  0  0  0  0  0  0  0  0  0  0  0
   59.0606   24.1196   44.1975 H   0  0  0  0  0  0  0  0  0  0  0  0
   56.7080   26.6630   45.3120 H   0  0  0  0  0  0  0  0  0  0  0  0
   59.1944   28.0868   46.7595 H   0  0  0  0  0  0  0  0  0  0  0  0
   60.2688   27.7301   45.3416 H   0  0  0  0  0  0  0  0  0  0  0  0
   57.6175   29.5948   42.2181 H   0  0  0  0  0  0  0  0  0  0  0  0
   56.5045   28.2127   41.9934 H   0  0  0  0  0  0  0  0  0  0  0  0
   55.9787   32.4889   44.4155 H   0  0  0  0  0  0  0  0  0  0  0  0
   57.6338   33.7877   45.7529 H   0  0  0  0  0  0  0  0  0  0  0  0
   61.2439   30.8412   48.0749 H   0  0  0  0  0  0  0  0  0  0  0  0
   62.6952   30.6104   46.9991 H   0  0  0  0  0  0  0  0  0  0  0  0
   62.9608   31.1607   49.6065 H   0  0  0  0  0  0  0  0  0  0  0  0
   64.0883   31.8203   48.3642 H   0  0  0  0  0  0  0  0  0  0  0  0
   62.4757   34.9851   48.2471 H   0  0  0  0  0  0  0  0  0  0  0  0
   64.1021   34.1733   48.0578 H   0  0  0  0  0  0  0  0  0  0  0  0
   62.1540   34.3494   46.0912 H   0  0  0  0  0  0  0  0  0  0  0  0
   63.5235   33.1563   46.1621 H   0  0  0  0  0  0  0  0  0  0  0  0
   59.9158   30.1805   46.4426 H   0  0  0  0  0  0  0  0  0  0  0  0
  1  2  1  0
  2  3  2  0
  2  4  1  0
  4  5  2  0
  5  6  1  0
  6  7  2  0
  7  8  1  0
  8  9  2  0
  9 10  1  0
 10 11  1  0
 11 12  2  0
 11 13  1  0
 13 14  1  0
 14 15  1  0
 15 16  2  0
 15 17  1  0
 17 18  1  0
 18 19  1  0
 19 20  2  0
 20 21  1  0
 21 22  2  0
 22 23  1  0
 23 24  2  0
 23 25  2  0
 23 26  1  0
 26 27  1  0
 27 28  1  0
 28 29  1  0
 29 30  1  0
 30 31  1  0
 22 32  1  0
 32 33  2  0
  9  4  1  0
 33 14  1  0
 33 19  1  0
 31 26  1  0
  1 34  1  0
  5 35  1  0
  6 36  1  0
  7 37  1  0
  8 38  1  0
 10 39  1  0
 13 40  1  0
 13 41  1  0
 17 42  1  0
 17 43  1  0
 20 44  1  0
 21 45  1  0
 27 46  1  0
 27 47  1  0
 28 48  1  0
 28 49  1  0
 30 50  1  0
 30 51  1  0
 31 52  1  0
 31 53  1  0
 32 54  1  0
M  CHG  1   1  -1
M  END
>  <UniqueID>  (71) 
67

>  <SMILES>  (71) 
[NH-]C(=O)c1ccccc1NC(=O)CN1C(=O)CSc2ccc(S(=O)(=O)N3CCOCC3)cc21

>  <Energy>  (71) 
79.5771874443568

>  <Genealogy>  (71) 
[NH-]C(=O)c1ccccc1NC(=O)CN1C(=O)CSc2ccc(S(=O)(=O)N3CCOCC3)cc21 (protonated)
[NH-]C(=O)c1ccccc1NC(=O)CN1C(=O)CSc2ccc(S(=O)(=O)N3CCOCC3)cc21 (3D coordinates assigned)
[NH-]C(=O)c1ccccc1NC(=O)CN1C(=O)CSc2ccc(S(=O)(=O)N3CCOCC3)cc21 (nonaromatic ring conformer: 79.5771874443568 kcal/mol)

>  <smiles>  (71) 
NC(=O)c1ccccc1NC(=O)CN1C(=O)CSc2ccc(S(=O)(=O)N3CCOCC3)cc21

>  <score_type>  (71) 
oracle

>  <origin>  (71) 
adg

>  <m_score__min__energy>  (71) 
-13.1

>  <m_primary>  (71) 
energy

$$$$
71:0
     RDKit          3D

 54 58  0  0  0  0  0  0  0  0999 V2000
   57.3288   30.5990   43.5305 H   0  0  0  0  0  0  0  0  0  0  0  0
   57.4300   29.5730   43.9140 C   0  0  0  0  0  0  0  0  0  0  0  0
   57.1623   28.7183   43.2754 H   0  0  0  0  0  0  0  0  0  0  0  0
   57.8800   29.3640   45.1610 C   0  0  0  0  0  0  0  0  0  0  0  0
   58.0620   28.1240   45.7870 C   0  0  0  0  0  0  0  0  0  0  0  0
   57.8590   26.9050   45.2430 C   0  0  0  0  0  0  0  0  0  0  0  0
   58.2205   26.7455   44.2164 H   0  0  0  0  0  0  0  0  0  0  0  0
   57.1920   25.7660   45.9100 C   0  0  0  0  0  0  0  0  0  0  0  0
   57.7920   24.6430   46.3430 N   0  0  0  0  0  0  0  0  0  0  0  0
   56.7870   23.9500   46.9210 C   0  0  0  0  0  0  0  0  0  0  0  0
   56.9600   22.8210   47.4500 O   0  0  0  0  0  0  0  0  0  0  0  0
   55.5870   24.5650   46.8950 N   0  0  0  0  0  0  0  0  0  0  0  0
   55.8620   25.7140   46.2570 C   0  0  0  0  0  0  0  0  0  0  0  0
   54.9140   26.6960   45.9980 O   0  0  0  0  0  0  0  0  0  0  0  0
   58.5180   28.4050   47.0720 C   0  0  0  0  0  0  0  0  0  0  0  0
   58.7659   27.6732   47.8549 H   0  0  0  0  0  0  0  0  0  0  0  0
   58.5990   29.7800   47.1740 C   0  0  0  0  0  0  0  0  0  0  0  0
   59.0530   30.5190   48.3950 C   0  0  0  0  0  0  0  0  0  0  0  0
   58.7216   29.9795   49.2945 H   0  0  0  0  0  0  0  0  0  0  0  0
   60.1507   30.5900   48.3936 H   0  0  0  0  0  0  0  0  0  0  0  0
   58.6202   31.5303   48.3936 H   0  0  0  0  0  0  0  0  0  0  0  0
   58.2010   30.3610   46.0220 N   0  0  0  0  0  0  0  0  0  0  0  0
   58.1700   31.7750   45.7650 C   0  0  0  0  0  0  0  0  0  0  0  0
   59.2480   32.5810   46.1560 C   0  0  0  0  0  0  0  0  0  0  0  0
   60.1235   32.1235   46.6401 H   0  0  0  0  0  0  0  0  0  0  0  0
   59.2200   33.9680   45.9350 C   0  0  0  0  0  0  0  0  0  0  0  0
   60.3560   34.8220   46.3480 C   0  0  0  0  0  0  0  0  0  0  0  0
   60.3640   36.0370   46.0070 O   0  0  0  0  0  0  0  0  0  0  0  0
   61.4510   34.3030   47.1300 N   0  0  0  0  0  0  0  0  0  0  0  0
   61.3150   34.2800   48.5970 C   0  0  0  0  0  0  0  0  0  0  0  0
   60.3886   33.7450   48.8530 H   0  0  0  0  0  0  0  0  0  0  0  0
   61.2989   35.3256   48.9382 H   0  0  0  0  0  0  0  0  0  0  0  0
   62.4700   33.6000   49.2960 C   0  0  0  0  0  0  0  0  0  0  0  0
   62.6230   33.7560   50.6830 C   0  0  0  0  0  0  0  0  0  0  0  0
   61.9285   34.4018   51.2402 H   0  0  0  0  0  0  0  0  0  0  0  0
   63.6520   33.0960   51.3600 C   0  0  0  0  0  0  0  0  0  0  0  0
   63.7719   33.2331   52.4448 H   0  0  0  0  0  0  0  0  0  0  0  0
   64.5280   32.2630   50.6620 C   0  0  0  0  0  0  0  0  0  0  0  0
   65.3358   31.7426   51.1973 H   0  0  0  0  0  0  0  0  0  0  0  0
   64.3790   32.0900   49.2830 C   0  0  0  0  0  0  0  0  0  0  0  0
   65.0640   31.4245   48.7372 H   0  0  0  0  0  0  0  0  0  0  0  0
   63.3590   32.7620   48.5920 C   0  0  0  0  0  0  0  0  0  0  0  0
   63.1820   32.5560   47.1160 C   0  0  0  0  0  0  0  0  0  0  0  0
   62.4488   31.7541   46.9446 H   0  0  0  0  0  0  0  0  0  0  0  0
   64.1480   32.2768   46.6700 H   0  0  0  0  0  0  0  0  0  0  0  0
   62.6830   33.8450   46.4700 C   0  0  0  0  0  0  0  0  0  0  0  0
   62.4774   33.6613   45.4051 H   0  0  0  0  0  0  0  0  0  0  0  0
   63.4555   34.6208   46.5763 H   0  0  0  0  0  0  0  0  0  0  0  0
   58.1130   34.5350   45.2830 C   0  0  0  0  0  0  0  0  0  0  0  0
   58.0919   35.6160   45.0805 H   0  0  0  0  0  0  0  0  0  0  0  0
   57.0380   33.7330   44.8900 C   0  0  0  0  0  0  0  0  0  0  0  0
   56.1711   34.1861   44.3869 H   0  0  0  0  0  0  0  0  0  0  0  0
   57.0610   32.3580   45.1340 C   0  0  0  0  0  0  0  0  0  0  0  0
   56.0180   31.5880   44.7340 F   0  0  0  0  0  0  0  0  0  0  0  0
  1  2  1  0
  2  3  1  0
  2  4  2  0
  4  5  1  0
  5  6  2  0
  6  7  1  0
  6  8  1  0
  8  9  1  0
  9 10  1  0
 10 11  2  0
 10 12  1  0
 12 13  1  0
 13 14  1  0
  5 15  1  0
 15 16  1  0
 15 17  2  0
 17 18  1  0
 18 19  1  0
 18 20  1  0
 18 21  1  0
 17 22  1  0
 22 23  1  0
 23 24  2  0
 24 25  1  0
 24 26  1  0
 26 27  1  0
 27 28  2  0
 27 29  1  0
 29 30  1  0
 30 31  1  0
 30 32  1  0
 30 33  1  0
 33 34  2  0
 34 35  1  0
 34 36  1  0
 36 37  1  0
 36 38  2  0
 38 39  1  0
 38 40  1  0
 40 41  1  0
 40 42  2  0
 42 43  1  0
 43 44  1  0
 43 45  1  0
 43 46  1  0
 46 47  1  0
 46 48  1  0
 26 49  2  0
 49 50  1  0
 49 51  1  0
 51 52  1  0
 51 53  2  0
 53 54  1  0
 22  4  1  0
 53 23  1  0
 13  8  2  0
 46 29  1  0
 42 33  1  0
M  CHG  3   9  -1  12  -1  14  -1
M  END
>  <UniqueID>  (72) 
68

>  <SMILES>  (72) 
C=c1/c(=C/c2[n-]c(=O)[n-]c2[O-])cc(C)n1-c1cc(C(=O)N2CCc3ccccc3C2)ccc1F

>  <Energy>  (72) 
134.99192965060914

>  <Genealogy>  (72) 
C=c1c(=Cc2[n-]c(=O)[n-]c2[O-])cc(C)n1-c1cc(C(=O)N2CCc3ccccc3C2)ccc1F (protonated)
C=c1/c(=C/c2[n-]c(=O)[n-]c2[O-])cc(C)n1-c1cc(C(=O)N2CCc3ccccc3C2)ccc1F (cis-trans isomerization)
C=c1/c(=C/c2[n-]c(=O)[n-]c2[O-])cc(C)n1-c1cc(C(=O)N2CCc3ccccc3C2)ccc1F (3D coordinates assigned)
C=c1/c(=C/c2[n-]c(=O)[n-]c2[O-])cc(C)n1-c1cc(C(=O)N2CCc3ccccc3C2)ccc1F (nonaromatic ring conformer: 134.99192965060914 kcal/mol)

>  <smiles>  (72) 
C=c1c(=Cc2[nH]c(=O)[nH]c2O)cc(C)n1-c1cc(C(=O)N2CCc3ccccc3C2)ccc1F

>  <score_type>  (72) 
oracle

>  <origin>  (72) 
adg

>  <m_score__min__energy>  (72) 
-18.140000000000001

>  <m_primary>  (72) 
energy

$$$$
72:0
     RDKit          3D

 58 62  0  0  0  0  0  0  0  0999 V2000
   59.5140   34.8250   50.0050 H   0  0  0  0  0  0  0  0  0  0  0  0
   59.9520   33.9380   50.0990 O   0  0  0  0  0  0  0  0  0  0  0  0
   60.9250   33.8620   49.0950 C   0  0  1  0  0  0  0  0  0  0  0  0
   60.5802   34.5120   48.2773 H   0  0  0  0  0  0  0  0  0  0  0  0
   62.3120   34.3720   49.5790 C   0  0  0  0  0  0  0  0  0  0  0  0
   62.2525   34.6463   50.6426 H   0  0  0  0  0  0  0  0  0  0  0  0
   62.6066   35.2545   48.9921 H   0  0  0  0  0  0  0  0  0  0  0  0
   63.3600   33.2500   49.3920 C   0  0  2  0  0  0  0  0  0  0  0  0
   64.3397   33.5925   49.7567 H   0  0  0  0  0  0  0  0  0  0  0  0
   63.4390   32.9160   48.0050 O   0  0  0  0  0  0  0  0  0  0  0  0
   62.1750   32.4820   47.4860 C   0  0  0  0  0  0  0  0  0  0  0  0
   62.2992   31.4837   47.0412 H   0  0  0  0  0  0  0  0  0  0  0  0
   61.8483   33.2179   46.7365 H   0  0  0  0  0  0  0  0  0  0  0  0
   61.0780   32.4060   48.5890 C   0  0  1  0  0  0  0  0  0  0  0  0
   60.1072   32.0154   48.2500 H   0  0  0  0  0  0  0  0  0  0  0  0
   61.6030   31.5030   49.6590 N   0  0  2  0  0  0  0  0  0  0  0  0
   61.8900   30.6360   49.1410 H   0  0  0  0  0  0  0  0  0  0  0  0
   60.5540   31.0030   50.5690 C   0  0  0  0  0  0  0  0  0  0  0  0
   60.6030   31.5060   51.8930 C   0  0  0  0  0  0  0  0  0  0  0  0
   61.3962   32.2204   52.1585 H   0  0  0  0  0  0  0  0  0  0  0  0
   59.6870   31.1310   52.8690 C   0  0  0  0  0  0  0  0  0  0  0  0
   59.7638   31.5524   53.8822 H   0  0  0  0  0  0  0  0  0  0  0  0
   58.6730   30.2250   52.5710 C   0  0  0  0  0  0  0  0  0  0  0  0
   57.6590   29.8410   53.6180 C   0  0  0  0  0  0  0  0  0  0  0  0
   57.6666   30.5928   54.4209 H   0  0  0  0  0  0  0  0  0  0  0  0
   57.9225   28.8513   54.0194 H   0  0  0  0  0  0  0  0  0  0  0  0
   56.3090   29.7710   53.0340 N   0  0  0  0  0  0  0  0  0  0  0  0
   55.4560   28.7270   53.1660 C   0  0  0  0  0  0  0  0  0  0  0  0
   55.7340   27.4740   53.9420 C   0  0  0  0  0  0  0  0  0  0  0  0
   55.6857   27.6915   55.0192 H   0  0  0  0  0  0  0  0  0  0  0  0
   54.9833   26.7112   53.6880 H   0  0  0  0  0  0  0  0  0  0  0  0
   56.7369   27.1003   53.6880 H   0  0  0  0  0  0  0  0  0  0  0  0
   54.2480   29.0040   52.5610 C   0  0  0  0  0  0  0  0  0  0  0  0
   53.3692   28.3437   52.5189 H   0  0  0  0  0  0  0  0  0  0  0  0
   54.3540   30.2770   52.0150 C   0  0  0  0  0  0  0  0  0  0  0  0
   53.3960   30.9550   51.3440 C   0  0  0  0  0  0  0  0  0  0  0  0
   53.5170   31.0509   50.2549 H   0  0  0  0  0  0  0  0  0  0  0  0
   52.1990   31.5790   51.9490 C   0  0  0  0  0  0  0  0  0  0  0  0
   51.7900   31.4350   53.2220 N   0  0  0  0  0  0  0  0  0  0  0  0
   50.6420   32.1460   53.2690 C   0  0  0  0  0  0  0  0  0  0  0  0
   49.9550   32.2540   54.3180 O   0  0  0  0  0  0  0  0  0  0  0  0
   50.2870   32.7250   52.1040 N   0  0  0  0  0  0  0  0  0  0  0  0
   51.2800   32.3530   51.2790 C   0  0  0  0  0  0  0  0  0  0  0  0
   51.3430   32.7140   49.9390 O   0  0  0  0  0  0  0  0  0  0  0  0
   55.6440   30.7290   52.3310 C   0  0  0  0  0  0  0  0  0  0  0  0
   56.1620   31.9240   51.9970 C   0  0  0  0  0  0  0  0  0  0  0  0
   57.1891   32.1810   52.2954 H   0  0  0  0  0  0  0  0  0  0  0  0
   55.5587   32.6446   51.4254 H   0  0  0  0  0  0  0  0  0  0  0  0
   58.6030   29.6840   51.2860 C   0  0  0  0  0  0  0  0  0  0  0  0
   57.7992   28.9708   51.0509 H   0  0  0  0  0  0  0  0  0  0  0  0
   59.5320   30.0240   50.2790 C   0  0  0  0  0  0  0  0  0  0  0  0
   59.2910   29.3410   48.9550 C   0  0  0  0  0  0  0  0  0  0  0  0
   58.9297   28.3171   49.1310 H   0  0  0  0  0  0  0  0  0  0  0  0
   58.5369   29.9029   48.3845 H   0  0  0  0  0  0  0  0  0  0  0  0
   60.2308   29.3052   48.3845 H   0  0  0  0  0  0  0  0  0  0  0  0
   62.9130   31.9930   50.1850 C   0  0  0  0  0  0  0  0  0  0  0  0
   62.8059   32.2512   51.2489 H   0  0  0  0  0  0  0  0  0  0  0  0
   63.6694   31.2027   50.0701 H   0  0  0  0  0  0  0  0  0  0  0  0
  1  2  1  0
  2  3  1  0
  3  4  1  6
  3  5  1  0
  5  6  1  0
  5  7  1  0
  5  8  1  0
  8  9  1  1
  8 10  1  0
 10 11  1  0
 11 12  1  0
 11 13  1  0
 11 14  1  0
 14 15  1  6
 14 16  1  0
 16 17  1  6
 16 18  1  0
 18 19  2  0
 19 20  1  0
 19 21  1  0
 21 22  1  0
 21 23  2  0
 23 24  1  0
 24 25  1  0
 24 26  1  0
 24 27  1  0
 27 28  1  0
 28 29  1  0
 29 30  1  0
 29 31  1  0
 29 32  1  0
 28 33  2  0
 33 34  1  0
 33 35  1  0
 35 36  2  0
 36 37  1  0
 36 38  1  0
 38 39  1  0
 39 40  1  0
 40 41  2  0
 40 42  1  0
 42 43  1  0
 43 44  1  0
 35 45  1  0
 45 46  2  0
 46 47  1  0
 46 48  1  0
 23 49  1  0
 49 50  1  0
 49 51  2  0
 51 52  1  0
 52 53  1  0
 52 54  1  0
 52 55  1  0
 16 56  1  0
 56 57  1  0
 56 58  1  0
 14  3  1  0
 51 18  1  0
 56  8  1  0
 45 27  1  0
 43 38  2  0
M  CHG  4  16   1  39  -1  42  -1  44  -1
M  END
>  <UniqueID>  (73) 
69

>  <SMILES>  (73) 
C=c1/c(=C/c2[n-]c(=O)[n-]c2[O-])cc(C)n1Cc1ccc([N@@H+]2C[C@@H]3CC(O)C2CO3)c(C)c1

>  <Energy>  (73) 
172.66721722055175

>  <Genealogy>  (73) 
C=c1c(=Cc2[n-]c(=O)[n-]c2[O-])cc(C)n1Cc1ccc([NH+]2CC3CC(O)C2CO3)c(C)c1 (protonated)
C=c1c(=Cc2[n-]c(=O)[n-]c2[O-])cc(C)n1Cc1ccc([N@@H+]2C[C@@H]3CC(O)C2CO3)c(C)c1 (chirality)
C=c1/c(=C/c2[n-]c(=O)[n-]c2[O-])cc(C)n1Cc1ccc([N@@H+]2C[C@@H]3CC(O)C2CO3)c(C)c1 (cis-trans isomerization)
C=c1/c(=C/c2[n-]c(=O)[n-]c2[O-])cc(C)n1Cc1ccc([N@@H+]2C[C@@H]3CC(O)C2CO3)c(C)c1 (3D coordinates assigned)
C=c1/c(=C/c2[n-]c(=O)[n-]c2[O-])cc(C)n1Cc1ccc([N@@H+]2C[C@@H]3CC(O)C2CO3)c(C)c1 (nonaromatic ring conformer: 172.66721722055175 kcal/mol)

>  <smiles>  (73) 
C=c1c(=Cc2[nH]c(=O)[nH]c2O)cc(C)n1Cc1ccc(N2CC3CC(O)C2CO3)c(C)c1

>  <score_type>  (73) 
oracle

>  <origin>  (73) 
adg

>  <m_score__min__energy>  (73) 
-16.079999999999998

>  <m_primary>  (73) 
energy

$$$$
73:0
     RDKit          3D

 39 41  0  0  1  0  0  0  0  0999 V2000
   56.3840   29.3550   42.6740 N   0  0  0  0  0  0  0  0  0  0  0  0
   56.5530   29.4160   44.0940 C   0  0  0  0  0  0  0  0  0  0  0  0
   55.5010   29.5510   44.7700 O   0  0  0  0  0  0  0  0  0  0  0  0
   57.8820   29.3230   44.6710 C   0  0  0  0  0  0  0  0  0  0  0  0
   58.7380   28.2960   44.3610 C   0  0  0  0  0  0  0  0  0  0  0  0
   60.0120   28.1780   44.8940 C   0  0  0  0  0  0  0  0  0  0  0  0
   60.4140   29.1500   45.7740 C   0  0  0  0  0  0  0  0  0  0  0  0
   59.5870   30.1870   46.1060 C   0  0  0  0  0  0  0  0  0  0  0  0
   58.3080   30.2880   45.5590 C   0  0  0  0  0  0  0  0  0  0  0  0
   57.5010   31.3960   45.9490 N   0  0  0  0  0  0  0  0  0  0  0  0
   58.0700   32.5530   45.9890 C   0  0  0  0  0  0  0  0  0  0  0  0
   57.9550   33.3480   44.8970 N   0  0  0  0  0  0  0  0  0  0  0  0
   58.5270   34.5850   44.8590 C   0  0  0  0  0  0  0  0  0  0  0  0
   59.2240   34.9840   45.9820 C   0  0  0  0  0  0  0  0  0  0  0  0
   59.3590   34.1970   47.1070 C   0  0  0  0  0  0  0  0  0  0  0  0
   60.0230   34.5970   48.1530 N   0  0  0  0  0  0  0  0  0  0  0  0
   61.3120   34.0060   48.4110 C   0  0  0  0  0  0  0  0  0  0  0  0
   61.7610   33.7880   49.6990 C   0  0  0  0  0  0  0  0  0  0  0  0
   63.0060   33.2170   49.8490 C   0  0  0  0  0  0  0  0  0  0  0  0
   63.7770   32.8750   48.7650 C   0  0  0  0  0  0  0  0  0  0  0  0
   63.3100   33.1000   47.4890 C   0  0  0  0  0  0  0  0  0  0  0  0
   64.1380   32.7310   46.4330 O   0  0  0  0  0  0  0  0  0  0  0  0
   62.0780   33.6660   47.3060 C   0  0  0  0  0  0  0  0  0  0  0  0
   58.7670   32.9820   47.0790 N   0  0  0  0  0  0  0  0  0  0  0  0
   55.5590   28.8930   42.2340 H   0  0  0  0  0  0  0  0  0  0  0  0
   57.1470   29.8060   42.0980 H   0  0  0  0  0  0  0  0  0  0  0  0
   58.3954   27.5269   43.6531 H   0  0  0  0  0  0  0  0  0  0  0  0
   60.6721   27.3409   44.6229 H   0  0  0  0  0  0  0  0  0  0  0  0
   61.4180   29.0945   46.2200 H   0  0  0  0  0  0  0  0  0  0  0  0
   59.9354   30.9527   46.8147 H   0  0  0  0  0  0  0  0  0  0  0  0
   57.4120   33.0130   44.0510 H   0  0  0  0  0  0  0  0  0  0  0  0
   58.4374   35.2343   43.9756 H   0  0  0  0  0  0  0  0  0  0  0  0
   59.6948   35.9782   45.9796 H   0  0  0  0  0  0  0  0  0  0  0  0
   61.1483   34.0597   50.5712 H   0  0  0  0  0  0  0  0  0  0  0  0
   63.3920   33.0304   50.8620 H   0  0  0  0  0  0  0  0  0  0  0  0
   64.7676   32.4213   48.9160 H   0  0  0  0  0  0  0  0  0  0  0  0
   64.8900   32.0950   46.6850 H   0  0  0  0  0  0  0  0  0  0  0  0
   61.6979   33.8500   46.2903 H   0  0  0  0  0  0  0  0  0  0  0  0
   58.8510   32.3550   47.9200 H   0  0  0  0  0  0  0  0  0  0  0  0
  1  2  1  0
  2  3  2  0
  2  4  1  0
  4  5  2  0
  5  6  1  0
  6  7  2  0
  7  8  1  0
  8  9  2  0
  9 10  1  0
 10 11  2  0
 11 12  1  0
 12 13  1  0
 13 14  2  0
 14 15  1  0
 15 16  2  0
 16 17  1  0
 17 18  2  0
 18 19  1  0
 19 20  2  0
 20 21  1  0
 21 22  1  0
 21 23  2  0
 15 24  1  0
  9  4  1  0
 24 11  1  0
 23 17  1  0
  1 25  1  0
  1 26  1  0
  5 27  1  0
  6 28  1  0
  7 29  1  0
  8 30  1  0
 12 31  1  0
 13 32  1  0
 14 33  1  0
 18 34  1  0
 19 35  1  0
 20 36  1  0
 22 37  1  0
 23 38  1  0
 24 39  1  0
M  END
>  <smiles>  (74) 
NC(=O)c1ccccc1N=c1[nH]ccc(=Nc2cccc(O)c2)[nH]1

>  <score_type>  (74) 
oracle

>  <origin>  (74) 
adg

>  <m_score__min__energy>  (74) 
-8.9399999999999995

>  <m_primary>  (74) 
energy

$$$$
74:0
     RDKit          3D

 47 49  0  0  0  0  0  0  0  0999 V2000
   57.4230   33.1710   47.1310 C   0  0  0  0  0  0  0  0  0  0  0  0
   58.1800   33.2960   45.8850 N   0  0  0  0  0  0  0  0  0  0  0  0
   57.7690   32.5650   44.7140 C   0  0  0  0  0  0  0  0  0  0  0  0
   57.0570   31.3580   44.8370 C   0  0  0  0  0  0  0  0  0  0  0  0
   56.6680   30.6480   43.6970 C   0  0  0  0  0  0  0  0  0  0  0  0
   56.9890   31.1300   42.4260 C   0  0  0  0  0  0  0  0  0  0  0  0
   57.7020   32.3230   42.2930 C   0  0  0  0  0  0  0  0  0  0  0  0
   58.0920   33.0370   43.4290 C   0  0  0  0  0  0  0  0  0  0  0  0
   59.5890   34.3180   45.8460 S   0  0  0  0  0  0  0  0  0  0  0  0
   60.0420   34.5040   44.4240 O   0  0  0  0  0  0  0  0  0  0  0  0
   59.2470   35.6710   46.4030 O   0  0  0  0  0  0  0  0  0  0  0  0
   60.8840   33.5990   46.8020 C   0  0  0  0  0  0  0  0  0  0  0  0
   62.2270   33.8430   46.4850 C   0  0  0  0  0  0  0  0  0  0  0  0
   63.2440   33.2300   47.2200 C   0  0  0  0  0  0  0  0  0  0  0  0
   62.9270   32.3760   48.2800 C   0  0  0  0  0  0  0  0  0  0  0  0
   61.5900   32.1490   48.6290 C   0  0  0  0  0  0  0  0  0  0  0  0
   61.2970   31.2470   49.7030 N   0  0  0  0  0  0  0  0  0  0  0  0
   60.4560   30.0920   49.6120 C   0  0  0  0  0  0  0  0  0  0  0  0
   59.3870   30.0190   50.2770 O   0  0  0  0  0  0  0  0  0  0  0  0
   60.8510   28.9620   48.7180 C   0  0  0  0  0  0  0  0  0  0  0  0
   60.5800   29.4170   46.9720 S   0  0  0  0  0  0  0  0  0  0  0  0
   59.1500   28.3580   46.7640 C   0  0  0  0  0  0  0  0  0  0  0  0
   58.0780   28.7930   46.0540 N   0  0  0  0  0  0  0  0  0  0  0  0
   56.9800   28.0120   45.8880 C   0  0  0  0  0  0  0  0  0  0  0  0
   56.0070   28.4590   45.2230 O   0  0  0  0  0  0  0  0  0  0  0  0
   56.9420   26.7200   46.4540 C   0  0  0  0  0  0  0  0  0  0  0  0
   55.7750   25.8160   46.3090 C   0  0  0  0  0  0  0  0  0  0  0  0
   55.8940   24.5710   46.4660 O   0  0  0  0  0  0  0  0  0  0  0  0
   54.5220   26.3330   45.9970 O   0  0  0  0  0  0  0  0  0  0  0  0
   58.0690   26.2990   47.1770 C   0  0  0  0  0  0  0  0  0  0  0  0
   59.1420   27.1190   47.3160 N   0  0  0  0  0  0  0  0  0  0  0  0
   60.5690   32.7540   47.8750 C   0  0  0  0  0  0  0  0  0  0  0  0
   58.1046   33.2836   47.9870 H   0  0  0  0  0  0  0  0  0  0  0  0
   56.6513   33.9539   47.1713 H   0  0  0  0  0  0  0  0  0  0  0  0
   56.9440   32.1816   47.1713 H   0  0  0  0  0  0  0  0  0  0  0  0
   56.8050   30.9707   45.8353 H   0  0  0  0  0  0  0  0  0  0  0  0
   56.1076   29.7072   43.8014 H   0  0  0  0  0  0  0  0  0  0  0  0
   56.6804   30.5703   41.5307 H   0  0  0  0  0  0  0  0  0  0  0  0
   57.9572   32.7015   41.2922 H   0  0  0  0  0  0  0  0  0  0  0  0
   58.6557   33.9750   43.3176 H   0  0  0  0  0  0  0  0  0  0  0  0
   62.4808   34.5190   45.6552 H   0  0  0  0  0  0  0  0  0  0  0  0
   64.2969   33.4197   46.9641 H   0  0  0  0  0  0  0  0  0  0  0  0
   63.7315   31.8799   48.8427 H   0  0  0  0  0  0  0  0  0  0  0  0
   61.9154   28.7312   48.8725 H   0  0  0  0  0  0  0  0  0  0  0  0
   60.2374   28.0815   48.9593 H   0  0  0  0  0  0  0  0  0  0  0  0
   58.0829   25.2984   47.6338 H   0  0  0  0  0  0  0  0  0  0  0  0
   59.5159   32.5629   48.1289 H   0  0  0  0  0  0  0  0  0  0  0  0
  1  2  1  0
  2  3  1  0
  3  4  2  0
  4  5  1  0
  5  6  2  0
  6  7  1  0
  7  8  2  0
  2  9  1  0
  9 10  2  0
  9 11  2  0
  9 12  1  0
 12 13  2  0
 13 14  1  0
 14 15  2  0
 15 16  1  0
 16 17  1  0
 17 18  1  0
 18 19  2  0
 18 20  1  0
 20 21  1  0
 21 22  1  0
 22 23  2  0
 23 24  1  0
 24 25  2  0
 24 26  1  0
 26 27  1  0
 27 28  2  0
 27 29  1  0
 26 30  2  0
 30 31  1  0
 16 32  2  0
  8  3  1  0
 32 12  1  0
 31 22  1  0
  1 33  1  0
  1 34  1  0
  1 35  1  0
  4 36  1  0
  5 37  1  0
  6 38  1  0
  7 39  1  0
  8 40  1  0
 13 41  1  0
 14 42  1  0
 15 43  1  0
 20 44  1  0
 20 45  1  0
 30 46  1  0
 32 47  1  0
M  CHG  3  17  -1  29  -1  31  -1
M  END
>  <UniqueID>  (75) 
70

>  <SMILES>  (75) 
CN(c1ccccc1)S(=O)(=O)c1cccc([N-]C(=O)CSc2nc(=O)c(C(=O)[O-])c[n-]2)c1

>  <Energy>  (75) 
54.618256103296495

>  <Genealogy>  (75) 
CN(c1ccccc1)S(=O)(=O)c1cccc([N-]C(=O)CSc2nc(=O)c(C(=O)[O-])c[n-]2)c1 (protonated)
CN(c1ccccc1)S(=O)(=O)c1cccc([N-]C(=O)CSc2nc(=O)c(C(=O)[O-])c[n-]2)c1 (3D coordinates assigned)
CN(c1ccccc1)S(=O)(=O)c1cccc([N-]C(=O)CSc2nc(=O)c(C(=O)[O-])c[n-]2)c1 (optimized conformer: 54.618256103296495 kcal/mol)

>  <smiles>  (75) 
CN(c1ccccc1)S(=O)(=O)c1cccc(NC(=O)CSc2nc(=O)c(C(=O)O)c[nH]2)c1

>  <score_type>  (75) 
oracle

>  <origin>  (75) 
adg

>  <m_score__min__energy>  (75) 
-14.529999999999999

>  <m_primary>  (75) 
energy

$$$$
75:0
     RDKit          3D

 57 60  0  0  0  0  0  0  0  0999 V2000
   59.4880   26.6090   47.2820 H   0  0  0  0  0  0  0  0  0  0  0  0
   58.7460   25.9290   47.1600 O   0  0  0  0  0  0  0  0  0  0  0  0
   57.5150   26.3110   46.6350 C   0  0  0  0  0  0  0  0  0  0  0  0
   56.4110   25.5460   46.6830 N   0  0  0  0  0  0  0  0  0  0  0  0
   55.4940   26.3140   46.0570 C   0  0  0  0  0  0  0  0  0  0  0  0
   54.3030   25.9470   45.8890 O   0  0  0  0  0  0  0  0  0  0  0  0
   55.9570   27.5050   45.6220 N   0  0  0  0  0  0  0  0  0  0  0  0
   57.2480   27.5010   46.0020 C   0  0  0  0  0  0  0  0  0  0  0  0
   58.2370   28.5690   45.7320 C   0  0  0  0  0  0  0  0  0  0  0  0
   59.2586   28.4137   46.1091 H   0  0  0  0  0  0  0  0  0  0  0  0
   57.9950   29.7180   45.0630 C   0  0  0  0  0  0  0  0  0  0  0  0
   57.7140   29.8560   43.7110 C   0  0  0  0  0  0  0  0  0  0  0  0
   57.6651   29.0480   42.9662 H   0  0  0  0  0  0  0  0  0  0  0  0
   57.5080   31.1990   43.4800 C   0  0  0  0  0  0  0  0  0  0  0  0
   57.1820   31.7830   42.1370 C   0  0  0  0  0  0  0  0  0  0  0  0
   56.6498   32.7363   42.2711 H   0  0  0  0  0  0  0  0  0  0  0  0
   58.1128   31.9582   41.5776 H   0  0  0  0  0  0  0  0  0  0  0  0
   56.5443   31.0827   41.5776 H   0  0  0  0  0  0  0  0  0  0  0  0
   57.6470   31.9090   44.6240 N   0  0  0  0  0  0  0  0  0  0  0  0
   57.4300   33.3610   44.7580 C   0  0  0  0  0  0  0  0  0  0  0  0
   56.7595   33.6978   43.9536 H   0  0  0  0  0  0  0  0  0  0  0  0
   56.9852   33.5534   45.7455 H   0  0  0  0  0  0  0  0  0  0  0  0
   58.7520   34.1400   44.6650 C   0  0  0  0  0  0  0  0  0  0  0  0
   59.3867   33.6714   43.8985 H   0  0  0  0  0  0  0  0  0  0  0  0
   58.5138   35.1816   44.4036 H   0  0  0  0  0  0  0  0  0  0  0  0
   59.4970   34.1490   45.9730 C   0  0  0  0  0  0  0  0  0  0  0  0
   60.8860   33.9500   45.9980 C   0  0  0  0  0  0  0  0  0  0  0  0
   61.4397   33.8352   45.0545 H   0  0  0  0  0  0  0  0  0  0  0  0
   61.5690   33.8970   47.2160 C   0  0  0  0  0  0  0  0  0  0  0  0
   62.6587   33.7472   47.2271 H   0  0  0  0  0  0  0  0  0  0  0  0
   60.8710   34.0340   48.4230 C   0  0  0  0  0  0  0  0  0  0  0  0
   61.7490   33.9670   49.9490 S   0  0  0  0  0  0  0  0  0  0  0  0
   62.7500   35.0870   50.0100 O   0  0  0  0  0  0  0  0  0  0  0  0
   60.7640   34.1390   51.0720 O   0  0  0  0  0  0  0  0  0  0  0  0
   62.5500   32.4150   50.0760 N   0  0  0  0  0  0  0  0  0  0  0  0
   62.2780   31.5500   48.9060 C   0  0  0  0  0  0  0  0  0  0  0  0
   62.0814   30.5291   49.2652 H   0  0  0  0  0  0  0  0  0  0  0  0
   61.4129   31.9787   48.3789 H   0  0  0  0  0  0  0  0  0  0  0  0
   63.4430   31.4980   47.9010 C   0  0  0  0  0  0  0  0  0  0  0  0
   64.1550   30.7179   48.2085 H   0  0  0  0  0  0  0  0  0  0  0  0
   63.0474   31.2682   46.9007 H   0  0  0  0  0  0  0  0  0  0  0  0
   64.1270   32.7900   47.8620 N   0  0  0  0  0  0  0  0  0  0  0  0
   64.8620   32.7500   47.1170 H   0  0  0  0  0  0  0  0  0  0  0  0
   64.7860   33.0840   49.1450 C   0  0  0  0  0  0  0  0  0  0  0  0
   65.7790   32.6108   49.1462 H   0  0  0  0  0  0  0  0  0  0  0  0
   64.8542   34.1779   49.2385 H   0  0  0  0  0  0  0  0  0  0  0  0
   63.9900   32.5630   50.3620 C   0  0  0  0  0  0  0  0  0  0  0  0
   64.3940   31.5824   50.6538 H   0  0  0  0  0  0  0  0  0  0  0  0
   64.0953   33.3015   51.1704 H   0  0  0  0  0  0  0  0  0  0  0  0
   59.4840   34.2390   48.4020 C   0  0  0  0  0  0  0  0  0  0  0  0
   58.9325   34.3568   49.3464 H   0  0  0  0  0  0  0  0  0  0  0  0
   58.8010   34.2940   47.1850 C   0  0  0  0  0  0  0  0  0  0  0  0
   57.7124   34.4517   47.1752 H   0  0  0  0  0  0  0  0  0  0  0  0
   57.9470   31.0110   45.6030 C   0  0  0  0  0  0  0  0  0  0  0  0
   58.1650   31.3380   46.8890 C   0  0  0  0  0  0  0  0  0  0  0  0
   58.1019   32.3890   47.2076 H   0  0  0  0  0  0  0  0  0  0  0  0
   58.4064   30.5545   47.6224 H   0  0  0  0  0  0  0  0  0  0  0  0
  1  2  1  0
  2  3  1  0
  3  4  1  0
  4  5  1  0
  5  6  2  0
  5  7  1  0
  7  8  1  0
  8  9  1  0
  9 10  1  0
  9 11  2  0
 11 12  1  0
 12 13  1  0
 12 14  2  0
 14 15  1  0
 15 16  1  0
 15 17  1  0
 15 18  1  0
 14 19  1  0
 19 20  1  0
 20 21  1  0
 20 22  1  0
 20 23  1  0
 23 24  1  0
 23 25  1  0
 23 26  1  0
 26 27  2  0
 27 28  1  0
 27 29  1  0
 29 30  1  0
 29 31  2  0
 31 32  1  0
 32 33  2  0
 32 34  2  0
 32 35  1  0
 35 36  1  0
 36 37  1  0
 36 38  1  0
 36 39  1  0
 39 40  1  0
 39 41  1  0
 39 42  1  0
 42 43  1  0
 42 44  1  0
 44 45  1  0
 44 46  1  0
 44 47  1  0
 47 48  1  0
 47 49  1  0
 31 50  1  0
 50 51  1  0
 50 52  2  0
 52 53  1  0
 19 54  1  0
 54 55  2  0
 55 56  1  0
 55 57  1  0
  8  3  2  0
 54 11  1  0
 52 26  1  0
 47 35  1  0
M  CHG  2   4  -1   7  -1
M  END
>  <UniqueID>  (76) 
71

>  <SMILES>  (76) 
C=c1/c(=C/c2[n-]c(=O)[n-]c2O)cc(C)n1CCc1ccc(S(=O)(=O)N2CCNCC2)cc1

>  <Energy>  (76) 
125.1302406786807

>  <Genealogy>  (76) 
C=c1c(=Cc2[n-]c(=O)[n-]c2O)cc(C)n1CCc1ccc(S(=O)(=O)N2CCNCC2)cc1 (protonated)
C=c1/c(=C/c2[n-]c(=O)[n-]c2O)cc(C)n1CCc1ccc(S(=O)(=O)N2CCNCC2)cc1 (cis-trans isomerization)
C=c1/c(=C/c2[n-]c(=O)[n-]c2O)cc(C)n1CCc1ccc(S(=O)(=O)N2CCNCC2)cc1 (3D coordinates assigned)
C=c1/c(=C/c2[n-]c(=O)[n-]c2O)cc(C)n1CCc1ccc(S(=O)(=O)N2CCNCC2)cc1 (nonaromatic ring conformer: 125.1302406786807 kcal/mol)

>  <smiles>  (76) 
C=c1c(=Cc2[nH]c(=O)[nH]c2O)cc(C)n1CCc1ccc(S(=O)(=O)N2CCNCC2)cc1

>  <score_type>  (76) 
oracle

>  <origin>  (76) 
adg

>  <m_score__min__energy>  (76) 
-14.51

>  <m_primary>  (76) 
energy

$$$$
76:0
     RDKit          3D

 37 38  0  0  0  0  0  0  0  0999 V2000
   58.4370   29.3750   49.2560 O   0  0  0  0  0  0  0  0  0  0  0  0
   59.5820   29.7380   48.8750 C   0  0  0  0  0  0  0  0  0  0  0  0
   60.2060   30.9680   49.4510 C   0  0  0  0  0  0  0  0  0  0  0  0
   59.2880   32.0990   49.3420 N   0  0  0  0  0  0  0  0  0  0  0  0
   59.5700   33.3330   48.6660 C   0  0  0  0  0  0  0  0  0  0  0  0
   60.1400   34.2580   49.3010 O   0  0  0  0  0  0  0  0  0  0  0  0
   59.2020   33.5480   47.2520 C   0  0  0  0  0  0  0  0  0  0  0  0
   59.6030   34.7350   46.6150 C   0  0  0  0  0  0  0  0  0  0  0  0
   59.2780   34.9650   45.2770 C   0  0  0  0  0  0  0  0  0  0  0  0
   58.5610   34.0080   44.5570 C   0  0  0  0  0  0  0  0  0  0  0  0
   58.1680   32.8190   45.1740 C   0  0  0  0  0  0  0  0  0  0  0  0
   58.4840   32.5770   46.5170 C   0  0  0  0  0  0  0  0  0  0  0  0
   58.0580   31.3770   47.0910 O   0  0  0  0  0  0  0  0  0  0  0  0
   60.2710   29.0170   47.8970 O   0  0  0  0  0  0  0  0  0  0  0  0
   60.6270   29.5750   46.6380 C   0  0  0  0  0  0  0  0  0  0  0  0
   60.0300   28.7470   45.5370 C   0  0  0  0  0  0  0  0  0  0  0  0
   60.6990   28.5870   44.4800 O   0  0  0  0  0  0  0  0  0  0  0  0
   58.6790   28.1290   45.6540 C   0  0  0  0  0  0  0  0  0  0  0  0
   58.5020   26.8510   46.2220 C   0  0  0  0  0  0  0  0  0  0  0  0
   57.2240   26.2960   46.3370 C   0  0  0  0  0  0  0  0  0  0  0  0
   56.1060   27.0040   45.8910 C   0  0  0  0  0  0  0  0  0  0  0  0
   54.8390   26.4450   46.0130 O   0  0  0  0  0  0  0  0  0  0  0  0
   56.2660   28.2720   45.3240 C   0  0  0  0  0  0  0  0  0  0  0  0
   55.1560   28.9820   44.8800 O   0  0  0  0  0  0  0  0  0  0  0  0
   57.5430   28.8300   45.2040 C   0  0  0  0  0  0  0  0  0  0  0  0
   60.4424   30.7930   50.5109 H   0  0  0  0  0  0  0  0  0  0  0  0
   61.1260   31.1980   48.8935 H   0  0  0  0  0  0  0  0  0  0  0  0
   60.1770   35.4881   47.1748 H   0  0  0  0  0  0  0  0  0  0  0  0
   59.5873   35.9014   44.7896 H   0  0  0  0  0  0  0  0  0  0  0  0
   58.3055   34.1908   43.5028 H   0  0  0  0  0  0  0  0  0  0  0  0
   57.6060   32.0666   44.6013 H   0  0  0  0  0  0  0  0  0  0  0  0
   58.1620   31.1710   48.0750 H   0  0  0  0  0  0  0  0  0  0  0  0
   60.2443   30.6041   46.5716 H   0  0  0  0  0  0  0  0  0  0  0  0
   61.7224   29.5840   46.5374 H   0  0  0  0  0  0  0  0  0  0  0  0
   59.3763   26.2860   46.5775 H   0  0  0  0  0  0  0  0  0  0  0  0
   57.0986   25.2973   46.7807 H   0  0  0  0  0  0  0  0  0  0  0  0
   57.6614   29.8265   44.7536 H   0  0  0  0  0  0  0  0  0  0  0  0
  1  2  2  0
  2  3  1  0
  3  4  1  0
  4  5  1  0
  5  6  2  0
  5  7  1  0
  7  8  2  0
  8  9  1  0
  9 10  2  0
 10 11  1  0
 11 12  2  0
 12 13  1  0
  2 14  1  0
 14 15  1  0
 15 16  1  0
 16 17  2  0
 16 18  1  0
 18 19  2  0
 19 20  1  0
 20 21  2  0
 21 22  1  0
 21 23  1  0
 23 24  1  0
 23 25  2  0
 12  7  1  0
 25 18  1  0
  3 26  1  0
  3 27  1  0
  8 28  1  0
  9 29  1  0
 10 30  1  0
 11 31  1  0
 13 32  1  0
 15 33  1  0
 15 34  1  0
 19 35  1  0
 20 36  1  0
 25 37  1  0
M  CHG  3   4  -1  22  -1  24  -1
M  END
>  <UniqueID>  (77) 
72

>  <SMILES>  (77) 
O=C(C[N-]C(=O)c1ccccc1O)OCC(=O)c1ccc([O-])c([O-])c1

>  <Energy>  (77) 
39.707826511157585

>  <Genealogy>  (77) 
O=C(C[N-]C(=O)c1ccccc1O)OCC(=O)c1ccc([O-])c([O-])c1 (protonated)
O=C(C[N-]C(=O)c1ccccc1O)OCC(=O)c1ccc([O-])c([O-])c1 (3D coordinates assigned)
O=C(C[N-]C(=O)c1ccccc1O)OCC(=O)c1ccc([O-])c([O-])c1 (optimized conformer: 39.707826511157585 kcal/mol)

>  <smiles>  (77) 
O=C(CNC(=O)c1ccccc1O)OCC(=O)c1ccc(O)c(O)c1

>  <score_type>  (77) 
oracle

>  <origin>  (77) 
adg

>  <m_score__min__energy>  (77) 
-16.010000000000002

>  <m_primary>  (77) 
energy

$$$$
77:0
     RDKit          3D

 54 58  0  0  0  0  0  0  0  0999 V2000
   55.4610   27.7720   53.8420 O   0  0  0  0  0  0  0  0  0  0  0  0
   55.1740   28.9000   53.3570 C   0  0  0  0  0  0  0  0  0  0  0  0
   56.0960   29.5360   52.3670 C   0  0  0  0  0  0  0  0  0  0  0  0
   57.3070   30.1000   53.0580 C   0  0  0  0  0  0  0  0  0  0  0  0
   57.2880   30.8190   54.2380 C   0  0  0  0  0  0  0  0  0  0  0  0
   56.1580   31.1310   54.9880 O   0  0  0  0  0  0  0  0  0  0  0  0
   58.5850   31.1780   54.5420 C   0  0  0  0  0  0  0  0  0  0  0  0
   59.3490   30.6590   53.5170 C   0  0  0  0  0  0  0  0  0  0  0  0
   60.7300   30.7860   53.4220 O   0  0  0  0  0  0  0  0  0  0  0  0
   58.5840   30.0110   52.6110 N   0  0  0  0  0  0  0  0  0  0  0  0
   59.0670   29.3510   51.3920 C   0  0  0  0  0  0  0  0  0  0  0  0
   59.0100   30.2880   50.2150 C   0  0  0  0  0  0  0  0  0  0  0  0
   58.3450   31.5200   50.3230 C   0  0  0  0  0  0  0  0  0  0  0  0
   58.3090   32.4010   49.2400 C   0  0  0  0  0  0  0  0  0  0  0  0
   58.9360   32.0600   48.0310 C   0  0  0  0  0  0  0  0  0  0  0  0
   58.9120   32.9980   46.8890 C   0  0  0  0  0  0  0  0  0  0  0  0
   59.5800   34.2260   47.0260 C   0  0  0  0  0  0  0  0  0  0  0  0
   59.6570   35.1160   45.9540 C   0  0  0  0  0  0  0  0  0  0  0  0
   59.0710   34.7900   44.7330 C   0  0  0  0  0  0  0  0  0  0  0  0
   58.3910   33.5800   44.5820 C   0  0  0  0  0  0  0  0  0  0  0  0
   58.2860   32.6750   45.6540 C   0  0  0  0  0  0  0  0  0  0  0  0
   57.4840   31.4410   45.4610 C   0  0  0  0  0  0  0  0  0  0  0  0
   57.7730   30.2400   45.9980 N   0  0  0  0  0  0  0  0  0  0  0  0
   56.7880   29.4470   45.6100 N   0  0  0  0  0  0  0  0  0  0  0  0
   55.9280   30.1330   44.8740 N   0  0  0  0  0  0  0  0  0  0  0  0
   56.3320   31.3870   44.7660 N   0  0  0  0  0  0  0  0  0  0  0  0
   59.5650   30.8110   47.9070 C   0  0  0  0  0  0  0  0  0  0  0  0
   59.6020   29.9320   48.9920 C   0  0  0  0  0  0  0  0  0  0  0  0
   53.9470   29.5540   53.7010 N   0  0  0  0  0  0  0  0  0  0  0  0
   53.0820   30.2550   52.7980 C   0  0  0  0  0  0  0  0  0  0  0  0
   52.1560   31.2150   53.2500 C   0  0  0  0  0  0  0  0  0  0  0  0
   51.3480   31.8990   52.3360 C   0  0  0  0  0  0  0  0  0  0  0  0
   51.4660   31.6410   50.9660 C   0  0  0  0  0  0  0  0  0  0  0  0
   50.6620   32.3200   50.0580 O   0  0  0  0  0  0  0  0  0  0  0  0
   52.4000   30.7050   50.5100 C   0  0  0  0  0  0  0  0  0  0  0  0
   53.2100   30.0230   51.4220 C   0  0  0  0  0  0  0  0  0  0  0  0
   56.4167   28.7806   51.6345 H   0  0  0  0  0  0  0  0  0  0  0  0
   55.5631   30.3545   51.8609 H   0  0  0  0  0  0  0  0  0  0  0  0
   55.2840   30.6410   54.8340 H   0  0  0  0  0  0  0  0  0  0  0  0
   58.9341   31.7530   55.4124 H   0  0  0  0  0  0  0  0  0  0  0  0
   60.1074   29.0282   51.5453 H   0  0  0  0  0  0  0  0  0  0  0  0
   58.4227   28.4844   51.1828 H   0  0  0  0  0  0  0  0  0  0  0  0
   57.8494   31.7929   51.2664 H   0  0  0  0  0  0  0  0  0  0  0  0
   57.7878   33.3651   49.3345 H   0  0  0  0  0  0  0  0  0  0  0  0
   60.0466   34.4885   47.9869 H   0  0  0  0  0  0  0  0  0  0  0  0
   60.1809   36.0759   46.0732 H   0  0  0  0  0  0  0  0  0  0  0  0
   59.1442   35.4876   43.8857 H   0  0  0  0  0  0  0  0  0  0  0  0
   57.9321   33.3314   43.6137 H   0  0  0  0  0  0  0  0  0  0  0  0
   60.0301   30.5237   46.9525 H   0  0  0  0  0  0  0  0  0  0  0  0
   60.0976   28.9555   48.8880 H   0  0  0  0  0  0  0  0  0  0  0  0
   52.0679   31.4276   54.3257 H   0  0  0  0  0  0  0  0  0  0  0  0
   50.6190   32.6406   52.6947 H   0  0  0  0  0  0  0  0  0  0  0  0
   52.4970   30.5055   49.4326 H   0  0  0  0  0  0  0  0  0  0  0  0
   53.9533   29.2989   51.0571 H   0  0  0  0  0  0  0  0  0  0  0  0
  1  2  2  0
  2  3  1  0
  3  4  1  0
  4  5  2  0
  5  6  1  0
  5  7  1  0
  7  8  2  0
  8  9  1  0
  8 10  1  0
 10 11  1  0
 11 12  1  0
 12 13  2  0
 13 14  1  0
 14 15  2  0
 15 16  1  0
 16 17  2  0
 17 18  1  0
 18 19  2  0
 19 20  1  0
 20 21  2  0
 21 22  1  0
 22 23  1  0
 23 24  2  0
 24 25  1  0
 25 26  1  0
 15 27  1  0
 27 28  2  0
  2 29  1  0
 29 30  1  0
 30 31  2  0
 31 32  1  0
 32 33  2  0
 33 34  1  0
 33 35  1  0
 35 36  2  0
 10  4  1  0
 28 12  1  0
 36 30  1  0
 21 16  1  0
 26 22  2  0
  3 37  1  0
  3 38  1  0
  6 39  1  0
  7 40  1  0
 11 41  1  0
 11 42  1  0
 13 43  1  0
 14 44  1  0
 17 45  1  0
 18 46  1  0
 19 47  1  0
 20 48  1  0
 27 49  1  0
 28 50  1  0
 31 51  1  0
 32 52  1  0
 35 53  1  0
 36 54  1  0
M  CHG  4   9  -1  25  -1  29  -1  34  -1
M  END
>  <UniqueID>  (78) 
73

>  <SMILES>  (78) 
O=C(Cc1c(O)cc([O-])n1Cc1ccc(-c2ccccc2-c2nn[n-]n2)cc1)[N-]c1ccc([O-])cc1

>  <Energy>  (78) 
136.30179450758024

>  <Genealogy>  (78) 
O=C(Cc1c(O)cc([O-])n1Cc1ccc(-c2ccccc2-c2nn[n-]n2)cc1)[N-]c1ccc([O-])cc1 (protonated)
O=C(Cc1c(O)cc([O-])n1Cc1ccc(-c2ccccc2-c2nn[n-]n2)cc1)[N-]c1ccc([O-])cc1 (3D coordinates assigned)
O=C(Cc1c(O)cc([O-])n1Cc1ccc(-c2ccccc2-c2nn[n-]n2)cc1)[N-]c1ccc([O-])cc1 (optimized conformer: 136.30179450758024 kcal/mol)

>  <smiles>  (78) 
O=C(Cc1c(O)cc(O)n1Cc1ccc(-c2ccccc2-c2nn[nH]n2)cc1)Nc1ccc(O)cc1

>  <score_type>  (78) 
oracle

>  <origin>  (78) 
adg

>  <m_score__min__energy>  (78) 
-17.050000000000001

>  <m_primary>  (78) 
energy

$$$$
78:0
     RDKit          3D

 50 53  0  0  0  0  0  0  0  0999 V2000
   56.1270   30.6350   44.5190 O   0  0  0  0  0  0  0  0  0  0  0  0
   57.1450   30.2290   43.8970 C   0  0  0  0  0  0  0  0  0  0  0  0
   57.3910   28.7580   43.7640 C   0  0  0  0  0  0  0  0  0  0  0  0
   57.9470   28.2240   45.0060 N   0  0  0  0  0  0  0  0  0  0  0  0
   58.7050   28.9110   45.8940 C   0  0  0  0  0  0  0  0  0  0  0  0
   59.0360   28.0940   46.9670 C   0  0  0  0  0  0  0  0  0  0  0  0
   60.0220   28.5590   48.3930 S   0  0  0  0  0  0  0  0  0  0  0  0
   59.3490   30.2550   48.5100 C   0  0  0  0  0  0  0  0  0  0  0  0
   60.4230   31.2860   48.2890 C   0  0  0  0  0  0  0  0  0  0  0  0
   61.4380   31.0650   47.3430 C   0  0  0  0  0  0  0  0  0  0  0  0
   62.4360   32.0240   47.1450 C   0  0  0  0  0  0  0  0  0  0  0  0
   62.4390   33.1990   47.8990 C   0  0  0  0  0  0  0  0  0  0  0  0
   63.4120   34.1240   47.7120 F   0  0  0  0  0  0  0  0  0  0  0  0
   61.4380   33.4210   48.8500 C   0  0  0  0  0  0  0  0  0  0  0  0
   60.4310   32.4700   49.0430 C   0  0  0  0  0  0  0  0  0  0  0  0
   58.4480   26.8730   46.7200 C   0  0  0  0  0  0  0  0  0  0  0  0
   58.4330   25.6950   47.4650 C   0  0  0  0  0  0  0  0  0  0  0  0
   57.7090   24.6040   46.9530 C   0  0  0  0  0  0  0  0  0  0  0  0
   57.0210   24.7150   45.7240 C   0  0  0  0  0  0  0  0  0  0  0  0
   57.0520   25.9160   44.9950 C   0  0  0  0  0  0  0  0  0  0  0  0
   57.7820   26.9860   45.5230 C   0  0  0  0  0  0  0  0  0  0  0  0
   58.0870   31.1650   43.3570 N   0  0  0  0  0  0  0  0  0  0  0  0
   57.8020   32.5940   43.2610 C   0  0  0  0  0  0  0  0  0  0  0  0
   58.2070   33.2850   44.5340 C   0  0  0  0  0  0  0  0  0  0  0  0
   57.5220   33.0310   45.7350 C   0  0  0  0  0  0  0  0  0  0  0  0
   57.8830   33.7030   46.9080 C   0  0  0  0  0  0  0  0  0  0  0  0
   58.9250   34.6370   46.8880 C   0  0  0  0  0  0  0  0  0  0  0  0
   59.6040   34.9020   45.6940 C   0  0  0  0  0  0  0  0  0  0  0  0
   59.2440   34.2340   44.5200 C   0  0  0  0  0  0  0  0  0  0  0  0
   56.4410   28.2494   43.5431 H   0  0  0  0  0  0  0  0  0  0  0  0
   58.1078   28.5867   42.9474 H   0  0  0  0  0  0  0  0  0  0  0  0
   59.0129   29.9610   45.7817 H   0  0  0  0  0  0  0  0  0  0  0  0
   58.5667   30.3834   47.7475 H   0  0  0  0  0  0  0  0  0  0  0  0
   58.9353   30.3955   49.5195 H   0  0  0  0  0  0  0  0  0  0  0  0
   61.4475   30.1346   46.7563 H   0  0  0  0  0  0  0  0  0  0  0  0
   63.2206   31.8523   46.3934 H   0  0  0  0  0  0  0  0  0  0  0  0
   61.4427   34.3449   49.4470 H   0  0  0  0  0  0  0  0  0  0  0  0
   59.6424   32.6504   49.7883 H   0  0  0  0  0  0  0  0  0  0  0  0
   58.9700   25.6214   48.4222 H   0  0  0  0  0  0  0  0  0  0  0  0
   57.6780   23.6577   47.5130 H   0  0  0  0  0  0  0  0  0  0  0  0
   56.4567   23.8547   45.3348 H   0  0  0  0  0  0  0  0  0  0  0  0
   56.5183   26.0118   44.0379 H   0  0  0  0  0  0  0  0  0  0  0  0
   59.0070   30.8150   43.0060 H   0  0  0  0  0  0  0  0  0  0  0  0
   58.3653   33.0222   42.4188 H   0  0  0  0  0  0  0  0  0  0  0  0
   56.7235   32.7374   43.0992 H   0  0  0  0  0  0  0  0  0  0  0  0
   56.6991   32.3012   45.7527 H   0  0  0  0  0  0  0  0  0  0  0  0
   57.3474   33.4970   47.8465 H   0  0  0  0  0  0  0  0  0  0  0  0
   59.2101   35.1628   47.8112 H   0  0  0  0  0  0  0  0  0  0  0  0
   60.4223   35.6370   45.6789 H   0  0  0  0  0  0  0  0  0  0  0  0
   59.7744   34.4519   43.5813 H   0  0  0  0  0  0  0  0  0  0  0  0
  1  2  2  0
  2  3  1  0
  3  4  1  0
  4  5  1  0
  5  6  2  0
  6  7  1  0
  7  8  1  0
  8  9  1  0
  9 10  2  0
 10 11  1  0
 11 12  2  0
 12 13  1  0
 12 14  1  0
 14 15  2  0
  6 16  1  0
 16 17  2  0
 17 18  1  0
 18 19  2  0
 19 20  1  0
 20 21  2  0
  2 22  1  0
 22 23  1  0
 23 24  1  0
 24 25  2  0
 25 26  1  0
 26 27  2  0
 27 28  1  0
 28 29  2  0
 21  4  1  0
 29 24  1  0
 15  9  1  0
 21 16  1  0
  3 30  1  0
  3 31  1  0
  5 32  1  0
  8 33  1  0
  8 34  1  0
 10 35  1  0
 11 36  1  0
 14 37  1  0
 15 38  1  0
 17 39  1  0
 18 40  1  0
 19 41  1  0
 20 42  1  0
 22 43  1  0
 23 44  1  0
 23 45  1  0
 25 46  1  0
 26 47  1  0
 27 48  1  0
 28 49  1  0
 29 50  1  0
M  END
>  <UniqueID>  (79) 
74

>  <SMILES>  (79) 
O=C(Cn1cc(SCc2ccc(F)cc2)c2ccccc21)NCc1ccccc1

>  <Energy>  (79) 
76.090867286943

>  <Genealogy>  (79) 
O=C(Cn1cc(SCc2ccc(F)cc2)c2ccccc21)NCc1ccccc1 (3D coordinates assigned)
O=C(Cn1cc(SCc2ccc(F)cc2)c2ccccc21)NCc1ccccc1 (optimized conformer: 76.090867286943 kcal/mol)

>  <smiles>  (79) 
O=C(Cn1cc(SCc2ccc(F)cc2)c2ccccc21)NCc1ccccc1

>  <score_type>  (79) 
oracle

>  <origin>  (79) 
adg

>  <m_score__min__energy>  (79) 
-9.1600000000000001

>  <m_primary>  (79) 
energy

$$$$
79:0
     RDKit          3D

 32 33  0  0  0  0  0  0  0  0999 V2000
   50.5103   31.4827   54.1834 H   0  0  0  0  0  0  0  0  0  0  0  0
   51.3400   31.0410   53.6120 C   0  0  0  0  0  0  0  0  0  0  0  0
   52.3070   30.4250   54.3070 C   0  0  0  0  0  0  0  0  0  0  0  0
   52.1283   30.2420   55.3769 H   0  0  0  0  0  0  0  0  0  0  0  0
   53.5950   29.9740   53.7410 C   0  0  0  0  0  0  0  0  0  0  0  0
   54.6970   30.8320   53.7630 C   0  0  0  0  0  0  0  0  0  0  0  0
   54.5964   31.8356   54.2019 H   0  0  0  0  0  0  0  0  0  0  0  0
   55.8990   30.4380   53.2450 N   0  0  0  0  0  0  0  0  0  0  0  0
   57.0320   31.3770   53.2420 C   0  0  0  0  0  0  0  0  0  0  0  0
   57.9697   30.8022   53.2595 H   0  0  0  0  0  0  0  0  0  0  0  0
   56.9430   32.0199   54.1301 H   0  0  0  0  0  0  0  0  0  0  0  0
   57.0270   32.2830   51.9960 C   0  0  0  0  0  0  0  0  0  0  0  0
   56.6826   33.2839   52.2954 H   0  0  0  0  0  0  0  0  0  0  0  0
   56.3592   31.8132   51.2589 H   0  0  0  0  0  0  0  0  0  0  0  0
   58.4070   32.4230   51.3290 C   0  0  0  0  0  0  0  0  0  0  0  0
   58.2678   32.4517   50.2382 H   0  0  0  0  0  0  0  0  0  0  0  0
   59.0133   31.5606   51.6431 H   0  0  0  0  0  0  0  0  0  0  0  0
   59.1380   33.6620   51.7500 C   0  0  0  0  0  0  0  0  0  0  0  0
   58.5460   34.5670   52.3950 O   0  0  0  0  0  0  0  0  0  0  0  0
   60.4640   33.8420   51.3750 O   0  0  0  0  0  0  0  0  0  0  0  0
   56.0360   29.1740   52.7350 C   0  0  0  0  0  0  0  0  0  0  0  0
   57.2530   28.7460   52.2140 O   0  0  0  0  0  0  0  0  0  0  0  0
   54.9850   28.3160   52.7400 N   0  0  0  0  0  0  0  0  0  0  0  0
   53.7770   28.6800   53.2340 C   0  0  0  0  0  0  0  0  0  0  0  0
   52.8320   27.8460   53.2370 O   0  0  0  0  0  0  0  0  0  0  0  0
   51.2980   31.1750   52.1400 C   0  0  0  0  0  0  0  0  0  0  0  0
   51.6050   30.2070   51.2570 N   0  0  0  0  0  0  0  0  0  0  0  0
   51.4730   30.8180   50.0620 C   0  0  0  0  0  0  0  0  0  0  0  0
   51.6750   30.2250   48.9700 O   0  0  0  0  0  0  0  0  0  0  0  0
   51.1110   32.1170   50.1260 N   0  0  0  0  0  0  0  0  0  0  0  0
   51.0100   32.3270   51.4490 C   0  0  0  0  0  0  0  0  0  0  0  0
   50.6640   33.5490   52.0130 O   0  0  0  0  0  0  0  0  0  0  0  0
  1  2  1  0
  2  3  2  0
  3  4  1  0
  3  5  1  0
  5  6  2  0
  6  7  1  0
  6  8  1  0
  8  9  1  0
  9 10  1  0
  9 11  1  0
  9 12  1  0
 12 13  1  0
 12 14  1  0
 12 15  1  0
 15 16  1  0
 15 17  1  0
 15 18  1  0
 18 19  2  0
 18 20  1  0
  8 21  1  0
 21 22  1  0
 21 23  2  0
 23 24  1  0
 24 25  2  0
  2 26  1  0
 26 27  1  0
 27 28  1  0
 28 29  2  0
 28 30  1  0
 30 31  1  0
 31 32  1  0
 24  5  1  0
 31 26  2  0
M  CHG  5  20  -1  22  -1  27  -1  30  -1  32  -1
M  END
>  <UniqueID>  (80) 
75

>  <SMILES>  (80) 
O=C([O-])CCCn1cc(/C=C\c2[n-]c(=O)[n-]c2[O-])c(=O)nc1[O-]

>  <Energy>  (80) 
67.71473791459611

>  <Genealogy>  (80) 
O=C([O-])CCCn1cc(C=Cc2[n-]c(=O)[n-]c2[O-])c(=O)nc1[O-] (protonated)
O=C([O-])CCCn1cc(/C=C\c2[n-]c(=O)[n-]c2[O-])c(=O)nc1[O-] (cis-trans isomerization)
O=C([O-])CCCn1cc(/C=C\c2[n-]c(=O)[n-]c2[O-])c(=O)nc1[O-] (3D coordinates assigned)
O=C([O-])CCCn1cc(/C=C\c2[n-]c(=O)[n-]c2[O-])c(=O)nc1[O-] (optimized conformer: 67.71473791459611 kcal/mol)

>  <smiles>  (80) 
O=C(O)CCCn1cc(C=Cc2[nH]c(=O)[nH]c2O)c(=O)nc1O

>  <score_type>  (80) 
oracle

>  <origin>  (80) 
adg

>  <m_score__min__energy>  (80) 
-16.5

>  <m_primary>  (80) 
energy

$$$$
80:0
     RDKit          3D

 66 68  0  0  0  0  0  0  0  0999 V2000
   60.7734   26.9050   45.9657 H   0  0  0  0  0  0  0  0  0  0  0  0
   60.0940   27.4370   46.6480 C   0  0  0  0  0  0  0  0  0  0  0  0
   60.6640   28.2320   47.5700 C   0  0  0  0  0  0  0  0  0  0  0  0
   61.7379   28.4399   47.4539 H   0  0  0  0  0  0  0  0  0  0  0  0
   59.9700   28.8640   48.7460 C   0  0  0  0  0  0  0  0  0  0  0  0
   59.0821   28.2702   49.0089 H   0  0  0  0  0  0  0  0  0  0  0  0
   59.6653   29.8874   48.4820 H   0  0  0  0  0  0  0  0  0  0  0  0
   60.9250   28.9120   49.9460 C   0  0  0  0  0  0  0  0  0  0  0  0
   61.4175   29.8953   49.9699 H   0  0  0  0  0  0  0  0  0  0  0  0
   61.6615   28.1034   49.8291 H   0  0  0  0  0  0  0  0  0  0  0  0
   60.2030   28.7000   51.2410 C   0  0  0  0  0  0  0  0  0  0  0  0
   60.4300   27.6680   51.9280 O   0  0  0  0  0  0  0  0  0  0  0  0
   59.2040   29.6390   51.6590 N   0  0  0  0  0  0  0  0  0  0  0  0
   58.0330   29.2680   52.4460 C   0  0  0  0  0  0  0  0  0  0  0  0
   58.2594   29.4010   53.5142 H   0  0  0  0  0  0  0  0  0  0  0  0
   57.7848   28.2173   52.2354 H   0  0  0  0  0  0  0  0  0  0  0  0
   56.8560   30.1220   52.0830 C   0  0  0  0  0  0  0  0  0  0  0  0
   55.6890   29.7340   52.3620 O   0  0  0  0  0  0  0  0  0  0  0  0
   57.0480   31.3940   51.4640 N   0  0  0  0  0  0  0  0  0  0  0  0
   56.2300   31.9980   51.2390 H   0  0  0  0  0  0  0  0  0  0  0  0
   58.0060   31.7390   51.2270 H   0  0  0  0  0  0  0  0  0  0  0  0
   58.6430   27.2050   46.4580 C   0  0  0  0  0  0  0  0  0  0  0  0
   58.1310   25.9270   46.7250 C   0  0  0  0  0  0  0  0  0  0  0  0
   58.7945   25.1441   47.1210 H   0  0  0  0  0  0  0  0  0  0  0  0
   56.7830   25.6420   46.4910 C   0  0  0  0  0  0  0  0  0  0  0  0
   56.3893   24.6380   46.7076 H   0  0  0  0  0  0  0  0  0  0  0  0
   55.9340   26.6280   45.9830 C   0  0  0  0  0  0  0  0  0  0  0  0
   54.5940   26.3300   45.7550 O   0  0  0  0  0  0  0  0  0  0  0  0
   56.4260   27.9080   45.6990 C   0  0  0  0  0  0  0  0  0  0  0  0
   55.5290   28.8720   45.2070 O   0  0  0  0  0  0  0  0  0  0  0  0
   55.8850   29.9980   44.4050 C   0  0  0  0  0  0  0  0  0  0  0  0
   55.1300   30.1287   43.6158 H   0  0  0  0  0  0  0  0  0  0  0  0
   55.9286   30.8857   45.0531 H   0  0  0  0  0  0  0  0  0  0  0  0
   57.2280   29.8110   43.7690 C   0  0  0  0  0  0  0  0  0  0  0  0
   57.3830   28.9240   42.8900 O   0  0  0  0  0  0  0  0  0  0  0  0
   58.3130   30.6620   44.1650 N   0  0  0  0  0  0  0  0  0  0  0  0
   58.2330   31.9030   44.8810 C   0  0  0  0  0  0  0  0  0  0  0  0
   57.6300   32.9980   44.2510 C   0  0  0  0  0  0  0  0  0  0  0  0
   57.1988   32.8803   43.2459 H   0  0  0  0  0  0  0  0  0  0  0  0
   57.5720   34.2380   44.8890 C   0  0  0  0  0  0  0  0  0  0  0  0
   57.0761   35.0870   44.3958 H   0  0  0  0  0  0  0  0  0  0  0  0
   58.1430   34.4020   46.1530 C   0  0  0  0  0  0  0  0  0  0  0  0
   58.0926   35.3811   46.6518 H   0  0  0  0  0  0  0  0  0  0  0  0
   58.7790   33.3300   46.7900 C   0  0  0  0  0  0  0  0  0  0  0  0
   59.3890   33.5670   48.0680 N   0  0  0  0  0  0  0  0  0  0  0  0
   59.3180   32.5430   49.4710 S   0  0  0  0  0  0  0  0  0  0  0  0
   58.4880   31.3210   49.1910 O   0  0  0  0  0  0  0  0  0  0  0  0
   58.6570   33.3130   50.5790 O   0  0  0  0  0  0  0  0  0  0  0  0
   60.9620   32.0920   50.0140 C   0  0  0  0  0  0  0  0  0  0  0  0
   61.1968   32.6422   50.9371 H   0  0  0  0  0  0  0  0  0  0  0  0
   60.9814   31.0062   50.1889 H   0  0  0  0  0  0  0  0  0  0  0  0
   61.9960   32.4200   48.9740 C   0  0  0  0  0  0  0  0  0  0  0  0
   62.4560   33.7380   48.8140 C   0  0  0  0  0  0  0  0  0  0  0  0
   62.0872   34.5320   49.4800 H   0  0  0  0  0  0  0  0  0  0  0  0
   63.3820   34.0440   47.8100 C   0  0  0  0  0  0  0  0  0  0  0  0
   63.7337   35.0786   47.6841 H   0  0  0  0  0  0  0  0  0  0  0  0
   63.8600   33.0380   46.9680 C   0  0  0  0  0  0  0  0  0  0  0  0
   64.5877   33.2803   46.1795 H   0  0  0  0  0  0  0  0  0  0  0  0
   63.4140   31.7240   47.1270 C   0  0  0  0  0  0  0  0  0  0  0  0
   63.7970   30.9311   46.4678 H   0  0  0  0  0  0  0  0  0  0  0  0
   62.4820   31.4140   48.1220 C   0  0  0  0  0  0  0  0  0  0  0  0
   62.1280   30.3790   48.2382 H   0  0  0  0  0  0  0  0  0  0  0  0
   58.8120   32.0760   46.1530 C   0  0  0  0  0  0  0  0  0  0  0  0
   59.2943   31.2231   46.6530 H   0  0  0  0  0  0  0  0  0  0  0  0
   57.7910   28.1850   45.9160 C   0  0  0  0  0  0  0  0  0  0  0  0
   58.1937   29.1760   45.6594 H   0  0  0  0  0  0  0  0  0  0  0  0
  1  2  1  0
  2  3  2  0
  3  4  1  0
  3  5  1  0
  5  6  1  0
  5  7  1  0
  5  8  1  0
  8  9  1  0
  8 10  1  0
  8 11  1  0
 11 12  2  0
 11 13  1  0
 13 14  1  0
 14 15  1  0
 14 16  1  0
 14 17  1  0
 17 18  2  0
 17 19  1  0
 19 20  1  0
 19 21  1  0
  2 22  1  0
 22 23  2  0
 23 24  1  0
 23 25  1  0
 25 26  1  0
 25 27  2  0
 27 28  1  0
 27 29  1  0
 29 30  1  0
 30 31  1  0
 31 32  1  0
 31 33  1  0
 31 34  1  0
 34 35  2  0
 34 36  1  0
 36 37  1  0
 37 38  2  0
 38 39  1  0
 38 40  1  0
 40 41  1  0
 40 42  2  0
 42 43  1  0
 42 44  1  0
 44 45  1  0
 45 46  1  0
 46 47  2  0
 46 48  2  0
 46 49  1  0
 49 50  1  0
 49 51  1  0
 49 52  1  0
 52 53  2  0
 53 54  1  0
 53 55  1  0
 55 56  1  0
 55 57  2  0
 57 58  1  0
 57 59  1  0
 59 60  1  0
 59 61  2  0
 61 62  1  0
 44 63  2  0
 63 64  1  0
 29 65  2  0
 65 66  1  0
 65 22  1  0
 63 37  1  0
 61 52  1  0
M  CHG  4  13  -1  28  -1  36  -1  45  -1
M  END
>  <UniqueID>  (81) 
76

>  <SMILES>  (81) 
NC(=O)C[N-]C(=O)CC/C=C\c1ccc([O-])c(OCC(=O)[N-]c2cccc([N-]S(=O)(=O)Cc3ccccc3)c2)c1

>  <Energy>  (81) 
62.64738106409713

>  <Genealogy>  (81) 
NC(=O)C[N-]C(=O)CCC=Cc1ccc([O-])c(OCC(=O)[N-]c2cccc([N-]S(=O)(=O)Cc3ccccc3)c2)c1 (protonated)
NC(=O)C[N-]C(=O)CC/C=C\c1ccc([O-])c(OCC(=O)[N-]c2cccc([N-]S(=O)(=O)Cc3ccccc3)c2)c1 (cis-trans isomerization)
NC(=O)C[N-]C(=O)CC/C=C\c1ccc([O-])c(OCC(=O)[N-]c2cccc([N-]S(=O)(=O)Cc3ccccc3)c2)c1 (3D coordinates assigned)
NC(=O)C[N-]C(=O)CC/C=C\c1ccc([O-])c(OCC(=O)[N-]c2cccc([N-]S(=O)(=O)Cc3ccccc3)c2)c1 (optimized conformer: 62.64738106409713 kcal/mol)

>  <smiles>  (81) 
NC(=O)CNC(=O)CCC=Cc1ccc(O)c(OCC(=O)Nc2cccc(NS(=O)(=O)Cc3ccccc3)c2)c1

>  <score_type>  (81) 
oracle

>  <origin>  (81) 
adg

>  <m_score__min__energy>  (81) 
-15.49

>  <m_primary>  (81) 
energy

$$$$
81:0
     RDKit          3D

 47 50  0  0  1  0  0  0  0  0999 V2000
   65.1190   30.8980   51.3250 C   0  0  0  0  0  0  0  0  0  0  0  0
   64.7160   31.6910   50.1640 N   0  0  0  0  0  0  0  0  0  0  0  0
   63.3810   31.6540   49.6750 C   0  0  0  0  0  0  0  0  0  0  0  0
   62.5810   30.8910   50.3140 O   0  0  0  0  0  0  0  0  0  0  0  0
   62.9260   32.4190   48.5260 C   0  0  0  0  0  0  0  0  0  0  0  0
   63.7440   33.2530   47.7910 C   0  0  0  0  0  0  0  0  0  0  0  0
   63.2920   33.9690   46.7070 C   0  0  0  0  0  0  0  0  0  0  0  0
   61.9500   33.8400   46.3480 C   0  0  0  0  0  0  0  0  0  0  0  0
   61.1080   33.0160   47.0640 C   0  0  0  0  0  0  0  0  0  0  0  0
   59.7140   32.9240   46.6420 C   0  0  0  0  0  0  0  0  0  0  0  0
   59.1440   32.1380   45.6610 C   0  0  0  0  0  0  0  0  0  0  0  0
   57.7750   32.4060   45.6400 C   0  0  0  0  0  0  0  0  0  0  0  0
   56.8940   31.8830   44.8740 N   0  0  0  0  0  0  0  0  0  0  0  0
   56.6820   30.5010   44.8030 C   0  0  0  0  0  0  0  0  0  0  0  0
   55.5030   30.1100   44.5100 O   0  0  0  0  0  0  0  0  0  0  0  0
   57.6670   29.4750   45.0260 C   0  0  0  0  0  0  0  0  0  0  0  0
   58.0470   28.5900   44.0280 C   0  0  0  0  0  0  0  0  0  0  0  0
   58.9840   27.6010   44.2200 C   0  0  0  0  0  0  0  0  0  0  0  0
   59.5820   27.4730   45.4570 C   0  0  0  0  0  0  0  0  0  0  0  0
   59.2390   28.3290   46.4830 C   0  0  0  0  0  0  0  0  0  0  0  0
   59.8690   28.1960   47.7950 C   0  0  0  0  0  0  0  0  0  0  0  0
   60.2470   29.2510   48.6140 C   0  0  0  0  0  0  0  0  0  0  0  0
   60.7990   28.7760   49.7510 N   0  0  0  0  0  0  0  0  0  0  0  0
   60.7690   27.4160   49.6460 C   0  0  0  0  0  0  0  0  0  0  0  0
   60.2100   27.0850   48.4700 N   0  0  0  0  0  0  0  0  0  0  0  0
   58.3000   29.3080   46.2680 C   0  0  0  0  0  0  0  0  0  0  0  0
   57.5820   33.3280   46.5960 N   0  0  0  0  0  0  0  0  0  0  0  0
   58.7200   33.6410   47.1940 N   0  0  0  0  0  0  0  0  0  0  0  0
   61.6070   32.3170   48.1420 C   0  0  0  0  0  0  0  0  0  0  0  0
   64.8471   31.4331   52.2468 H   0  0  0  0  0  0  0  0  0  0  0  0
   64.6058   29.9253   51.3007 H   0  0  0  0  0  0  0  0  0  0  0  0
   66.2072   30.7391   51.3007 H   0  0  0  0  0  0  0  0  0  0  0  0
   65.4200   32.2890   49.6950 H   0  0  0  0  0  0  0  0  0  0  0  0
   64.7999   33.3490   48.0839 H   0  0  0  0  0  0  0  0  0  0  0  0
   63.9691   34.6244   46.1395 H   0  0  0  0  0  0  0  0  0  0  0  0
   61.5602   34.4009   45.4858 H   0  0  0  0  0  0  0  0  0  0  0  0
   59.6748   31.4267   45.0112 H   0  0  0  0  0  0  0  0  0  0  0  0
   57.5777   28.6831   43.0375 H   0  0  0  0  0  0  0  0  0  0  0  0
   59.2529   26.9212   43.3981 H   0  0  0  0  0  0  0  0  0  0  0  0
   60.3333   26.6873   45.6252 H   0  0  0  0  0  0  0  0  0  0  0  0
   60.1162   30.3162   48.3725 H   0  0  0  0  0  0  0  0  0  0  0  0
   61.1820   29.3300   50.5650 H   0  0  0  0  0  0  0  0  0  0  0  0
   61.1413   26.7071   50.4002 H   0  0  0  0  0  0  0  0  0  0  0  0
   58.0354   29.9828   47.0954 H   0  0  0  0  0  0  0  0  0  0  0  0
   56.6490   33.7240   46.8120 H   0  0  0  0  0  0  0  0  0  0  0  0
   58.7630   34.3460   47.9670 H   0  0  0  0  0  0  0  0  0  0  0  0
   60.9335   31.6596   48.7114 H   0  0  0  0  0  0  0  0  0  0  0  0
  1  2  1  0
  2  3  1  0
  3  4  2  0
  3  5  1  0
  5  6  2  0
  6  7  1  0
  7  8  2  0
  8  9  1  0
  9 10  1  0
 10 11  2  0
 11 12  1  0
 12 13  2  0
 13 14  1  0
 14 15  2  0
 14 16  1  0
 16 17  2  0
 17 18  1  0
 18 19  2  0
 19 20  1  0
 20 21  1  0
 21 22  2  0
 22 23  1  0
 23 24  1  0
 24 25  2  0
 20 26  2  0
 12 27  1  0
 27 28  1  0
  9 29  2  0
 29  5  1  0
 28 10  1  0
 26 16  1  0
 25 21  1  0
  1 30  1  0
  1 31  1  0
  1 32  1  0
  2 33  1  0
  6 34  1  0
  7 35  1  0
  8 36  1  0
 11 37  1  0
 17 38  1  0
 18 39  1  0
 19 40  1  0
 22 41  1  0
 23 42  1  0
 24 43  1  0
 26 44  1  0
 27 45  1  0
 28 46  1  0
 29 47  1  0
M  END
>  <smiles>  (82) 
CNC(=O)c1cccc(-c2cc(=NC(=O)c3cccc(-c4c[nH]cn4)c3)[nH][nH]2)c1

>  <score_type>  (82) 
oracle

>  <origin>  (82) 
adg

>  <m_score__min__energy>  (82) 
-9.6600000000000001

>  <m_primary>  (82) 
energy

$$$$
82:0
     RDKit          3D

 53 55  0  0  0  0  0  0  0  0999 V2000
   57.0260   21.5810   48.8520 O   0  0  0  0  0  0  0  0  0  0  0  0
   56.6320   22.5530   48.1520 C   0  0  0  0  0  0  0  0  0  0  0  0
   55.1700   22.8640   48.0730 C   0  0  0  0  0  0  0  0  0  0  0  0
   54.6570   22.5300   46.7840 O   0  0  0  0  0  0  0  0  0  0  0  0
   55.3300   22.7000   45.5600 C   0  0  0  0  0  0  0  0  0  0  0  0
   56.0080   21.6300   44.9380 C   0  0  0  0  0  0  0  0  0  0  0  0
   56.6600   21.8150   43.7190 C   0  0  0  0  0  0  0  0  0  0  0  0
   56.6400   23.0610   43.0980 C   0  0  0  0  0  0  0  0  0  0  0  0
   55.9700   24.1290   43.6950 C   0  0  0  0  0  0  0  0  0  0  0  0
   55.3120   23.9690   44.9290 C   0  0  0  0  0  0  0  0  0  0  0  0
   54.6400   25.1000   45.5230 N   0  0  0  0  0  0  0  0  0  0  0  0
   53.3970   25.1360   45.6180 O   0  0  0  0  0  0  0  0  0  0  0  0
   55.3700   26.1350   46.0630 O   0  0  0  0  0  0  0  0  0  0  0  0
   57.5720   23.3670   47.4450 N   0  0  0  0  0  0  0  0  0  0  0  0
   57.5900   24.8250   47.5100 C   0  0  0  0  0  0  0  0  0  0  0  0
   58.4670   25.4090   46.4000 C   0  0  0  0  0  0  0  0  0  0  0  0
   58.3100   26.8600   46.3290 N   0  0  0  0  0  0  0  0  0  0  0  0
   58.5410   27.7480   47.3180 C   0  0  0  0  0  0  0  0  0  0  0  0
   58.1930   28.9970   46.9550 N   0  0  0  0  0  0  0  0  0  0  0  0
   57.7200   28.8820   45.7020 C   0  0  0  0  0  0  0  0  0  0  0  0
   57.0690   30.2060   44.7550 S   0  0  0  0  0  0  0  0  0  0  0  0
   55.5700   30.0930   44.7060 O   0  0  0  0  0  0  0  0  0  0  0  0
   57.6190   30.1180   43.3600 O   0  0  0  0  0  0  0  0  0  0  0  0
   57.5260   31.7260   45.4830 N   0  0  0  0  0  0  0  0  0  0  0  0
   57.3960   32.8140   44.4970 C   0  0  0  0  0  0  0  0  0  0  0  0
   57.5860   34.1820   45.1790 C   0  0  0  0  0  0  0  0  0  0  0  0
   58.4070   34.0850   46.4750 C   0  0  0  0  0  0  0  0  0  0  0  0
   59.4990   33.0200   46.3540 C   0  0  0  0  0  0  0  0  0  0  0  0
   58.9120   31.6370   45.9880 C   0  0  0  0  0  0  0  0  0  0  0  0
   57.7820   27.5640   45.3090 C   0  0  0  0  0  0  0  0  0  0  0  0
   54.6343   22.2823   48.8377 H   0  0  0  0  0  0  0  0  0  0  0  0
   55.0255   23.9408   48.2454 H   0  0  0  0  0  0  0  0  0  0  0  0
   56.0224   20.6409   45.4190 H   0  0  0  0  0  0  0  0  0  0  0  0
   57.1910   20.9750   43.2474 H   0  0  0  0  0  0  0  0  0  0  0  0
   57.1531   23.2034   42.1355 H   0  0  0  0  0  0  0  0  0  0  0  0
   55.9557   25.1087   43.1950 H   0  0  0  0  0  0  0  0  0  0  0  0
   56.5636   25.2036   47.3951 H   0  0  0  0  0  0  0  0  0  0  0  0
   58.0043   25.1289   48.4826 H   0  0  0  0  0  0  0  0  0  0  0  0
   59.5202   25.1693   46.6078 H   0  0  0  0  0  0  0  0  0  0  0  0
   58.1593   24.9720   45.4386 H   0  0  0  0  0  0  0  0  0  0  0  0
   58.9616   27.4843   48.2996 H   0  0  0  0  0  0  0  0  0  0  0  0
   58.2540   29.8630   47.5370 H   0  0  0  0  0  0  0  0  0  0  0  0
   58.1607   32.6889   43.7162 H   0  0  0  0  0  0  0  0  0  0  0  0
   56.3910   32.7738   44.0516 H   0  0  0  0  0  0  0  0  0  0  0  0
   58.1064   34.8547   44.4813 H   0  0  0  0  0  0  0  0  0  0  0  0
   56.5892   34.5651   45.4428 H   0  0  0  0  0  0  0  0  0  0  0  0
   58.8757   35.0593   46.6777 H   0  0  0  0  0  0  0  0  0  0  0  0
   57.7324   33.8034   47.2969 H   0  0  0  0  0  0  0  0  0  0  0  0
   60.2086   33.3246   45.5706 H   0  0  0  0  0  0  0  0  0  0  0  0
   60.0012   32.9320   47.3287 H   0  0  0  0  0  0  0  0  0  0  0  0
   59.5422   31.1809   45.2103 H   0  0  0  0  0  0  0  0  0  0  0  0
   58.8955   31.0280   46.9039 H   0  0  0  0  0  0  0  0  0  0  0  0
   57.4591   27.1593   44.3385 H   0  0  0  0  0  0  0  0  0  0  0  0
  1  2  2  0
  2  3  1  0
  3  4  1  0
  4  5  1  0
  5  6  2  0
  6  7  1  0
  7  8  2  0
  8  9  1  0
  9 10  2  0
 10 11  1  0
 11 12  2  0
 11 13  1  0
  2 14  1  0
 14 15  1  0
 15 16  1  0
 16 17  1  0
 17 18  1  0
 18 19  2  0
 19 20  1  0
 20 21  1  0
 21 22  2  0
 21 23  2  0
 21 24  1  0
 24 25  1  0
 25 26  1  0
 26 27  1  0
 27 28  1  0
 28 29  1  0
 20 30  2  0
 10  5  1  0
 30 17  1  0
 29 24  1  0
  3 31  1  0
  3 32  1  0
  6 33  1  0
  7 34  1  0
  8 35  1  0
  9 36  1  0
 15 37  1  0
 15 38  1  0
 16 39  1  0
 16 40  1  0
 18 41  1  0
 19 42  1  0
 25 43  1  0
 25 44  1  0
 26 45  1  0
 26 46  1  0
 27 47  1  0
 27 48  1  0
 28 49  1  0
 28 50  1  0
 29 51  1  0
 29 52  1  0
 30 53  1  0
M  CHG  4  11   1  13  -1  14  -1  19   1
M  END
>  <UniqueID>  (83) 
77

>  <SMILES>  (83) 
O=C(COc1ccccc1[N+](=O)[O-])[N-]CCn1c[nH+]c(S(=O)(=O)N2CCCCC2)c1

>  <Energy>  (83) 
83.62353679048033

>  <Genealogy>  (83) 
O=C(COc1ccccc1[N+](=O)[O-])[N-]CCn1c[nH+]c(S(=O)(=O)N2CCCCC2)c1 (protonated)
O=C(COc1ccccc1[N+](=O)[O-])[N-]CCn1c[nH+]c(S(=O)(=O)N2CCCCC2)c1 (3D coordinates assigned)
O=C(COc1ccccc1[N+](=O)[O-])[N-]CCn1c[nH+]c(S(=O)(=O)N2CCCCC2)c1 (nonaromatic ring conformer: 83.62353679048033 kcal/mol)

>  <smiles>  (83) 
O=C(COc1ccccc1[N+](=O)[O-])NCCn1cnc(S(=O)(=O)N2CCCCC2)c1

>  <score_type>  (83) 
oracle

>  <origin>  (83) 
adg

>  <m_score__min__energy>  (83) 
-9.3699999999999992

>  <m_primary>  (83) 
energy

$$$$
83:0
     RDKit          3D

 43 45  0  0  0  0  0  0  0  0999 V2000
   55.2660   24.1570   46.8600 O   0  0  0  0  0  0  0  0  0  0  0  0
   55.4490   24.8970   45.8570 C   0  0  0  0  0  0  0  0  0  0  0  0
   55.5980   24.2860   44.5020 C   0  0  0  0  0  0  0  0  0  0  0  0
   56.7290   23.3090   44.5090 C   0  0  0  0  0  0  0  0  0  0  0  0
   58.0950   23.4090   45.4860 S   0  0  0  0  0  0  0  0  0  0  0  0
   58.8890   22.0750   44.8330 C   0  0  0  0  0  0  0  0  0  0  0  0
   58.0930   21.5430   43.8250 C   0  0  0  0  0  0  0  0  0  0  0  0
   56.8930   22.2380   43.6400 C   0  0  0  0  0  0  0  0  0  0  0  0
   55.9850   21.9010   42.6910 F   0  0  0  0  0  0  0  0  0  0  0  0
   55.5110   26.3220   45.9960 N   0  0  0  0  0  0  0  0  0  0  0  0
   56.6980   27.1280   45.9750 C   0  0  0  0  0  0  0  0  0  0  0  0
   57.9650   26.6000   46.2830 C   0  0  0  0  0  0  0  0  0  0  0  0
   59.1000   27.4120   46.2130 C   0  0  0  0  0  0  0  0  0  0  0  0
   58.9870   28.7480   45.8230 C   0  0  0  0  0  0  0  0  0  0  0  0
   57.7320   29.2800   45.4980 C   0  0  0  0  0  0  0  0  0  0  0  0
   57.5730   30.9540   44.9670 S   0  0  0  0  0  0  0  0  0  0  0  0
   58.5100   31.1720   43.8120 O   0  0  0  0  0  0  0  0  0  0  0  0
   56.1680   31.2100   44.4940 O   0  0  0  0  0  0  0  0  0  0  0  0
   57.9870   32.0560   46.2650 N   0  0  0  0  0  0  0  0  0  0  0  0
   57.1810   33.2940   46.2240 C   0  0  0  0  0  0  0  0  0  0  0  0
   57.6030   34.2440   45.0880 C   0  0  0  0  0  0  0  0  0  0  0  0
   59.1290   34.3120   44.8920 C   0  0  0  0  0  0  0  0  0  0  0  0
   59.8850   33.7340   46.0870 C   0  0  0  0  0  0  0  0  0  0  0  0
   59.4530   32.2800   46.3540 C   0  0  0  0  0  0  0  0  0  0  0  0
   56.5940   28.4630   45.5640 C   0  0  0  0  0  0  0  0  0  0  0  0
   54.6674   23.7655   44.2318 H   0  0  0  0  0  0  0  0  0  0  0  0
   55.8064   25.0778   43.7674 H   0  0  0  0  0  0  0  0  0  0  0  0
   59.8697   21.6904   45.1499 H   0  0  0  0  0  0  0  0  0  0  0  0
   58.3786   20.6622   43.2312 H   0  0  0  0  0  0  0  0  0  0  0  0
   58.0625   25.5453   46.5797 H   0  0  0  0  0  0  0  0  0  0  0  0
   60.0867   26.9970   46.4662 H   0  0  0  0  0  0  0  0  0  0  0  0
   59.8836   29.3832   45.7709 H   0  0  0  0  0  0  0  0  0  0  0  0
   56.1251   33.0212   46.0799 H   0  0  0  0  0  0  0  0  0  0  0  0
   57.3398   33.8239   47.1748 H   0  0  0  0  0  0  0  0  0  0  0  0
   57.1451   33.8942   44.1510 H   0  0  0  0  0  0  0  0  0  0  0  0
   57.2624   35.2535   45.3615 H   0  0  0  0  0  0  0  0  0  0  0  0
   59.3974   33.7401   43.9915 H   0  0  0  0  0  0  0  0  0  0  0  0
   59.4120   35.3701   44.7900 H   0  0  0  0  0  0  0  0  0  0  0  0
   60.9644   33.7570   45.8766 H   0  0  0  0  0  0  0  0  0  0  0  0
   59.6561   34.3395   46.9763 H   0  0  0  0  0  0  0  0  0  0  0  0
   59.9468   31.6318   45.6151 H   0  0  0  0  0  0  0  0  0  0  0  0
   59.7470   32.0469   47.3880 H   0  0  0  0  0  0  0  0  0  0  0  0
   55.6111   28.8742   45.2906 H   0  0  0  0  0  0  0  0  0  0  0  0
  1  2  2  0
  2  3  1  0
  3  4  1  0
  4  5  1  0
  5  6  1  0
  6  7  2  0
  7  8  1  0
  8  9  1  0
  2 10  1  0
 10 11  1  0
 11 12  2  0
 12 13  1  0
 13 14  2  0
 14 15  1  0
 15 16  1  0
 16 17  2  0
 16 18  2  0
 16 19  1  0
 19 20  1  0
 20 21  1  0
 21 22  1  0
 22 23  1  0
 23 24  1  0
 15 25  2  0
  8  4  2  0
 25 11  1  0
 24 19  1  0
  3 26  1  0
  3 27  1  0
  6 28  1  0
  7 29  1  0
 12 30  1  0
 13 31  1  0
 14 32  1  0
 20 33  1  0
 20 34  1  0
 21 35  1  0
 21 36  1  0
 22 37  1  0
 22 38  1  0
 23 39  1  0
 23 40  1  0
 24 41  1  0
 24 42  1  0
 25 43  1  0
M  CHG  1  10  -1
M  END
>  <UniqueID>  (84) 
78

>  <SMILES>  (84) 
O=C(Cc1sccc1F)[N-]c1cccc(S(=O)(=O)N2CCCCC2)c1

>  <Energy>  (84) 
77.88320985213394

>  <Genealogy>  (84) 
O=C(Cc1sccc1F)[N-]c1cccc(S(=O)(=O)N2CCCCC2)c1 (protonated)
O=C(Cc1sccc1F)[N-]c1cccc(S(=O)(=O)N2CCCCC2)c1 (3D coordinates assigned)
O=C(Cc1sccc1F)[N-]c1cccc(S(=O)(=O)N2CCCCC2)c1 (nonaromatic ring conformer: 77.88320985213394 kcal/mol)

>  <smiles>  (84) 
O=C(Cc1sccc1F)Nc1cccc(S(=O)(=O)N2CCCCC2)c1

>  <score_type>  (84) 
oracle

>  <origin>  (84) 
adg

>  <m_score__min__energy>  (84) 
-10.960000000000001

>  <m_primary>  (84) 
energy

$$$$
84:0
     RDKit          3D

 56 60  0  0  1  0  0  0  0  0999 V2000
   63.9520   33.0330   46.7220 C   0  0  0  0  0  0  0  0  0  0  0  0
   63.2650   33.1210   48.0080 N   0  0  0  0  0  0  0  0  0  0  0  0
   63.7960   32.8490   49.2140 C   0  0  0  0  0  0  0  0  0  0  0  0
   62.8220   33.0560   50.1390 N   0  0  0  0  0  0  0  0  0  0  0  0
   61.7030   33.4530   49.4980 C   0  0  0  0  0  0  0  0  0  0  0  0
   60.4230   33.8040   49.8830 C   0  0  0  0  0  0  0  0  0  0  0  0
   60.1400   33.7730   51.1310 N   0  0  0  0  0  0  0  0  0  0  0  0
   59.5110   32.6990   51.8190 C   0  0  0  0  0  0  0  0  0  0  0  0
   58.1030   33.0620   52.3430 C   0  0  0  0  0  0  0  0  0  0  0  0
   58.2030   32.2110   51.1320 C   0  0  0  0  0  0  0  0  0  0  0  0
   59.4710   34.1700   49.0270 N   0  0  0  0  0  0  0  0  0  0  0  0
   59.7790   34.1990   47.7170 C   0  0  0  0  0  0  0  0  0  0  0  0
   58.9250   34.5400   46.8290 N   0  0  0  0  0  0  0  0  0  0  0  0
   58.8010   34.0460   45.5040 C   0  0  0  0  0  0  0  0  0  0  0  0
   58.4740   32.5970   45.4400 C   0  0  0  0  0  0  0  0  0  0  0  0
   57.3180   32.1300   44.8000 C   0  0  0  0  0  0  0  0  0  0  0  0
   57.0040   30.8010   44.7310 C   0  0  0  0  0  0  0  0  0  0  0  0
   57.8170   29.8540   45.2940 C   0  0  0  0  0  0  0  0  0  0  0  0
   57.5390   28.4190   45.2570 C   0  0  0  0  0  0  0  0  0  0  0  0
   57.0210   27.8660   44.2290 O   0  0  0  0  0  0  0  0  0  0  0  0
   57.8190   27.5520   46.3450 N   0  0  0  0  0  0  0  0  0  0  0  0
   57.5200   26.1610   46.2380 C   0  0  0  0  0  0  0  0  0  0  0  0
   58.5110   25.1900   46.2960 C   0  0  0  0  0  0  0  0  0  0  0  0
   58.1640   23.8460   46.1870 C   0  0  0  0  0  0  0  0  0  0  0  0
   56.8380   23.4550   46.0190 C   0  0  0  0  0  0  0  0  0  0  0  0
   55.8620   24.4260   45.9620 C   0  0  0  0  0  0  0  0  0  0  0  0
   56.2150   25.7600   46.0720 C   0  0  0  0  0  0  0  0  0  0  0  0
   55.1590   26.7230   46.0060 N   0  0  0  0  0  0  0  0  0  0  0  0
   58.9560   30.2760   45.9290 C   0  0  0  0  0  0  0  0  0  0  0  0
   59.2720   31.6190   45.9970 C   0  0  0  0  0  0  0  0  0  0  0  0
   61.0130   33.8680   47.2860 N   0  0  0  0  0  0  0  0  0  0  0  0
   61.9780   33.4960   48.1450 C   0  0  0  0  0  0  0  0  0  0  0  0
   65.0301   32.8949   46.8909 H   0  0  0  0  0  0  0  0  0  0  0  0
   63.5575   32.1780   46.1533 H   0  0  0  0  0  0  0  0  0  0  0  0
   63.7857   33.9598   46.1533 H   0  0  0  0  0  0  0  0  0  0  0  0
   64.8265   32.5203   49.4140 H   0  0  0  0  0  0  0  0  0  0  0  0
   60.4191   32.2299   52.2256 H   0  0  0  0  0  0  0  0  0  0  0  0
   57.7438   32.6264   53.2871 H   0  0  0  0  0  0  0  0  0  0  0  0
   57.5914   34.0074   52.5762 H   0  0  0  0  0  0  0  0  0  0  0  0
   57.9207   31.1491   51.1848 H   0  0  0  0  0  0  0  0  0  0  0  0
   57.7989   32.2720   50.1107 H   0  0  0  0  0  0  0  0  0  0  0  0
   58.5400   34.4200   49.3650 H   0  0  0  0  0  0  0  0  0  0  0  0
   58.0016   34.6062   44.9968 H   0  0  0  0  0  0  0  0  0  0  0  0
   59.7778   34.1794   45.0160 H   0  0  0  0  0  0  0  0  0  0  0  0
   56.6381   32.8596   44.3360 H   0  0  0  0  0  0  0  0  0  0  0  0
   56.0842   30.4879   44.2153 H   0  0  0  0  0  0  0  0  0  0  0  0
   58.2360   27.9190   47.2130 H   0  0  0  0  0  0  0  0  0  0  0  0
   59.5637   25.4808   46.4273 H   0  0  0  0  0  0  0  0  0  0  0  0
   58.9514   23.0793   46.2344 H   0  0  0  0  0  0  0  0  0  0  0  0
   56.5746   22.3904   45.9334 H   0  0  0  0  0  0  0  0  0  0  0  0
   54.8074   24.1425   45.8297 H   0  0  0  0  0  0  0  0  0  0  0  0
   55.1400   27.4760   45.2640 H   0  0  0  0  0  0  0  0  0  0  0  0
   54.3750   26.6780   46.7230 H   0  0  0  0  0  0  0  0  0  0  0  0
   59.6267   29.5361   46.3902 H   0  0  0  0  0  0  0  0  0  0  0  0
   60.1946   31.9201   46.5148 H   0  0  0  0  0  0  0  0  0  0  0  0
   61.2400   33.8910   46.2920 H   0  0  0  0  0  0  0  0  0  0  0  0
  1  2  1  0
  2  3  1  0
  3  4  2  0
  4  5  1  0
  5  6  1  0
  6  7  2  0
  7  8  1  0
  8  9  1  0
  9 10  1  0
  6 11  1  0
 11 12  1  0
 12 13  2  0
 13 14  1  0
 14 15  1  0
 15 16  2  0
 16 17  1  0
 17 18  2  0
 18 19  1  0
 19 20  2  0
 19 21  1  0
 21 22  1  0
 22 23  2  0
 23 24  1  0
 24 25  2  0
 25 26  1  0
 26 27  2  0
 27 28  1  0
 18 29  1  0
 29 30  2  0
 12 31  1  0
 31 32  1  0
 32  2  1  0
 32  5  2  0
 10  8  1  0
 30 15  1  0
 27 22  1  0
  1 33  1  0
  1 34  1  0
  1 35  1  0
  3 36  1  0
  8 37  1  0
  9 38  1  0
  9 39  1  0
 10 40  1  0
 10 41  1  0
 11 42  1  0
 14 43  1  0
 14 44  1  0
 16 45  1  0
 17 46  1  0
 21 47  1  0
 23 48  1  0
 24 49  1  0
 25 50  1  0
 26 51  1  0
 28 52  1  0
 28 53  1  0
 29 54  1  0
 30 55  1  0
 31 56  1  0
M  END
>  <smiles>  (85) 
Cn1cnc2c(=NC3CC3)[nH]c(=NCc3ccc(C(=O)Nc4ccccc4N)cc3)[nH]c21

>  <score_type>  (85) 
oracle

>  <origin>  (85) 
adg

>  <m_score__min__energy>  (85) 
-9.0600000000000005

>  <m_primary>  (85) 
energy

$$$$
85:0
     RDKit          3D

 31 32  0  0  0  0  0  0  0  0999 V2000
   56.2750   30.0750   42.5650 C   0  0  0  0  0  0  0  0  0  0  0  0
   56.6900   30.3280   44.2770 S   0  0  0  0  0  0  0  0  0  0  0  0
   56.0980   31.6160   44.7760 O   0  0  0  0  0  0  0  0  0  0  0  0
   58.1860   30.4030   44.4030 O   0  0  0  0  0  0  0  0  0  0  0  0
   56.1180   29.0000   45.2340 N   0  0  0  0  0  0  0  0  0  0  0  0
   56.8720   27.8310   45.5910 C   0  0  0  0  0  0  0  0  0  0  0  0
   58.2750   27.8020   45.5290 C   0  0  0  0  0  0  0  0  0  0  0  0
   58.9710   26.6420   45.8670 C   0  0  0  0  0  0  0  0  0  0  0  0
   58.2800   25.5030   46.2800 C   0  0  0  0  0  0  0  0  0  0  0  0
   56.8790   25.5130   46.3660 C   0  0  0  0  0  0  0  0  0  0  0  0
   56.1730   24.2910   46.8160 C   0  0  0  0  0  0  0  0  0  0  0  0
   56.7340   23.5230   47.6440 O   0  0  0  0  0  0  0  0  0  0  0  0
   54.8470   23.9920   46.3510 N   0  0  0  0  0  0  0  0  0  0  0  0
   54.2060   22.7040   46.5970 C   0  0  0  0  0  0  0  0  0  0  0  0
   52.9560   22.5890   45.7850 C   0  0  0  0  0  0  0  0  0  0  0  0
   52.2270   21.4610   45.6910 N   0  0  0  0  0  0  0  0  0  0  0  0
   51.2360   21.7180   44.8570 N   0  0  0  0  0  0  0  0  0  0  0  0
   51.4010   22.9930   44.4670 C   0  0  0  0  0  0  0  0  0  0  0  0
   50.6270   23.5730   43.6600 O   0  0  0  0  0  0  0  0  0  0  0  0
   52.4740   23.5880   45.0170 N   0  0  0  0  0  0  0  0  0  0  0  0
   56.1760   26.6800   45.9980 C   0  0  0  0  0  0  0  0  0  0  0  0
   54.7840   26.6980   46.0050 O   0  0  0  0  0  0  0  0  0  0  0  0
   55.3377   29.5036   42.4955 H   0  0  0  0  0  0  0  0  0  0  0  0
   56.1479   31.0494   42.0707 H   0  0  0  0  0  0  0  0  0  0  0  0
   57.0829   29.5157   42.0707 H   0  0  0  0  0  0  0  0  0  0  0  0
   58.8274   28.6989   45.2122 H   0  0  0  0  0  0  0  0  0  0  0  0
   60.0693   26.6251   45.8077 H   0  0  0  0  0  0  0  0  0  0  0  0
   58.8367   24.5906   46.5401 H   0  0  0  0  0  0  0  0  0  0  0  0
   54.2950   24.7330   45.8610 H   0  0  0  0  0  0  0  0  0  0  0  0
   54.8968   21.8946   46.3181 H   0  0  0  0  0  0  0  0  0  0  0  0
   53.9506   22.6269   47.6641 H   0  0  0  0  0  0  0  0  0  0  0  0
  1  2  1  0
  2  3  2  0
  2  4  2  0
  2  5  1  0
  5  6  1  0
  6  7  2  0
  7  8  1  0
  8  9  2  0
  9 10  1  0
 10 11  1  0
 11 12  2  0
 11 13  1  0
 13 14  1  0
 14 15  1  0
 15 16  2  0
 16 17  1  0
 17 18  1  0
 18 19  2  0
 18 20  1  0
 10 21  2  0
 21 22  1  0
 21  6  1  0
 20 15  1  0
  1 23  1  0
  1 24  1  0
  1 25  1  0
  7 26  1  0
  8 27  1  0
  9 28  1  0
 13 29  1  0
 14 30  1  0
 14 31  1  0
M  CHG  4   5  -1  17  -1  20  -1  22  -1
M  END
>  <UniqueID>  (86) 
79

>  <SMILES>  (86) 
CS(=O)(=O)[N-]c1cccc(C(=O)NCc2n[n-]c(=O)[n-]2)c1[O-]

>  <Energy>  (86) 
64.66064918398304

>  <Genealogy>  (86) 
CS(=O)(=O)[N-]c1cccc(C(=O)NCc2n[n-]c(=O)[n-]2)c1[O-] (protonated)
CS(=O)(=O)[N-]c1cccc(C(=O)NCc2n[n-]c(=O)[n-]2)c1[O-] (3D coordinates assigned)
CS(=O)(=O)[N-]c1cccc(C(=O)NCc2n[n-]c(=O)[n-]2)c1[O-] (optimized conformer: 64.66064918398304 kcal/mol)

>  <smiles>  (86) 
CS(=O)(=O)Nc1cccc(C(=O)NCc2n[nH]c(=O)[nH]2)c1O

>  <score_type>  (86) 
oracle

>  <origin>  (86) 
adg

>  <m_score__min__energy>  (86) 
-15.92

>  <m_primary>  (86) 
energy

$$$$
86:0
     RDKit          3D

 47 49  0  0  0  0  0  0  0  0999 V2000
   55.7090   30.8550   44.3240 O   0  0  0  0  0  0  0  0  0  0  0  0
   56.8050   30.2430   44.1940 C   0  0  0  0  0  0  0  0  0  0  0  0
   57.8890   30.8660   43.4850 N   0  0  0  0  0  0  0  0  0  0  0  0
   58.0640   32.3200   43.4820 C   0  0  0  0  0  0  0  0  0  0  0  0
   57.3360   32.9630   44.6720 C   0  0  0  0  0  0  0  0  0  0  0  0
   58.2990   33.3670   45.7610 C   0  0  0  0  0  0  0  0  0  0  0  0
   58.0300   33.0430   47.1000 C   0  0  0  0  0  0  0  0  0  0  0  0
   58.9910   33.2750   48.0860 C   0  0  0  0  0  0  0  0  0  0  0  0
   60.2310   33.8350   47.7540 C   0  0  0  0  0  0  0  0  0  0  0  0
   61.2080   34.0000   48.7890 N   0  0  0  0  0  0  0  0  0  0  0  0
   62.8550   33.4640   48.7080 S   0  0  0  0  0  0  0  0  0  0  0  0
   63.6810   34.2090   49.7180 O   0  0  0  0  0  0  0  0  0  0  0  0
   63.4090   33.6920   47.3300 O   0  0  0  0  0  0  0  0  0  0  0  0
   62.9100   31.7190   49.0670 C   0  0  0  0  0  0  0  0  0  0  0  0
   61.6980   31.0350   48.4970 C   0  0  0  0  0  0  0  0  0  0  0  0
   61.5550   30.8900   47.1070 C   0  0  0  0  0  0  0  0  0  0  0  0
   60.4080   30.2920   46.5760 C   0  0  0  0  0  0  0  0  0  0  0  0
   59.3910   29.8500   47.4260 C   0  0  0  0  0  0  0  0  0  0  0  0
   59.5210   30.0040   48.8080 C   0  0  0  0  0  0  0  0  0  0  0  0
   60.6690   30.5970   49.3450 C   0  0  0  0  0  0  0  0  0  0  0  0
   60.4860   34.1990   46.4200 C   0  0  0  0  0  0  0  0  0  0  0  0
   59.5290   33.9590   45.4310 C   0  0  0  0  0  0  0  0  0  0  0  0
   56.9780   28.9100   44.8100 C   0  0  0  0  0  0  0  0  0  0  0  0
   58.2420   28.3110   44.9000 C   0  0  0  0  0  0  0  0  0  0  0  0
   58.3570   27.0380   45.4560 C   0  0  0  0  0  0  0  0  0  0  0  0
   57.2080   26.3870   45.9040 C   0  0  0  0  0  0  0  0  0  0  0  0
   57.2840   25.2350   46.4060 O   0  0  0  0  0  0  0  0  0  0  0  0
   56.0040   27.0030   45.7900 N   0  0  0  0  0  0  0  0  0  0  0  0
   55.8930   28.2230   45.2600 N   0  0  0  0  0  0  0  0  0  0  0  0
   58.6970   30.2840   43.1740 H   0  0  0  0  0  0  0  0  0  0  0  0
   59.1369   32.5536   43.5475 H   0  0  0  0  0  0  0  0  0  0  0  0
   57.6388   32.7229   42.5510 H   0  0  0  0  0  0  0  0  0  0  0  0
   56.7989   33.8565   44.3212 H   0  0  0  0  0  0  0  0  0  0  0  0
   56.6374   32.2223   45.0884 H   0  0  0  0  0  0  0  0  0  0  0  0
   57.0588   32.6048   47.3735 H   0  0  0  0  0  0  0  0  0  0  0  0
   58.7723   33.0157   49.1324 H   0  0  0  0  0  0  0  0  0  0  0  0
   63.8165   31.2843   48.6207 H   0  0  0  0  0  0  0  0  0  0  0  0
   62.9240   31.5764   50.1576 H   0  0  0  0  0  0  0  0  0  0  0  0
   62.3480   31.2481   46.4341 H   0  0  0  0  0  0  0  0  0  0  0  0
   60.3062   30.1694   45.4876 H   0  0  0  0  0  0  0  0  0  0  0  0
   58.4885   29.3810   47.0070 H   0  0  0  0  0  0  0  0  0  0  0  0
   58.7186   29.6581   49.4762 H   0  0  0  0  0  0  0  0  0  0  0  0
   60.7652   30.7201   50.4339 H   0  0  0  0  0  0  0  0  0  0  0  0
   61.4419   34.6741   46.1544 H   0  0  0  0  0  0  0  0  0  0  0  0
   59.7401   34.2354   44.3874 H   0  0  0  0  0  0  0  0  0  0  0  0
   59.1346   28.8404   44.5354 H   0  0  0  0  0  0  0  0  0  0  0  0
   59.3409   26.5534   45.5403 H   0  0  0  0  0  0  0  0  0  0  0  0
  1  2  2  0
  2  3  1  0
  3  4  1  0
  4  5  1  0
  5  6  1  0
  6  7  2  0
  7  8  1  0
  8  9  2  0
  9 10  1  0
 10 11  1  0
 11 12  2  0
 11 13  2  0
 11 14  1  0
 14 15  1  0
 15 16  2  0
 16 17  1  0
 17 18  2  0
 18 19  1  0
 19 20  2  0
  9 21  1  0
 21 22  2  0
  2 23  1  0
 23 24  1  0
 24 25  2  0
 25 26  1  0
 26 27  2  0
 26 28  1  0
 28 29  1  0
 22  6  1  0
 29 23  2  0
 20 15  1  0
  3 30  1  0
  4 31  1  0
  4 32  1  0
  5 33  1  0
  5 34  1  0
  7 35  1  0
  8 36  1  0
 14 37  1  0
 14 38  1  0
 16 39  1  0
 17 40  1  0
 18 41  1  0
 19 42  1  0
 20 43  1  0
 21 44  1  0
 22 45  1  0
 24 46  1  0
 25 47  1  0
M  CHG  2  10  -1  28  -1
M  END
>  <UniqueID>  (87) 
80

>  <SMILES>  (87) 
O=C(NCCc1ccc([N-]S(=O)(=O)Cc2ccccc2)cc1)c1ccc(=O)[n-]n1

>  <Energy>  (87) 
42.17090148273787

>  <Genealogy>  (87) 
O=C(NCCc1ccc([N-]S(=O)(=O)Cc2ccccc2)cc1)c1ccc(=O)[n-]n1 (protonated)
O=C(NCCc1ccc([N-]S(=O)(=O)Cc2ccccc2)cc1)c1ccc(=O)[n-]n1 (3D coordinates assigned)
O=C(NCCc1ccc([N-]S(=O)(=O)Cc2ccccc2)cc1)c1ccc(=O)[n-]n1 (optimized conformer: 42.17090148273787 kcal/mol)

>  <smiles>  (87) 
O=C(NCCc1ccc(NS(=O)(=O)Cc2ccccc2)cc1)c1ccc(=O)[nH]n1

>  <score_type>  (87) 
oracle

>  <origin>  (87) 
adg

>  <m_score__min__energy>  (87) 
-12.210000000000001

>  <m_primary>  (87) 
energy

$$$$
87:0
     RDKit          3D

 51 54  0  0  0  0  0  0  0  0999 V2000
   56.9040   28.2440   45.0740 C   0  0  0  0  0  0  0  0  0  0  0  0
   57.8310   27.5000   45.6980 C   0  0  0  0  0  0  0  0  0  0  0  0
   57.9160   26.0970   45.7230 C   0  0  0  0  0  0  0  0  0  0  0  0
   57.2640   25.1590   45.0110 C   0  0  0  0  0  0  0  0  0  0  0  0
   55.9240   24.6320   45.3110 C   0  0  0  0  0  0  0  0  0  0  0  0
   55.5500   23.3660   45.0580 N   0  0  0  0  0  0  0  0  0  0  0  0
   54.2340   23.3630   45.3630 C   0  0  0  0  0  0  0  0  0  0  0  0
   53.5200   22.3310   45.2690 O   0  0  0  0  0  0  0  0  0  0  0  0
   53.7410   24.5540   45.7660 N   0  0  0  0  0  0  0  0  0  0  0  0
   54.8200   25.3500   45.7120 C   0  0  0  0  0  0  0  0  0  0  0  0
   54.7890   26.7110   45.9970 O   0  0  0  0  0  0  0  0  0  0  0  0
   58.8690   25.7850   46.6800 C   0  0  0  0  0  0  0  0  0  0  0  0
   59.3770   26.9810   47.1450 C   0  0  0  0  0  0  0  0  0  0  0  0
   60.4430   27.1050   48.1910 C   0  0  0  0  0  0  0  0  0  0  0  0
   58.7500   28.0210   46.5510 N   0  0  0  0  0  0  0  0  0  0  0  0
   58.9930   29.4130   46.8230 C   0  0  0  0  0  0  0  0  0  0  0  0
   59.2800   30.2960   45.7740 C   0  0  0  0  0  0  0  0  0  0  0  0
   59.5130   31.6480   46.0340 C   0  0  0  0  0  0  0  0  0  0  0  0
   59.4540   32.1420   47.3490 C   0  0  0  0  0  0  0  0  0  0  0  0
   59.7130   33.5830   47.6070 C   0  0  0  0  0  0  0  0  0  0  0  0
   58.7320   34.3770   47.6390 O   0  0  0  0  0  0  0  0  0  0  0  0
   61.0620   34.0970   47.7630 N   0  0  0  0  0  0  0  0  0  0  0  0
   61.6740   33.5810   49.0220 C   0  0  0  0  0  0  0  0  0  0  0  0
   62.6690   32.4390   48.7760 C   0  0  0  0  0  0  0  0  0  0  0  0
   63.8150   32.8910   47.8540 C   0  0  0  0  0  0  0  0  0  0  0  0
   63.3690   33.9470   46.8240 C   0  0  0  0  0  0  0  0  0  0  0  0
   61.8670   33.8350   46.5390 C   0  0  0  0  0  0  0  0  0  0  0  0
   59.1770   31.2500   48.4000 C   0  0  0  0  0  0  0  0  0  0  0  0
   58.9440   29.8960   48.1390 C   0  0  0  0  0  0  0  0  0  0  0  0
   58.6660   29.0550   49.1670 F   0  0  0  0  0  0  0  0  0  0  0  0
   56.9494   29.3415   45.1319 H   0  0  0  0  0  0  0  0  0  0  0  0
   56.0991   27.7561   44.5048 H   0  0  0  0  0  0  0  0  0  0  0  0
   57.7780   24.7512   44.1281 H   0  0  0  0  0  0  0  0  0  0  0  0
   59.1640   24.7768   47.0064 H   0  0  0  0  0  0  0  0  0  0  0  0
   59.9848   27.0517   49.1896 H   0  0  0  0  0  0  0  0  0  0  0  0
   61.1671   26.2850   48.0756 H   0  0  0  0  0  0  0  0  0  0  0  0
   60.9596   28.0693   48.0756 H   0  0  0  0  0  0  0  0  0  0  0  0
   59.3220   29.9224   44.7402 H   0  0  0  0  0  0  0  0  0  0  0  0
   59.7444   32.3316   45.2039 H   0  0  0  0  0  0  0  0  0  0  0  0
   61.0110   35.1400   47.8450 H   0  0  0  0  0  0  0  0  0  0  0  0
   62.2033   34.4070   49.5195 H   0  0  0  0  0  0  0  0  0  0  0  0
   60.8606   33.1823   49.6460 H   0  0  0  0  0  0  0  0  0  0  0  0
   63.0896   32.1153   49.7395 H   0  0  0  0  0  0  0  0  0  0  0  0
   62.1352   31.6098   48.2887 H   0  0  0  0  0  0  0  0  0  0  0  0
   64.6164   33.3201   48.4733 H   0  0  0  0  0  0  0  0  0  0  0  0
   64.1602   32.0081   47.2961 H   0  0  0  0  0  0  0  0  0  0  0  0
   63.5864   34.9500   47.2198 H   0  0  0  0  0  0  0  0  0  0  0  0
   63.9178   33.7760   45.8861 H   0  0  0  0  0  0  0  0  0  0  0  0
   61.5934   34.5689   45.7666 H   0  0  0  0  0  0  0  0  0  0  0  0
   61.6545   32.8114   46.1969 H   0  0  0  0  0  0  0  0  0  0  0  0
   59.1433   31.6200   49.4354 H   0  0  0  0  0  0  0  0  0  0  0  0
  1  2  2  0
  2  3  1  0
  3  4  2  3
  4  5  1  0
  5  6  1  0
  6  7  1  0
  7  8  2  0
  7  9  1  0
  9 10  1  0
 10 11  1  0
  3 12  1  0
 12 13  2  0
 13 14  1  0
 13 15  1  0
 15 16  1  0
 16 17  2  0
 17 18  1  0
 18 19  2  0
 19 20  1  0
 20 21  2  0
 20 22  1  0
 22 23  1  0
 23 24  1  0
 24 25  1  0
 25 26  1  0
 26 27  1  0
 19 28  1  0
 28 29  2  0
 29 30  1  0
 15  2  1  0
 29 16  1  0
 10  5  2  0
 27 22  1  0
  1 31  1  0
  1 32  1  0
  4 33  1  0
 12 34  1  0
 14 35  1  0
 14 36  1  0
 14 37  1  0
 17 38  1  0
 18 39  1  0
 22 40  1  0
 23 41  1  0
 23 42  1  0
 24 43  1  0
 24 44  1  0
 25 45  1  0
 25 46  1  0
 26 47  1  0
 26 48  1  0
 27 49  1  0
 27 50  1  0
 28 51  1  0
M  CHG  4   6  -1   9  -1  11  -1  22   1
M  END
>  <UniqueID>  (88) 
81

>  <SMILES>  (88) 
C=c1c(=Cc2[n-]c(=O)[n-]c2[O-])cc(C)n1-c1ccc(C(=O)[NH+]2CCCCC2)cc1F

>  <Energy>  (88) 
141.8686456225905

>  <Genealogy>  (88) 
C=c1c(=Cc2[n-]c(=O)[n-]c2[O-])cc(C)n1-c1ccc(C(=O)[NH+]2CCCCC2)cc1F (protonated)
C=c1c(=Cc2[n-]c(=O)[n-]c2[O-])cc(C)n1-c1ccc(C(=O)[NH+]2CCCCC2)cc1F (3D coordinates assigned)
C=c1c(=Cc2[n-]c(=O)[n-]c2[O-])cc(C)n1-c1ccc(C(=O)[NH+]2CCCCC2)cc1F (nonaromatic ring conformer: 141.8686456225905 kcal/mol)

>  <smiles>  (88) 
C=c1c(=Cc2[nH]c(=O)[nH]c2O)cc(C)n1-c1ccc(C(=O)N2CCCCC2)cc1F

>  <score_type>  (88) 
oracle

>  <origin>  (88) 
adg

>  <m_score__min__energy>  (88) 
-14.949999999999999

>  <m_primary>  (88) 
energy

$$$$
88:0
     RDKit          3D

 52 54  0  0  0  0  0  0  0  0999 V2000
   57.7970   30.3720   46.4580 O   0  0  0  0  0  0  0  0  0  0  0  0
   58.8560   30.0150   45.8740 C   0  0  0  0  0  0  0  0  0  0  0  0
   58.7840   29.3730   44.5210 C   0  0  0  0  0  0  0  0  0  0  0  0
   59.3270   27.9370   44.5410 C   0  0  0  0  0  0  0  0  0  0  0  0
   58.3780   26.9780   45.2210 C   0  0  0  0  0  0  0  0  0  0  0  0
   58.8710   25.8270   45.8550 C   0  0  0  0  0  0  0  0  0  0  0  0
   58.0000   24.9690   46.5330 C   0  0  0  0  0  0  0  0  0  0  0  0
   56.6300   25.2500   46.5870 C   0  0  0  0  0  0  0  0  0  0  0  0
   55.7850   24.3820   47.2760 O   0  0  0  0  0  0  0  0  0  0  0  0
   56.1310   26.3990   45.9520 C   0  0  0  0  0  0  0  0  0  0  0  0
   54.7740   26.6980   46.0000 O   0  0  0  0  0  0  0  0  0  0  0  0
   57.0020   27.2570   45.2710 C   0  0  0  0  0  0  0  0  0  0  0  0
   60.1270   30.1810   46.5110 N   0  0  0  0  0  0  0  0  0  0  0  0
   60.3920   31.2080   47.5120 C   0  0  0  0  0  0  0  0  0  0  0  0
   61.4060   32.2150   46.9670 C   0  0  0  0  0  0  0  0  0  0  0  0
   62.3480   32.6760   48.0480 C   0  0  0  0  0  0  0  0  0  0  0  0
   63.4830   31.9070   48.3570 C   0  0  0  0  0  0  0  0  0  0  0  0
   64.3530   32.3100   49.3710 C   0  0  0  0  0  0  0  0  0  0  0  0
   64.1040   33.4850   50.0810 C   0  0  0  0  0  0  0  0  0  0  0  0
   62.9880   34.2660   49.7750 C   0  0  0  0  0  0  0  0  0  0  0  0
   62.1030   33.8750   48.7490 C   0  0  0  0  0  0  0  0  0  0  0  0
   60.9820   34.6470   48.3980 O   0  0  0  0  0  0  0  0  0  0  0  0
   59.6210   34.2660   48.5970 C   0  0  0  0  0  0  0  0  0  0  0  0
   58.9100   34.1660   47.2760 C   0  0  0  0  0  0  0  0  0  0  0  0
   57.7000   33.4620   47.1610 C   0  0  0  0  0  0  0  0  0  0  0  0
   57.0570   33.3670   45.9230 C   0  0  0  0  0  0  0  0  0  0  0  0
   57.6150   33.9750   44.7950 C   0  0  0  0  0  0  0  0  0  0  0  0
   58.8170   34.6810   44.9020 C   0  0  0  0  0  0  0  0  0  0  0  0
   59.4630   34.7780   46.1380 C   0  0  0  0  0  0  0  0  0  0  0  0
   57.7345   29.3521   44.1923 H   0  0  0  0  0  0  0  0  0  0  0  0
   59.4035   29.9629   43.8295 H   0  0  0  0  0  0  0  0  0  0  0  0
   59.4855   27.6036   43.5048 H   0  0  0  0  0  0  0  0  0  0  0  0
   60.2691   27.9398   45.1089 H   0  0  0  0  0  0  0  0  0  0  0  0
   59.9465   25.5992   45.8183 H   0  0  0  0  0  0  0  0  0  0  0  0
   58.3936   24.0682   47.0267 H   0  0  0  0  0  0  0  0  0  0  0  0
   54.7790   24.4920   47.2670 H   0  0  0  0  0  0  0  0  0  0  0  0
   56.6072   28.1545   44.7723 H   0  0  0  0  0  0  0  0  0  0  0  0
   59.4549   31.7296   47.7566 H   0  0  0  0  0  0  0  0  0  0  0  0
   60.8009   30.7353   48.4172 H   0  0  0  0  0  0  0  0  0  0  0  0
   61.9871   31.7401   46.1628 H   0  0  0  0  0  0  0  0  0  0  0  0
   60.8588   33.0893   46.5846 H   0  0  0  0  0  0  0  0  0  0  0  0
   63.6867   30.9826   47.7967 H   0  0  0  0  0  0  0  0  0  0  0  0
   65.2366   31.7003   49.6109 H   0  0  0  0  0  0  0  0  0  0  0  0
   64.7885   33.7967   50.8837 H   0  0  0  0  0  0  0  0  0  0  0  0
   62.7978   35.1919   50.3376 H   0  0  0  0  0  0  0  0  0  0  0  0
   59.5874   33.2895   49.1023 H   0  0  0  0  0  0  0  0  0  0  0  0
   59.1226   35.0269   49.2155 H   0  0  0  0  0  0  0  0  0  0  0  0
   57.2571   32.9841   48.0473 H   0  0  0  0  0  0  0  0  0  0  0  0
   56.1106   32.8130   45.8367 H   0  0  0  0  0  0  0  0  0  0  0  0
   57.1079   33.8980   43.8219 H   0  0  0  0  0  0  0  0  0  0  0  0
   59.2544   35.1601   44.0137 H   0  0  0  0  0  0  0  0  0  0  0  0
   60.4077   35.3354   46.2202 H   0  0  0  0  0  0  0  0  0  0  0  0
  1  2  2  0
  2  3  1  0
  3  4  1  0
  4  5  1  0
  5  6  2  0
  6  7  1  0
  7  8  2  0
  8  9  1  0
  8 10  1  0
 10 11  1  0
 10 12  2  0
  2 13  1  0
 13 14  1  0
 14 15  1  0
 15 16  1  0
 16 17  2  0
 17 18  1  0
 18 19  2  0
 19 20  1  0
 20 21  2  0
 21 22  1  0
 22 23  1  0
 23 24  1  0
 24 25  2  0
 25 26  1  0
 26 27  2  0
 27 28  1  0
 28 29  2  0
 12  5  1  0
 21 16  1  0
 29 24  1  0
  3 30  1  0
  3 31  1  0
  4 32  1  0
  4 33  1  0
  6 34  1  0
  7 35  1  0
  9 36  1  0
 12 37  1  0
 14 38  1  0
 14 39  1  0
 15 40  1  0
 15 41  1  0
 17 42  1  0
 18 43  1  0
 19 44  1  0
 20 45  1  0
 23 46  1  0
 23 47  1  0
 25 48  1  0
 26 49  1  0
 27 50  1  0
 28 51  1  0
 29 52  1  0
M  CHG  2  11  -1  13  -1
M  END
>  <UniqueID>  (89) 
82

>  <SMILES>  (89) 
O=C(CCc1ccc(O)c([O-])c1)[N-]CCc1ccccc1OCc1ccccc1

>  <Energy>  (89) 
43.738379442421426

>  <Genealogy>  (89) 
O=C(CCc1ccc(O)c([O-])c1)[N-]CCc1ccccc1OCc1ccccc1 (protonated)
O=C(CCc1ccc(O)c([O-])c1)[N-]CCc1ccccc1OCc1ccccc1 (3D coordinates assigned)
O=C(CCc1ccc(O)c([O-])c1)[N-]CCc1ccccc1OCc1ccccc1 (optimized conformer: 43.738379442421426 kcal/mol)

>  <smiles>  (89) 
O=C(CCc1ccc(O)c(O)c1)NCCc1ccccc1OCc1ccccc1

>  <score_type>  (89) 
oracle

>  <origin>  (89) 
adg

>  <m_score__min__energy>  (89) 
-13.92

>  <m_primary>  (89) 
energy

$$$$
89:0
     RDKit          3D

 65 68  0  0  0  0  0  0  0  0999 V2000
   66.2280   32.5620   50.0830 C   0  0  0  0  0  0  0  0  0  0  0  0
   64.7830   32.5420   49.8050 N   0  0  0  0  0  0  0  0  0  0  0  0
   64.5010   33.1370   48.4920 C   0  0  0  0  0  0  0  0  0  0  0  0
   63.0220   32.9100   48.1190 C   0  0  0  0  0  0  0  0  0  0  0  0
   62.1180   32.8690   49.2930 N   0  0  0  0  0  0  0  0  0  0  0  0
   61.7260   31.2260   49.7660 S   0  0  0  0  0  0  0  0  0  0  0  0
   60.9820   31.2210   51.0750 O   0  0  0  0  0  0  0  0  0  0  0  0
   62.9750   30.4010   49.9210 O   0  0  0  0  0  0  0  0  0  0  0  0
   60.6960   30.5090   48.5310 C   0  0  0  0  0  0  0  0  0  0  0  0
   60.7360   30.9740   47.2100 C   0  0  0  0  0  0  0  0  0  0  0  0
   59.8920   30.4200   46.2430 C   0  0  0  0  0  0  0  0  0  0  0  0
   59.0050   29.3870   46.5860 C   0  0  0  0  0  0  0  0  0  0  0  0
   58.0700   28.8330   45.5870 C   0  0  0  0  0  0  0  0  0  0  0  0
   58.5260   28.1260   44.6500 O   0  0  0  0  0  0  0  0  0  0  0  0
   56.6600   29.0830   45.6380 N   0  0  0  0  0  0  0  0  0  0  0  0
   55.8850   29.6940   44.5630 C   0  0  0  0  0  0  0  0  0  0  0  0
   56.6460   30.8640   44.0140 C   0  0  0  0  0  0  0  0  0  0  0  0
   57.0150   30.8930   42.6600 C   0  0  0  0  0  0  0  0  0  0  0  0
   57.7680   31.9580   42.1590 C   0  0  0  0  0  0  0  0  0  0  0  0
   58.1670   32.9950   43.0060 C   0  0  0  0  0  0  0  0  0  0  0  0
   57.8120   32.9770   44.3630 C   0  0  0  0  0  0  0  0  0  0  0  0
   58.2930   34.0680   45.2790 C   0  0  0  0  0  0  0  0  0  0  0  0
   58.1330   33.6570   46.6730 N   0  0  0  0  0  0  0  0  0  0  0  0
   59.1880   33.7890   47.6380 C   0  0  0  0  0  0  0  0  0  0  0  0
   60.3070   34.2490   47.2740 O   0  0  0  0  0  0  0  0  0  0  0  0
   58.9870   33.4160   49.0620 C   0  0  0  0  0  0  0  0  0  0  0  0
   58.2050   32.3010   49.4250 C   0  0  0  0  0  0  0  0  0  0  0  0
   58.0190   31.9760   50.7730 C   0  0  0  0  0  0  0  0  0  0  0  0
   58.6110   32.7540   51.7710 C   0  0  0  0  0  0  0  0  0  0  0  0
   59.4020   33.8520   51.4240 C   0  0  0  0  0  0  0  0  0  0  0  0
   59.5940   34.1800   50.0780 C   0  0  0  0  0  0  0  0  0  0  0  0
   57.0610   31.9020   44.8650 C   0  0  0  0  0  0  0  0  0  0  0  0
   58.9540   28.9370   47.9140 C   0  0  0  0  0  0  0  0  0  0  0  0
   59.8000   29.4920   48.8790 C   0  0  0  0  0  0  0  0  0  0  0  0
   62.6210   33.6670   50.4260 C   0  0  0  0  0  0  0  0  0  0  0  0
   64.0350   33.2350   50.8770 C   0  0  0  0  0  0  0  0  0  0  0  0
   66.3921   32.5643   51.1707 H   0  0  0  0  0  0  0  0  0  0  0  0
   66.6984   31.6703   49.6431 H   0  0  0  0  0  0  0  0  0  0  0  0
   66.6735   33.4664   49.6431 H   0  0  0  0  0  0  0  0  0  0  0  0
   64.7060   34.2171   48.5295 H   0  0  0  0  0  0  0  0  0  0  0  0
   65.1422   32.6627   47.7345 H   0  0  0  0  0  0  0  0  0  0  0  0
   62.6993   33.7287   47.4590 H   0  0  0  0  0  0  0  0  0  0  0  0
   62.9585   31.9287   47.6261 H   0  0  0  0  0  0  0  0  0  0  0  0
   61.4339   31.7778   46.9328 H   0  0  0  0  0  0  0  0  0  0  0  0
   59.9229   30.7948   45.2093 H   0  0  0  0  0  0  0  0  0  0  0  0
   55.7171   28.9562   43.7646 H   0  0  0  0  0  0  0  0  0  0  0  0
   54.9138   30.0331   44.9525 H   0  0  0  0  0  0  0  0  0  0  0  0
   56.7103   30.0746   41.9911 H   0  0  0  0  0  0  0  0  0  0  0  0
   58.0473   31.9800   41.0953 H   0  0  0  0  0  0  0  0  0  0  0  0
   58.7623   33.8295   42.6069 H   0  0  0  0  0  0  0  0  0  0  0  0
   59.3555   34.2701   45.0784 H   0  0  0  0  0  0  0  0  0  0  0  0
   57.7002   34.9772   45.1002 H   0  0  0  0  0  0  0  0  0  0  0  0
   57.1690   33.4090   46.9870 H   0  0  0  0  0  0  0  0  0  0  0  0
   57.7383   31.6828   48.6440 H   0  0  0  0  0  0  0  0  0  0  0  0
   57.4050   31.1056   51.0478 H   0  0  0  0  0  0  0  0  0  0  0  0
   58.4543   32.5020   52.8302 H   0  0  0  0  0  0  0  0  0  0  0  0
   59.8743   34.4592   52.2102 H   0  0  0  0  0  0  0  0  0  0  0  0
   60.2239   35.0413   49.8107 H   0  0  0  0  0  0  0  0  0  0  0  0
   56.7957   31.8723   45.9321 H   0  0  0  0  0  0  0  0  0  0  0  0
   58.2457   28.1445   48.1971 H   0  0  0  0  0  0  0  0  0  0  0  0
   59.7611   29.1276   49.9162 H   0  0  0  0  0  0  0  0  0  0  0  0
   62.6552   34.7243   50.1244 H   0  0  0  0  0  0  0  0  0  0  0  0
   61.9383   33.5085   51.2738 H   0  0  0  0  0  0  0  0  0  0  0  0
   64.5983   34.1304   51.1785 H   0  0  0  0  0  0  0  0  0  0  0  0
   63.9190   32.5304   51.7137 H   0  0  0  0  0  0  0  0  0  0  0  0
  1  2  1  0
  2  3  1  0
  3  4  1  0
  4  5  1  0
  5  6  1  0
  6  7  2  0
  6  8  2  0
  6  9  1  0
  9 10  2  0
 10 11  1  0
 11 12  2  0
 12 13  1  0
 13 14  2  0
 13 15  1  0
 15 16  1  0
 16 17  1  0
 17 18  2  0
 18 19  1  0
 19 20  2  0
 20 21  1  0
 21 22  1  0
 22 23  1  0
 23 24  1  0
 24 25  2  0
 24 26  1  0
 26 27  2  0
 27 28  1  0
 28 29  2  0
 29 30  1  0
 30 31  2  0
 21 32  2  0
 12 33  1  0
 33 34  2  0
  5 35  1  0
 35 36  1  0
 36  2  1  0
 34  9  1  0
 32 17  1  0
 31 26  1  0
  1 37  1  0
  1 38  1  0
  1 39  1  0
  3 40  1  0
  3 41  1  0
  4 42  1  0
  4 43  1  0
 10 44  1  0
 11 45  1  0
 16 46  1  0
 16 47  1  0
 18 48  1  0
 19 49  1  0
 20 50  1  0
 22 51  1  0
 22 52  1  0
 23 53  1  0
 27 54  1  0
 28 55  1  0
 29 56  1  0
 30 57  1  0
 31 58  1  0
 32 59  1  0
 33 60  1  0
 34 61  1  0
 35 62  1  0
 35 63  1  0
 36 64  1  0
 36 65  1  0
M  CHG  1  15  -1
M  END
>  <UniqueID>  (90) 
83

>  <SMILES>  (90) 
CN1CCN(S(=O)(=O)c2ccc(C(=O)[N-]Cc3cccc(CNC(=O)c4ccccc4)c3)cc2)CC1

>  <Energy>  (90) 
81.45940530820727

>  <Genealogy>  (90) 
CN1CCN(S(=O)(=O)c2ccc(C(=O)[N-]Cc3cccc(CNC(=O)c4ccccc4)c3)cc2)CC1 (protonated)
CN1CCN(S(=O)(=O)c2ccc(C(=O)[N-]Cc3cccc(CNC(=O)c4ccccc4)c3)cc2)CC1 (3D coordinates assigned)
CN1CCN(S(=O)(=O)c2ccc(C(=O)[N-]Cc3cccc(CNC(=O)c4ccccc4)c3)cc2)CC1 (nonaromatic ring conformer: 81.45940530820727 kcal/mol)

>  <smiles>  (90) 
CN1CCN(S(=O)(=O)c2ccc(C(=O)NCc3cccc(CNC(=O)c4ccccc4)c3)cc2)CC1

>  <score_type>  (90) 
oracle

>  <origin>  (90) 
adg

>  <m_score__min__energy>  (90) 
-11.550000000000001

>  <m_primary>  (90) 
energy

$$$$
90:0
     RDKit          3D

 53 56  0  0  0  0  0  0  0  0999 V2000
   57.3280   34.5290   44.8910 C   0  0  0  0  0  0  0  0  0  0  0  0
   57.8100   33.3240   45.5610 N   0  0  0  0  0  0  0  0  0  0  0  0
   58.6890   33.3920   46.5500 N   0  0  0  0  0  0  0  0  0  0  0  0
   58.8440   32.1530   47.0580 C   0  0  0  0  0  0  0  0  0  0  0  0
   59.7400   31.8420   48.1790 C   0  0  0  0  0  0  0  0  0  0  0  0
   60.9810   32.0400   48.0640 O   0  0  0  0  0  0  0  0  0  0  0  0
   59.1780   31.3180   49.3930 N   0  0  0  0  0  0  0  0  0  0  0  0
   58.8010   31.9910   50.4440 C   0  0  0  0  0  0  0  0  0  0  0  0
   59.2790   33.2460   50.6880 N   0  0  0  0  0  0  0  0  0  0  0  0
   58.8970   33.9640   51.7780 C   0  0  0  0  0  0  0  0  0  0  0  0
   57.9850   33.4210   52.6870 C   0  0  0  0  0  0  0  0  0  0  0  0
   57.4790   32.1390   52.4640 C   0  0  0  0  0  0  0  0  0  0  0  0
   57.8860   31.4170   51.3400 C   0  0  0  0  0  0  0  0  0  0  0  0
   57.3770   30.1410   51.1160 O   0  0  0  0  0  0  0  0  0  0  0  0
   58.0320   31.2590   46.3850 C   0  0  0  0  0  0  0  0  0  0  0  0
   57.4110   32.0310   45.4260 C   0  0  0  0  0  0  0  0  0  0  0  0
   56.5510   31.5450   44.5720 N   0  0  0  0  0  0  0  0  0  0  0  0
   56.2970   30.1780   44.2220 C   0  0  0  0  0  0  0  0  0  0  0  0
   56.2770   29.8210   43.0160 O   0  0  0  0  0  0  0  0  0  0  0  0
   56.1310   29.1880   45.2390 N   0  0  0  0  0  0  0  0  0  0  0  0
   56.9940   28.0660   45.4780 C   0  0  0  0  0  0  0  0  0  0  0  0
   58.3860   28.1640   45.3060 C   0  0  0  0  0  0  0  0  0  0  0  0
   59.1960   27.0360   45.4460 C   0  0  0  0  0  0  0  0  0  0  0  0
   58.6260   25.7970   45.7440 C   0  0  0  0  0  0  0  0  0  0  0  0
   57.2370   25.6750   45.9070 C   0  0  0  0  0  0  0  0  0  0  0  0
   56.6480   24.3490   46.1830 C   0  0  0  0  0  0  0  0  0  0  0  0
   56.0620   24.1550   47.2790 O   0  0  0  0  0  0  0  0  0  0  0  0
   56.7170   23.2860   45.2140 N   0  0  0  0  0  0  0  0  0  0  0  0
   56.8120   23.5740   43.7790 C   0  0  0  0  0  0  0  0  0  0  0  0
   55.9500   22.5780   43.0000 C   0  0  0  0  0  0  0  0  0  0  0  0
   56.2810   21.2480   43.3510 O   0  0  0  0  0  0  0  0  0  0  0  0
   55.9530   21.0100   44.7090 C   0  0  0  0  0  0  0  0  0  0  0  0
   56.8030   21.8840   45.6380 C   0  0  0  0  0  0  0  0  0  0  0  0
   56.4220   26.8160   45.7750 C   0  0  0  0  0  0  0  0  0  0  0  0
   55.0410   26.7100   45.9130 O   0  0  0  0  0  0  0  0  0  0  0  0
   57.0303   35.2732   45.6443 H   0  0  0  0  0  0  0  0  0  0  0  0
   58.1292   34.9442   44.2620 H   0  0  0  0  0  0  0  0  0  0  0  0
   56.4614   34.2771   44.2620 H   0  0  0  0  0  0  0  0  0  0  0  0
   59.3057   34.9717   51.9440 H   0  0  0  0  0  0  0  0  0  0  0  0
   57.6691   33.9976   53.5689 H   0  0  0  0  0  0  0  0  0  0  0  0
   56.7614   31.6987   53.1720 H   0  0  0  0  0  0  0  0  0  0  0  0
   57.9097   30.1818   46.5713 H   0  0  0  0  0  0  0  0  0  0  0  0
   58.8394   29.1355   45.0596 H   0  0  0  0  0  0  0  0  0  0  0  0
   60.2854   27.1234   45.3213 H   0  0  0  0  0  0  0  0  0  0  0  0
   59.2690   24.9111   45.8517 H   0  0  0  0  0  0  0  0  0  0  0  0
   56.4556   24.5966   43.5860 H   0  0  0  0  0  0  0  0  0  0  0  0
   57.8595   23.4833   43.4557 H   0  0  0  0  0  0  0  0  0  0  0  0
   54.8901   22.7594   43.2317 H   0  0  0  0  0  0  0  0  0  0  0  0
   56.1348   22.7162   41.9245 H   0  0  0  0  0  0  0  0  0  0  0  0
   54.8898   21.2424   44.8688 H   0  0  0  0  0  0  0  0  0  0  0  0
   56.1540   19.9533   44.9392 H   0  0  0  0  0  0  0  0  0  0  0  0
   56.4315   21.7904   46.6691 H   0  0  0  0  0  0  0  0  0  0  0  0
   57.8510   21.5531   45.5913 H   0  0  0  0  0  0  0  0  0  0  0  0
  1  2  1  0
  2  3  1  0
  3  4  1  0
  4  5  1  0
  5  6  2  0
  5  7  1  0
  7  8  2  3
  8  9  1  0
  9 10  1  0
 10 11  2  0
 11 12  1  0
 12 13  2  0
 13 14  1  0
  4 15  2  0
 15 16  1  0
 16 17  2  3
 17 18  1  0
 18 19  2  0
 18 20  1  0
 20 21  1  0
 21 22  2  0
 22 23  1  0
 23 24  2  0
 24 25  1  0
 25 26  1  0
 26 27  2  0
 26 28  1  0
 28 29  1  0
 29 30  1  0
 30 31  1  0
 31 32  1  0
 32 33  1  0
 25 34  2  0
 34 35  1  0
 16  2  1  0
 34 21  1  0
 13  8  1  0
 33 28  1  0
  1 36  1  0
  1 37  1  0
  1 38  1  0
 10 39  1  0
 11 40  1  0
 12 41  1  0
 15 42  1  0
 22 43  1  0
 23 44  1  0
 24 45  1  0
 29 46  1  0
 29 47  1  0
 30 48  1  0
 30 49  1  0
 32 50  1  0
 32 51  1  0
 33 52  1  0
 33 53  1  0
M  CHG  5   3  -1   9  -1  14  -1  20  -1  35  -1
M  END
>  <UniqueID>  (91) 
84

>  <SMILES>  (91) 
Cn1[n-]c(C(=O)N=c2[n-]cccc2[O-])cc1=NC(=O)[N-]c1cccc(C(=O)N2CCOCC2)c1[O-]

>  <Energy>  (91) 
114.37822852756587

>  <Genealogy>  (91) 
Cn1[n-]c(C(=O)N=c2[n-]cccc2[O-])cc1=NC(=O)[N-]c1cccc(C(=O)N2CCOCC2)c1[O-] (protonated)
Cn1[n-]c(C(=O)N=c2[n-]cccc2[O-])cc1=NC(=O)[N-]c1cccc(C(=O)N2CCOCC2)c1[O-] (3D coordinates assigned)
Cn1[n-]c(C(=O)N=c2[n-]cccc2[O-])cc1=NC(=O)[N-]c1cccc(C(=O)N2CCOCC2)c1[O-] (nonaromatic ring conformer: 114.37822852756587 kcal/mol)

>  <smiles>  (91) 
Cn1[nH]c(C(=O)N=c2[nH]cccc2O)cc1=NC(=O)Nc1cccc(C(=O)N2CCOCC2)c1O

>  <score_type>  (91) 
oracle

>  <origin>  (91) 
adg

>  <m_score__min__energy>  (91) 
-18.25

>  <m_primary>  (91) 
energy

$$$$
