0:0
     RDKit          3D

 23 24  0  0  0  0  0  0  0  0999 V2000
   51.7660   26.0680   52.9490 C   0  0  0  0  0  0  0  0  0  0  0  0
   52.3850   27.1520   53.8350 C   0  0  0  0  0  0  0  0  0  0  0  0
   53.3750   27.9670   53.1120 N   0  0  0  0  0  0  0  0  0  0  0  0
   52.7930   29.1890   52.6120 C   0  0  0  0  0  0  0  0  0  0  0  0
   53.2590   29.7570   51.3940 C   0  0  0  0  0  0  0  0  0  0  0  0
   52.7130   30.9580   50.9020 C   0  0  0  0  0  0  0  0  0  0  0  0
   51.7080   31.5640   51.6500 C   0  0  0  0  0  0  0  0  0  0  0  0
   51.0500   32.7040   51.3790 N   0  0  0  0  0  0  0  0  0  0  0  0
   50.1810   32.8990   52.3680 N   0  0  0  0  0  0  0  0  0  0  0  0
   50.2870   31.8890   53.2630 C   0  0  0  0  0  0  0  0  0  0  0  0
   51.2580   31.0270   52.8180 C   0  0  0  0  0  0  0  0  0  0  0  0
   51.7680   29.8430   53.3400 C   0  0  0  0  0  0  0  0  0  0  0  0
   51.3201   25.2871   53.5825 H   0  0  0  0  0  0  0  0  0  0  0  0
   50.9866   26.5144   52.3139 H   0  0  0  0  0  0  0  0  0  0  0  0
   52.5465   25.6236   52.3139 H   0  0  0  0  0  0  0  0  0  0  0  0
   51.5833   27.8108   54.2001 H   0  0  0  0  0  0  0  0  0  0  0  0
   52.9037   26.6516   54.6660 H   0  0  0  0  0  0  0  0  0  0  0  0
   54.1530   28.2090   53.7690 H   0  0  0  0  0  0  0  0  0  0  0  0
   53.7950   27.4100   52.3310 H   0  0  0  0  0  0  0  0  0  0  0  0
   54.0562   29.2515   50.8292 H   0  0  0  0  0  0  0  0  0  0  0  0
   53.0681   31.4014   49.9601 H   0  0  0  0  0  0  0  0  0  0  0  0
   49.6980   31.7784   54.1855 H   0  0  0  0  0  0  0  0  0  0  0  0
   51.3887   29.4284   54.2856 H   0  0  0  0  0  0  0  0  0  0  0  0
  1  2  1  0
  2  3  1  0
  3  4  1  0
  4  5  2  0
  5  6  1  0
  6  7  2  0
  7  8  1  0
  8  9  1  0
  9 10  2  0
 10 11  1  0
 11 12  2  0
 12  4  1  0
 11  7  1  0
  1 13  1  0
  1 14  1  0
  1 15  1  0
  2 16  1  0
  2 17  1  0
  3 18  1  0
  3 19  1  0
  5 20  1  0
  6 21  1  0
 10 22  1  0
 12 23  1  0
M  CHG  2   3   1   8  -1
M  END
>  <UniqueID>  (1) 
1

>  <SMILES>  (1) 
CC[NH2+]c1ccc2[n-]ncc2c1

>  <Energy>  (1) 
59.804435119097135

>  <Genealogy>  (1) 
CC[NH2+]c1ccc2[n-]ncc2c1 (protonated)
CC[NH2+]c1ccc2[n-]ncc2c1 (3D coordinates assigned)
CC[NH2+]c1ccc2[n-]ncc2c1 (optimized conformer: 59.804435119097135 kcal/mol)

>  <smiles>  (1) 
CCNc1ccc2[nH]ncc2c1

>  <score_type>  (1) 
oracle

>  <origin>  (1) 
adg

>  <m_score__min__energy>  (1) 
-6.8399999999999999

>  <m_primary>  (1) 
energy

$$$$
1:0
     RDKit          3D

 46 49  0  0  1  0  0  0  0  0999 V2000
   59.3100   30.5300   48.7400 O   0  0  0  0  0  0  0  0  0  0  0  0
   60.3510   29.8630   48.6360 C   0  0  0  0  0  0  0  0  0  0  0  0
   61.3480   29.9570   49.7330 C   0  0  0  0  0  0  0  0  0  0  0  0
   62.2770   31.0310   49.4360 C   0  0  0  0  0  0  0  0  0  0  0  0
   63.0900   31.8280   50.1790 C   0  0  0  0  0  0  0  0  0  0  0  0
   63.8450   32.7550   49.5890 C   0  0  0  0  0  0  0  0  0  0  0  0
   63.8030   32.9100   48.2340 C   0  0  0  0  0  0  0  0  0  0  0  0
   62.5540   31.5970   47.7060 S   0  0  0  0  0  0  0  0  0  0  0  0
   60.5530   29.0510   47.4990 N   0  0  0  0  0  0  0  0  0  0  0  0
   59.6820   28.8900   46.4120 C   0  0  0  0  0  0  0  0  0  0  0  0
   59.5330   27.7880   45.6260 C   0  0  0  0  0  0  0  0  0  0  0  0
   58.6660   27.6700   44.5670 C   0  0  0  0  0  0  0  0  0  0  0  0
   57.8730   28.7310   44.2510 C   0  0  0  0  0  0  0  0  0  0  0  0
   57.0300   28.5920   43.2100 N   0  0  0  0  0  0  0  0  0  0  0  0
   56.2450   29.6310   42.8910 C   0  0  0  0  0  0  0  0  0  0  0  0
   56.3030   30.7670   43.5910 N   0  0  0  0  0  0  0  0  0  0  0  0
   57.1520   30.9110   44.6420 C   0  0  0  0  0  0  0  0  0  0  0  0
   57.1580   31.9850   45.2490 N   0  0  0  0  0  0  0  0  0  0  0  0
   58.0980   32.9320   45.5080 C   0  0  0  0  0  0  0  0  0  0  0  0
   58.2820   34.0920   44.7100 C   0  0  0  0  0  0  0  0  0  0  0  0
   59.1790   35.0640   45.1050 C   0  0  0  0  0  0  0  0  0  0  0  0
   59.9130   34.9460   46.2650 C   0  0  0  0  0  0  0  0  0  0  0  0
   59.7450   33.8160   47.0570 C   0  0  0  0  0  0  0  0  0  0  0  0
   60.4850   33.7020   48.2210 O   0  0  0  0  0  0  0  0  0  0  0  0
   59.8930   33.9720   49.4800 C   0  0  0  0  0  0  0  0  0  0  0  0
   60.8450   33.8960   50.4580 F   0  0  0  0  0  0  0  0  0  0  0  0
   58.8910   33.0400   49.6840 F   0  0  0  0  0  0  0  0  0  0  0  0
   59.2700   35.2150   49.4480 F   0  0  0  0  0  0  0  0  0  0  0  0
   58.8580   32.8160   46.7020 C   0  0  0  0  0  0  0  0  0  0  0  0
   57.9700   29.8830   45.0060 C   0  0  0  0  0  0  0  0  0  0  0  0
   58.8440   29.9750   46.0580 C   0  0  0  0  0  0  0  0  0  0  0  0
   60.8332   30.1666   50.6823 H   0  0  0  0  0  0  0  0  0  0  0  0
   61.8946   29.0065   49.8210 H   0  0  0  0  0  0  0  0  0  0  0  0
   63.1250   31.7075   51.2718 H   0  0  0  0  0  0  0  0  0  0  0  0
   64.5025   33.3955   50.1952 H   0  0  0  0  0  0  0  0  0  0  0  0
   64.3584   33.6223   47.6061 H   0  0  0  0  0  0  0  0  0  0  0  0
   61.4840   28.5200   47.5140 H   0  0  0  0  0  0  0  0  0  0  0  0
   60.1618   26.9162   45.8595 H   0  0  0  0  0  0  0  0  0  0  0  0
   58.6134   26.7374   43.9861 H   0  0  0  0  0  0  0  0  0  0  0  0
   56.9680   27.7210   42.6510 H   0  0  0  0  0  0  0  0  0  0  0  0
   55.5468   29.5471   42.0451 H   0  0  0  0  0  0  0  0  0  0  0  0
   57.7105   34.2159   43.7783 H   0  0  0  0  0  0  0  0  0  0  0  0
   59.3114   35.9571   44.4766 H   0  0  0  0  0  0  0  0  0  0  0  0
   60.6213   35.7342   46.5600 H   0  0  0  0  0  0  0  0  0  0  0  0
   58.7412   31.9308   47.3445 H   0  0  0  0  0  0  0  0  0  0  0  0
   58.8952   30.9085   46.6376 H   0  0  0  0  0  0  0  0  0  0  0  0
  1  2  2  0
  2  3  1  0
  3  4  1  0
  4  5  2  0
  5  6  1  0
  6  7  2  0
  7  8  1  0
  2  9  1  0
  9 10  1  0
 10 11  2  0
 11 12  1  0
 12 13  2  0
 13 14  1  0
 14 15  1  0
 15 16  2  0
 16 17  1  0
 17 18  2  0
 18 19  1  0
 19 20  2  0
 20 21  1  0
 21 22  2  0
 22 23  1  0
 23 24  1  0
 24 25  1  0
 25 26  1  0
 25 27  1  0
 25 28  1  0
 23 29  2  0
 17 30  1  0
 30 31  2  0
  8  4  1  0
 31 10  1  0
 30 13  1  0
 29 19  1  0
  3 32  1  0
  3 33  1  0
  5 34  1  0
  6 35  1  0
  7 36  1  0
  9 37  1  0
 11 38  1  0
 12 39  1  0
 14 40  1  0
 15 41  1  0
 20 42  1  0
 21 43  1  0
 22 44  1  0
 29 45  1  0
 31 46  1  0
M  END
>  <smiles>  (2) 
O=C(Cc1cccs1)Nc1ccc2[nH]cnc(=Nc3cccc(OC(F)(F)F)c3)c2c1

>  <score_type>  (2) 
oracle

>  <origin>  (2) 
adg

>  <m_score__min__energy>  (2) 
-8.5500000000000007

>  <m_primary>  (2) 
energy

$$$$
2:0
     RDKit          3D

 51 53  0  0  0  0  0  0  0  0999 V2000
   54.3900   26.7140   46.7980 H   0  0  0  0  0  0  0  0  0  0  0  0
   55.0980   26.6320   46.0780 O   0  0  0  0  0  0  0  0  0  0  0  0
   56.2250   25.8340   46.2710 C   0  0  0  0  0  0  0  0  0  0  0  0
   56.0750   24.5830   46.7810 N   0  0  0  0  0  0  0  0  0  0  0  0
   57.1510   23.7880   47.0260 C   0  0  0  0  0  0  0  0  0  0  0  0
   56.9860   22.6400   47.5150 O   0  0  0  0  0  0  0  0  0  0  0  0
   58.4020   24.2300   46.7330 N   0  0  0  0  0  0  0  0  0  0  0  0
   58.6060   25.4630   46.2010 C   0  0  0  0  0  0  0  0  0  0  0  0
   59.7840   25.8310   45.9340 O   0  0  0  0  0  0  0  0  0  0  0  0
   57.5120   26.3170   45.9580 C   0  0  0  0  0  0  0  0  0  0  0  0
   57.7130   27.7410   45.4850 C   0  0  0  0  0  0  0  0  0  0  0  0
   56.7537   28.1469   45.1315 H   0  0  0  0  0  0  0  0  0  0  0  0
   58.4453   27.7505   44.6642 H   0  0  0  0  0  0  0  0  0  0  0  0
   58.2270   28.5890   46.6190 C   0  0  0  0  0  0  0  0  0  0  0  0
   58.5920   27.9970   47.8360 C   0  0  0  0  0  0  0  0  0  0  0  0
   58.4327   26.9194   47.9892 H   0  0  0  0  0  0  0  0  0  0  0  0
   59.1560   28.7660   48.8540 C   0  0  0  0  0  0  0  0  0  0  0  0
   59.4202   28.2953   49.8124 H   0  0  0  0  0  0  0  0  0  0  0  0
   59.3890   30.1410   48.6620 C   0  0  0  0  0  0  0  0  0  0  0  0
   59.9740   30.9430   49.6560 O   0  0  0  0  0  0  0  0  0  0  0  0
   59.2920   31.9690   50.3700 C   0  0  0  0  0  0  0  0  0  0  0  0
   59.4043   31.8001   51.4511 H   0  0  0  0  0  0  0  0  0  0  0  0
   59.7204   32.9469   50.1052 H   0  0  0  0  0  0  0  0  0  0  0  0
   58.2245   31.9525   50.1052 H   0  0  0  0  0  0  0  0  0  0  0  0
   59.0470   30.7370   47.4400 C   0  0  0  0  0  0  0  0  0  0  0  0
   59.3300   32.1020   47.2660 O   0  0  0  0  0  0  0  0  0  0  0  0
   60.6290   32.6720   47.0790 C   0  0  0  0  0  0  0  0  0  0  0  0
   61.3333   32.1970   47.7778 H   0  0  0  0  0  0  0  0  0  0  0  0
   60.9391   32.4983   46.0380 H   0  0  0  0  0  0  0  0  0  0  0  0
   60.6130   34.1880   47.3360 C   0  0  0  0  0  0  0  0  0  0  0  0
   60.3115   34.3651   48.3789 H   0  0  0  0  0  0  0  0  0  0  0  0
   61.6247   34.5701   47.1350 H   0  0  0  0  0  0  0  0  0  0  0  0
   59.6410   34.9360   46.4090 C   0  0  0  0  0  0  0  0  0  0  0  0
   58.7000   35.1121   46.9508 H   0  0  0  0  0  0  0  0  0  0  0  0
   60.1177   35.8826   46.1144 H   0  0  0  0  0  0  0  0  0  0  0  0
   59.3330   34.1450   45.1270 C   0  0  0  0  0  0  0  0  0  0  0  0
   59.4630   34.8060   44.2574 H   0  0  0  0  0  0  0  0  0  0  0  0
   60.0230   33.2902   45.0704 H   0  0  0  0  0  0  0  0  0  0  0  0
   57.9580   33.6330   45.1380 N   0  0  0  0  0  0  0  0  0  0  0  0
   57.5130   32.6550   44.4020 C   0  0  0  0  0  0  0  0  0  0  0  0
   56.7010   31.6890   44.9250 N   0  0  0  0  0  0  0  0  0  0  0  0
   56.2310   30.6560   44.1690 C   0  0  0  0  0  0  0  0  0  0  0  0
   55.5810   29.8940   44.6238 H   0  0  0  0  0  0  0  0  0  0  0  0
   56.5740   30.5640   42.8170 C   0  0  0  0  0  0  0  0  0  0  0  0
   56.1964   29.7341   42.2016 H   0  0  0  0  0  0  0  0  0  0  0  0
   57.4020   31.5390   42.2580 C   0  0  0  0  0  0  0  0  0  0  0  0
   57.6808   31.4810   41.1955 H   0  0  0  0  0  0  0  0  0  0  0  0
   57.8770   32.5900   43.0500 C   0  0  0  0  0  0  0  0  0  0  0  0
   58.5313   33.3597   42.6148 H   0  0  0  0  0  0  0  0  0  0  0  0
   58.4340   29.9630   46.4340 C   0  0  0  0  0  0  0  0  0  0  0  0
   58.1154   30.4412   45.4960 H   0  0  0  0  0  0  0  0  0  0  0  0
  1  2  1  0
  2  3  1  0
  3  4  1  0
  4  5  1  0
  5  6  2  0
  5  7  1  0
  7  8  1  0
  8  9  2  0
  8 10  1  0
 10 11  1  0
 11 12  1  0
 11 13  1  0
 11 14  1  0
 14 15  2  0
 15 16  1  0
 15 17  1  0
 17 18  1  0
 17 19  2  0
 19 20  1  0
 20 21  1  0
 21 22  1  0
 21 23  1  0
 21 24  1  0
 19 25  1  0
 25 26  1  0
 26 27  1  0
 27 28  1  0
 27 29  1  0
 27 30  1  0
 30 31  1  0
 30 32  1  0
 30 33  1  0
 33 34  1  0
 33 35  1  0
 33 36  1  0
 36 37  1  0
 36 38  1  0
 36 39  1  0
 39 40  2  0
 40 41  1  0
 41 42  1  0
 42 43  1  0
 42 44  2  0
 44 45  1  0
 44 46  1  0
 46 47  1  0
 46 48  2  0
 48 49  1  0
 25 50  2  0
 50 51  1  0
 10  3  2  0
 50 14  1  0
 48 40  1  0
M  CHG  3   4  -1   7  -1  41  -1
M  END
>  <UniqueID>  (3) 
2

>  <SMILES>  (3) 
COc1ccc(Cc2c(O)[n-]c(=O)[n-]c2=O)cc1OCCCC/N=c1/cccc[n-]1

>  <Energy>  (3) 
46.551901332676145

>  <Genealogy>  (3) 
COc1ccc(Cc2c(O)[n-]c(=O)[n-]c2=O)cc1OCCCCN=c1cccc[n-]1 (protonated)
COc1ccc(Cc2c(O)[n-]c(=O)[n-]c2=O)cc1OCCCC/N=c1/cccc[n-]1 (cis-trans isomerization)
COc1ccc(Cc2c(O)[n-]c(=O)[n-]c2=O)cc1OCCCC/N=c1/cccc[n-]1 (3D coordinates assigned)
COc1ccc(Cc2c(O)[n-]c(=O)[n-]c2=O)cc1OCCCC/N=c1/cccc[n-]1 (optimized conformer: 46.551901332676145 kcal/mol)

>  <smiles>  (3) 
COc1ccc(Cc2c(O)[nH]c(=O)[nH]c2=O)cc1OCCCCN=c1cccc[nH]1

>  <score_type>  (3) 
oracle

>  <origin>  (3) 
adg

>  <m_score__min__energy>  (3) 
-13.390000000000001

>  <m_primary>  (3) 
energy

$$$$
3:0
     RDKit          3D

 43 44  0  0  0  0  0  0  0  0999 V2000
   58.1720   34.1880   45.2570 C   0  0  0  0  0  0  0  0  0  0  0  0
   56.9880   33.2480   45.4690 C   0  0  0  0  0  0  0  0  0  0  0  0
   57.4230   31.8380   45.3440 N   0  0  0  0  0  0  0  0  0  0  0  0
   56.8920   31.2280   44.1060 C   0  0  0  0  0  0  0  0  0  0  0  0
   56.5500   29.7870   44.3470 C   0  0  0  0  0  0  0  0  0  0  0  0
   55.4400   29.4930   44.8670 O   0  0  0  0  0  0  0  0  0  0  0  0
   57.4620   28.7530   43.9470 N   0  0  0  0  0  0  0  0  0  0  0  0
   57.4580   27.4270   44.5020 C   0  0  0  0  0  0  0  0  0  0  0  0
   57.0450   27.2360   45.8270 C   0  0  0  0  0  0  0  0  0  0  0  0
   56.9840   25.9510   46.3710 C   0  0  0  0  0  0  0  0  0  0  0  0
   57.3280   24.8350   45.5950 C   0  0  0  0  0  0  0  0  0  0  0  0
   57.2300   23.4600   46.1830 C   0  0  0  0  0  0  0  0  0  0  0  0
   57.7200   25.0190   44.2610 C   0  0  0  0  0  0  0  0  0  0  0  0
   57.7840   26.3060   43.7150 C   0  0  0  0  0  0  0  0  0  0  0  0
   58.8990   31.7300   45.3900 C   0  0  0  0  0  0  0  0  0  0  0  0
   59.2990   30.4250   46.0250 C   0  0  0  0  0  0  0  0  0  0  0  0
   60.0540   29.4940   45.2930 C   0  0  0  0  0  0  0  0  0  0  0  0
   60.4120   28.2700   45.8650 C   0  0  0  0  0  0  0  0  0  0  0  0
   60.0180   27.9670   47.1720 C   0  0  0  0  0  0  0  0  0  0  0  0
   59.2690   28.8880   47.9080 C   0  0  0  0  0  0  0  0  0  0  0  0
   58.8890   28.5930   49.1750 F   0  0  0  0  0  0  0  0  0  0  0  0
   58.9060   30.1130   47.3390 C   0  0  0  0  0  0  0  0  0  0  0  0
   58.5692   34.5033   46.2331 H   0  0  0  0  0  0  0  0  0  0  0  0
   58.9584   33.6656   44.6926 H   0  0  0  0  0  0  0  0  0  0  0  0
   57.8415   35.0724   44.6926 H   0  0  0  0  0  0  0  0  0  0  0  0
   56.5702   33.4113   46.4734 H   0  0  0  0  0  0  0  0  0  0  0  0
   56.2244   33.4561   44.7051 H   0  0  0  0  0  0  0  0  0  0  0  0
   55.9870   31.7693   43.7928 H   0  0  0  0  0  0  0  0  0  0  0  0
   57.6566   31.2896   43.3176 H   0  0  0  0  0  0  0  0  0  0  0  0
   58.1480   28.9690   43.1890 H   0  0  0  0  0  0  0  0  0  0  0  0
   56.7669   28.1038   46.4431 H   0  0  0  0  0  0  0  0  0  0  0  0
   56.6642   25.8137   47.4145 H   0  0  0  0  0  0  0  0  0  0  0  0
   57.2350   23.5295   47.2808 H   0  0  0  0  0  0  0  0  0  0  0  0
   56.2957   22.9845   45.8499 H   0  0  0  0  0  0  0  0  0  0  0  0
   58.0874   22.8568   45.8499 H   0  0  0  0  0  0  0  0  0  0  0  0
   57.9783   24.1478   43.6411 H   0  0  0  0  0  0  0  0  0  0  0  0
   58.0901   26.4422   42.6673 H   0  0  0  0  0  0  0  0  0  0  0  0
   59.2999   31.7754   44.3666 H   0  0  0  0  0  0  0  0  0  0  0  0
   59.3040   32.5612   45.9859 H   0  0  0  0  0  0  0  0  0  0  0  0
   60.3651   29.7293   44.2645 H   0  0  0  0  0  0  0  0  0  0  0  0
   61.0038   27.5450   45.2869 H   0  0  0  0  0  0  0  0  0  0  0  0
   60.2981   27.0026   47.6209 H   0  0  0  0  0  0  0  0  0  0  0  0
   58.3121   30.8338   47.9202 H   0  0  0  0  0  0  0  0  0  0  0  0
  1  2  1  0
  2  3  1  0
  3  4  1  0
  4  5  1  0
  5  6  2  0
  5  7  1  0
  7  8  1  0
  8  9  2  0
  9 10  1  0
 10 11  2  0
 11 12  1  0
 11 13  1  0
 13 14  2  0
  3 15  1  0
 15 16  1  0
 16 17  2  0
 17 18  1  0
 18 19  2  0
 19 20  1  0
 20 21  1  0
 20 22  2  0
 14  8  1  0
 22 16  1  0
  1 23  1  0
  1 24  1  0
  1 25  1  0
  2 26  1  0
  2 27  1  0
  4 28  1  0
  4 29  1  0
  7 30  1  0
  9 31  1  0
 10 32  1  0
 12 33  1  0
 12 34  1  0
 12 35  1  0
 13 36  1  0
 14 37  1  0
 15 38  1  0
 15 39  1  0
 17 40  1  0
 18 41  1  0
 19 42  1  0
 22 43  1  0
M  END
>  <UniqueID>  (4) 
3

>  <SMILES>  (4) 
CCN(CC(=O)Nc1ccc(C)cc1)Cc1cccc(F)c1

>  <Energy>  (4) 
44.12715061501121

>  <Genealogy>  (4) 
CCN(CC(=O)Nc1ccc(C)cc1)Cc1cccc(F)c1 (3D coordinates assigned)
CCN(CC(=O)Nc1ccc(C)cc1)Cc1cccc(F)c1 (optimized conformer: 44.12715061501121 kcal/mol)

>  <smiles>  (4) 
CCN(CC(=O)Nc1ccc(C)cc1)Cc1cccc(F)c1

>  <score_type>  (4) 
oracle

>  <origin>  (4) 
adg

>  <m_score__min__energy>  (4) 
-6.8499999999999996

>  <m_primary>  (4) 
energy

$$$$
4:0
     RDKit          3D

 72 76  0  0  0  0  0  0  0  0999 V2000
   62.1330   26.2970   51.5710 C   0  0  0  0  0  0  0  0  0  0  0  0
   61.1310   26.3430   50.5630 O   0  0  0  0  0  0  0  0  0  0  0  0
   60.8180   27.5130   49.8630 C   0  0  0  0  0  0  0  0  0  0  0  0
   61.1740   27.6370   48.6610 O   0  0  0  0  0  0  0  0  0  0  0  0
   60.0590   28.5960   50.5290 C   0  0  0  0  0  0  0  0  0  0  0  0
   59.3170   29.5180   49.7690 C   0  0  0  0  0  0  0  0  0  0  0  0
   58.5730   30.5190   50.3950 C   0  0  0  0  0  0  0  0  0  0  0  0
   58.5730   30.6370   51.7940 C   0  0  0  0  0  0  0  0  0  0  0  0
   57.7880   31.7440   52.4670 C   0  0  1  0  0  0  0  0  0  0  0  0
   56.5180   31.1920   53.1180 C   0  0  0  0  0  0  0  0  0  0  0  0
   58.6120   32.4170   53.4770 N   0  0  0  0  0  0  0  0  0  0  0  0
   59.7850   33.1950   53.1930 C   0  0  0  0  0  0  0  0  0  0  0  0
   60.4810   33.6220   54.1510 O   0  0  0  0  0  0  0  0  0  0  0  0
   60.2190   33.4620   51.8070 C   0  0  0  0  0  0  0  0  0  0  0  0
   59.2840   33.9090   50.8440 C   0  0  0  0  0  0  0  0  0  0  0  0
   59.6450   34.0070   49.4920 C   0  0  0  0  0  0  0  0  0  0  0  0
   60.9550   33.6780   49.1290 C   0  0  0  0  0  0  0  0  0  0  0  0
   61.8880   33.3300   50.0740 C   0  0  0  0  0  0  0  0  0  0  0  0
   61.5550   33.2120   51.4270 C   0  0  0  0  0  0  0  0  0  0  0  0
   63.0670   33.0630   49.4050 C   0  0  0  0  0  0  0  0  0  0  0  0
   64.3680   32.6040   49.9960 C   0  0  0  0  0  0  0  0  0  0  0  0
   62.7810   33.2430   48.0490 C   0  0  0  0  0  0  0  0  0  0  0  0
   63.7610   33.0470   46.9270 C   0  0  0  0  0  0  0  0  0  0  0  0
   61.4770   33.6000   47.8820 N   0  0  0  0  0  0  0  0  0  0  0  0
   60.7160   33.6220   46.6250 C   0  0  0  0  0  0  0  0  0  0  0  0
   60.0770   32.2740   46.3840 C   0  0  0  0  0  0  0  0  0  0  0  0
   58.6940   32.1690   46.1550 C   0  0  0  0  0  0  0  0  0  0  0  0
   58.0720   30.9170   46.1290 C   0  0  0  0  0  0  0  0  0  0  0  0
   58.8310   29.7500   46.2950 C   0  0  0  0  0  0  0  0  0  0  0  0
   58.1610   28.4340   46.3930 C   0  0  0  0  0  0  0  0  0  0  0  0
   58.7090   27.4850   47.2710 C   0  0  0  0  0  0  0  0  0  0  0  0
   58.1940   26.1910   47.3340 C   0  0  0  0  0  0  0  0  0  0  0  0
   57.1230   25.8250   46.5210 C   0  0  0  0  0  0  0  0  0  0  0  0
   56.5570   26.7590   45.6480 C   0  0  0  0  0  0  0  0  0  0  0  0
   57.0520   28.0760   45.5790 C   0  0  0  0  0  0  0  0  0  0  0  0
   56.3640   29.0490   44.6940 C   0  0  0  0  0  0  0  0  0  0  0  0
   55.1510   29.3350   44.8860 O   0  0  0  0  0  0  0  0  0  0  0  0
   57.0500   29.6940   43.6700 O   0  0  0  0  0  0  0  0  0  0  0  0
   60.2210   29.8490   46.4550 C   0  0  0  0  0  0  0  0  0  0  0  0
   60.8380   31.1010   46.5070 C   0  0  0  0  0  0  0  0  0  0  0  0
   59.3330   29.7330   52.5550 C   0  0  0  0  0  0  0  0  0  0  0  0
   60.0620   28.7150   51.9280 C   0  0  0  0  0  0  0  0  0  0  0  0
   61.6570   26.3189   52.5624 H   0  0  0  0  0  0  0  0  0  0  0  0
   62.7174   25.3711   51.4651 H   0  0  0  0  0  0  0  0  0  0  0  0
   62.7997   27.1655   51.4651 H   0  0  0  0  0  0  0  0  0  0  0  0
   59.3232   29.4494   48.6712 H   0  0  0  0  0  0  0  0  0  0  0  0
   57.9822   31.2207   49.7879 H   0  0  0  0  0  0  0  0  0  0  0  0
   57.5000   32.4731   51.6954 H   0  0  0  0  0  0  0  0  0  0  0  0
   56.6183   31.2356   54.2125 H   0  0  0  0  0  0  0  0  0  0  0  0
   55.6533   31.7955   52.8047 H   0  0  0  0  0  0  0  0  0  0  0  0
   56.3694   30.1481   52.8047 H   0  0  0  0  0  0  0  0  0  0  0  0
   58.2657   34.1819   51.1579 H   0  0  0  0  0  0  0  0  0  0  0  0
   58.9160   34.3344   48.7362 H   0  0  0  0  0  0  0  0  0  0  0  0
   62.3127   32.9323   52.1738 H   0  0  0  0  0  0  0  0  0  0  0  0
   64.3007   32.6277   51.0937 H   0  0  0  0  0  0  0  0  0  0  0  0
   64.5796   31.5769   49.6637 H   0  0  0  0  0  0  0  0  0  0  0  0
   65.1772   33.2709   49.6637 H   0  0  0  0  0  0  0  0  0  0  0  0
   64.7595   32.8473   47.3430 H   0  0  0  0  0  0  0  0  0  0  0  0
   63.4443   32.1944   46.3083 H   0  0  0  0  0  0  0  0  0  0  0  0
   63.7966   33.9558   46.3083 H   0  0  0  0  0  0  0  0  0  0  0  0
   59.9319   34.3909   46.6873 H   0  0  0  0  0  0  0  0  0  0  0  0
   61.3986   33.8518   45.7936 H   0  0  0  0  0  0  0  0  0  0  0  0
   58.0966   33.0787   45.9950 H   0  0  0  0  0  0  0  0  0  0  0  0
   56.9846   30.8475   45.9780 H   0  0  0  0  0  0  0  0  0  0  0  0
   59.5543   27.7658   47.9165 H   0  0  0  0  0  0  0  0  0  0  0  0
   58.6336   25.4580   48.0264 H   0  0  0  0  0  0  0  0  0  0  0  0
   56.7229   24.8013   46.5661 H   0  0  0  0  0  0  0  0  0  0  0  0
   55.7142   26.4615   45.0067 H   0  0  0  0  0  0  0  0  0  0  0  0
   60.8283   28.9358   46.5400 H   0  0  0  0  0  0  0  0  0  0  0  0
   61.9272   31.1682   46.6452 H   0  0  0  0  0  0  0  0  0  0  0  0
   59.3555   29.8255   53.6509 H   0  0  0  0  0  0  0  0  0  0  0  0
   60.6409   28.0038   52.5356 H   0  0  0  0  0  0  0  0  0  0  0  0
  1  2  1  0
  2  3  1  0
  3  4  2  0
  3  5  1  0
  5  6  2  0
  6  7  1  0
  7  8  2  0
  8  9  1  0
  9 10  1  0
  9 11  1  0
 11 12  1  0
 12 13  2  0
 12 14  1  0
 14 15  2  0
 15 16  1  0
 16 17  2  0
 17 18  1  0
 18 19  2  0
 18 20  1  0
 20 21  1  0
 20 22  2  0
 22 23  1  0
 22 24  1  0
 24 25  1  0
 25 26  1  0
 26 27  2  0
 27 28  1  0
 28 29  2  0
 29 30  1  0
 30 31  2  0
 31 32  1  0
 32 33  2  0
 33 34  1  0
 34 35  2  0
 35 36  1  0
 36 37  2  0
 36 38  1  0
 29 39  1  0
 39 40  2  0
  8 41  1  0
 41 42  2  0
 42  5  1  0
 19 14  1  0
 40 26  1  0
 24 17  1  0
 35 30  1  0
  1 43  1  0
  1 44  1  0
  1 45  1  0
  6 46  1  0
  7 47  1  0
  9 48  1  6
 10 49  1  0
 10 50  1  0
 10 51  1  0
 15 52  1  0
 16 53  1  0
 19 54  1  0
 21 55  1  0
 21 56  1  0
 21 57  1  0
 23 58  1  0
 23 59  1  0
 23 60  1  0
 25 61  1  0
 25 62  1  0
 27 63  1  0
 28 64  1  0
 31 65  1  0
 32 66  1  0
 33 67  1  0
 34 68  1  0
 39 69  1  0
 40 70  1  0
 41 71  1  0
 42 72  1  0
M  CHG  2  11  -1  38  -1
M  END
>  <UniqueID>  (5) 
4

>  <SMILES>  (5) 
COC(=O)c1ccc([C@@H](C)[N-]C(=O)c2ccc3c(c2)c(C)c(C)n3Cc2ccc(-c3ccccc3C(=O)[O-])cc2)cc1

>  <Energy>  (5) 
116.44290160597488

>  <Genealogy>  (5) 
COC(=O)c1ccc(C(C)[N-]C(=O)c2ccc3c(c2)c(C)c(C)n3Cc2ccc(-c3ccccc3C(=O)[O-])cc2)cc1 (protonated)
COC(=O)c1ccc([C@@H](C)[N-]C(=O)c2ccc3c(c2)c(C)c(C)n3Cc2ccc(-c3ccccc3C(=O)[O-])cc2)cc1 (chirality)
COC(=O)c1ccc([C@@H](C)[N-]C(=O)c2ccc3c(c2)c(C)c(C)n3Cc2ccc(-c3ccccc3C(=O)[O-])cc2)cc1 (3D coordinates assigned)
COC(=O)c1ccc([C@@H](C)[N-]C(=O)c2ccc3c(c2)c(C)c(C)n3Cc2ccc(-c3ccccc3C(=O)[O-])cc2)cc1 (optimized conformer: 116.44290160597488 kcal/mol)

>  <smiles>  (5) 
COC(=O)c1ccc(C(C)NC(=O)c2ccc3c(c2)c(C)c(C)n3Cc2ccc(-c3ccccc3C(=O)O)cc2)cc1

>  <score_type>  (5) 
oracle

>  <origin>  (5) 
adg

>  <m_score__min__energy>  (5) 
-13.67

>  <m_primary>  (5) 
energy

$$$$
5:0
     RDKit          3D

 66 69  0  0  0  0  0  0  0  0999 V2000
   56.1960   24.1750   44.6560 C   0  0  0  0  0  0  0  0  0  0  0  0
   55.1480   24.7220   45.6170 C   0  0  0  0  0  0  0  0  0  0  0  0
   55.7180   25.7750   46.4510 N   0  0  0  0  0  0  0  0  0  0  0  0
   56.5760   26.8240   45.9830 C   0  0  0  0  0  0  0  0  0  0  0  0
   57.8170   26.7190   46.1740 O   0  0  0  0  0  0  0  0  0  0  0  0
   56.0490   27.9630   45.2830 N   0  0  0  0  0  0  0  0  0  0  0  0
   56.7440   29.2150   45.1490 C   0  0  0  0  0  0  0  0  0  0  0  0
   57.7640   29.5900   46.0420 C   0  0  0  0  0  0  0  0  0  0  0  0
   58.4090   30.8210   45.9020 C   0  0  0  0  0  0  0  0  0  0  0  0
   58.0290   31.7110   44.8850 C   0  0  0  0  0  0  0  0  0  0  0  0
   58.7400   33.0270   44.7180 C   0  0  0  0  0  0  0  0  0  0  0  0
   59.4140   33.4290   46.0020 C   0  0  0  0  0  0  0  0  0  0  0  0
   58.9030   34.4800   46.7780 C   0  0  0  0  0  0  0  0  0  0  0  0
   59.5430   34.8620   47.9600 C   0  0  0  0  0  0  0  0  0  0  0  0
   60.7240   34.2160   48.3690 C   0  0  0  0  0  0  0  0  0  0  0  0
   61.4220   34.5720   49.5730 N   0  0  0  0  0  0  0  0  0  0  0  0
   61.6630   33.7460   50.7230 C   0  0  0  0  0  0  0  0  0  0  0  0
   62.8270   33.6330   51.1930 O   0  0  0  0  0  0  0  0  0  0  0  0
   60.5810   32.9930   51.3030 N   0  0  0  0  0  0  0  0  0  0  0  0
   60.7690   32.2660   52.5630 C   0  0  0  0  0  0  0  0  0  0  0  0
   59.4460   32.2220   53.3410 C   0  0  0  0  0  0  0  0  0  0  0  0
   58.3060   31.6820   52.5480 N   0  0  0  0  0  0  0  0  0  0  0  0
   57.8680   30.3580   53.0380 C   0  0  0  0  0  0  0  0  0  0  0  0
   56.3980   30.1610   52.7760 C   0  0  0  0  0  0  0  0  0  0  0  0
   55.6520   31.1820   52.1640 C   0  0  0  0  0  0  0  0  0  0  0  0
   54.2890   31.0030   51.9110 C   0  0  0  0  0  0  0  0  0  0  0  0
   53.6600   29.8090   52.2720 C   0  0  0  0  0  0  0  0  0  0  0  0
   54.3940   28.7910   52.8870 C   0  0  0  0  0  0  0  0  0  0  0  0
   55.7590   28.9640   53.1400 C   0  0  0  0  0  0  0  0  0  0  0  0
   58.5340   31.6420   51.0860 C   0  0  0  0  0  0  0  0  0  0  0  0
   59.3050   32.8690   50.5900 C   0  0  0  0  0  0  0  0  0  0  0  0
   61.2190   33.1550   47.6030 C   0  0  0  0  0  0  0  0  0  0  0  0
   60.5760   32.7650   46.4250 C   0  0  0  0  0  0  0  0  0  0  0  0
   57.0010   31.3460   44.0040 C   0  0  0  0  0  0  0  0  0  0  0  0
   56.3580   30.1120   44.1400 C   0  0  0  0  0  0  0  0  0  0  0  0
   57.0282   23.7407   45.2294 H   0  0  0  0  0  0  0  0  0  0  0  0
   55.7427   23.3985   44.0223 H   0  0  0  0  0  0  0  0  0  0  0  0
   56.5738   24.9909   44.0223 H   0  0  0  0  0  0  0  0  0  0  0  0
   54.3071   25.1333   45.0394 H   0  0  0  0  0  0  0  0  0  0  0  0
   54.7995   23.9047   46.2655 H   0  0  0  0  0  0  0  0  0  0  0  0
   55.1520   27.8520   44.7630 H   0  0  0  0  0  0  0  0  0  0  0  0
   58.0555   28.9096   46.8557 H   0  0  0  0  0  0  0  0  0  0  0  0
   59.2199   31.0948   46.5930 H   0  0  0  0  0  0  0  0  0  0  0  0
   59.4975   32.9312   43.9262 H   0  0  0  0  0  0  0  0  0  0  0  0
   58.0031   33.7974   44.4469 H   0  0  0  0  0  0  0  0  0  0  0  0
   57.9931   35.0065   46.4541 H   0  0  0  0  0  0  0  0  0  0  0  0
   59.1214   35.6717   48.5737 H   0  0  0  0  0  0  0  0  0  0  0  0
   61.0995   31.2394   52.3464 H   0  0  0  0  0  0  0  0  0  0  0  0
   61.5295   32.7804   53.1689 H   0  0  0  0  0  0  0  0  0  0  0  0
   59.5849   31.5862   54.2278 H   0  0  0  0  0  0  0  0  0  0  0  0
   59.1925   33.2591   53.6057 H   0  0  0  0  0  0  0  0  0  0  0  0
   58.4371   29.5729   52.5186 H   0  0  0  0  0  0  0  0  0  0  0  0
   58.0480   30.3013   54.1217 H   0  0  0  0  0  0  0  0  0  0  0  0
   56.1423   32.1257   51.8829 H   0  0  0  0  0  0  0  0  0  0  0  0
   53.7107   31.8037   51.4268 H   0  0  0  0  0  0  0  0  0  0  0  0
   52.5872   29.6701   52.0723 H   0  0  0  0  0  0  0  0  0  0  0  0
   53.8975   27.8519   53.1727 H   0  0  0  0  0  0  0  0  0  0  0  0
   56.3333   28.1609   53.6251 H   0  0  0  0  0  0  0  0  0  0  0  0
   59.1108   30.7378   50.8414 H   0  0  0  0  0  0  0  0  0  0  0  0
   57.5523   31.6351   50.5898 H   0  0  0  0  0  0  0  0  0  0  0  0
   59.5004   32.7633   49.5127 H   0  0  0  0  0  0  0  0  0  0  0  0
   58.7020   33.7696   50.7779 H   0  0  0  0  0  0  0  0  0  0  0  0
   62.1236   32.6223   47.9313 H   0  0  0  0  0  0  0  0  0  0  0  0
   60.9818   31.9353   45.8276 H   0  0  0  0  0  0  0  0  0  0  0  0
   56.6987   32.0346   43.2012 H   0  0  0  0  0  0  0  0  0  0  0  0
   55.5438   29.8418   43.4515 H   0  0  0  0  0  0  0  0  0  0  0  0
  1  2  1  0
  2  3  1  0
  3  4  1  0
  4  5  2  0
  4  6  1  0
  6  7  1  0
  7  8  2  0
  8  9  1  0
  9 10  2  0
 10 11  1  0
 11 12  1  0
 12 13  2  0
 13 14  1  0
 14 15  2  0
 15 16  1  0
 16 17  1  0
 17 18  2  0
 17 19  1  0
 19 20  1  0
 20 21  1  0
 21 22  1  0
 22 23  1  0
 23 24  1  0
 24 25  2  0
 25 26  1  0
 26 27  2  0
 27 28  1  0
 28 29  2  0
 22 30  1  0
 30 31  1  0
 15 32  1  0
 32 33  2  0
 10 34  1  0
 34 35  2  0
 35  7  1  0
 33 12  1  0
 31 19  1  0
 29 24  1  0
  1 36  1  0
  1 37  1  0
  1 38  1  0
  2 39  1  0
  2 40  1  0
  6 41  1  0
  8 42  1  0
  9 43  1  0
 11 44  1  0
 11 45  1  0
 13 46  1  0
 14 47  1  0
 20 48  1  0
 20 49  1  0
 21 50  1  0
 21 51  1  0
 23 52  1  0
 23 53  1  0
 25 54  1  0
 26 55  1  0
 27 56  1  0
 28 57  1  0
 29 58  1  0
 30 59  1  0
 30 60  1  0
 31 61  1  0
 31 62  1  0
 32 63  1  0
 33 64  1  0
 34 65  1  0
 35 66  1  0
M  CHG  2   3  -1  16  -1
M  END
>  <UniqueID>  (6) 
5

>  <SMILES>  (6) 
CC[N-]C(=O)Nc1ccc(Cc2ccc([N-]C(=O)N3CCN(Cc4ccccc4)CC3)cc2)cc1

>  <Energy>  (6) 
77.9969011822748

>  <Genealogy>  (6) 
CC[N-]C(=O)Nc1ccc(Cc2ccc([N-]C(=O)N3CCN(Cc4ccccc4)CC3)cc2)cc1 (protonated)
CC[N-]C(=O)Nc1ccc(Cc2ccc([N-]C(=O)N3CCN(Cc4ccccc4)CC3)cc2)cc1 (3D coordinates assigned)
CC[N-]C(=O)Nc1ccc(Cc2ccc([N-]C(=O)N3CCN(Cc4ccccc4)CC3)cc2)cc1 (nonaromatic ring conformer: 77.9969011822748 kcal/mol)

>  <smiles>  (6) 
CCNC(=O)Nc1ccc(Cc2ccc(NC(=O)N3CCN(Cc4ccccc4)CC3)cc2)cc1

>  <score_type>  (6) 
oracle

>  <origin>  (6) 
adg

>  <m_score__min__energy>  (6) 
-12.42

>  <m_primary>  (6) 
energy

$$$$
6:0
     RDKit          3D

 40 43  0  0  0  0  0  0  0  0999 V2000
   61.1820   28.6290   44.8590 C   0  0  0  0  0  0  0  0  0  0  0  0
   59.8600   28.2300   45.4440 C   0  0  0  0  0  0  0  0  0  0  0  0
   59.7680   27.0950   46.2610 C   0  0  0  0  0  0  0  0  0  0  0  0
   58.5290   26.6920   46.7670 C   0  0  0  0  0  0  0  0  0  0  0  0
   57.3730   27.4080   46.4460 C   0  0  0  0  0  0  0  0  0  0  0  0
   57.4490   28.5370   45.6080 C   0  0  0  0  0  0  0  0  0  0  0  0
   56.3130   29.2660   45.2170 O   0  0  0  0  0  0  0  0  0  0  0  0
   55.9630   29.5910   43.8720 C   0  0  0  0  0  0  0  0  0  0  0  0
   56.6410   30.8480   43.4090 C   0  0  0  0  0  0  0  0  0  0  0  0
   56.7710   31.2160   42.1050 N   0  0  0  0  0  0  0  0  0  0  0  0
   57.4920   32.3400   42.0850 N   0  0  0  0  0  0  0  0  0  0  0  0
   57.7630   32.6340   43.3650 C   0  0  0  0  0  0  0  0  0  0  0  0
   58.9230   33.5910   44.0990 S   0  0  0  0  0  0  0  0  0  0  0  0
   58.6410   32.7410   45.5780 C   0  0  0  0  0  0  0  0  0  0  0  0
   59.3830   32.9600   46.8410 C   0  0  0  0  0  0  0  0  0  0  0  0
   58.9930   33.9650   47.7430 C   0  0  0  0  0  0  0  0  0  0  0  0
   59.7060   34.1720   48.9280 C   0  0  0  0  0  0  0  0  0  0  0  0
   60.8280   33.3790   49.2300 C   0  0  0  0  0  0  0  0  0  0  0  0
   61.5920   33.5600   50.4320 N   0  0  0  0  0  0  0  0  0  0  0  0
   62.8630   33.5080   50.4810 C   0  0  0  0  0  0  0  0  0  0  0  0
   64.4730   33.4430   50.5410 S   0  0  0  0  0  0  0  0  0  0  0  0
   61.2190   32.3810   48.3300 C   0  0  0  0  0  0  0  0  0  0  0  0
   60.5010   32.1670   47.1500 C   0  0  0  0  0  0  0  0  0  0  0  0
   57.7270   31.7410   45.4230 N   0  0  0  0  0  0  0  0  0  0  0  0
   57.2480   31.7570   44.1880 N   0  0  0  0  0  0  0  0  0  0  0  0
   58.6950   28.9430   45.1180 C   0  0  0  0  0  0  0  0  0  0  0  0
   61.8925   28.8434   45.6709 H   0  0  0  0  0  0  0  0  0  0  0  0
   61.5711   27.8083   44.2385 H   0  0  0  0  0  0  0  0  0  0  0  0
   61.0521   29.5279   44.2385 H   0  0  0  0  0  0  0  0  0  0  0  0
   60.6734   26.5198   46.5047 H   0  0  0  0  0  0  0  0  0  0  0  0
   58.4639   25.8089   47.4196 H   0  0  0  0  0  0  0  0  0  0  0  0
   56.4006   27.0888   46.8491 H   0  0  0  0  0  0  0  0  0  0  0  0
   56.2636   28.7614   43.2152 H   0  0  0  0  0  0  0  0  0  0  0  0
   54.8758   29.7531   43.8307 H   0  0  0  0  0  0  0  0  0  0  0  0
   57.8480   32.8170   41.2270 H   0  0  0  0  0  0  0  0  0  0  0  0
   58.1198   34.5938   47.5149 H   0  0  0  0  0  0  0  0  0  0  0  0
   59.3879   34.9590   49.6276 H   0  0  0  0  0  0  0  0  0  0  0  0
   62.0989   31.7597   48.5532 H   0  0  0  0  0  0  0  0  0  0  0  0
   60.8137   31.3714   46.4577 H   0  0  0  0  0  0  0  0  0  0  0  0
   58.7627   29.8298   44.4707 H   0  0  0  0  0  0  0  0  0  0  0  0
  1  2  1  0
  2  3  2  0
  3  4  1  0
  4  5  2  0
  5  6  1  0
  6  7  1  0
  7  8  1  0
  8  9  1  0
  9 10  2  0
 10 11  1  0
 11 12  2  0
 12 13  1  0
 13 14  1  0
 14 15  1  0
 15 16  2  0
 16 17  1  0
 17 18  2  0
 18 19  1  0
 19 20  2  0
 20 21  2  0
 18 22  1  0
 22 23  2  0
 14 24  2  0
 24 25  1  0
  6 26  2  0
 26  2  1  0
 25  9  1  0
 25 12  1  0
 23 15  1  0
  1 27  1  0
  1 28  1  0
  1 29  1  0
  3 30  1  0
  4 31  1  0
  5 32  1  0
  8 33  1  0
  8 34  1  0
 11 35  1  0
 16 36  1  0
 17 37  1  0
 22 38  1  0
 23 39  1  0
 26 40  1  0
M  CHG  1  11   1
M  END
>  <UniqueID>  (7) 
6

>  <SMILES>  (7) 
Cc1cccc(OCc2n[nH+]c3sc(-c4ccc(N=C=S)cc4)nn23)c1

>  <Energy>  (7) 
137.82230912695488

>  <Genealogy>  (7) 
Cc1cccc(OCc2n[nH+]c3sc(-c4ccc(N=C=S)cc4)nn23)c1 (protonated)
Cc1cccc(OCc2n[nH+]c3sc(-c4ccc(N=C=S)cc4)nn23)c1 (3D coordinates assigned)
Cc1cccc(OCc2n[nH+]c3sc(-c4ccc(N=C=S)cc4)nn23)c1 (optimized conformer: 137.82230912695488 kcal/mol)

>  <smiles>  (7) 
Cc1cccc(OCc2nnc3sc(-c4ccc(N=C=S)cc4)nn23)c1

>  <score_type>  (7) 
oracle

>  <origin>  (7) 
adg

>  <m_score__min__energy>  (7) 
-7.46

>  <m_primary>  (7) 
energy

$$$$
7:0
     RDKit          3D

 59 60  0  0  0  0  0  0  0  0999 V2000
   58.6220   33.1550   45.7310 C   0  0  0  0  0  0  0  0  0  0  0  0
   59.4830   33.5850   46.8400 N   0  0  0  0  0  0  0  0  0  0  0  0
   60.6380   34.4550   46.5730 C   0  0  0  0  0  0  0  0  0  0  0  0
   61.8810   33.8490   47.1500 C   0  0  0  0  0  0  0  0  0  0  0  0
   62.7850   33.4370   46.3780 O   0  0  0  0  0  0  0  0  0  0  0  0
   62.0380   33.7650   48.5760 N   0  0  0  0  0  0  0  0  0  0  0  0
   63.0620   33.0050   49.2440 C   0  0  0  0  0  0  0  0  0  0  0  0
   64.4030   33.4070   49.1240 C   0  0  0  0  0  0  0  0  0  0  0  0
   65.4170   32.7010   49.7740 C   0  0  0  0  0  0  0  0  0  0  0  0
   65.1020   31.5870   50.5590 C   0  0  0  0  0  0  0  0  0  0  0  0
   66.0890   30.9000   51.1900 F   0  0  0  0  0  0  0  0  0  0  0  0
   63.7710   31.1940   50.7140 C   0  0  0  0  0  0  0  0  0  0  0  0
   62.7520   31.9040   50.0680 C   0  0  0  0  0  0  0  0  0  0  0  0
   59.1920   33.1740   48.1960 C   0  0  0  0  0  0  0  0  0  0  0  0
   59.2990   34.0100   49.1350 O   0  0  0  0  0  0  0  0  0  0  0  0
   58.7810   31.7520   48.5040 C   0  0  0  0  0  0  0  0  0  0  0  0
   59.9750   30.7880   48.6180 C   0  0  0  0  0  0  0  0  0  0  0  0
   59.5330   29.4070   49.1050 C   0  0  0  0  0  0  0  0  0  0  0  0
   60.5830   28.4240   48.8420 N   0  0  0  0  0  0  0  0  0  0  0  0
   60.4090   27.2430   48.0510 C   0  0  0  0  0  0  0  0  0  0  0  0
   61.3390   26.3940   48.0180 O   0  0  0  0  0  0  0  0  0  0  0  0
   59.1580   26.9720   47.3150 C   0  0  0  0  0  0  0  0  0  0  0  0
   58.2950   25.9440   47.7340 C   0  0  0  0  0  0  0  0  0  0  0  0
   57.1450   25.6440   47.0010 C   0  0  0  0  0  0  0  0  0  0  0  0
   56.8530   26.3610   45.8400 C   0  0  0  0  0  0  0  0  0  0  0  0
   57.7070   27.3840   45.3980 C   0  0  0  0  0  0  0  0  0  0  0  0
   57.4000   28.1220   44.2050 N   0  0  0  0  0  0  0  0  0  0  0  0
   57.8010   27.5980   42.8990 C   0  0  0  0  0  0  0  0  0  0  0  0
   56.6110   29.6700   44.3030 S   0  0  0  0  0  0  0  0  0  0  0  0
   56.6480   30.4700   42.7190 C   0  0  0  0  0  0  0  0  0  0  0  0
   55.1860   29.4770   44.7370 O   0  0  0  0  0  0  0  0  0  0  0  0
   57.3080   30.5330   45.3180 O   0  0  0  0  0  0  0  0  0  0  0  0
   58.8630   27.6800   46.1390 C   0  0  0  0  0  0  0  0  0  0  0  0
   57.7063   32.6977   46.1338 H   0  0  0  0  0  0  0  0  0  0  0  0
   58.3561   34.0261   45.1142 H   0  0  0  0  0  0  0  0  0  0  0  0
   59.1587   32.4191   45.1142 H   0  0  0  0  0  0  0  0  0  0  0  0
   60.7612   34.5735   45.4864 H   0  0  0  0  0  0  0  0  0  0  0  0
   60.4656   35.4367   47.0384 H   0  0  0  0  0  0  0  0  0  0  0  0
   61.4020   34.3530   49.1640 H   0  0  0  0  0  0  0  0  0  0  0  0
   64.6561   34.2857   48.5126 H   0  0  0  0  0  0  0  0  0  0  0  0
   66.4642   33.0210   49.6687 H   0  0  0  0  0  0  0  0  0  0  0  0
   63.5233   30.3267   51.3436 H   0  0  0  0  0  0  0  0  0  0  0  0
   61.7033   31.6010   50.2042 H   0  0  0  0  0  0  0  0  0  0  0  0
   58.2335   31.7450   49.4580 H   0  0  0  0  0  0  0  0  0  0  0  0
   58.1574   31.4031   47.6677 H   0  0  0  0  0  0  0  0  0  0  0  0
   60.4472   30.6848   47.6299 H   0  0  0  0  0  0  0  0  0  0  0  0
   60.6853   31.2018   49.3489 H   0  0  0  0  0  0  0  0  0  0  0  0
   59.3352   29.4482   50.1863 H   0  0  0  0  0  0  0  0  0  0  0  0
   58.6190   29.1109   48.5694 H   0  0  0  0  0  0  0  0  0  0  0  0
   58.5272   25.3726   48.6448 H   0  0  0  0  0  0  0  0  0  0  0  0
   56.4701   24.8435   47.3383 H   0  0  0  0  0  0  0  0  0  0  0  0
   55.9455   26.1225   45.2659 H   0  0  0  0  0  0  0  0  0  0  0  0
   58.4640   26.7316   43.0394 H   0  0  0  0  0  0  0  0  0  0  0  0
   56.9070   27.2884   42.3379 H   0  0  0  0  0  0  0  0  0  0  0  0
   58.3335   28.3801   42.3379 H   0  0  0  0  0  0  0  0  0  0  0  0
   56.6984   31.5598   42.8597 H   0  0  0  0  0  0  0  0  0  0  0  0
   57.5314   30.1315   42.1578 H   0  0  0  0  0  0  0  0  0  0  0  0
   55.7371   30.2145   42.1578 H   0  0  0  0  0  0  0  0  0  0  0  0
   59.5430   28.4733   45.7950 H   0  0  0  0  0  0  0  0  0  0  0  0
  1  2  1  0
  2  3  1  0
  3  4  1  0
  4  5  2  0
  4  6  1  0
  6  7  1  0
  7  8  2  0
  8  9  1  0
  9 10  2  0
 10 11  1  0
 10 12  1  0
 12 13  2  0
  2 14  1  0
 14 15  2  0
 14 16  1  0
 16 17  1  0
 17 18  1  0
 18 19  1  0
 19 20  1  0
 20 21  2  0
 20 22  1  0
 22 23  2  0
 23 24  1  0
 24 25  2  0
 25 26  1  0
 26 27  1  0
 27 28  1  0
 27 29  1  0
 29 30  1  0
 29 31  2  0
 29 32  2  0
 26 33  2  0
 13  7  1  0
 33 22  1  0
  1 34  1  0
  1 35  1  0
  1 36  1  0
  3 37  1  0
  3 38  1  0
  6 39  1  0
  8 40  1  0
  9 41  1  0
 12 42  1  0
 13 43  1  0
 16 44  1  0
 16 45  1  0
 17 46  1  0
 17 47  1  0
 18 48  1  0
 18 49  1  0
 23 50  1  0
 24 51  1  0
 25 52  1  0
 28 53  1  0
 28 54  1  0
 28 55  1  0
 30 56  1  0
 30 57  1  0
 30 58  1  0
 33 59  1  0
M  CHG  1  19  -1
M  END
>  <UniqueID>  (8) 
7

>  <SMILES>  (8) 
CN(CC(=O)Nc1ccc(F)cc1)C(=O)CCC[N-]C(=O)c1cccc(N(C)S(C)(=O)=O)c1

>  <Energy>  (8) 
60.37479681853875

>  <Genealogy>  (8) 
CN(CC(=O)Nc1ccc(F)cc1)C(=O)CCC[N-]C(=O)c1cccc(N(C)S(C)(=O)=O)c1 (protonated)
CN(CC(=O)Nc1ccc(F)cc1)C(=O)CCC[N-]C(=O)c1cccc(N(C)S(C)(=O)=O)c1 (3D coordinates assigned)
CN(CC(=O)Nc1ccc(F)cc1)C(=O)CCC[N-]C(=O)c1cccc(N(C)S(C)(=O)=O)c1 (optimized conformer: 60.37479681853875 kcal/mol)

>  <smiles>  (8) 
CN(CC(=O)Nc1ccc(F)cc1)C(=O)CCCNC(=O)c1cccc(N(C)S(C)(=O)=O)c1

>  <score_type>  (8) 
oracle

>  <origin>  (8) 
adg

>  <m_score__min__energy>  (8) 
-9.6899999999999995

>  <m_primary>  (8) 
energy

$$$$
8:0
     RDKit          3D

 30 31  0  0  0  0  0  0  0  0999 V2000
   56.3540   30.0890   45.9660 H   0  0  0  0  0  0  0  0  0  0  0  0
   56.2110   29.4210   45.2170 O   0  0  0  0  0  0  0  0  0  0  0  0
   56.9490   29.4690   44.0510 N   0  0  0  0  0  0  0  0  0  0  0  0
   57.5150   28.3570   43.6570 C   0  0  0  0  0  0  0  0  0  0  0  0
   57.5834   28.1829   42.5730 H   0  0  0  0  0  0  0  0  0  0  0  0
   58.0730   27.3100   44.5510 C   0  0  0  0  0  0  0  0  0  0  0  0
   57.7050   26.0110   44.5250 N   0  0  0  0  0  0  0  0  0  0  0  0
   58.4860   25.4250   45.4550 C   0  0  0  0  0  0  0  0  0  0  0  0
   58.4810   23.9630   45.7450 C   0  0  0  0  0  0  0  0  0  0  0  0
   58.4805   23.8051   46.8336 H   0  0  0  0  0  0  0  0  0  0  0  0
   57.5813   23.5055   45.3077 H   0  0  0  0  0  0  0  0  0  0  0  0
   59.3776   23.4994   45.3077 H   0  0  0  0  0  0  0  0  0  0  0  0
   59.3380   26.3540   46.0070 C   0  0  0  0  0  0  0  0  0  0  0  0
   60.1022   26.1598   46.7740 H   0  0  0  0  0  0  0  0  0  0  0  0
   59.0670   27.5420   45.4390 N   0  0  0  0  0  0  0  0  0  0  0  0
   59.7570   28.8010   45.7040 C   0  0  0  0  0  0  0  0  0  0  0  0
   59.8398   28.9521   46.7904 H   0  0  0  0  0  0  0  0  0  0  0  0
   60.7631   28.7681   45.2606 H   0  0  0  0  0  0  0  0  0  0  0  0
   59.1879   29.6314   45.2606 H   0  0  0  0  0  0  0  0  0  0  0  0
   56.9910   30.7360   43.3020 C   0  0  0  0  0  0  0  0  0  0  0  0
   57.7454   30.6576   42.5052 H   0  0  0  0  0  0  0  0  0  0  0  0
   55.9950   30.9223   42.8740 H   0  0  0  0  0  0  0  0  0  0  0  0
   57.3450   31.8810   44.2000 C   0  0  0  0  0  0  0  0  0  0  0  0
   57.0250   31.9430   45.4730 O   0  0  0  0  0  0  0  0  0  0  0  0
   57.4810   33.0730   45.9630 C   0  0  0  0  0  0  0  0  0  0  0  0
   57.3692   33.4011   47.0069 H   0  0  0  0  0  0  0  0  0  0  0  0
   58.1220   33.7870   44.9700 C   0  0  0  0  0  0  0  0  0  0  0  0
   58.6069   34.7694   45.0694 H   0  0  0  0  0  0  0  0  0  0  0  0
   58.0310   33.0190   43.8290 C   0  0  0  0  0  0  0  0  0  0  0  0
   58.4235   33.2627   42.8307 H   0  0  0  0  0  0  0  0  0  0  0  0
  1  2  1  0
  2  3  1  0
  3  4  2  0
  4  5  1  0
  4  6  1  0
  6  7  2  0
  7  8  1  0
  8  9  1  0
  9 10  1  0
  9 11  1  0
  9 12  1  0
  8 13  2  0
 13 14  1  0
 13 15  1  0
 15 16  1  0
 16 17  1  0
 16 18  1  0
 16 19  1  0
  3 20  1  0
 20 21  1  0
 20 22  1  0
 20 23  1  0
 23 24  1  0
 24 25  1  0
 25 26  1  0
 25 27  2  0
 27 28  1  0
 27 29  1  0
 29 30  1  0
 15  6  1  0
 29 23  2  0
M  CHG  1   3   1
M  END
>  <UniqueID>  (9) 
8

>  <SMILES>  (9) 
Cc1cn(C)c(/C=[N+](/O)Cc2ccco2)n1

>  <Energy>  (9) 
85.55784462802059

>  <Genealogy>  (9) 
Cc1cn(C)c(C=[N+](O)Cc2ccco2)n1 (protonated)
Cc1cn(C)c(/C=[N+](/O)Cc2ccco2)n1 (cis-trans isomerization)
Cc1cn(C)c(/C=[N+](/O)Cc2ccco2)n1 (3D coordinates assigned)
Cc1cn(C)c(/C=[N+](/O)Cc2ccco2)n1 (optimized conformer: 85.55784462802059 kcal/mol)

>  <smiles>  (9) 
Cc1cn(C)c(C=[N+]([O-])Cc2ccco2)n1

>  <score_type>  (9) 
oracle

>  <origin>  (9) 
adg

>  <m_score__min__energy>  (9) 
-4.9500000000000002

>  <m_primary>  (9) 
energy

$$$$
9:0
     RDKit          3D

 25 27  0  0  0  0  0  0  0  0999 V2000
   57.1280   28.9060   45.9690 N   0  0  0  0  0  0  0  0  0  0  0  0
   57.2570   29.7050   45.1420 C   0  0  0  0  0  0  0  0  0  0  0  0
   57.4120   30.7020   44.1110 C   0  0  0  0  0  0  0  0  0  0  0  0
   58.0720   31.9430   44.2770 C   0  0  0  0  0  0  0  0  0  0  0  0
   58.6590   32.4440   45.5440 C   0  0  0  0  0  0  0  0  0  0  0  0
   59.6300   31.7800   46.3050 C   0  0  0  0  0  0  0  0  0  0  0  0
   60.0240   32.5060   47.4340 C   0  0  0  0  0  0  0  0  0  0  0  0
   60.9670   32.1040   48.3840 C   0  0  0  0  0  0  0  0  0  0  0  0
   61.2480   32.9610   49.4630 C   0  0  0  0  0  0  0  0  0  0  0  0
   60.5900   34.2000   49.5810 C   0  0  0  0  0  0  0  0  0  0  0  0
   59.6440   34.5940   48.6210 C   0  0  0  0  0  0  0  0  0  0  0  0
   59.3830   33.7280   47.5620 C   0  0  0  0  0  0  0  0  0  0  0  0
   58.3180   33.9340   46.2840 S   0  0  0  0  0  0  0  0  0  0  0  0
   58.1230   32.6860   43.0940 C   0  0  0  0  0  0  0  0  0  0  0  0
   57.3580   31.8270   41.8670 S   0  0  0  0  0  0  0  0  0  0  0  0
   56.9580   30.5020   42.8110 C   0  0  0  0  0  0  0  0  0  0  0  0
   56.2680   29.3480   42.3300 N   0  0  0  0  0  0  0  0  0  0  0  0
   60.0389   30.7931   46.0427 H   0  0  0  0  0  0  0  0  0  0  0  0
   61.4798   31.1354   48.2895 H   0  0  0  0  0  0  0  0  0  0  0  0
   61.9873   32.6611   50.2203 H   0  0  0  0  0  0  0  0  0  0  0  0
   60.8180   34.8624   50.4291 H   0  0  0  0  0  0  0  0  0  0  0  0
   59.1236   35.5597   48.7031 H   0  0  0  0  0  0  0  0  0  0  0  0
   58.5897   33.6759   42.9831 H   0  0  0  0  0  0  0  0  0  0  0  0
   56.4380   28.4170   42.7680 H   0  0  0  0  0  0  0  0  0  0  0  0
   55.5900   29.4160   41.5390 H   0  0  0  0  0  0  0  0  0  0  0  0
  1  2  3  0
  2  3  1  0
  3  4  1  0
  4  5  1  0
  5  6  2  0
  6  7  1  0
  7  8  2  0
  8  9  1  0
  9 10  2  0
 10 11  1  0
 11 12  2  0
 12 13  1  0
  4 14  2  0
 14 15  1  0
 15 16  1  0
 16 17  1  0
 16  3  2  0
 13  5  1  0
 12  7  1  0
  6 18  1  0
  8 19  1  0
  9 20  1  0
 10 21  1  0
 11 22  1  0
 14 23  1  0
 17 24  1  0
 17 25  1  0
M  END
>  <UniqueID>  (10) 
9

>  <SMILES>  (10) 
N#Cc1c(-c2cc3ccccc3s2)csc1N

>  <Energy>  (10) 
86.8998066716727

>  <Genealogy>  (10) 
N#Cc1c(-c2cc3ccccc3s2)csc1N (3D coordinates assigned)
N#Cc1c(-c2cc3ccccc3s2)csc1N (optimized conformer: 86.8998066716727 kcal/mol)

>  <smiles>  (10) 
N#Cc1c(-c2cc3ccccc3s2)csc1N

>  <score_type>  (10) 
oracle

>  <origin>  (10) 
adg

>  <m_score__min__energy>  (10) 
-6.6900000000000004

>  <m_primary>  (10) 
energy

$$$$
10:0
     RDKit          3D

 39 41  0  0  0  0  0  0  0  0999 V2000
   62.2011   30.7857   46.0543 H   0  0  0  0  0  0  0  0  0  0  0  0
   61.4010   30.5000   46.7530 C   0  0  0  0  0  0  0  0  0  0  0  0
   60.3160   29.7440   46.3000 C   0  0  0  0  0  0  0  0  0  0  0  0
   60.2581   29.4505   45.2415 H   0  0  0  0  0  0  0  0  0  0  0  0
   59.3020   29.3580   47.1860 C   0  0  0  0  0  0  0  0  0  0  0  0
   58.1850   28.6130   46.6760 N   0  0  0  0  0  0  0  0  0  0  0  0
   57.5730   28.8150   45.5450 C   0  0  0  0  0  0  0  0  0  0  0  0
   57.0220   30.1020   45.2390 N   0  0  0  0  0  0  0  0  0  0  0  0
   57.5820   31.2710   45.3830 C   0  0  0  0  0  0  0  0  0  0  0  0
   57.8260   31.7720   46.6220 N   0  0  0  0  0  0  0  0  0  0  0  0
   58.3770   32.9690   46.3650 C   0  0  0  0  0  0  0  0  0  0  0  0
   58.8140   33.9120   47.2920 C   0  0  0  0  0  0  0  0  0  0  0  0
   58.7286   33.7281   48.3731 H   0  0  0  0  0  0  0  0  0  0  0  0
   59.3680   35.1070   46.8000 C   0  0  0  0  0  0  0  0  0  0  0  0
   59.7239   35.8748   47.5027 H   0  0  0  0  0  0  0  0  0  0  0  0
   59.4700   35.3270   45.4090 C   0  0  0  0  0  0  0  0  0  0  0  0
   59.9028   36.2667   45.0353 H   0  0  0  0  0  0  0  0  0  0  0  0
   59.0220   34.3530   44.4970 C   0  0  0  0  0  0  0  0  0  0  0  0
   59.0984   34.5123   43.4113 H   0  0  0  0  0  0  0  0  0  0  0  0
   58.4760   33.1750   45.0190 C   0  0  0  0  0  0  0  0  0  0  0  0
   57.9960   32.0960   44.3690 N   0  0  0  0  0  0  0  0  0  0  0  0
   58.0610   31.8620   42.9230 C   0  0  0  0  0  0  0  0  0  0  0  0
   58.3510   30.8180   42.7332 H   0  0  0  0  0  0  0  0  0  0  0  0
   57.0750   32.0558   42.4755 H   0  0  0  0  0  0  0  0  0  0  0  0
   58.8058   32.5366   42.4755 H   0  0  0  0  0  0  0  0  0  0  0  0
   57.2340   27.6970   44.7060 N   0  0  0  0  0  0  0  0  0  0  0  0
   56.5180   27.8480   43.9600 H   0  0  0  0  0  0  0  0  0  0  0  0
   57.8470   26.4010   44.7990 C   0  0  0  0  0  0  0  0  0  0  0  0
   58.8050   26.1940   45.5930 O   0  0  0  0  0  0  0  0  0  0  0  0
   57.3900   25.3000   43.9000 C   0  0  0  0  0  0  0  0  0  0  0  0
   57.0384   24.4529   44.5073 H   0  0  0  0  0  0  0  0  0  0  0  0
   56.5679   25.6623   43.2652 H   0  0  0  0  0  0  0  0  0  0  0  0
   58.2270   24.9737   43.2652 H   0  0  0  0  0  0  0  0  0  0  0  0
   59.3600   29.7860   48.5270 C   0  0  0  0  0  0  0  0  0  0  0  0
   58.5483   29.5244   49.2218 H   0  0  0  0  0  0  0  0  0  0  0  0
   60.4460   30.5420   48.9770 C   0  0  0  0  0  0  0  0  0  0  0  0
   60.4943   30.8608   50.0287 H   0  0  0  0  0  0  0  0  0  0  0  0
   61.4710   30.8940   48.0940 C   0  0  0  0  0  0  0  0  0  0  0  0
   62.8320   31.8450   48.6600 Cl  0  0  0  0  0  0  0  0  0  0  0  0
  1  2  1  0
  2  3  2  0
  3  4  1  0
  3  5  1  0
  5  6  1  0
  6  7  2  0
  7  8  1  0
  8  9  2  0
  9 10  1  0
 10 11  1  0
 11 12  2  0
 12 13  1  0
 12 14  1  0
 14 15  1  0
 14 16  2  0
 16 17  1  0
 16 18  1  0
 18 19  1  0
 18 20  2  0
 20 21  1  0
 21 22  1  0
 22 23  1  0
 22 24  1  0
 22 25  1  0
  7 26  1  0
 26 27  1  0
 26 28  1  0
 28 29  2  0
 28 30  1  0
 30 31  1  0
 30 32  1  0
 30 33  1  0
  5 34  2  0
 34 35  1  0
 34 36  1  0
 36 37  1  0
 36 38  2  0
 38 39  1  0
 38  2  1  0
 21  9  1  0
 20 11  1  0
M  CHG  1  10  -1
M  END
>  <UniqueID>  (11) 
10

>  <SMILES>  (11) 
CC(=O)NC(=Nc1ccc(Cl)cc1)/N=c1/[n-]c2ccccc2n1C

>  <Energy>  (11) 
94.484630647724

>  <Genealogy>  (11) 
CC(=O)NC(=Nc1ccc(Cl)cc1)N=c1[n-]c2ccccc2n1C (protonated)
CC(=O)NC(=Nc1ccc(Cl)cc1)/N=c1/[n-]c2ccccc2n1C (cis-trans isomerization)
CC(=O)NC(=Nc1ccc(Cl)cc1)/N=c1/[n-]c2ccccc2n1C (3D coordinates assigned)
CC(=O)NC(=Nc1ccc(Cl)cc1)/N=c1/[n-]c2ccccc2n1C (optimized conformer: 94.484630647724 kcal/mol)

>  <smiles>  (11) 
CC(=O)NC(=Nc1ccc(Cl)cc1)N=c1[nH]c2ccccc2n1C

>  <score_type>  (11) 
oracle

>  <origin>  (11) 
adg

>  <m_score__min__energy>  (11) 
-9.4600000000000009

>  <m_primary>  (11) 
energy

$$$$
11:0
     RDKit          3D

 51 53  0  0  0  0  0  0  0  0999 V2000
   57.2690   21.4640   43.7630 C   0  0  0  0  0  0  0  0  0  0  0  0
   55.9220   22.0530   43.8460 N   0  0  0  0  0  0  0  0  0  0  0  0
   55.8160   23.2580   43.0070 C   0  0  0  0  0  0  0  0  0  0  0  0
   55.4730   22.2750   45.2390 C   0  0  0  0  0  0  0  0  0  0  0  0
   56.5660   22.8220   46.1800 C   0  0  0  0  0  0  0  0  0  0  0  0
   56.7900   24.2840   45.9220 C   0  0  0  0  0  0  0  0  0  0  0  0
   57.9050   24.7200   45.1980 C   0  0  0  0  0  0  0  0  0  0  0  0
   58.0660   26.0790   44.9370 C   0  0  0  0  0  0  0  0  0  0  0  0
   57.1100   27.0060   45.3860 C   0  0  0  0  0  0  0  0  0  0  0  0
   57.2610   28.4170   45.1210 N   0  0  0  0  0  0  0  0  0  0  0  0
   56.9220   28.9700   43.8040 C   0  0  0  0  0  0  0  0  0  0  0  0
   56.3670   30.4000   43.9310 C   0  0  0  0  0  0  0  0  0  0  0  0
   57.0690   31.2510   44.9350 N   0  0  0  0  0  0  0  0  0  0  0  0
   57.3710   32.5990   44.4060 C   0  0  0  0  0  0  0  0  0  0  0  0
   58.1320   33.4040   45.4240 C   0  0  0  0  0  0  0  0  0  0  0  0
   58.9990   34.4350   45.0320 C   0  0  0  0  0  0  0  0  0  0  0  0
   59.6750   35.1720   46.0040 C   0  0  0  0  0  0  0  0  0  0  0  0
   59.4790   34.8820   47.3550 C   0  0  0  0  0  0  0  0  0  0  0  0
   58.6040   33.8550   47.7130 C   0  0  0  0  0  0  0  0  0  0  0  0
   57.9560   33.1460   46.7510 N   0  0  0  0  0  0  0  0  0  0  0  0
   58.2850   30.6320   45.4930 C   0  0  0  0  0  0  0  0  0  0  0  0
   57.9440   29.2720   46.1010 C   0  0  0  0  0  0  0  0  0  0  0  0
   56.0030   26.5230   46.1050 C   0  0  0  0  0  0  0  0  0  0  0  0
   55.8680   25.1920   46.3450 N   0  0  0  0  0  0  0  0  0  0  0  0
   57.6580   21.2939   44.7778 H   0  0  0  0  0  0  0  0  0  0  0  0
   57.2178   20.5061   43.2246 H   0  0  0  0  0  0  0  0  0  0  0  0
   57.9375   22.1520   43.2246 H   0  0  0  0  0  0  0  0  0  0  0  0
   55.7378   24.1469   43.6502 H   0  0  0  0  0  0  0  0  0  0  0  0
   56.7102   23.3424   42.3719 H   0  0  0  0  0  0  0  0  0  0  0  0
   54.9208   23.1850   42.3719 H   0  0  0  0  0  0  0  0  0  0  0  0
   54.6414   22.9949   45.2221 H   0  0  0  0  0  0  0  0  0  0  0  0
   55.1800   21.2916   45.6354 H   0  0  0  0  0  0  0  0  0  0  0  0
   56.2496   22.6818   47.2242 H   0  0  0  0  0  0  0  0  0  0  0  0
   57.5037   22.2776   45.9947 H   0  0  0  0  0  0  0  0  0  0  0  0
   58.6493   23.9948   44.8374 H   0  0  0  0  0  0  0  0  0  0  0  0
   58.9458   26.4282   44.3767 H   0  0  0  0  0  0  0  0  0  0  0  0
   57.8268   28.9898   43.1787 H   0  0  0  0  0  0  0  0  0  0  0  0
   56.1499   28.3344   43.3458 H   0  0  0  0  0  0  0  0  0  0  0  0
   56.4497   30.8887   42.9490 H   0  0  0  0  0  0  0  0  0  0  0  0
   55.3276   30.3017   44.2775 H   0  0  0  0  0  0  0  0  0  0  0  0
   57.9774   32.5026   43.4933 H   0  0  0  0  0  0  0  0  0  0  0  0
   56.4254   33.1132   44.1792 H   0  0  0  0  0  0  0  0  0  0  0  0
   59.1446   34.6605   43.9653 H   0  0  0  0  0  0  0  0  0  0  0  0
   60.3605   35.9793   45.7068 H   0  0  0  0  0  0  0  0  0  0  0  0
   60.0083   35.4565   48.1294 H   0  0  0  0  0  0  0  0  0  0  0  0
   58.4386   33.6192   48.7746 H   0  0  0  0  0  0  0  0  0  0  0  0
   59.0266   30.4977   44.6917 H   0  0  0  0  0  0  0  0  0  0  0  0
   58.6977   31.2855   46.2757 H   0  0  0  0  0  0  0  0  0  0  0  0
   58.8726   28.7788   46.4242 H   0  0  0  0  0  0  0  0  0  0  0  0
   57.2737   29.4283   46.9591 H   0  0  0  0  0  0  0  0  0  0  0  0
   55.2421   27.2258   46.4753 H   0  0  0  0  0  0  0  0  0  0  0  0
  1  2  1  0
  2  3  1  0
  2  4  1  0
  4  5  1  0
  5  6  1  0
  6  7  2  0
  7  8  1  0
  8  9  2  0
  9 10  1  0
 10 11  1  0
 11 12  1  0
 12 13  1  0
 13 14  1  0
 14 15  1  0
 15 16  2  0
 16 17  1  0
 17 18  2  0
 18 19  1  0
 19 20  2  0
 13 21  1  0
 21 22  1  0
  9 23  1  0
 23 24  2  0
 24  6  1  0
 22 10  1  0
 20 15  1  0
  1 25  1  0
  1 26  1  0
  1 27  1  0
  3 28  1  0
  3 29  1  0
  3 30  1  0
  4 31  1  0
  4 32  1  0
  5 33  1  0
  5 34  1  0
  7 35  1  0
  8 36  1  0
 11 37  1  0
 11 38  1  0
 12 39  1  0
 12 40  1  0
 14 41  1  0
 14 42  1  0
 16 43  1  0
 17 44  1  0
 18 45  1  0
 19 46  1  0
 21 47  1  0
 21 48  1  0
 22 49  1  0
 22 50  1  0
 23 51  1  0
M  END
>  <UniqueID>  (12) 
11

>  <SMILES>  (12) 
CN(C)CCc1ccc(N2CCN(Cc3ccccn3)CC2)cn1

>  <Energy>  (12) 
63.41893801865425

>  <Genealogy>  (12) 
CN(C)CCc1ccc(N2CCN(Cc3ccccn3)CC2)cn1 (3D coordinates assigned)
CN(C)CCc1ccc(N2CCN(Cc3ccccn3)CC2)cn1 (nonaromatic ring conformer: 63.41893801865425 kcal/mol)

>  <smiles>  (12) 
CN(C)CCc1ccc(N2CCN(Cc3ccccn3)CC2)cn1

>  <score_type>  (12) 
oracle

>  <origin>  (12) 
adg

>  <m_score__min__energy>  (12) 
-8.0099999999999998

>  <m_primary>  (12) 
energy

$$$$
12:0
     RDKit          3D

 40 42  0  0  1  0  0  0  0  0999 V2000
   58.2450   21.6520   43.9920 C   0  0  0  0  0  0  0  0  0  0  0  0
   56.6620   22.2990   43.6110 S   0  0  0  0  0  0  0  0  0  0  0  0
   55.6100   21.7490   44.5620 O   0  0  0  0  0  0  0  0  0  0  0  0
   56.2400   21.8480   42.2410 O   0  0  0  0  0  0  0  0  0  0  0  0
   56.5470   24.0000   43.6860 N   0  0  0  0  0  0  0  0  0  0  0  0
   57.1630   24.7860   44.7000 C   0  0  0  0  0  0  0  0  0  0  0  0
   57.1960   24.4140   46.0290 C   0  0  0  0  0  0  0  0  0  0  0  0
   57.8230   25.2510   46.9540 C   0  0  0  0  0  0  0  0  0  0  0  0
   58.4110   26.4490   46.5560 C   0  0  0  0  0  0  0  0  0  0  0  0
   58.3710   26.8110   45.2250 C   0  0  0  0  0  0  0  0  0  0  0  0
   58.9450   28.0170   44.7300 N   0  0  0  0  0  0  0  0  0  0  0  0
   58.2320   29.0770   44.5100 C   0  0  0  0  0  0  0  0  0  0  0  0
   58.6740   30.2220   45.0360 N   0  0  0  0  0  0  0  0  0  0  0  0
   57.9760   31.3550   44.8410 C   0  0  0  0  0  0  0  0  0  0  0  0
   58.4420   32.6100   45.4050 C   0  0  0  0  0  0  0  0  0  0  0  0
   58.8050   33.7040   44.6520 C   0  0  0  0  0  0  0  0  0  0  0  0
   59.2460   34.8880   45.2270 C   0  0  0  0  0  0  0  0  0  0  0  0
   59.3220   34.9660   46.6100 C   0  0  0  0  0  0  0  0  0  0  0  0
   58.9640   33.8810   47.4010 C   0  0  0  0  0  0  0  0  0  0  0  0
   58.5370   32.7410   46.7780 C   0  0  0  0  0  0  0  0  0  0  0  0
   56.8230   31.2550   44.0930 C   0  0  0  0  0  0  0  0  0  0  0  0
   56.3740   30.0600   43.5520 C   0  0  0  0  0  0  0  0  0  0  0  0
   57.1110   28.9610   43.7790 N   0  0  0  0  0  0  0  0  0  0  0  0
   57.7510   25.9880   44.2960 C   0  0  0  0  0  0  0  0  0  0  0  0
   58.3675   21.6019   45.0840 H   0  0  0  0  0  0  0  0  0  0  0  0
   58.3409   20.6425   43.5656 H   0  0  0  0  0  0  0  0  0  0  0  0
   59.0205   22.3053   43.5656 H   0  0  0  0  0  0  0  0  0  0  0  0
   56.0000   24.5550   42.9620 H   0  0  0  0  0  0  0  0  0  0  0  0
   56.7343   23.4703   46.3550 H   0  0  0  0  0  0  0  0  0  0  0  0
   57.8530   24.9595   48.0142 H   0  0  0  0  0  0  0  0  0  0  0  0
   58.9020   27.0997   47.2946 H   0  0  0  0  0  0  0  0  0  0  0  0
   58.7434   33.6375   43.5557 H   0  0  0  0  0  0  0  0  0  0  0  0
   59.5291   35.7460   44.5995 H   0  0  0  0  0  0  0  0  0  0  0  0
   59.6689   35.8955   47.0850 H   0  0  0  0  0  0  0  0  0  0  0  0
   59.0225   33.9376   48.4980 H   0  0  0  0  0  0  0  0  0  0  0  0
   58.2537   31.8815   47.4033 H   0  0  0  0  0  0  0  0  0  0  0  0
   56.2314   32.1655   43.9170 H   0  0  0  0  0  0  0  0  0  0  0  0
   55.4486   30.0141   42.9590 H   0  0  0  0  0  0  0  0  0  0  0  0
   56.7810   28.0670   43.3780 H   0  0  0  0  0  0  0  0  0  0  0  0
   57.7220   26.2828   43.2366 H   0  0  0  0  0  0  0  0  0  0  0  0
  1  2  1  0
  2  3  2  0
  2  4  2  0
  2  5  1  0
  5  6  1  0
  6  7  2  0
  7  8  1  0
  8  9  2  0
  9 10  1  0
 10 11  1  0
 11 12  2  0
 12 13  1  0
 13 14  2  0
 14 15  1  0
 15 16  2  0
 16 17  1  0
 17 18  2  0
 18 19  1  0
 19 20  2  0
 14 21  1  0
 21 22  2  0
 22 23  1  0
 10 24  2  0
 24  6  1  0
 23 12  1  0
 20 15  1  0
  1 25  1  0
  1 26  1  0
  1 27  1  0
  5 28  1  0
  7 29  1  0
  8 30  1  0
  9 31  1  0
 16 32  1  0
 17 33  1  0
 18 34  1  0
 19 35  1  0
 20 36  1  0
 21 37  1  0
 22 38  1  0
 23 39  1  0
 24 40  1  0
M  END
>  <smiles>  (13) 
CS(=O)(=O)Nc1cccc(N=c2nc(-c3ccccc3)cc[nH]2)c1

>  <score_type>  (13) 
oracle

>  <origin>  (13) 
adg

>  <m_score__min__energy>  (13) 
-8.9000000000000004

>  <m_primary>  (13) 
energy

$$$$
13:0
     RDKit          3D

 38 40  0  0  0  0  0  0  0  0999 V2000
   56.2950   30.0460   42.9530 C   0  0  0  0  0  0  0  0  0  0  0  0
   57.0020   31.2220   42.2800 C   0  0  0  0  0  0  0  0  0  0  0  0
   58.1260   31.8180   43.1440 C   0  0  0  0  0  0  0  0  0  0  0  0
   57.7760   33.1700   43.7970 C   0  0  0  0  0  0  0  0  0  0  0  0
   57.3730   33.0700   45.2780 C   0  0  0  0  0  0  0  0  0  0  0  0
   58.2700   32.1810   46.0210 N   0  0  0  0  0  0  0  0  0  0  0  0
   58.1520   30.7600   46.1050 C   0  0  0  0  0  0  0  0  0  0  0  0
   57.1210   30.1320   45.7420 O   0  0  0  0  0  0  0  0  0  0  0  0
   59.3860   30.1130   46.6710 C   0  0  2  0  0  0  0  0  0  0  0  0
   60.0330   29.0830   45.7180 C   0  0  0  0  0  0  0  0  0  0  0  0
   60.0610   27.8370   46.5430 C   0  0  0  0  0  0  0  0  0  0  0  0
   60.5250   26.7430   46.1290 O   0  0  0  0  0  0  0  0  0  0  0  0
   59.5140   27.9820   47.8430 N   0  0  0  0  0  0  0  0  0  0  0  0
   59.1100   29.3360   47.9190 C   0  0  0  0  0  0  0  0  0  0  0  0
   58.5740   29.8220   48.9500 O   0  0  0  0  0  0  0  0  0  0  0  0
   60.2370   31.3270   46.9170 C   0  0  0  0  0  0  0  0  0  0  0  0
   61.5240   31.3900   47.4560 C   0  0  0  0  0  0  0  0  0  0  0  0
   62.1340   32.6470   47.5990 C   0  0  0  0  0  0  0  0  0  0  0  0
   63.7510   32.7620   48.2700 Cl  0  0  0  0  0  0  0  0  0  0  0  0
   61.4490   33.8150   47.2110 C   0  0  0  0  0  0  0  0  0  0  0  0
   60.1540   33.7350   46.6750 C   0  0  0  0  0  0  0  0  0  0  0  0
   59.5680   32.4740   46.5310 C   0  0  0  0  0  0  0  0  0  0  0  0
   56.3607   30.1553   44.0456 H   0  0  0  0  0  0  0  0  0  0  0  0
   55.2380   30.0309   42.6489 H   0  0  0  0  0  0  0  0  0  0  0  0
   56.7775   29.1054   42.6489 H   0  0  0  0  0  0  0  0  0  0  0  0
   57.4357   30.8743   41.3308 H   0  0  0  0  0  0  0  0  0  0  0  0
   56.2525   32.0116   42.1225 H   0  0  0  0  0  0  0  0  0  0  0  0
   58.3631   31.1006   43.9434 H   0  0  0  0  0  0  0  0  0  0  0  0
   58.9755   32.0043   42.4705 H   0  0  0  0  0  0  0  0  0  0  0  0
   58.6552   33.8268   43.7224 H   0  0  0  0  0  0  0  0  0  0  0  0
   56.9021   33.5643   43.2578 H   0  0  0  0  0  0  0  0  0  0  0  0
   57.4117   34.0733   45.7273 H   0  0  0  0  0  0  0  0  0  0  0  0
   56.3554   32.6555   45.3310 H   0  0  0  0  0  0  0  0  0  0  0  0
   59.4241   28.9445   44.8124 H   0  0  0  0  0  0  0  0  0  0  0  0
   61.0266   29.3883   45.3580 H   0  0  0  0  0  0  0  0  0  0  0  0
   62.0493   30.4734   47.7624 H   0  0  0  0  0  0  0  0  0  0  0  0
   61.9320   34.7963   47.3288 H   0  0  0  0  0  0  0  0  0  0  0  0
   59.6125   34.6443   46.3750 H   0  0  0  0  0  0  0  0  0  0  0  0
  1  2  1  0
  2  3  1  0
  3  4  1  0
  4  5  1  0
  5  6  1  0
  6  7  1  0
  7  8  2  0
  7  9  1  0
  9 10  1  6
 10 11  1  0
 11 12  2  0
 11 13  1  0
 13 14  1  0
 14 15  2  0
  9 16  1  0
 16 17  2  0
 17 18  1  0
 18 19  1  0
 18 20  2  0
 20 21  1  0
 21 22  2  0
 22  6  1  0
 14  9  1  0
 22 16  1  0
  1 23  1  0
  1 24  1  0
  1 25  1  0
  2 26  1  0
  2 27  1  0
  3 28  1  0
  3 29  1  0
  4 30  1  0
  4 31  1  0
  5 32  1  0
  5 33  1  0
 10 34  1  0
 10 35  1  0
 17 36  1  0
 20 37  1  0
 21 38  1  0
M  CHG  1  13  -1
M  END
>  <UniqueID>  (14) 
12

>  <SMILES>  (14) 
CCCCCN1C(=O)[C@@]2(CC(=O)[N-]C2=O)c2cc(Cl)ccc21

>  <Energy>  (14) 
64.39386517871651

>  <Genealogy>  (14) 
CCCCCN1C(=O)C2(CC(=O)[N-]C2=O)c2cc(Cl)ccc21 (protonated)
CCCCCN1C(=O)[C@@]2(CC(=O)[N-]C2=O)c2cc(Cl)ccc21 (chirality)
CCCCCN1C(=O)[C@@]2(CC(=O)[N-]C2=O)c2cc(Cl)ccc21 (3D coordinates assigned)
CCCCCN1C(=O)[C@@]2(CC(=O)[N-]C2=O)c2cc(Cl)ccc21 (nonaromatic ring conformer: 64.39386517871651 kcal/mol)

>  <smiles>  (14) 
CCCCCN1C(=O)C2(CC(=O)NC2=O)c2cc(Cl)ccc21

>  <score_type>  (14) 
oracle

>  <origin>  (14) 
adg

>  <m_score__min__energy>  (14) 
-9.25

>  <m_primary>  (14) 
energy

$$$$
14:0
     RDKit          3D

 26 27  0  0  0  0  0  0  0  0999 V2000
   59.4010   26.9200   53.8650 C   0  0  0  0  0  0  0  0  0  0  0  0
   58.0630   26.7320   54.3160 O   0  0  0  0  0  0  0  0  0  0  0  0
   56.9840   27.5510   53.9550 C   0  0  0  0  0  0  0  0  0  0  0  0
   55.6570   27.2600   54.3220 C   0  0  0  0  0  0  0  0  0  0  0  0
   54.6160   28.1090   53.9370 C   0  0  0  0  0  0  0  0  0  0  0  0
   54.8770   29.2640   53.1790 C   0  0  0  0  0  0  0  0  0  0  0  0
   53.7710   30.1660   52.7690 C   0  0  0  0  0  0  0  0  0  0  0  0
   53.7690   30.7640   51.4940 C   0  0  0  0  0  0  0  0  0  0  0  0
   52.7260   31.6120   51.1100 C   0  0  0  0  0  0  0  0  0  0  0  0
   51.6740   31.8740   51.9910 C   0  0  0  0  0  0  0  0  0  0  0  0
   50.6390   32.7170   51.6080 O   0  0  0  0  0  0  0  0  0  0  0  0
   51.6640   31.2860   53.2600 C   0  0  0  0  0  0  0  0  0  0  0  0
   52.7040   30.4370   53.6480 C   0  0  0  0  0  0  0  0  0  0  0  0
   56.2050   29.5500   52.8140 C   0  0  0  0  0  0  0  0  0  0  0  0
   57.2460   28.7000   53.2000 C   0  0  0  0  0  0  0  0  0  0  0  0
   60.0706   27.0141   54.7326 H   0  0  0  0  0  0  0  0  0  0  0  0
   59.7078   26.0561   53.2570 H   0  0  0  0  0  0  0  0  0  0  0  0
   59.4579   27.8350   53.2570 H   0  0  0  0  0  0  0  0  0  0  0  0
   55.4381   26.3597   54.9149 H   0  0  0  0  0  0  0  0  0  0  0  0
   53.5826   27.8714   54.2297 H   0  0  0  0  0  0  0  0  0  0  0  0
   54.5942   30.5624   50.7951 H   0  0  0  0  0  0  0  0  0  0  0  0
   52.7337   32.0740   50.1118 H   0  0  0  0  0  0  0  0  0  0  0  0
   50.8359   31.4922   53.9540 H   0  0  0  0  0  0  0  0  0  0  0  0
   52.6894   29.9770   54.6471 H   0  0  0  0  0  0  0  0  0  0  0  0
   56.4263   30.4492   52.2203 H   0  0  0  0  0  0  0  0  0  0  0  0
   58.2798   28.9364   52.9078 H   0  0  0  0  0  0  0  0  0  0  0  0
  1  2  1  0
  2  3  1  0
  3  4  2  0
  4  5  1  0
  5  6  2  0
  6  7  1  0
  7  8  2  0
  8  9  1  0
  9 10  2  0
 10 11  1  0
 10 12  1  0
 12 13  2  0
  6 14  1  0
 14 15  2  0
 15  3  1  0
 13  7  1  0
  1 16  1  0
  1 17  1  0
  1 18  1  0
  4 19  1  0
  5 20  1  0
  8 21  1  0
  9 22  1  0
 12 23  1  0
 13 24  1  0
 14 25  1  0
 15 26  1  0
M  CHG  1  11  -1
M  END
>  <UniqueID>  (15) 
13

>  <SMILES>  (15) 
COc1ccc(-c2ccc([O-])cc2)cc1

>  <Energy>  (15) 
31.425953839462924

>  <Genealogy>  (15) 
COc1ccc(-c2ccc([O-])cc2)cc1 (protonated)
COc1ccc(-c2ccc([O-])cc2)cc1 (3D coordinates assigned)
COc1ccc(-c2ccc([O-])cc2)cc1 (optimized conformer: 31.425953839462924 kcal/mol)

>  <smiles>  (15) 
COc1ccc(-c2ccc(O)cc2)cc1

>  <score_type>  (15) 
oracle

>  <origin>  (15) 
adg

>  <m_score__min__energy>  (15) 
-8.5399999999999991

>  <m_primary>  (15) 
energy

$$$$
15:0
     RDKit          3D

 46 47  0  0  0  0  0  0  0  0999 V2000
   60.2469   36.1619   45.9383 H   0  0  0  0  0  0  0  0  0  0  0  0
   59.6390   35.2540   45.8110 C   0  0  0  0  0  0  0  0  0  0  0  0
   58.8750   34.7700   46.8760 C   0  0  0  0  0  0  0  0  0  0  0  0
   58.8800   35.2995   47.8402 H   0  0  0  0  0  0  0  0  0  0  0  0
   58.1040   33.6140   46.7190 C   0  0  0  0  0  0  0  0  0  0  0  0
   57.5009   33.2392   47.5591 H   0  0  0  0  0  0  0  0  0  0  0  0
   58.0970   32.9290   45.4910 C   0  0  0  0  0  0  0  0  0  0  0  0
   57.2490   31.6840   45.3180 C   0  0  2  0  0  0  0  0  0  0  0  0
   56.2278   31.9288   45.6454 H   0  0  0  0  0  0  0  0  0  0  0  0
   57.7770   30.6150   46.1060 O   0  0  0  0  0  0  0  0  0  0  0  0
   58.9350   30.6810   46.8990 C   0  0  0  0  0  0  0  0  0  0  0  0
   58.7930   31.0290   48.2450 C   0  0  0  0  0  0  0  0  0  0  0  0
   57.7928   31.2437   48.6494 H   0  0  0  0  0  0  0  0  0  0  0  0
   59.9100   31.1070   49.0830 C   0  0  0  0  0  0  0  0  0  0  0  0
   59.7799   31.3781   50.1411 H   0  0  0  0  0  0  0  0  0  0  0  0
   61.1970   30.8420   48.5850 C   0  0  0  0  0  0  0  0  0  0  0  0
   62.3900   30.9150   49.4730 C   0  0  0  0  0  0  0  0  0  0  0  0
   63.4370   31.5760   49.0580 N   0  0  0  0  0  0  0  0  0  0  0  0
   63.4520   32.7850   48.2830 C   0  0  0  0  0  0  0  0  0  0  0  0
   63.2280   34.0560   48.9040 N   0  0  0  0  0  0  0  0  0  0  0  0
   63.1760   34.1420   49.9420 H   0  0  0  0  0  0  0  0  0  0  0  0
   63.2000   34.9300   48.3340 H   0  0  0  0  0  0  0  0  0  0  0  0
   63.7820   32.7280   47.0310 N   0  0  0  0  0  0  0  0  0  0  0  0
   63.0550   32.7500   46.2810 H   0  0  0  0  0  0  0  0  0  0  0  0
   64.7860   32.6590   46.7480 H   0  0  0  0  0  0  0  0  0  0  0  0
   62.3700   30.2670   50.7610 N   0  0  0  0  0  0  0  0  0  0  0  0
   62.1400   29.2540   50.6440 H   0  0  0  0  0  0  0  0  0  0  0  0
   63.3080   30.3590   51.2120 H   0  0  0  0  0  0  0  0  0  0  0  0
   61.6290   30.6700   51.3770 H   0  0  0  0  0  0  0  0  0  0  0  0
   61.3370   30.4880   47.2300 C   0  0  0  0  0  0  0  0  0  0  0  0
   62.3360   30.2689   46.8250 H   0  0  0  0  0  0  0  0  0  0  0  0
   60.2200   30.4120   46.3940 C   0  0  0  0  0  0  0  0  0  0  0  0
   60.3462   30.1404   45.3355 H   0  0  0  0  0  0  0  0  0  0  0  0
   57.2170   31.2360   43.8440 C   0  0  0  0  0  0  0  0  0  0  0  0
   58.2289   30.9152   43.5555 H   0  0  0  0  0  0  0  0  0  0  0  0
   56.8672   32.0947   43.2522 H   0  0  0  0  0  0  0  0  0  0  0  0
   56.2440   30.0760   43.5770 C   0  0  0  0  0  0  0  0  0  0  0  0
   56.8039   29.2245   43.1630 H   0  0  0  0  0  0  0  0  0  0  0  0
   55.4789   30.4164   42.8637 H   0  0  0  0  0  0  0  0  0  0  0  0
   55.5800   29.6580   44.8090 N   0  0  0  0  0  0  0  0  0  0  0  0
   55.1420   30.5010   45.2470 H   0  0  0  0  0  0  0  0  0  0  0  0
   56.3190   29.3280   45.4710 H   0  0  0  0  0  0  0  0  0  0  0  0
   58.8610   33.4290   44.4220 C   0  0  0  0  0  0  0  0  0  0  0  0
   58.8530   32.9082   43.4531 H   0  0  0  0  0  0  0  0  0  0  0  0
   59.6310   34.5850   44.5840 C   0  0  0  0  0  0  0  0  0  0  0  0
   60.2308   34.9680   43.7452 H   0  0  0  0  0  0  0  0  0  0  0  0
  1  2  1  0
  2  3  2  0
  3  4  1  0
  3  5  1  0
  5  6  1  0
  5  7  2  0
  7  8  1  0
  8  9  1  1
  8 10  1  0
 10 11  1  0
 11 12  2  0
 12 13  1  0
 12 14  1  0
 14 15  1  0
 14 16  2  0
 16 17  1  0
 17 18  2  0
 18 19  1  0
 19 20  1  0
 20 21  1  0
 20 22  1  0
 19 23  2  0
 23 24  1  0
 23 25  1  0
 17 26  1  0
 26 27  1  0
 26 28  1  0
 26 29  1  0
 16 30  1  0
 30 31  1  0
 30 32  2  0
 32 33  1  0
  8 34  1  0
 34 35  1  0
 34 36  1  0
 34 37  1  0
 37 38  1  0
 37 39  1  0
 37 40  1  0
 40 41  1  0
 40 42  1  0
  7 43  1  0
 43 44  1  0
 43 45  2  0
 45 46  1  0
 45  2  1  0
 32 11  1  0
M  CHG  2  23   1  26   1
M  END
>  <UniqueID>  (16) 
14

>  <SMILES>  (16) 
NCC[C@@H](Oc1ccc(/C([NH3+])=N/C(N)=[NH2+])cc1)c1ccccc1

>  <Energy>  (16) 
48.042271210963065

>  <Genealogy>  (16) 
NCCC(Oc1ccc(C([NH3+])=NC(N)=[NH2+])cc1)c1ccccc1 (protonated)
NCC[C@@H](Oc1ccc(C([NH3+])=NC(N)=[NH2+])cc1)c1ccccc1 (chirality)
NCC[C@@H](Oc1ccc(/C([NH3+])=N/C(N)=[NH2+])cc1)c1ccccc1 (cis-trans isomerization)
NCC[C@@H](Oc1ccc(/C([NH3+])=N/C(N)=[NH2+])cc1)c1ccccc1 (3D coordinates assigned)
NCC[C@@H](Oc1ccc(/C([NH3+])=N/C(N)=[NH2+])cc1)c1ccccc1 (optimized conformer: 48.042271210963065 kcal/mol)

>  <smiles>  (16) 
N=C(N)N=C(N)c1ccc(OC(CCN)c2ccccc2)cc1

>  <score_type>  (16) 
oracle

>  <origin>  (16) 
adg

>  <m_score__min__energy>  (16) 
-4.5800000000000001

>  <m_primary>  (16) 
energy

$$$$
16:0
     RDKit          3D

 31 33  0  0  1  0  0  0  0  0999 V2000
   59.2530   34.5800   45.8930 C   0  0  0  0  0  0  0  0  0  0  0  0
   58.4020   34.0140   46.8440 C   0  0  0  0  0  0  0  0  0  0  0  0
   58.3880   25.2650   45.9550 C   0  0  0  0  0  0  0  0  0  0  0  0
   57.6320   26.4100   45.7040 C   0  0  0  0  0  0  0  0  0  0  0  0
   58.3220   27.5450   45.1600 N   0  0  0  0  0  0  0  0  0  0  0  0
   57.6610   28.5420   44.6710 C   0  0  0  0  0  0  0  0  0  0  0  0
   57.0260   28.6060   43.4870 N   0  0  0  0  0  0  0  0  0  0  0  0
   56.4720   29.8150   43.3750 N   0  0  0  0  0  0  0  0  0  0  0  0
   56.7630   30.4890   44.4780 C   0  0  0  0  0  0  0  0  0  0  0  0
   56.4270   31.6960   44.7900 N   0  0  0  0  0  0  0  0  0  0  0  0
   57.4090   32.6790   45.0890 C   0  0  0  0  0  0  0  0  0  0  0  0
   58.2440   33.2330   44.1470 C   0  0  0  0  0  0  0  0  0  0  0  0
   57.7730   24.1640   46.4710 C   0  0  0  0  0  0  0  0  0  0  0  0
   56.4060   24.1920   46.7420 C   0  0  0  0  0  0  0  0  0  0  0  0
   55.7030   25.3250   46.4850 N   0  0  0  0  0  0  0  0  0  0  0  0
   56.2870   26.4230   45.9760 C   0  0  0  0  0  0  0  0  0  0  0  0
   57.5110   29.7300   45.3270 N   0  0  0  0  0  0  0  0  0  0  0  0
   57.4960   33.0730   46.4260 C   0  0  0  0  0  0  0  0  0  0  0  0
   59.1750   34.1920   44.5500 C   0  0  0  0  0  0  0  0  0  0  0  0
   59.9901   35.3362   46.2010 H   0  0  0  0  0  0  0  0  0  0  0  0
   58.4567   34.3148   47.9007 H   0  0  0  0  0  0  0  0  0  0  0  0
   59.4665   25.2510   45.7392 H   0  0  0  0  0  0  0  0  0  0  0  0
   56.9820   27.8220   42.7750 H   0  0  0  0  0  0  0  0  0  0  0  0
   55.9040   30.1770   42.5610 H   0  0  0  0  0  0  0  0  0  0  0  0
   58.1793   32.9254   43.0929 H   0  0  0  0  0  0  0  0  0  0  0  0
   58.3553   23.2531   46.6737 H   0  0  0  0  0  0  0  0  0  0  0  0
   55.9028   23.3071   47.1589 H   0  0  0  0  0  0  0  0  0  0  0  0
   55.6909   27.3262   45.7787 H   0  0  0  0  0  0  0  0  0  0  0  0
   57.8950   29.9500   46.2530 H   0  0  0  0  0  0  0  0  0  0  0  0
   56.8197   32.6164   47.1636 H   0  0  0  0  0  0  0  0  0  0  0  0
   59.8503   34.6448   43.8091 H   0  0  0  0  0  0  0  0  0  0  0  0
  1  2  2  0
  2  3  1  0
  3  4  2  0
  4  5  1  0
  5  6  2  0
  6  7  1  0
  7  8  1  0
  8  9  1  0
  9 10  2  0
 10 11  1  0
 11 12  2  0
 12 13  1  0
 13 14  2  0
 14 15  1  0
 15 16  2  0
  9 17  1  0
  4 18  1  0
 18 19  2  0
 19  1  1  0
 17  6  1  0
 16 11  1  0
  1 20  1  0
  2 21  1  0
  3 22  1  0
  7 23  1  0
  8 24  1  0
 12 25  1  0
 13 26  1  0
 14 27  1  0
 16 28  1  0
 17 29  1  0
 18 30  1  0
 19 31  1  0
M  END
>  <smiles>  (17) 
c1ccc(N=c2[nH][nH]c(=Nc3cccnc3)[nH]2)cc1

>  <score_type>  (17) 
oracle

>  <origin>  (17) 
adg

>  <m_score__min__energy>  (17) 
-7.3799999999999999

>  <m_primary>  (17) 
energy

$$$$
17:0
     RDKit          3D

 42 45  0  0  0  0  0  0  0  0999 V2000
   63.5580   33.8220   46.7650 C   0  0  0  0  0  0  0  0  0  0  0  0
   63.4690   32.7650   47.7780 N   0  0  0  0  0  0  0  0  0  0  0  0
   62.0730   32.4780   48.1280 C   0  0  0  0  0  0  0  0  0  0  0  0
   61.4860   31.4510   47.1990 C   0  0  0  0  0  0  0  0  0  0  0  0
   62.2310   30.5370   46.7530 O   0  0  0  0  0  0  0  0  0  0  0  0
   60.1040   31.5100   46.7890 N   0  0  0  0  0  0  0  0  0  0  0  0
   59.2420   30.3360   47.0280 C   0  0  0  0  0  0  0  0  0  0  0  0
   58.1460   30.2460   46.0050 C   0  0  0  0  0  0  0  0  0  0  0  0
   57.3720   29.1580   45.6220 C   0  0  0  0  0  0  0  0  0  0  0  0
   57.4560   27.7570   46.0960 C   0  0  0  0  0  0  0  0  0  0  0  0
   58.6630   27.2890   46.6450 C   0  0  0  0  0  0  0  0  0  0  0  0
   58.7690   25.9740   47.1050 C   0  0  0  0  0  0  0  0  0  0  0  0
   57.6770   25.1090   47.0100 C   0  0  0  0  0  0  0  0  0  0  0  0
   57.7820   23.8320   47.4550 F   0  0  0  0  0  0  0  0  0  0  0  0
   56.4790   25.5550   46.4470 C   0  0  0  0  0  0  0  0  0  0  0  0
   56.3690   26.8710   45.9860 C   0  0  0  0  0  0  0  0  0  0  0  0
   56.5260   29.5510   44.6440 N   0  0  0  0  0  0  0  0  0  0  0  0
   56.7850   30.8650   44.4690 C   0  0  0  0  0  0  0  0  0  0  0  0
   57.7630   31.3050   45.2860 N   0  0  0  0  0  0  0  0  0  0  0  0
   58.3880   32.5900   45.3790 C   0  0  0  0  0  0  0  0  0  0  0  0
   57.8510   33.7210   44.7450 C   0  0  0  0  0  0  0  0  0  0  0  0
   58.4800   34.9620   44.8740 C   0  0  0  0  0  0  0  0  0  0  0  0
   59.6360   35.0810   45.6490 C   0  0  0  0  0  0  0  0  0  0  0  0
   60.1740   33.9610   46.2900 C   0  0  0  0  0  0  0  0  0  0  0  0
   59.5650   32.6980   46.1480 C   0  0  0  0  0  0  0  0  0  0  0  0
   63.6403   34.8000   47.2618 H   0  0  0  0  0  0  0  0  0  0  0  0
   64.4452   33.6540   46.1368 H   0  0  0  0  0  0  0  0  0  0  0  0
   62.6552   33.8047   46.1368 H   0  0  0  0  0  0  0  0  0  0  0  0
   63.8750   31.8940   47.3630 H   0  0  0  0  0  0  0  0  0  0  0  0
   62.0315   32.0964   49.1589 H   0  0  0  0  0  0  0  0  0  0  0  0
   61.4904   33.4067   48.0378 H   0  0  0  0  0  0  0  0  0  0  0  0
   59.8557   29.4245   46.9767 H   0  0  0  0  0  0  0  0  0  0  0  0
   58.7816   30.4400   48.0216 H   0  0  0  0  0  0  0  0  0  0  0  0
   59.5298   27.9629   46.7128 H   0  0  0  0  0  0  0  0  0  0  0  0
   59.7140   25.6197   47.5426 H   0  0  0  0  0  0  0  0  0  0  0  0
   55.6215   24.8708   46.3661 H   0  0  0  0  0  0  0  0  0  0  0  0
   55.4267   27.2152   45.5347 H   0  0  0  0  0  0  0  0  0  0  0  0
   56.2586   31.5026   43.7435 H   0  0  0  0  0  0  0  0  0  0  0  0
   56.9332   33.6304   44.1454 H   0  0  0  0  0  0  0  0  0  0  0  0
   58.0651   35.8448   44.3655 H   0  0  0  0  0  0  0  0  0  0  0  0
   60.1253   36.0604   45.7555 H   0  0  0  0  0  0  0  0  0  0  0  0
   61.0775   34.0662   46.9085 H   0  0  0  0  0  0  0  0  0  0  0  0
  1  2  1  0
  2  3  1  0
  3  4  1  0
  4  5  2  0
  4  6  1  0
  6  7  1  0
  7  8  1  0
  8  9  2  0
  9 10  1  0
 10 11  2  0
 11 12  1  0
 12 13  2  0
 13 14  1  0
 13 15  1  0
 15 16  2  0
  9 17  1  0
 17 18  2  0
 18 19  1  0
 19 20  1  0
 20 21  2  0
 21 22  1  0
 22 23  2  0
 23 24  1  0
 24 25  2  0
 25  6  1  0
 19  8  1  0
 25 20  1  0
 16 10  1  0
  1 26  1  0
  1 27  1  0
  1 28  1  0
  2 29  1  0
  3 30  1  0
  3 31  1  0
  7 32  1  0
  7 33  1  0
 11 34  1  0
 12 35  1  0
 15 36  1  0
 16 37  1  0
 18 38  1  0
 21 39  1  0
 22 40  1  0
 23 41  1  0
 24 42  1  0
M  END
>  <UniqueID>  (18) 
15

>  <SMILES>  (18) 
CNCC(=O)N1Cc2c(-c3ccc(F)cc3)ncn2-c2ccccc21

>  <Energy>  (18) 
89.45224929260063

>  <Genealogy>  (18) 
CNCC(=O)N1Cc2c(-c3ccc(F)cc3)ncn2-c2ccccc21 (3D coordinates assigned)
CNCC(=O)N1Cc2c(-c3ccc(F)cc3)ncn2-c2ccccc21 (nonaromatic ring conformer: 89.45224929260063 kcal/mol)

>  <smiles>  (18) 
CNCC(=O)N1Cc2c(-c3ccc(F)cc3)ncn2-c2ccccc21

>  <score_type>  (18) 
oracle

>  <origin>  (18) 
adg

>  <m_score__min__energy>  (18) 
-7.9500000000000002

>  <m_primary>  (18) 
energy

$$$$
18:0
     RDKit          3D

 31 33  0  0  0  0  0  0  0  0999 V2000
   55.7988   24.7171   46.7801 H   0  0  0  0  0  0  0  0  0  0  0  0
   56.2650   25.6510   46.4330 C   0  0  0  0  0  0  0  0  0  0  0  0
   55.5350   26.7130   45.9980 N   0  0  0  0  0  0  0  0  0  0  0  0
   56.3340   27.7380   45.6260 C   0  0  0  0  0  0  0  0  0  0  0  0
   55.8950   28.8710   45.1730 N   0  0  0  0  0  0  0  0  0  0  0  0
   56.2770   29.4230   43.8770 C   0  0  0  0  0  0  0  0  0  0  0  0
   55.3726   29.6435   43.2909 H   0  0  0  0  0  0  0  0  0  0  0  0
   56.8953   28.6929   43.3342 H   0  0  0  0  0  0  0  0  0  0  0  0
   57.0620   30.6910   44.0860 C   0  0  0  0  0  0  0  0  0  0  0  0
   57.4390   31.0730   45.3800 C   0  0  0  0  0  0  0  0  0  0  0  0
   57.1837   30.4330   46.2374 H   0  0  0  0  0  0  0  0  0  0  0  0
   58.1390   32.2660   45.5840 C   0  0  0  0  0  0  0  0  0  0  0  0
   58.5340   32.6610   46.8720 C   0  0  0  0  0  0  0  0  0  0  0  0
   58.2994   32.0225   47.7364 H   0  0  0  0  0  0  0  0  0  0  0  0
   59.2270   33.8670   47.0620 C   0  0  0  0  0  0  0  0  0  0  0  0
   59.6830   34.2670   48.4330 C   0  0  0  0  0  0  0  0  0  0  0  0
   59.0815   33.7394   49.1879 H   0  0  0  0  0  0  0  0  0  0  0  0
   60.7433   34.0023   48.5585 H   0  0  0  0  0  0  0  0  0  0  0  0
   59.5587   35.3527   48.5585 H   0  0  0  0  0  0  0  0  0  0  0  0
   59.5510   34.6600   45.9510 C   0  0  0  0  0  0  0  0  0  0  0  0
   60.1170   35.5925   46.0924 H   0  0  0  0  0  0  0  0  0  0  0  0
   59.1600   34.2740   44.6660 C   0  0  0  0  0  0  0  0  0  0  0  0
   59.4090   34.9092   43.8032 H   0  0  0  0  0  0  0  0  0  0  0  0
   58.4510   33.0790   44.4730 C   0  0  0  0  0  0  0  0  0  0  0  0
   58.0630   32.6970   43.2220 N   0  0  0  0  0  0  0  0  0  0  0  0
   58.2890   33.3060   42.4010 H   0  0  0  0  0  0  0  0  0  0  0  0
   57.3770   31.5390   43.0070 C   0  0  0  0  0  0  0  0  0  0  0  0
   57.0260   31.2350   41.8340 O   0  0  0  0  0  0  0  0  0  0  0  0
   57.9610   27.3770   45.8190 S   0  0  0  0  0  0  0  0  0  0  0  0
   57.6450   25.8320   46.4070 C   0  0  0  0  0  0  0  0  0  0  0  0
   58.3986   25.0931   46.7171 H   0  0  0  0  0  0  0  0  0  0  0  0
  1  2  1  0
  2  3  1  0
  3  4  1  0
  4  5  2  0
  5  6  1  0
  6  7  1  0
  6  8  1  0
  6  9  1  0
  9 10  2  0
 10 11  1  0
 10 12  1  0
 12 13  2  0
 13 14  1  0
 13 15  1  0
 15 16  1  0
 16 17  1  0
 16 18  1  0
 16 19  1  0
 15 20  2  0
 20 21  1  0
 20 22  1  0
 22 23  1  0
 22 24  2  0
 24 25  1  0
 25 26  1  0
 25 27  1  0
 27 28  2  0
  4 29  1  0
 29 30  1  0
 30 31  1  0
 30  2  2  0
 27  9  1  0
 24 12  1  0
M  CHG  1   3  -1
M  END
>  <UniqueID>  (19) 
16

>  <SMILES>  (19) 
Cc1ccc2[nH]c(=O)c(C/N=c3\[n-]ccs3)cc2c1

>  <Energy>  (19) 
65.45937437192052

>  <Genealogy>  (19) 
Cc1ccc2[nH]c(=O)c(CN=c3[n-]ccs3)cc2c1 (protonated)
Cc1ccc2[nH]c(=O)c(C/N=c3\[n-]ccs3)cc2c1 (cis-trans isomerization)
Cc1ccc2[nH]c(=O)c(C/N=c3\[n-]ccs3)cc2c1 (3D coordinates assigned)
Cc1ccc2[nH]c(=O)c(C/N=c3\[n-]ccs3)cc2c1 (optimized conformer: 65.45937437192052 kcal/mol)

>  <smiles>  (19) 
Cc1ccc2[nH]c(=O)c(CN=c3[nH]ccs3)cc2c1

>  <score_type>  (19) 
oracle

>  <origin>  (19) 
adg

>  <m_score__min__energy>  (19) 
-9.4900000000000002

>  <m_primary>  (19) 
energy

$$$$
19:0
     RDKit          3D

 57 60  0  0  0  0  0  0  0  0999 V2000
   56.0490   23.2460   42.9490 C   0  0  0  0  0  0  0  0  0  0  0  0
   55.2680   22.8580   44.0760 O   0  0  0  0  0  0  0  0  0  0  0  0
   55.7210   22.8910   45.4060 C   0  0  0  0  0  0  0  0  0  0  0  0
   56.4090   21.8040   45.9820 C   0  0  0  0  0  0  0  0  0  0  0  0
   56.8390   21.8640   47.3100 C   0  0  0  0  0  0  0  0  0  0  0  0
   56.5860   23.0010   48.0790 C   0  0  0  0  0  0  0  0  0  0  0  0
   55.9020   24.0840   47.5220 C   0  0  0  0  0  0  0  0  0  0  0  0
   55.4720   24.0430   46.1840 C   0  0  0  0  0  0  0  0  0  0  0  0
   54.7000   25.1990   45.6110 C   0  0  0  0  0  0  0  0  0  0  0  0
   55.3030   26.4440   46.0660 N   0  0  0  0  0  0  0  0  0  0  0  0
   56.6000   26.8930   45.6730 C   0  0  0  0  0  0  0  0  0  0  0  0
   57.5310   26.0640   45.5050 O   0  0  0  0  0  0  0  0  0  0  0  0
   56.8640   28.3260   45.4670 C   0  0  0  0  0  0  0  0  0  0  0  0
   56.0720   29.1090   44.7700 O   0  0  0  0  0  0  0  0  0  0  0  0
   56.5120   30.3340   44.7440 N   0  0  0  0  0  0  0  0  0  0  0  0
   57.6440   30.3650   45.4740 C   0  0  0  0  0  0  0  0  0  0  0  0
   58.5360   31.5700   45.5510 C   0  0  0  0  0  0  0  0  0  0  0  0
   57.5910   33.0430   46.0800 S   0  0  0  0  0  0  0  0  0  0  0  0
   58.5360   33.3170   47.5860 C   0  0  0  0  0  0  0  0  0  0  0  0
   59.4020   34.4090   47.6870 C   0  0  0  0  0  0  0  0  0  0  0  0
   60.1080   34.6120   48.8770 C   0  0  0  0  0  0  0  0  0  0  0  0
   59.9560   33.7500   49.9190 N   0  0  0  0  0  0  0  0  0  0  0  0
   59.1260   32.6740   49.8380 C   0  0  0  0  0  0  0  0  0  0  0  0
   58.4050   32.4360   48.6650 C   0  0  0  0  0  0  0  0  0  0  0  0
   57.9170   29.0930   45.9490 C   0  0  0  0  0  0  0  0  0  0  0  0
   59.0540   28.6800   46.7900 C   0  0  0  0  0  0  0  0  0  0  0  0
   59.6570   27.5980   46.5550 O   0  0  0  0  0  0  0  0  0  0  0  0
   59.4610   29.5120   47.8800 N   0  0  0  0  0  0  0  0  0  0  0  0
   60.7470   29.3890   48.5550 C   0  0  0  0  0  0  0  0  0  0  0  0
   61.5530   30.6500   48.4020 C   0  0  0  0  0  0  0  0  0  0  0  0
   61.5650   31.3330   47.1740 C   0  0  0  0  0  0  0  0  0  0  0  0
   62.2920   32.5200   47.0370 C   0  0  0  0  0  0  0  0  0  0  0  0
   63.0160   33.0270   48.1210 C   0  0  0  0  0  0  0  0  0  0  0  0
   63.0160   32.3460   49.3420 C   0  0  0  0  0  0  0  0  0  0  0  0
   62.2860   31.1640   49.4850 C   0  0  0  0  0  0  0  0  0  0  0  0
   56.9845   23.7108   43.2937 H   0  0  0  0  0  0  0  0  0  0  0  0
   56.2823   22.3590   42.3417 H   0  0  0  0  0  0  0  0  0  0  0  0
   55.4831   23.9677   42.3417 H   0  0  0  0  0  0  0  0  0  0  0  0
   56.6085   20.9035   45.3827 H   0  0  0  0  0  0  0  0  0  0  0  0
   57.3785   21.0127   47.7508 H   0  0  0  0  0  0  0  0  0  0  0  0
   56.9255   23.0442   49.1244 H   0  0  0  0  0  0  0  0  0  0  0  0
   55.6984   24.9749   48.1342 H   0  0  0  0  0  0  0  0  0  0  0  0
   54.7305   25.1544   44.5123 H   0  0  0  0  0  0  0  0  0  0  0  0
   53.6533   25.1491   45.9455 H   0  0  0  0  0  0  0  0  0  0  0  0
   59.3404   31.3777   46.2763 H   0  0  0  0  0  0  0  0  0  0  0  0
   58.9582   31.7610   44.5534 H   0  0  0  0  0  0  0  0  0  0  0  0
   59.5269   35.1006   46.8407 H   0  0  0  0  0  0  0  0  0  0  0  0
   60.7884   35.4712   48.9710 H   0  0  0  0  0  0  0  0  0  0  0  0
   59.0230   31.9925   50.6953 H   0  0  0  0  0  0  0  0  0  0  0  0
   57.7398   31.5631   48.5905 H   0  0  0  0  0  0  0  0  0  0  0  0
   60.5761   29.1977   49.6247 H   0  0  0  0  0  0  0  0  0  0  0  0
   61.3051   28.5565   48.1017 H   0  0  0  0  0  0  0  0  0  0  0  0
   61.0012   30.9331   46.3183 H   0  0  0  0  0  0  0  0  0  0  0  0
   62.2944   33.0552   46.0760 H   0  0  0  0  0  0  0  0  0  0  0  0
   63.5856   33.9618   48.0128 H   0  0  0  0  0  0  0  0  0  0  0  0
   63.5919   32.7418   50.1915 H   0  0  0  0  0  0  0  0  0  0  0  0
   62.2849   30.6336   50.4487 H   0  0  0  0  0  0  0  0  0  0  0  0
  1  2  1  0
  2  3  1  0
  3  4  2  0
  4  5  1  0
  5  6  2  0
  6  7  1  0
  7  8  2  0
  8  9  1  0
  9 10  1  0
 10 11  1  0
 11 12  2  0
 11 13  1  0
 13 14  1  0
 14 15  1  0
 15 16  2  0
 16 17  1  0
 17 18  1  0
 18 19  1  0
 19 20  2  0
 20 21  1  0
 21 22  2  0
 22 23  1  0
 23 24  2  0
 16 25  1  0
 25 26  1  0
 26 27  2  0
 26 28  1  0
 28 29  1  0
 29 30  1  0
 30 31  2  0
 31 32  1  0
 32 33  2  0
 33 34  1  0
 34 35  2  0
  8  3  1  0
 25 13  2  0
 35 30  1  0
 24 19  1  0
  1 36  1  0
  1 37  1  0
  1 38  1  0
  4 39  1  0
  5 40  1  0
  6 41  1  0
  7 42  1  0
  9 43  1  0
  9 44  1  0
 17 45  1  0
 17 46  1  0
 20 47  1  0
 21 48  1  0
 23 49  1  0
 24 50  1  0
 29 51  1  0
 29 52  1  0
 31 53  1  0
 32 54  1  0
 33 55  1  0
 34 56  1  0
 35 57  1  0
M  CHG  2  10  -1  28  -1
M  END
>  <UniqueID>  (20) 
17

>  <SMILES>  (20) 
COc1ccccc1C[N-]C(=O)c1onc(CSc2ccncc2)c1C(=O)[N-]Cc1ccccc1

>  <Energy>  (20) 
81.62486866586457

>  <Genealogy>  (20) 
COc1ccccc1C[N-]C(=O)c1onc(CSc2ccncc2)c1C(=O)[N-]Cc1ccccc1 (protonated)
COc1ccccc1C[N-]C(=O)c1onc(CSc2ccncc2)c1C(=O)[N-]Cc1ccccc1 (3D coordinates assigned)
COc1ccccc1C[N-]C(=O)c1onc(CSc2ccncc2)c1C(=O)[N-]Cc1ccccc1 (optimized conformer: 81.62486866586457 kcal/mol)

>  <smiles>  (20) 
COc1ccccc1CNC(=O)c1onc(CSc2ccncc2)c1C(=O)NCc1ccccc1

>  <score_type>  (20) 
oracle

>  <origin>  (20) 
adg

>  <m_score__min__energy>  (20) 
-12.74

>  <m_primary>  (20) 
energy

$$$$
20:0
     RDKit          3D

 45 46  0  0  0  0  0  0  0  0999 V2000
   63.0640   33.8090   46.7870 C   0  0  0  0  0  0  0  0  0  0  0  0
   62.7930   32.4470   47.4150 C   0  0  0  0  0  0  0  0  0  0  0  0
   61.6840   32.5170   48.3080 O   0  0  0  0  0  0  0  0  0  0  0  0
   60.6190   33.4100   48.1490 C   0  0  0  0  0  0  0  0  0  0  0  0
   60.5860   34.4840   48.8100 O   0  0  0  0  0  0  0  0  0  0  0  0
   59.5320   33.1180   47.1920 C   0  0  0  0  0  0  0  0  0  0  0  0
   58.8000   34.0840   46.6050 N   0  0  0  0  0  0  0  0  0  0  0  0
   57.9510   33.4830   45.7500 C   0  0  0  0  0  0  0  0  0  0  0  0
   56.9970   34.2440   44.8810 C   0  0  0  0  0  0  0  0  0  0  0  0
   58.1310   32.1040   45.7820 C   0  0  0  0  0  0  0  0  0  0  0  0
   57.4310   31.1030   44.9450 C   0  0  0  0  0  0  0  0  0  0  0  0
   57.5000   31.1670   43.6880 O   0  0  0  0  0  0  0  0  0  0  0  0
   56.6590   30.0700   45.5600 N   0  0  0  0  0  0  0  0  0  0  0  0
   56.3870   28.7900   44.9190 C   0  0  0  0  0  0  0  0  0  0  0  0
   57.2050   27.7190   45.5870 C   0  0  0  0  0  0  0  0  0  0  0  0
   58.6030   27.8540   45.6640 C   0  0  0  0  0  0  0  0  0  0  0  0
   59.3780   26.8560   46.2530 C   0  0  0  0  0  0  0  0  0  0  0  0
   58.7700   25.7080   46.7630 C   0  0  0  0  0  0  0  0  0  0  0  0
   57.3850   25.5520   46.6800 C   0  0  0  0  0  0  0  0  0  0  0  0
   56.5890   26.5520   46.0850 C   0  0  0  0  0  0  0  0  0  0  0  0
   55.1940   26.4180   45.9700 O   0  0  0  0  0  0  0  0  0  0  0  0
   54.5250   25.2110   45.6210 C   0  0  0  0  0  0  0  0  0  0  0  0
   59.1300   31.8690   46.7280 C   0  0  0  0  0  0  0  0  0  0  0  0
   59.6730   30.5340   47.1550 C   0  0  0  0  0  0  0  0  0  0  0  0
   63.2126   34.5558   47.5809 H   0  0  0  0  0  0  0  0  0  0  0  0
   63.9684   33.7518   46.1634 H   0  0  0  0  0  0  0  0  0  0  0  0
   62.2066   34.1024   46.1634 H   0  0  0  0  0  0  0  0  0  0  0  0
   62.5712   31.7201   46.6197 H   0  0  0  0  0  0  0  0  0  0  0  0
   63.6834   32.1339   47.9799 H   0  0  0  0  0  0  0  0  0  0  0  0
   58.8910   35.1140   46.7600 H   0  0  0  0  0  0  0  0  0  0  0  0
   56.2932   34.8054   45.5131 H   0  0  0  0  0  0  0  0  0  0  0  0
   57.5587   34.9448   44.2459 H   0  0  0  0  0  0  0  0  0  0  0  0
   56.4386   33.5406   44.2459 H   0  0  0  0  0  0  0  0  0  0  0  0
   55.3178   28.5501   45.0152 H   0  0  0  0  0  0  0  0  0  0  0  0
   56.6520   28.8467   43.8529 H   0  0  0  0  0  0  0  0  0  0  0  0
   59.0881   28.7533   45.2566 H   0  0  0  0  0  0  0  0  0  0  0  0
   60.4699   26.9735   46.3158 H   0  0  0  0  0  0  0  0  0  0  0  0
   59.3834   24.9242   47.2315 H   0  0  0  0  0  0  0  0  0  0  0  0
   56.9121   24.6435   47.0812 H   0  0  0  0  0  0  0  0  0  0  0  0
   54.2294   24.6777   46.5365 H   0  0  0  0  0  0  0  0  0  0  0  0
   53.6288   25.4467   45.0284 H   0  0  0  0  0  0  0  0  0  0  0  0
   55.1999   24.5759   45.0284 H   0  0  0  0  0  0  0  0  0  0  0  0
   59.6945   30.4812   48.2535 H   0  0  0  0  0  0  0  0  0  0  0  0
   59.0290   29.7335   46.7620 H   0  0  0  0  0  0  0  0  0  0  0  0
   60.6929   30.4103   46.7620 H   0  0  0  0  0  0  0  0  0  0  0  0
  1  2  1  0
  2  3  1  0
  3  4  1  0
  4  5  2  0
  4  6  1  0
  6  7  1  0
  7  8  1  0
  8  9  1  0
  8 10  2  0
 10 11  1  0
 11 12  2  0
 11 13  1  0
 13 14  1  0
 14 15  1  0
 15 16  2  0
 16 17  1  0
 17 18  2  0
 18 19  1  0
 19 20  2  0
 20 21  1  0
 21 22  1  0
 10 23  1  0
 23 24  1  0
 23  6  2  0
 20 15  1  0
  1 25  1  0
  1 26  1  0
  1 27  1  0
  2 28  1  0
  2 29  1  0
  7 30  1  0
  9 31  1  0
  9 32  1  0
  9 33  1  0
 14 34  1  0
 14 35  1  0
 16 36  1  0
 17 37  1  0
 18 38  1  0
 19 39  1  0
 22 40  1  0
 22 41  1  0
 22 42  1  0
 24 43  1  0
 24 44  1  0
 24 45  1  0
M  CHG  1  13  -1
M  END
>  <UniqueID>  (21) 
18

>  <SMILES>  (21) 
CCOC(=O)c1[nH]c(C)c(C(=O)[N-]Cc2ccccc2OC)c1C

>  <Energy>  (21) 
64.49834652466157

>  <Genealogy>  (21) 
CCOC(=O)c1[nH]c(C)c(C(=O)[N-]Cc2ccccc2OC)c1C (protonated)
CCOC(=O)c1[nH]c(C)c(C(=O)[N-]Cc2ccccc2OC)c1C (3D coordinates assigned)
CCOC(=O)c1[nH]c(C)c(C(=O)[N-]Cc2ccccc2OC)c1C (optimized conformer: 64.49834652466157 kcal/mol)

>  <smiles>  (21) 
CCOC(=O)c1[nH]c(C)c(C(=O)NCc2ccccc2OC)c1C

>  <score_type>  (21) 
oracle

>  <origin>  (21) 
adg

>  <m_score__min__energy>  (21) 
-8.6199999999999992

>  <m_primary>  (21) 
energy

$$$$
21:0
     RDKit          3D

 83 87  0  0  0  0  0  0  0  0999 V2000
   61.4270   33.1890   53.3290 C   0  0  0  0  0  0  0  0  0  0  0  0
   61.7800   33.6930   52.0000 N   0  0  0  0  0  0  0  0  0  0  0  0
   63.1890   33.9820   51.6950 C   0  0  0  0  0  0  0  0  0  0  0  0
   63.8640   32.7990   50.9880 C   0  0  0  0  0  0  0  0  0  0  0  0
   63.5030   32.7400   49.5260 C   0  0  0  0  0  0  0  0  0  0  0  0
   63.7390   33.8460   48.6900 C   0  0  0  0  0  0  0  0  0  0  0  0
   63.3930   33.7830   47.3340 C   0  0  0  0  0  0  0  0  0  0  0  0
   62.8260   32.6180   46.8040 C   0  0  0  0  0  0  0  0  0  0  0  0
   62.5980   31.5140   47.6300 C   0  0  0  0  0  0  0  0  0  0  0  0
   62.9370   31.5750   48.9870 C   0  0  0  0  0  0  0  0  0  0  0  0
   60.7320   33.8140   51.0130 C   0  0  0  0  0  0  0  0  0  0  0  0
   61.0310   34.1620   49.8350 O   0  0  0  0  0  0  0  0  0  0  0  0
   59.2960   33.4640   51.3090 C   0  0  0  0  0  0  0  0  0  0  0  0
   59.0110   32.0510   50.9850 N   0  0  0  0  0  0  0  0  0  0  0  0
   59.9100   31.3500   50.2310 C   0  0  0  0  0  0  0  0  0  0  0  0
   59.6940   30.0050   49.9150 C   0  0  0  0  0  0  0  0  0  0  0  0
   60.7050   29.2220   49.1190 C   0  0  0  0  0  0  0  0  0  0  0  0
   60.0790   28.6230   47.8860 C   0  0  0  0  0  0  0  0  0  0  0  0
   59.8260   29.4150   46.7620 C   0  0  0  0  0  0  0  0  0  0  0  0
   59.2300   28.8950   45.6470 N   0  0  0  0  0  0  0  0  0  0  0  0
   58.8680   29.8260   44.5580 C   0  0  0  0  0  0  0  0  0  0  0  0
   57.7540   30.7280   45.0050 C   0  0  0  0  0  0  0  0  0  0  0  0
   56.5580   30.3520   44.8890 O   0  0  0  0  0  0  0  0  0  0  0  0
   58.0430   32.0210   45.5490 N   0  0  0  0  0  0  0  0  0  0  0  0
   57.6310   33.1980   44.7760 C   0  0  0  0  0  0  0  0  0  0  0  0
   58.0200   34.5010   45.4810 C   0  0  0  0  0  0  0  0  0  0  0  0
   59.4150   34.3650   46.0910 C   0  0  0  0  0  0  0  0  0  0  0  0
   59.4440   33.2880   47.1860 C   0  0  0  0  0  0  0  0  0  0  0  0
   58.4530   32.1280   46.9540 C   0  0  0  0  0  0  0  0  0  0  0  0
   58.9160   27.5590   45.6140 C   0  0  0  0  0  0  0  0  0  0  0  0
   58.1930   26.7690   44.1690 S   0  0  0  0  0  0  0  0  0  0  0  0
   57.1520   25.6410   45.1580 C   0  0  0  0  0  0  0  0  0  0  0  0
   57.1060   24.2940   44.5010 C   0  0  0  0  0  0  0  0  0  0  0  0
   56.1440   24.0090   43.5190 C   0  0  0  0  0  0  0  0  0  0  0  0
   56.1230   22.7560   42.8970 C   0  0  0  0  0  0  0  0  0  0  0  0
   57.0650   21.7830   43.2520 C   0  0  0  0  0  0  0  0  0  0  0  0
   57.0540   20.5770   42.6330 F   0  0  0  0  0  0  0  0  0  0  0  0
   58.0280   22.0640   44.2260 C   0  0  0  0  0  0  0  0  0  0  0  0
   58.0520   23.3150   44.8440 C   0  0  0  0  0  0  0  0  0  0  0  0
   59.1570   26.7780   46.6990 N   0  0  0  0  0  0  0  0  0  0  0  0
   59.7160   27.2740   47.8290 C   0  0  0  0  0  0  0  0  0  0  0  0
   59.9010   26.5170   48.8170 O   0  0  0  0  0  0  0  0  0  0  0  0
   58.5250   29.4000   50.3890 C   0  0  0  0  0  0  0  0  0  0  0  0
   57.6670   30.1060   51.1610 N   0  0  0  0  0  0  0  0  0  0  0  0
   57.8990   31.4090   51.4740 C   0  0  0  0  0  0  0  0  0  0  0  0
   57.0890   32.0070   52.2250 O   0  0  0  0  0  0  0  0  0  0  0  0
   61.8785   33.8337   54.0975 H   0  0  0  0  0  0  0  0  0  0  0  0
   60.3330   33.1926   53.4439 H   0  0  0  0  0  0  0  0  0  0  0  0
   61.8043   32.1621   53.4439 H   0  0  0  0  0  0  0  0  0  0  0  0
   63.2396   34.8654   51.0415 H   0  0  0  0  0  0  0  0  0  0  0  0
   63.7171   34.1657   52.6423 H   0  0  0  0  0  0  0  0  0  0  0  0
   64.9550   32.9040   51.0813 H   0  0  0  0  0  0  0  0  0  0  0  0
   63.5136   31.8713   51.4641 H   0  0  0  0  0  0  0  0  0  0  0  0
   64.1946   34.7593   49.1003 H   0  0  0  0  0  0  0  0  0  0  0  0
   63.5675   34.6524   46.6831 H   0  0  0  0  0  0  0  0  0  0  0  0
   62.5600   32.5715   45.7377 H   0  0  0  0  0  0  0  0  0  0  0  0
   62.1527   30.5981   47.2144 H   0  0  0  0  0  0  0  0  0  0  0  0
   62.7584   30.7040   49.6346 H   0  0  0  0  0  0  0  0  0  0  0  0
   59.0987   33.6336   52.3778 H   0  0  0  0  0  0  0  0  0  0  0  0
   58.6481   34.1004   50.6883 H   0  0  0  0  0  0  0  0  0  0  0  0
   60.8184   31.8521   49.8667 H   0  0  0  0  0  0  0  0  0  0  0  0
   61.5223   29.8934   48.8169 H   0  0  0  0  0  0  0  0  0  0  0  0
   61.0881   28.4051   49.7482 H   0  0  0  0  0  0  0  0  0  0  0  0
   60.1120   30.4771   46.7751 H   0  0  0  0  0  0  0  0  0  0  0  0
   59.7450   30.4342   44.2917 H   0  0  0  0  0  0  0  0  0  0  0  0
   58.5364   29.2478   43.6829 H   0  0  0  0  0  0  0  0  0  0  0  0
   58.1186   33.1662   43.7905 H   0  0  0  0  0  0  0  0  0  0  0  0
   56.5360   33.1761   44.6739 H   0  0  0  0  0  0  0  0  0  0  0  0
   58.0193   35.3247   44.7519 H   0  0  0  0  0  0  0  0  0  0  0  0
   57.2939   34.7116   46.2800 H   0  0  0  0  0  0  0  0  0  0  0  0
   60.1269   34.0897   45.2989 H   0  0  0  0  0  0  0  0  0  0  0  0
   59.6904   35.3284   46.5449 H   0  0  0  0  0  0  0  0  0  0  0  0
   60.4604   32.8701   47.2329 H   0  0  0  0  0  0  0  0  0  0  0  0
   59.1437   33.7797   48.1231 H   0  0  0  0  0  0  0  0  0  0  0  0
   58.9340   31.1857   47.2553 H   0  0  0  0  0  0  0  0  0  0  0  0
   57.5529   32.3281   47.5538 H   0  0  0  0  0  0  0  0  0  0  0  0
   57.5768   25.5416   46.1678 H   0  0  0  0  0  0  0  0  0  0  0  0
   56.1329   26.0495   45.2261 H   0  0  0  0  0  0  0  0  0  0  0  0
   55.4045   24.7732   43.2378 H   0  0  0  0  0  0  0  0  0  0  0  0
   55.3667   22.5354   42.1293 H   0  0  0  0  0  0  0  0  0  0  0  0
   58.7671   21.2986   44.5053 H   0  0  0  0  0  0  0  0  0  0  0  0
   58.8162   23.5352   45.6039 H   0  0  0  0  0  0  0  0  0  0  0  0
   58.3040   28.3529   50.1347 H   0  0  0  0  0  0  0  0  0  0  0  0
  1  2  1  0
  2  3  1  0
  3  4  1  0
  4  5  1  0
  5  6  2  0
  6  7  1  0
  7  8  2  0
  8  9  1  0
  9 10  2  0
  2 11  1  0
 11 12  2  0
 11 13  1  0
 13 14  1  0
 14 15  1  0
 15 16  2  0
 16 17  1  0
 17 18  1  0
 18 19  2  0
 19 20  1  0
 20 21  1  0
 21 22  1  0
 22 23  2  0
 22 24  1  0
 24 25  1  0
 25 26  1  0
 26 27  1  0
 27 28  1  0
 28 29  1  0
 20 30  1  0
 30 31  1  0
 31 32  1  0
 32 33  1  0
 33 34  2  0
 34 35  1  0
 35 36  2  0
 36 37  1  0
 36 38  1  0
 38 39  2  0
 30 40  2  0
 40 41  1  0
 41 42  2  0
 16 43  1  0
 43 44  2  0
 44 45  1  0
 45 46  2  0
 10  5  1  0
 45 14  1  0
 41 18  1  0
 29 24  1  0
 39 33  1  0
  1 47  1  0
  1 48  1  0
  1 49  1  0
  3 50  1  0
  3 51  1  0
  4 52  1  0
  4 53  1  0
  6 54  1  0
  7 55  1  0
  8 56  1  0
  9 57  1  0
 10 58  1  0
 13 59  1  0
 13 60  1  0
 15 61  1  0
 17 62  1  0
 17 63  1  0
 19 64  1  0
 21 65  1  0
 21 66  1  0
 25 67  1  0
 25 68  1  0
 26 69  1  0
 26 70  1  0
 27 71  1  0
 27 72  1  0
 28 73  1  0
 28 74  1  0
 29 75  1  0
 29 76  1  0
 32 77  1  0
 32 78  1  0
 34 79  1  0
 35 80  1  0
 38 81  1  0
 39 82  1  0
 43 83  1  0
M  END
>  <UniqueID>  (22) 
19

>  <SMILES>  (22) 
CN(CCc1ccccc1)C(=O)Cn1cc(Cc2cn(CC(=O)N3CCCCC3)c(SCc3ccc(F)cc3)nc2=O)cnc1=O

>  <Energy>  (22) 
82.43656034401951

>  <Genealogy>  (22) 
CN(CCc1ccccc1)C(=O)Cn1cc(Cc2cn(CC(=O)N3CCCCC3)c(SCc3ccc(F)cc3)nc2=O)cnc1=O (3D coordinates assigned)
CN(CCc1ccccc1)C(=O)Cn1cc(Cc2cn(CC(=O)N3CCCCC3)c(SCc3ccc(F)cc3)nc2=O)cnc1=O (nonaromatic ring conformer: 82.43656034401951 kcal/mol)

>  <smiles>  (22) 
CN(CCc1ccccc1)C(=O)Cn1cc(Cc2cn(CC(=O)N3CCCCC3)c(SCc3ccc(F)cc3)nc2=O)cnc1=O

>  <score_type>  (22) 
oracle

>  <origin>  (22) 
adg

>  <m_score__min__energy>  (22) 
-10.69

>  <m_primary>  (22) 
energy

$$$$
22:0
     RDKit          3D

 44 44  0  0  0  0  0  0  0  0999 V2000
   58.9920   34.6360   45.2290 C   0  0  0  0  0  0  0  0  0  0  0  0
   58.4950   33.4920   44.3460 C   0  0  0  0  0  0  0  0  0  0  0  0
   57.2220   32.8430   44.9090 C   0  0  0  0  0  0  0  0  0  0  0  0
   57.3230   31.3670   44.9030 N   0  0  0  0  0  0  0  0  0  0  0  0
   58.7040   30.8230   44.8170 C   0  0  0  0  0  0  0  0  0  0  0  0
   58.9450   29.5470   45.6450 C   0  0  0  0  0  0  0  0  0  0  0  0
   59.2120   29.9110   46.9970 O   0  0  0  0  0  0  0  0  0  0  0  0
   60.0990   30.9240   47.3980 C   0  0  0  0  0  0  0  0  0  0  0  0
   61.4840   30.6990   47.4730 C   0  0  0  0  0  0  0  0  0  0  0  0
   62.3440   31.7170   47.8710 C   0  0  0  0  0  0  0  0  0  0  0  0
   61.8480   32.9780   48.2030 C   0  0  0  0  0  0  0  0  0  0  0  0
   63.0200   34.2000   48.6950 Cl  0  0  0  0  0  0  0  0  0  0  0  0
   60.4570   33.2340   48.1370 C   0  0  0  0  0  0  0  0  0  0  0  0
   59.8990   34.5930   48.4930 C   0  0  0  0  0  0  0  0  0  0  0  0
   59.5810   32.1930   47.7280 C   0  0  0  0  0  0  0  0  0  0  0  0
   58.1610   32.4110   47.6450 N   0  0  0  0  0  0  0  0  0  0  0  0
   56.2720   30.6740   44.1080 C   0  0  0  0  0  0  0  0  0  0  0  0
   56.6430   30.4590   42.6330 C   0  0  0  0  0  0  0  0  0  0  0  0
   55.8840   29.3490   44.7760 C   0  0  0  0  0  0  0  0  0  0  0  0
   58.8725   34.3609   46.2873 H   0  0  0  0  0  0  0  0  0  0  0  0
   60.0544   34.8274   45.0176 H   0  0  0  0  0  0  0  0  0  0  0  0
   58.4069   35.5432   45.0176 H   0  0  0  0  0  0  0  0  0  0  0  0
   58.2787   33.8862   43.3421 H   0  0  0  0  0  0  0  0  0  0  0  0
   59.2813   32.7236   44.3103 H   0  0  0  0  0  0  0  0  0  0  0  0
   57.0712   33.1876   45.9427 H   0  0  0  0  0  0  0  0  0  0  0  0
   56.3731   33.1354   44.2735 H   0  0  0  0  0  0  0  0  0  0  0  0
   58.9166   30.5927   43.7626 H   0  0  0  0  0  0  0  0  0  0  0  0
   59.3685   31.5942   45.2336 H   0  0  0  0  0  0  0  0  0  0  0  0
   58.0505   28.9080   45.6055 H   0  0  0  0  0  0  0  0  0  0  0  0
   59.8032   28.9953   45.2337 H   0  0  0  0  0  0  0  0  0  0  0  0
   61.8911   29.7102   47.2150 H   0  0  0  0  0  0  0  0  0  0  0  0
   63.4260   31.5260   47.9245 H   0  0  0  0  0  0  0  0  0  0  0  0
   59.8564   34.6967   49.5873 H   0  0  0  0  0  0  0  0  0  0  0  0
   60.5481   35.3768   48.0754 H   0  0  0  0  0  0  0  0  0  0  0  0
   58.8864   34.6945   48.0754 H   0  0  0  0  0  0  0  0  0  0  0  0
   57.5410   31.8430   47.0290 H   0  0  0  0  0  0  0  0  0  0  0  0
   57.6940   33.1550   48.2090 H   0  0  0  0  0  0  0  0  0  0  0  0
   55.4027   31.3480   44.0964 H   0  0  0  0  0  0  0  0  0  0  0  0
   57.5932   29.9084   42.5704 H   0  0  0  0  0  0  0  0  0  0  0  0
   55.8504   29.8803   42.1362 H   0  0  0  0  0  0  0  0  0  0  0  0
   56.7511   31.4344   42.1362 H   0  0  0  0  0  0  0  0  0  0  0  0
   55.9182   29.4657   45.8693 H   0  0  0  0  0  0  0  0  0  0  0  0
   54.8658   29.0679   44.4689 H   0  0  0  0  0  0  0  0  0  0  0  0
   56.5897   28.5631   44.4689 H   0  0  0  0  0  0  0  0  0  0  0  0
  1  2  1  0
  2  3  1  0
  3  4  1  0
  4  5  1  0
  5  6  1  0
  6  7  1  0
  7  8  1  0
  8  9  2  0
  9 10  1  0
 10 11  2  0
 11 12  1  0
 11 13  1  0
 13 14  1  0
 13 15  2  0
 15 16  1  0
  4 17  1  0
 17 18  1  0
 17 19  1  0
 15  8  1  0
  1 20  1  0
  1 21  1  0
  1 22  1  0
  2 23  1  0
  2 24  1  0
  3 25  1  0
  3 26  1  0
  5 27  1  0
  5 28  1  0
  6 29  1  0
  6 30  1  0
  9 31  1  0
 10 32  1  0
 14 33  1  0
 14 34  1  0
 14 35  1  0
 16 36  1  0
 16 37  1  0
 17 38  1  0
 18 39  1  0
 18 40  1  0
 18 41  1  0
 19 42  1  0
 19 43  1  0
 19 44  1  0
M  END
>  <UniqueID>  (23) 
20

>  <SMILES>  (23) 
CCCN(CCOc1ccc(Cl)c(C)c1N)C(C)C

>  <Energy>  (23) 
47.2333488338047

>  <Genealogy>  (23) 
CCCN(CCOc1ccc(Cl)c(C)c1N)C(C)C (3D coordinates assigned)
CCCN(CCOc1ccc(Cl)c(C)c1N)C(C)C (optimized conformer: 47.2333488338047 kcal/mol)

>  <smiles>  (23) 
CCCN(CCOc1ccc(Cl)c(C)c1N)C(C)C

>  <score_type>  (23) 
oracle

>  <origin>  (23) 
adg

>  <m_score__min__energy>  (23) 
-6.7699999999999996

>  <m_primary>  (23) 
energy

$$$$
23:0
     RDKit          3D

 38 40  0  0  0  0  0  0  0  0999 V2000
   58.8690   27.7030   44.3120 O   0  0  0  0  0  0  0  0  0  0  0  0
   57.9980   28.2260   45.0610 C   0  0  0  0  0  0  0  0  0  0  0  0
   57.0990   27.3810   45.7960 N   0  0  0  0  0  0  0  0  0  0  0  0
   57.2790   25.9300   45.8270 C   0  0  0  0  0  0  0  0  0  0  0  0
   55.9650   25.2320   45.6640 C   0  0  0  0  0  0  0  0  0  0  0  0
   55.7900   23.9270   45.2520 C   0  0  0  0  0  0  0  0  0  0  0  0
   54.4250   23.7300   45.2160 C   0  0  0  0  0  0  0  0  0  0  0  0
   53.8560   24.9280   45.6030 C   0  0  0  0  0  0  0  0  0  0  0  0
   54.7990   25.8040   45.8610 O   0  0  0  0  0  0  0  0  0  0  0  0
   57.9090   29.7030   45.1510 C   0  0  0  0  0  0  0  0  0  0  0  0
   58.2660   30.3820   46.3310 C   0  0  0  0  0  0  0  0  0  0  0  0
   58.1770   31.7750   46.4020 C   0  0  0  0  0  0  0  0  0  0  0  0
   57.7370   32.5150   45.2940 C   0  0  0  0  0  0  0  0  0  0  0  0
   57.5990   34.0100   45.3820 C   0  0  0  0  0  0  0  0  0  0  0  0
   59.1510   34.8410   44.8900 S   0  0  0  0  0  0  0  0  0  0  0  0
   60.0310   34.4180   46.3910 C   0  0  0  0  0  0  0  0  0  0  0  0
   61.2880   33.9040   46.3180 N   0  0  0  0  0  0  0  0  0  0  0  0
   61.9790   33.5910   47.4450 C   0  0  0  0  0  0  0  0  0  0  0  0
   61.3960   33.7920   48.6960 C   0  0  0  0  0  0  0  0  0  0  0  0
   60.1040   34.3130   48.7520 C   0  0  0  0  0  0  0  0  0  0  0  0
   59.4460   34.6150   47.6020 N   0  0  0  0  0  0  0  0  0  0  0  0
   57.3900   31.8440   44.1140 C   0  0  0  0  0  0  0  0  0  0  0  0
   57.4820   30.4500   44.0400 C   0  0  0  0  0  0  0  0  0  0  0  0
   56.2700   27.8040   46.2700 H   0  0  0  0  0  0  0  0  0  0  0  0
   57.9507   25.6316   45.0086 H   0  0  0  0  0  0  0  0  0  0  0  0
   57.7124   25.6473   46.7977 H   0  0  0  0  0  0  0  0  0  0  0  0
   56.5744   23.1967   45.0042 H   0  0  0  0  0  0  0  0  0  0  0  0
   53.8969   22.8066   44.9360 H   0  0  0  0  0  0  0  0  0  0  0  0
   52.7757   25.1190   45.6829 H   0  0  0  0  0  0  0  0  0  0  0  0
   58.6176   29.8122   47.2037 H   0  0  0  0  0  0  0  0  0  0  0  0
   58.4534   32.2941   47.3316 H   0  0  0  0  0  0  0  0  0  0  0  0
   56.7886   34.3364   44.7136 H   0  0  0  0  0  0  0  0  0  0  0  0
   57.3717   34.2803   46.4238 H   0  0  0  0  0  0  0  0  0  0  0  0
   62.9965   33.1797   47.3710 H   0  0  0  0  0  0  0  0  0  0  0  0
   61.9432   33.5450   49.6177 H   0  0  0  0  0  0  0  0  0  0  0  0
   59.6184   34.4792   49.7249 H   0  0  0  0  0  0  0  0  0  0  0  0
   57.0433   32.4164   43.2410 H   0  0  0  0  0  0  0  0  0  0  0  0
   57.2180   29.9346   43.1048 H   0  0  0  0  0  0  0  0  0  0  0  0
  1  2  2  0
  2  3  1  0
  3  4  1  0
  4  5  1  0
  5  6  2  0
  6  7  1  0
  7  8  2  0
  8  9  1  0
  2 10  1  0
 10 11  2  0
 11 12  1  0
 12 13  2  0
 13 14  1  0
 14 15  1  0
 15 16  1  0
 16 17  2  0
 17 18  1  0
 18 19  2  0
 19 20  1  0
 20 21  2  0
 13 22  1  0
 22 23  2  0
  9  5  1  0
 23 10  1  0
 21 16  1  0
  3 24  1  0
  4 25  1  0
  4 26  1  0
  6 27  1  0
  7 28  1  0
  8 29  1  0
 11 30  1  0
 12 31  1  0
 14 32  1  0
 14 33  1  0
 18 34  1  0
 19 35  1  0
 20 36  1  0
 22 37  1  0
 23 38  1  0
M  END
>  <UniqueID>  (24) 
21

>  <SMILES>  (24) 
O=C(NCc1ccco1)c1ccc(CSc2ncccn2)cc1

>  <Energy>  (24) 
62.36623264251948

>  <Genealogy>  (24) 
O=C(NCc1ccco1)c1ccc(CSc2ncccn2)cc1 (3D coordinates assigned)
O=C(NCc1ccco1)c1ccc(CSc2ncccn2)cc1 (optimized conformer: 62.36623264251948 kcal/mol)

>  <smiles>  (24) 
O=C(NCc1ccco1)c1ccc(CSc2ncccn2)cc1

>  <score_type>  (24) 
oracle

>  <origin>  (24) 
adg

>  <m_score__min__energy>  (24) 
-7.3300000000000001

>  <m_primary>  (24) 
energy

$$$$
24:0
     RDKit          3D

 42 44  0  0  0  0  0  0  0  0999 V2000
   60.2140   29.4060   48.8450 C   0  0  0  0  0  0  0  0  0  0  0  0
   59.3810   31.0120   48.6520 S   0  0  0  0  0  0  0  0  0  0  0  0
   60.8500   31.8340   48.0110 C   0  0  0  0  0  0  0  0  0  0  0  0
   61.9340   31.0280   47.6380 C   0  0  0  0  0  0  0  0  0  0  0  0
   63.1200   31.6000   47.1790 C   0  0  0  0  0  0  0  0  0  0  0  0
   63.2380   32.9850   47.0910 C   0  0  0  0  0  0  0  0  0  0  0  0
   62.1680   33.8040   47.4550 C   0  0  0  0  0  0  0  0  0  0  0  0
   60.9560   33.2470   47.9080 C   0  0  0  0  0  0  0  0  0  0  0  0
   59.8420   34.1600   48.2700 C   0  0  0  0  0  0  0  0  0  0  0  0
   59.6740   34.5130   49.4670 O   0  0  0  0  0  0  0  0  0  0  0  0
   58.9280   34.5960   47.2550 N   0  0  0  0  0  0  0  0  0  0  0  0
   58.4830   33.8240   46.1330 C   0  0  0  0  0  0  0  0  0  0  0  0
   58.2370   34.3200   44.8700 C   0  0  0  0  0  0  0  0  0  0  0  0
   57.7710   33.3210   44.0950 N   0  0  0  0  0  0  0  0  0  0  0  0
   57.7200   32.2280   44.8410 N   0  0  0  0  0  0  0  0  0  0  0  0
   57.1460   30.6980   44.2770 S   0  0  0  0  0  0  0  0  0  0  0  0
   57.1320   30.6900   42.7740 O   0  0  0  0  0  0  0  0  0  0  0  0
   55.7450   30.4700   44.7720 O   0  0  0  0  0  0  0  0  0  0  0  0
   58.1930   29.4220   44.8880 C   0  0  0  0  0  0  0  0  0  0  0  0
   57.6340   28.2650   45.4470 C   0  0  0  0  0  0  0  0  0  0  0  0
   58.4620   27.2620   45.9610 C   0  0  0  0  0  0  0  0  0  0  0  0
   59.8580   27.4040   45.9170 C   0  0  0  0  0  0  0  0  0  0  0  0
   60.7450   26.3480   46.5070 C   0  0  0  0  0  0  0  0  0  0  0  0
   60.4140   28.5760   45.3800 C   0  0  0  0  0  0  0  0  0  0  0  0
   59.5850   29.5770   44.8660 C   0  0  0  0  0  0  0  0  0  0  0  0
   58.1370   32.4890   46.0920 C   0  0  0  0  0  0  0  0  0  0  0  0
   60.3312   29.1800   49.9151 H   0  0  0  0  0  0  0  0  0  0  0  0
   59.6099   28.6200   48.3683 H   0  0  0  0  0  0  0  0  0  0  0  0
   61.2045   29.4471   48.3683 H   0  0  0  0  0  0  0  0  0  0  0  0
   61.8485   29.9336   47.7080 H   0  0  0  0  0  0  0  0  0  0  0  0
   63.9630   30.9569   46.8862 H   0  0  0  0  0  0  0  0  0  0  0  0
   64.1764   33.4343   46.7339 H   0  0  0  0  0  0  0  0  0  0  0  0
   62.2723   34.8969   47.3874 H   0  0  0  0  0  0  0  0  0  0  0  0
   58.3951   35.3599   44.5482 H   0  0  0  0  0  0  0  0  0  0  0  0
   56.5411   28.1454   45.4816 H   0  0  0  0  0  0  0  0  0  0  0  0
   58.0174   26.3576   46.4018 H   0  0  0  0  0  0  0  0  0  0  0  0
   60.6995   26.4022   47.6047 H   0  0  0  0  0  0  0  0  0  0  0  0
   60.4053   25.3560   46.1745 H   0  0  0  0  0  0  0  0  0  0  0  0
   61.7807   26.5114   46.1745 H   0  0  0  0  0  0  0  0  0  0  0  0
   61.5061   28.7069   45.3637 H   0  0  0  0  0  0  0  0  0  0  0  0
   60.0276   30.4906   44.4423 H   0  0  0  0  0  0  0  0  0  0  0  0
   58.1920   31.7734   46.9256 H   0  0  0  0  0  0  0  0  0  0  0  0
  1  2  1  0
  2  3  1  0
  3  4  2  0
  4  5  1  0
  5  6  2  0
  6  7  1  0
  7  8  2  0
  8  9  1  0
  9 10  2  0
  9 11  1  0
 11 12  1  0
 12 13  1  0
 13 14  2  0
 14 15  1  0
 15 16  1  0
 16 17  2  0
 16 18  2  0
 16 19  1  0
 19 20  2  0
 20 21  1  0
 21 22  2  0
 22 23  1  0
 22 24  1  0
 24 25  2  0
 15 26  1  0
  8  3  1  0
 26 12  2  0
 25 19  1  0
  1 27  1  0
  1 28  1  0
  1 29  1  0
  4 30  1  0
  5 31  1  0
  6 32  1  0
  7 33  1  0
 13 34  1  0
 20 35  1  0
 21 36  1  0
 23 37  1  0
 23 38  1  0
 23 39  1  0
 24 40  1  0
 25 41  1  0
 26 42  1  0
M  CHG  1  11  -1
M  END
>  <UniqueID>  (25) 
22

>  <SMILES>  (25) 
CSc1ccccc1C(=O)[N-]c1cnn(S(=O)(=O)c2ccc(C)cc2)c1

>  <Energy>  (25) 
78.41339482570909

>  <Genealogy>  (25) 
CSc1ccccc1C(=O)[N-]c1cnn(S(=O)(=O)c2ccc(C)cc2)c1 (protonated)
CSc1ccccc1C(=O)[N-]c1cnn(S(=O)(=O)c2ccc(C)cc2)c1 (3D coordinates assigned)
CSc1ccccc1C(=O)[N-]c1cnn(S(=O)(=O)c2ccc(C)cc2)c1 (optimized conformer: 78.41339482570909 kcal/mol)

>  <smiles>  (25) 
CSc1ccccc1C(=O)Nc1cnn(S(=O)(=O)c2ccc(C)cc2)c1

>  <score_type>  (25) 
oracle

>  <origin>  (25) 
adg

>  <m_score__min__energy>  (25) 
-10.57

>  <m_primary>  (25) 
energy

$$$$
25:0
     RDKit          3D

 61 63  0  0  0  0  0  0  0  0999 V2000
   60.0090   29.5760   52.9320 C   0  0  0  0  0  0  0  0  0  0  0  0
   59.5840   30.5070   51.8250 C   0  0  0  0  0  0  0  0  0  0  0  0
   58.3250   31.1260   51.9100 C   0  0  0  0  0  0  0  0  0  0  0  0
   57.8910   31.9940   50.9100 C   0  0  0  0  0  0  0  0  0  0  0  0
   58.7020   32.2500   49.8090 C   0  0  0  0  0  0  0  0  0  0  0  0
   59.9660   31.6550   49.6980 C   0  0  0  0  0  0  0  0  0  0  0  0
   60.7570   31.9170   48.5230 N   0  0  0  0  0  0  0  0  0  0  0  0
   61.0810   30.8200   47.6340 C   0  0  0  0  0  0  0  0  0  0  0  0
   62.2020   30.7820   47.0620 O   0  0  0  0  0  0  0  0  0  0  0  0
   60.1030   29.7470   47.3520 C   0  0  0  0  0  0  0  0  0  0  0  0
   60.0090   28.2770   48.1280 S   0  0  0  0  0  0  0  0  0  0  0  0
   58.6490   27.6430   47.4280 N   0  0  0  0  0  0  0  0  0  0  0  0
   58.2100   28.5850   46.5510 C   0  0  0  0  0  0  0  0  0  0  0  0
   57.0270   28.3040   45.7040 C   0  0  0  0  0  0  0  0  0  0  0  0
   56.5000   26.9760   45.6200 N   0  0  0  0  0  0  0  0  0  0  0  0
   56.4860   29.2160   45.0250 O   0  0  0  0  0  0  0  0  0  0  0  0
   58.9940   29.7790   46.4990 C   0  0  0  0  0  0  0  0  0  0  0  0
   58.6960   30.9070   45.6680 N   0  0  0  0  0  0  0  0  0  0  0  0
   61.4280   33.2320   48.4220 C   0  0  2  0  0  0  0  0  0  0  0  0
   61.6220   33.6670   46.9890 C   0  0  0  0  0  0  0  0  0  0  0  0
   62.6860   34.2400   46.6290 O   0  0  0  0  0  0  0  0  0  0  0  0
   60.5600   33.4460   46.0520 N   0  0  0  0  0  0  0  0  0  0  0  0
   59.3460   34.2550   45.8930 C   0  0  0  0  0  0  0  0  0  0  0  0
   59.6850   35.7520   46.0230 C   0  0  0  0  0  0  0  0  0  0  0  0
   58.3730   33.8620   47.0140 C   0  0  0  0  0  0  0  0  0  0  0  0
   58.6890   33.9660   44.5310 C   0  0  0  0  0  0  0  0  0  0  0  0
   62.7070   33.2590   49.2410 C   0  0  0  0  0  0  0  0  0  0  0  0
   63.8330   32.4730   48.9240 C   0  0  0  0  0  0  0  0  0  0  0  0
   64.9710   32.5200   49.7290 C   0  0  0  0  0  0  0  0  0  0  0  0
   64.9830   33.3470   50.8510 C   0  0  0  0  0  0  0  0  0  0  0  0
   63.8920   34.0960   51.1550 N   0  0  0  0  0  0  0  0  0  0  0  0
   62.7700   34.0690   50.3880 C   0  0  0  0  0  0  0  0  0  0  0  0
   60.4350   30.7990   50.7270 C   0  0  0  0  0  0  0  0  0  0  0  0
   61.8150   30.1910   50.6380 C   0  0  0  0  0  0  0  0  0  0  0  0
   59.7961   30.0423   53.9053 H   0  0  0  0  0  0  0  0  0  0  0  0
   59.4534   28.6302   52.8492 H   0  0  0  0  0  0  0  0  0  0  0  0
   61.0875   29.3762   52.8492 H   0  0  0  0  0  0  0  0  0  0  0  0
   57.6758   30.9232   52.7745 H   0  0  0  0  0  0  0  0  0  0  0  0
   56.9062   32.4773   50.9912 H   0  0  0  0  0  0  0  0  0  0  0  0
   58.3474   32.9265   49.0174 H   0  0  0  0  0  0  0  0  0  0  0  0
   55.6760   26.7780   45.0100 H   0  0  0  0  0  0  0  0  0  0  0  0
   56.9230   26.1880   46.1590 H   0  0  0  0  0  0  0  0  0  0  0  0
   59.2920   31.7620   45.6930 H   0  0  0  0  0  0  0  0  0  0  0  0
   57.8490   30.9370   45.0630 H   0  0  0  0  0  0  0  0  0  0  0  0
   60.7594   33.9856   48.8636 H   0  0  0  0  0  0  0  0  0  0  0  0
   59.7464   36.0230   47.0873 H   0  0  0  0  0  0  0  0  0  0  0  0
   60.6513   35.9527   45.5372 H   0  0  0  0  0  0  0  0  0  0  0  0
   58.8994   36.3494   45.5372 H   0  0  0  0  0  0  0  0  0  0  0  0
   58.8427   34.0517   47.9904 H   0  0  0  0  0  0  0  0  0  0  0  0
   57.4533   34.4592   46.9273 H   0  0  0  0  0  0  0  0  0  0  0  0
   58.1260   32.7936   46.9273 H   0  0  0  0  0  0  0  0  0  0  0  0
   57.6927   33.5277   44.6901 H   0  0  0  0  0  0  0  0  0  0  0  0
   58.5908   34.9040   43.9649 H   0  0  0  0  0  0  0  0  0  0  0  0
   59.3141   33.2598   43.9649 H   0  0  0  0  0  0  0  0  0  0  0  0
   63.8143   31.8203   48.0388 H   0  0  0  0  0  0  0  0  0  0  0  0
   65.8517   31.9095   49.4805 H   0  0  0  0  0  0  0  0  0  0  0  0
   65.8768   33.3929   51.4905 H   0  0  0  0  0  0  0  0  0  0  0  0
   61.9037   34.6866   50.6675 H   0  0  0  0  0  0  0  0  0  0  0  0
   62.2059   30.0188   51.6517 H   0  0  0  0  0  0  0  0  0  0  0  0
   61.7599   29.2338   50.0988 H   0  0  0  0  0  0  0  0  0  0  0  0
   62.4841   30.8776   50.0988 H   0  0  0  0  0  0  0  0  0  0  0  0
  1  2  1  0
  2  3  2  0
  3  4  1  0
  4  5  2  0
  5  6  1  0
  6  7  1  0
  7  8  1  0
  8  9  2  0
  8 10  1  0
 10 11  1  0
 11 12  1  0
 12 13  2  0
 13 14  1  0
 14 15  1  0
 14 16  2  0
 13 17  1  0
 17 18  1  0
  7 19  1  0
 19 20  1  0
 20 21  2  0
 20 22  1  0
 22 23  1  0
 23 24  1  0
 23 25  1  0
 23 26  1  0
 19 27  1  0
 27 28  2  0
 28 29  1  0
 29 30  2  0
 30 31  1  0
 31 32  2  0
  6 33  2  0
 33 34  1  0
 33  2  1  0
 17 10  2  0
 32 27  1  0
  1 35  1  0
  1 36  1  0
  1 37  1  0
  3 38  1  0
  4 39  1  0
  5 40  1  0
 15 41  1  0
 15 42  1  0
 18 43  1  0
 18 44  1  0
 19 45  1  1
 24 46  1  0
 24 47  1  0
 24 48  1  0
 25 49  1  0
 25 50  1  0
 25 51  1  0
 26 52  1  0
 26 53  1  0
 26 54  1  0
 28 55  1  0
 29 56  1  0
 30 57  1  0
 32 58  1  0
 34 59  1  0
 34 60  1  0
 34 61  1  0
M  CHG  1  22  -1
M  END
>  <UniqueID>  (26) 
23

>  <SMILES>  (26) 
Cc1cccc(N(C(=O)c2snc(C(N)=O)c2N)[C@H](C(=O)[N-]C(C)(C)C)c2cccnc2)c1C

>  <Energy>  (26) 
104.1403039698045

>  <Genealogy>  (26) 
Cc1cccc(N(C(=O)c2snc(C(N)=O)c2N)C(C(=O)[N-]C(C)(C)C)c2cccnc2)c1C (protonated)
Cc1cccc(N(C(=O)c2snc(C(N)=O)c2N)[C@H](C(=O)[N-]C(C)(C)C)c2cccnc2)c1C (chirality)
Cc1cccc(N(C(=O)c2snc(C(N)=O)c2N)[C@H](C(=O)[N-]C(C)(C)C)c2cccnc2)c1C (3D coordinates assigned)
Cc1cccc(N(C(=O)c2snc(C(N)=O)c2N)[C@H](C(=O)[N-]C(C)(C)C)c2cccnc2)c1C (optimized conformer: 104.1403039698045 kcal/mol)

>  <smiles>  (26) 
Cc1cccc(N(C(=O)c2snc(C(N)=O)c2N)C(C(=O)NC(C)(C)C)c2cccnc2)c1C

>  <score_type>  (26) 
oracle

>  <origin>  (26) 
adg

>  <m_score__min__energy>  (26) 
-8.8599999999999994

>  <m_primary>  (26) 
energy

$$$$
26:0
     RDKit          3D

 34 35  0  0  0  0  0  0  0  0999 V2000
   57.7450   32.1850   42.2280 C   0  0  0  0  0  0  0  0  0  0  0  0
   57.7160   32.1600   43.6960 N   0  0  0  0  0  0  0  0  0  0  0  0
   57.8560   33.4230   44.4300 C   0  0  0  0  0  0  0  0  0  0  0  0
   57.5530   30.9050   44.4090 C   0  0  0  0  0  0  0  0  0  0  0  0
   58.5180   30.4700   45.3400 C   0  0  0  0  0  0  0  0  0  0  0  0
   58.3600   29.2630   46.0260 C   0  0  0  0  0  0  0  0  0  0  0  0
   57.2350   28.4540   45.8030 C   0  0  0  0  0  0  0  0  0  0  0  0
   57.0690   27.1730   46.5300 C   0  0  0  0  0  0  0  0  0  0  0  0
   57.8950   26.8500   47.4270 O   0  0  0  0  0  0  0  0  0  0  0  0
   55.9440   26.3290   46.2510 N   0  0  0  0  0  0  0  0  0  0  0  0
   55.8970   25.2500   45.3060 C   0  0  0  0  0  0  0  0  0  0  0  0
   54.7880   24.3880   45.2120 C   0  0  0  0  0  0  0  0  0  0  0  0
   54.7920   23.3340   44.2930 C   0  0  0  0  0  0  0  0  0  0  0  0
   55.9040   23.1180   43.4720 C   0  0  0  0  0  0  0  0  0  0  0  0
   55.8930   22.0650   42.5600 O   0  0  0  0  0  0  0  0  0  0  0  0
   57.0180   23.9600   43.5790 C   0  0  0  0  0  0  0  0  0  0  0  0
   57.0150   25.0150   44.4970 C   0  0  0  0  0  0  0  0  0  0  0  0
   56.2690   28.8810   44.8760 C   0  0  0  0  0  0  0  0  0  0  0  0
   56.4260   30.0890   44.1900 C   0  0  0  0  0  0  0  0  0  0  0  0
   58.5374   32.8682   41.8885 H   0  0  0  0  0  0  0  0  0  0  0  0
   57.9461   31.1725   41.8479 H   0  0  0  0  0  0  0  0  0  0  0  0
   56.7732   32.5330   41.8479 H   0  0  0  0  0  0  0  0  0  0  0  0
   57.8338   33.2230   45.5114 H   0  0  0  0  0  0  0  0  0  0  0  0
   58.8122   33.8974   44.1644 H   0  0  0  0  0  0  0  0  0  0  0  0
   57.0269   34.0953   44.1644 H   0  0  0  0  0  0  0  0  0  0  0  0
   59.4074   31.0891   45.5290 H   0  0  0  0  0  0  0  0  0  0  0  0
   59.1255   28.9435   46.7485 H   0  0  0  0  0  0  0  0  0  0  0  0
   53.9155   24.5440   45.8635 H   0  0  0  0  0  0  0  0  0  0  0  0
   53.9170   22.6719   44.2153 H   0  0  0  0  0  0  0  0  0  0  0  0
   56.1950   22.1930   41.6010 H   0  0  0  0  0  0  0  0  0  0  0  0
   57.8971   23.7912   42.9397 H   0  0  0  0  0  0  0  0  0  0  0  0
   57.8980   25.6652   44.5840 H   0  0  0  0  0  0  0  0  0  0  0  0
   55.3813   28.2591   44.6884 H   0  0  0  0  0  0  0  0  0  0  0  0
   55.6585   30.4067   43.4689 H   0  0  0  0  0  0  0  0  0  0  0  0
  1  2  1  0
  2  3  1  0
  2  4  1  0
  4  5  2  0
  5  6  1  0
  6  7  2  0
  7  8  1  0
  8  9  2  0
  8 10  1  0
 10 11  1  0
 11 12  2  0
 12 13  1  0
 13 14  2  0
 14 15  1  0
 14 16  1  0
 16 17  2  0
  7 18  1  0
 18 19  2  0
 19  4  1  0
 17 11  1  0
  1 20  1  0
  1 21  1  0
  1 22  1  0
  3 23  1  0
  3 24  1  0
  3 25  1  0
  5 26  1  0
  6 27  1  0
 12 28  1  0
 13 29  1  0
 15 30  1  0
 16 31  1  0
 17 32  1  0
 18 33  1  0
 19 34  1  0
M  CHG  1  10  -1
M  END
>  <UniqueID>  (27) 
24

>  <SMILES>  (27) 
CN(C)c1ccc(C(=O)[N-]c2ccc(O)cc2)cc1

>  <Energy>  (27) 
39.85514490343352

>  <Genealogy>  (27) 
CN(C)c1ccc(C(=O)[N-]c2ccc(O)cc2)cc1 (protonated)
CN(C)c1ccc(C(=O)[N-]c2ccc(O)cc2)cc1 (3D coordinates assigned)
CN(C)c1ccc(C(=O)[N-]c2ccc(O)cc2)cc1 (optimized conformer: 39.85514490343352 kcal/mol)

>  <smiles>  (27) 
CN(C)c1ccc(C(=O)Nc2ccc(O)cc2)cc1

>  <score_type>  (27) 
oracle

>  <origin>  (27) 
adg

>  <m_score__min__energy>  (27) 
-8.2899999999999991

>  <m_primary>  (27) 
energy

$$$$
27:0
     RDKit          3D

 52 54  0  0  0  0  0  0  0  0999 V2000
   63.5400   33.0500   47.9960 C   0  0  0  0  0  0  0  0  0  0  0  0
   62.5360   34.0440   48.6010 C   0  0  2  0  0  0  0  0  0  0  0  0
   62.1490   33.6720   50.0510 C   0  0  0  0  0  0  0  0  0  0  0  0
   61.7540   32.1890   50.2860 C   0  0  0  0  0  0  0  0  0  0  0  0
   60.9990   31.5100   49.1910 N   0  0  0  0  0  0  0  0  0  0  0  0
   59.5270   31.6330   49.3170 C   0  0  0  0  0  0  0  0  0  0  0  0
   58.8280   31.1070   48.0570 C   0  0  0  0  0  0  0  0  0  0  0  0
   59.4030   29.8220   47.6410 N   0  0  0  0  0  0  0  0  0  0  0  0
   58.9550   29.1930   46.4250 C   0  0  0  0  0  0  0  0  0  0  0  0
   59.5940   28.0390   45.9400 C   0  0  0  0  0  0  0  0  0  0  0  0
   59.1640   27.4400   44.7540 C   0  0  0  0  0  0  0  0  0  0  0  0
   58.0820   27.9740   44.0510 C   0  0  0  0  0  0  0  0  0  0  0  0
   57.4120   29.1140   44.5330 C   0  0  0  0  0  0  0  0  0  0  0  0
   56.2600   29.7260   43.7750 C   0  0  0  0  0  0  0  0  0  0  0  0
   55.0610   29.2920   44.3130 F   0  0  0  0  0  0  0  0  0  0  0  0
   56.3280   31.1040   43.8820 F   0  0  0  0  0  0  0  0  0  0  0  0
   56.2910   29.3800   42.4340 F   0  0  0  0  0  0  0  0  0  0  0  0
   57.8660   29.7260   45.7150 C   0  0  0  0  0  0  0  0  0  0  0  0
   60.3650   29.1450   48.5140 C   0  0  0  0  0  0  0  0  0  0  0  0
   61.4760   30.1170   48.9480 C   0  0  0  0  0  0  0  0  0  0  0  0
   61.2910   34.1430   47.7370 C   0  0  0  0  0  0  0  0  0  0  0  0
   60.0760   34.5710   48.3030 C   0  0  0  0  0  0  0  0  0  0  0  0
   58.9150   34.6400   47.5250 C   0  0  0  0  0  0  0  0  0  0  0  0
   58.9550   34.2840   46.1750 C   0  0  0  0  0  0  0  0  0  0  0  0
   60.1520   33.8500   45.6010 C   0  0  0  0  0  0  0  0  0  0  0  0
   61.3150   33.7720   46.3760 C   0  0  0  0  0  0  0  0  0  0  0  0
   64.0696   32.5256   48.8050 H   0  0  0  0  0  0  0  0  0  0  0  0
   63.0026   32.3182   47.3750 H   0  0  0  0  0  0  0  0  0  0  0  0
   64.2664   33.5947   47.3750 H   0  0  0  0  0  0  0  0  0  0  0  0
   63.0332   35.0247   48.6306 H   0  0  0  0  0  0  0  0  0  0  0  0
   63.0088   33.8988   50.6985 H   0  0  0  0  0  0  0  0  0  0  0  0
   61.2485   34.2607   50.2801 H   0  0  0  0  0  0  0  0  0  0  0  0
   62.6808   31.6205   50.4529 H   0  0  0  0  0  0  0  0  0  0  0  0
   61.0633   32.2080   51.1419 H   0  0  0  0  0  0  0  0  0  0  0  0
   61.2450   32.0450   48.3220 H   0  0  0  0  0  0  0  0  0  0  0  0
   59.1893   31.0505   50.1868 H   0  0  0  0  0  0  0  0  0  0  0  0
   59.2711   32.6951   49.4456 H   0  0  0  0  0  0  0  0  0  0  0  0
   57.7570   30.9715   48.2684 H   0  0  0  0  0  0  0  0  0  0  0  0
   58.9683   31.8359   47.2452 H   0  0  0  0  0  0  0  0  0  0  0  0
   60.4373   27.6053   46.4975 H   0  0  0  0  0  0  0  0  0  0  0  0
   59.6787   26.5457   44.3728 H   0  0  0  0  0  0  0  0  0  0  0  0
   57.7513   27.5007   43.1147 H   0  0  0  0  0  0  0  0  0  0  0  0
   57.3636   30.6309   46.0874 H   0  0  0  0  0  0  0  0  0  0  0  0
   59.8426   28.7706   49.4067 H   0  0  0  0  0  0  0  0  0  0  0  0
   60.8194   28.3091   47.9619 H   0  0  0  0  0  0  0  0  0  0  0  0
   61.9248   29.7373   49.8778 H   0  0  0  0  0  0  0  0  0  0  0  0
   62.1986   30.1665   48.1201 H   0  0  0  0  0  0  0  0  0  0  0  0
   60.0385   34.8536   49.3654 H   0  0  0  0  0  0  0  0  0  0  0  0
   57.9698   34.9750   47.9771 H   0  0  0  0  0  0  0  0  0  0  0  0
   58.0429   34.3455   45.5633 H   0  0  0  0  0  0  0  0  0  0  0  0
   60.1809   33.5690   44.5379 H   0  0  0  0  0  0  0  0  0  0  0  0
   62.2527   33.4196   45.9215 H   0  0  0  0  0  0  0  0  0  0  0  0
  1  2  1  0
  2  3  1  0
  3  4  1  0
  4  5  1  0
  5  6  1  0
  6  7  1  0
  7  8  1  0
  8  9  1  0
  9 10  2  0
 10 11  1  0
 11 12  2  0
 12 13  1  0
 13 14  1  0
 14 15  1  0
 14 16  1  0
 14 17  1  0
 13 18  2  0
  8 19  1  0
 19 20  1  0
  2 21  1  0
 21 22  2  0
 22 23  1  0
 23 24  2  0
 24 25  1  0
 25 26  2  0
 20  5  1  0
 26 21  1  0
 18  9  1  0
  1 27  1  0
  1 28  1  0
  1 29  1  0
  2 30  1  1
  3 31  1  0
  3 32  1  0
  4 33  1  0
  4 34  1  0
  5 35  1  0
  6 36  1  0
  6 37  1  0
  7 38  1  0
  7 39  1  0
 10 40  1  0
 11 41  1  0
 12 42  1  0
 18 43  1  0
 19 44  1  0
 19 45  1  0
 20 46  1  0
 20 47  1  0
 22 48  1  0
 23 49  1  0
 24 50  1  0
 25 51  1  0
 26 52  1  0
M  CHG  1   5   1
M  END
>  <UniqueID>  (28) 
25

>  <SMILES>  (28) 
C[C@H](CC[NH+]1CCN(c2cccc(C(F)(F)F)c2)CC1)c1ccccc1

>  <Energy>  (28) 
68.84575700640728

>  <Genealogy>  (28) 
CC(CC[NH+]1CCN(c2cccc(C(F)(F)F)c2)CC1)c1ccccc1 (protonated)
C[C@H](CC[NH+]1CCN(c2cccc(C(F)(F)F)c2)CC1)c1ccccc1 (chirality)
C[C@H](CC[NH+]1CCN(c2cccc(C(F)(F)F)c2)CC1)c1ccccc1 (3D coordinates assigned)
C[C@H](CC[NH+]1CCN(c2cccc(C(F)(F)F)c2)CC1)c1ccccc1 (nonaromatic ring conformer: 68.84575700640728 kcal/mol)

>  <smiles>  (28) 
CC(CCN1CCN(c2cccc(C(F)(F)F)c2)CC1)c1ccccc1

>  <score_type>  (28) 
oracle

>  <origin>  (28) 
adg

>  <m_score__min__energy>  (28) 
-5.7800000000000002

>  <m_primary>  (28) 
energy

$$$$
28:0
     RDKit          3D

 39 41  0  0  0  0  0  0  0  0999 V2000
   59.3440   35.3450   47.8360 O   0  0  0  0  0  0  0  0  0  0  0  0
   60.0390   34.5070   47.2000 C   0  0  0  0  0  0  0  0  0  0  0  0
   59.6110   34.0520   45.9090 N   0  0  0  0  0  0  0  0  0  0  0  0
   58.9320   32.8210   45.6150 C   0  0  0  0  0  0  0  0  0  0  0  0
   58.3780   32.6480   44.3410 C   0  0  0  0  0  0  0  0  0  0  0  0
   57.6930   31.4720   44.0210 C   0  0  0  0  0  0  0  0  0  0  0  0
   57.5440   30.4610   44.9770 C   0  0  0  0  0  0  0  0  0  0  0  0
   56.6870   28.9800   44.5620 S   0  0  0  0  0  0  0  0  0  0  0  0
   55.2010   29.2020   44.5920 O   0  0  0  0  0  0  0  0  0  0  0  0
   57.0920   28.5520   43.1810 O   0  0  0  0  0  0  0  0  0  0  0  0
   57.0910   27.7230   45.6900 N   0  0  0  0  0  0  0  0  0  0  0  0
   56.6750   26.4980   45.5850 C   0  0  0  0  0  0  0  0  0  0  0  0
   57.4950   25.5600   45.0430 N   0  0  0  0  0  0  0  0  0  0  0  0
   57.0960   24.2670   44.9210 C   0  0  0  0  0  0  0  0  0  0  0  0
   55.8270   23.8860   45.3550 C   0  0  0  0  0  0  0  0  0  0  0  0
   54.9960   24.8590   45.9090 C   0  0  0  0  0  0  0  0  0  0  0  0
   55.4310   26.1410   46.0130 N   0  0  0  0  0  0  0  0  0  0  0  0
   58.0700   30.6420   46.2640 C   0  0  0  0  0  0  0  0  0  0  0  0
   58.7550   31.8170   46.5850 C   0  0  0  0  0  0  0  0  0  0  0  0
   61.2690   33.9530   47.8120 C   0  0  0  0  0  0  0  0  0  0  0  0
   61.3910   33.8570   49.2090 C   0  0  0  0  0  0  0  0  0  0  0  0
   62.5520   33.3360   49.7880 C   0  0  0  0  0  0  0  0  0  0  0  0
   63.6190   32.9000   48.9830 C   0  0  0  0  0  0  0  0  0  0  0  0
   64.8170   32.3640   49.5740 N   0  0  0  0  0  0  0  0  0  0  0  0
   64.7790   31.3110   50.2430 O   0  0  0  0  0  0  0  0  0  0  0  0
   66.0240   33.0030   49.4100 O   0  0  0  0  0  0  0  0  0  0  0  0
   63.4990   32.9990   47.5860 C   0  0  0  0  0  0  0  0  0  0  0  0
   62.3370   33.5190   47.0070 C   0  0  0  0  0  0  0  0  0  0  0  0
   58.4823   33.4422   43.5871 H   0  0  0  0  0  0  0  0  0  0  0  0
   57.2697   31.3410   43.0142 H   0  0  0  0  0  0  0  0  0  0  0  0
   57.7738   23.5212   44.4801 H   0  0  0  0  0  0  0  0  0  0  0  0
   55.4896   22.8431   45.2626 H   0  0  0  0  0  0  0  0  0  0  0  0
   53.9897   24.5884   46.2612 H   0  0  0  0  0  0  0  0  0  0  0  0
   57.9431   29.8565   47.0235 H   0  0  0  0  0  0  0  0  0  0  0  0
   59.1571   31.9575   47.5992 H   0  0  0  0  0  0  0  0  0  0  0  0
   60.5654   34.1949   49.8526 H   0  0  0  0  0  0  0  0  0  0  0  0
   62.6313   33.2666   50.8829 H   0  0  0  0  0  0  0  0  0  0  0  0
   64.3262   32.6646   46.9426 H   0  0  0  0  0  0  0  0  0  0  0  0
   62.2579   33.5891   45.9121 H   0  0  0  0  0  0  0  0  0  0  0  0
  1  2  2  0
  2  3  1  0
  3  4  1  0
  4  5  2  0
  5  6  1  0
  6  7  2  0
  7  8  1  0
  8  9  2  0
  8 10  2  0
  8 11  1  0
 11 12  2  3
 12 13  1  0
 13 14  2  0
 14 15  1  0
 15 16  2  0
 16 17  1  0
  7 18  1  0
 18 19  2  0
  2 20  1  0
 20 21  2  0
 21 22  1  0
 22 23  2  0
 23 24  1  0
 24 25  2  0
 24 26  1  0
 23 27  1  0
 27 28  2  0
 19  4  1  0
 28 20  1  0
 17 12  1  0
  5 29  1  0
  6 30  1  0
 14 31  1  0
 15 32  1  0
 16 33  1  0
 18 34  1  0
 19 35  1  0
 21 36  1  0
 22 37  1  0
 27 38  1  0
 28 39  1  0
M  CHG  4   3  -1  17  -1  24   1  26  -1
M  END
>  <UniqueID>  (29) 
26

>  <SMILES>  (29) 
O=C([N-]c1ccc(S(=O)(=O)N=c2nccc[n-]2)cc1)c1ccc([N+](=O)[O-])cc1

>  <Energy>  (29) 
51.65609573856872

>  <Genealogy>  (29) 
O=C([N-]c1ccc(S(=O)(=O)N=c2nccc[n-]2)cc1)c1ccc([N+](=O)[O-])cc1 (protonated)
O=C([N-]c1ccc(S(=O)(=O)N=c2nccc[n-]2)cc1)c1ccc([N+](=O)[O-])cc1 (3D coordinates assigned)
O=C([N-]c1ccc(S(=O)(=O)N=c2nccc[n-]2)cc1)c1ccc([N+](=O)[O-])cc1 (optimized conformer: 51.65609573856872 kcal/mol)

>  <smiles>  (29) 
O=C(Nc1ccc(S(=O)(=O)N=c2nccc[nH]2)cc1)c1ccc([N+](=O)[O-])cc1

>  <score_type>  (29) 
oracle

>  <origin>  (29) 
adg

>  <m_score__min__energy>  (29) 
-11.02

>  <m_primary>  (29) 
energy

$$$$
29:0
     RDKit          3D

 31 32  0  0  0  0  0  0  0  0999 V2000
   57.7800   32.3240   42.0320 C   0  0  0  0  0  0  0  0  0  0  0  0
   57.3910   31.2760   42.9110 O   0  0  0  0  0  0  0  0  0  0  0  0
   57.1560   31.4820   44.2740 C   0  0  0  0  0  0  0  0  0  0  0  0
   56.2560   30.8280   44.8670 O   0  0  0  0  0  0  0  0  0  0  0  0
   57.9230   32.4960   45.0200 C   0  0  0  0  0  0  0  0  0  0  0  0
   57.6370   34.1480   44.8860 S   0  0  0  0  0  0  0  0  0  0  0  0
   58.9120   34.6570   45.8470 C   0  0  0  0  0  0  0  0  0  0  0  0
   59.5880   33.5320   46.3100 C   0  0  0  0  0  0  0  0  0  0  0  0
   60.7410   33.6480   47.2280 C   0  0  0  0  0  0  0  0  0  0  0  0
   62.0430   33.4510   46.7370 C   0  0  0  0  0  0  0  0  0  0  0  0
   63.1430   33.5560   47.5940 C   0  0  0  0  0  0  0  0  0  0  0  0
   62.9540   33.8660   48.9430 C   0  0  0  0  0  0  0  0  0  0  0  0
   61.6640   34.0820   49.4360 C   0  0  0  0  0  0  0  0  0  0  0  0
   60.5590   33.9810   48.5840 C   0  0  0  0  0  0  0  0  0  0  0  0
   59.3190   34.2300   49.0760 F   0  0  0  0  0  0  0  0  0  0  0  0
   59.0420   32.3100   45.8470 C   0  0  0  0  0  0  0  0  0  0  0  0
   59.6030   30.9920   46.2060 C   0  0  0  0  0  0  0  0  0  0  0  0
   60.0880   30.8010   47.3540 O   0  0  0  0  0  0  0  0  0  0  0  0
   59.6330   29.9720   45.2500 O   0  0  0  0  0  0  0  0  0  0  0  0
   60.6360   28.9650   45.2310 C   0  0  0  0  0  0  0  0  0  0  0  0
   58.1034   33.1952   42.6206 H   0  0  0  0  0  0  0  0  0  0  0  0
   58.6108   31.9812   41.3977 H   0  0  0  0  0  0  0  0  0  0  0  0
   56.9268   32.6063   41.3977 H   0  0  0  0  0  0  0  0  0  0  0  0
   59.1705   35.7020   46.0733 H   0  0  0  0  0  0  0  0  0  0  0  0
   62.1974   33.2132   45.6742 H   0  0  0  0  0  0  0  0  0  0  0  0
   64.1592   33.3942   47.2051 H   0  0  0  0  0  0  0  0  0  0  0  0
   63.8201   33.9401   49.6170 H   0  0  0  0  0  0  0  0  0  0  0  0
   61.5172   34.3322   50.4971 H   0  0  0  0  0  0  0  0  0  0  0  0
   60.9045   28.6954   46.2631 H   0  0  0  0  0  0  0  0  0  0  0  0
   60.2535   28.0763   44.7076 H   0  0  0  0  0  0  0  0  0  0  0  0
   61.5262   29.3440   44.7076 H   0  0  0  0  0  0  0  0  0  0  0  0
  1  2  1  0
  2  3  1  0
  3  4  2  0
  3  5  1  0
  5  6  1  0
  6  7  1  0
  7  8  2  0
  8  9  1  0
  9 10  2  0
 10 11  1  0
 11 12  2  0
 12 13  1  0
 13 14  2  0
 14 15  1  0
  8 16  1  0
 16 17  1  0
 17 18  2  0
 17 19  1  0
 19 20  1  0
 16  5  2  0
 14  9  1  0
  1 21  1  0
  1 22  1  0
  1 23  1  0
  7 24  1  0
 10 25  1  0
 11 26  1  0
 12 27  1  0
 13 28  1  0
 20 29  1  0
 20 30  1  0
 20 31  1  0
M  END
>  <UniqueID>  (30) 
27

>  <SMILES>  (30) 
COC(=O)c1scc(-c2ccccc2F)c1C(=O)OC

>  <Energy>  (30) 
64.01126802977775

>  <Genealogy>  (30) 
COC(=O)c1scc(-c2ccccc2F)c1C(=O)OC (3D coordinates assigned)
COC(=O)c1scc(-c2ccccc2F)c1C(=O)OC (optimized conformer: 64.01126802977775 kcal/mol)

>  <smiles>  (30) 
COC(=O)c1scc(-c2ccccc2F)c1C(=O)OC

>  <score_type>  (30) 
oracle

>  <origin>  (30) 
adg

>  <m_score__min__energy>  (30) 
-6.2199999999999998

>  <m_primary>  (30) 
energy

$$$$
30:0
     RDKit          3D

 22 23  0  0  0  0  0  0  0  0999 V2000
   57.3920   34.1280   44.8730 Cl  0  0  0  0  0  0  0  0  0  0  0  0
   58.5410   33.5910   46.0890 C   0  0  0  0  0  0  0  0  0  0  0  0
   58.8770   34.4540   47.1390 C   0  0  0  0  0  0  0  0  0  0  0  0
   59.7820   34.0450   48.1220 C   0  0  0  0  0  0  0  0  0  0  0  0
   60.3470   32.7680   48.0660 C   0  0  0  0  0  0  0  0  0  0  0  0
   60.0150   31.9020   47.0200 C   0  0  0  0  0  0  0  0  0  0  0  0
   59.1320   32.3180   46.0070 C   0  0  0  0  0  0  0  0  0  0  0  0
   58.7390   31.4170   44.9590 N   0  0  0  0  0  0  0  0  0  0  0  0
   57.7290   30.5910   44.9590 C   0  0  0  0  0  0  0  0  0  0  0  0
   56.5860   30.9340   44.2270 C   0  0  0  0  0  0  0  0  0  0  0  0
   55.4920   30.0650   44.1980 C   0  0  0  0  0  0  0  0  0  0  0  0
   55.5410   28.8830   44.8660 N   0  0  0  0  0  0  0  0  0  0  0  0
   56.6410   28.5110   45.5720 C   0  0  0  0  0  0  0  0  0  0  0  0
   57.7570   29.3500   45.6290 C   0  0  0  0  0  0  0  0  0  0  0  0
   58.4274   35.4566   47.1903 H   0  0  0  0  0  0  0  0  0  0  0  0
   60.0500   34.7289   48.9408 H   0  0  0  0  0  0  0  0  0  0  0  0
   61.0530   32.4443   48.8450 H   0  0  0  0  0  0  0  0  0  0  0  0
   60.4462   30.8905   46.9889 H   0  0  0  0  0  0  0  0  0  0  0  0
   56.5491   31.8853   43.6760 H   0  0  0  0  0  0  0  0  0  0  0  0
   54.5888   30.3387   43.6329 H   0  0  0  0  0  0  0  0  0  0  0  0
   56.6529   27.5463   46.1003 H   0  0  0  0  0  0  0  0  0  0  0  0
   58.6511   29.0448   46.1924 H   0  0  0  0  0  0  0  0  0  0  0  0
  1  2  1  0
  2  3  2  0
  3  4  1  0
  4  5  2  0
  5  6  1  0
  6  7  2  0
  7  8  1  0
  8  9  2  3
  9 10  1  0
 10 11  2  0
 11 12  1  0
 12 13  1  0
 13 14  2  0
  7  2  1  0
 14  9  1  0
  3 15  1  0
  4 16  1  0
  5 17  1  0
  6 18  1  0
 10 19  1  0
 11 20  1  0
 13 21  1  0
 14 22  1  0
M  CHG  1  12  -1
M  END
>  <UniqueID>  (31) 
28

>  <SMILES>  (31) 
Clc1ccccc1N=c1cc[n-]cc1

>  <Energy>  (31) 
33.700625450591225

>  <Genealogy>  (31) 
Clc1ccccc1N=c1cc[n-]cc1 (protonated)
Clc1ccccc1N=c1cc[n-]cc1 (3D coordinates assigned)
Clc1ccccc1N=c1cc[n-]cc1 (optimized conformer: 33.700625450591225 kcal/mol)

>  <smiles>  (31) 
Clc1ccccc1N=c1cc[nH]cc1

>  <score_type>  (31) 
oracle

>  <origin>  (31) 
adg

>  <m_score__min__energy>  (31) 
-7.7300000000000004

>  <m_primary>  (31) 
energy

$$$$
31:0
     RDKit          3D

 32 35  0  0  0  0  0  0  0  0999 V2000
   57.1817   28.1465   42.5847 H   0  0  0  0  0  0  0  0  0  0  0  0
   57.0800   28.9760   43.3000 C   0  0  0  0  0  0  0  0  0  0  0  0
   56.8050   30.5900   42.9050 S   0  0  0  0  0  0  0  0  0  0  0  0
   56.7820   31.0810   44.5060 C   0  0  0  0  0  0  0  0  0  0  0  0
   56.6330   32.3170   44.8770 N   0  0  0  0  0  0  0  0  0  0  0  0
   57.6230   33.1470   45.5100 C   0  0  0  0  0  0  0  0  0  0  0  0
   57.9650   32.8840   46.8440 C   0  0  0  0  0  0  0  0  0  0  0  0
   57.4632   32.0690   47.3862 H   0  0  0  0  0  0  0  0  0  0  0  0
   58.9400   33.6510   47.4900 C   0  0  0  0  0  0  0  0  0  0  0  0
   59.1922   33.4473   48.5411 H   0  0  0  0  0  0  0  0  0  0  0  0
   59.5940   34.6760   46.8010 C   0  0  0  0  0  0  0  0  0  0  0  0
   60.3538   35.2851   47.3127 H   0  0  0  0  0  0  0  0  0  0  0  0
   59.2830   34.9270   45.4630 C   0  0  0  0  0  0  0  0  0  0  0  0
   59.8054   35.7274   44.9185 H   0  0  0  0  0  0  0  0  0  0  0  0
   58.3080   34.1620   44.8140 C   0  0  0  0  0  0  0  0  0  0  0  0
   58.0754   34.3539   43.7561 H   0  0  0  0  0  0  0  0  0  0  0  0
   56.9940   30.0510   45.3530 N   0  0  0  0  0  0  0  0  0  0  0  0
   57.1570   28.8700   44.6930 C   0  0  0  0  0  0  0  0  0  0  0  0
   57.3860   27.6000   45.4310 C   0  0  0  0  0  0  0  0  0  0  0  0
   58.6920   27.1920   45.8240 C   0  0  0  0  0  0  0  0  0  0  0  0
   59.5567   27.8263   45.5790 H   0  0  0  0  0  0  0  0  0  0  0  0
   58.8890   25.9870   46.5220 C   0  0  0  0  0  0  0  0  0  0  0  0
   59.8964   25.6656   46.8251 H   0  0  0  0  0  0  0  0  0  0  0  0
   57.7720   25.2150   46.8170 C   0  0  0  0  0  0  0  0  0  0  0  0
   56.5230   25.5940   46.4530 C   0  0  0  0  0  0  0  0  0  0  0  0
   56.2810   26.7770   45.7620 C   0  0  0  0  0  0  0  0  0  0  0  0
   55.2579   27.0661   45.4798 H   0  0  0  0  0  0  0  0  0  0  0  0
   55.6120   24.6430   46.8730 O   0  0  0  0  0  0  0  0  0  0  0  0
   56.3360   23.6030   47.5450 C   0  0  0  0  0  0  0  0  0  0  0  0
   56.0045   23.5146   48.5901 H   0  0  0  0  0  0  0  0  0  0  0  0
   56.1745   22.6200   47.0785 H   0  0  0  0  0  0  0  0  0  0  0  0
   57.7120   24.0080   47.4850 O   0  0  0  0  0  0  0  0  0  0  0  0
  1  2  1  0
  2  3  1  0
  3  4  1  0
  4  5  2  0
  5  6  1  0
  6  7  2  0
  7  8  1  0
  7  9  1  0
  9 10  1  0
  9 11  2  0
 11 12  1  0
 11 13  1  0
 13 14  1  0
 13 15  2  0
 15 16  1  0
  4 17  1  0
 17 18  1  0
 18 19  1  0
 19 20  2  0
 20 21  1  0
 20 22  1  0
 22 23  1  0
 22 24  2  0
 24 25  1  0
 25 26  2  0
 26 27  1  0
 25 28  1  0
 28 29  1  0
 29 30  1  0
 29 31  1  0
 29 32  1  0
 18  2  2  0
 26 19  1  0
 15  6  1  0
 32 24  1  0
M  CHG  1  17  -1
M  END
>  <UniqueID>  (32) 
29

>  <SMILES>  (32) 
c1ccc(/N=c2\[n-]c(-c3ccc4c(c3)OCO4)cs2)cc1

>  <Energy>  (32) 
101.75883231336282

>  <Genealogy>  (32) 
c1ccc(N=c2[n-]c(-c3ccc4c(c3)OCO4)cs2)cc1 (protonated)
c1ccc(/N=c2\[n-]c(-c3ccc4c(c3)OCO4)cs2)cc1 (cis-trans isomerization)
c1ccc(/N=c2\[n-]c(-c3ccc4c(c3)OCO4)cs2)cc1 (3D coordinates assigned)
c1ccc(/N=c2\[n-]c(-c3ccc4c(c3)OCO4)cs2)cc1 (nonaromatic ring conformer: 101.75883231336282 kcal/mol)

>  <smiles>  (32) 
c1ccc(N=c2[nH]c(-c3ccc4c(c3)OCO4)cs2)cc1

>  <score_type>  (32) 
oracle

>  <origin>  (32) 
adg

>  <m_score__min__energy>  (32) 
-9.2300000000000004

>  <m_primary>  (32) 
energy

$$$$
32:0
     RDKit          3D

 50 52  0  0  0  0  0  0  0  0999 V2000
   57.0140   21.2390   43.0110 C   0  0  0  0  0  0  0  0  0  0  0  0
   56.2370   22.4250   43.1420 O   0  0  0  0  0  0  0  0  0  0  0  0
   56.2630   23.2700   44.2610 C   0  0  0  0  0  0  0  0  0  0  0  0
   55.5800   22.8650   45.4140 C   0  0  0  0  0  0  0  0  0  0  0  0
   55.5680   23.6730   46.5510 C   0  0  0  0  0  0  0  0  0  0  0  0
   56.2430   24.8960   46.5500 C   0  0  0  0  0  0  0  0  0  0  0  0
   56.9470   25.3200   45.4100 C   0  0  0  0  0  0  0  0  0  0  0  0
   57.6560   26.6240   45.4140 C   0  0  0  0  0  0  0  0  0  0  0  0
   58.7100   26.7540   46.0970 O   0  0  0  0  0  0  0  0  0  0  0  0
   57.1860   27.7220   44.6150 N   0  0  0  0  0  0  0  0  0  0  0  0
   57.5350   29.0950   44.8630 C   0  0  0  0  0  0  0  0  0  0  0  0
   57.0940   30.0900   43.9770 C   0  0  0  0  0  0  0  0  0  0  0  0
   57.4060   31.4330   44.2080 C   0  0  0  0  0  0  0  0  0  0  0  0
   58.1460   31.8000   45.3390 C   0  0  0  0  0  0  0  0  0  0  0  0
   58.5670   33.4840   45.6250 S   0  0  0  0  0  0  0  0  0  0  0  0
   58.9740   34.1500   44.3400 O   0  0  0  0  0  0  0  0  0  0  0  0
   57.3720   34.2140   46.1750 O   0  0  0  0  0  0  0  0  0  0  0  0
   59.9030   33.5520   46.7690 C   0  0  0  0  0  0  0  0  0  0  0  0
   59.6580   33.7960   48.1230 C   0  0  0  0  0  0  0  0  0  0  0  0
   60.7220   33.8730   49.0230 C   0  0  0  0  0  0  0  0  0  0  0  0
   62.0420   33.7100   48.5600 C   0  0  0  0  0  0  0  0  0  0  0  0
   63.1790   33.7850   49.4520 N   0  0  0  0  0  0  0  0  0  0  0  0
   63.0620   34.5610   50.6920 C   0  0  0  0  0  0  0  0  0  0  0  0
   64.4390   33.0990   49.1410 C   0  0  0  0  0  0  0  0  0  0  0  0
   62.2450   33.4800   47.2290 N   0  0  0  0  0  0  0  0  0  0  0  0
   61.2240   33.4010   46.3370 C   0  0  0  0  0  0  0  0  0  0  0  0
   58.5740   30.8140   46.2360 C   0  0  0  0  0  0  0  0  0  0  0  0
   58.2660   29.4700   46.0050 C   0  0  0  0  0  0  0  0  0  0  0  0
   56.9450   24.5040   44.2630 C   0  0  0  0  0  0  0  0  0  0  0  0
   57.2664   20.8538   44.0100 H   0  0  0  0  0  0  0  0  0  0  0  0
   56.4367   20.4813   42.4609 H   0  0  0  0  0  0  0  0  0  0  0  0
   57.9392   21.4657   42.4609 H   0  0  0  0  0  0  0  0  0  0  0  0
   55.0486   21.9019   45.4234 H   0  0  0  0  0  0  0  0  0  0  0  0
   55.0257   23.3463   47.4506 H   0  0  0  0  0  0  0  0  0  0  0  0
   56.2234   25.5315   47.4476 H   0  0  0  0  0  0  0  0  0  0  0  0
   56.6550   27.5030   43.7420 H   0  0  0  0  0  0  0  0  0  0  0  0
   56.4989   29.8113   43.0949 H   0  0  0  0  0  0  0  0  0  0  0  0
   57.0692   32.2039   43.4992 H   0  0  0  0  0  0  0  0  0  0  0  0
   58.6258   33.9275   48.4798 H   0  0  0  0  0  0  0  0  0  0  0  0
   60.5303   34.0603   50.0898 H   0  0  0  0  0  0  0  0  0  0  0  0
   63.1634   33.8884   51.5564 H   0  0  0  0  0  0  0  0  0  0  0  0
   63.8555   35.3221   50.7245 H   0  0  0  0  0  0  0  0  0  0  0  0
   62.0793   35.0543   50.7245 H   0  0  0  0  0  0  0  0  0  0  0  0
   64.9467   32.8226   50.0769 H   0  0  0  0  0  0  0  0  0  0  0  0
   64.2278   32.1914   48.5565 H   0  0  0  0  0  0  0  0  0  0  0  0
   65.0867   33.7690   48.5565 H   0  0  0  0  0  0  0  0  0  0  0  0
   61.4367   33.2180   45.2734 H   0  0  0  0  0  0  0  0  0  0  0  0
   59.1549   31.0978   47.1260 H   0  0  0  0  0  0  0  0  0  0  0  0
   58.5968   28.7020   46.7197 H   0  0  0  0  0  0  0  0  0  0  0  0
   57.4805   24.8321   43.3599 H   0  0  0  0  0  0  0  0  0  0  0  0
  1  2  1  0
  2  3  1  0
  3  4  2  0
  4  5  1  0
  5  6  2  0
  6  7  1  0
  7  8  1  0
  8  9  2  0
  8 10  1  0
 10 11  1  0
 11 12  2  0
 12 13  1  0
 13 14  2  0
 14 15  1  0
 15 16  2  0
 15 17  2  0
 15 18  1  0
 18 19  2  0
 19 20  1  0
 20 21  2  0
 21 22  1  0
 22 23  1  0
 22 24  1  0
 21 25  1  0
 25 26  2  0
 14 27  1  0
 27 28  2  0
  7 29  2  0
 29  3  1  0
 28 11  1  0
 26 18  1  0
  1 30  1  0
  1 31  1  0
  1 32  1  0
  4 33  1  0
  5 34  1  0
  6 35  1  0
 10 36  1  0
 12 37  1  0
 13 38  1  0
 19 39  1  0
 20 40  1  0
 23 41  1  0
 23 42  1  0
 23 43  1  0
 24 44  1  0
 24 45  1  0
 24 46  1  0
 26 47  1  0
 27 48  1  0
 28 49  1  0
 29 50  1  0
M  END
>  <UniqueID>  (33) 
30

>  <SMILES>  (33) 
COc1cccc(C(=O)Nc2ccc(S(=O)(=O)c3ccc(N(C)C)nc3)cc2)c1

>  <Energy>  (33) 
59.017814704447524

>  <Genealogy>  (33) 
COc1cccc(C(=O)Nc2ccc(S(=O)(=O)c3ccc(N(C)C)nc3)cc2)c1 (3D coordinates assigned)
COc1cccc(C(=O)Nc2ccc(S(=O)(=O)c3ccc(N(C)C)nc3)cc2)c1 (optimized conformer: 59.017814704447524 kcal/mol)

>  <smiles>  (33) 
COc1cccc(C(=O)Nc2ccc(S(=O)(=O)c3ccc(N(C)C)nc3)cc2)c1

>  <score_type>  (33) 
oracle

>  <origin>  (33) 
adg

>  <m_score__min__energy>  (33) 
-8.5999999999999996

>  <m_primary>  (33) 
energy

$$$$
33:0
     RDKit          3D

 62 66  0  0  0  0  0  0  0  0999 V2000
   64.9190   34.0620   52.0890 C   0  0  0  0  0  0  0  0  0  0  0  0
   63.6220   33.8260   51.3890 C   0  0  0  0  0  0  0  0  0  0  0  0
   63.3690   34.0770   50.0520 C   0  0  0  0  0  0  0  0  0  0  0  0
   62.0200   33.8140   49.9110 C   0  0  0  0  0  0  0  0  0  0  0  0
   61.2340   34.0040   48.6760 C   0  0  0  0  0  0  0  0  0  0  0  0
   59.9630   34.5910   48.7180 C   0  0  0  0  0  0  0  0  0  0  0  0
   59.2150   34.7210   47.5490 C   0  0  0  0  0  0  0  0  0  0  0  0
   59.7370   34.2420   46.3410 C   0  0  0  0  0  0  0  0  0  0  0  0
   58.9180   34.3100   45.1180 C   0  0  0  0  0  0  0  0  0  0  0  0
   58.8340   35.4040   44.5010 O   0  0  0  0  0  0  0  0  0  0  0  0
   58.1720   33.1690   44.6580 N   0  0  0  0  0  0  0  0  0  0  0  0
   58.1700   32.7120   43.2740 C   0  0  0  0  0  0  0  0  0  0  0  0
   57.5880   31.3030   43.2840 C   0  0  0  0  0  0  0  0  0  0  0  0
   57.1060   31.0390   44.7190 C   0  0  1  0  0  0  0  0  0  0  0  0
   57.5520   29.6790   45.2620 C   0  0  0  0  0  0  0  0  0  0  0  0
   56.6320   28.6140   45.1660 C   0  0  0  0  0  0  0  0  0  0  0  0
   56.9590   27.3330   45.6140 C   0  0  0  0  0  0  0  0  0  0  0  0
   58.2080   27.0860   46.1680 C   0  0  0  0  0  0  0  0  0  0  0  0
   59.1400   28.1160   46.2770 C   0  0  0  0  0  0  0  0  0  0  0  0
   58.8460   29.4110   45.8150 C   0  0  0  0  0  0  0  0  0  0  0  0
   59.9140   30.4580   46.0120 C   0  0  0  0  0  0  0  0  0  0  0  0
   57.5430   32.2320   45.5740 C   0  0  0  0  0  0  0  0  0  0  0  0
   60.9890   33.7010   46.3110 N   0  0  0  0  0  0  0  0  0  0  0  0
   61.7430   33.5850   47.4390 C   0  0  0  0  0  0  0  0  0  0  0  0
   61.5280   33.4170   51.1070 N   0  0  0  0  0  0  0  0  0  0  0  0
   60.1810   33.0230   51.4090 C   0  0  0  0  0  0  0  0  0  0  0  0
   59.4130   33.8350   52.2570 C   0  0  0  0  0  0  0  0  0  0  0  0
   58.0840   33.5090   52.5380 C   0  0  0  0  0  0  0  0  0  0  0  0
   57.5130   32.3620   51.9850 C   0  0  0  0  0  0  0  0  0  0  0  0
   56.2220   32.0500   52.2550 F   0  0  0  0  0  0  0  0  0  0  0  0
   58.2740   31.5300   51.1590 C   0  0  0  0  0  0  0  0  0  0  0  0
   59.6170   31.8350   50.8780 C   0  0  0  0  0  0  0  0  0  0  0  0
   60.4030   30.8990   49.9990 C   0  0  0  0  0  0  0  0  0  0  0  0
   62.4920   33.4420   52.0130 N   0  0  0  0  0  0  0  0  0  0  0  0
   64.7591   34.0329   53.1769 H   0  0  0  0  0  0  0  0  0  0  0  0
   65.6377   33.2799   51.8030 H   0  0  0  0  0  0  0  0  0  0  0  0
   65.3161   35.0471   51.8030 H   0  0  0  0  0  0  0  0  0  0  0  0
   64.0782   34.4093   49.2796 H   0  0  0  0  0  0  0  0  0  0  0  0
   59.5547   34.9497   49.6744 H   0  0  0  0  0  0  0  0  0  0  0  0
   58.2231   35.1958   47.5751 H   0  0  0  0  0  0  0  0  0  0  0  0
   57.5479   33.3757   42.6556 H   0  0  0  0  0  0  0  0  0  0  0  0
   59.1854   32.7199   42.8511 H   0  0  0  0  0  0  0  0  0  0  0  0
   56.7443   31.2356   42.5815 H   0  0  0  0  0  0  0  0  0  0  0  0
   58.3385   30.5609   42.9741 H   0  0  0  0  0  0  0  0  0  0  0  0
   56.0090   30.9621   44.7447 H   0  0  0  0  0  0  0  0  0  0  0  0
   55.6386   28.7963   44.7301 H   0  0  0  0  0  0  0  0  0  0  0  0
   56.2257   26.5176   45.5280 H   0  0  0  0  0  0  0  0  0  0  0  0
   58.4621   26.0757   46.5213 H   0  0  0  0  0  0  0  0  0  0  0  0
   60.1209   27.9129   46.7315 H   0  0  0  0  0  0  0  0  0  0  0  0
   60.0769   30.6177   47.0881 H   0  0  0  0  0  0  0  0  0  0  0  0
   60.8507   30.1185   45.5458 H   0  0  0  0  0  0  0  0  0  0  0  0
   59.5932   31.4013   45.5458 H   0  0  0  0  0  0  0  0  0  0  0  0
   56.6708   32.6964   46.0573 H   0  0  0  0  0  0  0  0  0  0  0  0
   58.2325   31.9246   46.3741 H   0  0  0  0  0  0  0  0  0  0  0  0
   61.3930   33.3730   45.4050 H   0  0  0  0  0  0  0  0  0  0  0  0
   62.7561   33.1606   47.3792 H   0  0  0  0  0  0  0  0  0  0  0  0
   59.8606   34.7350   52.7039 H   0  0  0  0  0  0  0  0  0  0  0  0
   57.4868   34.1573   53.1961 H   0  0  0  0  0  0  0  0  0  0  0  0
   57.8177   30.6282   50.7248 H   0  0  0  0  0  0  0  0  0  0  0  0
   60.9838   30.2073   50.6269 H   0  0  0  0  0  0  0  0  0  0  0  0
   59.7119   30.3253   49.3639 H   0  0  0  0  0  0  0  0  0  0  0  0
   61.0875   31.4805   49.3639 H   0  0  0  0  0  0  0  0  0  0  0  0
  1  2  1  0
  2  3  1  0
  3  4  2  0
  4  5  1  0
  5  6  2  0
  6  7  1  0
  7  8  2  0
  8  9  1  0
  9 10  2  0
  9 11  1  0
 11 12  1  0
 12 13  1  0
 13 14  1  0
 14 15  1  0
 15 16  2  0
 16 17  1  0
 17 18  2  0
 18 19  1  0
 19 20  2  0
 20 21  1  0
 14 22  1  0
  8 23  1  0
 23 24  2  0
  4 25  1  0
 25 26  1  0
 26 27  2  0
 27 28  1  0
 28 29  2  0
 29 30  1  0
 29 31  1  0
 31 32  2  0
 32 33  1  0
 25 34  1  0
 34  2  2  0
 24  5  1  0
 32 26  1  0
 22 11  1  0
 20 15  1  0
  1 35  1  0
  1 36  1  0
  1 37  1  0
  3 38  1  0
  6 39  1  0
  7 40  1  0
 12 41  1  0
 12 42  1  0
 13 43  1  0
 13 44  1  0
 14 45  1  6
 16 46  1  0
 17 47  1  0
 18 48  1  0
 19 49  1  0
 21 50  1  0
 21 51  1  0
 21 52  1  0
 22 53  1  0
 22 54  1  0
 23 55  1  0
 24 56  1  0
 27 57  1  0
 28 58  1  0
 31 59  1  0
 33 60  1  0
 33 61  1  0
 33 62  1  0
M  CHG  1  23   1
M  END
>  <UniqueID>  (34) 
31

>  <SMILES>  (34) 
Cc1cc(-c2ccc(C(=O)N3CC[C@@H](c4ccccc4C)C3)[nH+]c2)n(-c2ccc(F)cc2C)n1

>  <Energy>  (34) 
117.30472510731893

>  <Genealogy>  (34) 
Cc1cc(-c2ccc(C(=O)N3CCC(c4ccccc4C)C3)[nH+]c2)n(-c2ccc(F)cc2C)n1 (protonated)
Cc1cc(-c2ccc(C(=O)N3CC[C@@H](c4ccccc4C)C3)[nH+]c2)n(-c2ccc(F)cc2C)n1 (chirality)
Cc1cc(-c2ccc(C(=O)N3CC[C@@H](c4ccccc4C)C3)[nH+]c2)n(-c2ccc(F)cc2C)n1 (3D coordinates assigned)
Cc1cc(-c2ccc(C(=O)N3CC[C@@H](c4ccccc4C)C3)[nH+]c2)n(-c2ccc(F)cc2C)n1 (nonaromatic ring conformer: 117.30472510731893 kcal/mol)

>  <smiles>  (34) 
Cc1cc(-c2ccc(C(=O)N3CCC(c4ccccc4C)C3)nc2)n(-c2ccc(F)cc2C)n1

>  <score_type>  (34) 
oracle

>  <origin>  (34) 
adg

>  <m_score__min__energy>  (34) 
-7.71

>  <m_primary>  (34) 
energy

$$$$
34:0
     RDKit          3D

 64 67  0  0  0  0  0  0  0  0999 V2000
   56.8913   19.5675   44.7526 H   0  0  0  0  0  0  0  0  0  0  0  0
   56.8670   20.6620   44.8600 C   0  0  0  0  0  0  0  0  0  0  0  0
   56.9400   21.4750   43.7290 C   0  0  0  0  0  0  0  0  0  0  0  0
   57.0245   21.0204   42.7309 H   0  0  0  0  0  0  0  0  0  0  0  0
   56.9060   22.8650   43.8610 C   0  0  0  0  0  0  0  0  0  0  0  0
   56.9641   23.5005   42.9651 H   0  0  0  0  0  0  0  0  0  0  0  0
   56.7980   23.4570   45.1310 C   0  0  0  0  0  0  0  0  0  0  0  0
   56.7600   24.9340   45.2430 C   0  0  0  0  0  0  0  0  0  0  0  0
   57.9040   25.6800   44.9240 C   0  0  0  0  0  0  0  0  0  0  0  0
   58.8150   25.1685   44.5798 H   0  0  0  0  0  0  0  0  0  0  0  0
   57.8880   27.0740   45.0430 C   0  0  0  0  0  0  0  0  0  0  0  0
   59.0080   27.8530   44.7340 C   0  0  0  0  0  0  0  0  0  0  0  0
   59.9343   27.3724   44.3863 H   0  0  0  0  0  0  0  0  0  0  0  0
   58.9500   29.2040   44.8640 N   0  0  0  0  0  0  0  0  0  0  0  0
   57.8310   29.8530   45.2910 C   0  0  0  0  0  0  0  0  0  0  0  0
   57.8670   31.1530   45.3870 N   0  0  0  0  0  0  0  0  0  0  0  0
   57.4210   32.1310   44.3930 C   0  0  0  0  0  0  0  0  0  0  0  0
   58.1080   32.1068   43.5343 H   0  0  0  0  0  0  0  0  0  0  0  0
   56.3988   31.8676   44.0836 H   0  0  0  0  0  0  0  0  0  0  0  0
   57.3980   33.5520   44.9740 C   0  0  0  0  0  0  0  0  0  0  0  0
   58.1214   34.1727   44.4250 H   0  0  0  0  0  0  0  0  0  0  0  0
   56.3770   33.9476   44.8688 H   0  0  0  0  0  0  0  0  0  0  0  0
   57.7630   33.5650   46.4650 C   0  0  0  0  0  0  0  0  0  0  0  0
   56.8546   33.7359   47.0614 H   0  0  0  0  0  0  0  0  0  0  0  0
   58.2098   32.5973   46.7368 H   0  0  0  0  0  0  0  0  0  0  0  0
   58.7390   34.6460   46.7360 N   0  0  0  0  0  0  0  0  0  0  0  0
   59.2800   34.5830   48.1080 C   0  0  0  0  0  0  0  0  0  0  0  0
   59.8697   35.4919   48.2979 H   0  0  0  0  0  0  0  0  0  0  0  0
   58.4301   34.5036   48.8018 H   0  0  0  0  0  0  0  0  0  0  0  0
   60.1840   33.3500   48.3250 C   0  0  0  0  0  0  0  0  0  0  0  0
   61.0450   33.6456   48.9425 H   0  0  0  0  0  0  0  0  0  0  0  0
   59.5843   32.5734   48.8223 H   0  0  0  0  0  0  0  0  0  0  0  0
   60.6810   32.7940   47.0490 N   0  0  0  0  0  0  0  0  0  0  0  0
   61.8150   31.8900   47.2890 C   0  0  0  0  0  0  0  0  0  0  0  0
   61.9655   31.7701   48.3720 H   0  0  0  0  0  0  0  0  0  0  0  0
   61.6042   30.9094   46.8373 H   0  0  0  0  0  0  0  0  0  0  0  0
   62.7239   32.3140   46.8373 H   0  0  0  0  0  0  0  0  0  0  0  0
   61.0660   33.8710   46.1250 C   0  0  0  0  0  0  0  0  0  0  0  0
   61.8015   34.5251   46.6160 H   0  0  0  0  0  0  0  0  0  0  0  0
   61.5036   33.4266   45.2189 H   0  0  0  0  0  0  0  0  0  0  0  0
   59.8270   34.7040   45.7290 C   0  0  0  0  0  0  0  0  0  0  0  0
   60.1351   35.7529   45.6069 H   0  0  0  0  0  0  0  0  0  0  0  0
   59.4315   34.2787   44.7948 H   0  0  0  0  0  0  0  0  0  0  0  0
   56.6800   29.1000   45.6080 C   0  0  0  0  0  0  0  0  0  0  0  0
   55.7636   29.6041   45.9489 H   0  0  0  0  0  0  0  0  0  0  0  0
   56.7150   27.7090   45.4850 C   0  0  0  0  0  0  0  0  0  0  0  0
   55.6190   26.9680   45.7920 N   0  0  0  0  0  0  0  0  0  0  0  0
   55.5990   25.6100   45.6790 C   0  0  0  0  0  0  0  0  0  0  0  0
   54.5310   24.9310   45.9920 N   0  0  0  0  0  0  0  0  0  0  0  0
   53.6330   24.2760   45.0840 C   0  0  0  0  0  0  0  0  0  0  0  0
   54.0630   23.3070   44.4030 O   0  0  0  0  0  0  0  0  0  0  0  0
   52.2860   24.7400   44.8980 N   0  0  0  0  0  0  0  0  0  0  0  0
   52.0190   25.6910   45.2360 H   0  0  0  0  0  0  0  0  0  0  0  0
   51.3100   24.0000   44.1040 C   0  0  0  0  0  0  0  0  0  0  0  0
   50.5561   23.5608   44.7739 H   0  0  0  0  0  0  0  0  0  0  0  0
   51.8306   23.2061   43.5484 H   0  0  0  0  0  0  0  0  0  0  0  0
   50.6200   24.9270   43.1110 C   0  0  0  0  0  0  0  0  0  0  0  0
   50.0504   25.6923   43.6586 H   0  0  0  0  0  0  0  0  0  0  0  0
   51.3762   25.4153   42.4787 H   0  0  0  0  0  0  0  0  0  0  0  0
   49.9353   24.3427   42.4787 H   0  0  0  0  0  0  0  0  0  0  0  0
   56.7270   22.6300   46.2730 C   0  0  0  0  0  0  0  0  0  0  0  0
   56.6410   23.3030   47.8990 Cl  0  0  0  0  0  0  0  0  0  0  0  0
   56.7630   21.2370   46.1300 C   0  0  0  0  0  0  0  0  0  0  0  0
   56.7092   20.5932   47.0203 H   0  0  0  0  0  0  0  0  0  0  0  0
  1  2  1  0
  2  3  2  0
  3  4  1  0
  3  5  1  0
  5  6  1  0
  5  7  2  0
  7  8  1  0
  8  9  2  0
  9 10  1  0
  9 11  1  0
 11 12  2  0
 12 13  1  0
 12 14  1  0
 14 15  1  0
 15 16  2  0
 16 17  1  0
 17 18  1  0
 17 19  1  0
 17 20  1  0
 20 21  1  0
 20 22  1  0
 20 23  1  0
 23 24  1  0
 23 25  1  0
 23 26  1  0
 26 27  1  0
 27 28  1  0
 27 29  1  0
 27 30  1  0
 30 31  1  0
 30 32  1  0
 30 33  1  0
 33 34  1  0
 34 35  1  0
 34 36  1  0
 34 37  1  0
 33 38  1  0
 38 39  1  0
 38 40  1  0
 38 41  1  0
 41 42  1  0
 41 43  1  0
 15 44  1  0
 44 45  1  0
 44 46  2  0
 46 47  1  0
 47 48  1  0
 48 49  2  0
 49 50  1  0
 50 51  2  0
 50 52  1  0
 52 53  1  0
 52 54  1  0
 54 55  1  0
 54 56  1  0
 54 57  1  0
 57 58  1  0
 57 59  1  0
 57 60  1  0
  7 61  1  0
 61 62  1  0
 61 63  2  0
 63 64  1  0
 63  2  1  0
 48  8  1  0
 46 11  1  0
 41 26  1  0
M  CHG  2  14  -1  47  -1
M  END
>  <UniqueID>  (35) 
32

>  <SMILES>  (35) 
CCNC(=O)/N=c1\[n-]c2c/c(=N\CCCN3CCN(C)CC3)[n-]cc2cc1-c1ccccc1Cl

>  <Energy>  (35) 
88.84340519458033

>  <Genealogy>  (35) 
CCNC(=O)N=c1[n-]c2cc(=NCCCN3CCN(C)CC3)[n-]cc2cc1-c1ccccc1Cl (protonated)
CCNC(=O)/N=c1\[n-]c2c/c(=N\CCCN3CCN(C)CC3)[n-]cc2cc1-c1ccccc1Cl (cis-trans isomerization)
CCNC(=O)/N=c1\[n-]c2c/c(=N\CCCN3CCN(C)CC3)[n-]cc2cc1-c1ccccc1Cl (3D coordinates assigned)
CCNC(=O)/N=c1\[n-]c2c/c(=N\CCCN3CCN(C)CC3)[n-]cc2cc1-c1ccccc1Cl (nonaromatic ring conformer: 88.84340519458033 kcal/mol)

>  <smiles>  (35) 
CCNC(=O)N=c1[nH]c2cc(=NCCCN3CCN(C)CC3)[nH]cc2cc1-c1ccccc1Cl

>  <score_type>  (35) 
oracle

>  <origin>  (35) 
adg

>  <m_score__min__energy>  (35) 
-12.210000000000001

>  <m_primary>  (35) 
energy

$$$$
35:0
     RDKit          3D

 53 55  0  0  0  0  0  0  0  0999 V2000
   61.0680   29.6130   51.9670 C   0  0  0  0  0  0  0  0  0  0  0  0
   61.5570   29.0540   50.6330 C   0  0  0  0  0  0  0  0  0  0  0  0
   61.1980   29.9170   49.4940 N   0  0  0  0  0  0  0  0  0  0  0  0
   60.1710   29.3440   48.6450 C   0  0  0  0  0  0  0  0  0  0  0  0
   60.1590   27.9550   48.4100 C   0  0  0  0  0  0  0  0  0  0  0  0
   59.1810   27.3710   47.6060 C   0  0  0  0  0  0  0  0  0  0  0  0
   58.1830   28.1570   47.0200 C   0  0  0  0  0  0  0  0  0  0  0  0
   57.0440   27.4620   45.8740 S   0  0  0  0  0  0  0  0  0  0  0  0
   56.2110   26.4030   46.5330 O   0  0  0  0  0  0  0  0  0  0  0  0
   57.7970   26.8360   44.7350 O   0  0  0  0  0  0  0  0  0  0  0  0
   56.0410   28.7320   45.2580 N   0  0  0  0  0  0  0  0  0  0  0  0
   56.5110   29.7350   44.3500 C   0  0  0  0  0  0  0  0  0  0  0  0
   56.1550   29.6490   42.9970 C   0  0  0  0  0  0  0  0  0  0  0  0
   56.6360   30.5900   42.0820 C   0  0  0  0  0  0  0  0  0  0  0  0
   57.4710   31.6370   42.5120 C   0  0  0  0  0  0  0  0  0  0  0  0
   57.9540   32.6600   41.5290 C   0  0  0  0  0  0  0  0  0  0  0  0
   57.7980   31.7410   43.8700 C   0  0  0  0  0  0  0  0  0  0  0  0
   57.3230   30.7980   44.7870 C   0  0  0  0  0  0  0  0  0  0  0  0
   58.1830   29.5340   47.2320 C   0  0  0  0  0  0  0  0  0  0  0  0
   59.1950   30.1500   47.9890 C   0  0  0  0  0  0  0  0  0  0  0  0
   59.2680   31.6250   47.9280 C   0  0  0  0  0  0  0  0  0  0  0  0
   58.4620   32.2640   47.2010 O   0  0  0  0  0  0  0  0  0  0  0  0
   60.2220   32.3250   48.7460 N   0  0  0  0  0  0  0  0  0  0  0  0
   61.4450   32.6550   48.4310 C   0  0  0  0  0  0  0  0  0  0  0  0
   61.7540   33.4610   47.3150 C   0  0  0  0  0  0  0  0  0  0  0  0
   63.0870   33.7690   47.0440 C   0  0  0  0  0  0  0  0  0  0  0  0
   64.0970   33.3070   47.8800 C   0  0  0  0  0  0  0  0  0  0  0  0
   63.7610   32.5360   48.9950 C   0  0  0  0  0  0  0  0  0  0  0  0
   64.8280   32.0040   49.8920 C   0  0  0  0  0  0  0  0  0  0  0  0
   62.4560   32.2330   49.2380 N   0  0  0  0  0  0  0  0  0  0  0  0
   61.5472   29.0652   52.7918 H   0  0  0  0  0  0  0  0  0  0  0  0
   61.3283   30.6796   52.0351 H   0  0  0  0  0  0  0  0  0  0  0  0
   59.9763   29.4969   52.0351 H   0  0  0  0  0  0  0  0  0  0  0  0
   62.6521   28.9575   50.6711 H   0  0  0  0  0  0  0  0  0  0  0  0
   61.0702   28.0794   50.4804 H   0  0  0  0  0  0  0  0  0  0  0  0
   62.0490   30.0880   48.9110 H   0  0  0  0  0  0  0  0  0  0  0  0
   60.9080   30.8410   49.8980 H   0  0  0  0  0  0  0  0  0  0  0  0
   60.9330   27.3215   48.8678 H   0  0  0  0  0  0  0  0  0  0  0  0
   59.1942   26.2850   47.4313 H   0  0  0  0  0  0  0  0  0  0  0  0
   55.4950   28.8385   42.6542 H   0  0  0  0  0  0  0  0  0  0  0  0
   56.3600   30.5112   41.0201 H   0  0  0  0  0  0  0  0  0  0  0  0
   58.3626   33.5254   42.0713 H   0  0  0  0  0  0  0  0  0  0  0  0
   58.7391   32.2193   40.8971 H   0  0  0  0  0  0  0  0  0  0  0  0
   57.1148   32.9862   40.8971 H   0  0  0  0  0  0  0  0  0  0  0  0
   58.4325   32.5697   44.2174 H   0  0  0  0  0  0  0  0  0  0  0  0
   57.5846   30.8873   45.8517 H   0  0  0  0  0  0  0  0  0  0  0  0
   57.3791   30.1485   46.8006 H   0  0  0  0  0  0  0  0  0  0  0  0
   60.9522   33.8424   46.6656 H   0  0  0  0  0  0  0  0  0  0  0  0
   63.3402   34.3801   46.1651 H   0  0  0  0  0  0  0  0  0  0  0  0
   65.1491   33.5460   47.6657 H   0  0  0  0  0  0  0  0  0  0  0  0
   64.5322   32.1515   50.9412 H   0  0  0  0  0  0  0  0  0  0  0  0
   64.9685   30.9304   49.6981 H   0  0  0  0  0  0  0  0  0  0  0  0
   65.7700   32.5379   49.6981 H   0  0  0  0  0  0  0  0  0  0  0  0
  1  2  1  0
  2  3  1  0
  3  4  1  0
  4  5  2  0
  5  6  1  0
  6  7  2  0
  7  8  1  0
  8  9  2  0
  8 10  2  0
  8 11  1  0
 11 12  1  0
 12 13  2  0
 13 14  1  0
 14 15  2  0
 15 16  1  0
 15 17  1  0
 17 18  2  0
  7 19  1  0
 19 20  2  0
 20 21  1  0
 21 22  2  0
 21 23  1  0
 23 24  2  3
 24 25  1  0
 25 26  2  0
 26 27  1  0
 27 28  2  0
 28 29  1  0
 28 30  1  0
 20  4  1  0
 30 24  1  0
 18 12  1  0
  1 31  1  0
  1 32  1  0
  1 33  1  0
  2 34  1  0
  2 35  1  0
  3 36  1  0
  3 37  1  0
  5 38  1  0
  6 39  1  0
 13 40  1  0
 14 41  1  0
 16 42  1  0
 16 43  1  0
 16 44  1  0
 17 45  1  0
 18 46  1  0
 19 47  1  0
 25 48  1  0
 26 49  1  0
 27 50  1  0
 29 51  1  0
 29 52  1  0
 29 53  1  0
M  CHG  3   3   1  11  -1  30  -1
M  END
>  <UniqueID>  (36) 
33

>  <SMILES>  (36) 
CC[NH2+]c1ccc(S(=O)(=O)[N-]c2ccc(C)cc2)cc1C(=O)N=c1cccc(C)[n-]1

>  <Energy>  (36) 
74.57031963417988

>  <Genealogy>  (36) 
CC[NH2+]c1ccc(S(=O)(=O)[N-]c2ccc(C)cc2)cc1C(=O)N=c1cccc(C)[n-]1 (protonated)
CC[NH2+]c1ccc(S(=O)(=O)[N-]c2ccc(C)cc2)cc1C(=O)N=c1cccc(C)[n-]1 (3D coordinates assigned)
CC[NH2+]c1ccc(S(=O)(=O)[N-]c2ccc(C)cc2)cc1C(=O)N=c1cccc(C)[n-]1 (optimized conformer: 74.57031963417988 kcal/mol)

>  <smiles>  (36) 
CCNc1ccc(S(=O)(=O)Nc2ccc(C)cc2)cc1C(=O)N=c1cccc(C)[nH]1

>  <score_type>  (36) 
oracle

>  <origin>  (36) 
adg

>  <m_score__min__energy>  (36) 
-10.75

>  <m_primary>  (36) 
energy

$$$$
36:0
     RDKit          3D

 51 54  0  0  0  0  0  0  0  0999 V2000
   58.3610   23.4470   45.3650 C   0  0  0  0  0  0  0  0  0  0  0  0
   58.5120   24.8450   45.7990 N   0  0  0  0  0  0  0  0  0  0  0  0
   59.9400   25.1560   46.0250 C   0  0  0  0  0  0  0  0  0  0  0  0
   60.0940   26.5410   46.6760 C   0  0  0  0  0  0  0  0  0  0  0  0
   59.2630   27.5680   45.9520 C   0  0  0  0  0  0  0  0  0  0  0  0
   58.1970   27.1760   45.1550 C   0  0  0  0  0  0  0  0  0  0  0  0
   57.3610   28.5270   44.6110 S   0  0  0  0  0  0  0  0  0  0  0  0
   58.3110   29.6390   45.4570 C   0  0  0  0  0  0  0  0  0  0  0  0
   58.1990   31.0660   45.3840 N   0  0  0  0  0  0  0  0  0  0  0  0
   57.0740   31.8060   44.8950 C   0  0  0  0  0  0  0  0  0  0  0  0
   56.0800   31.1690   44.4520 O   0  0  0  0  0  0  0  0  0  0  0  0
   57.0530   33.3110   44.8930 C   0  0  0  0  0  0  0  0  0  0  0  0
   58.0980   33.8760   45.8200 C   0  0  0  0  0  0  0  0  0  0  0  0
   58.1600   33.4500   47.1570 C   0  0  0  0  0  0  0  0  0  0  0  0
   59.1460   33.9530   48.0120 C   0  0  0  0  0  0  0  0  0  0  0  0
   60.0800   34.8770   47.5360 C   0  0  0  0  0  0  0  0  0  0  0  0
   60.0330   35.2960   46.2040 C   0  0  0  0  0  0  0  0  0  0  0  0
   59.0490   34.7950   45.3450 C   0  0  0  0  0  0  0  0  0  0  0  0
   59.3320   28.9660   46.1270 C   0  0  0  0  0  0  0  0  0  0  0  0
   60.3360   29.6590   46.9500 C   0  0  0  0  0  0  0  0  0  0  0  0
   60.8750   29.0390   47.9050 O   0  0  0  0  0  0  0  0  0  0  0  0
   60.6840   31.0260   46.6710 N   0  0  0  0  0  0  0  0  0  0  0  0
   61.6770   31.7690   47.3970 C   0  0  0  0  0  0  0  0  0  0  0  0
   61.8710   31.5050   48.7620 C   0  0  0  0  0  0  0  0  0  0  0  0
   62.8460   32.1990   49.4850 C   0  0  0  0  0  0  0  0  0  0  0  0
   63.6450   33.1510   48.8490 C   0  0  0  0  0  0  0  0  0  0  0  0
   63.4770   33.4050   47.4840 C   0  0  0  0  0  0  0  0  0  0  0  0
   62.5020   32.7130   46.7570 C   0  0  0  0  0  0  0  0  0  0  0  0
   57.9270   25.7510   44.7870 C   0  0  0  0  0  0  0  0  0  0  0  0
   58.2905   22.7946   46.2478 H   0  0  0  0  0  0  0  0  0  0  0  0
   57.4468   23.3472   44.7614 H   0  0  0  0  0  0  0  0  0  0  0  0
   59.2327   23.1543   44.7614 H   0  0  0  0  0  0  0  0  0  0  0  0
   60.3757   24.3941   46.6880 H   0  0  0  0  0  0  0  0  0  0  0  0
   60.4608   25.1588   45.0561 H   0  0  0  0  0  0  0  0  0  0  0  0
   59.7655   26.4852   47.7243 H   0  0  0  0  0  0  0  0  0  0  0  0
   61.1510   26.8406   46.6213 H   0  0  0  0  0  0  0  0  0  0  0  0
   57.2483   33.6704   43.8719 H   0  0  0  0  0  0  0  0  0  0  0  0
   56.0642   33.6442   45.2413 H   0  0  0  0  0  0  0  0  0  0  0  0
   57.4302   32.7179   47.5331 H   0  0  0  0  0  0  0  0  0  0  0  0
   59.1863   33.6210   49.0599 H   0  0  0  0  0  0  0  0  0  0  0  0
   60.8527   35.2747   48.2104 H   0  0  0  0  0  0  0  0  0  0  0  0
   60.7709   36.0210   45.8301 H   0  0  0  0  0  0  0  0  0  0  0  0
   59.0197   35.1213   44.2949 H   0  0  0  0  0  0  0  0  0  0  0  0
   60.2370   31.4920   45.8510 H   0  0  0  0  0  0  0  0  0  0  0  0
   61.2523   30.7477   49.2658 H   0  0  0  0  0  0  0  0  0  0  0  0
   62.9838   31.9945   50.5570 H   0  0  0  0  0  0  0  0  0  0  0  0
   64.4064   33.7011   49.4213 H   0  0  0  0  0  0  0  0  0  0  0  0
   64.1119   34.1495   46.9814 H   0  0  0  0  0  0  0  0  0  0  0  0
   62.3798   32.9075   45.6812 H   0  0  0  0  0  0  0  0  0  0  0  0
   56.8403   25.5877   44.7374 H   0  0  0  0  0  0  0  0  0  0  0  0
   58.3824   25.5395   43.8083 H   0  0  0  0  0  0  0  0  0  0  0  0
  1  2  1  0
  2  3  1  0
  3  4  1  0
  4  5  1  0
  5  6  2  0
  6  7  1  0
  7  8  1  0
  8  9  1  0
  9 10  1  0
 10 11  2  0
 10 12  1  0
 12 13  1  0
 13 14  2  0
 14 15  1  0
 15 16  2  0
 16 17  1  0
 17 18  2  0
  8 19  2  0
 19 20  1  0
 20 21  2  0
 20 22  1  0
 22 23  1  0
 23 24  2  0
 24 25  1  0
 25 26  2  0
 26 27  1  0
 27 28  2  0
  6 29  1  0
 29  2  1  0
 19  5  1  0
 28 23  1  0
 18 13  1  0
  1 30  1  0
  1 31  1  0
  1 32  1  0
  3 33  1  0
  3 34  1  0
  4 35  1  0
  4 36  1  0
 12 37  1  0
 12 38  1  0
 14 39  1  0
 15 40  1  0
 16 41  1  0
 17 42  1  0
 18 43  1  0
 22 44  1  0
 24 45  1  0
 25 46  1  0
 26 47  1  0
 27 48  1  0
 28 49  1  0
 29 50  1  0
 29 51  1  0
M  CHG  1   9  -1
M  END
>  <UniqueID>  (37) 
34

>  <SMILES>  (37) 
CN1CCc2c(sc([N-]C(=O)Cc3ccccc3)c2C(=O)Nc2ccccc2)C1

>  <Energy>  (37) 
95.57090202378413

>  <Genealogy>  (37) 
CN1CCc2c(sc([N-]C(=O)Cc3ccccc3)c2C(=O)Nc2ccccc2)C1 (protonated)
CN1CCc2c(sc([N-]C(=O)Cc3ccccc3)c2C(=O)Nc2ccccc2)C1 (3D coordinates assigned)
CN1CCc2c(sc([N-]C(=O)Cc3ccccc3)c2C(=O)Nc2ccccc2)C1 (nonaromatic ring conformer: 95.57090202378413 kcal/mol)

>  <smiles>  (37) 
CN1CCc2c(sc(NC(=O)Cc3ccccc3)c2C(=O)Nc2ccccc2)C1

>  <score_type>  (37) 
oracle

>  <origin>  (37) 
adg

>  <m_score__min__energy>  (37) 
-10.029999999999999

>  <m_primary>  (37) 
energy

$$$$
37:0
     RDKit          3D

 41 44  0  0  1  0  0  0  0  0999 V2000
   59.4050   35.2420   46.0990 N   0  0  0  0  0  0  0  0  0  0  0  0
   60.2930   34.5470   46.4150 C   0  0  0  0  0  0  0  0  0  0  0  0
   61.3830   33.6780   46.7810 C   0  0  0  0  0  0  0  0  0  0  0  0
   62.6850   33.9580   46.3990 C   0  0  0  0  0  0  0  0  0  0  0  0
   63.7310   33.1080   46.7610 C   0  0  0  0  0  0  0  0  0  0  0  0
   63.4630   31.9750   47.5080 C   0  0  0  0  0  0  0  0  0  0  0  0
   62.1590   31.6930   47.8920 C   0  0  0  0  0  0  0  0  0  0  0  0
   61.1270   32.5470   47.5250 C   0  0  0  0  0  0  0  0  0  0  0  0
   59.4860   32.0980   48.0680 S   0  0  0  0  0  0  0  0  0  0  0  0
   58.4720   31.6180   46.6590 C   0  0  0  0  0  0  0  0  0  0  0  0
   58.0460   32.5120   45.7490 N   0  0  0  0  0  0  0  0  0  0  0  0
   57.2800   32.1130   44.6980 C   0  0  0  0  0  0  0  0  0  0  0  0
   56.9590   30.8050   44.5870 N   0  0  0  0  0  0  0  0  0  0  0  0
   57.3700   29.8780   45.4840 C   0  0  0  0  0  0  0  0  0  0  0  0
   57.0190   28.5530   45.3340 C   0  0  0  0  0  0  0  0  0  0  0  0
   57.4180   27.5660   46.2260 C   0  0  0  0  0  0  0  0  0  0  0  0
   56.9810   25.8910   46.0470 S   0  0  0  0  0  0  0  0  0  0  0  0
   55.4470   25.8880   46.0150 O   0  0  0  0  0  0  0  0  0  0  0  0
   57.2530   25.0540   47.2530 O   0  0  0  0  0  0  0  0  0  0  0  0
   57.3980   25.2070   44.5500 N   0  0  0  0  0  0  0  0  0  0  0  0
   57.4850   23.9640   44.2700 C   0  0  0  0  0  0  0  0  0  0  0  0
   56.5960   23.4550   43.3460 C   0  0  0  0  0  0  0  0  0  0  0  0
   56.6040   22.1290   42.9720 C   0  0  0  0  0  0  0  0  0  0  0  0
   57.5290   21.3390   43.5560 N   0  0  0  0  0  0  0  0  0  0  0  0
   58.3900   21.8520   44.4570 C   0  0  0  0  0  0  0  0  0  0  0  0
   58.3950   23.1390   44.8310 N   0  0  0  0  0  0  0  0  0  0  0  0
   58.2030   28.0240   47.2920 C   0  0  0  0  0  0  0  0  0  0  0  0
   58.5570   29.3240   47.4550 C   0  0  0  0  0  0  0  0  0  0  0  0
   58.1460   30.2810   46.5510 C   0  0  0  0  0  0  0  0  0  0  0  0
   62.8963   34.8591   45.8046 H   0  0  0  0  0  0  0  0  0  0  0  0
   64.7621   33.3376   46.4542 H   0  0  0  0  0  0  0  0  0  0  0  0
   64.2812   31.2990   47.7971 H   0  0  0  0  0  0  0  0  0  0  0  0
   61.9432   30.7933   48.4869 H   0  0  0  0  0  0  0  0  0  0  0  0
   56.9285   32.8414   43.9525 H   0  0  0  0  0  0  0  0  0  0  0  0
   56.3977   28.2660   44.4728 H   0  0  0  0  0  0  0  0  0  0  0  0
   55.8558   24.1306   42.8925 H   0  0  0  0  0  0  0  0  0  0  0  0
   55.8911   21.7336   42.2334 H   0  0  0  0  0  0  0  0  0  0  0  0
   57.5860   20.3190   43.3130 H   0  0  0  0  0  0  0  0  0  0  0  0
   59.1301   21.1766   44.9109 H   0  0  0  0  0  0  0  0  0  0  0  0
   58.5506   27.2918   48.0357 H   0  0  0  0  0  0  0  0  0  0  0  0
   59.1769   29.6168   48.3153 H   0  0  0  0  0  0  0  0  0  0  0  0
  1  2  3  0
  2  3  1  0
  3  4  2  0
  4  5  1  0
  5  6  2  0
  6  7  1  0
  7  8  2  0
  8  9  1  0
  9 10  1  0
 10 11  2  0
 11 12  1  0
 12 13  2  0
 13 14  1  0
 14 15  2  0
 15 16  1  0
 16 17  1  0
 17 18  2  0
 17 19  2  0
 17 20  1  0
 20 21  2  0
 21 22  1  0
 22 23  2  0
 23 24  1  0
 24 25  1  0
 25 26  2  0
 16 27  2  0
 27 28  1  0
 28 29  2  0
  8  3  1  0
 29 10  1  0
 29 14  1  0
 26 21  1  0
  4 30  1  0
  5 31  1  0
  6 32  1  0
  7 33  1  0
 12 34  1  0
 15 35  1  0
 22 36  1  0
 23 37  1  0
 24 38  1  0
 25 39  1  0
 27 40  1  0
 28 41  1  0
M  END
>  <smiles>  (38) 
N#Cc1ccccc1Sc1ncnc2cc(S(=O)(=O)N=c3cc[nH]cn3)ccc12

>  <score_type>  (38) 
oracle

>  <origin>  (38) 
adg

>  <m_score__min__energy>  (38) 
-9.7899999999999991

>  <m_primary>  (38) 
energy

$$$$
38:0
     RDKit          3D

 20 20  0  0  0  0  0  0  0  0999 V2000
   56.3034   32.0732   51.8952 H   0  0  0  0  0  0  0  0  0  0  0  0
   56.4990   30.9960   52.0020 C   0  0  0  0  0  0  0  0  0  0  0  0
   57.2760   30.4130   51.2030 O   0  0  0  0  0  0  0  0  0  0  0  0
   55.8720   30.2540   53.0480 N   0  0  0  0  0  0  0  0  0  0  0  0
   55.6080   28.9890   52.9370 C   0  0  0  0  0  0  0  0  0  0  0  0
   56.4247   28.2713   52.7701 H   0  0  0  0  0  0  0  0  0  0  0  0
   54.1980   28.5030   53.0350 C   0  0  0  0  0  0  0  0  0  0  0  0
   54.0615   27.6494   52.3548 H   0  0  0  0  0  0  0  0  0  0  0  0
   53.9989   28.1974   54.0728 H   0  0  0  0  0  0  0  0  0  0  0  0
   53.2350   29.5960   52.6570 C   0  0  0  0  0  0  0  0  0  0  0  0
   53.1820   30.0660   51.3340 C   0  0  0  0  0  0  0  0  0  0  0  0
   53.8288   29.6160   50.5664 H   0  0  0  0  0  0  0  0  0  0  0  0
   52.3100   31.1040   50.9890 C   0  0  0  0  0  0  0  0  0  0  0  0
   52.2677   31.4636   49.9503 H   0  0  0  0  0  0  0  0  0  0  0  0
   51.4920   31.6850   51.9630 C   0  0  0  0  0  0  0  0  0  0  0  0
   50.6270   32.7150   51.6190 O   0  0  0  0  0  0  0  0  0  0  0  0
   51.5490   31.2300   53.2850 C   0  0  0  0  0  0  0  0  0  0  0  0
   50.9075   31.6889   54.0518 H   0  0  0  0  0  0  0  0  0  0  0  0
   52.4200   30.1930   53.6330 C   0  0  0  0  0  0  0  0  0  0  0  0
   52.4672   29.8434   54.6749 H   0  0  0  0  0  0  0  0  0  0  0  0
  1  2  1  0
  2  3  2  0
  2  4  1  0
  4  5  2  0
  5  6  1  0
  5  7  1  0
  7  8  1  0
  7  9  1  0
  7 10  1  0
 10 11  2  0
 11 12  1  0
 11 13  1  0
 13 14  1  0
 13 15  2  0
 15 16  1  0
 15 17  1  0
 17 18  1  0
 17 19  2  0
 19 20  1  0
 19 10  1  0
M  CHG  1  16  -1
M  END
>  <UniqueID>  (39) 
35

>  <SMILES>  (39) 
O=C/N=C/Cc1ccc([O-])cc1

>  <Energy>  (39) 
14.337271952989372

>  <Genealogy>  (39) 
O=CN=CCc1ccc([O-])cc1 (protonated)
O=C/N=C/Cc1ccc([O-])cc1 (cis-trans isomerization)
O=C/N=C/Cc1ccc([O-])cc1 (3D coordinates assigned)
O=C/N=C/Cc1ccc([O-])cc1 (optimized conformer: 14.337271952989372 kcal/mol)

>  <smiles>  (39) 
O=CN=CCc1ccc(O)cc1

>  <score_type>  (39) 
oracle

>  <origin>  (39) 
adg

>  <m_score__min__energy>  (39) 
-8.7599999999999998

>  <m_primary>  (39) 
energy

$$$$
39:0
     RDKit          3D

 41 42  0  0  0  0  0  0  0  0999 V2000
   59.1172   25.9091   47.7998 H   0  0  0  0  0  0  0  0  0  0  0  0
   58.5600   26.6110   47.1620 C   0  0  0  0  0  0  0  0  0  0  0  0
   58.9280   28.2360   46.9210 S   0  0  0  0  0  0  0  0  0  0  0  0
   57.6340   28.4890   45.8650 C   0  0  0  0  0  0  0  0  0  0  0  0
   57.3300   29.5980   45.2540 N   0  0  0  0  0  0  0  0  0  0  0  0
   56.3000   29.8020   44.2720 C   0  0  0  0  0  0  0  0  0  0  0  0
   55.1420   29.3260   44.4230 O   0  0  0  0  0  0  0  0  0  0  0  0
   56.5960   30.6320   43.0630 C   0  0  0  0  0  0  0  0  0  0  0  0
   56.8061   29.9690   42.2107 H   0  0  0  0  0  0  0  0  0  0  0  0
   55.7242   31.2657   42.8429 H   0  0  0  0  0  0  0  0  0  0  0  0
   57.8110   31.5290   43.3160 C   0  0  0  0  0  0  0  0  0  0  0  0
   58.5678   30.9598   43.8756 H   0  0  0  0  0  0  0  0  0  0  0  0
   58.2132   31.8554   42.3456 H   0  0  0  0  0  0  0  0  0  0  0  0
   57.4200   32.7690   44.1230 C   0  0  0  0  0  0  0  0  0  0  0  0
   58.1584   33.5644   43.9438 H   0  0  0  0  0  0  0  0  0  0  0  0
   56.4201   33.0984   43.8040 H   0  0  0  0  0  0  0  0  0  0  0  0
   57.3820   32.4700   45.5190 O   0  0  0  0  0  0  0  0  0  0  0  0
   58.2020   33.0540   46.4990 C   0  0  0  0  0  0  0  0  0  0  0  0
   58.4170   32.4670   47.7650 C   0  0  0  0  0  0  0  0  0  0  0  0
   57.9367   31.5093   48.0143 H   0  0  0  0  0  0  0  0  0  0  0  0
   59.2390   33.1000   48.7030 C   0  0  0  0  0  0  0  0  0  0  0  0
   59.4050   32.6379   49.6873 H   0  0  0  0  0  0  0  0  0  0  0  0
   59.8500   34.3180   48.3930 C   0  0  0  0  0  0  0  0  0  0  0  0
   60.4957   34.8133   49.1331 H   0  0  0  0  0  0  0  0  0  0  0  0
   59.6410   34.9070   47.1430 C   0  0  0  0  0  0  0  0  0  0  0  0
   60.1220   35.8656   46.8988 H   0  0  0  0  0  0  0  0  0  0  0  0
   58.8190   34.2760   46.2020 C   0  0  0  0  0  0  0  0  0  0  0  0
   58.6560   34.7442   45.2200 H   0  0  0  0  0  0  0  0  0  0  0  0
   56.9240   27.3540   45.6910 N   0  0  0  0  0  0  0  0  0  0  0  0
   56.0900   27.2820   45.0630 H   0  0  0  0  0  0  0  0  0  0  0  0
   57.4250   26.3120   46.4110 C   0  0  0  0  0  0  0  0  0  0  0  0
   56.8480   24.9330   46.3210 C   0  0  0  0  0  0  0  0  0  0  0  0
   56.7312   24.5185   47.3332 H   0  0  0  0  0  0  0  0  0  0  0  0
   57.5240   24.2923   45.7357 H   0  0  0  0  0  0  0  0  0  0  0  0
   55.5140   24.9890   45.6500 C   0  0  0  0  0  0  0  0  0  0  0  0
   54.6970   25.9010   45.9530 O   0  0  0  0  0  0  0  0  0  0  0  0
   55.2050   24.0530   44.6600 O   0  0  0  0  0  0  0  0  0  0  0  0
   56.1330   23.6680   43.6540 C   0  0  0  0  0  0  0  0  0  0  0  0
   57.0501   23.2875   44.1274 H   0  0  0  0  0  0  0  0  0  0  0  0
   55.6893   22.8797   43.0281 H   0  0  0  0  0  0  0  0  0  0  0  0
   56.3776   24.5389   43.0281 H   0  0  0  0  0  0  0  0  0  0  0  0
  1  2  1  0
  2  3  1  0
  3  4  1  0
  4  5  2  0
  5  6  1  0
  6  7  2  0
  6  8  1  0
  8  9  1  0
  8 10  1  0
  8 11  1  0
 11 12  1  0
 11 13  1  0
 11 14  1  0
 14 15  1  0
 14 16  1  0
 14 17  1  0
 17 18  1  0
 18 19  2  0
 19 20  1  0
 19 21  1  0
 21 22  1  0
 21 23  2  0
 23 24  1  0
 23 25  1  0
 25 26  1  0
 25 27  2  0
 27 28  1  0
  4 29  1  0
 29 30  1  0
 29 31  1  0
 31 32  1  0
 32 33  1  0
 32 34  1  0
 32 35  1  0
 35 36  2  0
 35 37  1  0
 37 38  1  0
 38 39  1  0
 38 40  1  0
 38 41  1  0
 31  2  2  0
 27 18  1  0
M  END
>  <UniqueID>  (40) 
36

>  <SMILES>  (40) 
COC(=O)Cc1cs/c(=N\C(=O)CCCOc2ccccc2)[nH]1

>  <Energy>  (40) 
64.24573353256123

>  <Genealogy>  (40) 
COC(=O)Cc1cs/c(=N\C(=O)CCCOc2ccccc2)[nH]1 (cis-trans isomerization)
COC(=O)Cc1cs/c(=N\C(=O)CCCOc2ccccc2)[nH]1 (3D coordinates assigned)
COC(=O)Cc1cs/c(=N\C(=O)CCCOc2ccccc2)[nH]1 (optimized conformer: 64.24573353256123 kcal/mol)

>  <smiles>  (40) 
COC(=O)Cc1csc(=NC(=O)CCCOc2ccccc2)[nH]1

>  <score_type>  (40) 
oracle

>  <origin>  (40) 
adg

>  <m_score__min__energy>  (40) 
-7.9299999999999997

>  <m_primary>  (40) 
energy

$$$$
40:0
     RDKit          3D

 38 40  0  0  0  0  0  0  0  0999 V2000
   56.3060   29.8700   42.8560 O   0  0  0  0  0  0  0  0  0  0  0  0
   56.2050   30.2050   44.0550 N   0  0  0  0  0  0  0  0  0  0  0  0
   55.1990   29.6490   44.8130 O   0  0  0  0  0  0  0  0  0  0  0  0
   57.1960   31.0480   44.6740 C   0  0  0  0  0  0  0  0  0  0  0  0
   57.0960   32.4440   44.5390 C   0  0  0  0  0  0  0  0  0  0  0  0
   58.0160   33.2890   45.1630 C   0  0  0  0  0  0  0  0  0  0  0  0
   59.0530   32.7520   45.9260 C   0  0  0  0  0  0  0  0  0  0  0  0
   59.1790   31.3700   46.0590 C   0  0  0  0  0  0  0  0  0  0  0  0
   58.2650   30.5080   45.4330 C   0  0  0  0  0  0  0  0  0  0  0  0
   58.4700   29.0930   45.5370 N   0  0  0  0  0  0  0  0  0  0  0  0
   58.0360   28.3940   46.7560 C   0  0  0  0  0  0  0  0  0  0  0  0
   58.2650   26.8850   46.6410 C   0  0  0  0  0  0  0  0  0  0  0  0
   57.7780   26.4050   45.3430 N   0  0  0  0  0  0  0  0  0  0  0  0
   56.8650   25.2980   45.2840 C   0  0  0  0  0  0  0  0  0  0  0  0
   57.3270   24.0340   44.8830 C   0  0  0  0  0  0  0  0  0  0  0  0
   56.4510   22.9470   44.8320 C   0  0  0  0  0  0  0  0  0  0  0  0
   55.1070   23.1130   45.1800 C   0  0  0  0  0  0  0  0  0  0  0  0
   54.6380   24.3700   45.5750 C   0  0  0  0  0  0  0  0  0  0  0  0
   55.5110   25.4630   45.6250 C   0  0  0  0  0  0  0  0  0  0  0  0
   55.0210   26.7110   45.9940 O   0  0  0  0  0  0  0  0  0  0  0  0
   58.1170   27.1250   44.1060 C   0  0  0  0  0  0  0  0  0  0  0  0
   58.9990   28.3450   44.3890 C   0  0  0  0  0  0  0  0  0  0  0  0
   56.2840   32.8752   43.9351 H   0  0  0  0  0  0  0  0  0  0  0  0
   57.9229   34.3795   45.0528 H   0  0  0  0  0  0  0  0  0  0  0  0
   59.7720   33.4197   46.4232 H   0  0  0  0  0  0  0  0  0  0  0  0
   60.0008   30.9520   46.6589 H   0  0  0  0  0  0  0  0  0  0  0  0
   58.6077   28.7792   47.6132 H   0  0  0  0  0  0  0  0  0  0  0  0
   56.9596   28.5730   46.8952 H   0  0  0  0  0  0  0  0  0  0  0  0
   59.3404   26.6713   46.7291 H   0  0  0  0  0  0  0  0  0  0  0  0
   57.7176   26.3726   47.4459 H   0  0  0  0  0  0  0  0  0  0  0  0
   58.3834   23.8992   44.6078 H   0  0  0  0  0  0  0  0  0  0  0  0
   56.8191   21.9592   44.5177 H   0  0  0  0  0  0  0  0  0  0  0  0
   54.4190   22.2555   45.1431 H   0  0  0  0  0  0  0  0  0  0  0  0
   53.5802   24.5001   45.8471 H   0  0  0  0  0  0  0  0  0  0  0  0
   58.6561   26.4430   43.4320 H   0  0  0  0  0  0  0  0  0  0  0  0
   57.1822   27.4752   43.6439 H   0  0  0  0  0  0  0  0  0  0  0  0
   60.0226   28.0102   44.6130 H   0  0  0  0  0  0  0  0  0  0  0  0
   59.0050   28.9987   43.5044 H   0  0  0  0  0  0  0  0  0  0  0  0
  1  2  2  0
  2  3  1  0
  2  4  1  0
  4  5  2  0
  5  6  1  0
  6  7  2  0
  7  8  1  0
  8  9  2  0
  9 10  1  0
 10 11  1  0
 11 12  1  0
 12 13  1  0
 13 14  1  0
 14 15  2  0
 15 16  1  0
 16 17  2  0
 17 18  1  0
 18 19  2  0
 19 20  1  0
 13 21  1  0
 21 22  1  0
  9  4  1  0
 22 10  1  0
 19 14  1  0
  5 23  1  0
  6 24  1  0
  7 25  1  0
  8 26  1  0
 11 27  1  0
 11 28  1  0
 12 29  1  0
 12 30  1  0
 15 31  1  0
 16 32  1  0
 17 33  1  0
 18 34  1  0
 21 35  1  0
 21 36  1  0
 22 37  1  0
 22 38  1  0
M  CHG  3   2   1   3  -1  20  -1
M  END
>  <UniqueID>  (41) 
37

>  <SMILES>  (41) 
O=[N+]([O-])c1ccccc1N1CCN(c2ccccc2[O-])CC1

>  <Energy>  (41) 
54.46667696716508

>  <Genealogy>  (41) 
O=[N+]([O-])c1ccccc1N1CCN(c2ccccc2[O-])CC1 (protonated)
O=[N+]([O-])c1ccccc1N1CCN(c2ccccc2[O-])CC1 (3D coordinates assigned)
O=[N+]([O-])c1ccccc1N1CCN(c2ccccc2[O-])CC1 (nonaromatic ring conformer: 54.46667696716508 kcal/mol)

>  <smiles>  (41) 
O=[N+]([O-])c1ccccc1N1CCN(c2ccccc2O)CC1

>  <score_type>  (41) 
oracle

>  <origin>  (41) 
adg

>  <m_score__min__energy>  (41) 
-11.81

>  <m_primary>  (41) 
energy

$$$$
41:0
     RDKit          3D

 42 44  0  0  0  0  0  0  0  0999 V2000
   55.3660   26.8410   45.0400 H   0  0  0  0  0  0  0  0  0  0  0  0
   56.0010   27.4270   45.6270 N   0  0  0  0  0  0  0  0  0  0  0  0
   56.4130   28.5970   45.2520 C   0  0  0  0  0  0  0  0  0  0  0  0
   55.5060   29.5280   44.8520 N   0  0  0  0  0  0  0  0  0  0  0  0
   55.8800   30.7730   44.4510 C   0  0  0  0  0  0  0  0  0  0  0  0
   55.1172   31.4985   44.1321 H   0  0  0  0  0  0  0  0  0  0  0  0
   57.2340   31.1340   44.4430 C   0  0  0  0  0  0  0  0  0  0  0  0
   57.6700   32.4980   43.9730 C   0  0  0  0  0  0  0  0  0  0  0  0
   58.6332   32.4073   43.4495 H   0  0  0  0  0  0  0  0  0  0  0  0
   56.9003   32.8985   43.2968 H   0  0  0  0  0  0  0  0  0  0  0  0
   57.8250   33.4270   45.1140 N   0  0  0  0  0  0  0  0  0  0  0  0
   59.0190   34.2960   44.9490 C   0  0  0  0  0  0  0  0  0  0  0  0
   59.2308   34.4020   43.8748 H   0  0  0  0  0  0  0  0  0  0  0  0
   58.7907   35.2647   45.4176 H   0  0  0  0  0  0  0  0  0  0  0  0
   60.2680   33.7300   45.6420 C   0  0  0  0  0  0  0  0  0  0  0  0
   60.5606   32.7913   45.1488 H   0  0  0  0  0  0  0  0  0  0  0  0
   61.0795   34.4689   45.5676 H   0  0  0  0  0  0  0  0  0  0  0  0
   59.9990   33.4660   47.0580 N   0  0  0  0  0  0  0  0  0  0  0  0
   61.0960   33.1600   47.9420 C   0  0  0  0  0  0  0  0  0  0  0  0
   62.1610   32.6830   47.4640 O   0  0  0  0  0  0  0  0  0  0  0  0
   61.0100   33.4160   49.3950 C   0  0  0  0  0  0  0  0  0  0  0  0
   59.6190   33.4200   50.3220 S   0  0  0  0  0  0  0  0  0  0  0  0
   60.3080   33.8000   51.7820 N   0  0  0  0  0  0  0  0  0  0  0  0
   61.6180   33.9320   51.5870 N   0  0  0  0  0  0  0  0  0  0  0  0
   62.0360   33.7420   50.2970 C   0  0  0  0  0  0  0  0  0  0  0  0
   63.4970   33.7960   49.9460 C   0  0  0  0  0  0  0  0  0  0  0  0
   63.6061   34.1640   48.9151 H   0  0  0  0  0  0  0  0  0  0  0  0
   64.0025   34.4717   50.6516 H   0  0  0  0  0  0  0  0  0  0  0  0
   64.1360   32.4140   50.0530 C   0  0  0  0  0  0  0  0  0  0  0  0
   64.2590   32.1480   51.1132 H   0  0  0  0  0  0  0  0  0  0  0  0
   63.4895   31.6721   49.5614 H   0  0  0  0  0  0  0  0  0  0  0  0
   65.1200   32.4259   49.5614 H   0  0  0  0  0  0  0  0  0  0  0  0
   58.6060   33.3760   47.5110 C   0  0  0  0  0  0  0  0  0  0  0  0
   58.5565   32.7759   48.4316 H   0  0  0  0  0  0  0  0  0  0  0  0
   58.2172   34.3848   47.7138 H   0  0  0  0  0  0  0  0  0  0  0  0
   57.7630   32.7090   46.4180 C   0  0  0  0  0  0  0  0  0  0  0  0
   58.1295   31.6824   46.2704 H   0  0  0  0  0  0  0  0  0  0  0  0
   56.7156   32.7274   46.7537 H   0  0  0  0  0  0  0  0  0  0  0  0
   58.1870   30.1850   44.8440 C   0  0  0  0  0  0  0  0  0  0  0  0
   59.2563   30.4428   44.8361 H   0  0  0  0  0  0  0  0  0  0  0  0
   57.7790   28.9140   45.2530 C   0  0  0  0  0  0  0  0  0  0  0  0
   58.5219   28.1685   45.5729 H   0  0  0  0  0  0  0  0  0  0  0  0
  1  2  1  0
  2  3  2  0
  3  4  1  0
  4  5  1  0
  5  6  1  0
  5  7  2  0
  7  8  1  0
  8  9  1  0
  8 10  1  0
  8 11  1  0
 11 12  1  0
 12 13  1  0
 12 14  1  0
 12 15  1  0
 15 16  1  0
 15 17  1  0
 15 18  1  0
 18 19  1  0
 19 20  2  0
 19 21  1  0
 21 22  1  0
 22 23  1  0
 23 24  2  0
 24 25  1  0
 25 26  1  0
 26 27  1  0
 26 28  1  0
 26 29  1  0
 29 30  1  0
 29 31  1  0
 29 32  1  0
 18 33  1  0
 33 34  1  0
 33 35  1  0
 33 36  1  0
 36 37  1  0
 36 38  1  0
  7 39  1  0
 39 40  1  0
 39 41  2  0
 41 42  1  0
 41  3  1  0
 36 11  1  0
 25 21  2  0
M  CHG  1   4  -1
M  END
>  <UniqueID>  (42) 
38

>  <SMILES>  (42) 
[H]/N=c1\ccc(CN2CCN(C(=O)c3snnc3CC)CC2)c[n-]1

>  <Energy>  (42) 
89.16961458951431

>  <Genealogy>  (42) 
CCc1nnsc1C(=O)N1CCN(Cc2ccc(=N)[n-]c2)CC1 (protonated)
[H]/N=c1\ccc(CN2CCN(C(=O)c3snnc3CC)CC2)c[n-]1 (cis-trans isomerization)
[H]/N=c1\ccc(CN2CCN(C(=O)c3snnc3CC)CC2)c[n-]1 (3D coordinates assigned)
[H]/N=c1\ccc(CN2CCN(C(=O)c3snnc3CC)CC2)c[n-]1 (nonaromatic ring conformer: 89.16961458951431 kcal/mol)

>  <smiles>  (42) 
CCc1nnsc1C(=O)N1CCN(Cc2ccc(=N)[nH]c2)CC1

>  <score_type>  (42) 
oracle

>  <origin>  (42) 
adg

>  <m_score__min__energy>  (42) 
-9.8499999999999996

>  <m_primary>  (42) 
energy

$$$$
42:0
     RDKit          3D

 28 29  0  0  0  0  0  0  0  0999 V2000
   59.2490   34.4120   47.6870 C   0  0  0  0  0  0  0  0  0  0  0  0
   58.7390   33.6480   46.5000 C   0  0  0  0  0  0  0  0  0  0  0  0
   58.7350   34.2400   45.2290 C   0  0  0  0  0  0  0  0  0  0  0  0
   58.2760   33.5230   44.1220 C   0  0  0  0  0  0  0  0  0  0  0  0
   57.8390   32.2050   44.2720 C   0  0  0  0  0  0  0  0  0  0  0  0
   57.8770   31.5840   45.5270 C   0  0  0  0  0  0  0  0  0  0  0  0
   57.4100   30.2320   45.6360 N   0  0  0  0  0  0  0  0  0  0  0  0
   56.2370   29.6750   45.0250 C   0  0  0  0  0  0  0  0  0  0  0  0
   55.4730   30.3930   44.3280 O   0  0  0  0  0  0  0  0  0  0  0  0
   55.8940   28.3050   45.2470 N   0  0  0  0  0  0  0  0  0  0  0  0
   56.7320   27.3750   45.9950 C   0  0  0  0  0  0  0  0  0  0  0  0
   56.0770   26.0320   46.0710 C   0  0  0  0  0  0  0  0  0  0  0  0
   56.7490   24.9020   46.3740 N   0  0  0  0  0  0  0  0  0  0  0  0
   55.8120   23.9430   46.3000 C   0  0  0  0  0  0  0  0  0  0  0  0
   54.6080   24.5090   45.9540 C   0  0  0  0  0  0  0  0  0  0  0  0
   54.7680   25.8340   45.8030 N   0  0  0  0  0  0  0  0  0  0  0  0
   58.3180   32.3160   46.6450 C   0  0  0  0  0  0  0  0  0  0  0  0
   58.9182   33.9165   48.6117 H   0  0  0  0  0  0  0  0  0  0  0  0
   60.3483   34.4411   47.6596 H   0  0  0  0  0  0  0  0  0  0  0  0
   58.8543   35.4384   47.6596 H   0  0  0  0  0  0  0  0  0  0  0  0
   59.0944   35.2720   45.1035 H   0  0  0  0  0  0  0  0  0  0  0  0
   58.2586   33.9974   43.1297 H   0  0  0  0  0  0  0  0  0  0  0  0
   57.4627   31.6512   43.3993 H   0  0  0  0  0  0  0  0  0  0  0  0
   57.7045   27.2764   45.4905 H   0  0  0  0  0  0  0  0  0  0  0  0
   56.8741   27.7621   47.0148 H   0  0  0  0  0  0  0  0  0  0  0  0
   55.9813   22.8723   46.4869 H   0  0  0  0  0  0  0  0  0  0  0  0
   53.6624   23.9628   45.8216 H   0  0  0  0  0  0  0  0  0  0  0  0
   58.3331   31.8424   47.6377 H   0  0  0  0  0  0  0  0  0  0  0  0
  1  2  1  0
  2  3  2  0
  3  4  1  0
  4  5  2  0
  5  6  1  0
  6  7  1  0
  7  8  1  0
  8  9  2  0
  8 10  1  0
 10 11  1  0
 11 12  1  0
 12 13  2  0
 13 14  1  0
 14 15  2  0
 15 16  1  0
  6 17  2  0
 17  2  1  0
 16 12  1  0
  1 18  1  0
  1 19  1  0
  1 20  1  0
  3 21  1  0
  4 22  1  0
  5 23  1  0
 11 24  1  0
 11 25  1  0
 14 26  1  0
 15 27  1  0
 17 28  1  0
M  CHG  3   7  -1  10  -1  16  -1
M  END
>  <UniqueID>  (43) 
39

>  <SMILES>  (43) 
Cc1cccc([N-]C(=O)[N-]Cc2ncc[n-]2)c1

>  <Energy>  (43) 
54.380454345647635

>  <Genealogy>  (43) 
Cc1cccc([N-]C(=O)[N-]Cc2ncc[n-]2)c1 (protonated)
Cc1cccc([N-]C(=O)[N-]Cc2ncc[n-]2)c1 (3D coordinates assigned)
Cc1cccc([N-]C(=O)[N-]Cc2ncc[n-]2)c1 (optimized conformer: 54.380454345647635 kcal/mol)

>  <smiles>  (43) 
Cc1cccc(NC(=O)NCc2ncc[nH]2)c1

>  <score_type>  (43) 
oracle

>  <origin>  (43) 
adg

>  <m_score__min__energy>  (43) 
-11.76

>  <m_primary>  (43) 
energy

$$$$
43:0
     RDKit          3D

 43 46  0  0  1  0  0  0  0  0999 V2000
   59.6220   30.9390   47.2500 O   0  0  0  0  0  0  0  0  0  0  0  0
   60.6760   30.3530   47.6690 C   0  0  0  0  0  0  0  0  0  0  0  0
   60.6570   28.9640   47.7190 N   0  0  0  0  0  0  0  0  0  0  0  0
   59.6080   28.0880   47.3620 C   0  0  0  0  0  0  0  0  0  0  0  0
   59.4800   26.7840   47.7530 C   0  0  0  0  0  0  0  0  0  0  0  0
   58.4080   25.9760   47.3560 C   0  0  0  0  0  0  0  0  0  0  0  0
   57.4170   26.4700   46.5400 C   0  0  0  0  0  0  0  0  0  0  0  0
   57.5280   27.7810   46.1360 C   0  0  0  0  0  0  0  0  0  0  0  0
   56.5010   28.2860   45.2910 N   0  0  0  0  0  0  0  0  0  0  0  0
   56.7290   29.3630   44.6180 C   0  0  0  0  0  0  0  0  0  0  0  0
   57.2380   30.4790   45.1690 N   0  0  0  0  0  0  0  0  0  0  0  0
   57.4780   31.6010   44.4850 C   0  0  0  0  0  0  0  0  0  0  0  0
   58.0470   32.8050   45.1630 C   0  0  0  0  0  0  0  0  0  0  0  0
   57.8150   33.0600   46.4470 C   0  0  0  0  0  0  0  0  0  0  0  0
   58.4250   34.2470   46.9530 C   0  0  0  0  0  0  0  0  0  0  0  0
   59.3050   34.9690   45.6140 S   0  0  0  0  0  0  0  0  0  0  0  0
   58.8340   33.6770   44.4380 C   0  0  0  0  0  0  0  0  0  0  0  0
   57.1870   31.6090   43.1460 C   0  0  0  0  0  0  0  0  0  0  0  0
   56.6660   30.4550   42.6020 C   0  0  0  0  0  0  0  0  0  0  0  0
   56.4320   29.3370   43.3110 N   0  0  0  0  0  0  0  0  0  0  0  0
   58.5840   28.5680   46.5290 C   0  0  0  0  0  0  0  0  0  0  0  0
   61.7690   31.2370   48.0420 C   0  0  0  0  0  0  0  0  0  0  0  0
   62.2000   32.2070   47.1450 C   0  0  0  0  0  0  0  0  0  0  0  0
   63.2280   33.0820   47.4190 C   0  0  0  0  0  0  0  0  0  0  0  0
   63.8880   33.0320   48.6280 C   0  0  0  0  0  0  0  0  0  0  0  0
   63.4830   32.0860   49.5280 C   0  0  0  0  0  0  0  0  0  0  0  0
   62.4350   31.1970   49.2420 C   0  0  0  0  0  0  0  0  0  0  0  0
   62.1330   30.3220   50.1980 F   0  0  0  0  0  0  0  0  0  0  0  0
   61.5390   28.4850   48.0690 H   0  0  0  0  0  0  0  0  0  0  0  0
   60.2517   26.3518   48.4069 H   0  0  0  0  0  0  0  0  0  0  0  0
   58.3575   24.9327   47.7010 H   0  0  0  0  0  0  0  0  0  0  0  0
   56.5705   25.8430   46.2233 H   0  0  0  0  0  0  0  0  0  0  0  0
   57.1963   32.4023   47.0753 H   0  0  0  0  0  0  0  0  0  0  0  0
   58.3575   34.6343   47.9804 H   0  0  0  0  0  0  0  0  0  0  0  0
   59.1138   33.6027   43.3768 H   0  0  0  0  0  0  0  0  0  0  0  0
   57.3626   32.5025   42.5289 H   0  0  0  0  0  0  0  0  0  0  0  0
   56.4284   30.4483   41.5280 H   0  0  0  0  0  0  0  0  0  0  0  0
   56.0310   28.4670   42.8620 H   0  0  0  0  0  0  0  0  0  0  0  0
   58.6288   29.6099   46.1791 H   0  0  0  0  0  0  0  0  0  0  0  0
   61.6963   32.2795   46.1698 H   0  0  0  0  0  0  0  0  0  0  0  0
   63.5248   33.8272   46.6663 H   0  0  0  0  0  0  0  0  0  0  0  0
   64.7089   33.7265   48.8598 H   0  0  0  0  0  0  0  0  0  0  0  0
   63.9914   32.0198   50.5012 H   0  0  0  0  0  0  0  0  0  0  0  0
  1  2  2  0
  2  3  1  0
  3  4  1  0
  4  5  2  0
  5  6  1  0
  6  7  2  0
  7  8  1  0
  8  9  1  0
  9 10  2  0
 10 11  1  0
 11 12  2  0
 12 13  1  0
 13 14  1  0
 14 15  2  0
 15 16  1  0
 16 17  1  0
 12 18  1  0
 18 19  2  0
 19 20  1  0
  8 21  2  0
  2 22  1  0
 22 23  2  0
 23 24  1  0
 24 25  2  0
 25 26  1  0
 26 27  2  0
 27 28  1  0
 21  4  1  0
 27 22  1  0
 20 10  1  0
 17 13  2  0
  3 29  1  0
  5 30  1  0
  6 31  1  0
  7 32  1  0
 14 33  1  0
 15 34  1  0
 17 35  1  0
 18 36  1  0
 19 37  1  0
 20 38  1  0
 21 39  1  0
 23 40  1  0
 24 41  1  0
 25 42  1  0
 26 43  1  0
M  END
>  <smiles>  (44) 
O=C(Nc1cccc(N=c2nc(-c3ccsc3)cc[nH]2)c1)c1ccccc1F

>  <score_type>  (44) 
oracle

>  <origin>  (44) 
adg

>  <m_score__min__energy>  (44) 
-9.1199999999999992

>  <m_primary>  (44) 
energy

$$$$
44:0
     RDKit          3D

 51 53  0  0  0  0  0  0  0  0999 V2000
   57.7440   31.9650   41.9070 C   0  0  0  0  0  0  0  0  0  0  0  0
   57.9480   32.2310   43.3750 C   0  0  0  0  0  0  0  0  0  0  0  0
   58.5170   33.4570   43.7590 C   0  0  0  0  0  0  0  0  0  0  0  0
   58.7290   33.7570   45.1040 C   0  0  0  0  0  0  0  0  0  0  0  0
   58.3940   32.8350   46.0980 C   0  0  0  0  0  0  0  0  0  0  0  0
   58.5940   33.1800   47.4780 N   0  0  0  0  0  0  0  0  0  0  0  0
   59.4870   34.2130   47.9260 C   0  0  0  0  0  0  0  0  0  0  0  0
   59.9710   35.0420   47.1090 O   0  0  0  0  0  0  0  0  0  0  0  0
   59.8540   34.3090   49.3720 C   0  0  0  0  0  0  0  0  0  0  0  0
   60.6840   32.7700   49.8820 S   0  0  0  0  0  0  0  0  0  0  0  0
   62.0130   32.9590   48.6910 C   0  0  0  0  0  0  0  0  0  0  0  0
   62.9100   33.9650   48.7470 N   0  0  0  0  0  0  0  0  0  0  0  0
   63.7300   33.7310   47.7020 C   0  0  0  0  0  0  0  0  0  0  0  0
   63.3230   32.5940   47.0370 C   0  0  0  0  0  0  0  0  0  0  0  0
   62.2340   32.1180   47.6600 N   0  0  0  0  0  0  0  0  0  0  0  0
   61.5070   30.8950   47.3370 C   0  0  0  0  0  0  0  0  0  0  0  0
   57.8070   31.6140   45.7280 C   0  0  0  0  0  0  0  0  0  0  0  0
   57.5900   31.2920   44.3790 C   0  0  0  0  0  0  0  0  0  0  0  0
   56.8190   29.7250   44.0500 S   0  0  0  0  0  0  0  0  0  0  0  0
   56.4430   29.6920   42.5950 O   0  0  0  0  0  0  0  0  0  0  0  0
   55.5700   29.5150   44.8590 O   0  0  0  0  0  0  0  0  0  0  0  0
   57.9560   28.4390   44.3780 N   0  0  0  0  0  0  0  0  0  0  0  0
   59.3240   28.9900   44.4960 C   0  0  0  0  0  0  0  0  0  0  0  0
   60.2680   28.0000   45.1830 C   0  0  0  0  0  0  0  0  0  0  0  0
   59.8080   27.7000   46.6210 C   0  0  0  0  0  0  0  0  0  0  0  0
   58.3000   27.9280   46.8220 C   0  0  0  0  0  0  0  0  0  0  0  0
   57.5180   27.6200   45.5370 C   0  0  0  0  0  0  0  0  0  0  0  0
   57.0790   31.0979   41.7804 H   0  0  0  0  0  0  0  0  0  0  0  0
   57.2893   32.8479   41.4341 H   0  0  0  0  0  0  0  0  0  0  0  0
   58.7147   31.7548   41.4341 H   0  0  0  0  0  0  0  0  0  0  0  0
   58.7989   34.1897   42.9884 H   0  0  0  0  0  0  0  0  0  0  0  0
   59.1636   34.7278   45.3845 H   0  0  0  0  0  0  0  0  0  0  0  0
   58.0050   32.7010   48.1950 H   0  0  0  0  0  0  0  0  0  0  0  0
   60.5331   35.1610   49.5235 H   0  0  0  0  0  0  0  0  0  0  0  0
   58.9459   34.4567   49.9750 H   0  0  0  0  0  0  0  0  0  0  0  0
   64.5930   34.3532   47.4226 H   0  0  0  0  0  0  0  0  0  0  0  0
   63.8059   32.1545   46.1517 H   0  0  0  0  0  0  0  0  0  0  0  0
   61.2070   30.3903   48.2672 H   0  0  0  0  0  0  0  0  0  0  0  0
   60.6109   31.1452   46.7501 H   0  0  0  0  0  0  0  0  0  0  0  0
   62.1550   30.2274   46.7501 H   0  0  0  0  0  0  0  0  0  0  0  0
   57.5121   30.8975   46.5088 H   0  0  0  0  0  0  0  0  0  0  0  0
   59.7086   29.2115   43.4895 H   0  0  0  0  0  0  0  0  0  0  0  0
   59.2774   29.9040   45.1062 H   0  0  0  0  0  0  0  0  0  0  0  0
   60.2847   27.0621   44.6084 H   0  0  0  0  0  0  0  0  0  0  0  0
   61.2722   28.4470   45.2242 H   0  0  0  0  0  0  0  0  0  0  0  0
   60.0390   26.6497   46.8524 H   0  0  0  0  0  0  0  0  0  0  0  0
   60.3406   28.3910   47.2910 H   0  0  0  0  0  0  0  0  0  0  0  0
   57.9414   27.2699   47.6272 H   0  0  0  0  0  0  0  0  0  0  0  0
   58.1384   28.9839   47.0846 H   0  0  0  0  0  0  0  0  0  0  0  0
   57.6582   26.5578   45.2880 H   0  0  0  0  0  0  0  0  0  0  0  0
   56.4624   27.8621   45.7295 H   0  0  0  0  0  0  0  0  0  0  0  0
  1  2  1  0
  2  3  2  0
  3  4  1  0
  4  5  2  0
  5  6  1  0
  6  7  1  0
  7  8  2  0
  7  9  1  0
  9 10  1  0
 10 11  1  0
 11 12  2  0
 12 13  1  0
 13 14  2  0
 14 15  1  0
 15 16  1  0
  5 17  1  0
 17 18  2  0
 18 19  1  0
 19 20  2  0
 19 21  2  0
 19 22  1  0
 22 23  1  0
 23 24  1  0
 24 25  1  0
 25 26  1  0
 26 27  1  0
 18  2  1  0
 27 22  1  0
 15 11  1  0
  1 28  1  0
  1 29  1  0
  1 30  1  0
  3 31  1  0
  4 32  1  0
  6 33  1  0
  9 34  1  0
  9 35  1  0
 13 36  1  0
 14 37  1  0
 16 38  1  0
 16 39  1  0
 16 40  1  0
 17 41  1  0
 23 42  1  0
 23 43  1  0
 24 44  1  0
 24 45  1  0
 25 46  1  0
 25 47  1  0
 26 48  1  0
 26 49  1  0
 27 50  1  0
 27 51  1  0
M  END
>  <UniqueID>  (45) 
40

>  <SMILES>  (45) 
Cc1ccc(NC(=O)CSc2nccn2C)cc1S(=O)(=O)N1CCCCC1

>  <Energy>  (45) 
86.10420872189758

>  <Genealogy>  (45) 
Cc1ccc(NC(=O)CSc2nccn2C)cc1S(=O)(=O)N1CCCCC1 (3D coordinates assigned)
Cc1ccc(NC(=O)CSc2nccn2C)cc1S(=O)(=O)N1CCCCC1 (nonaromatic ring conformer: 86.10420872189758 kcal/mol)

>  <smiles>  (45) 
Cc1ccc(NC(=O)CSc2nccn2C)cc1S(=O)(=O)N1CCCCC1

>  <score_type>  (45) 
oracle

>  <origin>  (45) 
adg

>  <m_score__min__energy>  (45) 
-9.2100000000000009

>  <m_primary>  (45) 
energy

$$$$
45:0
     RDKit          3D

 36 38  0  0  0  0  0  0  0  0999 V2000
   60.7720   29.8080   47.6350 C   0  0  0  0  0  0  0  0  0  0  0  0
   60.3100   28.3690   47.8220 C   0  0  0  0  0  0  0  0  0  0  0  0
   59.2620   28.0450   46.8600 N   0  0  0  0  0  0  0  0  0  0  0  0
   58.0790   28.6780   46.7400 C   0  0  0  0  0  0  0  0  0  0  0  0
   57.3630   28.0230   45.7570 C   0  0  0  0  0  0  0  0  0  0  0  0
   56.0530   28.3150   45.2520 N   0  0  0  0  0  0  0  0  0  0  0  0
   55.6870   29.3990   44.3890 C   0  0  0  0  0  0  0  0  0  0  0  0
   54.6270   29.3470   43.7140 O   0  0  0  0  0  0  0  0  0  0  0  0
   56.5940   30.5600   44.2840 C   0  0  0  0  0  0  0  0  0  0  0  0
   57.1040   31.1330   45.4090 N   0  0  0  0  0  0  0  0  0  0  0  0
   57.9330   32.1700   45.1520 C   0  0  0  0  0  0  0  0  0  0  0  0
   58.6170   32.9600   46.2060 C   0  0  0  0  0  0  0  0  0  0  0  0
   58.6770   32.4790   47.5300 C   0  0  0  0  0  0  0  0  0  0  0  0
   59.3200   33.2180   48.5280 C   0  0  0  0  0  0  0  0  0  0  0  0
   59.3700   32.7420   49.7970 F   0  0  0  0  0  0  0  0  0  0  0  0
   59.9110   34.4450   48.2210 C   0  0  0  0  0  0  0  0  0  0  0  0
   59.8600   34.9350   46.9160 C   0  0  0  0  0  0  0  0  0  0  0  0
   59.2200   34.2040   45.9100 C   0  0  0  0  0  0  0  0  0  0  0  0
   59.1930   34.7160   44.6540 F   0  0  0  0  0  0  0  0  0  0  0  0
   58.0690   32.4270   43.4890 S   0  0  0  0  0  0  0  0  0  0  0  0
   57.0300   31.1660   43.0980 C   0  0  0  0  0  0  0  0  0  0  0  0
   56.6510   30.8430   41.7580 N   0  0  0  0  0  0  0  0  0  0  0  0
   58.1700   26.9940   45.3230 C   0  0  0  0  0  0  0  0  0  0  0  0
   59.3250   27.0220   46.0180 N   0  0  0  0  0  0  0  0  0  0  0  0
   60.9222   30.2757   48.6192 H   0  0  0  0  0  0  0  0  0  0  0  0
   61.7189   29.8193   47.0754 H   0  0  0  0  0  0  0  0  0  0  0  0
   60.0086   30.3684   47.0754 H   0  0  0  0  0  0  0  0  0  0  0  0
   61.1633   27.6914   47.6712 H   0  0  0  0  0  0  0  0  0  0  0  0
   59.9105   28.2507   48.8400 H   0  0  0  0  0  0  0  0  0  0  0  0
   57.7455   29.5531   47.3171 H   0  0  0  0  0  0  0  0  0  0  0  0
   58.2136   31.5133   47.7803 H   0  0  0  0  0  0  0  0  0  0  0  0
   60.4164   35.0248   49.0074 H   0  0  0  0  0  0  0  0  0  0  0  0
   60.3260   35.9023   46.6767 H   0  0  0  0  0  0  0  0  0  0  0  0
   55.9250   30.1120   41.5920 H   0  0  0  0  0  0  0  0  0  0  0  0
   57.1120   31.2640   40.9250 H   0  0  0  0  0  0  0  0  0  0  0  0
   57.9137   26.2679   44.5374 H   0  0  0  0  0  0  0  0  0  0  0  0
  1  2  1  0
  2  3  1  0
  3  4  1  0
  4  5  2  0
  5  6  1  0
  6  7  1  0
  7  8  2  0
  7  9  1  0
  9 10  1  0
 10 11  2  0
 11 12  1  0
 12 13  2  0
 13 14  1  0
 14 15  1  0
 14 16  2  0
 16 17  1  0
 17 18  2  0
 18 19  1  0
 11 20  1  0
 20 21  1  0
 21 22  1  0
  5 23  1  0
 23 24  2  0
 24  3  1  0
 21  9  2  0
 18 12  1  0
  1 25  1  0
  1 26  1  0
  1 27  1  0
  2 28  1  0
  2 29  1  0
  4 30  1  0
 13 31  1  0
 16 32  1  0
 17 33  1  0
 22 34  1  0
 22 35  1  0
 23 36  1  0
M  CHG  1   6  -1
M  END
>  <UniqueID>  (46) 
41

>  <SMILES>  (46) 
CCn1cc([N-]C(=O)c2nc(-c3cc(F)ccc3F)sc2N)cn1

>  <Energy>  (46) 
100.53877785090737

>  <Genealogy>  (46) 
CCn1cc([N-]C(=O)c2nc(-c3cc(F)ccc3F)sc2N)cn1 (protonated)
CCn1cc([N-]C(=O)c2nc(-c3cc(F)ccc3F)sc2N)cn1 (3D coordinates assigned)
CCn1cc([N-]C(=O)c2nc(-c3cc(F)ccc3F)sc2N)cn1 (optimized conformer: 100.53877785090737 kcal/mol)

>  <smiles>  (46) 
CCn1cc(NC(=O)c2nc(-c3cc(F)ccc3F)sc2N)cn1

>  <score_type>  (46) 
oracle

>  <origin>  (46) 
adg

>  <m_score__min__energy>  (46) 
-9.0099999999999998

>  <m_primary>  (46) 
energy

$$$$
46:0
     RDKit          3D

 42 44  0  0  0  0  0  0  0  0999 V2000
   57.3780   31.2710   42.5850 C   0  0  0  0  0  0  0  0  0  0  0  0
   56.3810   30.6490   43.5550 C   0  0  0  0  0  0  0  0  0  0  0  0
   57.0830   29.8940   44.5960 N   0  0  0  0  0  0  0  0  0  0  0  0
   56.8910   28.5850   44.8530 C   0  0  0  0  0  0  0  0  0  0  0  0
   57.5600   28.2300   46.0120 C   0  0  0  0  0  0  0  0  0  0  0  0
   57.6210   26.8920   46.6310 C   0  0  0  0  0  0  0  0  0  0  0  0
   58.2230   26.7520   47.7290 O   0  0  0  0  0  0  0  0  0  0  0  0
   57.0250   25.7040   45.9830 C   0  0  0  0  0  0  0  0  0  0  0  0
   57.8390   24.5930   45.7040 C   0  0  0  0  0  0  0  0  0  0  0  0
   57.3100   23.4510   45.0910 C   0  0  0  0  0  0  0  0  0  0  0  0
   58.1740   22.3770   44.8250 O   0  0  0  0  0  0  0  0  0  0  0  0
   58.0210   21.4730   43.7360 C   0  0  0  0  0  0  0  0  0  0  0  0
   55.9420   23.4170   44.7640 C   0  0  0  0  0  0  0  0  0  0  0  0
   55.1220   24.5080   45.0600 C   0  0  0  0  0  0  0  0  0  0  0  0
   55.6520   25.6440   45.6760 C   0  0  0  0  0  0  0  0  0  0  0  0
   54.8020   26.6980   45.9990 O   0  0  0  0  0  0  0  0  0  0  0  0
   58.1840   29.3700   46.4810 C   0  0  0  0  0  0  0  0  0  0  0  0
   57.8670   30.3790   45.5900 C   0  0  0  0  0  0  0  0  0  0  0  0
   58.2850   31.7860   45.7430 C   0  0  0  0  0  0  0  0  0  0  0  0
   57.3740   32.8210   45.4730 C   0  0  0  0  0  0  0  0  0  0  0  0
   57.7590   34.1560   45.6280 C   0  0  0  0  0  0  0  0  0  0  0  0
   59.0500   34.4670   46.0650 C   0  0  0  0  0  0  0  0  0  0  0  0
   59.4210   35.7620   46.2170 F   0  0  0  0  0  0  0  0  0  0  0  0
   59.9550   33.4410   46.3540 C   0  0  0  0  0  0  0  0  0  0  0  0
   59.5740   32.1050   46.1990 C   0  0  0  0  0  0  0  0  0  0  0  0
   58.1780   31.7701   43.1514 H   0  0  0  0  0  0  0  0  0  0  0  0
   57.8132   30.4839   41.9517 H   0  0  0  0  0  0  0  0  0  0  0  0
   56.8624   32.0080   41.9517 H   0  0  0  0  0  0  0  0  0  0  0  0
   55.7865   31.4466   44.0245 H   0  0  0  0  0  0  0  0  0  0  0  0
   55.7235   29.9638   42.9998 H   0  0  0  0  0  0  0  0  0  0  0  0
   56.2920   27.9007   44.2342 H   0  0  0  0  0  0  0  0  0  0  0  0
   58.9058   24.6210   45.9708 H   0  0  0  0  0  0  0  0  0  0  0  0
   57.8492   20.4579   44.1235 H   0  0  0  0  0  0  0  0  0  0  0  0
   57.1622   21.7811   43.1215 H   0  0  0  0  0  0  0  0  0  0  0  0
   58.9333   21.4814   43.1215 H   0  0  0  0  0  0  0  0  0  0  0  0
   55.5172   22.5286   44.2738 H   0  0  0  0  0  0  0  0  0  0  0  0
   54.0522   24.4725   44.8065 H   0  0  0  0  0  0  0  0  0  0  0  0
   58.8080   29.4575   47.3826 H   0  0  0  0  0  0  0  0  0  0  0  0
   56.3542   32.5800   45.1385 H   0  0  0  0  0  0  0  0  0  0  0  0
   57.0451   34.9628   45.4058 H   0  0  0  0  0  0  0  0  0  0  0  0
   60.9687   33.6857   46.7040 H   0  0  0  0  0  0  0  0  0  0  0  0
   60.2865   31.3009   46.4351 H   0  0  0  0  0  0  0  0  0  0  0  0
  1  2  1  0
  2  3  1  0
  3  4  1  0
  4  5  2  0
  5  6  1  0
  6  7  2  0
  6  8  1  0
  8  9  2  0
  9 10  1  0
 10 11  1  0
 11 12  1  0
 10 13  2  0
 13 14  1  0
 14 15  2  0
 15 16  1  0
  5 17  1  0
 17 18  2  0
 18 19  1  0
 19 20  2  0
 20 21  1  0
 21 22  2  0
 22 23  1  0
 22 24  1  0
 24 25  2  0
 18  3  1  0
 25 19  1  0
 15  8  1  0
  1 26  1  0
  1 27  1  0
  1 28  1  0
  2 29  1  0
  2 30  1  0
  4 31  1  0
  9 32  1  0
 12 33  1  0
 12 34  1  0
 12 35  1  0
 13 36  1  0
 14 37  1  0
 17 38  1  0
 20 39  1  0
 21 40  1  0
 24 41  1  0
 25 42  1  0
M  CHG  1  16  -1
M  END
>  <UniqueID>  (47) 
42

>  <SMILES>  (47) 
CCn1cc(C(=O)c2cc(OC)ccc2[O-])cc1-c1ccc(F)cc1

>  <Energy>  (47) 
78.07552301061494

>  <Genealogy>  (47) 
CCn1cc(C(=O)c2cc(OC)ccc2[O-])cc1-c1ccc(F)cc1 (protonated)
CCn1cc(C(=O)c2cc(OC)ccc2[O-])cc1-c1ccc(F)cc1 (3D coordinates assigned)
CCn1cc(C(=O)c2cc(OC)ccc2[O-])cc1-c1ccc(F)cc1 (optimized conformer: 78.07552301061494 kcal/mol)

>  <smiles>  (47) 
CCn1cc(C(=O)c2cc(OC)ccc2O)cc1-c1ccc(F)cc1

>  <score_type>  (47) 
oracle

>  <origin>  (47) 
adg

>  <m_score__min__energy>  (47) 
-11.789999999999999

>  <m_primary>  (47) 
energy

$$$$
47:0
     RDKit          3D

 27 28  0  0  0  0  0  0  0  0999 V2000
   57.7200   31.3110   43.4370 C   0  0  0  0  0  0  0  0  0  0  0  0
   57.0780   30.1790   44.1700 C   0  0  0  0  0  0  0  0  0  0  0  0
   55.7730   30.1450   44.5010 N   0  0  0  0  0  0  0  0  0  0  0  0
   55.5690   29.0280   45.1410 O   0  0  0  0  0  0  0  0  0  0  0  0
   56.6780   28.3340   45.2490 C   0  0  0  0  0  0  0  0  0  0  0  0
   56.7730   26.9980   45.9100 C   0  0  0  0  0  0  0  0  0  0  0  0
   57.6990   29.0320   44.6330 C   0  0  0  0  0  0  0  0  0  0  0  0
   59.1350   28.6250   44.4770 C   0  0  0  0  0  0  0  0  0  0  0  0
   59.9300   28.3750   46.1030 S   0  0  0  0  0  0  0  0  0  0  0  0
   59.8660   30.1050   46.5680 C   0  0  0  0  0  0  0  0  0  0  0  0
   58.6630   30.6940   46.8020 N   0  0  0  0  0  0  0  0  0  0  0  0
   58.5830   31.9980   47.1710 C   0  0  0  0  0  0  0  0  0  0  0  0
   59.7480   32.7520   47.3130 C   0  0  0  0  0  0  0  0  0  0  0  0
   59.6680   34.5860   47.8380 Br  0  0  0  0  0  0  0  0  0  0  0  0
   60.9740   32.1340   47.0620 C   0  0  0  0  0  0  0  0  0  0  0  0
   61.0130   30.8260   46.6930 N   0  0  0  0  0  0  0  0  0  0  0  0
   58.1287   32.0316   44.1607 H   0  0  0  0  0  0  0  0  0  0  0  0
   58.5333   30.9245   42.8052 H   0  0  0  0  0  0  0  0  0  0  0  0
   56.9708   31.8106   42.8052 H   0  0  0  0  0  0  0  0  0  0  0  0
   56.7638   27.1278   47.0023 H   0  0  0  0  0  0  0  0  0  0  0  0
   55.9167   26.3774   45.6073 H   0  0  0  0  0  0  0  0  0  0  0  0
   57.7085   26.5048   45.6073 H   0  0  0  0  0  0  0  0  0  0  0  0
   59.1820   27.6858   43.9062 H   0  0  0  0  0  0  0  0  0  0  0  0
   59.6693   29.4274   43.9472 H   0  0  0  0  0  0  0  0  0  0  0  0
   57.6018   32.4589   47.3576 H   0  0  0  0  0  0  0  0  0  0  0  0
   61.9087   32.7052   47.1627 H   0  0  0  0  0  0  0  0  0  0  0  0
   61.9370   30.3720   46.5140 H   0  0  0  0  0  0  0  0  0  0  0  0
  1  2  1  0
  2  3  2  0
  3  4  1  0
  4  5  1  0
  5  6  1  0
  5  7  2  0
  7  8  1  0
  8  9  1  0
  9 10  1  0
 10 11  2  0
 11 12  1  0
 12 13  2  0
 13 14  1  0
 13 15  1  0
 15 16  2  0
  7  2  1  0
 16 10  1  0
  1 17  1  0
  1 18  1  0
  1 19  1  0
  6 20  1  0
  6 21  1  0
  6 22  1  0
  8 23  1  0
  8 24  1  0
 12 25  1  0
 15 26  1  0
 16 27  1  0
M  CHG  1  16   1
M  END
>  <UniqueID>  (48) 
43

>  <SMILES>  (48) 
Cc1noc(C)c1CSc1ncc(Br)c[nH+]1

>  <Energy>  (48) 
49.691239725485964

>  <Genealogy>  (48) 
Cc1noc(C)c1CSc1ncc(Br)c[nH+]1 (protonated)
Cc1noc(C)c1CSc1ncc(Br)c[nH+]1 (3D coordinates assigned)
Cc1noc(C)c1CSc1ncc(Br)c[nH+]1 (optimized conformer: 49.691239725485964 kcal/mol)

>  <smiles>  (48) 
Cc1noc(C)c1CSc1ncc(Br)cn1

>  <score_type>  (48) 
oracle

>  <origin>  (48) 
adg

>  <m_score__min__energy>  (48) 
-5.6200000000000001

>  <m_primary>  (48) 
energy

$$$$
48:0
     RDKit          3D

 49 52  0  0  0  0  0  0  0  0999 V2000
   57.2700   31.1830   42.2010 F   0  0  0  0  0  0  0  0  0  0  0  0
   57.5980   31.7800   43.3750 C   0  0  0  0  0  0  0  0  0  0  0  0
   58.1270   33.0740   43.3680 C   0  0  0  0  0  0  0  0  0  0  0  0
   58.4700   33.6980   44.5710 C   0  0  0  0  0  0  0  0  0  0  0  0
   58.2710   33.0390   45.7960 C   0  0  0  0  0  0  0  0  0  0  0  0
   58.6540   33.7100   47.1030 C   0  0  0  0  0  0  0  0  0  0  0  0
   60.0520   33.4550   47.5420 N   0  0  0  0  0  0  0  0  0  0  0  0
   61.0010   33.3300   46.4030 C   0  0  0  0  0  0  0  0  0  0  0  0
   62.4330   33.8290   46.7130 C   0  0  0  0  0  0  0  0  0  0  0  0
   62.8430   33.6180   48.1170 N   0  0  0  0  0  0  0  0  0  0  0  0
   63.6980   32.4410   48.3830 C   0  0  0  0  0  0  0  0  0  0  0  0
   63.9410   32.1600   49.8720 C   0  0  0  0  0  0  0  0  0  0  0  0
   63.1290   31.0790   50.3160 O   0  0  0  0  0  0  0  0  0  0  0  0
   61.7430   31.1580   50.5030 C   0  0  0  0  0  0  0  0  0  0  0  0
   61.1410   31.4720   51.7470 C   0  0  0  0  0  0  0  0  0  0  0  0
   59.7330   31.5240   51.8690 C   0  0  0  0  0  0  0  0  0  0  0  0
   58.9090   31.2640   50.7590 C   0  0  0  0  0  0  0  0  0  0  0  0
   59.5290   30.9590   49.5500 C   0  0  0  0  0  0  0  0  0  0  0  0
   58.9480   30.6720   48.3740 N   0  0  0  0  0  0  0  0  0  0  0  0
   59.9250   30.4400   47.5000 N   0  0  0  0  0  0  0  0  0  0  0  0
   61.1210   30.5780   48.1180 C   0  0  0  0  0  0  0  0  0  0  0  0
   60.8870   30.9120   49.4310 C   0  0  0  0  0  0  0  0  0  0  0  0
   61.8440   33.9370   49.1610 C   0  0  0  0  0  0  0  0  0  0  0  0
   60.5120   34.4100   48.5690 C   0  0  0  0  0  0  0  0  0  0  0  0
   57.7640   31.7280   45.7920 C   0  0  0  0  0  0  0  0  0  0  0  0
   57.4210   31.1040   44.5870 C   0  0  0  0  0  0  0  0  0  0  0  0
   56.7730   29.4720   44.6060 Cl  0  0  0  0  0  0  0  0  0  0  0  0
   58.2736   33.6021   42.4143 H   0  0  0  0  0  0  0  0  0  0  0  0
   58.8983   34.7111   44.5586 H   0  0  0  0  0  0  0  0  0  0  0  0
   58.5246   34.7957   46.9824 H   0  0  0  0  0  0  0  0  0  0  0  0
   58.0005   33.2817   47.8772 H   0  0  0  0  0  0  0  0  0  0  0  0
   60.0160   32.5190   48.0070 H   0  0  0  0  0  0  0  0  0  0  0  0
   61.0595   32.2693   46.1175 H   0  0  0  0  0  0  0  0  0  0  0  0
   60.6118   33.9677   45.5956 H   0  0  0  0  0  0  0  0  0  0  0  0
   63.1371   33.2916   46.0608 H   0  0  0  0  0  0  0  0  0  0  0  0
   62.4417   34.9144   46.5345 H   0  0  0  0  0  0  0  0  0  0  0  0
   63.2152   31.5574   47.9401 H   0  0  0  0  0  0  0  0  0  0  0  0
   64.6807   32.6590   47.9393 H   0  0  0  0  0  0  0  0  0  0  0  0
   64.9998   31.9030   50.0234 H   0  0  0  0  0  0  0  0  0  0  0  0
   63.6817   33.0594   50.4499 H   0  0  0  0  0  0  0  0  0  0  0  0
   61.7732   31.6767   52.6236 H   0  0  0  0  0  0  0  0  0  0  0  0
   59.2784   31.7698   52.8400 H   0  0  0  0  0  0  0  0  0  0  0  0
   57.8128   31.3004   50.8431 H   0  0  0  0  0  0  0  0  0  0  0  0
   62.1083   30.4460   47.6512 H   0  0  0  0  0  0  0  0  0  0  0  0
   61.6624   33.0349   49.7637 H   0  0  0  0  0  0  0  0  0  0  0  0
   62.2487   34.7560   49.7738 H   0  0  0  0  0  0  0  0  0  0  0  0
   59.7600   34.4756   49.3691 H   0  0  0  0  0  0  0  0  0  0  0  0
   60.6512   35.3989   48.1078 H   0  0  0  0  0  0  0  0  0  0  0  0
   57.6359   31.1889   46.7422 H   0  0  0  0  0  0  0  0  0  0  0  0
  1  2  1  0
  2  3  2  0
  3  4  1  0
  4  5  2  0
  5  6  1  0
  6  7  1  0
  7  8  1  0
  8  9  1  0
  9 10  1  0
 10 11  1  0
 11 12  1  0
 12 13  1  0
 13 14  1  0
 14 15  2  0
 15 16  1  0
 16 17  2  0
 17 18  1  0
 18 19  1  0
 19 20  1  0
 20 21  2  0
 21 22  1  0
 10 23  1  0
 23 24  1  0
  5 25  1  0
 25 26  2  0
 26 27  1  0
 26  2  1  0
 24  7  1  0
 22 14  1  0
 22 18  2  0
  3 28  1  0
  4 29  1  0
  6 30  1  0
  6 31  1  0
  7 32  1  0
  8 33  1  0
  8 34  1  0
  9 35  1  0
  9 36  1  0
 11 37  1  0
 11 38  1  0
 12 39  1  0
 12 40  1  0
 15 41  1  0
 16 42  1  0
 17 43  1  0
 21 44  1  0
 23 45  1  0
 23 46  1  0
 24 47  1  0
 24 48  1  0
 25 49  1  0
M  CHG  2   7   1  19  -1
M  END
>  <UniqueID>  (49) 
44

>  <SMILES>  (49) 
Fc1ccc(C[NH+]2CCN(CCOc3cccc4[n-]ncc34)CC2)cc1Cl

>  <Energy>  (49) 
107.39279958728906

>  <Genealogy>  (49) 
Fc1ccc(C[NH+]2CCN(CCOc3cccc4[n-]ncc34)CC2)cc1Cl (protonated)
Fc1ccc(C[NH+]2CCN(CCOc3cccc4[n-]ncc34)CC2)cc1Cl (3D coordinates assigned)
Fc1ccc(C[NH+]2CCN(CCOc3cccc4[n-]ncc34)CC2)cc1Cl (nonaromatic ring conformer: 107.39279958728906 kcal/mol)

>  <smiles>  (49) 
Fc1ccc(CN2CCN(CCOc3cccc4[nH]ncc34)CC2)cc1Cl

>  <score_type>  (49) 
oracle

>  <origin>  (49) 
adg

>  <m_score__min__energy>  (49) 
-9.4900000000000002

>  <m_primary>  (49) 
energy

$$$$
49:0
     RDKit          3D

 45 48  0  0  0  0  0  0  0  0999 V2000
   58.6710   35.2890   44.5240 O   0  0  0  0  0  0  0  0  0  0  0  0
   58.4470   34.0410   45.3420 S   0  0  0  0  0  0  0  0  0  0  0  0
   57.0640   34.0820   45.9370 O   0  0  0  0  0  0  0  0  0  0  0  0
   58.5470   32.6590   44.2860 N   0  0  0  0  0  0  0  0  0  0  0  0
   57.8040   31.4470   44.4530 C   0  0  0  0  0  0  0  0  0  0  0  0
   56.6020   31.2250   43.7610 C   0  0  0  0  0  0  0  0  0  0  0  0
   55.8470   30.0750   44.0280 C   0  0  0  0  0  0  0  0  0  0  0  0
   56.2940   29.1410   44.9700 C   0  0  0  0  0  0  0  0  0  0  0  0
   55.5220   28.0140   45.2510 O   0  0  0  0  0  0  0  0  0  0  0  0
   57.5320   29.3220   45.6140 C   0  0  0  0  0  0  0  0  0  0  0  0
   57.9610   28.3880   46.6170 N   0  0  0  0  0  0  0  0  0  0  0  0
   59.2000   28.1290   46.9300 C   0  0  0  0  0  0  0  0  0  0  0  0
   59.9010   28.7140   48.0990 C   0  0  0  0  0  0  0  0  0  0  0  0
   59.9570   30.1110   48.2270 C   0  0  0  0  0  0  0  0  0  0  0  0
   60.5820   30.6960   49.3350 C   0  0  0  0  0  0  0  0  0  0  0  0
   61.1480   29.8900   50.3290 C   0  0  0  0  0  0  0  0  0  0  0  0
   61.0850   28.4980   50.2230 C   0  0  0  0  0  0  0  0  0  0  0  0
   60.4660   27.9040   49.1130 C   0  0  0  0  0  0  0  0  0  0  0  0
   60.3720   26.5150   49.0550 O   0  0  0  0  0  0  0  0  0  0  0  0
   58.2820   30.4810   45.3450 C   0  0  0  0  0  0  0  0  0  0  0  0
   59.6440   33.9900   46.6400 C   0  0  0  0  0  0  0  0  0  0  0  0
   59.2730   34.2960   47.9590 C   0  0  0  0  0  0  0  0  0  0  0  0
   60.2130   34.2290   48.9910 C   0  0  0  0  0  0  0  0  0  0  0  0
   61.5380   33.8420   48.7190 C   0  0  0  0  0  0  0  0  0  0  0  0
   62.4810   33.7470   49.7530 C   0  0  0  0  0  0  0  0  0  0  0  0
   63.7940   33.3490   49.4730 C   0  0  0  0  0  0  0  0  0  0  0  0
   64.9720   33.2280   50.7680 Cl  0  0  0  0  0  0  0  0  0  0  0  0
   64.1690   33.0360   48.1580 C   0  0  0  0  0  0  0  0  0  0  0  0
   63.2370   33.1280   47.1160 C   0  0  0  0  0  0  0  0  0  0  0  0
   61.9190   33.5390   47.3850 C   0  0  0  0  0  0  0  0  0  0  0  0
   60.9750   33.6380   46.3530 C   0  0  0  0  0  0  0  0  0  0  0  0
   56.2544   31.9516   43.0118 H   0  0  0  0  0  0  0  0  0  0  0  0
   54.8996   29.9056   43.4954 H   0  0  0  0  0  0  0  0  0  0  0  0
   59.7600   27.4337   46.2874 H   0  0  0  0  0  0  0  0  0  0  0  0
   59.5073   30.7496   47.4524 H   0  0  0  0  0  0  0  0  0  0  0  0
   60.6282   31.7914   49.4242 H   0  0  0  0  0  0  0  0  0  0  0  0
   61.6433   30.3529   51.1953 H   0  0  0  0  0  0  0  0  0  0  0  0
   61.5215   27.8670   51.0112 H   0  0  0  0  0  0  0  0  0  0  0  0
   59.2529   30.6292   45.8403 H   0  0  0  0  0  0  0  0  0  0  0  0
   58.2366   34.5901   48.1814 H   0  0  0  0  0  0  0  0  0  0  0  0
   59.9158   34.4798   50.0199 H   0  0  0  0  0  0  0  0  0  0  0  0
   62.1884   33.9857   50.7862 H   0  0  0  0  0  0  0  0  0  0  0  0
   65.1997   32.7168   47.9439 H   0  0  0  0  0  0  0  0  0  0  0  0
   63.5361   32.8787   46.0872 H   0  0  0  0  0  0  0  0  0  0  0  0
   61.2769   33.4394   45.3140 H   0  0  0  0  0  0  0  0  0  0  0  0
  1  2  2  0
  2  3  2  0
  2  4  1  0
  4  5  1  0
  5  6  2  0
  6  7  1  0
  7  8  2  0
  8  9  1  0
  8 10  1  0
 10 11  1  0
 11 12  2  3
 12 13  1  0
 13 14  2  0
 14 15  1  0
 15 16  2  0
 16 17  1  0
 17 18  2  0
 18 19  1  0
 10 20  2  0
  2 21  1  0
 21 22  2  0
 22 23  1  0
 23 24  2  0
 24 25  1  0
 25 26  2  0
 26 27  1  0
 26 28  1  0
 28 29  2  0
 29 30  1  0
 30 31  2  0
 20  5  1  0
 31 21  1  0
 18 13  1  0
 30 24  1  0
  6 32  1  0
  7 33  1  0
 12 34  1  0
 14 35  1  0
 15 36  1  0
 16 37  1  0
 17 38  1  0
 20 39  1  0
 22 40  1  0
 23 41  1  0
 25 42  1  0
 28 43  1  0
 29 44  1  0
 31 45  1  0
M  CHG  3   4  -1   9  -1  19  -1
M  END
>  <UniqueID>  (50) 
45

>  <SMILES>  (50) 
O=S(=O)([N-]c1ccc([O-])c(N=Cc2ccccc2[O-])c1)c1ccc2cc(Cl)ccc2c1

>  <Energy>  (50) 
75.33996853409977

>  <Genealogy>  (50) 
O=S(=O)([N-]c1ccc([O-])c(N=Cc2ccccc2[O-])c1)c1ccc2cc(Cl)ccc2c1 (protonated)
O=S(=O)([N-]c1ccc([O-])c(N=Cc2ccccc2[O-])c1)c1ccc2cc(Cl)ccc2c1 (3D coordinates assigned)
O=S(=O)([N-]c1ccc([O-])c(N=Cc2ccccc2[O-])c1)c1ccc2cc(Cl)ccc2c1 (optimized conformer: 75.33996853409977 kcal/mol)

>  <smiles>  (50) 
O=S(=O)(Nc1ccc(O)c(N=Cc2ccccc2O)c1)c1ccc2cc(Cl)ccc2c1

>  <score_type>  (50) 
oracle

>  <origin>  (50) 
adg

>  <m_score__min__energy>  (50) 
-17.93

>  <m_primary>  (50) 
energy

$$$$
50:0
     RDKit          3D

 49 51  0  0  0  0  0  0  0  0999 V2000
   56.8290   26.5060   46.3710 C   0  0  0  0  0  0  0  0  0  0  0  0
   58.1600   27.1850   46.1970 C   0  0  0  0  0  0  0  0  0  0  0  0
   59.3420   26.4260   46.2240 C   0  0  0  0  0  0  0  0  0  0  0  0
   60.5840   27.0440   46.0620 C   0  0  0  0  0  0  0  0  0  0  0  0
   60.6560   28.4250   45.8780 C   0  0  0  0  0  0  0  0  0  0  0  0
   59.4900   29.1920   45.8450 C   0  0  0  0  0  0  0  0  0  0  0  0
   58.2300   28.5780   45.9820 C   0  0  0  0  0  0  0  0  0  0  0  0
   57.0170   29.3490   45.9700 N   0  0  0  0  0  0  0  0  0  0  0  0
   56.2870   29.7770   44.8110 C   0  0  0  0  0  0  0  0  0  0  0  0
   55.1260   29.3360   44.5960 O   0  0  0  0  0  0  0  0  0  0  0  0
   56.8960   30.7600   43.8840 C   0  0  0  0  0  0  0  0  0  0  0  0
   56.6230   30.6530   42.5080 C   0  0  0  0  0  0  0  0  0  0  0  0
   57.1020   31.6100   41.6100 C   0  0  0  0  0  0  0  0  0  0  0  0
   57.8570   32.6870   42.0720 C   0  0  0  0  0  0  0  0  0  0  0  0
   58.1520   32.8020   43.4310 C   0  0  0  0  0  0  0  0  0  0  0  0
   57.7020   31.8360   44.3430 C   0  0  0  0  0  0  0  0  0  0  0  0
   58.0950   31.9590   45.7170 N   0  0  0  0  0  0  0  0  0  0  0  0
   57.9060   33.1680   46.4640 C   0  0  0  0  0  0  0  0  0  0  0  0
   57.4010   34.1850   45.9160 O   0  0  0  0  0  0  0  0  0  0  0  0
   58.3080   33.2150   47.8370 N   0  0  0  0  0  0  0  0  0  0  0  0
   59.4820   32.5710   48.3470 C   0  0  0  0  0  0  0  0  0  0  0  0
   59.3260   31.6550   49.3930 C   0  0  0  0  0  0  0  0  0  0  0  0
   60.4250   30.9710   49.9050 C   0  0  0  0  0  0  0  0  0  0  0  0
   61.6950   31.1930   49.3760 C   0  0  0  0  0  0  0  0  0  0  0  0
   61.8870   32.1190   48.3390 C   0  0  0  0  0  0  0  0  0  0  0  0
   63.2820   32.3380   47.8120 C   0  0  0  0  0  0  0  0  0  0  0  0
   60.7790   32.8590   47.8470 C   0  0  0  0  0  0  0  0  0  0  0  0
   60.9810   33.9350   46.8050 C   0  0  0  0  0  0  0  0  0  0  0  0
   56.6114   26.3950   47.4435 H   0  0  0  0  0  0  0  0  0  0  0  0
   56.0430   27.1133   45.8983 H   0  0  0  0  0  0  0  0  0  0  0  0
   56.8593   25.5132   45.8983 H   0  0  0  0  0  0  0  0  0  0  0  0
   59.2889   25.3375   46.3738 H   0  0  0  0  0  0  0  0  0  0  0  0
   61.5047   26.4423   46.0795 H   0  0  0  0  0  0  0  0  0  0  0  0
   61.6353   28.9115   45.7584 H   0  0  0  0  0  0  0  0  0  0  0  0
   59.5558   30.2819   45.7113 H   0  0  0  0  0  0  0  0  0  0  0  0
   56.0264   29.8073   42.1355 H   0  0  0  0  0  0  0  0  0  0  0  0
   56.8830   31.5135   40.5363 H   0  0  0  0  0  0  0  0  0  0  0  0
   58.2205   33.4469   41.3646 H   0  0  0  0  0  0  0  0  0  0  0  0
   58.7426   33.6577   43.7902 H   0  0  0  0  0  0  0  0  0  0  0  0
   58.3210   31.0880   46.2480 H   0  0  0  0  0  0  0  0  0  0  0  0
   58.3262   31.4738   49.8145 H   0  0  0  0  0  0  0  0  0  0  0  0
   60.2908   30.2541   50.7285 H   0  0  0  0  0  0  0  0  0  0  0  0
   62.5559   30.6367   49.7753 H   0  0  0  0  0  0  0  0  0  0  0  0
   63.9796   32.4475   48.6554 H   0  0  0  0  0  0  0  0  0  0  0  0
   63.5815   31.4759   47.1980 H   0  0  0  0  0  0  0  0  0  0  0  0
   63.3030   33.2504   47.1980 H   0  0  0  0  0  0  0  0  0  0  0  0
   61.1619   34.8988   47.3034 H   0  0  0  0  0  0  0  0  0  0  0  0
   61.8468   33.6790   46.1766 H   0  0  0  0  0  0  0  0  0  0  0  0
   60.0813   34.0104   46.1766 H   0  0  0  0  0  0  0  0  0  0  0  0
  1  2  1  0
  2  3  2  0
  3  4  1  0
  4  5  2  0
  5  6  1  0
  6  7  2  0
  7  8  1  0
  8  9  1  0
  9 10  2  0
  9 11  1  0
 11 12  2  0
 12 13  1  0
 13 14  2  0
 14 15  1  0
 15 16  2  0
 16 17  1  0
 17 18  1  0
 18 19  2  0
 18 20  1  0
 20 21  1  0
 21 22  2  0
 22 23  1  0
 23 24  2  0
 24 25  1  0
 25 26  1  0
 25 27  2  0
 27 28  1  0
  7  2  1  0
 16 11  1  0
 27 21  1  0
  1 29  1  0
  1 30  1  0
  1 31  1  0
  3 32  1  0
  4 33  1  0
  5 34  1  0
  6 35  1  0
 12 36  1  0
 13 37  1  0
 14 38  1  0
 15 39  1  0
 17 40  1  0
 22 41  1  0
 23 42  1  0
 24 43  1  0
 26 44  1  0
 26 45  1  0
 26 46  1  0
 28 47  1  0
 28 48  1  0
 28 49  1  0
M  CHG  2   8  -1  20  -1
M  END
>  <UniqueID>  (51) 
46

>  <SMILES>  (51) 
Cc1ccccc1[N-]C(=O)c1ccccc1NC(=O)[N-]c1cccc(C)c1C

>  <Energy>  (51) 
71.63903410655759

>  <Genealogy>  (51) 
Cc1ccccc1[N-]C(=O)c1ccccc1NC(=O)[N-]c1cccc(C)c1C (protonated)
Cc1ccccc1[N-]C(=O)c1ccccc1NC(=O)[N-]c1cccc(C)c1C (3D coordinates assigned)
Cc1ccccc1[N-]C(=O)c1ccccc1NC(=O)[N-]c1cccc(C)c1C (optimized conformer: 71.63903410655759 kcal/mol)

>  <smiles>  (51) 
Cc1ccccc1NC(=O)c1ccccc1NC(=O)Nc1cccc(C)c1C

>  <score_type>  (51) 
oracle

>  <origin>  (51) 
adg

>  <m_score__min__energy>  (51) 
-12.92

>  <m_primary>  (51) 
energy

$$$$
51:0
     RDKit          3D

 27 27  0  0  0  0  0  0  0  0999 V2000
   58.1410   27.0440   42.9670 C   0  0  0  0  0  0  0  0  0  0  0  0
   58.7300   27.6010   44.1880 N   0  0  0  0  0  0  0  0  0  0  0  0
   57.6940   28.1410   45.0810 C   0  0  1  0  0  0  0  0  0  0  0  0
   58.5030   28.7060   46.7540 Br  0  0  0  0  0  0  0  0  0  0  0  0
   57.0200   29.3310   44.4580 C   0  0  0  0  0  0  0  0  0  0  0  0
   55.9130   29.7250   44.9140 O   0  0  0  0  0  0  0  0  0  0  0  0
   57.6380   30.0220   43.3640 N   0  0  0  0  0  0  0  0  0  0  0  0
   57.0210   31.2060   42.7630 C   0  0  0  0  0  0  0  0  0  0  0  0
   57.9710   32.4100   42.7880 C   0  0  0  0  0  0  0  0  0  0  0  0
   58.0780   32.9970   44.1680 C   0  0  0  0  0  0  0  0  0  0  0  0
   59.0140   33.9860   44.5100 C   0  0  0  0  0  0  0  0  0  0  0  0
   58.9140   34.4120   45.8260 C   0  0  0  0  0  0  0  0  0  0  0  0
   57.6590   33.5640   46.5560 S   0  0  0  0  0  0  0  0  0  0  0  0
   57.2320   32.6470   45.2150 C   0  0  0  0  0  0  0  0  0  0  0  0
   57.3659   26.3110   43.2352 H   0  0  0  0  0  0  0  0  0  0  0  0
   57.6904   27.8540   42.3747 H   0  0  0  0  0  0  0  0  0  0  0  0
   58.9246   26.5489   42.3747 H   0  0  0  0  0  0  0  0  0  0  0  0
   59.2000   26.8080   44.6850 H   0  0  0  0  0  0  0  0  0  0  0  0
   56.9505   27.3500   45.2584 H   0  0  0  0  0  0  0  0  0  0  0  0
   58.5490   29.6640   43.0000 H   0  0  0  0  0  0  0  0  0  0  0  0
   56.7574   30.9805   41.7191 H   0  0  0  0  0  0  0  0  0  0  0  0
   56.1248   31.4618   43.3472 H   0  0  0  0  0  0  0  0  0  0  0  0
   58.9691   32.0850   42.4591 H   0  0  0  0  0  0  0  0  0  0  0  0
   57.5695   33.1813   42.1143 H   0  0  0  0  0  0  0  0  0  0  0  0
   59.7555   34.3847   43.8021 H   0  0  0  0  0  0  0  0  0  0  0  0
   59.5458   35.1724   46.3083 H   0  0  0  0  0  0  0  0  0  0  0  0
   56.4250   31.9007   45.1724 H   0  0  0  0  0  0  0  0  0  0  0  0
  1  2  1  0
  2  3  1  0
  3  4  1  0
  3  5  1  0
  5  6  2  0
  5  7  1  0
  7  8  1  0
  8  9  1  0
  9 10  1  0
 10 11  1  0
 11 12  2  0
 12 13  1  0
 13 14  1  0
 14 10  2  0
  1 15  1  0
  1 16  1  0
  1 17  1  0
  2 18  1  0
  3 19  1  1
  7 20  1  0
  8 21  1  0
  8 22  1  0
  9 23  1  0
  9 24  1  0
 11 25  1  0
 12 26  1  0
 14 27  1  0
M  END
>  <UniqueID>  (52) 
47

>  <SMILES>  (52) 
CN[C@@H](Br)C(=O)NCCc1ccsc1

>  <Energy>  (52) 
42.40265038876326

>  <Genealogy>  (52) 
CN[C@@H](Br)C(=O)NCCc1ccsc1 (chirality)
CN[C@@H](Br)C(=O)NCCc1ccsc1 (3D coordinates assigned)
CN[C@@H](Br)C(=O)NCCc1ccsc1 (optimized conformer: 42.40265038876326 kcal/mol)

>  <smiles>  (52) 
CNC(Br)C(=O)NCCc1ccsc1

>  <score_type>  (52) 
oracle

>  <origin>  (52) 
adg

>  <m_score__min__energy>  (52) 
-6.54

>  <m_primary>  (52) 
energy

$$$$
52:0
     RDKit          3D

 41 43  0  0  0  0  0  0  0  0999 V2000
   58.1350   32.7070   42.7690 C   0  0  0  0  0  0  0  0  0  0  0  0
   58.0430   32.2420   44.1530 N   0  0  0  0  0  0  0  0  0  0  0  0
   57.8090   30.8500   44.4360 C   0  0  0  0  0  0  0  0  0  0  0  0
   58.8880   29.9740   44.6540 C   0  0  0  0  0  0  0  0  0  0  0  0
   58.6590   28.6200   44.9210 C   0  0  0  0  0  0  0  0  0  0  0  0
   57.3520   28.1270   44.9680 C   0  0  0  0  0  0  0  0  0  0  0  0
   56.2740   28.9860   44.7460 C   0  0  0  0  0  0  0  0  0  0  0  0
   56.4980   30.3400   44.4780 C   0  0  0  0  0  0  0  0  0  0  0  0
   58.2840   33.3800   45.4480 S   0  0  0  0  0  0  0  0  0  0  0  0
   57.1840   33.2110   46.4580 O   0  0  0  0  0  0  0  0  0  0  0  0
   58.2560   34.7860   44.9170 O   0  0  0  0  0  0  0  0  0  0  0  0
   59.8570   33.1070   46.1930 C   0  0  0  0  0  0  0  0  0  0  0  0
   60.8060   34.1360   46.2020 C   0  0  0  0  0  0  0  0  0  0  0  0
   62.0610   33.9330   46.7840 C   0  0  0  0  0  0  0  0  0  0  0  0
   62.3840   32.6900   47.3580 C   0  0  0  0  0  0  0  0  0  0  0  0
   63.6590   32.4610   47.9840 N   0  0  0  0  0  0  0  0  0  0  0  0
   64.0520   33.0530   49.2340 C   0  0  0  0  0  0  0  0  0  0  0  0
   63.4450   34.0660   49.6720 O   0  0  0  0  0  0  0  0  0  0  0  0
   65.1920   32.5150   49.9980 C   0  0  0  0  0  0  0  0  0  0  0  0
   66.4750   33.0500   50.0690 C   0  0  0  0  0  0  0  0  0  0  0  0
   67.3450   32.2950   50.8670 C   0  0  0  0  0  0  0  0  0  0  0  0
   66.7570   31.1670   51.4230 C   0  0  0  0  0  0  0  0  0  0  0  0
   65.1550   31.1070   50.9190 S   0  0  0  0  0  0  0  0  0  0  0  0
   61.4190   31.6710   47.3690 C   0  0  0  0  0  0  0  0  0  0  0  0
   60.1650   31.8750   46.7840 C   0  0  0  0  0  0  0  0  0  0  0  0
   58.3485   33.7860   42.7582 H   0  0  0  0  0  0  0  0  0  0  0  0
   58.9439   32.1680   42.2541 H   0  0  0  0  0  0  0  0  0  0  0  0
   57.1818   32.5166   42.2541 H   0  0  0  0  0  0  0  0  0  0  0  0
   59.9187   30.3563   44.6142 H   0  0  0  0  0  0  0  0  0  0  0  0
   59.5083   27.9427   45.0941 H   0  0  0  0  0  0  0  0  0  0  0  0
   57.1728   27.0626   45.1798 H   0  0  0  0  0  0  0  0  0  0  0  0
   55.2458   28.5967   44.7820 H   0  0  0  0  0  0  0  0  0  0  0  0
   55.6445   31.0104   44.2990 H   0  0  0  0  0  0  0  0  0  0  0  0
   60.5633   35.1087   45.7492 H   0  0  0  0  0  0  0  0  0  0  0  0
   62.7989   34.7487   46.7931 H   0  0  0  0  0  0  0  0  0  0  0  0
   64.3730   31.9190   47.4480 H   0  0  0  0  0  0  0  0  0  0  0  0
   66.7757   33.9726   49.5509 H   0  0  0  0  0  0  0  0  0  0  0  0
   68.3963   32.5706   51.0371 H   0  0  0  0  0  0  0  0  0  0  0  0
   67.2540   30.4382   52.0801 H   0  0  0  0  0  0  0  0  0  0  0  0
   61.6505   30.7048   47.8411 H   0  0  0  0  0  0  0  0  0  0  0  0
   59.4193   31.0664   46.7881 H   0  0  0  0  0  0  0  0  0  0  0  0
  1  2  1  0
  2  3  1  0
  3  4  2  0
  4  5  1  0
  5  6  2  0
  6  7  1  0
  7  8  2  0
  2  9  1  0
  9 10  2  0
  9 11  2  0
  9 12  1  0
 12 13  2  0
 13 14  1  0
 14 15  2  0
 15 16  1  0
 16 17  1  0
 17 18  2  0
 17 19  1  0
 19 20  2  0
 20 21  1  0
 21 22  2  0
 22 23  1  0
 15 24  1  0
 24 25  2  0
  8  3  1  0
 25 12  1  0
 23 19  1  0
  1 26  1  0
  1 27  1  0
  1 28  1  0
  4 29  1  0
  5 30  1  0
  6 31  1  0
  7 32  1  0
  8 33  1  0
 13 34  1  0
 14 35  1  0
 16 36  1  0
 20 37  1  0
 21 38  1  0
 22 39  1  0
 24 40  1  0
 25 41  1  0
M  END
>  <UniqueID>  (53) 
48

>  <SMILES>  (53) 
CN(c1ccccc1)S(=O)(=O)c1ccc(NC(=O)c2cccs2)cc1

>  <Energy>  (53) 
77.33349365334642

>  <Genealogy>  (53) 
CN(c1ccccc1)S(=O)(=O)c1ccc(NC(=O)c2cccs2)cc1 (3D coordinates assigned)
CN(c1ccccc1)S(=O)(=O)c1ccc(NC(=O)c2cccs2)cc1 (optimized conformer: 77.33349365334642 kcal/mol)

>  <smiles>  (53) 
CN(c1ccccc1)S(=O)(=O)c1ccc(NC(=O)c2cccs2)cc1

>  <score_type>  (53) 
oracle

>  <origin>  (53) 
adg

>  <m_score__min__energy>  (53) 
-8.1799999999999997

>  <m_primary>  (53) 
energy

$$$$
53:0
     RDKit          3D

 32 34  0  0  0  0  0  0  0  0999 V2000
   56.1400   29.9960   42.9230 N   0  0  0  0  0  0  0  0  0  0  0  0
   56.3850   30.4010   43.9790 C   0  0  0  0  0  0  0  0  0  0  0  0
   56.6750   30.8810   45.2300 O   0  0  0  0  0  0  0  0  0  0  0  0
   57.7700   31.7130   45.5210 C   0  0  0  0  0  0  0  0  0  0  0  0
   57.9240   32.9550   44.8820 C   0  0  0  0  0  0  0  0  0  0  0  0
   59.0100   33.7720   45.1670 C   0  0  0  0  0  0  0  0  0  0  0  0
   59.9730   33.3710   46.0960 C   0  0  0  0  0  0  0  0  0  0  0  0
   61.0650   34.2110   46.3620 C   0  0  0  0  0  0  0  0  0  0  0  0
   62.0400   33.8320   47.2810 C   0  0  0  0  0  0  0  0  0  0  0  0
   61.9360   32.6110   47.9430 C   0  0  0  0  0  0  0  0  0  0  0  0
   60.8560   31.7610   47.6920 C   0  0  0  0  0  0  0  0  0  0  0  0
   59.8490   32.1200   46.7620 C   0  0  0  0  0  0  0  0  0  0  0  0
   58.7260   31.2840   46.4740 C   0  0  0  0  0  0  0  0  0  0  0  0
   58.5260   29.9180   47.1140 C   0  0  0  0  0  0  0  0  0  0  0  0
   58.4180   28.8390   46.0650 C   0  0  0  0  0  0  0  0  0  0  0  0
   59.2770   28.8250   44.9550 C   0  0  0  0  0  0  0  0  0  0  0  0
   59.1500   27.8300   43.9830 C   0  0  0  0  0  0  0  0  0  0  0  0
   58.1610   26.8550   44.1280 C   0  0  0  0  0  0  0  0  0  0  0  0
   57.3350   26.8800   45.2070 N   0  0  0  0  0  0  0  0  0  0  0  0
   57.4390   27.8370   46.1670 C   0  0  0  0  0  0  0  0  0  0  0  0
   57.1749   33.2841   44.1468 H   0  0  0  0  0  0  0  0  0  0  0  0
   59.1127   34.7416   44.6577 H   0  0  0  0  0  0  0  0  0  0  0  0
   61.1514   35.1758   45.8408 H   0  0  0  0  0  0  0  0  0  0  0  0
   62.8924   34.4969   47.4842 H   0  0  0  0  0  0  0  0  0  0  0  0
   62.7086   32.3142   48.6676 H   0  0  0  0  0  0  0  0  0  0  0  0
   60.7865   30.8004   48.2234 H   0  0  0  0  0  0  0  0  0  0  0  0
   59.3825   29.6987   47.7685 H   0  0  0  0  0  0  0  0  0  0  0  0
   57.5918   29.9367   47.6944 H   0  0  0  0  0  0  0  0  0  0  0  0
   60.0516   29.5990   44.8504 H   0  0  0  0  0  0  0  0  0  0  0  0
   59.8221   27.8146   43.1123 H   0  0  0  0  0  0  0  0  0  0  0  0
   58.0504   26.0666   43.3689 H   0  0  0  0  0  0  0  0  0  0  0  0
   56.7536   27.8266   47.0273 H   0  0  0  0  0  0  0  0  0  0  0  0
  1  2  3  0
  2  3  1  0
  3  4  1  0
  4  5  2  0
  5  6  1  0
  6  7  2  0
  7  8  1  0
  8  9  2  0
  9 10  1  0
 10 11  2  0
 11 12  1  0
 12 13  2  0
 13 14  1  0
 14 15  1  0
 15 16  2  0
 16 17  1  0
 17 18  2  0
 18 19  1  0
 19 20  2  0
 13  4  1  0
 20 15  1  0
 12  7  1  0
  5 21  1  0
  6 22  1  0
  8 23  1  0
  9 24  1  0
 10 25  1  0
 11 26  1  0
 14 27  1  0
 14 28  1  0
 16 29  1  0
 17 30  1  0
 18 31  1  0
 20 32  1  0
M  END
>  <UniqueID>  (54) 
49

>  <SMILES>  (54) 
N#COc1ccc2ccccc2c1Cc1cccnc1

>  <Energy>  (54) 
44.20480827660479

>  <Genealogy>  (54) 
N#COc1ccc2ccccc2c1Cc1cccnc1 (3D coordinates assigned)
N#COc1ccc2ccccc2c1Cc1cccnc1 (optimized conformer: 44.20480827660479 kcal/mol)

>  <smiles>  (54) 
N#COc1ccc2ccccc2c1Cc1cccnc1

>  <score_type>  (54) 
oracle

>  <origin>  (54) 
adg

>  <m_score__min__energy>  (54) 
-6.6500000000000004

>  <m_primary>  (54) 
energy

$$$$
54:0
     RDKit          3D

 44 46  0  0  0  0  0  0  0  0999 V2000
   56.3250   29.3000   42.2480 O   0  0  0  0  0  0  0  0  0  0  0  0
   56.8320   30.1740   43.0030 C   0  0  0  0  0  0  0  0  0  0  0  0
   57.2200   31.4000   42.4640 C   0  0  0  0  0  0  0  0  0  0  0  0
   57.7680   32.3700   43.2950 C   0  0  0  0  0  0  0  0  0  0  0  0
   57.9150   32.1010   44.6620 C   0  0  0  0  0  0  0  0  0  0  0  0
   58.4930   33.0950   45.6040 C   0  0  0  0  0  0  0  0  0  0  0  0
   59.1140   34.2550   45.1020 C   0  0  0  0  0  0  0  0  0  0  0  0
   59.6690   35.1970   45.9740 C   0  0  0  0  0  0  0  0  0  0  0  0
   59.6200   34.9890   47.3530 C   0  0  0  0  0  0  0  0  0  0  0  0
   59.0190   33.8380   47.8650 C   0  0  0  0  0  0  0  0  0  0  0  0
   58.4610   32.8920   46.9990 C   0  0  0  0  0  0  0  0  0  0  0  0
   57.5270   30.8830   45.1300 N   0  0  0  0  0  0  0  0  0  0  0  0
   57.0030   29.9390   44.3420 N   0  0  0  0  0  0  0  0  0  0  0  0
   56.6010   28.6700   44.9640 C   0  0  0  0  0  0  0  0  0  0  0  0
   57.7160   27.6200   44.8570 C   0  0  0  0  0  0  0  0  0  0  0  0
   58.7050   27.6990   46.0380 C   0  0  0  0  0  0  0  0  0  0  0  0
   59.1040   29.0940   46.3510 N   0  0  0  0  0  0  0  0  0  0  0  0
   60.4860   29.3840   45.8850 C   0  0  0  0  0  0  0  0  0  0  0  0
   61.1510   30.4770   46.7390 C   0  0  0  0  0  0  0  0  0  0  0  0
   61.2800   30.1240   48.1100 O   0  0  0  0  0  0  0  0  0  0  0  0
   60.2640   29.2410   48.5680 C   0  0  0  0  0  0  0  0  0  0  0  0
   58.9360   29.3780   47.8020 C   0  0  0  0  0  0  0  0  0  0  0  0
   57.0934   31.5980   41.3894 H   0  0  0  0  0  0  0  0  0  0  0  0
   58.0834   33.3400   42.8831 H   0  0  0  0  0  0  0  0  0  0  0  0
   59.1629   34.4214   44.0158 H   0  0  0  0  0  0  0  0  0  0  0  0
   60.1450   36.1036   45.5721 H   0  0  0  0  0  0  0  0  0  0  0  0
   60.0553   35.7325   48.0369 H   0  0  0  0  0  0  0  0  0  0  0  0
   58.9841   33.6745   48.9522 H   0  0  0  0  0  0  0  0  0  0  0  0
   57.9943   31.9841   47.4087 H   0  0  0  0  0  0  0  0  0  0  0  0
   56.3757   28.8468   46.0261 H   0  0  0  0  0  0  0  0  0  0  0  0
   55.7136   28.2899   44.4366 H   0  0  0  0  0  0  0  0  0  0  0  0
   57.2600   26.6191   44.8430 H   0  0  0  0  0  0  0  0  0  0  0  0
   58.2778   27.8166   43.9319 H   0  0  0  0  0  0  0  0  0  0  0  0
   58.2289   27.2600   46.9272 H   0  0  0  0  0  0  0  0  0  0  0  0
   59.6126   27.1472   45.7522 H   0  0  0  0  0  0  0  0  0  0  0  0
   58.4490   29.7320   45.8370 H   0  0  0  0  0  0  0  0  0  0  0  0
   61.0859   28.4643   45.9510 H   0  0  0  0  0  0  0  0  0  0  0  0
   60.4320   29.7425   44.8465 H   0  0  0  0  0  0  0  0  0  0  0  0
   62.1547   30.6732   46.3339 H   0  0  0  0  0  0  0  0  0  0  0  0
   60.5022   31.3641   46.6925 H   0  0  0  0  0  0  0  0  0  0  0  0
   60.6249   28.2079   48.4560 H   0  0  0  0  0  0  0  0  0  0  0  0
   60.0593   29.5018   49.6169 H   0  0  0  0  0  0  0  0  0  0  0  0
   58.2078   28.6685   48.2218 H   0  0  0  0  0  0  0  0  0  0  0  0
   58.5844   30.4147   47.9093 H   0  0  0  0  0  0  0  0  0  0  0  0
  1  2  2  0
  2  3  1  0
  3  4  2  0
  4  5  1  0
  5  6  1  0
  6  7  2  0
  7  8  1  0
  8  9  2  0
  9 10  1  0
 10 11  2  0
  5 12  2  0
 12 13  1  0
 13 14  1  0
 14 15  1  0
 15 16  1  0
 16 17  1  0
 17 18  1  0
 18 19  1  0
 19 20  1  0
 20 21  1  0
 21 22  1  0
 13  2  1  0
 22 17  1  0
 11  6  1  0
  3 23  1  0
  4 24  1  0
  7 25  1  0
  8 26  1  0
  9 27  1  0
 10 28  1  0
 11 29  1  0
 14 30  1  0
 14 31  1  0
 15 32  1  0
 15 33  1  0
 16 34  1  0
 16 35  1  0
 17 36  1  0
 18 37  1  0
 18 38  1  0
 19 39  1  0
 19 40  1  0
 21 41  1  0
 21 42  1  0
 22 43  1  0
 22 44  1  0
M  CHG  1  17   1
M  END
>  <UniqueID>  (55) 
50

>  <SMILES>  (55) 
O=c1ccc(-c2ccccc2)nn1CCC[NH+]1CCOCC1

>  <Energy>  (55) 
62.81427858008343

>  <Genealogy>  (55) 
O=c1ccc(-c2ccccc2)nn1CCC[NH+]1CCOCC1 (protonated)
O=c1ccc(-c2ccccc2)nn1CCC[NH+]1CCOCC1 (3D coordinates assigned)
O=c1ccc(-c2ccccc2)nn1CCC[NH+]1CCOCC1 (nonaromatic ring conformer: 62.81427858008343 kcal/mol)

>  <smiles>  (55) 
O=c1ccc(-c2ccccc2)nn1CCCN1CCOCC1

>  <score_type>  (55) 
oracle

>  <origin>  (55) 
adg

>  <m_score__min__energy>  (55) 
-5.5499999999999998

>  <m_primary>  (55) 
energy

$$$$
55:0
     RDKit          3D

 31 32  0  0  0  0  0  0  0  0999 V2000
   60.2868   28.1008   44.2085 H   0  0  0  0  0  0  0  0  0  0  0  0
   60.4500   28.9550   44.8820 C   0  0  0  0  0  0  0  0  0  0  0  0
   61.4249   29.4642   44.8983 H   0  0  0  0  0  0  0  0  0  0  0  0
   59.4620   29.3750   45.6820 C   0  0  0  0  0  0  0  0  0  0  0  0
   59.6820   30.5300   46.5930 C   0  0  0  0  0  0  0  0  0  0  0  0
   61.0120   30.7570   47.1160 C   0  0  0  0  0  0  0  0  0  0  0  0
   62.0760   30.9420   47.5310 N   0  0  0  0  0  0  0  0  0  0  0  0
   58.6490   31.3320   46.9200 C   0  0  0  0  0  0  0  0  0  0  0  0
   58.0263   31.0346   47.7767 H   0  0  0  0  0  0  0  0  0  0  0  0
   58.2890   32.5810   46.2150 C   0  0  0  0  0  0  0  0  0  0  0  0
   57.0820   32.9140   45.8180 O   0  0  0  0  0  0  0  0  0  0  0  0
   57.1400   34.0880   45.2340 C   0  0  0  0  0  0  0  0  0  0  0  0
   56.2821   34.6229   44.8007 H   0  0  0  0  0  0  0  0  0  0  0  0
   58.4390   34.5490   45.2460 C   0  0  0  0  0  0  0  0  0  0  0  0
   58.8071   35.5001   44.8338 H   0  0  0  0  0  0  0  0  0  0  0  0
   59.1830   33.5770   45.8790 C   0  0  0  0  0  0  0  0  0  0  0  0
   60.2652   33.5920   46.0757 H   0  0  0  0  0  0  0  0  0  0  0  0
   58.1660   28.6530   45.6720 C   0  0  0  0  0  0  0  0  0  0  0  0
   57.8890   27.1710   46.4280 S   0  0  0  0  0  0  0  0  0  0  0  0
   56.2710   27.1230   45.9590 C   0  0  0  0  0  0  0  0  0  0  0  0
   55.4260   26.1780   46.2440 N   0  0  0  0  0  0  0  0  0  0  0  0
   55.4300   24.8630   45.6130 C   0  0  0  0  0  0  0  0  0  0  0  0
   55.4324   24.0838   46.3894 H   0  0  0  0  0  0  0  0  0  0  0  0
   54.5322   24.7540   44.9869 H   0  0  0  0  0  0  0  0  0  0  0  0
   56.3285   24.7595   44.9869 H   0  0  0  0  0  0  0  0  0  0  0  0
   55.9250   28.2030   45.2300 N   0  0  0  0  0  0  0  0  0  0  0  0
   56.9710   29.0560   45.0550 C   0  0  0  0  0  0  0  0  0  0  0  0
   56.8120   30.3100   44.2530 C   0  0  0  0  0  0  0  0  0  0  0  0
   56.7032   31.1683   44.9323 H   0  0  0  0  0  0  0  0  0  0  0  0
   57.6990   30.4545   43.6187 H   0  0  0  0  0  0  0  0  0  0  0  0
   55.9170   30.2286   43.6187 H   0  0  0  0  0  0  0  0  0  0  0  0
  1  2  1  0
  2  3  1  0
  2  4  2  0
  4  5  1  0
  5  6  1  0
  6  7  3  0
  5  8  2  3
  8  9  1  0
  8 10  1  0
 10 11  1  0
 11 12  1  0
 12 13  1  0
 12 14  2  0
 14 15  1  0
 14 16  1  0
 16 17  1  0
  4 18  1  0
 18 19  1  0
 19 20  1  0
 20 21  2  0
 21 22  1  0
 22 23  1  0
 22 24  1  0
 22 25  1  0
 20 26  1  0
 26 27  1  0
 27 28  1  0
 28 29  1  0
 28 30  1  0
 28 31  1  0
 16 10  2  0
 27 18  2  0
M  CHG  1  26  -1
M  END
>  <UniqueID>  (56) 
51

>  <SMILES>  (56) 
C=C(C(C#N)=Cc1ccco1)c1s/c(=N\C)[n-]c1C

>  <Energy>  (56) 
92.08732606829982

>  <Genealogy>  (56) 
C=C(C(C#N)=Cc1ccco1)c1sc(=NC)[n-]c1C (protonated)
C=C(C(C#N)=Cc1ccco1)c1s/c(=N\C)[n-]c1C (cis-trans isomerization)
C=C(C(C#N)=Cc1ccco1)c1s/c(=N\C)[n-]c1C (3D coordinates assigned)
C=C(C(C#N)=Cc1ccco1)c1s/c(=N\C)[n-]c1C (optimized conformer: 92.08732606829982 kcal/mol)

>  <smiles>  (56) 
C=C(C(C#N)=Cc1ccco1)c1sc(=NC)[nH]c1C

>  <score_type>  (56) 
oracle

>  <origin>  (56) 
adg

>  <m_score__min__energy>  (56) 
-8.4299999999999997

>  <m_primary>  (56) 
energy

$$$$
56:0
     RDKit          3D

 50 52  0  0  0  0  0  0  0  0999 V2000
   58.8420   33.7580   46.4850 C   0  0  0  0  0  0  0  0  0  0  0  0
   58.1200   32.6960   47.3090 C   0  0  0  0  0  0  0  0  0  0  0  0
   59.0230   31.5130   47.6950 C   0  0  0  0  0  0  0  0  0  0  0  0
   60.3210   31.4210   46.8630 C   0  0  0  0  0  0  0  0  0  0  0  0
   60.4980   30.0730   46.1320 C   0  0  0  0  0  0  0  0  0  0  0  0
   59.2030   29.3690   45.9450 N   0  0  0  0  0  0  0  0  0  0  0  0
   58.9670   28.2170   46.6640 C   0  0  0  0  0  0  0  0  0  0  0  0
   59.8550   27.7520   47.4340 O   0  0  0  0  0  0  0  0  0  0  0  0
   57.7490   27.5220   46.5490 C   0  0  0  0  0  0  0  0  0  0  0  0
   57.5150   26.2780   47.3260 C   0  0  0  0  0  0  0  0  0  0  0  0
   58.3290   25.9550   48.2310 O   0  0  0  0  0  0  0  0  0  0  0  0
   56.3610   25.4540   47.1100 N   0  0  0  0  0  0  0  0  0  0  0  0
   56.2280   24.4210   46.1230 C   0  0  0  0  0  0  0  0  0  0  0  0
   55.5000   23.2440   46.3730 C   0  0  0  0  0  0  0  0  0  0  0  0
   55.3870   22.2610   45.3860 C   0  0  0  0  0  0  0  0  0  0  0  0
   55.9850   22.4480   44.1250 C   0  0  0  0  0  0  0  0  0  0  0  0
   55.9040   21.4910   43.1040 O   0  0  0  0  0  0  0  0  0  0  0  0
   57.0010   20.7050   42.6500 C   0  0  0  0  0  0  0  0  0  0  0  0
   56.6860   23.6340   43.8730 C   0  0  0  0  0  0  0  0  0  0  0  0
   56.7990   24.6160   44.8600 C   0  0  0  0  0  0  0  0  0  0  0  0
   56.7580   28.0200   45.6990 C   0  0  0  0  0  0  0  0  0  0  0  0
   55.5240   27.3750   45.6200 O   0  0  0  0  0  0  0  0  0  0  0  0
   56.9990   29.1700   44.9400 C   0  0  0  0  0  0  0  0  0  0  0  0
   56.0160   29.6550   44.0550 C   0  0  0  0  0  0  0  0  0  0  0  0
   56.2510   30.7950   43.2930 C   0  0  0  0  0  0  0  0  0  0  0  0
   57.4640   31.4660   43.3990 C   0  0  0  0  0  0  0  0  0  0  0  0
   58.4510   31.0040   44.2710 C   0  0  0  0  0  0  0  0  0  0  0  0
   58.2430   29.8460   45.0670 C   0  0  0  0  0  0  0  0  0  0  0  0
   59.3304   34.4764   47.1598 H   0  0  0  0  0  0  0  0  0  0  0  0
   59.6008   33.2767   45.8506 H   0  0  0  0  0  0  0  0  0  0  0  0
   58.1153   34.2866   45.8506 H   0  0  0  0  0  0  0  0  0  0  0  0
   57.7438   33.1642   48.2306 H   0  0  0  0  0  0  0  0  0  0  0  0
   57.3054   32.2967   46.6868 H   0  0  0  0  0  0  0  0  0  0  0  0
   59.2974   31.6178   48.7550 H   0  0  0  0  0  0  0  0  0  0  0  0
   58.4501   30.5951   47.4967 H   0  0  0  0  0  0  0  0  0  0  0  0
   60.3089   32.2241   46.1115 H   0  0  0  0  0  0  0  0  0  0  0  0
   61.1605   31.5162   47.5673 H   0  0  0  0  0  0  0  0  0  0  0  0
   60.9467   30.2600   45.1452 H   0  0  0  0  0  0  0  0  0  0  0  0
   61.1471   29.4339   46.7486 H   0  0  0  0  0  0  0  0  0  0  0  0
   55.0171   23.0963   47.3503 H   0  0  0  0  0  0  0  0  0  0  0  0
   54.8283   21.3369   45.5952 H   0  0  0  0  0  0  0  0  0  0  0  0
   57.5523   20.3100   43.5160 H   0  0  0  0  0  0  0  0  0  0  0  0
   56.6260   19.8688   42.0416 H   0  0  0  0  0  0  0  0  0  0  0  0
   57.6722   21.3290   42.0416 H   0  0  0  0  0  0  0  0  0  0  0  0
   57.1516   23.7936   42.8893 H   0  0  0  0  0  0  0  0  0  0  0  0
   57.3403   25.5487   44.6432 H   0  0  0  0  0  0  0  0  0  0  0  0
   55.0546   29.1279   43.9657 H   0  0  0  0  0  0  0  0  0  0  0  0
   55.4762   31.1659   42.6059 H   0  0  0  0  0  0  0  0  0  0  0  0
   57.6468   32.3654   42.7927 H   0  0  0  0  0  0  0  0  0  0  0  0
   59.4057   31.5456   44.3430 H   0  0  0  0  0  0  0  0  0  0  0  0
  1  2  1  0
  2  3  1  0
  3  4  1  0
  4  5  1  0
  5  6  1  0
  6  7  1  0
  7  8  2  0
  7  9  1  0
  9 10  1  0
 10 11  2  0
 10 12  1  0
 12 13  1  0
 13 14  2  0
 14 15  1  0
 15 16  2  0
 16 17  1  0
 17 18  1  0
 16 19  1  0
 19 20  2  0
  9 21  2  0
 21 22  1  0
 21 23  1  0
 23 24  2  0
 24 25  1  0
 25 26  2  0
 26 27  1  0
 27 28  2  0
 28  6  1  0
 20 13  1  0
 28 23  1  0
  1 29  1  0
  1 30  1  0
  1 31  1  0
  2 32  1  0
  2 33  1  0
  3 34  1  0
  3 35  1  0
  4 36  1  0
  4 37  1  0
  5 38  1  0
  5 39  1  0
 14 40  1  0
 15 41  1  0
 18 42  1  0
 18 43  1  0
 18 44  1  0
 19 45  1  0
 20 46  1  0
 24 47  1  0
 25 48  1  0
 26 49  1  0
 27 50  1  0
M  CHG  2  12  -1  22  -1
M  END
>  <UniqueID>  (57) 
52

>  <SMILES>  (57) 
CCCCCn1c(=O)c(C(=O)[N-]c2ccc(OC)cc2)c([O-])c2ccccc21

>  <Energy>  (57) 
68.71530062653572

>  <Genealogy>  (57) 
CCCCCn1c(=O)c(C(=O)[N-]c2ccc(OC)cc2)c([O-])c2ccccc21 (protonated)
CCCCCn1c(=O)c(C(=O)[N-]c2ccc(OC)cc2)c([O-])c2ccccc21 (3D coordinates assigned)
CCCCCn1c(=O)c(C(=O)[N-]c2ccc(OC)cc2)c([O-])c2ccccc21 (optimized conformer: 68.71530062653572 kcal/mol)

>  <smiles>  (57) 
CCCCCn1c(=O)c(C(=O)Nc2ccc(OC)cc2)c(O)c2ccccc21

>  <score_type>  (57) 
oracle

>  <origin>  (57) 
adg

>  <m_score__min__energy>  (57) 
-12.619999999999999

>  <m_primary>  (57) 
energy

$$$$
57:0
     RDKit          3D

 54 56  0  0  0  0  0  0  0  0999 V2000
   65.4990   31.9770   50.5260 C   0  0  0  0  0  0  0  0  0  0  0  0
   64.3840   32.3320   49.8830 C   0  0  0  0  0  0  0  0  0  0  0  0
   64.4270   33.0790   48.5800 C   0  0  0  0  0  0  0  0  0  0  0  0
   63.0410   33.4920   48.1570 C   0  0  0  0  0  0  0  0  0  0  0  0
   62.7100   33.5670   46.7980 C   0  0  0  0  0  0  0  0  0  0  0  0
   61.4160   33.9200   46.4080 C   0  0  0  0  0  0  0  0  0  0  0  0
   60.4340   34.2090   47.3730 C   0  0  0  0  0  0  0  0  0  0  0  0
   59.1210   34.5510   47.0150 O   0  0  0  0  0  0  0  0  0  0  0  0
   58.0880   33.6400   46.7430 C   0  0  0  0  0  0  0  0  0  0  0  0
   57.2670   33.3180   47.6450 O   0  0  0  0  0  0  0  0  0  0  0  0
   58.0020   33.0120   45.4060 C   0  0  0  0  0  0  0  0  0  0  0  0
   58.4540   33.6920   44.2620 C   0  0  0  0  0  0  0  0  0  0  0  0
   58.3690   33.0910   43.0030 C   0  0  0  0  0  0  0  0  0  0  0  0
   57.8360   31.8060   42.8720 C   0  0  0  0  0  0  0  0  0  0  0  0
   57.3870   31.1130   44.0030 C   0  0  0  0  0  0  0  0  0  0  0  0
   56.7230   29.4860   43.8530 S   0  0  0  0  0  0  0  0  0  0  0  0
   56.2700   29.2440   42.4390 O   0  0  0  0  0  0  0  0  0  0  0  0
   55.5240   29.3490   44.7500 O   0  0  0  0  0  0  0  0  0  0  0  0
   57.9240   28.3050   44.2980 N   0  0  0  0  0  0  0  0  0  0  0  0
   58.0680   27.0950   43.4860 C   0  0  0  0  0  0  0  0  0  0  0  0
   58.7580   28.5050   45.4570 C   0  0  0  0  0  0  0  0  0  0  0  0
   59.8510   29.3880   45.4050 C   0  0  0  0  0  0  0  0  0  0  0  0
   60.6640   29.5770   46.5270 C   0  0  0  0  0  0  0  0  0  0  0  0
   60.3900   28.8920   47.7130 C   0  0  0  0  0  0  0  0  0  0  0  0
   59.3010   28.0210   47.7800 C   0  0  0  0  0  0  0  0  0  0  0  0
   58.4870   27.8270   46.6590 C   0  0  0  0  0  0  0  0  0  0  0  0
   57.4690   31.7170   45.2650 C   0  0  0  0  0  0  0  0  0  0  0  0
   60.7500   34.1090   48.7360 C   0  0  0  0  0  0  0  0  0  0  0  0
   59.7410   34.3740   49.6750 O   0  0  0  0  0  0  0  0  0  0  0  0
   59.3160   33.4620   50.6830 C   0  0  0  0  0  0  0  0  0  0  0  0
   62.0570   33.7500   49.1230 C   0  0  0  0  0  0  0  0  0  0  0  0
   65.4343   31.4306   51.4785 H   0  0  0  0  0  0  0  0  0  0  0  0
   66.4823   32.2310   50.1033 H   0  0  0  0  0  0  0  0  0  0  0  0
   63.4083   32.0707   50.3186 H   0  0  0  0  0  0  0  0  0  0  0  0
   65.0509   33.9771   48.6991 H   0  0  0  0  0  0  0  0  0  0  0  0
   64.8506   32.4197   47.8081 H   0  0  0  0  0  0  0  0  0  0  0  0
   63.4716   33.3472   46.0354 H   0  0  0  0  0  0  0  0  0  0  0  0
   61.1630   33.9724   45.3388 H   0  0  0  0  0  0  0  0  0  0  0  0
   58.8770   34.7029   44.3581 H   0  0  0  0  0  0  0  0  0  0  0  0
   58.7228   33.6313   42.1125 H   0  0  0  0  0  0  0  0  0  0  0  0
   57.7690   31.3380   41.8788 H   0  0  0  0  0  0  0  0  0  0  0  0
   58.1720   26.2209   44.1457 H   0  0  0  0  0  0  0  0  0  0  0  0
   57.1782   26.9714   42.8512 H   0  0  0  0  0  0  0  0  0  0  0  0
   58.9619   27.1837   42.8512 H   0  0  0  0  0  0  0  0  0  0  0  0
   60.0681   29.9340   44.4751 H   0  0  0  0  0  0  0  0  0  0  0  0
   61.5201   30.2658   46.4755 H   0  0  0  0  0  0  0  0  0  0  0  0
   61.0321   29.0388   48.5940 H   0  0  0  0  0  0  0  0  0  0  0  0
   59.0826   27.4862   48.7161 H   0  0  0  0  0  0  0  0  0  0  0  0
   57.6299   27.1401   46.7180 H   0  0  0  0  0  0  0  0  0  0  0  0
   57.1136   31.1741   46.1533 H   0  0  0  0  0  0  0  0  0  0  0  0
   59.5166   33.8925   51.6752 H   0  0  0  0  0  0  0  0  0  0  0  0
   58.2375   33.2739   50.5762 H   0  0  0  0  0  0  0  0  0  0  0  0
   59.8657   32.5152   50.5762 H   0  0  0  0  0  0  0  0  0  0  0  0
   62.3074   33.6715   50.1912 H   0  0  0  0  0  0  0  0  0  0  0  0
  1  2  2  0
  2  3  1  0
  3  4  1  0
  4  5  2  0
  5  6  1  0
  6  7  2  0
  7  8  1  0
  8  9  1  0
  9 10  2  0
  9 11  1  0
 11 12  2  0
 12 13  1  0
 13 14  2  0
 14 15  1  0
 15 16  1  0
 16 17  2  0
 16 18  2  0
 16 19  1  0
 19 20  1  0
 19 21  1  0
 21 22  2  0
 22 23  1  0
 23 24  2  0
 24 25  1  0
 25 26  2  0
 15 27  2  0
  7 28  1  0
 28 29  1  0
 29 30  1  0
 28 31  2  0
 31  4  1  0
 27 11  1  0
 26 21  1  0
  1 32  1  0
  1 33  1  0
  2 34  1  0
  3 35  1  0
  3 36  1  0
  5 37  1  0
  6 38  1  0
 12 39  1  0
 13 40  1  0
 14 41  1  0
 20 42  1  0
 20 43  1  0
 20 44  1  0
 22 45  1  0
 23 46  1  0
 24 47  1  0
 25 48  1  0
 26 49  1  0
 27 50  1  0
 30 51  1  0
 30 52  1  0
 30 53  1  0
 31 54  1  0
M  END
>  <UniqueID>  (58) 
53

>  <SMILES>  (58) 
C=CCc1ccc(OC(=O)c2cccc(S(=O)(=O)N(C)c3ccccc3)c2)c(OC)c1

>  <Energy>  (58) 
61.705187144772545

>  <Genealogy>  (58) 
C=CCc1ccc(OC(=O)c2cccc(S(=O)(=O)N(C)c3ccccc3)c2)c(OC)c1 (3D coordinates assigned)
C=CCc1ccc(OC(=O)c2cccc(S(=O)(=O)N(C)c3ccccc3)c2)c(OC)c1 (optimized conformer: 61.705187144772545 kcal/mol)

>  <smiles>  (58) 
C=CCc1ccc(OC(=O)c2cccc(S(=O)(=O)N(C)c3ccccc3)c2)c(OC)c1

>  <score_type>  (58) 
oracle

>  <origin>  (58) 
adg

>  <m_score__min__energy>  (58) 
-9.2599999999999998

>  <m_primary>  (58) 
energy

$$$$
58:0
     RDKit          3D

 36 37  0  0  0  0  0  0  0  0999 V2000
   57.3740   25.5800   44.5310 C   0  0  0  0  0  0  0  0  0  0  0  0
   56.3990   26.4050   45.7710 S   0  0  0  0  0  0  0  0  0  0  0  0
   57.1460   26.4610   47.0740 O   0  0  0  0  0  0  0  0  0  0  0  0
   55.1280   25.6320   45.9770 O   0  0  0  0  0  0  0  0  0  0  0  0
   55.9970   28.0080   45.2470 N   0  0  0  0  0  0  0  0  0  0  0  0
   56.8200   29.1730   45.4000 C   0  0  0  0  0  0  0  0  0  0  0  0
   57.7850   29.2840   46.4160 C   0  0  0  0  0  0  0  0  0  0  0  0
   58.5660   30.4390   46.5260 C   0  0  0  0  0  0  0  0  0  0  0  0
   58.4010   31.5020   45.6210 C   0  0  0  0  0  0  0  0  0  0  0  0
   59.2190   32.7350   45.7250 C   0  0  0  0  0  0  0  0  0  0  0  0
   58.7670   33.8150   45.2560 O   0  0  0  0  0  0  0  0  0  0  0  0
   60.5200   32.7160   46.3360 N   0  0  0  0  0  0  0  0  0  0  0  0
   61.3110   33.9290   46.5270 C   0  0  0  0  0  0  0  0  0  0  0  0
   62.2130   33.7820   47.7250 C   0  0  0  0  0  0  0  0  0  0  0  0
   61.7550   34.1870   48.9900 C   0  0  0  0  0  0  0  0  0  0  0  0
   62.5710   34.0430   50.1170 C   0  0  0  0  0  0  0  0  0  0  0  0
   63.8480   33.4930   49.9910 C   0  0  0  0  0  0  0  0  0  0  0  0
   64.3120   33.0850   48.7380 C   0  0  0  0  0  0  0  0  0  0  0  0
   63.5020   33.2250   47.6060 C   0  0  0  0  0  0  0  0  0  0  0  0
   63.9750   32.8190   46.4010 F   0  0  0  0  0  0  0  0  0  0  0  0
   57.4240   31.3920   44.6160 C   0  0  0  0  0  0  0  0  0  0  0  0
   56.6450   30.2350   44.5080 C   0  0  0  0  0  0  0  0  0  0  0  0
   58.1263   24.9434   45.0197 H   0  0  0  0  0  0  0  0  0  0  0  0
   56.7189   24.9578   43.9035 H   0  0  0  0  0  0  0  0  0  0  0  0
   57.8792   26.3290   43.9035 H   0  0  0  0  0  0  0  0  0  0  0  0
   57.9267   28.4580   47.1285 H   0  0  0  0  0  0  0  0  0  0  0  0
   59.3156   30.5163   47.3273 H   0  0  0  0  0  0  0  0  0  0  0  0
   60.9580   31.8060   46.6020 H   0  0  0  0  0  0  0  0  0  0  0  0
   61.9238   34.1074   45.6311 H   0  0  0  0  0  0  0  0  0  0  0  0
   60.6307   34.7773   46.6933 H   0  0  0  0  0  0  0  0  0  0  0  0
   60.7491   34.6197   49.0947 H   0  0  0  0  0  0  0  0  0  0  0  0
   62.2060   34.3636   51.1039 H   0  0  0  0  0  0  0  0  0  0  0  0
   64.4887   33.3809   50.8781 H   0  0  0  0  0  0  0  0  0  0  0  0
   65.3185   32.6518   48.6411 H   0  0  0  0  0  0  0  0  0  0  0  0
   57.2711   32.2214   43.9098 H   0  0  0  0  0  0  0  0  0  0  0  0
   55.8877   30.1602   43.7137 H   0  0  0  0  0  0  0  0  0  0  0  0
  1  2  1  0
  2  3  2  0
  2  4  2  0
  2  5  1  0
  5  6  1  0
  6  7  2  0
  7  8  1  0
  8  9  2  0
  9 10  1  0
 10 11  2  0
 10 12  1  0
 12 13  1  0
 13 14  1  0
 14 15  2  0
 15 16  1  0
 16 17  2  0
 17 18  1  0
 18 19  2  0
 19 20  1  0
  9 21  1  0
 21 22  2  0
 22  6  1  0
 19 14  1  0
  1 23  1  0
  1 24  1  0
  1 25  1  0
  7 26  1  0
  8 27  1  0
 12 28  1  0
 13 29  1  0
 13 30  1  0
 15 31  1  0
 16 32  1  0
 17 33  1  0
 18 34  1  0
 21 35  1  0
 22 36  1  0
M  CHG  1   5  -1
M  END
>  <UniqueID>  (59) 
54

>  <SMILES>  (59) 
CS(=O)(=O)[N-]c1ccc(C(=O)NCc2ccccc2F)cc1

>  <Energy>  (59) 
36.2327446443709

>  <Genealogy>  (59) 
CS(=O)(=O)[N-]c1ccc(C(=O)NCc2ccccc2F)cc1 (protonated)
CS(=O)(=O)[N-]c1ccc(C(=O)NCc2ccccc2F)cc1 (3D coordinates assigned)
CS(=O)(=O)[N-]c1ccc(C(=O)NCc2ccccc2F)cc1 (optimized conformer: 36.2327446443709 kcal/mol)

>  <smiles>  (59) 
CS(=O)(=O)Nc1ccc(C(=O)NCc2ccccc2F)cc1

>  <score_type>  (59) 
oracle

>  <origin>  (59) 
adg

>  <m_score__min__energy>  (59) 
-9.1899999999999995

>  <m_primary>  (59) 
energy

$$$$
59:0
     RDKit          3D

 45 48  0  0  0  0  0  0  0  0999 V2000
   57.9902   21.2000   44.0404 H   0  0  0  0  0  0  0  0  0  0  0  0
   57.0670   21.7310   43.7650 C   0  0  0  0  0  0  0  0  0  0  0  0
   56.2520   21.1860   42.9740 O   0  0  0  0  0  0  0  0  0  0  0  0
   56.8050   23.0680   44.3280 C   0  0  0  0  0  0  0  0  0  0  0  0
   55.6610   23.3170   45.1050 C   0  0  0  0  0  0  0  0  0  0  0  0
   54.9446   22.5054   45.3005 H   0  0  0  0  0  0  0  0  0  0  0  0
   55.4290   24.5920   45.6310 C   0  0  0  0  0  0  0  0  0  0  0  0
   54.5407   24.7750   46.2534 H   0  0  0  0  0  0  0  0  0  0  0  0
   56.3270   25.6400   45.3670 C   0  0  0  0  0  0  0  0  0  0  0  0
   56.1400   26.9430   45.9430 N   0  0  0  0  0  0  0  0  0  0  0  0
   57.0060   27.9150   46.0060 C   0  0  0  0  0  0  0  0  0  0  0  0
   56.6130   29.1610   45.6240 N   0  0  0  0  0  0  0  0  0  0  0  0
   57.4550   30.2240   45.6730 C   0  0  0  0  0  0  0  0  0  0  0  0
   57.0330   31.4510   45.2750 N   0  0  0  0  0  0  0  0  0  0  0  0
   57.8560   32.5320   45.3140 C   0  0  0  0  0  0  0  0  0  0  0  0
   57.2570   34.0920   44.7900 Cl  0  0  0  0  0  0  0  0  0  0  0  0
   59.1720   32.4020   45.7700 C   0  0  0  0  0  0  0  0  0  0  0  0
   59.8358   33.2787   45.7982 H   0  0  0  0  0  0  0  0  0  0  0  0
   59.6450   31.1410   46.1940 C   0  0  0  0  0  0  0  0  0  0  0  0
   60.8630   30.9590   46.6300 N   0  0  0  0  0  0  0  0  0  0  0  0
   61.4110   31.3260   47.9420 C   0  0  0  0  0  0  0  0  0  0  0  0
   61.1068   30.5781   48.6891 H   0  0  0  0  0  0  0  0  0  0  0  0
   62.9650   31.3360   47.9100 C   0  0  0  0  0  0  0  0  0  0  0  0
   63.3337   30.9564   48.8743 H   0  0  0  0  0  0  0  0  0  0  0  0
   63.2709   30.7047   47.0627 H   0  0  0  0  0  0  0  0  0  0  0  0
   63.5760   32.7310   47.6720 C   0  0  0  0  0  0  0  0  0  0  0  0
   63.6927   33.2398   48.6402 H   0  0  0  0  0  0  0  0  0  0  0  0
   64.5500   32.6010   47.1775 H   0  0  0  0  0  0  0  0  0  0  0  0
   62.6880   33.5860   46.7650 C   0  0  0  0  0  0  0  0  0  0  0  0
   63.1757   34.5587   46.6034 H   0  0  0  0  0  0  0  0  0  0  0  0
   62.5524   33.0494   45.8144 H   0  0  0  0  0  0  0  0  0  0  0  0
   61.2970   33.8220   47.3850 C   0  0  0  0  0  0  0  0  0  0  0  0
   61.3203   34.7700   47.9425 H   0  0  0  0  0  0  0  0  0  0  0  0
   60.5726   33.8432   46.5575 H   0  0  0  0  0  0  0  0  0  0  0  0
   60.8550   32.6990   48.3480 C   0  0  0  0  0  0  0  0  0  0  0  0
   61.2134   32.9400   49.3597 H   0  0  0  0  0  0  0  0  0  0  0  0
   59.7572   32.6398   48.3123 H   0  0  0  0  0  0  0  0  0  0  0  0
   58.7710   30.0440   46.1410 C   0  0  0  0  0  0  0  0  0  0  0  0
   59.1640   28.8050   46.5430 N   0  0  0  0  0  0  0  0  0  0  0  0
   58.3200   27.7420   46.4920 C   0  0  0  0  0  0  0  0  0  0  0  0
   58.6589   26.7509   46.8279 H   0  0  0  0  0  0  0  0  0  0  0  0
   57.4840   25.3820   44.6240 C   0  0  0  0  0  0  0  0  0  0  0  0
   58.2148   26.1863   44.4536 H   0  0  0  0  0  0  0  0  0  0  0  0
   57.7170   24.1090   44.0970 C   0  0  0  0  0  0  0  0  0  0  0  0
   58.6203   23.9220   43.4978 H   0  0  0  0  0  0  0  0  0  0  0  0
  1  2  1  0
  2  3  2  0
  2  4  1  0
  4  5  2  0
  5  6  1  0
  5  7  1  0
  7  8  1  0
  7  9  2  0
  9 10  1  0
 10 11  2  3
 11 12  1  0
 12 13  1  0
 13 14  1  0
 14 15  1  0
 15 16  1  0
 15 17  2  0
 17 18  1  0
 17 19  1  0
 19 20  2  0
 20 21  1  0
 21 22  1  0
 21 23  1  0
 23 24  1  0
 23 25  1  0
 23 26  1  0
 26 27  1  0
 26 28  1  0
 26 29  1  0
 29 30  1  0
 29 31  1  0
 29 32  1  0
 32 33  1  0
 32 34  1  0
 32 35  1  0
 35 36  1  0
 35 37  1  0
 19 38  1  0
 38 39  1  0
 39 40  2  0
 40 41  1  0
  9 42  1  0
 42 43  1  0
 42 44  2  0
 44 45  1  0
 44  4  1  0
 40 11  1  0
 38 13  2  0
 35 21  1  0
M  CHG  2  12  -1  14  -1
M  END
>  <UniqueID>  (60) 
55

>  <SMILES>  (60) 
O=Cc1ccc(N=c2cnc3/c(=N/C4CCCCC4)cc(Cl)[n-]c3[n-]2)cc1

>  <Energy>  (60) 
67.08446558116553

>  <Genealogy>  (60) 
O=Cc1ccc(N=c2cnc3c(=NC4CCCCC4)cc(Cl)[n-]c3[n-]2)cc1 (protonated)
O=Cc1ccc(N=c2cnc3/c(=N/C4CCCCC4)cc(Cl)[n-]c3[n-]2)cc1 (cis-trans isomerization)
O=Cc1ccc(N=c2cnc3/c(=N/C4CCCCC4)cc(Cl)[n-]c3[n-]2)cc1 (3D coordinates assigned)
O=Cc1ccc(N=c2cnc3/c(=N/C4CCCCC4)cc(Cl)[n-]c3[n-]2)cc1 (nonaromatic ring conformer: 67.08446558116553 kcal/mol)

>  <smiles>  (60) 
O=Cc1ccc(N=c2cnc3c(=NC4CCCCC4)cc(Cl)[nH]c3[nH]2)cc1

>  <score_type>  (60) 
oracle

>  <origin>  (60) 
adg

>  <m_score__min__energy>  (60) 
-11.710000000000001

>  <m_primary>  (60) 
energy

$$$$
60:0
     RDKit          3D

 58 60  0  0  0  0  0  0  0  0999 V2000
   58.1090   32.7000   41.1130 C   0  0  0  0  0  0  0  0  0  0  0  0
   57.2190   31.7080   41.8570 C   0  0  0  0  0  0  0  0  0  0  0  0
   57.6860   31.4930   43.2440 N   0  0  0  0  0  0  0  0  0  0  0  0
   57.4220   32.6740   44.0970 C   0  0  0  0  0  0  0  0  0  0  0  0
   58.4760   32.7760   45.2180 C   0  0  2  0  0  0  0  0  0  0  0  0
   57.8340   32.4990   46.6030 C   0  0  0  0  0  0  0  0  0  0  0  0
   58.4970   33.2980   47.7420 C   0  0  0  0  0  0  0  0  0  0  0  0
   59.9510   33.4540   47.5120 N   0  0  2  0  0  0  0  0  0  0  0  0
   60.6390   34.0070   48.6650 C   0  0  0  0  0  0  0  0  0  0  0  0
   60.0460   34.8870   49.3510 O   0  0  0  0  0  0  0  0  0  0  0  0
   62.0140   33.6000   49.0910 C   0  0  0  0  0  0  0  0  0  0  0  0
   62.4370   33.9020   50.3980 C   0  0  0  0  0  0  0  0  0  0  0  0
   63.7040   33.5190   50.8470 C   0  0  0  0  0  0  0  0  0  0  0  0
   64.5720   32.8140   50.0070 C   0  0  0  0  0  0  0  0  0  0  0  0
   65.8320   32.4490   50.5040 O   0  0  0  0  0  0  0  0  0  0  0  0
   67.0520   33.0980   50.1610 C   0  0  0  0  0  0  0  0  0  0  0  0
   64.1540   32.4970   48.7010 C   0  0  0  0  0  0  0  0  0  0  0  0
   62.8900   32.8840   48.2490 C   0  0  0  0  0  0  0  0  0  0  0  0
   60.2930   34.1980   46.2700 C   0  0  0  0  0  0  0  0  0  0  0  0
   59.1790   34.1460   45.2050 C   0  0  0  0  0  0  0  0  0  0  0  0
   56.9860   30.0430   43.9500 S   0  0  0  0  0  0  0  0  0  0  0  0
   56.5270   29.1070   42.8650 O   0  0  0  0  0  0  0  0  0  0  0  0
   55.7770   30.4210   44.7600 O   0  0  0  0  0  0  0  0  0  0  0  0
   58.1330   29.1780   44.9790 C   0  0  0  0  0  0  0  0  0  0  0  0
   59.5100   29.4290   44.8680 C   0  0  0  0  0  0  0  0  0  0  0  0
   60.4170   28.7480   45.6850 C   0  0  0  0  0  0  0  0  0  0  0  0
   59.9560   27.8130   46.6170 C   0  0  0  0  0  0  0  0  0  0  0  0
   58.5880   27.5550   46.7280 C   0  0  0  0  0  0  0  0  0  0  0  0
   57.6770   28.2330   45.9110 C   0  0  0  0  0  0  0  0  0  0  0  0
   58.6604   33.3146   41.8398 H   0  0  0  0  0  0  0  0  0  0  0  0
   58.8225   32.1504   40.4815 H   0  0  0  0  0  0  0  0  0  0  0  0
   57.4855   33.3500   40.4815 H   0  0  0  0  0  0  0  0  0  0  0  0
   56.1914   32.0997   41.8828 H   0  0  0  0  0  0  0  0  0  0  0  0
   57.2586   30.7449   41.3270 H   0  0  0  0  0  0  0  0  0  0  0  0
   57.4614   33.5832   43.4790 H   0  0  0  0  0  0  0  0  0  0  0  0
   56.4264   32.5687   44.5528 H   0  0  0  0  0  0  0  0  0  0  0  0
   59.2399   32.0071   45.0305 H   0  0  0  0  0  0  0  0  0  0  0  0
   56.7692   32.7711   46.5570 H   0  0  0  0  0  0  0  0  0  0  0  0
   57.9743   31.4306   46.8241 H   0  0  0  0  0  0  0  0  0  0  0  0
   58.0339   34.2942   47.7980 H   0  0  0  0  0  0  0  0  0  0  0  0
   58.3508   32.7482   48.6835 H   0  0  0  0  0  0  0  0  0  0  0  0
   60.3200   32.4790   47.3900 H   0  0  0  0  0  0  0  0  0  0  0  0
   61.7623   34.4463   51.0751 H   0  0  0  0  0  0  0  0  0  0  0  0
   64.0209   33.7741   51.8690 H   0  0  0  0  0  0  0  0  0  0  0  0
   67.5867   33.3825   51.0792 H   0  0  0  0  0  0  0  0  0  0  0  0
   67.6777   32.4135   49.5694 H   0  0  0  0  0  0  0  0  0  0  0  0
   66.8341   33.9994   49.5694 H   0  0  0  0  0  0  0  0  0  0  0  0
   64.8270   31.9409   48.0318 H   0  0  0  0  0  0  0  0  0  0  0  0
   62.5750   32.6278   47.2267 H   0  0  0  0  0  0  0  0  0  0  0  0
   60.4772   35.2503   46.5322 H   0  0  0  0  0  0  0  0  0  0  0  0
   61.1829   33.7186   45.8361 H   0  0  0  0  0  0  0  0  0  0  0  0
   58.4401   34.9329   45.4168 H   0  0  0  0  0  0  0  0  0  0  0  0
   59.6301   34.3023   44.2140 H   0  0  0  0  0  0  0  0  0  0  0  0
   59.8761   30.1638   44.1359 H   0  0  0  0  0  0  0  0  0  0  0  0
   61.4949   28.9479   45.5947 H   0  0  0  0  0  0  0  0  0  0  0  0
   60.6705   27.2810   47.2624 H   0  0  0  0  0  0  0  0  0  0  0  0
   58.2261   26.8172   47.4593 H   0  0  0  0  0  0  0  0  0  0  0  0
   56.6005   28.0249   45.9993 H   0  0  0  0  0  0  0  0  0  0  0  0
  1  2  1  0
  2  3  1  0
  3  4  1  0
  4  5  1  0
  5  6  1  0
  6  7  1  0
  7  8  1  0
  8  9  1  0
  9 10  2  0
  9 11  1  0
 11 12  2  0
 12 13  1  0
 13 14  2  0
 14 15  1  0
 15 16  1  0
 14 17  1  0
 17 18  2  0
  8 19  1  0
 19 20  1  0
  3 21  1  0
 21 22  2  0
 21 23  2  0
 21 24  1  0
 24 25  2  0
 25 26  1  0
 26 27  2  0
 27 28  1  0
 28 29  2  0
 20  5  1  0
 29 24  1  0
 18 11  1  0
  1 30  1  0
  1 31  1  0
  1 32  1  0
  2 33  1  0
  2 34  1  0
  4 35  1  0
  4 36  1  0
  5 37  1  6
  6 38  1  0
  6 39  1  0
  7 40  1  0
  7 41  1  0
  8 42  1  6
 12 43  1  0
 13 44  1  0
 16 45  1  0
 16 46  1  0
 16 47  1  0
 17 48  1  0
 18 49  1  0
 19 50  1  0
 19 51  1  0
 20 52  1  0
 20 53  1  0
 25 54  1  0
 26 55  1  0
 27 56  1  0
 28 57  1  0
 29 58  1  0
M  CHG  1   8   1
M  END
>  <UniqueID>  (61) 
56

>  <SMILES>  (61) 
CCN(CC1CC[NH+](C(=O)c2ccc(OC)cc2)CC1)S(=O)(=O)c1ccccc1

>  <Energy>  (61) 
72.62623004613447

>  <Genealogy>  (61) 
CCN(CC1CC[NH+](C(=O)c2ccc(OC)cc2)CC1)S(=O)(=O)c1ccccc1 (protonated)
CCN(CC1CC[NH+](C(=O)c2ccc(OC)cc2)CC1)S(=O)(=O)c1ccccc1 (3D coordinates assigned)
CCN(CC1CC[NH+](C(=O)c2ccc(OC)cc2)CC1)S(=O)(=O)c1ccccc1 (nonaromatic ring conformer: 72.62623004613447 kcal/mol)

>  <smiles>  (61) 
CCN(CC1CCN(C(=O)c2ccc(OC)cc2)CC1)S(=O)(=O)c1ccccc1

>  <score_type>  (61) 
oracle

>  <origin>  (61) 
adg

>  <m_score__min__energy>  (61) 
-8.3300000000000001

>  <m_primary>  (61) 
energy

$$$$
61:0
     RDKit          3D

 51 53  0  0  1  0  0  0  0  0999 V2000
   58.8950   34.8380   46.3610 C   0  0  0  0  0  0  0  0  0  0  0  0
   58.9800   34.8220   44.8720 C   0  0  0  0  0  0  0  0  0  0  0  0
   58.4340   33.5210   44.4250 C   0  0  0  0  0  0  0  0  0  0  0  0
   58.5190   32.7100   43.5670 N   0  0  0  0  0  0  0  0  0  0  0  0
   57.8980   31.6020   43.3960 N   0  0  0  0  0  0  0  0  0  0  0  0
   56.9910   31.2740   44.3260 C   0  0  0  0  0  0  0  0  0  0  0  0
   56.2150   30.3250   44.5120 N   0  0  0  0  0  0  0  0  0  0  0  0
   56.6960   29.0120   44.7940 C   0  0  0  0  0  0  0  0  0  0  0  0
   55.8900   28.1450   45.2570 O   0  0  0  0  0  0  0  0  0  0  0  0
   58.1370   28.6790   44.5390 C   0  0  0  0  0  0  0  0  0  0  0  0
   58.7620   28.3130   45.8670 C   0  0  0  0  0  0  0  0  0  0  0  0
   59.1750   29.5080   46.6310 C   0  0  0  0  0  0  0  0  0  0  0  0
   58.8990   29.5640   47.9750 C   0  0  0  0  0  0  0  0  0  0  0  0
   59.2600   30.6560   48.7460 C   0  0  0  0  0  0  0  0  0  0  0  0
   59.9160   31.7340   48.1740 C   0  0  0  0  0  0  0  0  0  0  0  0
   60.3420   33.0710   49.1800 S   0  0  0  0  0  0  0  0  0  0  0  0
   60.4670   32.7130   50.6340 O   0  0  0  0  0  0  0  0  0  0  0  0
   59.2770   34.1460   49.0840 O   0  0  0  0  0  0  0  0  0  0  0  0
   61.8320   33.7940   48.7020 N   0  0  0  0  0  0  0  0  0  0  0  0
   61.9310   33.9970   47.2950 C   0  0  0  0  0  0  0  0  0  0  0  0
   63.3570   33.7410   46.8590 C   0  0  0  0  0  0  0  0  0  0  0  0
   63.6270   32.2700   47.0960 C   0  0  0  0  0  0  0  0  0  0  0  0
   63.4700   31.9690   48.5720 C   0  0  0  0  0  0  0  0  0  0  0  0
   62.9430   33.1640   49.3330 C   0  0  0  0  0  0  0  0  0  0  0  0
   60.1840   31.6610   46.8220 C   0  0  0  0  0  0  0  0  0  0  0  0
   59.8330   30.5800   46.0380 C   0  0  0  0  0  0  0  0  0  0  0  0
   57.1110   32.7360   45.5010 S   0  0  0  0  0  0  0  0  0  0  0  0
   59.8916   34.6504   46.7872 H   0  0  0  0  0  0  0  0  0  0  0  0
   58.5315   35.8204   46.6970 H   0  0  0  0  0  0  0  0  0  0  0  0
   58.1992   34.0551   46.6970 H   0  0  0  0  0  0  0  0  0  0  0  0
   58.3865   35.6465   44.4502 H   0  0  0  0  0  0  0  0  0  0  0  0
   60.0193   34.9498   44.5352 H   0  0  0  0  0  0  0  0  0  0  0  0
   58.0720   30.9530   42.5660 H   0  0  0  0  0  0  0  0  0  0  0  0
   58.2087   27.8297   43.8436 H   0  0  0  0  0  0  0  0  0  0  0  0
   58.6586   29.5366   44.0890 H   0  0  0  0  0  0  0  0  0  0  0  0
   58.0290   27.7474   46.4609 H   0  0  0  0  0  0  0  0  0  0  0  0
   59.6601   27.7105   45.6659 H   0  0  0  0  0  0  0  0  0  0  0  0
   58.3781   28.7202   48.4510 H   0  0  0  0  0  0  0  0  0  0  0  0
   59.0243   30.6677   49.8204 H   0  0  0  0  0  0  0  0  0  0  0  0
   61.2558   33.3024   46.7738 H   0  0  0  0  0  0  0  0  0  0  0  0
   61.6469   35.0306   47.0480 H   0  0  0  0  0  0  0  0  0  0  0  0
   63.4762   33.9813   45.7922 H   0  0  0  0  0  0  0  0  0  0  0  0
   64.0621   34.3687   47.4236 H   0  0  0  0  0  0  0  0  0  0  0  0
   62.9111   31.6664   46.5188 H   0  0  0  0  0  0  0  0  0  0  0  0
   64.6499   32.0244   46.7744 H   0  0  0  0  0  0  0  0  0  0  0  0
   62.7671   31.1314   48.6923 H   0  0  0  0  0  0  0  0  0  0  0  0
   64.4602   31.7137   48.9773 H   0  0  0  0  0  0  0  0  0  0  0  0
   62.6318   32.8300   50.3338 H   0  0  0  0  0  0  0  0  0  0  0  0
   63.7548   33.9051   49.3746 H   0  0  0  0  0  0  0  0  0  0  0  0
   60.7029   32.5058   46.3455 H   0  0  0  0  0  0  0  0  0  0  0  0
   60.0696   30.5670   44.9638 H   0  0  0  0  0  0  0  0  0  0  0  0
  1  2  1  0
  2  3  1  0
  3  4  2  0
  4  5  1  0
  5  6  1  0
  6  7  2  0
  7  8  1  0
  8  9  2  0
  8 10  1  0
 10 11  1  0
 11 12  1  0
 12 13  2  0
 13 14  1  0
 14 15  2  0
 15 16  1  0
 16 17  2  0
 16 18  2  0
 16 19  1  0
 19 20  1  0
 20 21  1  0
 21 22  1  0
 22 23  1  0
 23 24  1  0
 15 25  1  0
 25 26  2  0
  6 27  1  0
 27  3  1  0
 26 12  1  0
 24 19  1  0
  1 28  1  0
  1 29  1  0
  1 30  1  0
  2 31  1  0
  2 32  1  0
  5 33  1  0
 10 34  1  0
 10 35  1  0
 11 36  1  0
 11 37  1  0
 13 38  1  0
 14 39  1  0
 20 40  1  0
 20 41  1  0
 21 42  1  0
 21 43  1  0
 22 44  1  0
 22 45  1  0
 23 46  1  0
 23 47  1  0
 24 48  1  0
 24 49  1  0
 25 50  1  0
 26 51  1  0
M  END
>  <smiles>  (62) 
CCc1n[nH]c(=NC(=O)CCc2ccc(S(=O)(=O)N3CCCCC3)cc2)s1

>  <score_type>  (62) 
oracle

>  <origin>  (62) 
adg

>  <m_score__min__energy>  (62) 
-10

>  <m_primary>  (62) 
energy

$$$$
62:0
     RDKit          3D

 63 67  0  0  0  0  0  0  0  0999 V2000
   60.0680   32.6940   50.3400 O   0  0  0  0  0  0  0  0  0  0  0  0
   60.8120   32.8600   49.3380 C   0  0  0  0  0  0  0  0  0  0  0  0
   61.4060   34.2180   49.0800 C   0  0  0  0  0  0  0  0  0  0  0  0
   62.8790   34.2010   48.9390 N   0  0  0  0  0  0  0  0  0  0  0  0
   63.5800   33.2710   49.8540 C   0  0  0  0  0  0  0  0  0  0  0  0
   64.2820   32.1280   49.1090 C   0  0  0  0  0  0  0  0  0  0  0  0
   63.5460   31.7780   47.9600 O   0  0  0  0  0  0  0  0  0  0  0  0
   63.6780   32.7990   46.9890 C   0  0  0  0  0  0  0  0  0  0  0  0
   63.3750   34.2120   47.5440 C   0  0  0  0  0  0  0  0  0  0  0  0
   61.0990   31.7590   48.4580 N   0  0  0  0  0  0  0  0  0  0  0  0
   60.8710   30.3810   48.8090 C   0  0  0  0  0  0  0  0  0  0  0  0
   61.0170   29.9700   50.1430 C   0  0  0  0  0  0  0  0  0  0  0  0
   60.8120   28.6320   50.4950 C   0  0  0  0  0  0  0  0  0  0  0  0
   60.4680   27.6910   49.5180 C   0  0  0  0  0  0  0  0  0  0  0  0
   60.3170   28.0850   48.1790 C   0  0  0  0  0  0  0  0  0  0  0  0
   59.9940   27.0870   47.1300 C   0  0  0  0  0  0  0  0  0  0  0  0
   60.9230   26.4120   46.6100 O   0  0  0  0  0  0  0  0  0  0  0  0
   58.5980   26.8600   46.6820 C   0  0  0  0  0  0  0  0  0  0  0  0
   57.9440   25.6540   46.9790 C   0  0  0  0  0  0  0  0  0  0  0  0
   56.6090   25.4660   46.6090 C   0  0  0  0  0  0  0  0  0  0  0  0
   55.9150   26.4780   45.9410 C   0  0  0  0  0  0  0  0  0  0  0  0
   56.5600   27.6850   45.6270 C   0  0  0  0  0  0  0  0  0  0  0  0
   55.8840   28.7410   44.9290 N   0  0  0  0  0  0  0  0  0  0  0  0
   56.4080   29.4980   43.8290 C   0  0  0  0  0  0  0  0  0  0  0  0
   56.3060   29.0190   42.6690 O   0  0  0  0  0  0  0  0  0  0  0  0
   57.1270   30.7810   44.0260 C   0  0  0  0  0  0  0  0  0  0  0  0
   57.4930   31.5760   42.9270 C   0  0  0  0  0  0  0  0  0  0  0  0
   58.1450   32.7980   43.1150 C   0  0  0  0  0  0  0  0  0  0  0  0
   58.4320   33.2510   44.4080 C   0  0  0  0  0  0  0  0  0  0  0  0
   59.0840   34.4770   44.6090 C   0  0  0  0  0  0  0  0  0  0  0  0
   59.3620   34.9200   45.9040 C   0  0  0  0  0  0  0  0  0  0  0  0
   58.9910   34.1450   47.0080 C   0  0  0  0  0  0  0  0  0  0  0  0
   58.3430   32.9230   46.8230 C   0  0  0  0  0  0  0  0  0  0  0  0
   58.0580   32.4650   45.5250 C   0  0  0  0  0  0  0  0  0  0  0  0
   57.4040   31.2400   45.3250 C   0  0  0  0  0  0  0  0  0  0  0  0
   57.9050   27.8570   45.9720 C   0  0  0  0  0  0  0  0  0  0  0  0
   60.4730   29.4410   47.8450 C   0  0  0  0  0  0  0  0  0  0  0  0
   60.9719   34.6172   48.1514 H   0  0  0  0  0  0  0  0  0  0  0  0
   61.1718   34.8447   49.9531 H   0  0  0  0  0  0  0  0  0  0  0  0
   64.3334   33.8365   50.4220 H   0  0  0  0  0  0  0  0  0  0  0  0
   62.8249   32.8228   50.5165 H   0  0  0  0  0  0  0  0  0  0  0  0
   65.2900   32.4523   48.8111 H   0  0  0  0  0  0  0  0  0  0  0  0
   64.3523   31.2538   49.7729 H   0  0  0  0  0  0  0  0  0  0  0  0
   64.7096   32.7872   46.6074 H   0  0  0  0  0  0  0  0  0  0  0  0
   62.9420   32.5942   46.1975 H   0  0  0  0  0  0  0  0  0  0  0  0
   64.2995   34.8069   47.5072 H   0  0  0  0  0  0  0  0  0  0  0  0
   62.5787   34.6428   46.9192 H   0  0  0  0  0  0  0  0  0  0  0  0
   61.4360   31.9730   47.4930 H   0  0  0  0  0  0  0  0  0  0  0  0
   61.2938   30.7032   50.9149 H   0  0  0  0  0  0  0  0  0  0  0  0
   60.9216   28.3182   51.5436 H   0  0  0  0  0  0  0  0  0  0  0  0
   60.3154   26.6388   49.8002 H   0  0  0  0  0  0  0  0  0  0  0  0
   58.4843   24.8533   47.5052 H   0  0  0  0  0  0  0  0  0  0  0  0
   56.1032   24.5180   46.8446 H   0  0  0  0  0  0  0  0  0  0  0  0
   54.8618   26.3290   45.6607 H   0  0  0  0  0  0  0  0  0  0  0  0
   57.2639   31.2330   41.9073 H   0  0  0  0  0  0  0  0  0  0  0  0
   58.4334   33.4054   42.2444 H   0  0  0  0  0  0  0  0  0  0  0  0
   59.3769   35.0908   43.7445 H   0  0  0  0  0  0  0  0  0  0  0  0
   59.8743   35.8814   46.0564 H   0  0  0  0  0  0  0  0  0  0  0  0
   59.2109   34.5002   48.0256 H   0  0  0  0  0  0  0  0  0  0  0  0
   58.0547   32.3170   47.6946 H   0  0  0  0  0  0  0  0  0  0  0  0
   57.1054   30.6334   46.1927 H   0  0  0  0  0  0  0  0  0  0  0  0
   58.4262   28.7821   45.6848 H   0  0  0  0  0  0  0  0  0  0  0  0
   60.2805   29.7708   46.8134 H   0  0  0  0  0  0  0  0  0  0  0  0
  1  2  2  0
  2  3  1  0
  3  4  1  0
  4  5  1  0
  5  6  1  0
  6  7  1  0
  7  8  1  0
  8  9  1  0
  2 10  1  0
 10 11  1  0
 11 12  2  0
 12 13  1  0
 13 14  2  0
 14 15  1  0
 15 16  1  0
 16 17  2  0
 16 18  1  0
 18 19  2  0
 19 20  1  0
 20 21  2  0
 21 22  1  0
 22 23  1  0
 23 24  1  0
 24 25  2  0
 24 26  1  0
 26 27  2  0
 27 28  1  0
 28 29  2  0
 29 30  1  0
 30 31  2  0
 31 32  1  0
 32 33  2  0
 33 34  1  0
 34 35  2  0
 22 36  2  0
 15 37  2  0
  9  4  1  0
 37 11  1  0
 36 18  1  0
 35 26  1  0
 34 29  1  0
  3 38  1  0
  3 39  1  0
  5 40  1  0
  5 41  1  0
  6 42  1  0
  6 43  1  0
  8 44  1  0
  8 45  1  0
  9 46  1  0
  9 47  1  0
 10 48  1  0
 12 49  1  0
 13 50  1  0
 14 51  1  0
 19 52  1  0
 20 53  1  0
 21 54  1  0
 27 55  1  0
 28 56  1  0
 30 57  1  0
 31 58  1  0
 32 59  1  0
 33 60  1  0
 35 61  1  0
 36 62  1  0
 37 63  1  0
M  CHG  1  23  -1
M  END
>  <UniqueID>  (63) 
57

>  <SMILES>  (63) 
O=C(CN1CCOCC1)Nc1cccc(C(=O)c2cccc([N-]C(=O)c3ccc4ccccc4c3)c2)c1

>  <Energy>  (63) 
100.86459218609092

>  <Genealogy>  (63) 
O=C(CN1CCOCC1)Nc1cccc(C(=O)c2cccc([N-]C(=O)c3ccc4ccccc4c3)c2)c1 (protonated)
O=C(CN1CCOCC1)Nc1cccc(C(=O)c2cccc([N-]C(=O)c3ccc4ccccc4c3)c2)c1 (3D coordinates assigned)
O=C(CN1CCOCC1)Nc1cccc(C(=O)c2cccc([N-]C(=O)c3ccc4ccccc4c3)c2)c1 (nonaromatic ring conformer: 100.86459218609092 kcal/mol)

>  <smiles>  (63) 
O=C(CN1CCOCC1)Nc1cccc(C(=O)c2cccc(NC(=O)c3ccc4ccccc4c3)c2)c1

>  <score_type>  (63) 
oracle

>  <origin>  (63) 
adg

>  <m_score__min__energy>  (63) 
-12.710000000000001

>  <m_primary>  (63) 
energy

$$$$
63:0
     RDKit          3D

 48 51  0  0  0  0  0  0  0  0999 V2000
   58.2157   34.3951   47.9661 H   0  0  0  0  0  0  0  0  0  0  0  0
   58.9100   33.8390   47.3190 C   0  0  0  0  0  0  0  0  0  0  0  0
   60.1890   34.2450   47.2850 C   0  0  0  0  0  0  0  0  0  0  0  0
   60.3747   35.3286   47.2474 H   0  0  0  0  0  0  0  0  0  0  0  0
   61.3700   33.3520   47.2940 C   0  0  0  0  0  0  0  0  0  0  0  0
   62.6740   33.8560   47.1400 C   0  0  0  0  0  0  0  0  0  0  0  0
   62.8400   34.9370   47.0220 H   0  0  0  0  0  0  0  0  0  0  0  0
   63.7560   32.9740   47.1380 C   0  0  0  0  0  0  0  0  0  0  0  0
   64.7808   33.3597   47.0332 H   0  0  0  0  0  0  0  0  0  0  0  0
   63.5360   31.6040   47.2690 C   0  0  0  0  0  0  0  0  0  0  0  0
   64.3835   30.9027   47.2753 H   0  0  0  0  0  0  0  0  0  0  0  0
   62.2290   31.1320   47.3920 C   0  0  0  0  0  0  0  0  0  0  0  0
   62.0433   30.0522   47.4894 H   0  0  0  0  0  0  0  0  0  0  0  0
   61.1820   32.0030   47.3920 N   0  0  0  0  0  0  0  0  0  0  0  0
   60.2150   31.6180   47.4850 H   0  0  0  0  0  0  0  0  0  0  0  0
   58.3680   32.7030   46.5530 C   0  0  0  0  0  0  0  0  0  0  0  0
   58.6530   31.4440   46.9800 N   0  0  0  0  0  0  0  0  0  0  0  0
   58.1850   30.3460   46.3290 C   0  0  0  0  0  0  0  0  0  0  0  0
   58.5180   29.1650   46.7590 N   0  0  0  0  0  0  0  0  0  0  0  0
   58.0880   27.8990   46.2300 C   0  0  0  0  0  0  0  0  0  0  0  0
   58.1650   27.6880   44.8490 C   0  0  0  0  0  0  0  0  0  0  0  0
   58.5276   28.4936   44.1936 H   0  0  0  0  0  0  0  0  0  0  0  0
   57.7850   26.4620   44.2950 C   0  0  0  0  0  0  0  0  0  0  0  0
   57.8348   26.3156   43.2059 H   0  0  0  0  0  0  0  0  0  0  0  0
   57.3400   25.4160   45.1200 C   0  0  0  0  0  0  0  0  0  0  0  0
   56.9560   24.1530   44.5450 N   0  0  0  0  0  0  0  0  0  0  0  0
   55.7170   24.0490   43.7680 C   0  0  0  0  0  0  0  0  0  0  0  0
   54.8782   23.8291   44.4448 H   0  0  0  0  0  0  0  0  0  0  0  0
   55.5319   25.0004   43.2479 H   0  0  0  0  0  0  0  0  0  0  0  0
   55.8480   22.9240   42.7370 C   0  0  0  0  0  0  0  0  0  0  0  0
   54.8754   22.7683   42.2473 H   0  0  0  0  0  0  0  0  0  0  0  0
   56.6079   23.2116   41.9955 H   0  0  0  0  0  0  0  0  0  0  0  0
   56.2530   21.7190   43.3580 O   0  0  0  0  0  0  0  0  0  0  0  0
   57.5560   21.8680   43.8920 C   0  0  0  0  0  0  0  0  0  0  0  0
   57.8948   20.9006   44.2911 H   0  0  0  0  0  0  0  0  0  0  0  0
   58.2282   22.2087   43.0907 H   0  0  0  0  0  0  0  0  0  0  0  0
   57.5680   22.9070   45.0170 C   0  0  0  0  0  0  0  0  0  0  0  0
   56.9987   22.5224   45.8761 H   0  0  0  0  0  0  0  0  0  0  0  0
   58.6069   23.1034   45.3206 H   0  0  0  0  0  0  0  0  0  0  0  0
   57.2990   25.6150   46.5110 C   0  0  0  0  0  0  0  0  0  0  0  0
   56.9672   24.7990   47.1699 H   0  0  0  0  0  0  0  0  0  0  0  0
   57.6770   26.8430   47.0630 C   0  0  0  0  0  0  0  0  0  0  0  0
   57.6528   26.9837   48.1537 H   0  0  0  0  0  0  0  0  0  0  0  0
   57.4190   30.5050   45.2150 N   0  0  0  0  0  0  0  0  0  0  0  0
   57.0870   31.7390   44.7600 C   0  0  0  0  0  0  0  0  0  0  0  0
   56.4561   31.8426   43.8648 H   0  0  0  0  0  0  0  0  0  0  0  0
   57.5440   32.8770   45.4250 C   0  0  0  0  0  0  0  0  0  0  0  0
   57.0210   34.4620   44.8690 Cl  0  0  0  0  0  0  0  0  0  0  0  0
  1  2  1  0
  2  3  2  0
  3  4  1  0
  3  5  1  0
  5  6  2  0
  6  7  1  0
  6  8  1  0
  8  9  1  0
  8 10  2  0
 10 11  1  0
 10 12  1  0
 12 13  1  0
 12 14  2  0
 14 15  1  0
  2 16  1  0
 16 17  1  0
 17 18  1  0
 18 19  2  0
 19 20  1  0
 20 21  2  0
 21 22  1  0
 21 23  1  0
 23 24  1  0
 23 25  2  0
 25 26  1  0
 26 27  1  0
 27 28  1  0
 27 29  1  0
 27 30  1  0
 30 31  1  0
 30 32  1  0
 30 33  1  0
 33 34  1  0
 34 35  1  0
 34 36  1  0
 34 37  1  0
 37 38  1  0
 37 39  1  0
 25 40  1  0
 40 41  1  0
 40 42  2  0
 42 43  1  0
 18 44  1  0
 44 45  2  0
 45 46  1  0
 45 47  1  0
 47 48  1  0
 14  5  1  0
 47 16  2  0
 42 20  1  0
 37 26  1  0
M  CHG  2  14   1  17  -1
M  END
>  <UniqueID>  (64) 
58

>  <SMILES>  (64) 
Clc1cn/c(=N\c2ccc(N3CCOCC3)cc2)[n-]c1/C=C\c1cccc[nH+]1

>  <Energy>  (64) 
75.92042910000785

>  <Genealogy>  (64) 
Clc1cnc(=Nc2ccc(N3CCOCC3)cc2)[n-]c1C=Cc1cccc[nH+]1 (protonated)
Clc1cn/c(=N\c2ccc(N3CCOCC3)cc2)[n-]c1/C=C\c1cccc[nH+]1 (cis-trans isomerization)
Clc1cn/c(=N\c2ccc(N3CCOCC3)cc2)[n-]c1/C=C\c1cccc[nH+]1 (3D coordinates assigned)
Clc1cn/c(=N\c2ccc(N3CCOCC3)cc2)[n-]c1/C=C\c1cccc[nH+]1 (nonaromatic ring conformer: 75.92042910000785 kcal/mol)

>  <smiles>  (64) 
Clc1cnc(=Nc2ccc(N3CCOCC3)cc2)[nH]c1C=Cc1ccccn1

>  <score_type>  (64) 
oracle

>  <origin>  (64) 
adg

>  <m_score__min__energy>  (64) 
-8.4299999999999997

>  <m_primary>  (64) 
energy

$$$$
64:0
     RDKit          3D

 45 48  0  0  0  0  0  0  0  0999 V2000
   65.2530   32.7870   49.3860 C   0  0  0  0  0  0  0  0  0  0  0  0
   63.8170   32.5860   49.0040 C   0  0  0  0  0  0  0  0  0  0  0  0
   63.0490   31.6040   49.6410 C   0  0  0  0  0  0  0  0  0  0  0  0
   61.7240   31.3850   49.2600 C   0  0  0  0  0  0  0  0  0  0  0  0
   61.1340   32.1470   48.2260 C   0  0  0  0  0  0  0  0  0  0  0  0
   59.8060   31.9140   47.7960 C   0  0  0  0  0  0  0  0  0  0  0  0
   59.1950   30.8530   48.2670 N   0  0  0  0  0  0  0  0  0  0  0  0
   58.7800   29.6490   47.6070 C   0  0  0  0  0  0  0  0  0  0  0  0
   59.1450   28.3910   48.1060 C   0  0  0  0  0  0  0  0  0  0  0  0
   58.6880   27.2290   47.4810 C   0  0  0  0  0  0  0  0  0  0  0  0
   57.8470   27.3000   46.3620 C   0  0  0  0  0  0  0  0  0  0  0  0
   57.4240   26.0650   45.7630 N   0  0  0  0  0  0  0  0  0  0  0  0
   55.8890   25.2790   45.9450 S   0  0  0  0  0  0  0  0  0  0  0  0
   55.6250   24.1180   44.6190 C   0  0  0  0  0  0  0  0  0  0  0  0
   54.7840   26.2970   45.9920 O   0  0  0  0  0  0  0  0  0  0  0  0
   55.8960   24.5160   47.2390 O   0  0  0  0  0  0  0  0  0  0  0  0
   57.4320   28.5690   45.8990 C   0  0  0  0  0  0  0  0  0  0  0  0
   56.5530   28.7030   44.8780 F   0  0  0  0  0  0  0  0  0  0  0  0
   57.8940   29.7300   46.5280 C   0  0  0  0  0  0  0  0  0  0  0  0
   59.2320   32.8140   46.8430 C   0  0  0  0  0  0  0  0  0  0  0  0
   57.8410   32.9080   46.5960 C   0  0  0  0  0  0  0  0  0  0  0  0
   57.3430   33.7720   45.6180 C   0  0  0  0  0  0  0  0  0  0  0  0
   58.2070   34.5930   44.9020 C   0  0  0  0  0  0  0  0  0  0  0  0
   59.5690   34.5960   45.1970 C   0  0  0  0  0  0  0  0  0  0  0  0
   60.0840   33.7430   46.1890 C   0  0  0  0  0  0  0  0  0  0  0  0
   61.3930   33.8500   46.5470 N   0  0  0  0  0  0  0  0  0  0  0  0
   61.9190   33.1230   47.5690 C   0  0  0  0  0  0  0  0  0  0  0  0
   63.2540   33.3280   47.9570 C   0  0  0  0  0  0  0  0  0  0  0  0
   65.3425   32.7995   50.4823 H   0  0  0  0  0  0  0  0  0  0  0  0
   65.8595   31.9650   48.9780 H   0  0  0  0  0  0  0  0  0  0  0  0
   65.6105   33.7439   48.9780 H   0  0  0  0  0  0  0  0  0  0  0  0
   63.4925   31.0010   50.4470 H   0  0  0  0  0  0  0  0  0  0  0  0
   61.1324   30.6106   49.7702 H   0  0  0  0  0  0  0  0  0  0  0  0
   59.7929   28.3190   48.9920 H   0  0  0  0  0  0  0  0  0  0  0  0
   58.9916   26.2464   47.8714 H   0  0  0  0  0  0  0  0  0  0  0  0
   55.3996   23.1267   45.0391 H   0  0  0  0  0  0  0  0  0  0  0  0
   54.7804   24.4545   43.9997 H   0  0  0  0  0  0  0  0  0  0  0  0
   56.5320   24.0562   43.9997 H   0  0  0  0  0  0  0  0  0  0  0  0
   57.5577   30.7146   46.1710 H   0  0  0  0  0  0  0  0  0  0  0  0
   57.1430   32.2922   47.1823 H   0  0  0  0  0  0  0  0  0  0  0  0
   56.2626   33.8030   45.4134 H   0  0  0  0  0  0  0  0  0  0  0  0
   57.8156   35.2399   44.1030 H   0  0  0  0  0  0  0  0  0  0  0  0
   60.2452   35.2698   44.6505 H   0  0  0  0  0  0  0  0  0  0  0  0
   61.9990   34.5490   46.0570 H   0  0  0  0  0  0  0  0  0  0  0  0
   63.8636   34.0790   47.4332 H   0  0  0  0  0  0  0  0  0  0  0  0
  1  2  1  0
  2  3  2  0
  3  4  1  0
  4  5  2  0
  5  6  1  0
  6  7  2  3
  7  8  1  0
  8  9  2  0
  9 10  1  0
 10 11  2  0
 11 12  1  0
 12 13  1  0
 13 14  1  0
 13 15  2  0
 13 16  2  0
 11 17  1  0
 17 18  1  0
 17 19  2  0
  6 20  1  0
 20 21  2  0
 21 22  1  0
 22 23  2  0
 23 24  1  0
 24 25  2  0
 25 26  1  0
 26 27  1  0
 27 28  2  0
 28  2  1  0
 27  5  1  0
 19  8  1  0
 25 20  1  0
  1 29  1  0
  1 30  1  0
  1 31  1  0
  3 32  1  0
  4 33  1  0
  9 34  1  0
 10 35  1  0
 14 36  1  0
 14 37  1  0
 14 38  1  0
 19 39  1  0
 21 40  1  0
 22 41  1  0
 23 42  1  0
 24 43  1  0
 26 44  1  0
 28 45  1  0
M  CHG  1  12  -1
M  END
>  <UniqueID>  (65) 
59

>  <SMILES>  (65) 
Cc1ccc2c(=Nc3ccc([N-]S(C)(=O)=O)c(F)c3)c3ccccc3[nH]c2c1

>  <Energy>  (65) 
79.84177977221817

>  <Genealogy>  (65) 
Cc1ccc2c(=Nc3ccc([N-]S(C)(=O)=O)c(F)c3)c3ccccc3[nH]c2c1 (protonated)
Cc1ccc2c(=Nc3ccc([N-]S(C)(=O)=O)c(F)c3)c3ccccc3[nH]c2c1 (3D coordinates assigned)
Cc1ccc2c(=Nc3ccc([N-]S(C)(=O)=O)c(F)c3)c3ccccc3[nH]c2c1 (optimized conformer: 79.84177977221817 kcal/mol)

>  <smiles>  (65) 
Cc1ccc2c(=Nc3ccc(NS(C)(=O)=O)c(F)c3)c3ccccc3[nH]c2c1

>  <score_type>  (65) 
oracle

>  <origin>  (65) 
adg

>  <m_score__min__energy>  (65) 
-10.66

>  <m_primary>  (65) 
energy

$$$$
65:0
     RDKit          3D

 37 39  0  0  0  0  0  0  0  0999 V2000
   54.5490   29.3410   43.6490 O   0  0  0  0  0  0  0  0  0  0  0  0
   55.7060   29.5230   44.1090 C   0  0  0  0  0  0  0  0  0  0  0  0
   56.6560   30.4520   43.4080 C   0  0  0  0  0  0  0  0  0  0  0  0
   57.7160   30.9530   44.3090 N   0  0  0  0  0  0  0  0  0  0  0  0
   57.2220   32.0400   45.1850 C   0  0  0  0  0  0  0  0  0  0  0  0
   58.3190   33.0260   45.4960 C   0  0  0  0  0  0  0  0  0  0  0  0
   58.2500   34.3320   44.9920 C   0  0  0  0  0  0  0  0  0  0  0  0
   59.2760   35.2420   45.2530 C   0  0  0  0  0  0  0  0  0  0  0  0
   60.3800   34.8560   46.0170 C   0  0  0  0  0  0  0  0  0  0  0  0
   60.4710   33.5490   46.5290 C   0  0  0  0  0  0  0  0  0  0  0  0
   61.6470   33.1340   47.3350 C   0  0  0  0  0  0  0  0  0  0  0  0
   62.9280   33.6360   47.0430 C   0  0  0  0  0  0  0  0  0  0  0  0
   64.0340   33.2440   47.8040 C   0  0  0  0  0  0  0  0  0  0  0  0
   63.8740   32.3500   48.8640 C   0  0  0  0  0  0  0  0  0  0  0  0
   62.6060   31.8430   49.1670 C   0  0  0  0  0  0  0  0  0  0  0  0
   62.4050   30.7240   50.5020 Cl  0  0  0  0  0  0  0  0  0  0  0  0
   61.4960   32.2330   48.4060 C   0  0  0  0  0  0  0  0  0  0  0  0
   59.4310   32.6380   46.2610 C   0  0  0  0  0  0  0  0  0  0  0  0
   58.3650   29.8390   45.0420 C   0  0  0  0  0  0  0  0  0  0  0  0
   57.3840   29.0730   45.9440 C   0  0  0  0  0  0  0  0  0  0  0  0
   56.1460   28.7660   45.2380 N   0  0  0  0  0  0  0  0  0  0  0  0
   57.1269   29.9128   42.5728 H   0  0  0  0  0  0  0  0  0  0  0  0
   56.0792   31.3182   43.0516 H   0  0  0  0  0  0  0  0  0  0  0  0
   56.3999   32.5654   44.6770 H   0  0  0  0  0  0  0  0  0  0  0  0
   56.8721   31.5968   46.1290 H   0  0  0  0  0  0  0  0  0  0  0  0
   57.3839   34.6412   44.3884 H   0  0  0  0  0  0  0  0  0  0  0  0
   59.2149   36.2660   44.8559 H   0  0  0  0  0  0  0  0  0  0  0  0
   61.1837   35.5792   46.2196 H   0  0  0  0  0  0  0  0  0  0  0  0
   63.0609   34.3421   46.2100 H   0  0  0  0  0  0  0  0  0  0  0  0
   65.0320   33.6410   47.5667 H   0  0  0  0  0  0  0  0  0  0  0  0
   64.7455   32.0440   49.4614 H   0  0  0  0  0  0  0  0  0  0  0  0
   60.5002   31.8326   48.6470 H   0  0  0  0  0  0  0  0  0  0  0  0
   59.4902   31.6126   46.6547 H   0  0  0  0  0  0  0  0  0  0  0  0
   58.7918   29.1373   44.3102 H   0  0  0  0  0  0  0  0  0  0  0  0
   59.1415   30.2737   45.6886 H   0  0  0  0  0  0  0  0  0  0  0  0
   57.8544   28.1330   46.2682 H   0  0  0  0  0  0  0  0  0  0  0  0
   57.1422   29.7058   46.8107 H   0  0  0  0  0  0  0  0  0  0  0  0
  1  2  2  0
  2  3  1  0
  3  4  1  0
  4  5  1  0
  5  6  1  0
  6  7  2  0
  7  8  1  0
  8  9  2  0
  9 10  1  0
 10 11  1  0
 11 12  2  0
 12 13  1  0
 13 14  2  0
 14 15  1  0
 15 16  1  0
 15 17  2  0
 10 18  2  0
  4 19  1  0
 19 20  1  0
 20 21  1  0
 21  2  1  0
 18  6  1  0
 17 11  1  0
  3 22  1  0
  3 23  1  0
  5 24  1  0
  5 25  1  0
  7 26  1  0
  8 27  1  0
  9 28  1  0
 12 29  1  0
 13 30  1  0
 14 31  1  0
 17 32  1  0
 18 33  1  0
 19 34  1  0
 19 35  1  0
 20 36  1  0
 20 37  1  0
M  CHG  1  21  -1
M  END
>  <UniqueID>  (66) 
60

>  <SMILES>  (66) 
O=C1CN(Cc2cccc(-c3cccc(Cl)c3)c2)CC[N-]1

>  <Energy>  (66) 
48.513024906093015

>  <Genealogy>  (66) 
O=C1CN(Cc2cccc(-c3cccc(Cl)c3)c2)CC[N-]1 (protonated)
O=C1CN(Cc2cccc(-c3cccc(Cl)c3)c2)CC[N-]1 (3D coordinates assigned)
O=C1CN(Cc2cccc(-c3cccc(Cl)c3)c2)CC[N-]1 (nonaromatic ring conformer: 48.513024906093015 kcal/mol)

>  <smiles>  (66) 
O=C1CN(Cc2cccc(-c3cccc(Cl)c3)c2)CCN1

>  <score_type>  (66) 
oracle

>  <origin>  (66) 
adg

>  <m_score__min__energy>  (66) 
-9.9600000000000009

>  <m_primary>  (66) 
energy

$$$$
66:0
     RDKit          3D

 33 35  0  0  0  0  0  0  0  0999 V2000
   58.0260   23.4130   47.1020 O   0  0  0  0  0  0  0  0  0  0  0  0
   56.8070   23.7310   47.0570 C   0  0  0  0  0  0  0  0  0  0  0  0
   55.8010   22.8110   47.4940 N   0  0  0  0  0  0  0  0  0  0  0  0
   55.1540   21.8450   46.6130 C   0  0  0  0  0  0  0  0  0  0  0  0
   55.7030   21.9640   45.2220 C   0  0  0  0  0  0  0  0  0  0  0  0
   56.6910   21.0830   44.7570 C   0  0  0  0  0  0  0  0  0  0  0  0
   57.1600   21.2100   43.4480 C   0  0  0  0  0  0  0  0  0  0  0  0
   56.6440   22.2060   42.6170 C   0  0  0  0  0  0  0  0  0  0  0  0
   55.6570   23.0620   43.1110 C   0  0  0  0  0  0  0  0  0  0  0  0
   55.2110   22.9240   44.3880 N   0  0  0  0  0  0  0  0  0  0  0  0
   56.4190   25.0530   46.5480 C   0  0  0  0  0  0  0  0  0  0  0  0
   57.2770   26.0700   46.1870 C   0  0  0  0  0  0  0  0  0  0  0  0
   56.4330   27.0890   45.7780 C   0  0  0  0  0  0  0  0  0  0  0  0
   56.8270   28.4310   45.2810 C   0  0  0  0  0  0  0  0  0  0  0  0
   55.8930   29.2830   44.6610 C   0  0  0  0  0  0  0  0  0  0  0  0
   56.2830   30.5450   44.2000 C   0  0  0  0  0  0  0  0  0  0  0  0
   57.6050   30.9710   44.3520 C   0  0  0  0  0  0  0  0  0  0  0  0
   58.0900   32.5540   43.7720 Cl  0  0  0  0  0  0  0  0  0  0  0  0
   58.5400   30.1340   44.9660 C   0  0  0  0  0  0  0  0  0  0  0  0
   58.1540   28.8720   45.4280 C   0  0  0  0  0  0  0  0  0  0  0  0
   55.1530   26.6810   45.8960 N   0  0  0  0  0  0  0  0  0  0  0  0
   55.1440   25.4420   46.3640 N   0  0  0  0  0  0  0  0  0  0  0  0
   55.3382   20.8284   46.9907 H   0  0  0  0  0  0  0  0  0  0  0  0
   54.0729   22.0471   46.5908 H   0  0  0  0  0  0  0  0  0  0  0  0
   57.0922   20.2999   45.4172 H   0  0  0  0  0  0  0  0  0  0  0  0
   57.9351   20.5261   43.0720 H   0  0  0  0  0  0  0  0  0  0  0  0
   57.0103   22.3154   41.5856 H   0  0  0  0  0  0  0  0  0  0  0  0
   55.2398   23.8492   42.4658 H   0  0  0  0  0  0  0  0  0  0  0  0
   58.3766   26.0717   46.2169 H   0  0  0  0  0  0  0  0  0  0  0  0
   54.8504   28.9544   44.5384 H   0  0  0  0  0  0  0  0  0  0  0  0
   55.5467   31.2038   43.7164 H   0  0  0  0  0  0  0  0  0  0  0  0
   59.5811   30.4682   45.0861 H   0  0  0  0  0  0  0  0  0  0  0  0
   58.8952   28.2182   45.9109 H   0  0  0  0  0  0  0  0  0  0  0  0
  1  2  2  0
  2  3  1  0
  3  4  1  0
  4  5  1  0
  5  6  2  0
  6  7  1  0
  7  8  2  0
  8  9  1  0
  9 10  2  0
  2 11  1  0
 11 12  1  0
 12 13  2  0
 13 14  1  0
 14 15  2  0
 15 16  1  0
 16 17  2  0
 17 18  1  0
 17 19  1  0
 19 20  2  0
 13 21  1  0
 21 22  1  0
 10  5  1  0
 22 11  2  0
 20 14  1  0
  4 23  1  0
  4 24  1  0
  6 25  1  0
  7 26  1  0
  8 27  1  0
  9 28  1  0
 12 29  1  0
 15 30  1  0
 16 31  1  0
 19 32  1  0
 20 33  1  0
M  CHG  2   3  -1  21  -1
M  END
>  <UniqueID>  (67) 
61

>  <SMILES>  (67) 
O=C([N-]Cc1ccccn1)c1cc(-c2ccc(Cl)cc2)[n-]n1

>  <Energy>  (67) 
63.57211992917129

>  <Genealogy>  (67) 
O=C([N-]Cc1ccccn1)c1cc(-c2ccc(Cl)cc2)[n-]n1 (protonated)
O=C([N-]Cc1ccccn1)c1cc(-c2ccc(Cl)cc2)[n-]n1 (3D coordinates assigned)
O=C([N-]Cc1ccccn1)c1cc(-c2ccc(Cl)cc2)[n-]n1 (optimized conformer: 63.57211992917129 kcal/mol)

>  <smiles>  (67) 
O=C(NCc1ccccn1)c1cc(-c2ccc(Cl)cc2)[nH]n1

>  <score_type>  (67) 
oracle

>  <origin>  (67) 
adg

>  <m_score__min__energy>  (67) 
-11.24

>  <m_primary>  (67) 
energy

$$$$
67:0
     RDKit          3D

 35 38  0  0  0  0  0  0  0  0999 V2000
   59.7300   33.3040   49.3740 C   0  0  0  0  0  0  0  0  0  0  0  0
   58.9920   32.1360   49.1740 C   0  0  0  0  0  0  0  0  0  0  0  0
   58.5000   31.8200   47.9030 C   0  0  0  0  0  0  0  0  0  0  0  0
   58.7470   32.6800   46.8150 C   0  0  0  0  0  0  0  0  0  0  0  0
   58.2730   32.4040   45.5150 C   0  0  0  0  0  0  0  0  0  0  0  0
   57.5090   31.2250   45.2310 N   0  0  0  0  0  0  0  0  0  0  0  0
   56.2680   31.3630   44.4440 C   0  0  0  0  0  0  0  0  0  0  0  0
   55.7430   29.9910   43.9780 C   0  0  1  0  0  0  0  0  0  0  0  0
   56.6700   29.3810   42.9210 C   0  0  0  0  0  0  0  0  0  0  0  0
   57.6540   28.5490   43.7290 C   0  0  0  0  0  0  0  0  0  0  0  0
   57.2070   28.7510   45.1810 C   0  0  1  0  0  0  0  0  0  0  0  0
   57.9440   29.9440   45.8220 C   0  0  0  0  0  0  0  0  0  0  0  0
   55.7880   29.0850   45.1220 N   0  0  0  0  0  0  0  0  0  0  0  0
   58.5520   33.2990   44.4770 C   0  0  0  0  0  0  0  0  0  0  0  0
   59.2940   34.4520   44.7360 C   0  0  0  0  0  0  0  0  0  0  0  0
   59.7450   34.7070   45.9910 N   0  0  0  0  0  0  0  0  0  0  0  0
   59.4960   33.8630   47.0280 C   0  0  0  0  0  0  0  0  0  0  0  0
   59.9820   34.1680   48.3040 C   0  0  0  0  0  0  0  0  0  0  0  0
   60.1143   33.5452   50.3761 H   0  0  0  0  0  0  0  0  0  0  0  0
   58.7963   31.4607   50.0200 H   0  0  0  0  0  0  0  0  0  0  0  0
   57.9191   30.8980   47.7530 H   0  0  0  0  0  0  0  0  0  0  0  0
   55.5012   31.8471   45.0666 H   0  0  0  0  0  0  0  0  0  0  0  0
   56.4881   31.9704   43.5537 H   0  0  0  0  0  0  0  0  0  0  0  0
   54.7312   30.1240   43.5674 H   0  0  0  0  0  0  0  0  0  0  0  0
   56.1032   28.7473   42.2230 H   0  0  0  0  0  0  0  0  0  0  0  0
   57.1677   30.1437   42.3041 H   0  0  0  0  0  0  0  0  0  0  0  0
   57.5937   27.4879   43.4455 H   0  0  0  0  0  0  0  0  0  0  0  0
   58.6989   28.8497   43.5623 H   0  0  0  0  0  0  0  0  0  0  0  0
   57.4173   27.8486   45.7738 H   0  0  0  0  0  0  0  0  0  0  0  0
   57.7325   29.9575   46.9014 H   0  0  0  0  0  0  0  0  0  0  0  0
   59.0219   29.8253   45.6374 H   0  0  0  0  0  0  0  0  0  0  0  0
   55.2510   28.2180   44.8820 H   0  0  0  0  0  0  0  0  0  0  0  0
   58.1876   33.0945   43.4595 H   0  0  0  0  0  0  0  0  0  0  0  0
   59.5143   35.1567   43.9206 H   0  0  0  0  0  0  0  0  0  0  0  0
   60.5627   35.0881   48.4655 H   0  0  0  0  0  0  0  0  0  0  0  0
  1  2  2  0
  2  3  1  0
  3  4  2  0
  4  5  1  0
  5  6  1  0
  6  7  1  0
  7  8  1  0
  8  9  1  0
  9 10  1  0
 10 11  1  0
 11 12  1  0
 11 13  1  0
  5 14  2  0
 14 15  1  0
 15 16  2  0
 16 17  1  0
 17 18  2  0
 18  1  1  0
 17  4  1  0
 12  6  1  0
 13  8  1  0
  1 19  1  0
  2 20  1  0
  3 21  1  0
  7 22  1  0
  7 23  1  0
  8 24  1  6
  9 25  1  0
  9 26  1  0
 10 27  1  0
 10 28  1  0
 11 29  1  1
 12 30  1  0
 12 31  1  0
 13 32  1  0
 14 33  1  0
 15 34  1  0
 18 35  1  0
M  END
>  <UniqueID>  (68) 
62

>  <SMILES>  (68) 
c1ccc2c(N3C[C@H]4CC[C@@H](C3)N4)ccnc2c1

>  <Energy>  (68) 
53.10575691107337

>  <Genealogy>  (68) 
c1ccc2c(N3C[C@H]4CC[C@@H](C3)N4)ccnc2c1 (chirality)
c1ccc2c(N3C[C@H]4CC[C@@H](C3)N4)ccnc2c1 (3D coordinates assigned)
c1ccc2c(N3C[C@H]4CC[C@@H](C3)N4)ccnc2c1 (nonaromatic ring conformer: 53.10575691107337 kcal/mol)

>  <smiles>  (68) 
c1ccc2c(N3CC4CCC(C3)N4)ccnc2c1

>  <score_type>  (68) 
oracle

>  <origin>  (68) 
adg

>  <m_score__min__energy>  (68) 
-7.4699999999999998

>  <m_primary>  (68) 
energy

$$$$
68:0
     RDKit          3D

 31 33  0  0  0  0  0  0  0  0999 V2000
   57.7274   32.3297   43.3288 H   0  0  0  0  0  0  0  0  0  0  0  0
   57.4010   31.4740   43.9380 C   0  0  0  0  0  0  0  0  0  0  0  0
   56.4860   30.1710   43.3960 S   0  0  0  0  0  0  0  0  0  0  0  0
   56.4630   29.4260   44.9070 C   0  0  0  0  0  0  0  0  0  0  0  0
   55.9230   28.2770   45.1910 N   0  0  0  0  0  0  0  0  0  0  0  0
   56.6170   27.1010   45.6310 C   0  0  0  0  0  0  0  0  0  0  0  0
   57.9630   26.9370   45.2810 C   0  0  0  0  0  0  0  0  0  0  0  0
   58.4693   27.6893   44.6584 H   0  0  0  0  0  0  0  0  0  0  0  0
   58.6570   25.8120   45.7280 C   0  0  0  0  0  0  0  0  0  0  0  0
   59.7099   25.6653   45.4455 H   0  0  0  0  0  0  0  0  0  0  0  0
   58.0120   24.8740   46.5340 C   0  0  0  0  0  0  0  0  0  0  0  0
   58.5475   23.9787   46.8830 H   0  0  0  0  0  0  0  0  0  0  0  0
   56.6790   25.0840   46.8930 C   0  0  0  0  0  0  0  0  0  0  0  0
   56.1635   24.3560   47.5366 H   0  0  0  0  0  0  0  0  0  0  0  0
   56.0150   26.1870   46.4490 N   0  0  0  0  0  0  0  0  0  0  0  0
   55.0360   26.3380   46.7770 H   0  0  0  0  0  0  0  0  0  0  0  0
   57.1560   30.1360   45.8200 N   0  0  0  0  0  0  0  0  0  0  0  0
   57.6760   31.2830   45.2970 C   0  0  0  0  0  0  0  0  0  0  0  0
   58.4780   32.2170   46.1300 C   0  0  0  0  0  0  0  0  0  0  0  0
   59.0570   31.8070   47.3470 C   0  0  0  0  0  0  0  0  0  0  0  0
   58.9153   30.7739   47.6971 H   0  0  0  0  0  0  0  0  0  0  0  0
   59.8100   32.7010   48.1140 C   0  0  0  0  0  0  0  0  0  0  0  0
   60.2537   32.3660   49.0632 H   0  0  0  0  0  0  0  0  0  0  0  0
   60.0040   34.0190   47.6840 C   0  0  0  0  0  0  0  0  0  0  0  0
   60.7830   34.9060   48.4970 N   0  0  0  0  0  0  0  0  0  0  0  0
   61.8770   34.5840   48.9620 N   0  0  0  0  0  0  0  0  0  0  0  0
   62.9700   34.2630   49.4260 N   0  0  0  0  0  0  0  0  0  0  0  0
   59.4360   34.4330   46.4660 C   0  0  0  0  0  0  0  0  0  0  0  0
   59.5855   35.4649   46.1154 H   0  0  0  0  0  0  0  0  0  0  0  0
   58.6830   33.5410   45.6990 C   0  0  0  0  0  0  0  0  0  0  0  0
   58.2453   33.8771   44.7474 H   0  0  0  0  0  0  0  0  0  0  0  0
  1  2  1  0
  2  3  1  0
  3  4  1  0
  4  5  2  0
  5  6  1  0
  6  7  2  0
  7  8  1  0
  7  9  1  0
  9 10  1  0
  9 11  2  0
 11 12  1  0
 11 13  1  0
 13 14  1  0
 13 15  2  0
 15 16  1  0
  4 17  1  0
 17 18  1  0
 18 19  1  0
 19 20  2  0
 20 21  1  0
 20 22  1  0
 22 23  1  0
 22 24  2  0
 24 25  1  0
 25 26  2  0
 26 27  2  0
 24 28  1  0
 28 29  1  0
 28 30  2  0
 30 31  1  0
 18  2  2  0
 30 19  1  0
 15  6  1  0
M  CHG  4  15   1  17  -1  26   1  27  -1
M  END
>  <UniqueID>  (69) 
63

>  <SMILES>  (69) 
[N-]=[N+]=Nc1ccc(-c2cs/c(=N\c3cccc[nH+]3)[n-]2)cc1

>  <Energy>  (69) 
73.27147657432897

>  <Genealogy>  (69) 
[N-]=[N+]=Nc1ccc(-c2csc(=Nc3cccc[nH+]3)[n-]2)cc1 (protonated)
[N-]=[N+]=Nc1ccc(-c2cs/c(=N\c3cccc[nH+]3)[n-]2)cc1 (cis-trans isomerization)
[N-]=[N+]=Nc1ccc(-c2cs/c(=N\c3cccc[nH+]3)[n-]2)cc1 (3D coordinates assigned)
[N-]=[N+]=Nc1ccc(-c2cs/c(=N\c3cccc[nH+]3)[n-]2)cc1 (optimized conformer: 73.27147657432897 kcal/mol)

>  <smiles>  (69) 
[N-]=[N+]=Nc1ccc(-c2csc(=Nc3ccccn3)[nH]2)cc1

>  <score_type>  (69) 
oracle

>  <origin>  (69) 
adg

>  <m_score__min__energy>  (69) 
-8.3200000000000003

>  <m_primary>  (69) 
energy

$$$$
69:0
     RDKit          3D

 55 59  0  0  0  0  0  0  0  0999 V2000
   57.8440   29.5520   52.4360 O   0  0  0  0  0  0  0  0  0  0  0  0
   57.6780   30.3500   51.4740 C   0  0  0  0  0  0  0  0  0  0  0  0
   56.4650   31.1150   51.3790 N   0  0  0  0  0  0  0  0  0  0  0  0
   55.2640   30.8040   52.1080 C   0  0  0  0  0  0  0  0  0  0  0  0
   55.3090   30.0750   53.3080 C   0  0  0  0  0  0  0  0  0  0  0  0
   54.1290   29.7550   53.9810 C   0  0  0  0  0  0  0  0  0  0  0  0
   52.8960   30.1530   53.4630 C   0  0  0  0  0  0  0  0  0  0  0  0
   52.8290   30.8800   52.2620 C   0  0  0  0  0  0  0  0  0  0  0  0
   51.4830   31.2570   51.6950 C   0  0  0  0  0  0  0  0  0  0  0  0
   51.4010   32.6320   51.5910 F   0  0  0  0  0  0  0  0  0  0  0  0
   51.3290   30.6990   50.4380 F   0  0  0  0  0  0  0  0  0  0  0  0
   50.4490   30.8090   52.4990 F   0  0  0  0  0  0  0  0  0  0  0  0
   54.0210   31.1820   51.5790 C   0  0  0  0  0  0  0  0  0  0  0  0
   58.7570   30.5220   50.4760 C   0  0  0  0  0  0  0  0  0  0  0  0
   59.7680   29.5530   50.3510 C   0  0  0  0  0  0  0  0  0  0  0  0
   60.7910   29.7140   49.4110 C   0  0  0  0  0  0  0  0  0  0  0  0
   60.8110   30.8380   48.5820 C   0  0  0  0  0  0  0  0  0  0  0  0
   59.8010   31.8000   48.6840 C   0  0  0  0  0  0  0  0  0  0  0  0
   59.8010   33.2210   47.5900 S   0  0  0  0  0  0  0  0  0  0  0  0
   58.9350   32.3250   46.3090 C   0  0  0  0  0  0  0  0  0  0  0  0
   58.3360   31.1410   46.6040 N   0  0  0  0  0  0  0  0  0  0  0  0
   57.6310   30.4520   45.6700 C   0  0  0  0  0  0  0  0  0  0  0  0
   57.0180   29.2520   46.0430 O   0  0  0  0  0  0  0  0  0  0  0  0
   57.6550   28.0000   46.0540 C   0  0  0  0  0  0  0  0  0  0  0  0
   59.0550   27.8540   46.1930 C   0  0  0  0  0  0  0  0  0  0  0  0
   59.8720   28.9310   46.2930 F   0  0  0  0  0  0  0  0  0  0  0  0
   59.6280   26.5770   46.1950 C   0  0  0  0  0  0  0  0  0  0  0  0
   58.8260   25.4440   46.0510 C   0  0  0  0  0  0  0  0  0  0  0  0
   57.4440   25.5830   45.9040 C   0  0  0  0  0  0  0  0  0  0  0  0
   56.8620   26.8540   45.9020 C   0  0  0  0  0  0  0  0  0  0  0  0
   55.5190   26.9750   45.7600 F   0  0  0  0  0  0  0  0  0  0  0  0
   57.5400   30.9550   44.3590 C   0  0  0  0  0  0  0  0  0  0  0  0
   56.8630   30.2730   43.3320 C   0  0  0  0  0  0  0  0  0  0  0  0
   56.8050   30.8210   42.0470 C   0  0  0  0  0  0  0  0  0  0  0  0
   57.4200   32.0490   41.7760 C   0  0  0  0  0  0  0  0  0  0  0  0
   58.1020   32.7310   42.7880 C   0  0  0  0  0  0  0  0  0  0  0  0
   58.1720   32.1870   44.0770 C   0  0  0  0  0  0  0  0  0  0  0  0
   58.8470   32.8410   45.0550 N   0  0  0  0  0  0  0  0  0  0  0  0
   58.7790   31.6450   49.6290 C   0  0  0  0  0  0  0  0  0  0  0  0
   56.5080   32.0300   50.8720 H   0  0  0  0  0  0  0  0  0  0  0  0
   56.2780   29.7552   53.7188 H   0  0  0  0  0  0  0  0  0  0  0  0
   54.1711   29.1875   54.9224 H   0  0  0  0  0  0  0  0  0  0  0  0
   51.9700   29.8960   53.9983 H   0  0  0  0  0  0  0  0  0  0  0  0
   53.9780   31.7200   50.6205 H   0  0  0  0  0  0  0  0  0  0  0  0
   59.7543   28.6625   50.9967 H   0  0  0  0  0  0  0  0  0  0  0  0
   61.5814   28.9539   49.3244 H   0  0  0  0  0  0  0  0  0  0  0  0
   61.6211   30.9665   47.8490 H   0  0  0  0  0  0  0  0  0  0  0  0
   60.7162   26.4658   46.3107 H   0  0  0  0  0  0  0  0  0  0  0  0
   59.2817   24.4428   46.0533 H   0  0  0  0  0  0  0  0  0  0  0  0
   56.8119   24.6900   45.7895 H   0  0  0  0  0  0  0  0  0  0  0  0
   56.3787   29.3075   43.5400 H   0  0  0  0  0  0  0  0  0  0  0  0
   56.2742   30.2853   41.2462 H   0  0  0  0  0  0  0  0  0  0  0  0
   57.3665   32.4782   40.7646 H   0  0  0  0  0  0  0  0  0  0  0  0
   58.5842   33.6958   42.5719 H   0  0  0  0  0  0  0  0  0  0  0  0
   57.9888   32.4060   49.7094 H   0  0  0  0  0  0  0  0  0  0  0  0
  1  2  2  0
  2  3  1  0
  3  4  1  0
  4  5  2  0
  5  6  1  0
  6  7  2  0
  7  8  1  0
  8  9  1  0
  9 10  1  0
  9 11  1  0
  9 12  1  0
  8 13  2  0
  2 14  1  0
 14 15  2  0
 15 16  1  0
 16 17  2  0
 17 18  1  0
 18 19  1  0
 19 20  1  0
 20 21  2  0
 21 22  1  0
 22 23  1  0
 23 24  1  0
 24 25  2  0
 25 26  1  0
 25 27  1  0
 27 28  2  0
 28 29  1  0
 29 30  2  0
 30 31  1  0
 22 32  2  0
 32 33  1  0
 33 34  2  0
 34 35  1  0
 35 36  2  0
 36 37  1  0
 37 38  2  0
 18 39  2  0
 13  4  1  0
 39 14  1  0
 38 20  1  0
 30 24  1  0
 37 32  1  0
  3 40  1  0
  5 41  1  0
  6 42  1  0
  7 43  1  0
 13 44  1  0
 15 45  1  0
 16 46  1  0
 17 47  1  0
 27 48  1  0
 28 49  1  0
 29 50  1  0
 33 51  1  0
 34 52  1  0
 35 53  1  0
 36 54  1  0
 39 55  1  0
M  END
>  <UniqueID>  (70) 
64

>  <SMILES>  (70) 
O=C(Nc1cccc(C(F)(F)F)c1)c1cccc(Sc2nc(Oc3c(F)cccc3F)c3ccccc3n2)c1

>  <Energy>  (70) 
77.69243712449422

>  <Genealogy>  (70) 
O=C(Nc1cccc(C(F)(F)F)c1)c1cccc(Sc2nc(Oc3c(F)cccc3F)c3ccccc3n2)c1 (3D coordinates assigned)
O=C(Nc1cccc(C(F)(F)F)c1)c1cccc(Sc2nc(Oc3c(F)cccc3F)c3ccccc3n2)c1 (optimized conformer: 77.69243712449422 kcal/mol)

>  <smiles>  (70) 
O=C(Nc1cccc(C(F)(F)F)c1)c1cccc(Sc2nc(Oc3c(F)cccc3F)c3ccccc3n2)c1

>  <score_type>  (70) 
oracle

>  <origin>  (70) 
adg

>  <m_score__min__energy>  (70) 
-9.9499999999999993

>  <m_primary>  (70) 
energy

$$$$
70:0
     RDKit          3D

 44 46  0  0  0  0  0  0  0  0999 V2000
   63.7980   33.4700   48.8220 C   0  0  0  0  0  0  0  0  0  0  0  0
   62.4720   33.7520   48.1820 C   0  0  0  0  0  0  0  0  0  0  0  0
   62.3180   33.6360   46.7910 C   0  0  0  0  0  0  0  0  0  0  0  0
   61.0730   33.8650   46.1980 C   0  0  0  0  0  0  0  0  0  0  0  0
   59.9690   34.2010   46.9910 C   0  0  0  0  0  0  0  0  0  0  0  0
   58.3740   34.5010   46.2290 S   0  0  0  0  0  0  0  0  0  0  0  0
   58.2770   32.8390   45.5640 C   0  0  0  0  0  0  0  0  0  0  0  0
   57.8380   32.6350   44.2500 C   0  0  0  0  0  0  0  0  0  0  0  0
   57.7680   31.3400   43.7270 C   0  0  0  0  0  0  0  0  0  0  0  0
   58.1470   30.2350   44.5120 C   0  0  0  0  0  0  0  0  0  0  0  0
   58.0630   28.8910   44.0080 N   0  0  0  0  0  0  0  0  0  0  0  0
   57.6150   27.7660   44.7800 C   0  0  0  0  0  0  0  0  0  0  0  0
   57.0450   27.9450   45.8900 O   0  0  0  0  0  0  0  0  0  0  0  0
   57.7680   26.4400   44.2490 N   0  0  0  0  0  0  0  0  0  0  0  0
   57.4460   25.2460   44.9840 C   0  0  0  0  0  0  0  0  0  0  0  0
   57.2790   25.3030   46.2330 O   0  0  0  0  0  0  0  0  0  0  0  0
   57.3390   23.9350   44.2980 C   0  0  0  0  0  0  0  0  0  0  0  0
   56.3660   23.7130   43.3040 C   0  0  0  0  0  0  0  0  0  0  0  0
   56.2720   22.4690   42.6720 C   0  0  0  0  0  0  0  0  0  0  0  0
   57.1410   21.4340   43.0250 C   0  0  0  0  0  0  0  0  0  0  0  0
   58.1030   21.6380   44.0180 C   0  0  0  0  0  0  0  0  0  0  0  0
   58.2010   22.8800   44.6540 C   0  0  0  0  0  0  0  0  0  0  0  0
   58.5580   30.4480   45.8370 C   0  0  0  0  0  0  0  0  0  0  0  0
   58.6290   31.7430   46.3580 C   0  0  0  0  0  0  0  0  0  0  0  0
   60.1110   34.2970   48.3800 C   0  0  0  0  0  0  0  0  0  0  0  0
   61.3570   34.0680   48.9750 C   0  0  0  0  0  0  0  0  0  0  0  0
   63.6893   33.4931   49.9164 H   0  0  0  0  0  0  0  0  0  0  0  0
   64.1520   32.4765   48.5096 H   0  0  0  0  0  0  0  0  0  0  0  0
   64.5257   34.2335   48.5096 H   0  0  0  0  0  0  0  0  0  0  0  0
   63.1808   33.3638   46.1653 H   0  0  0  0  0  0  0  0  0  0  0  0
   60.9605   33.7811   45.1070 H   0  0  0  0  0  0  0  0  0  0  0  0
   57.5478   33.4948   43.6283 H   0  0  0  0  0  0  0  0  0  0  0  0
   57.4150   31.1842   42.6969 H   0  0  0  0  0  0  0  0  0  0  0  0
   58.2610   28.7350   42.9930 H   0  0  0  0  0  0  0  0  0  0  0  0
   58.1820   26.3470   43.2950 H   0  0  0  0  0  0  0  0  0  0  0  0
   55.6763   24.5226   43.0233 H   0  0  0  0  0  0  0  0  0  0  0  0
   55.5113   22.3051   41.8945 H   0  0  0  0  0  0  0  0  0  0  0  0
   57.0682   20.4587   42.5216 H   0  0  0  0  0  0  0  0  0  0  0  0
   58.7837   20.8211   44.2997 H   0  0  0  0  0  0  0  0  0  0  0  0
   58.9571   23.0337   45.4381 H   0  0  0  0  0  0  0  0  0  0  0  0
   58.8262   29.5894   46.4701 H   0  0  0  0  0  0  0  0  0  0  0  0
   58.9623   31.9003   47.3944 H   0  0  0  0  0  0  0  0  0  0  0  0
   59.2425   34.5527   49.0047 H   0  0  0  0  0  0  0  0  0  0  0  0
   61.4632   34.1358   50.0678 H   0  0  0  0  0  0  0  0  0  0  0  0
  1  2  1  0
  2  3  2  0
  3  4  1  0
  4  5  2  0
  5  6  1  0
  6  7  1  0
  7  8  2  0
  8  9  1  0
  9 10  2  0
 10 11  1  0
 11 12  1  0
 12 13  2  0
 12 14  1  0
 14 15  1  0
 15 16  2  0
 15 17  1  0
 17 18  2  0
 18 19  1  0
 19 20  2  0
 20 21  1  0
 21 22  2  0
 10 23  1  0
 23 24  2  0
  5 25  1  0
 25 26  2  0
 26  2  1  0
 24  7  1  0
 22 17  1  0
  1 27  1  0
  1 28  1  0
  1 29  1  0
  3 30  1  0
  4 31  1  0
  8 32  1  0
  9 33  1  0
 11 34  1  0
 14 35  1  0
 18 36  1  0
 19 37  1  0
 20 38  1  0
 21 39  1  0
 22 40  1  0
 23 41  1  0
 24 42  1  0
 25 43  1  0
 26 44  1  0
M  END
>  <UniqueID>  (71) 
65

>  <SMILES>  (71) 
Cc1ccc(Sc2ccc(NC(=O)NC(=O)c3ccccc3)cc2)cc1

>  <Energy>  (71) 
47.055099773589376

>  <Genealogy>  (71) 
Cc1ccc(Sc2ccc(NC(=O)NC(=O)c3ccccc3)cc2)cc1 (3D coordinates assigned)
Cc1ccc(Sc2ccc(NC(=O)NC(=O)c3ccccc3)cc2)cc1 (optimized conformer: 47.055099773589376 kcal/mol)

>  <smiles>  (71) 
Cc1ccc(Sc2ccc(NC(=O)NC(=O)c3ccccc3)cc2)cc1

>  <score_type>  (71) 
oracle

>  <origin>  (71) 
adg

>  <m_score__min__energy>  (71) 
-9.3699999999999992

>  <m_primary>  (71) 
energy

$$$$
71:0
     RDKit          3D

 36 38  0  0  0  0  0  0  0  0999 V2000
   58.5300   30.1450   48.7540 F   0  0  0  0  0  0  0  0  0  0  0  0
   59.0070   31.4450   48.7810 C   0  0  0  0  0  0  0  0  0  0  0  0
   58.4330   32.0720   49.8710 F   0  0  0  0  0  0  0  0  0  0  0  0
   60.3770   31.4030   48.9440 F   0  0  0  0  0  0  0  0  0  0  0  0
   58.6750   32.1720   47.4920 C   0  0  0  0  0  0  0  0  0  0  0  0
   58.1590   31.4330   46.4080 C   0  0  0  0  0  0  0  0  0  0  0  0
   57.8240   32.0630   45.2060 C   0  0  0  0  0  0  0  0  0  0  0  0
   57.1410   31.1060   43.8510 S   0  0  0  0  0  0  0  0  0  0  0  0
   57.7900   29.5630   44.4940 C   0  0  0  0  0  0  0  0  0  0  0  0
   59.1680   29.3250   44.4900 C   0  0  0  0  0  0  0  0  0  0  0  0
   59.6550   28.1190   45.0000 C   0  0  0  0  0  0  0  0  0  0  0  0
   58.7920   27.1900   45.4920 N   0  0  0  0  0  0  0  0  0  0  0  0
   57.4480   27.3980   45.5020 C   0  0  0  0  0  0  0  0  0  0  0  0
   56.3830   26.1670   46.1480 Cl  0  0  0  0  0  0  0  0  0  0  0  0
   56.9210   28.5910   44.9990 C   0  0  0  0  0  0  0  0  0  0  0  0
   58.0170   33.4350   45.0610 C   0  0  0  0  0  0  0  0  0  0  0  0
   58.5570   34.1790   46.1100 C   0  0  0  0  0  0  0  0  0  0  0  0
   58.9190   33.5600   47.3150 C   0  0  0  0  0  0  0  0  0  0  0  0
   59.6540   34.6010   48.5920 S   0  0  0  0  0  0  0  0  0  0  0  0
   61.3280   34.0220   48.2950 C   0  0  0  0  0  0  0  0  0  0  0  0
   61.7780   33.8100   46.9840 C   0  0  0  0  0  0  0  0  0  0  0  0
   63.0830   33.3650   46.7540 C   0  0  0  0  0  0  0  0  0  0  0  0
   63.9480   33.1450   47.8300 C   0  0  0  0  0  0  0  0  0  0  0  0
   63.5110   33.3790   49.1370 C   0  0  0  0  0  0  0  0  0  0  0  0
   62.2050   33.8230   49.3700 C   0  0  0  0  0  0  0  0  0  0  0  0
   58.0182   30.3468   46.5094 H   0  0  0  0  0  0  0  0  0  0  0  0
   59.8612   30.0794   44.0895 H   0  0  0  0  0  0  0  0  0  0  0  0
   60.7370   27.9207   45.0037 H   0  0  0  0  0  0  0  0  0  0  0  0
   55.8346   28.7632   45.0005 H   0  0  0  0  0  0  0  0  0  0  0  0
   57.7433   33.9320   44.1186 H   0  0  0  0  0  0  0  0  0  0  0  0
   58.7004   35.2631   45.9907 H   0  0  0  0  0  0  0  0  0  0  0  0
   61.1030   33.9942   46.1352 H   0  0  0  0  0  0  0  0  0  0  0  0
   63.4297   33.1877   45.7252 H   0  0  0  0  0  0  0  0  0  0  0  0
   64.9724   32.7878   47.6482 H   0  0  0  0  0  0  0  0  0  0  0  0
   64.1945   33.2139   49.9829 H   0  0  0  0  0  0  0  0  0  0  0  0
   61.8659   34.0162   50.3984 H   0  0  0  0  0  0  0  0  0  0  0  0
  1  2  1  0
  2  3  1  0
  2  4  1  0
  2  5  1  0
  5  6  2  0
  6  7  1  0
  7  8  1  0
  8  9  1  0
  9 10  2  0
 10 11  1  0
 11 12  2  0
 12 13  1  0
 13 14  1  0
 13 15  2  0
  7 16  2  0
 16 17  1  0
 17 18  2  0
 18 19  1  0
 19 20  1  0
 20 21  2  0
 21 22  1  0
 22 23  2  0
 23 24  1  0
 24 25  2  0
 18  5  1  0
 25 20  1  0
 15  9  1  0
  6 26  1  0
 10 27  1  0
 11 28  1  0
 15 29  1  0
 16 30  1  0
 17 31  1  0
 21 32  1  0
 22 33  1  0
 23 34  1  0
 24 35  1  0
 25 36  1  0
M  END
>  <UniqueID>  (72) 
66

>  <SMILES>  (72) 
FC(F)(F)c1cc(Sc2ccnc(Cl)c2)ccc1Sc1ccccc1

>  <Energy>  (72) 
34.23288438767242

>  <Genealogy>  (72) 
FC(F)(F)c1cc(Sc2ccnc(Cl)c2)ccc1Sc1ccccc1 (3D coordinates assigned)
FC(F)(F)c1cc(Sc2ccnc(Cl)c2)ccc1Sc1ccccc1 (optimized conformer: 34.23288438767242 kcal/mol)

>  <smiles>  (72) 
FC(F)(F)c1cc(Sc2ccnc(Cl)c2)ccc1Sc1ccccc1

>  <score_type>  (72) 
oracle

>  <origin>  (72) 
adg

>  <m_score__min__energy>  (72) 
-7.9400000000000004

>  <m_primary>  (72) 
energy

$$$$
72:0
     RDKit          3D

 43 45  0  0  0  0  0  0  0  0999 V2000
   54.8062   23.3024   43.4445 H   0  0  0  0  0  0  0  0  0  0  0  0
   55.6510   23.5800   44.0920 C   0  0  0  0  0  0  0  0  0  0  0  0
   55.5510   24.6600   44.9060 N   0  0  0  0  0  0  0  0  0  0  0  0
   56.5500   25.0530   45.7410 C   0  0  0  0  0  0  0  0  0  0  0  0
   56.3360   26.1100   46.4780 N   0  0  0  0  0  0  0  0  0  0  0  0
   56.9390   27.4050   46.3720 C   0  0  0  0  0  0  0  0  0  0  0  0
   57.7100   27.7970   47.2870 O   0  0  0  0  0  0  0  0  0  0  0  0
   56.7040   28.2170   45.2080 N   0  0  0  0  0  0  0  0  0  0  0  0
   56.0260   27.8590   44.4980 H   0  0  0  0  0  0  0  0  0  0  0  0
   57.1730   29.5680   45.0640 C   0  0  0  0  0  0  0  0  0  0  0  0
   57.7660   30.2580   46.1360 C   0  0  0  0  0  0  0  0  0  0  0  0
   57.8659   29.7668   47.1151 H   0  0  0  0  0  0  0  0  0  0  0  0
   58.2290   31.5650   45.9630 C   0  0  0  0  0  0  0  0  0  0  0  0
   58.6824   32.1031   46.8085 H   0  0  0  0  0  0  0  0  0  0  0  0
   58.1170   32.1910   44.7160 C   0  0  0  0  0  0  0  0  0  0  0  0
   58.6990   33.8310   44.5010 Cl  0  0  0  0  0  0  0  0  0  0  0  0
   57.5480   31.5020   43.6400 C   0  0  0  0  0  0  0  0  0  0  0  0
   57.4633   31.9904   42.6580 H   0  0  0  0  0  0  0  0  0  0  0  0
   57.0870   30.1940   43.8110 C   0  0  0  0  0  0  0  0  0  0  0  0
   56.6538   29.6514   42.9578 H   0  0  0  0  0  0  0  0  0  0  0  0
   57.7710   24.3260   45.7450 C   0  0  0  0  0  0  0  0  0  0  0  0
   58.8580   24.7600   46.5250 O   0  0  0  0  0  0  0  0  0  0  0  0
   60.0860   25.2980   46.0310 C   0  0  0  0  0  0  0  0  0  0  0  0
   60.9206   24.6712   46.3781 H   0  0  0  0  0  0  0  0  0  0  0  0
   60.0502   25.3105   44.9317 H   0  0  0  0  0  0  0  0  0  0  0  0
   60.2860   26.7050   46.5250 C   0  0  0  0  0  0  0  0  0  0  0  0
   60.3500   26.9640   47.9040 C   0  0  0  0  0  0  0  0  0  0  0  0
   60.2502   26.1363   48.6216 H   0  0  0  0  0  0  0  0  0  0  0  0
   60.5400   28.2690   48.3690 C   0  0  0  0  0  0  0  0  0  0  0  0
   60.5825   28.4666   49.4503 H   0  0  0  0  0  0  0  0  0  0  0  0
   60.6760   29.3230   47.4600 C   0  0  0  0  0  0  0  0  0  0  0  0
   60.8239   30.3496   47.8263 H   0  0  0  0  0  0  0  0  0  0  0  0
   60.6240   29.0720   46.0860 C   0  0  0  0  0  0  0  0  0  0  0  0
   60.7320   29.9018   45.3720 H   0  0  0  0  0  0  0  0  0  0  0  0
   60.4350   27.7680   45.6170 C   0  0  0  0  0  0  0  0  0  0  0  0
   60.4028   27.5736   44.5348 H   0  0  0  0  0  0  0  0  0  0  0  0
   57.8720   23.1860   44.9240 C   0  0  0  0  0  0  0  0  0  0  0  0
   58.7875   22.5768   44.9526 H   0  0  0  0  0  0  0  0  0  0  0  0
   56.8240   22.8170   44.0720 C   0  0  0  0  0  0  0  0  0  0  0  0
   56.9300   21.5790   43.2180 C   0  0  0  0  0  0  0  0  0  0  0  0
   58.2540   21.2360   43.0060 F   0  0  0  0  0  0  0  0  0  0  0  0
   56.3010   20.5110   43.8350 F   0  0  0  0  0  0  0  0  0  0  0  0
   56.3250   21.8140   41.9970 F   0  0  0  0  0  0  0  0  0  0  0  0
  1  2  1  0
  2  3  1  0
  3  4  1  0
  4  5  2  0
  5  6  1  0
  6  7  2  0
  6  8  1  0
  8  9  1  0
  8 10  1  0
 10 11  2  0
 11 12  1  0
 11 13  1  0
 13 14  1  0
 13 15  2  0
 15 16  1  0
 15 17  1  0
 17 18  1  0
 17 19  2  0
 19 20  1  0
  4 21  1  0
 21 22  1  0
 22 23  1  0
 23 24  1  0
 23 25  1  0
 23 26  1  0
 26 27  2  0
 27 28  1  0
 27 29  1  0
 29 30  1  0
 29 31  2  0
 31 32  1  0
 31 33  1  0
 33 34  1  0
 33 35  2  0
 35 36  1  0
 21 37  2  0
 37 38  1  0
 37 39  1  0
 39 40  1  0
 40 41  1  0
 40 42  1  0
 40 43  1  0
 39  2  2  0
 19 10  1  0
 35 26  1  0
M  CHG  1   3  -1
M  END
>  <UniqueID>  (73) 
67

>  <SMILES>  (73) 
O=C(/N=c1/[n-]cc(C(F)(F)F)cc1OCc1ccccc1)Nc1ccc(Cl)cc1

>  <Energy>  (73) 
61.16645528518603

>  <Genealogy>  (73) 
O=C(N=c1[n-]cc(C(F)(F)F)cc1OCc1ccccc1)Nc1ccc(Cl)cc1 (protonated)
O=C(/N=c1/[n-]cc(C(F)(F)F)cc1OCc1ccccc1)Nc1ccc(Cl)cc1 (cis-trans isomerization)
O=C(/N=c1/[n-]cc(C(F)(F)F)cc1OCc1ccccc1)Nc1ccc(Cl)cc1 (3D coordinates assigned)
O=C(/N=c1/[n-]cc(C(F)(F)F)cc1OCc1ccccc1)Nc1ccc(Cl)cc1 (optimized conformer: 61.16645528518603 kcal/mol)

>  <smiles>  (73) 
O=C(N=c1[nH]cc(C(F)(F)F)cc1OCc1ccccc1)Nc1ccc(Cl)cc1

>  <score_type>  (73) 
oracle

>  <origin>  (73) 
adg

>  <m_score__min__energy>  (73) 
-8.4700000000000006

>  <m_primary>  (73) 
energy

$$$$
73:0
     RDKit          3D

 57 60  0  0  0  0  0  0  0  0999 V2000
   55.1780   29.3100   44.8860 O   0  0  0  0  0  0  0  0  0  0  0  0
   56.2970   29.8580   44.7000 C   0  0  0  0  0  0  0  0  0  0  0  0
   56.3520   31.2860   44.5930 N   0  0  0  0  0  0  0  0  0  0  0  0
   57.3800   32.1440   45.1170 C   0  0  0  0  0  0  0  0  0  0  0  0
   57.7670   31.9860   46.4530 C   0  0  0  0  0  0  0  0  0  0  0  0
   58.7710   32.7910   47.0000 C   0  0  0  0  0  0  0  0  0  0  0  0
   59.3930   33.7770   46.2160 C   0  0  0  0  0  0  0  0  0  0  0  0
   60.4400   34.5640   46.7180 O   0  0  0  0  0  0  0  0  0  0  0  0
   61.5330   34.0710   47.4460 C   0  0  0  0  0  0  0  0  0  0  0  0
   62.5910   33.4660   46.7530 C   0  0  0  0  0  0  0  0  0  0  0  0
   63.7040   32.9830   47.4490 C   0  0  0  0  0  0  0  0  0  0  0  0
   63.7720   33.1150   48.8390 C   0  0  0  0  0  0  0  0  0  0  0  0
   62.7270   33.7280   49.5350 C   0  0  0  0  0  0  0  0  0  0  0  0
   61.6140   34.2110   48.8430 C   0  0  0  0  0  0  0  0  0  0  0  0
   58.9910   33.9520   44.8870 C   0  0  0  0  0  0  0  0  0  0  0  0
   57.9760   33.1570   44.3440 C   0  0  0  0  0  0  0  0  0  0  0  0
   57.5030   29.0810   44.7090 N   0  0  0  0  0  0  0  0  0  0  0  0
   58.2080   28.5480   45.8420 C   0  0  0  0  0  0  0  0  0  0  0  0
   57.9680   27.2570   46.3440 C   0  0  0  0  0  0  0  0  0  0  0  0
   58.6950   26.7830   47.4390 C   0  0  0  0  0  0  0  0  0  0  0  0
   59.6830   27.5750   48.0260 C   0  0  0  0  0  0  0  0  0  0  0  0
   59.9670   28.8520   47.5060 C   0  0  0  0  0  0  0  0  0  0  0  0
   60.9720   29.6810   48.0300 O   0  0  0  0  0  0  0  0  0  0  0  0
   61.1960   29.9430   49.4170 C   0  0  0  0  0  0  0  0  0  0  0  0
   60.4930   31.2360   49.8450 C   0  0  0  0  0  0  0  0  0  0  0  0
   59.0240   31.0680   49.7610 N   0  0  0  0  0  0  0  0  0  0  0  0
   58.2650   32.2770   50.1780 C   0  0  0  0  0  0  0  0  0  0  0  0
   57.5920   32.1600   51.5580 C   0  0  0  0  0  0  0  0  0  0  0  0
   58.7100   31.3850   52.7660 S   0  0  0  0  0  0  0  0  0  0  0  0
   58.8420   29.7650   51.9140 C   0  0  0  0  0  0  0  0  0  0  0  0
   58.5480   29.8190   50.3990 C   0  0  0  0  0  0  0  0  0  0  0  0
   59.2180   29.3260   46.4220 C   0  0  0  0  0  0  0  0  0  0  0  0
   57.2779   31.2233   47.0768 H   0  0  0  0  0  0  0  0  0  0  0  0
   59.0749   32.6517   48.0480 H   0  0  0  0  0  0  0  0  0  0  0  0
   62.5456   33.3708   45.6581 H   0  0  0  0  0  0  0  0  0  0  0  0
   64.5265   32.4989   46.9021 H   0  0  0  0  0  0  0  0  0  0  0  0
   64.6485   32.7361   49.3850 H   0  0  0  0  0  0  0  0  0  0  0  0
   62.7809   33.8303   50.6289 H   0  0  0  0  0  0  0  0  0  0  0  0
   60.7979   34.7027   49.3927 H   0  0  0  0  0  0  0  0  0  0  0  0
   59.4760   34.7192   44.2656 H   0  0  0  0  0  0  0  0  0  0  0  0
   57.6428   33.3246   43.3091 H   0  0  0  0  0  0  0  0  0  0  0  0
   57.2059   26.6184   45.8735 H   0  0  0  0  0  0  0  0  0  0  0  0
   58.4875   25.7802   47.8406 H   0  0  0  0  0  0  0  0  0  0  0  0
   60.2410   27.2006   48.8969 H   0  0  0  0  0  0  0  0  0  0  0  0
   60.8028   29.1047   50.0108 H   0  0  0  0  0  0  0  0  0  0  0  0
   62.2772   30.0561   49.5852 H   0  0  0  0  0  0  0  0  0  0  0  0
   60.7731   31.4766   50.8812 H   0  0  0  0  0  0  0  0  0  0  0  0
   60.8011   32.0522   49.1750 H   0  0  0  0  0  0  0  0  0  0  0  0
   58.9614   33.1280   50.2057 H   0  0  0  0  0  0  0  0  0  0  0  0
   57.4563   32.4090   49.4441 H   0  0  0  0  0  0  0  0  0  0  0  0
   57.3210   33.1655   51.9123 H   0  0  0  0  0  0  0  0  0  0  0  0
   56.6948   31.5315   51.4578 H   0  0  0  0  0  0  0  0  0  0  0  0
   59.8647   29.3846   52.0533 H   0  0  0  0  0  0  0  0  0  0  0  0
   58.0786   29.1108   52.3603 H   0  0  0  0  0  0  0  0  0  0  0  0
   59.0461   28.9662   49.9147 H   0  0  0  0  0  0  0  0  0  0  0  0
   57.4557   29.7816   50.2744 H   0  0  0  0  0  0  0  0  0  0  0  0
   59.4267   30.3278   46.0185 H   0  0  0  0  0  0  0  0  0  0  0  0
  1  2  2  0
  2  3  1  0
  3  4  1  0
  4  5  2  0
  5  6  1  0
  6  7  2  0
  7  8  1  0
  8  9  1  0
  9 10  2  0
 10 11  1  0
 11 12  2  0
 12 13  1  0
 13 14  2  0
  7 15  1  0
 15 16  2  0
  2 17  1  0
 17 18  1  0
 18 19  2  0
 19 20  1  0
 20 21  2  0
 21 22  1  0
 22 23  1  0
 23 24  1  0
 24 25  1  0
 25 26  1  0
 26 27  1  0
 27 28  1  0
 28 29  1  0
 29 30  1  0
 30 31  1  0
 22 32  2  0
 16  4  1  0
 32 18  1  0
 14  9  1  0
 31 26  1  0
  5 33  1  0
  6 34  1  0
 10 35  1  0
 11 36  1  0
 12 37  1  0
 13 38  1  0
 14 39  1  0
 15 40  1  0
 16 41  1  0
 19 42  1  0
 20 43  1  0
 21 44  1  0
 24 45  1  0
 24 46  1  0
 25 47  1  0
 25 48  1  0
 27 49  1  0
 27 50  1  0
 28 51  1  0
 28 52  1  0
 30 53  1  0
 30 54  1  0
 31 55  1  0
 31 56  1  0
 32 57  1  0
M  CHG  2   3  -1  17  -1
M  END
>  <UniqueID>  (74) 
68

>  <SMILES>  (74) 
O=C([N-]c1ccc(Oc2ccccc2)cc1)[N-]c1cccc(OCCN2CCSCC2)c1

>  <Energy>  (74) 
82.08503260937555

>  <Genealogy>  (74) 
O=C([N-]c1ccc(Oc2ccccc2)cc1)[N-]c1cccc(OCCN2CCSCC2)c1 (protonated)
O=C([N-]c1ccc(Oc2ccccc2)cc1)[N-]c1cccc(OCCN2CCSCC2)c1 (3D coordinates assigned)
O=C([N-]c1ccc(Oc2ccccc2)cc1)[N-]c1cccc(OCCN2CCSCC2)c1 (nonaromatic ring conformer: 82.08503260937555 kcal/mol)

>  <smiles>  (74) 
O=C(Nc1ccc(Oc2ccccc2)cc1)Nc1cccc(OCCN2CCSCC2)c1

>  <score_type>  (74) 
oracle

>  <origin>  (74) 
adg

>  <m_score__min__energy>  (74) 
-12.539999999999999

>  <m_primary>  (74) 
energy

$$$$
74:0
     RDKit          3D

 31 33  0  0  0  0  0  0  0  0999 V2000
   60.3530   29.6260   44.9050 O   0  0  0  0  0  0  0  0  0  0  0  0
   59.1870   30.0960   44.8000 C   0  0  0  0  0  0  0  0  0  0  0  0
   58.8310   31.4280   45.3040 C   0  0  0  0  0  0  0  0  0  0  0  0
   59.6180   32.2830   46.0800 C   0  0  0  0  0  0  0  0  0  0  0  0
   59.0840   33.5230   46.4700 C   0  0  0  0  0  0  0  0  0  0  0  0
   57.7830   33.8910   46.0780 C   0  0  0  0  0  0  0  0  0  0  0  0
   57.0090   33.0200   45.2940 C   0  0  0  0  0  0  0  0  0  0  0  0
   57.5620   31.7950   44.9250 C   0  0  0  0  0  0  0  0  0  0  0  0
   56.8520   30.5510   43.9580 S   0  0  0  0  0  0  0  0  0  0  0  0
   55.5280   30.0920   44.4970 O   0  0  0  0  0  0  0  0  0  0  0  0
   56.7220   30.9880   42.5260 O   0  0  0  0  0  0  0  0  0  0  0  0
   58.1320   29.3690   44.1310 N   0  0  2  0  0  0  0  0  0  0  0  0
   57.7230   28.1450   44.8640 C   0  0  0  0  0  0  0  0  0  0  0  0
   58.6140   27.7640   46.0380 C   0  0  0  0  0  0  0  0  0  0  0  0
   58.5090   28.4350   47.2710 C   0  0  0  0  0  0  0  0  0  0  0  0
   59.3390   28.0880   48.3410 C   0  0  0  0  0  0  0  0  0  0  0  0
   60.3020   27.0900   48.1850 C   0  0  0  0  0  0  0  0  0  0  0  0
   60.4490   26.4500   46.9540 C   0  0  0  0  0  0  0  0  0  0  0  0
   59.6210   26.7920   45.8820 C   0  0  0  0  0  0  0  0  0  0  0  0
   60.6354   31.9912   46.3797 H   0  0  0  0  0  0  0  0  0  0  0  0
   59.6854   34.2092   47.0844 H   0  0  0  0  0  0  0  0  0  0  0  0
   57.3715   34.8634   46.3866 H   0  0  0  0  0  0  0  0  0  0  0  0
   55.9922   33.2975   44.9792 H   0  0  0  0  0  0  0  0  0  0  0  0
   58.4640   29.1020   43.1750 H   0  0  0  0  0  0  0  0  0  0  0  0
   56.7040   28.3025   45.2473 H   0  0  0  0  0  0  0  0  0  0  0  0
   57.7984   27.3179   44.1427 H   0  0  0  0  0  0  0  0  0  0  0  0
   57.7680   29.2387   47.3935 H   0  0  0  0  0  0  0  0  0  0  0  0
   59.2329   28.6024   49.3075 H   0  0  0  0  0  0  0  0  0  0  0  0
   60.9447   26.8082   49.0320 H   0  0  0  0  0  0  0  0  0  0  0  0
   61.2186   25.6744   46.8272 H   0  0  0  0  0  0  0  0  0  0  0  0
   59.7567   26.2982   44.9085 H   0  0  0  0  0  0  0  0  0  0  0  0
  1  2  2  0
  2  3  1  0
  3  4  2  0
  4  5  1  0
  5  6  2  0
  6  7  1  0
  7  8  2  0
  8  9  1  0
  9 10  2  0
  9 11  2  0
  9 12  1  0
 12 13  1  0
 13 14  1  0
 14 15  2  0
 15 16  1  0
 16 17  2  0
 17 18  1  0
 18 19  2  0
 12  2  1  0
 19 14  1  0
  8  3  1  0
  4 20  1  0
  5 21  1  0
  6 22  1  0
  7 23  1  0
 12 24  1  6
 13 25  1  0
 13 26  1  0
 15 27  1  0
 16 28  1  0
 17 29  1  0
 18 30  1  0
 19 31  1  0
M  CHG  1  12   1
M  END
>  <UniqueID>  (75) 
69

>  <SMILES>  (75) 
O=C1c2ccccc2S(=O)(=O)[N@@H+]1Cc1ccccc1

>  <Energy>  (75) 
53.53615586363097

>  <Genealogy>  (75) 
O=C1c2ccccc2S(=O)(=O)[NH+]1Cc1ccccc1 (protonated)
O=C1c2ccccc2S(=O)(=O)[N@@H+]1Cc1ccccc1 (chirality)
O=C1c2ccccc2S(=O)(=O)[N@@H+]1Cc1ccccc1 (3D coordinates assigned)
O=C1c2ccccc2S(=O)(=O)[N@@H+]1Cc1ccccc1 (nonaromatic ring conformer: 53.53615586363097 kcal/mol)

>  <smiles>  (75) 
O=C1c2ccccc2S(=O)(=O)N1Cc1ccccc1

>  <score_type>  (75) 
oracle

>  <origin>  (75) 
adg

>  <m_score__min__energy>  (75) 
-6.1699999999999999

>  <m_primary>  (75) 
energy

$$$$
75:0
     RDKit          3D

 55 59  0  0  0  0  0  0  0  0999 V2000
   59.4620   29.7390   49.9440 C   0  0  0  0  0  0  0  0  0  0  0  0
   58.7810   28.9690   48.9600 O   0  0  0  0  0  0  0  0  0  0  0  0
   59.4130   28.1940   47.9720 C   0  0  0  0  0  0  0  0  0  0  0  0
   59.5880   26.8030   48.1250 C   0  0  0  0  0  0  0  0  0  0  0  0
   60.2630   26.0630   47.1530 C   0  0  0  0  0  0  0  0  0  0  0  0
   60.7750   26.6970   46.0210 C   0  0  0  0  0  0  0  0  0  0  0  0
   60.6010   28.0710   45.8500 C   0  0  0  0  0  0  0  0  0  0  0  0
   59.9070   28.8270   46.8100 C   0  0  0  0  0  0  0  0  0  0  0  0
   59.7230   30.2780   46.5870 C   0  0  0  0  0  0  0  0  0  0  0  0
   60.8660   31.4630   46.9790 S   0  0  0  0  0  0  0  0  0  0  0  0
   59.9670   32.7520   46.3940 C   0  0  0  0  0  0  0  0  0  0  0  0
   60.2970   34.1050   46.4110 C   0  0  0  0  0  0  0  0  0  0  0  0
   59.3710   35.0230   45.8890 C   0  0  0  0  0  0  0  0  0  0  0  0
   59.6800   36.3810   45.8940 O   0  0  0  0  0  0  0  0  0  0  0  0
   58.1400   34.5680   45.3700 C   0  0  0  0  0  0  0  0  0  0  0  0
   57.8300   33.1980   45.3660 C   0  0  0  0  0  0  0  0  0  0  0  0
   58.7670   32.2880   45.8720 C   0  0  0  0  0  0  0  0  0  0  0  0
   58.6360   30.8880   45.9510 C   0  0  0  0  0  0  0  0  0  0  0  0
   57.5500   30.1600   45.4510 O   0  0  0  0  0  0  0  0  0  0  0  0
   57.5690   28.7880   45.1660 C   0  0  0  0  0  0  0  0  0  0  0  0
   57.0210   27.8350   46.0440 C   0  0  0  0  0  0  0  0  0  0  0  0
   57.0570   26.4760   45.7180 C   0  0  0  0  0  0  0  0  0  0  0  0
   57.6220   26.0490   44.5050 C   0  0  0  0  0  0  0  0  0  0  0  0
   57.6710   24.6460   44.1770 N   0  0  0  0  0  0  0  0  0  0  0  0
   56.9970   24.1230   42.9830 C   0  0  0  0  0  0  0  0  0  0  0  0
   56.1110   22.9150   43.3470 C   0  0  0  0  0  0  0  0  0  0  0  0
   56.5710   22.1710   44.5380 N   0  0  0  0  0  0  0  0  0  0  0  0
   58.0240   22.2660   44.7340 C   0  0  0  0  0  0  0  0  0  0  0  0
   58.4330   23.7180   45.0200 C   0  0  0  0  0  0  0  0  0  0  0  0
   58.1600   27.0060   43.6280 C   0  0  0  0  0  0  0  0  0  0  0  0
   58.1240   28.3640   43.9550 C   0  0  0  0  0  0  0  0  0  0  0  0
   59.1624   29.4002   50.9467 H   0  0  0  0  0  0  0  0  0  0  0  0
   60.5478   29.6110   49.8230 H   0  0  0  0  0  0  0  0  0  0  0  0
   59.2023   30.8010   49.8230 H   0  0  0  0  0  0  0  0  0  0  0  0
   59.1896   26.2975   49.0170 H   0  0  0  0  0  0  0  0  0  0  0  0
   60.3914   24.9779   47.2799 H   0  0  0  0  0  0  0  0  0  0  0  0
   61.3166   26.1132   45.2621 H   0  0  0  0  0  0  0  0  0  0  0  0
   61.0102   28.5660   44.9570 H   0  0  0  0  0  0  0  0  0  0  0  0
   61.2584   34.4459   46.8228 H   0  0  0  0  0  0  0  0  0  0  0  0
   59.6240   36.9330   46.7420 H   0  0  0  0  0  0  0  0  0  0  0  0
   57.4175   35.2920   44.9654 H   0  0  0  0  0  0  0  0  0  0  0  0
   56.8658   32.8450   44.9714 H   0  0  0  0  0  0  0  0  0  0  0  0
   56.5629   28.1601   46.9897 H   0  0  0  0  0  0  0  0  0  0  0  0
   56.6398   25.7357   46.4165 H   0  0  0  0  0  0  0  0  0  0  0  0
   56.3691   24.9137   42.5465 H   0  0  0  0  0  0  0  0  0  0  0  0
   57.7586   23.7993   42.2583 H   0  0  0  0  0  0  0  0  0  0  0  0
   55.0910   23.2793   43.5390 H   0  0  0  0  0  0  0  0  0  0  0  0
   56.1581   22.2176   42.4976 H   0  0  0  0  0  0  0  0  0  0  0  0
   56.0970   22.5640   45.3860 H   0  0  0  0  0  0  0  0  0  0  0  0
   58.3169   21.6329   45.5846 H   0  0  0  0  0  0  0  0  0  0  0  0
   58.5300   21.9272   43.8179 H   0  0  0  0  0  0  0  0  0  0  0  0
   58.2369   23.9469   46.0779 H   0  0  0  0  0  0  0  0  0  0  0  0
   59.5038   23.8348   44.7969 H   0  0  0  0  0  0  0  0  0  0  0  0
   58.6122   26.6842   42.6783 H   0  0  0  0  0  0  0  0  0  0  0  0
   58.5356   29.1052   43.2541 H   0  0  0  0  0  0  0  0  0  0  0  0
  1  2  1  0
  2  3  1  0
  3  4  2  0
  4  5  1  0
  5  6  2  0
  6  7  1  0
  7  8  2  0
  8  9  1  0
  9 10  1  0
 10 11  1  0
 11 12  2  0
 12 13  1  0
 13 14  1  0
 13 15  2  0
 15 16  1  0
 16 17  2  0
 17 18  1  0
 18 19  1  0
 19 20  1  0
 20 21  2  0
 21 22  1  0
 22 23  2  0
 23 24  1  0
 24 25  1  0
 25 26  1  0
 26 27  1  0
 27 28  1  0
 28 29  1  0
 23 30  1  0
 30 31  2  0
  8  3  1  0
 18  9  2  0
 31 20  1  0
 17 11  1  0
 29 24  1  0
  1 32  1  0
  1 33  1  0
  1 34  1  0
  4 35  1  0
  5 36  1  0
  6 37  1  0
  7 38  1  0
 12 39  1  0
 14 40  1  0
 15 41  1  0
 16 42  1  0
 21 43  1  0
 22 44  1  0
 25 45  1  0
 25 46  1  0
 26 47  1  0
 26 48  1  0
 27 49  1  0
 28 50  1  0
 28 51  1  0
 29 52  1  0
 29 53  1  0
 30 54  1  0
 31 55  1  0
M  END
>  <UniqueID>  (76) 
70

>  <SMILES>  (76) 
COc1ccccc1-c1sc2cc(O)ccc2c1Oc1ccc(N2CCNCC2)cc1

>  <Energy>  (76) 
111.03566435593054

>  <Genealogy>  (76) 
COc1ccccc1-c1sc2cc(O)ccc2c1Oc1ccc(N2CCNCC2)cc1 (3D coordinates assigned)
COc1ccccc1-c1sc2cc(O)ccc2c1Oc1ccc(N2CCNCC2)cc1 (nonaromatic ring conformer: 111.03566435593054 kcal/mol)

>  <smiles>  (76) 
COc1ccccc1-c1sc2cc(O)ccc2c1Oc1ccc(N2CCNCC2)cc1

>  <score_type>  (76) 
oracle

>  <origin>  (76) 
adg

>  <m_score__min__energy>  (76) 
-7.6600000000000001

>  <m_primary>  (76) 
energy

$$$$
76:0
     RDKit          3D

 54 58  0  0  0  0  0  0  0  0999 V2000
   60.5420   28.9350   44.8650 C   0  0  0  0  0  0  0  0  0  0  0  0
   59.0280   28.8880   45.1450 C   0  0  1  0  0  0  0  0  0  0  0  0
   58.5430   30.2990   45.5360 C   0  0  0  0  0  0  0  0  0  0  0  0
   57.8300   31.0730   44.5950 C   0  0  0  0  0  0  0  0  0  0  0  0
   57.3750   32.3510   44.9110 C   0  0  0  0  0  0  0  0  0  0  0  0
   57.6150   32.8930   46.1720 C   0  0  0  0  0  0  0  0  0  0  0  0
   57.1560   34.1400   46.4500 F   0  0  0  0  0  0  0  0  0  0  0  0
   58.3200   32.1590   47.1380 C   0  0  0  0  0  0  0  0  0  0  0  0
   58.5570   32.7380   48.4370 N   0  0  0  0  0  0  0  0  0  0  0  0
   59.3670   33.9390   48.6500 C   0  0  0  0  0  0  0  0  0  0  0  0
   60.7680   33.7370   48.1400 C   0  0  0  0  0  0  0  0  0  0  0  0
   61.6890   33.1650   48.9630 N   0  0  0  0  0  0  0  0  0  0  0  0
   62.9750   32.9260   48.5780 C   0  0  0  0  0  0  0  0  0  0  0  0
   63.9150   32.2960   49.5400 C   0  0  0  0  0  0  0  0  0  0  0  0
   65.2420   32.7500   49.6750 C   0  0  0  0  0  0  0  0  0  0  0  0
   66.1080   32.1470   50.5930 C   0  0  0  0  0  0  0  0  0  0  0  0
   65.6610   31.0910   51.3900 C   0  0  0  0  0  0  0  0  0  0  0  0
   64.3450   30.6390   51.2750 C   0  0  0  0  0  0  0  0  0  0  0  0
   63.4740   31.2380   50.3590 C   0  0  0  0  0  0  0  0  0  0  0  0
   63.3660   33.2620   47.2710 C   0  0  0  0  0  0  0  0  0  0  0  0
   62.4420   33.8410   46.4010 C   0  0  0  0  0  0  0  0  0  0  0  0
   61.1340   34.0840   46.8260 C   0  0  0  0  0  0  0  0  0  0  0  0
   59.9890   34.7950   45.6960 Cl  0  0  0  0  0  0  0  0  0  0  0  0
   58.7820   30.8670   46.8110 C   0  0  0  0  0  0  0  0  0  0  0  0
   58.3410   28.4620   43.9150 N   0  0  0  0  0  0  0  0  0  0  0  0
   58.2410   27.0790   43.5600 C   0  0  0  0  0  0  0  0  0  0  0  0
   57.9860   26.7280   42.3400 N   0  0  0  0  0  0  0  0  0  0  0  0
   58.4060   26.1020   44.5400 O   0  0  0  0  0  0  0  0  0  0  0  0
   58.5600   26.4030   45.9270 C   0  0  2  0  0  0  0  0  0  0  0  0
   57.4310   27.2620   46.4850 C   0  0  0  0  0  0  0  0  0  0  0  0
   58.8270   27.8570   46.3020 C   0  0  2  0  0  0  0  0  0  0  0  0
   61.0908   28.9520   45.8182 H   0  0  0  0  0  0  0  0  0  0  0  0
   60.8360   28.0455   44.2884 H   0  0  0  0  0  0  0  0  0  0  0  0
   60.7803   29.8410   44.2884 H   0  0  0  0  0  0  0  0  0  0  0  0
   57.6304   30.6598   43.5953 H   0  0  0  0  0  0  0  0  0  0  0  0
   56.8229   32.9359   44.1606 H   0  0  0  0  0  0  0  0  0  0  0  0
   58.1360   32.2700   49.2730 H   0  0  0  0  0  0  0  0  0  0  0  0
   58.9071   34.7834   48.1157 H   0  0  0  0  0  0  0  0  0  0  0  0
   59.4116   34.1469   49.7293 H   0  0  0  0  0  0  0  0  0  0  0  0
   65.5995   33.5846   49.0540 H   0  0  0  0  0  0  0  0  0  0  0  0
   67.1437   32.5054   50.6874 H   0  0  0  0  0  0  0  0  0  0  0  0
   66.3454   30.6155   52.1080 H   0  0  0  0  0  0  0  0  0  0  0  0
   63.9924   29.8100   51.9062 H   0  0  0  0  0  0  0  0  0  0  0  0
   62.4370   30.8803   50.2775 H   0  0  0  0  0  0  0  0  0  0  0  0
   64.3957   33.0694   46.9354 H   0  0  0  0  0  0  0  0  0  0  0  0
   62.7444   34.1069   45.3774 H   0  0  0  0  0  0  0  0  0  0  0  0
   59.3397   30.2885   47.5622 H   0  0  0  0  0  0  0  0  0  0  0  0
   58.1030   29.1690   43.1840 H   0  0  0  0  0  0  0  0  0  0  0  0
   57.0000   26.6830   41.9990 H   0  0  0  0  0  0  0  0  0  0  0  0
   58.7550   26.4830   41.6760 H   0  0  0  0  0  0  0  0  0  0  0  0
   59.0497   25.4533   46.1885 H   0  0  0  0  0  0  0  0  0  0  0  0
   56.6069   27.5808   45.8299 H   0  0  0  0  0  0  0  0  0  0  0  0
   56.7275   27.1721   47.3258 H   0  0  0  0  0  0  0  0  0  0  0  0
   59.5490   28.3707   46.9538 H   0  0  0  0  0  0  0  0  0  0  0  0
  2  1  1  6
  2  3  1  0
  3  4  2  0
  4  5  1  0
  5  6  2  0
  6  7  1  0
  6  8  1  0
  8  9  1  0
  9 10  1  0
 10 11  1  0
 11 12  2  0
 12 13  1  0
 13 14  1  0
 14 15  2  0
 15 16  1  0
 16 17  2  0
 17 18  1  0
 18 19  2  0
 13 20  2  0
 20 21  1  0
 21 22  2  0
 22 23  1  0
  8 24  2  0
  2 25  1  0
 25 26  1  0
 26 27  2  0
 26 28  1  0
 28 29  1  0
 29 30  1  0
 30 31  1  0
 31  2  1  0
 24  3  1  0
 31 29  1  0
 22 11  1  0
 19 14  1  0
  1 32  1  0
  1 33  1  0
  1 34  1  0
  4 35  1  0
  5 36  1  0
  9 37  1  0
 10 38  1  0
 10 39  1  0
 15 40  1  0
 16 41  1  0
 17 42  1  0
 18 43  1  0
 19 44  1  0
 20 45  1  0
 21 46  1  0
 24 47  1  0
 25 48  1  0
 27 49  1  0
 27 50  1  0
 29 51  1  1
 30 52  1  0
 30 53  1  0
 31 54  1  1
M  CHG  1  27   1
M  END
>  <UniqueID>  (77) 
71

>  <SMILES>  (77) 
C[C@@]1(c2ccc(F)c(NCc3nc(-c4ccccc4)ccc3Cl)c2)NC(=[NH2+])O[C@@H]2CC21

>  <Energy>  (77) 
337.29289037681053

>  <Genealogy>  (77) 
CC1(c2ccc(F)c(NCc3nc(-c4ccccc4)ccc3Cl)c2)NC(=[NH2+])OC2CC21 (protonated)
C[C@@]1(c2ccc(F)c(NCc3nc(-c4ccccc4)ccc3Cl)c2)NC(=[NH2+])O[C@@H]2CC21 (chirality)
C[C@@]1(c2ccc(F)c(NCc3nc(-c4ccccc4)ccc3Cl)c2)NC(=[NH2+])O[C@@H]2CC21 (3D coordinates assigned)
C[C@@]1(c2ccc(F)c(NCc3nc(-c4ccccc4)ccc3Cl)c2)NC(=[NH2+])O[C@@H]2CC21 (nonaromatic ring conformer: 337.29289037681053 kcal/mol)

>  <smiles>  (77) 
CC1(c2ccc(F)c(NCc3nc(-c4ccccc4)ccc3Cl)c2)NC(=N)OC2CC21

>  <score_type>  (77) 
oracle

>  <origin>  (77) 
adg

>  <m_score__min__energy>  (77) 
-9.0299999999999994

>  <m_primary>  (77) 
energy

$$$$
77:0
     RDKit          3D

 31 33  0  0  0  0  0  0  0  0999 V2000
   59.1870   35.3250   45.1080 O   0  0  0  0  0  0  0  0  0  0  0  0
   59.2980   34.1880   45.6430 C   0  0  0  0  0  0  0  0  0  0  0  0
   60.1330   34.0440   46.8580 C   0  0  0  0  0  0  0  0  0  0  0  0
   59.6470   34.4350   48.1170 C   0  0  0  0  0  0  0  0  0  0  0  0
   60.4550   34.3260   49.2500 C   0  0  0  0  0  0  0  0  0  0  0  0
   61.7560   33.8300   49.1400 C   0  0  0  0  0  0  0  0  0  0  0  0
   62.2590   33.4230   47.8930 C   0  0  0  0  0  0  0  0  0  0  0  0
   63.6820   32.9410   47.7640 C   0  0  0  0  0  0  0  0  0  0  0  0
   64.4820   33.6390   48.6480 F   0  0  0  0  0  0  0  0  0  0  0  0
   63.7690   31.5880   48.0490 F   0  0  0  0  0  0  0  0  0  0  0  0
   64.1490   33.1410   46.4770 F   0  0  0  0  0  0  0  0  0  0  0  0
   61.4490   33.5620   46.7510 C   0  0  0  0  0  0  0  0  0  0  0  0
   58.5940   33.0420   45.0320 C   0  0  0  0  0  0  0  0  0  0  0  0
   58.1580   31.9160   45.7280 C   0  0  0  0  0  0  0  0  0  0  0  0
   57.5250   31.1360   44.7840 C   0  0  0  0  0  0  0  0  0  0  0  0
   56.8930   29.9000   44.9060 C   0  0  0  0  0  0  0  0  0  0  0  0
   56.3140   29.3430   43.7500 C   0  0  0  0  0  0  0  0  0  0  0  0
   56.3780   30.0280   42.5170 C   0  0  0  0  0  0  0  0  0  0  0  0
   57.0210   31.2770   42.4280 C   0  0  0  0  0  0  0  0  0  0  0  0
   57.0850   31.9450   41.2500 F   0  0  0  0  0  0  0  0  0  0  0  0
   57.5890   31.8030   43.5890 C   0  0  0  0  0  0  0  0  0  0  0  0
   58.2360   32.9720   43.7250 N   0  0  0  0  0  0  0  0  0  0  0  0
   58.6243   34.8291   48.2103 H   0  0  0  0  0  0  0  0  0  0  0  0
   60.0659   34.6317   50.2324 H   0  0  0  0  0  0  0  0  0  0  0  0
   62.3908   33.7576   50.0354 H   0  0  0  0  0  0  0  0  0  0  0  0
   61.8501   33.2904   45.7634 H   0  0  0  0  0  0  0  0  0  0  0  0
   58.2902   31.6973   46.7979 H   0  0  0  0  0  0  0  0  0  0  0  0
   56.8481   29.3773   45.8728 H   0  0  0  0  0  0  0  0  0  0  0  0
   55.8084   28.3678   43.8077 H   0  0  0  0  0  0  0  0  0  0  0  0
   55.9225   29.5828   41.6202 H   0  0  0  0  0  0  0  0  0  0  0  0
   58.3940   33.6880   42.9810 H   0  0  0  0  0  0  0  0  0  0  0  0
  1  2  2  0
  2  3  1  0
  3  4  2  0
  4  5  1  0
  5  6  2  0
  6  7  1  0
  7  8  1  0
  8  9  1  0
  8 10  1  0
  8 11  1  0
  7 12  2  0
  2 13  1  0
 13 14  2  0
 14 15  1  0
 15 16  2  0
 16 17  1  0
 17 18  2  0
 18 19  1  0
 19 20  1  0
 19 21  2  0
 21 22  1  0
 12  3  1  0
 22 13  1  0
 21 15  1  0
  4 23  1  0
  5 24  1  0
  6 25  1  0
 12 26  1  0
 14 27  1  0
 16 28  1  0
 17 29  1  0
 18 30  1  0
 22 31  1  0
M  END
>  <UniqueID>  (78) 
72

>  <SMILES>  (78) 
O=C(c1cccc(C(F)(F)F)c1)c1cc2cccc(F)c2[nH]1

>  <Energy>  (78) 
71.2073082777031

>  <Genealogy>  (78) 
O=C(c1cccc(C(F)(F)F)c1)c1cc2cccc(F)c2[nH]1 (3D coordinates assigned)
O=C(c1cccc(C(F)(F)F)c1)c1cc2cccc(F)c2[nH]1 (optimized conformer: 71.2073082777031 kcal/mol)

>  <smiles>  (78) 
O=C(c1cccc(C(F)(F)F)c1)c1cc2cccc(F)c2[nH]1

>  <score_type>  (78) 
oracle

>  <origin>  (78) 
adg

>  <m_score__min__energy>  (78) 
-7.2199999999999998

>  <m_primary>  (78) 
energy

$$$$
78:0
     RDKit          3D

 36 38  0  0  0  0  0  0  0  0999 V2000
   57.7170   25.2690   44.4400 C   0  0  0  0  0  0  0  0  0  0  0  0
   58.0210   26.6930   44.5330 N   0  0  0  0  0  0  0  0  0  0  0  0
   57.3990   27.6400   43.8410 N   0  0  0  0  0  0  0  0  0  0  0  0
   57.8400   28.8530   44.2530 C   0  0  0  0  0  0  0  0  0  0  0  0
   57.2700   30.1600   43.7860 C   0  0  0  0  0  0  0  0  0  0  0  0
   57.0070   31.0490   44.9290 N   0  0  0  0  0  0  0  0  0  0  0  0
   57.1300   32.4750   44.5820 C   0  0  0  0  0  0  0  0  0  0  0  0
   58.0430   33.1950   45.5410 C   0  0  0  0  0  0  0  0  0  0  0  0
   58.8280   34.2710   45.0990 C   0  0  0  0  0  0  0  0  0  0  0  0
   59.6360   34.9530   46.0100 C   0  0  0  0  0  0  0  0  0  0  0  0
   59.6720   34.5670   47.3130 N   0  0  0  0  0  0  0  0  0  0  0  0
   58.9390   33.5150   47.7650 C   0  0  0  0  0  0  0  0  0  0  0  0
   58.1170   32.8050   46.8860 C   0  0  0  0  0  0  0  0  0  0  0  0
   58.7780   28.6500   45.2510 C   0  0  0  0  0  0  0  0  0  0  0  0
   59.4980   29.5270   46.0610 C   0  0  0  0  0  0  0  0  0  0  0  0
   60.3250   28.9690   47.0530 C   0  0  0  0  0  0  0  0  0  0  0  0
   60.4040   27.5670   47.2160 C   0  0  0  0  0  0  0  0  0  0  0  0
   59.6580   26.7070   46.3880 C   0  0  0  0  0  0  0  0  0  0  0  0
   58.8570   27.2900   45.4050 C   0  0  0  0  0  0  0  0  0  0  0  0
   57.6268   24.8465   45.4516 H   0  0  0  0  0  0  0  0  0  0  0  0
   56.7692   25.1310   43.8991 H   0  0  0  0  0  0  0  0  0  0  0  0
   58.5259   24.7560   43.8991 H   0  0  0  0  0  0  0  0  0  0  0  0
   56.6510   27.4670   43.1320 H   0  0  0  0  0  0  0  0  0  0  0  0
   57.9874   30.6455   43.1081 H   0  0  0  0  0  0  0  0  0  0  0  0
   56.3223   29.9664   43.2622 H   0  0  0  0  0  0  0  0  0  0  0  0
   56.0150   30.8880   45.2240 H   0  0  0  0  0  0  0  0  0  0  0  0
   57.5385   32.5622   43.5644 H   0  0  0  0  0  0  0  0  0  0  0  0
   56.1322   32.9342   44.6414 H   0  0  0  0  0  0  0  0  0  0  0  0
   58.8066   34.5748   44.0420 H   0  0  0  0  0  0  0  0  0  0  0  0
   60.2450   35.8047   45.6729 H   0  0  0  0  0  0  0  0  0  0  0  0
   58.9931   33.2224   48.8240 H   0  0  0  0  0  0  0  0  0  0  0  0
   57.5320   31.9461   47.2465 H   0  0  0  0  0  0  0  0  0  0  0  0
   59.4222   30.6164   45.9292 H   0  0  0  0  0  0  0  0  0  0  0  0
   60.9146   29.6286   47.7067 H   0  0  0  0  0  0  0  0  0  0  0  0
   61.0539   27.1445   47.9965 H   0  0  0  0  0  0  0  0  0  0  0  0
   59.7047   25.6149   46.5113 H   0  0  0  0  0  0  0  0  0  0  0  0
  1  2  1  0
  2  3  1  0
  3  4  2  0
  4  5  1  0
  5  6  1  0
  6  7  1  0
  7  8  1  0
  8  9  2  0
  9 10  1  0
 10 11  2  0
 11 12  1  0
 12 13  2  0
  4 14  1  0
 14 15  2  0
 15 16  1  0
 16 17  2  0
 17 18  1  0
 18 19  2  0
 19  2  1  0
 13  8  1  0
 19 14  1  0
  1 20  1  0
  1 21  1  0
  1 22  1  0
  3 23  1  0
  5 24  1  0
  5 25  1  0
  6 26  1  0
  7 27  1  0
  7 28  1  0
  9 29  1  0
 10 30  1  0
 12 31  1  0
 13 32  1  0
 15 33  1  0
 16 34  1  0
 17 35  1  0
 18 36  1  0
M  CHG  1   3   1
M  END
>  <UniqueID>  (79) 
73

>  <SMILES>  (79) 
Cn1[nH+]c(CNCc2ccncc2)c2ccccc21

>  <Energy>  (79) 
73.29180545588433

>  <Genealogy>  (79) 
Cn1[nH+]c(CNCc2ccncc2)c2ccccc21 (protonated)
Cn1[nH+]c(CNCc2ccncc2)c2ccccc21 (3D coordinates assigned)
Cn1[nH+]c(CNCc2ccncc2)c2ccccc21 (optimized conformer: 73.29180545588433 kcal/mol)

>  <smiles>  (79) 
Cn1nc(CNCc2ccncc2)c2ccccc21

>  <score_type>  (79) 
oracle

>  <origin>  (79) 
adg

>  <m_score__min__energy>  (79) 
-5.8600000000000003

>  <m_primary>  (79) 
energy

$$$$
79:0
     RDKit          3D

 35 36  0  0  0  0  0  0  0  0999 V2000
   57.1200   30.7220   43.8350 C   0  0  0  0  0  0  0  0  0  0  0  0
   57.4090   30.6660   45.2290 O   0  0  0  0  0  0  0  0  0  0  0  0
   58.4000   31.4290   45.8710 C   0  0  0  0  0  0  0  0  0  0  0  0
   58.1630   32.7590   46.2760 C   0  0  0  0  0  0  0  0  0  0  0  0
   59.1690   33.5050   46.9070 C   0  0  0  0  0  0  0  0  0  0  0  0
   58.8920   34.9050   47.3690 C   0  0  0  0  0  0  0  0  0  0  0  0
   60.4090   32.9090   47.1660 C   0  0  0  0  0  0  0  0  0  0  0  0
   60.6550   31.5940   46.7700 C   0  0  0  0  0  0  0  0  0  0  0  0
   59.6620   30.8460   46.1170 C   0  0  0  0  0  0  0  0  0  0  0  0
   59.9650   29.4210   45.7270 C   0  0  0  0  0  0  0  0  0  0  0  0
   58.7390   28.6240   45.7260 N   0  0  0  0  0  0  0  0  0  0  0  0
   58.7560   27.1860   45.7120 C   0  0  0  0  0  0  0  0  0  0  0  0
   59.8570   26.5770   45.6120 O   0  0  0  0  0  0  0  0  0  0  0  0
   57.5010   26.4030   45.7930 C   0  0  0  0  0  0  0  0  0  0  0  0
   57.5030   24.9990   45.7090 C   0  0  0  0  0  0  0  0  0  0  0  0
   56.3030   24.2890   45.7820 C   0  0  0  0  0  0  0  0  0  0  0  0
   55.1020   24.9870   45.9330 C   0  0  0  0  0  0  0  0  0  0  0  0
   54.0120   24.3620   46.0020 O   0  0  0  0  0  0  0  0  0  0  0  0
   55.1100   26.3430   46.0030 N   0  0  0  0  0  0  0  0  0  0  0  0
   56.2650   27.0580   45.9330 C   0  0  0  0  0  0  0  0  0  0  0  0
   56.0494   30.9294   43.6905 H   0  0  0  0  0  0  0  0  0  0  0  0
   57.7146   31.5216   43.3691 H   0  0  0  0  0  0  0  0  0  0  0  0
   57.3729   29.7582   43.3691 H   0  0  0  0  0  0  0  0  0  0  0  0
   57.1789   33.2159   46.0951 H   0  0  0  0  0  0  0  0  0  0  0  0
   58.8863   34.9339   48.4686 H   0  0  0  0  0  0  0  0  0  0  0  0
   59.6744   35.5782   46.9886 H   0  0  0  0  0  0  0  0  0  0  0  0
   57.9122   35.2296   46.9886 H   0  0  0  0  0  0  0  0  0  0  0  0
   61.1932   33.4803   47.6843 H   0  0  0  0  0  0  0  0  0  0  0  0
   61.6360   31.1389   46.9712 H   0  0  0  0  0  0  0  0  0  0  0  0
   60.4081   29.4066   44.7203 H   0  0  0  0  0  0  0  0  0  0  0  0
   60.6698   28.9927   46.4549 H   0  0  0  0  0  0  0  0  0  0  0  0
   57.8320   29.1360   45.6700 H   0  0  0  0  0  0  0  0  0  0  0  0
   58.4531   24.4586   45.5854 H   0  0  0  0  0  0  0  0  0  0  0  0
   56.3031   23.1907   45.7212 H   0  0  0  0  0  0  0  0  0  0  0  0
   56.2317   28.1562   45.9863 H   0  0  0  0  0  0  0  0  0  0  0  0
  1  2  1  0
  2  3  1  0
  3  4  2  0
  4  5  1  0
  5  6  1  0
  5  7  2  0
  7  8  1  0
  8  9  2  0
  9 10  1  0
 10 11  1  0
 11 12  1  0
 12 13  2  0
 12 14  1  0
 14 15  1  0
 15 16  2  0
 16 17  1  0
 17 18  2  0
 17 19  1  0
 19 20  1  0
  9  3  1  0
 20 14  2  0
  1 21  1  0
  1 22  1  0
  1 23  1  0
  4 24  1  0
  6 25  1  0
  6 26  1  0
  6 27  1  0
  7 28  1  0
  8 29  1  0
 10 30  1  0
 10 31  1  0
 11 32  1  0
 15 33  1  0
 16 34  1  0
 20 35  1  0
M  CHG  1  19  -1
M  END
>  <UniqueID>  (80) 
74

>  <SMILES>  (80) 
COc1cc(C)ccc1CNC(=O)c1ccc(=O)[n-]c1

>  <Energy>  (80) 
35.846456786562314

>  <Genealogy>  (80) 
COc1cc(C)ccc1CNC(=O)c1ccc(=O)[n-]c1 (protonated)
COc1cc(C)ccc1CNC(=O)c1ccc(=O)[n-]c1 (3D coordinates assigned)
COc1cc(C)ccc1CNC(=O)c1ccc(=O)[n-]c1 (optimized conformer: 35.846456786562314 kcal/mol)

>  <smiles>  (80) 
COc1cc(C)ccc1CNC(=O)c1ccc(=O)[nH]c1

>  <score_type>  (80) 
oracle

>  <origin>  (80) 
adg

>  <m_score__min__energy>  (80) 
-8.5600000000000005

>  <m_primary>  (80) 
energy

$$$$
80:0
     RDKit          3D

 48 51  0  0  0  0  0  0  0  0999 V2000
   51.0270   32.2930   49.9150 O   0  0  0  0  0  0  0  0  0  0  0  0
   51.1760   32.0920   51.1490 C   0  0  0  0  0  0  0  0  0  0  0  0
   50.2950   32.6920   52.0410 O   0  0  0  0  0  0  0  0  0  0  0  0
   52.2730   31.2330   51.6440 C   0  0  0  0  0  0  0  0  0  0  0  0
   51.9910   30.0520   52.3540 C   0  0  0  0  0  0  0  0  0  0  0  0
   53.0250   29.2460   52.8320 C   0  0  0  0  0  0  0  0  0  0  0  0
   54.3590   29.6070   52.6070 C   0  0  0  0  0  0  0  0  0  0  0  0
   55.4100   28.8170   53.0830 C   0  0  0  0  0  0  0  0  0  0  0  0
   56.7280   29.2010   52.8500 C   0  0  0  0  0  0  0  0  0  0  0  0
   56.9940   30.3810   52.1390 C   0  0  0  0  0  0  0  0  0  0  0  0
   58.3510   30.7980   51.9050 N   0  0  0  0  0  0  0  0  0  0  0  0
   58.6940   32.2250   51.9680 C   0  0  0  0  0  0  0  0  0  0  0  0
   58.9650   32.7520   50.5860 C   0  0  0  0  0  0  0  0  0  0  0  0
   59.9910   33.6860   50.3660 C   0  0  0  0  0  0  0  0  0  0  0  0
   60.2160   34.1960   49.0830 C   0  0  0  0  0  0  0  0  0  0  0  0
   59.4160   33.7840   48.0150 C   0  0  0  0  0  0  0  0  0  0  0  0
   59.6340   34.2840   46.7720 F   0  0  0  0  0  0  0  0  0  0  0  0
   58.3860   32.8630   48.2280 C   0  0  0  0  0  0  0  0  0  0  0  0
   58.1600   32.3460   49.5070 C   0  0  0  0  0  0  0  0  0  0  0  0
   59.4040   29.8020   51.6720 C   0  0  0  0  0  0  0  0  0  0  0  0
   59.7790   29.7790   50.2180 C   0  0  0  0  0  0  0  0  0  0  0  0
   58.9010   29.2310   49.2640 C   0  0  0  0  0  0  0  0  0  0  0  0
   59.2360   29.2500   47.9070 C   0  0  0  0  0  0  0  0  0  0  0  0
   60.4430   29.8210   47.4900 C   0  0  0  0  0  0  0  0  0  0  0  0
   60.7660   29.8350   46.1730 F   0  0  0  0  0  0  0  0  0  0  0  0
   61.3130   30.3820   48.4320 C   0  0  0  0  0  0  0  0  0  0  0  0
   60.9810   30.3700   49.7910 C   0  0  0  0  0  0  0  0  0  0  0  0
   55.9590   31.1420   51.6800 N   0  0  0  0  0  0  0  0  0  0  0  0
   54.6570   30.7890   51.8940 C   0  0  0  0  0  0  0  0  0  0  0  0
   53.6120   31.5920   51.4160 C   0  0  0  0  0  0  0  0  0  0  0  0
   50.9456   29.7610   52.5341 H   0  0  0  0  0  0  0  0  0  0  0  0
   52.7916   28.3252   53.3867 H   0  0  0  0  0  0  0  0  0  0  0  0
   55.1959   27.8934   53.6408 H   0  0  0  0  0  0  0  0  0  0  0  0
   57.5575   28.5816   53.2219 H   0  0  0  0  0  0  0  0  0  0  0  0
   57.8555   32.7816   52.4118 H   0  0  0  0  0  0  0  0  0  0  0  0
   59.5955   32.3520   52.5853 H   0  0  0  0  0  0  0  0  0  0  0  0
   60.6197   34.0175   51.2056 H   0  0  0  0  0  0  0  0  0  0  0  0
   61.0244   34.9228   48.9150 H   0  0  0  0  0  0  0  0  0  0  0  0
   57.7521   32.5445   47.3874 H   0  0  0  0  0  0  0  0  0  0  0  0
   57.3502   31.6196   49.6698 H   0  0  0  0  0  0  0  0  0  0  0  0
   60.2889   30.0607   52.2720 H   0  0  0  0  0  0  0  0  0  0  0  0
   59.0316   28.8089   51.9638 H   0  0  0  0  0  0  0  0  0  0  0  0
   57.9482   28.7864   49.5873 H   0  0  0  0  0  0  0  0  0  0  0  0
   58.5493   28.8152   47.1658 H   0  0  0  0  0  0  0  0  0  0  0  0
   62.2605   30.8336   48.1029 H   0  0  0  0  0  0  0  0  0  0  0  0
   61.6615   30.8237   50.5266 H   0  0  0  0  0  0  0  0  0  0  0  0
   56.1740   32.0110   51.1380 H   0  0  0  0  0  0  0  0  0  0  0  0
   53.8425   32.5112   50.8575 H   0  0  0  0  0  0  0  0  0  0  0  0
  1  2  2  0
  2  3  1  0
  2  4  1  0
  4  5  2  0
  5  6  1  0
  6  7  2  0
  7  8  1  0
  8  9  2  0
  9 10  1  0
 10 11  1  0
 11 12  1  0
 12 13  1  0
 13 14  2  0
 14 15  1  0
 15 16  2  0
 16 17  1  0
 16 18  1  0
 18 19  2  0
 11 20  1  0
 20 21  1  0
 21 22  2  0
 22 23  1  0
 23 24  2  0
 24 25  1  0
 24 26  1  0
 26 27  2  0
 10 28  2  0
 28 29  1  0
 29 30  2  0
 30  4  1  0
 29  7  1  0
 19 13  1  0
 27 21  1  0
  5 31  1  0
  6 32  1  0
  8 33  1  0
  9 34  1  0
 12 35  1  0
 12 36  1  0
 14 37  1  0
 15 38  1  0
 18 39  1  0
 19 40  1  0
 20 41  1  0
 20 42  1  0
 22 43  1  0
 23 44  1  0
 26 45  1  0
 27 46  1  0
 28 47  1  0
 30 48  1  0
M  CHG  2   3  -1  28   1
M  END
>  <UniqueID>  (81) 
75

>  <SMILES>  (81) 
O=C([O-])c1ccc2ccc(N(Cc3ccc(F)cc3)Cc3ccc(F)cc3)[nH+]c2c1

>  <Energy>  (81) 
57.054791258254205

>  <Genealogy>  (81) 
O=C([O-])c1ccc2ccc(N(Cc3ccc(F)cc3)Cc3ccc(F)cc3)[nH+]c2c1 (protonated)
O=C([O-])c1ccc2ccc(N(Cc3ccc(F)cc3)Cc3ccc(F)cc3)[nH+]c2c1 (3D coordinates assigned)
O=C([O-])c1ccc2ccc(N(Cc3ccc(F)cc3)Cc3ccc(F)cc3)[nH+]c2c1 (optimized conformer: 57.054791258254205 kcal/mol)

>  <smiles>  (81) 
O=C(O)c1ccc2ccc(N(Cc3ccc(F)cc3)Cc3ccc(F)cc3)nc2c1

>  <score_type>  (81) 
oracle

>  <origin>  (81) 
adg

>  <m_score__min__energy>  (81) 
-10.289999999999999

>  <m_primary>  (81) 
energy

$$$$
81:0
     RDKit          3D

 40 42  0  0  0  0  0  0  0  0999 V2000
   51.4440   23.8650   44.5550 C   0  0  0  0  0  0  0  0  0  0  0  0
   52.5240   22.9740   44.8360 O   0  0  0  0  0  0  0  0  0  0  0  0
   53.8460   23.4050   44.9750 C   0  0  0  0  0  0  0  0  0  0  0  0
   54.7960   22.7130   44.5070 O   0  0  0  0  0  0  0  0  0  0  0  0
   54.0950   24.6460   45.6480 N   0  0  0  0  0  0  0  0  0  0  0  0
   55.2330   25.2740   45.7120 C   0  0  0  0  0  0  0  0  0  0  0  0
   55.3530   26.6010   45.9960 N   0  0  0  0  0  0  0  0  0  0  0  0
   56.6850   26.7780   45.9910 C   0  0  0  0  0  0  0  0  0  0  0  0
   57.3900   27.9490   46.2550 C   0  0  0  0  0  0  0  0  0  0  0  0
   58.7990   27.8880   46.2340 C   0  0  0  0  0  0  0  0  0  0  0  0
   59.7620   29.3050   46.6370 S   0  0  0  0  0  0  0  0  0  0  0  0
   60.6450   28.9660   47.7970 O   0  0  0  0  0  0  0  0  0  0  0  0
   60.6130   29.7240   45.4790 O   0  0  0  0  0  0  0  0  0  0  0  0
   58.7130   30.6110   47.0790 N   0  0  0  0  0  0  0  0  0  0  0  0
   58.6160   31.8510   46.3680 C   0  0  0  0  0  0  0  0  0  0  0  0
   59.4120   32.9540   46.7150 C   0  0  0  0  0  0  0  0  0  0  0  0
   59.3280   34.1430   45.9850 C   0  0  0  0  0  0  0  0  0  0  0  0
   58.4510   34.2430   44.9060 C   0  0  0  0  0  0  0  0  0  0  0  0
   57.6440   33.1550   44.5600 C   0  0  0  0  0  0  0  0  0  0  0  0
   57.7120   31.9540   45.2970 C   0  0  0  0  0  0  0  0  0  0  0  0
   56.9100   30.8430   44.9880 O   0  0  0  0  0  0  0  0  0  0  0  0
   56.9240   30.1600   43.7390 C   0  0  0  0  0  0  0  0  0  0  0  0
   59.4530   26.6650   45.9420 C   0  0  0  0  0  0  0  0  0  0  0  0
   58.7080   25.5030   45.6790 C   0  0  0  0  0  0  0  0  0  0  0  0
   57.3220   25.6050   45.7180 C   0  0  0  0  0  0  0  0  0  0  0  0
   56.4140   24.6390   45.5370 N   0  0  0  0  0  0  0  0  0  0  0  0
   51.0093   24.2236   45.4997 H   0  0  0  0  0  0  0  0  0  0  0  0
   51.8170   24.7216   43.9744 H   0  0  0  0  0  0  0  0  0  0  0  0
   50.6738   23.3360   43.9744 H   0  0  0  0  0  0  0  0  0  0  0  0
   56.8654   28.8910   46.4728 H   0  0  0  0  0  0  0  0  0  0  0  0
   60.1055   32.8822   47.5659 H   0  0  0  0  0  0  0  0  0  0  0  0
   59.9558   35.0025   46.2628 H   0  0  0  0  0  0  0  0  0  0  0  0
   58.3940   35.1768   44.3275 H   0  0  0  0  0  0  0  0  0  0  0  0
   56.9523   33.2359   43.7085 H   0  0  0  0  0  0  0  0  0  0  0  0
   56.9463   29.0744   43.9150 H   0  0  0  0  0  0  0  0  0  0  0  0
   56.0203   30.4205   43.1685 H   0  0  0  0  0  0  0  0  0  0  0  0
   57.8162   30.4573   43.1685 H   0  0  0  0  0  0  0  0  0  0  0  0
   60.5521   26.6252   45.9211 H   0  0  0  0  0  0  0  0  0  0  0  0
   59.2032   24.5477   45.4506 H   0  0  0  0  0  0  0  0  0  0  0  0
   56.5810   23.6300   45.3260 H   0  0  0  0  0  0  0  0  0  0  0  0
  1  2  1  0
  2  3  1  0
  3  4  2  0
  3  5  1  0
  5  6  2  3
  6  7  1  0
  7  8  1  0
  8  9  2  0
  9 10  1  0
 10 11  1  0
 11 12  2  0
 11 13  2  0
 11 14  1  0
 14 15  1  0
 15 16  2  0
 16 17  1  0
 17 18  2  0
 18 19  1  0
 19 20  2  0
 20 21  1  0
 21 22  1  0
 10 23  2  0
 23 24  1  0
 24 25  2  0
 25 26  1  0
 26  6  1  0
 25  8  1  0
 20 15  1  0
  1 27  1  0
  1 28  1  0
  1 29  1  0
  9 30  1  0
 16 31  1  0
 17 32  1  0
 18 33  1  0
 19 34  1  0
 22 35  1  0
 22 36  1  0
 22 37  1  0
 23 38  1  0
 24 39  1  0
 26 40  1  0
M  CHG  2   7  -1  14  -1
M  END
>  <UniqueID>  (82) 
76

>  <SMILES>  (82) 
COC(=O)N=c1[n-]c2cc(S(=O)(=O)[N-]c3ccccc3OC)ccc2[nH]1

>  <Energy>  (82) 
82.45746929171368

>  <Genealogy>  (82) 
COC(=O)N=c1[n-]c2cc(S(=O)(=O)[N-]c3ccccc3OC)ccc2[nH]1 (protonated)
COC(=O)N=c1[n-]c2cc(S(=O)(=O)[N-]c3ccccc3OC)ccc2[nH]1 (3D coordinates assigned)
COC(=O)N=c1[n-]c2cc(S(=O)(=O)[N-]c3ccccc3OC)ccc2[nH]1 (optimized conformer: 82.45746929171368 kcal/mol)

>  <smiles>  (82) 
COC(=O)N=c1[nH]c2ccc(S(=O)(=O)Nc3ccccc3OC)cc2[nH]1

>  <score_type>  (82) 
oracle

>  <origin>  (82) 
adg

>  <m_score__min__energy>  (82) 
-10.69

>  <m_primary>  (82) 
energy

$$$$
82:0
     RDKit          3D

 39 41  0  0  0  0  0  0  0  0999 V2000
   62.8360   33.5320   46.5820 O   0  0  0  0  0  0  0  0  0  0  0  0
   62.2420   33.1030   47.6050 C   0  0  0  0  0  0  0  0  0  0  0  0
   61.4760   34.0310   48.4650 C   0  0  0  0  0  0  0  0  0  0  0  0
   60.1460   34.2060   48.4220 C   0  0  0  0  0  0  0  0  0  0  0  0
   59.3010   34.0280   47.2220 C   0  0  0  0  0  0  0  0  0  0  0  0
   59.6060   34.7470   46.0550 C   0  0  0  0  0  0  0  0  0  0  0  0
   58.8480   34.5620   44.8940 C   0  0  0  0  0  0  0  0  0  0  0  0
   57.7960   33.6430   44.8830 C   0  0  0  0  0  0  0  0  0  0  0  0
   57.5060   32.8990   46.0300 C   0  0  0  0  0  0  0  0  0  0  0  0
   58.2600   33.0820   47.1940 C   0  0  0  0  0  0  0  0  0  0  0  0
   62.2190   31.6890   47.8430 N   0  0  0  0  0  0  0  0  0  0  0  0
   61.0880   30.8210   47.6820 C   0  0  0  0  0  0  0  0  0  0  0  0
   60.6330   30.5390   46.3880 C   0  0  0  0  0  0  0  0  0  0  0  0
   59.5490   29.6780   46.1910 C   0  0  0  0  0  0  0  0  0  0  0  0
   58.9300   29.0570   47.2900 C   0  0  0  0  0  0  0  0  0  0  0  0
   57.7990   28.1900   47.1240 N   0  0  0  0  0  0  0  0  0  0  0  0
   57.2430   27.7570   45.8770 C   0  0  0  0  0  0  0  0  0  0  0  0
   57.2320   26.5260   45.6110 O   0  0  0  0  0  0  0  0  0  0  0  0
   56.7560   28.7180   44.8700 C   0  0  0  0  0  0  0  0  0  0  0  0
   57.4780   29.1940   43.7930 C   0  0  0  0  0  0  0  0  0  0  0  0
   56.6370   30.0680   43.1390 C   0  0  0  0  0  0  0  0  0  0  0  0
   55.4580   30.0760   43.8570 C   0  0  0  0  0  0  0  0  0  0  0  0
   55.5610   29.2630   44.8840 O   0  0  0  0  0  0  0  0  0  0  0  0
   59.3850   29.3400   48.5830 C   0  0  0  0  0  0  0  0  0  0  0  0
   60.4680   30.2010   48.7800 C   0  0  0  0  0  0  0  0  0  0  0  0
   62.0413   34.6250   49.1982 H   0  0  0  0  0  0  0  0  0  0  0  0
   59.6446   34.5058   49.3541 H   0  0  0  0  0  0  0  0  0  0  0  0
   60.4446   35.4588   46.0538 H   0  0  0  0  0  0  0  0  0  0  0  0
   59.0807   35.1411   43.9882 H   0  0  0  0  0  0  0  0  0  0  0  0
   57.1958   33.5049   43.9715 H   0  0  0  0  0  0  0  0  0  0  0  0
   56.6837   32.1685   46.0175 H   0  0  0  0  0  0  0  0  0  0  0  0
   58.0382   32.4843   48.0904 H   0  0  0  0  0  0  0  0  0  0  0  0
   61.1314   30.9976   45.5212 H   0  0  0  0  0  0  0  0  0  0  0  0
   59.1794   29.4859   45.1729 H   0  0  0  0  0  0  0  0  0  0  0  0
   58.5092   28.9304   43.5153 H   0  0  0  0  0  0  0  0  0  0  0  0
   56.8602   30.6433   42.2284 H   0  0  0  0  0  0  0  0  0  0  0  0
   54.5679   30.6722   43.6074 H   0  0  0  0  0  0  0  0  0  0  0  0
   58.8868   28.8816   49.4500 H   0  0  0  0  0  0  0  0  0  0  0  0
   60.8364   30.3940   49.7983 H   0  0  0  0  0  0  0  0  0  0  0  0
  1  2  2  0
  2  3  1  0
  3  4  2  3
  4  5  1  0
  5  6  2  0
  6  7  1  0
  7  8  2  0
  8  9  1  0
  9 10  2  0
  2 11  1  0
 11 12  1  0
 12 13  2  0
 13 14  1  0
 14 15  2  0
 15 16  1  0
 16 17  1  0
 17 18  2  0
 17 19  1  0
 19 20  2  0
 20 21  1  0
 21 22  2  0
 22 23  1  0
 15 24  1  0
 24 25  2  0
 10  5  1  0
 25 12  1  0
 23 19  1  0
  3 26  1  0
  4 27  1  0
  6 28  1  0
  7 29  1  0
  8 30  1  0
  9 31  1  0
 10 32  1  0
 13 33  1  0
 14 34  1  0
 20 35  1  0
 21 36  1  0
 22 37  1  0
 24 38  1  0
 25 39  1  0
M  CHG  2  11  -1  16  -1
M  END
>  <UniqueID>  (83) 
77

>  <SMILES>  (83) 
O=C(C=Cc1ccccc1)[N-]c1ccc([N-]C(=O)c2ccco2)cc1

>  <Energy>  (83) 
83.64800362191697

>  <Genealogy>  (83) 
O=C(C=Cc1ccccc1)[N-]c1ccc([N-]C(=O)c2ccco2)cc1 (protonated)
O=C(C=Cc1ccccc1)[N-]c1ccc([N-]C(=O)c2ccco2)cc1 (3D coordinates assigned)
O=C(C=Cc1ccccc1)[N-]c1ccc([N-]C(=O)c2ccco2)cc1 (optimized conformer: 83.64800362191697 kcal/mol)

>  <smiles>  (83) 
O=C(C=Cc1ccccc1)Nc1ccc(NC(=O)c2ccco2)cc1

>  <score_type>  (83) 
oracle

>  <origin>  (83) 
adg

>  <m_score__min__energy>  (83) 
-10.859999999999999

>  <m_primary>  (83) 
energy

$$$$
83:0
     RDKit          3D

 32 34  0  0  0  0  0  0  0  0999 V2000
   56.0480   30.0410   45.0460 O   0  0  0  0  0  0  0  0  0  0  0  0
   57.1850   30.4820   44.1690 S   0  0  0  0  0  0  0  0  0  0  0  0
   56.7060   30.7070   42.7620 O   0  0  0  0  0  0  0  0  0  0  0  0
   58.4260   29.3020   44.1650 N   0  0  0  0  0  0  0  0  0  0  0  0
   59.4490   29.3880   44.9450 C   0  0  0  0  0  0  0  0  0  0  0  0
   59.5950   30.4570   46.0170 C   0  0  2  0  0  0  0  0  0  0  0  0
   58.8810   30.0160   47.2760 C   0  0  0  0  0  0  0  0  0  0  0  0
   59.2240   30.4010   48.4740 N   0  0  0  0  0  0  0  0  0  0  0  0
   59.9860   31.5700   48.7970 C   0  0  0  0  0  0  0  0  0  0  0  0
   59.3480   32.6640   49.3960 C   0  0  0  0  0  0  0  0  0  0  0  0
   60.0680   33.8240   49.6910 C   0  0  0  0  0  0  0  0  0  0  0  0
   61.4280   33.9050   49.3730 C   0  0  0  0  0  0  0  0  0  0  0  0
   62.0650   32.8280   48.7460 C   0  0  0  0  0  0  0  0  0  0  0  0
   63.7640   32.9390   48.3230 Cl  0  0  0  0  0  0  0  0  0  0  0  0
   61.3430   31.6660   48.4490 C   0  0  0  0  0  0  0  0  0  0  0  0
   59.0760   31.8200   45.5870 C   0  0  0  0  0  0  0  0  0  0  0  0
   59.6840   32.9880   46.0800 C   0  0  0  0  0  0  0  0  0  0  0  0
   59.1610   34.2460   45.7650 C   0  0  0  0  0  0  0  0  0  0  0  0
   58.0180   34.3510   44.9680 C   0  0  0  0  0  0  0  0  0  0  0  0
   57.3940   33.1980   44.4850 C   0  0  0  0  0  0  0  0  0  0  0  0
   57.9180   31.9380   44.7960 C   0  0  0  0  0  0  0  0  0  0  0  0
   60.2572   28.6508   44.8293 H   0  0  0  0  0  0  0  0  0  0  0  0
   60.6732   30.5731   46.2014 H   0  0  0  0  0  0  0  0  0  0  0  0
   58.0249   29.3326   47.1753 H   0  0  0  0  0  0  0  0  0  0  0  0
   58.2757   32.6092   49.6350 H   0  0  0  0  0  0  0  0  0  0  0  0
   59.5651   34.6748   50.1739 H   0  0  0  0  0  0  0  0  0  0  0  0
   61.9965   34.8149   49.6157 H   0  0  0  0  0  0  0  0  0  0  0  0
   61.8400   30.8260   47.9417 H   0  0  0  0  0  0  0  0  0  0  0  0
   60.5770   32.9117   46.7177 H   0  0  0  0  0  0  0  0  0  0  0  0
   59.6503   35.1548   46.1454 H   0  0  0  0  0  0  0  0  0  0  0  0
   57.6093   35.3419   44.7208 H   0  0  0  0  0  0  0  0  0  0  0  0
   56.4919   33.2804   43.8610 H   0  0  0  0  0  0  0  0  0  0  0  0
  1  2  2  0
  2  3  2  0
  2  4  1  0
  4  5  2  0
  5  6  1  0
  6  7  1  0
  7  8  2  3
  8  9  1  0
  9 10  2  0
 10 11  1  0
 11 12  2  0
 12 13  1  0
 13 14  1  0
 13 15  2  0
  6 16  1  0
 16 17  2  0
 17 18  1  0
 18 19  2  0
 19 20  1  0
 20 21  2  0
 21  2  1  0
 15  9  1  0
 21 16  1  0
  5 22  1  0
  6 23  1  1
  7 24  1  0
 10 25  1  0
 11 26  1  0
 12 27  1  0
 15 28  1  0
 17 29  1  0
 18 30  1  0
 19 31  1  0
 20 32  1  0
M  END
>  <UniqueID>  (84) 
78

>  <SMILES>  (84) 
O=S1(=O)N=C[C@H](C=Nc2cccc(Cl)c2)c2ccccc21

>  <Energy>  (84) 
49.26970787035684

>  <Genealogy>  (84) 
O=S1(=O)N=C[C@H](C=Nc2cccc(Cl)c2)c2ccccc21 (chirality)
O=S1(=O)N=C[C@H](C=Nc2cccc(Cl)c2)c2ccccc21 (3D coordinates assigned)
O=S1(=O)N=C[C@H](C=Nc2cccc(Cl)c2)c2ccccc21 (nonaromatic ring conformer: 49.26970787035684 kcal/mol)

>  <smiles>  (84) 
O=S1(=O)N=CC(C=Nc2cccc(Cl)c2)c2ccccc21

>  <score_type>  (84) 
oracle

>  <origin>  (84) 
adg

>  <m_score__min__energy>  (84) 
-7.8399999999999999

>  <m_primary>  (84) 
energy

$$$$
84:0
     RDKit          3D

 39 42  0  0  0  0  0  0  0  0999 V2000
   54.7920   25.8350   46.3920 H   0  0  0  0  0  0  0  0  0  0  0  0
   55.8320   25.8850   46.3010 N   0  0  0  0  0  0  0  0  0  0  0  0
   56.4550   27.0190   46.2810 C   0  0  0  0  0  0  0  0  0  0  0  0
   57.5680   27.1990   47.0550 N   0  0  0  0  0  0  0  0  0  0  0  0
   58.2010   28.3970   47.0200 C   0  0  0  0  0  0  0  0  0  0  0  0
   57.7560   29.4300   46.2460 C   0  0  0  0  0  0  0  0  0  0  0  0
   58.6410   30.4820   46.4420 C   0  0  0  0  0  0  0  0  0  0  0  0
   58.6070   31.8400   45.8630 C   0  0  0  0  0  0  0  0  0  0  0  0
   58.3660   32.0300   44.4920 C   0  0  0  0  0  0  0  0  0  0  0  0
   58.2184   31.1594   43.8360 H   0  0  0  0  0  0  0  0  0  0  0  0
   58.3130   33.3210   43.9580 C   0  0  0  0  0  0  0  0  0  0  0  0
   58.1357   33.4632   42.8817 H   0  0  0  0  0  0  0  0  0  0  0  0
   58.4850   34.4320   44.7900 C   0  0  0  0  0  0  0  0  0  0  0  0
   58.4479   35.4471   44.3678 H   0  0  0  0  0  0  0  0  0  0  0  0
   58.7040   34.2510   46.1580 C   0  0  0  0  0  0  0  0  0  0  0  0
   58.8349   35.1246   46.8135 H   0  0  0  0  0  0  0  0  0  0  0  0
   58.7570   32.9610   46.6950 C   0  0  0  0  0  0  0  0  0  0  0  0
   58.9170   32.8238   47.7746 H   0  0  0  0  0  0  0  0  0  0  0  0
   59.6010   30.0040   47.3330 C   0  0  0  0  0  0  0  0  0  0  0  0
   60.4619   30.5828   47.6989 H   0  0  0  0  0  0  0  0  0  0  0  0
   59.3230   28.7260   47.6840 N   0  0  0  0  0  0  0  0  0  0  0  0
   60.1000   27.8880   48.5970 C   0  0  0  0  0  0  0  0  0  0  0  0
   59.7008   26.8632   48.5773 H   0  0  0  0  0  0  0  0  0  0  0  0
   61.1520   27.8891   48.2757 H   0  0  0  0  0  0  0  0  0  0  0  0
   60.0160   28.4280   50.0040 C   0  0  0  0  0  0  0  0  0  0  0  0
   59.3500   29.6440   50.2340 C   0  0  0  0  0  0  0  0  0  0  0  0
   58.8722   30.1717   49.3954 H   0  0  0  0  0  0  0  0  0  0  0  0
   59.2900   30.1880   51.5200 C   0  0  0  0  0  0  0  0  0  0  0  0
   58.7625   31.1381   51.6902 H   0  0  0  0  0  0  0  0  0  0  0  0
   59.8980   29.5280   52.5880 C   0  0  0  0  0  0  0  0  0  0  0  0
   59.8456   29.9556   53.6001 H   0  0  0  0  0  0  0  0  0  0  0  0
   60.5730   28.3250   52.3730 C   0  0  0  0  0  0  0  0  0  0  0  0
   61.0542   27.8095   53.2172 H   0  0  0  0  0  0  0  0  0  0  0  0
   60.6410   27.7710   51.0890 C   0  0  0  0  0  0  0  0  0  0  0  0
   61.5190   26.2590   50.8820 Cl  0  0  0  0  0  0  0  0  0  0  0  0
   56.6420   29.2420   45.4280 C   0  0  0  0  0  0  0  0  0  0  0  0
   56.2380   30.1450   44.6480 O   0  0  0  0  0  0  0  0  0  0  0  0
   56.0030   28.0340   45.4740 N   0  0  0  0  0  0  0  0  0  0  0  0
   55.1610   27.8790   44.8720 H   0  0  0  0  0  0  0  0  0  0  0  0
  1  2  1  0
  2  3  2  0
  3  4  1  0
  4  5  1  0
  5  6  2  0
  6  7  1  0
  7  8  1  0
  8  9  2  0
  9 10  1  0
  9 11  1  0
 11 12  1  0
 11 13  2  0
 13 14  1  0
 13 15  1  0
 15 16  1  0
 15 17  2  0
 17 18  1  0
  7 19  2  0
 19 20  1  0
 19 21  1  0
 21 22  1  0
 22 23  1  0
 22 24  1  0
 22 25  1  0
 25 26  2  0
 26 27  1  0
 26 28  1  0
 28 29  1  0
 28 30  2  0
 30 31  1  0
 30 32  1  0
 32 33  1  0
 32 34  2  0
 34 35  1  0
  6 36  1  0
 36 37  2  0
 36 38  1  0
 38 39  1  0
 38  3  1  0
 21  5  1  0
 34 25  1  0
 17  8  1  0
M  CHG  1   4  -1
M  END
>  <UniqueID>  (85) 
79

>  <SMILES>  (85) 
[H]/N=c1\[n-]c2c(c(-c3ccccc3)cn2Cc2ccccc2Cl)c(=O)[nH]1

>  <Energy>  (85) 
85.76653225182358

>  <Genealogy>  (85) 
N=c1[n-]c2c(c(-c3ccccc3)cn2Cc2ccccc2Cl)c(=O)[nH]1 (protonated)
[H]/N=c1\[n-]c2c(c(-c3ccccc3)cn2Cc2ccccc2Cl)c(=O)[nH]1 (cis-trans isomerization)
[H]/N=c1\[n-]c2c(c(-c3ccccc3)cn2Cc2ccccc2Cl)c(=O)[nH]1 (3D coordinates assigned)
[H]/N=c1\[n-]c2c(c(-c3ccccc3)cn2Cc2ccccc2Cl)c(=O)[nH]1 (optimized conformer: 85.76653225182358 kcal/mol)

>  <smiles>  (85) 
N=c1[nH]c(=O)c2c(-c3ccccc3)cn(Cc3ccccc3Cl)c2[nH]1

>  <score_type>  (85) 
oracle

>  <origin>  (85) 
adg

>  <m_score__min__energy>  (85) 
-9.0899999999999999

>  <m_primary>  (85) 
energy

$$$$
85:0
     RDKit          3D

 45 46  0  0  0  0  0  0  0  0999 V2000
   59.6670   28.0200   45.5720 C   0  0  0  0  0  0  0  0  0  0  0  0
   58.7260   26.8640   45.5060 C   0  0  0  0  0  0  0  0  0  0  0  0
   59.1090   25.5780   45.6250 N   0  0  0  0  0  0  0  0  0  0  0  0
   58.0130   24.8300   45.6330 N   0  0  0  0  0  0  0  0  0  0  0  0
   58.0320   23.3860   45.8500 C   0  0  0  0  0  0  0  0  0  0  0  0
   56.9190   25.6160   45.5500 C   0  0  0  0  0  0  0  0  0  0  0  0
   55.5050   25.1430   45.6960 C   0  0  0  0  0  0  0  0  0  0  0  0
   57.3460   26.9240   45.4600 C   0  0  0  0  0  0  0  0  0  0  0  0
   56.5310   28.0860   45.6110 N   0  0  0  0  0  0  0  0  0  0  0  0
   56.5510   29.3390   44.4160 S   0  0  0  0  0  0  0  0  0  0  0  0
   55.1420   29.7640   44.1160 O   0  0  0  0  0  0  0  0  0  0  0  0
   57.1870   28.8320   43.1530 O   0  0  0  0  0  0  0  0  0  0  0  0
   57.4430   30.7160   45.0510 C   0  0  0  0  0  0  0  0  0  0  0  0
   57.5750   31.8930   44.3070 C   0  0  0  0  0  0  0  0  0  0  0  0
   58.3760   32.9330   44.7800 C   0  0  0  0  0  0  0  0  0  0  0  0
   59.0520   32.7880   46.0060 C   0  0  0  0  0  0  0  0  0  0  0  0
   59.9120   33.8350   46.5130 N   0  0  0  0  0  0  0  0  0  0  0  0
   59.6690   35.2260   46.1090 C   0  0  0  0  0  0  0  0  0  0  0  0
   61.0480   33.5430   47.4120 C   0  0  0  0  0  0  0  0  0  0  0  0
   60.9050   34.2760   48.7520 C   0  0  0  0  0  0  0  0  0  0  0  0
   62.3860   33.8520   46.7360 C   0  0  0  0  0  0  0  0  0  0  0  0
   58.8960   31.6330   46.7110 N   0  0  0  0  0  0  0  0  0  0  0  0
   58.1170   30.6100   46.2710 C   0  0  0  0  0  0  0  0  0  0  0  0
   59.8693   28.2685   46.6243 H   0  0  0  0  0  0  0  0  0  0  0  0
   60.6093   27.7549   45.0702 H   0  0  0  0  0  0  0  0  0  0  0  0
   59.2162   28.8889   45.0702 H   0  0  0  0  0  0  0  0  0  0  0  0
   58.0347   23.1775   46.9301 H   0  0  0  0  0  0  0  0  0  0  0  0
   57.1397   22.9346   45.3917 H   0  0  0  0  0  0  0  0  0  0  0  0
   58.9359   22.9582   45.3917 H   0  0  0  0  0  0  0  0  0  0  0  0
   55.2548   25.0593   46.7639 H   0  0  0  0  0  0  0  0  0  0  0  0
   54.8261   25.8630   45.2157 H   0  0  0  0  0  0  0  0  0  0  0  0
   55.3959   24.1594   45.2157 H   0  0  0  0  0  0  0  0  0  0  0  0
   57.0468   31.9989   43.3480 H   0  0  0  0  0  0  0  0  0  0  0  0
   58.4786   33.8608   44.1981 H   0  0  0  0  0  0  0  0  0  0  0  0
   59.5592   35.8543   47.0052 H   0  0  0  0  0  0  0  0  0  0  0  0
   60.5176   35.5873   45.5096 H   0  0  0  0  0  0  0  0  0  0  0  0
   58.7481   35.2782   45.5096 H   0  0  0  0  0  0  0  0  0  0  0  0
   61.0329   32.4647   47.6289 H   0  0  0  0  0  0  0  0  0  0  0  0
   61.0443   33.5621   49.5772 H   0  0  0  0  0  0  0  0  0  0  0  0
   61.6656   35.0677   48.8198 H   0  0  0  0  0  0  0  0  0  0  0  0
   59.9026   34.7238   48.8198 H   0  0  0  0  0  0  0  0  0  0  0  0
   63.1528   34.0291   47.5045 H   0  0  0  0  0  0  0  0  0  0  0  0
   62.6855   32.9994   46.1088 H   0  0  0  0  0  0  0  0  0  0  0  0
   62.2813   34.7496   46.1088 H   0  0  0  0  0  0  0  0  0  0  0  0
   58.0167   29.6969   46.8761 H   0  0  0  0  0  0  0  0  0  0  0  0
  1  2  1  0
  2  3  2  0
  3  4  1  0
  4  5  1  0
  4  6  1  0
  6  7  1  0
  6  8  2  0
  8  9  1  0
  9 10  1  0
 10 11  2  0
 10 12  2  0
 10 13  1  0
 13 14  2  0
 14 15  1  0
 15 16  2  0
 16 17  1  0
 17 18  1  0
 17 19  1  0
 19 20  1  0
 19 21  1  0
 16 22  1  0
 22 23  2  0
  8  2  1  0
 23 13  1  0
  1 24  1  0
  1 25  1  0
  1 26  1  0
  5 27  1  0
  5 28  1  0
  5 29  1  0
  7 30  1  0
  7 31  1  0
  7 32  1  0
 14 33  1  0
 15 34  1  0
 18 35  1  0
 18 36  1  0
 18 37  1  0
 19 38  1  0
 20 39  1  0
 20 40  1  0
 20 41  1  0
 21 42  1  0
 21 43  1  0
 21 44  1  0
 23 45  1  0
M  CHG  1   9  -1
M  END
>  <UniqueID>  (86) 
80

>  <SMILES>  (86) 
Cc1nn(C)c(C)c1[N-]S(=O)(=O)c1ccc(N(C)C(C)C)nc1

>  <Energy>  (86) 
79.25849862077189

>  <Genealogy>  (86) 
Cc1nn(C)c(C)c1[N-]S(=O)(=O)c1ccc(N(C)C(C)C)nc1 (protonated)
Cc1nn(C)c(C)c1[N-]S(=O)(=O)c1ccc(N(C)C(C)C)nc1 (3D coordinates assigned)
Cc1nn(C)c(C)c1[N-]S(=O)(=O)c1ccc(N(C)C(C)C)nc1 (optimized conformer: 79.25849862077189 kcal/mol)

>  <smiles>  (86) 
Cc1nn(C)c(C)c1NS(=O)(=O)c1ccc(N(C)C(C)C)nc1

>  <score_type>  (86) 
oracle

>  <origin>  (86) 
adg

>  <m_score__min__energy>  (86) 
-8.6300000000000008

>  <m_primary>  (86) 
energy

$$$$
86:0
     RDKit          3D

 41 43  0  0  0  0  0  0  0  0999 V2000
   59.6390   22.1910   44.5650 C   0  0  0  0  0  0  0  0  0  0  0  0
   58.6730   23.0300   45.1600 O   0  0  0  0  0  0  0  0  0  0  0  0
   57.3850   22.7380   44.6510 C   0  0  0  0  0  0  0  0  0  0  0  0
   56.4750   23.9620   44.7830 C   0  0  0  0  0  0  0  0  0  0  0  0
   57.2640   25.1620   45.0560 N   0  0  0  0  0  0  0  0  0  0  0  0
   56.6870   26.3480   45.6260 C   0  0  0  0  0  0  0  0  0  0  0  0
   55.4820   26.3370   45.9990 O   0  0  0  0  0  0  0  0  0  0  0  0
   57.4880   27.5850   45.8000 C   0  0  0  0  0  0  0  0  0  0  0  0
   58.7690   27.5150   46.3730 C   0  0  0  0  0  0  0  0  0  0  0  0
   59.5370   28.6700   46.5480 C   0  0  0  0  0  0  0  0  0  0  0  0
   59.0290   29.9220   46.1600 C   0  0  0  0  0  0  0  0  0  0  0  0
   59.7610   31.1120   46.3150 C   0  0  0  0  0  0  0  0  0  0  0  0
   60.9150   31.0660   46.8290 O   0  0  0  0  0  0  0  0  0  0  0  0
   59.2250   32.3170   45.9180 N   0  0  0  0  0  0  0  0  0  0  0  0
   60.0070   33.5580   46.1120 C   0  0  0  0  0  0  0  0  0  0  0  0
   60.2940   33.7710   47.5650 C   0  0  0  0  0  0  0  0  0  0  0  0
   61.5460   33.8320   48.1420 C   0  0  0  0  0  0  0  0  0  0  0  0
   61.3250   34.0120   49.4890 C   0  0  0  0  0  0  0  0  0  0  0  0
   59.9550   34.0460   49.6520 C   0  0  0  0  0  0  0  0  0  0  0  0
   59.3670   33.8980   48.4870 O   0  0  0  0  0  0  0  0  0  0  0  0
   57.9490   32.3500   45.3920 C   0  0  0  0  0  0  0  0  0  0  0  0
   57.2210   33.7520   44.9370 S   0  0  0  0  0  0  0  0  0  0  0  0
   57.2420   31.2030   45.2400 N   0  0  0  0  0  0  0  0  0  0  0  0
   57.7440   29.9990   45.6010 C   0  0  0  0  0  0  0  0  0  0  0  0
   56.9780   28.8410   45.4250 C   0  0  0  0  0  0  0  0  0  0  0  0
   60.2202   21.6862   45.3508 H   0  0  0  0  0  0  0  0  0  0  0  0
   59.1360   21.4383   43.9402 H   0  0  0  0  0  0  0  0  0  0  0  0
   60.3139   22.7945   43.9402 H   0  0  0  0  0  0  0  0  0  0  0  0
   57.4680   22.4595   43.5901 H   0  0  0  0  0  0  0  0  0  0  0  0
   56.9523   21.9052   45.2248 H   0  0  0  0  0  0  0  0  0  0  0  0
   55.9178   24.1012   43.8448 H   0  0  0  0  0  0  0  0  0  0  0  0
   55.7783   23.7978   45.6182 H   0  0  0  0  0  0  0  0  0  0  0  0
   58.2850   25.1290   44.8370 H   0  0  0  0  0  0  0  0  0  0  0  0
   59.1719   26.5409   46.6873 H   0  0  0  0  0  0  0  0  0  0  0  0
   60.5415   28.5989   46.9905 H   0  0  0  0  0  0  0  0  0  0  0  0
   60.9567   33.4777   45.5628 H   0  0  0  0  0  0  0  0  0  0  0  0
   59.4234   34.4106   45.7345 H   0  0  0  0  0  0  0  0  0  0  0  0
   62.5176   33.7533   47.6323 H   0  0  0  0  0  0  0  0  0  0  0  0
   62.0868   34.1091   50.2765 H   0  0  0  0  0  0  0  0  0  0  0  0
   59.4344   34.1772   50.6121 H   0  0  0  0  0  0  0  0  0  0  0  0
   55.9701   28.9136   44.9904 H   0  0  0  0  0  0  0  0  0  0  0  0
  1  2  1  0
  2  3  1  0
  3  4  1  0
  4  5  1  0
  5  6  1  0
  6  7  2  0
  6  8  1  0
  8  9  2  0
  9 10  1  0
 10 11  2  0
 11 12  1  0
 12 13  2  0
 12 14  1  0
 14 15  1  0
 15 16  1  0
 16 17  2  0
 17 18  1  0
 18 19  2  0
 19 20  1  0
 14 21  1  0
 21 22  2  0
 21 23  1  0
 23 24  1  0
 24 25  2  0
 25  8  1  0
 24 11  1  0
 20 16  1  0
  1 26  1  0
  1 27  1  0
  1 28  1  0
  3 29  1  0
  3 30  1  0
  4 31  1  0
  4 32  1  0
  5 33  1  0
  9 34  1  0
 10 35  1  0
 15 36  1  0
 15 37  1  0
 17 38  1  0
 18 39  1  0
 19 40  1  0
 25 41  1  0
M  CHG  1  23  -1
M  END
>  <UniqueID>  (87) 
81

>  <SMILES>  (87) 
COCCNC(=O)c1ccc2c(=O)n(Cc3ccco3)c(=S)[n-]c2c1

>  <Energy>  (87) 
78.71749328070023

>  <Genealogy>  (87) 
COCCNC(=O)c1ccc2c(=O)n(Cc3ccco3)c(=S)[n-]c2c1 (protonated)
COCCNC(=O)c1ccc2c(=O)n(Cc3ccco3)c(=S)[n-]c2c1 (3D coordinates assigned)
COCCNC(=O)c1ccc2c(=O)n(Cc3ccco3)c(=S)[n-]c2c1 (optimized conformer: 78.71749328070023 kcal/mol)

>  <smiles>  (87) 
COCCNC(=O)c1ccc2c(=O)n(Cc3ccco3)c(=S)[nH]c2c1

>  <score_type>  (87) 
oracle

>  <origin>  (87) 
adg

>  <m_score__min__energy>  (87) 
-8.9100000000000001

>  <m_primary>  (87) 
energy

$$$$
87:0
     RDKit          3D

 50 52  0  0  0  0  0  0  0  0999 V2000
   58.2020   27.4000   43.5070 C   0  0  0  0  0  0  0  0  0  0  0  0
   57.7420   28.1870   44.6540 N   0  0  0  0  0  0  0  0  0  0  0  0
   56.5460   28.9930   44.5890 C   0  0  0  0  0  0  0  0  0  0  0  0
   55.5210   28.6380   45.2350 O   0  0  0  0  0  0  0  0  0  0  0  0
   56.4740   30.2200   43.7140 C   0  0  0  0  0  0  0  0  0  0  0  0
   56.7340   31.4330   44.4860 N   0  0  0  0  0  0  0  0  0  0  0  0
   57.7270   32.4040   44.1250 C   0  0  0  0  0  0  0  0  0  0  0  0
   58.1180   32.4830   42.9270 O   0  0  0  0  0  0  0  0  0  0  0  0
   58.2910   33.3130   45.1530 C   0  0  0  0  0  0  0  0  0  0  0  0
   58.0010   33.1170   46.5190 C   0  0  0  0  0  0  0  0  0  0  0  0
   58.5320   33.9780   47.4870 C   0  0  0  0  0  0  0  0  0  0  0  0
   59.3580   35.0400   47.1040 C   0  0  0  0  0  0  0  0  0  0  0  0
   59.6510   35.2460   45.7510 C   0  0  0  0  0  0  0  0  0  0  0  0
   59.1250   34.3870   44.7800 C   0  0  0  0  0  0  0  0  0  0  0  0
   58.5310   28.1880   45.8540 C   0  0  0  0  0  0  0  0  0  0  0  0
   59.4090   29.2490   46.1500 C   0  0  0  0  0  0  0  0  0  0  0  0
   59.4810   30.3660   45.2420 N   0  0  0  0  0  0  0  0  0  0  0  0
   60.1720   29.2070   47.3000 N   0  0  0  0  0  0  0  0  0  0  0  0
   61.0830   30.3210   47.6510 C   0  0  0  0  0  0  0  0  0  0  0  0
   60.4440   31.2540   48.6530 C   0  0  0  0  0  0  0  0  0  0  0  0
   59.1590   30.9810   49.1580 C   0  0  0  0  0  0  0  0  0  0  0  0
   58.5770   31.8350   50.1010 C   0  0  0  0  0  0  0  0  0  0  0  0
   59.2750   32.9600   50.5570 C   0  0  0  0  0  0  0  0  0  0  0  0
   60.5600   33.2280   50.0740 C   0  0  0  0  0  0  0  0  0  0  0  0
   61.1470   32.3770   49.1330 C   0  0  0  0  0  0  0  0  0  0  0  0
   60.0550   28.1300   48.1520 C   0  0  0  0  0  0  0  0  0  0  0  0
   60.7310   28.0740   49.2170 O   0  0  0  0  0  0  0  0  0  0  0  0
   59.2050   27.1080   47.8640 N   0  0  0  0  0  0  0  0  0  0  0  0
   58.4480   27.1150   46.7400 C   0  0  0  0  0  0  0  0  0  0  0  0
   57.6700   26.1500   46.5010 O   0  0  0  0  0  0  0  0  0  0  0  0
   58.7268   26.5021   43.8652 H   0  0  0  0  0  0  0  0  0  0  0  0
   57.3369   27.1003   42.8973 H   0  0  0  0  0  0  0  0  0  0  0  0
   58.8877   28.0067   42.8973 H   0  0  0  0  0  0  0  0  0  0  0  0
   57.2245   30.1354   42.9143 H   0  0  0  0  0  0  0  0  0  0  0  0
   55.4617   30.2869   43.2889 H   0  0  0  0  0  0  0  0  0  0  0  0
   57.3535   32.2824   46.8260 H   0  0  0  0  0  0  0  0  0  0  0  0
   58.2993   33.8191   48.5503 H   0  0  0  0  0  0  0  0  0  0  0  0
   59.7773   35.7132   47.8662 H   0  0  0  0  0  0  0  0  0  0  0  0
   60.2960   36.0848   45.4505 H   0  0  0  0  0  0  0  0  0  0  0  0
   59.3636   34.5505   43.7187 H   0  0  0  0  0  0  0  0  0  0  0  0
   60.2880   31.0260   45.2580 H   0  0  0  0  0  0  0  0  0  0  0  0
   58.7340   30.5840   44.5510 H   0  0  0  0  0  0  0  0  0  0  0  0
   62.0058   29.9072   48.0837 H   0  0  0  0  0  0  0  0  0  0  0  0
   61.3051   30.8908   46.7367 H   0  0  0  0  0  0  0  0  0  0  0  0
   58.6105   30.0933   48.8101 H   0  0  0  0  0  0  0  0  0  0  0  0
   57.5685   31.6222   50.4852 H   0  0  0  0  0  0  0  0  0  0  0  0
   58.8130   33.6326   51.2947 H   0  0  0  0  0  0  0  0  0  0  0  0
   61.1096   34.1098   50.4352 H   0  0  0  0  0  0  0  0  0  0  0  0
   62.1627   32.5850   48.7654 H   0  0  0  0  0  0  0  0  0  0  0  0
   59.1330   26.2980   48.5230 H   0  0  0  0  0  0  0  0  0  0  0  0
  1  2  1  0
  2  3  1  0
  3  4  2  0
  3  5  1  0
  5  6  1  0
  6  7  1  0
  7  8  2  0
  7  9  1  0
  9 10  2  0
 10 11  1  0
 11 12  2  0
 12 13  1  0
 13 14  2  0
  2 15  1  0
 15 16  2  0
 16 17  1  0
 16 18  1  0
 18 19  1  0
 19 20  1  0
 20 21  2  0
 21 22  1  0
 22 23  2  0
 23 24  1  0
 24 25  2  0
 18 26  1  0
 26 27  2  0
 26 28  1  0
 28 29  1  0
 29 30  2  0
 14  9  1  0
 29 15  1  0
 25 20  1  0
  1 31  1  0
  1 32  1  0
  1 33  1  0
  5 34  1  0
  5 35  1  0
 10 36  1  0
 11 37  1  0
 12 38  1  0
 13 39  1  0
 14 40  1  0
 17 41  1  0
 17 42  1  0
 19 43  1  0
 19 44  1  0
 21 45  1  0
 22 46  1  0
 23 47  1  0
 24 48  1  0
 25 49  1  0
 28 50  1  0
M  CHG  1   6  -1
M  END
>  <UniqueID>  (88) 
82

>  <SMILES>  (88) 
CN(C(=O)C[N-]C(=O)c1ccccc1)c1c(N)n(Cc2ccccc2)c(=O)[nH]c1=O

>  <Energy>  (88) 
64.6457667710706

>  <Genealogy>  (88) 
CN(C(=O)C[N-]C(=O)c1ccccc1)c1c(N)n(Cc2ccccc2)c(=O)[nH]c1=O (protonated)
CN(C(=O)C[N-]C(=O)c1ccccc1)c1c(N)n(Cc2ccccc2)c(=O)[nH]c1=O (3D coordinates assigned)
CN(C(=O)C[N-]C(=O)c1ccccc1)c1c(N)n(Cc2ccccc2)c(=O)[nH]c1=O (optimized conformer: 64.6457667710706 kcal/mol)

>  <smiles>  (88) 
CN(C(=O)CNC(=O)c1ccccc1)c1c(N)n(Cc2ccccc2)c(=O)[nH]c1=O

>  <score_type>  (88) 
oracle

>  <origin>  (88) 
adg

>  <m_score__min__energy>  (88) 
-11.199999999999999

>  <m_primary>  (88) 
energy

$$$$
88:0
     RDKit          3D

 59 63  0  0  0  0  0  0  0  0999 V2000
   57.6382   20.4332   42.7184 H   0  0  0  0  0  0  0  0  0  0  0  0
   57.3740   21.3570   43.2540 C   0  0  0  0  0  0  0  0  0  0  0  0
   58.2280   21.8760   44.1740 N   0  0  0  0  0  0  0  0  0  0  0  0
   57.9150   23.0060   44.8570 C   0  0  0  0  0  0  0  0  0  0  0  0
   58.6265   23.4217   45.5856 H   0  0  0  0  0  0  0  0  0  0  0  0
   56.6920   23.6420   44.6370 C   0  0  0  0  0  0  0  0  0  0  0  0
   56.4050   24.8770   45.3120 N   0  0  0  0  0  0  0  0  0  0  0  0
   57.2700   25.7100   45.8150 C   0  0  0  0  0  0  0  0  0  0  0  0
   57.5080   25.7390   47.1550 N   0  0  0  0  0  0  0  0  0  0  0  0
   58.4460   26.5510   47.7020 C   0  0  0  0  0  0  0  0  0  0  0  0
   58.6078   26.5561   48.7900 H   0  0  0  0  0  0  0  0  0  0  0  0
   59.2110   27.3870   46.8680 C   0  0  0  0  0  0  0  0  0  0  0  0
   60.2920   28.3250   47.3630 C   0  0  0  0  0  0  0  0  0  0  0  0
   60.9842   27.5026   47.5964 H   0  0  0  0  0  0  0  0  0  0  0  0
   59.8390   29.5900   48.0770 C   0  0  0  0  0  0  0  0  0  0  0  0
   58.7671   29.7766   48.2387 H   0  0  0  0  0  0  0  0  0  0  0  0
   60.0668   30.0617   49.0443 H   0  0  0  0  0  0  0  0  0  0  0  0
   60.4240   29.6740   46.6720 C   0  0  0  0  0  0  0  0  0  0  0  0
   59.7744   29.9213   45.8195 H   0  0  0  0  0  0  0  0  0  0  0  0
   61.2491   30.2315   46.2047 H   0  0  0  0  0  0  0  0  0  0  0  0
   58.9670   27.3590   45.5310 N   0  0  0  0  0  0  0  0  0  0  0  0
   58.0160   26.5630   44.9740 C   0  0  0  0  0  0  0  0  0  0  0  0
   57.8220   26.6220   43.5060 C   0  0  0  0  0  0  0  0  0  0  0  0
   57.7470   25.5410   42.8630 O   0  0  0  0  0  0  0  0  0  0  0  0
   57.6910   27.8580   42.7880 N   0  0  0  0  0  0  0  0  0  0  0  0
   57.4030   29.1370   43.3640 C   0  0  0  0  0  0  0  0  0  0  0  0
   58.5260   30.1690   44.0830 S   0  0  0  0  0  0  0  0  0  0  0  0
   57.3420   31.2810   44.5490 C   0  0  0  0  0  0  0  0  0  0  0  0
   57.5620   32.4490   45.3640 N   0  0  0  0  0  0  0  0  0  0  0  0
   57.6310   33.7890   44.7640 C   0  0  0  0  0  0  0  0  0  0  0  0
   56.7935   34.4010   45.1301 H   0  0  0  0  0  0  0  0  0  0  0  0
   57.5676   33.7103   43.6686 H   0  0  0  0  0  0  0  0  0  0  0  0
   58.9510   34.4400   45.1590 C   0  0  0  0  0  0  0  0  0  0  0  0
   58.9969   35.4466   44.7179 H   0  0  0  0  0  0  0  0  0  0  0  0
   59.7686   33.8055   44.7862 H   0  0  0  0  0  0  0  0  0  0  0  0
   59.1000   34.5600   46.6980 C   0  0  0  0  0  0  0  0  0  0  0  0
   58.7550   35.5636   46.9874 H   0  0  0  0  0  0  0  0  0  0  0  0
   60.5330   34.4630   47.0900 N   0  0  0  0  0  0  0  0  0  0  0  0
   61.2940   33.4120   46.3910 C   0  0  0  0  0  0  0  0  0  0  0  0
   61.7718   32.7522   47.1301 H   0  0  0  0  0  0  0  0  0  0  0  0
   60.6116   32.8230   45.7606 H   0  0  0  0  0  0  0  0  0  0  0  0
   62.0666   33.8765   45.7606 H   0  0  0  0  0  0  0  0  0  0  0  0
   60.7090   34.3390   48.5470 C   0  0  0  0  0  0  0  0  0  0  0  0
   59.9141   34.8990   49.0613 H   0  0  0  0  0  0  0  0  0  0  0  0
   60.6549   33.2785   48.8339 H   0  0  0  0  0  0  0  0  0  0  0  0
   61.6895   34.7469   48.8339 H   0  0  0  0  0  0  0  0  0  0  0  0
   58.1470   33.6190   47.5010 C   0  0  0  0  0  0  0  0  0  0  0  0
   57.1987   34.1508   47.6683 H   0  0  0  0  0  0  0  0  0  0  0  0
   58.6679   33.3680   48.4367 H   0  0  0  0  0  0  0  0  0  0  0  0
   57.8340   32.2850   46.8000 C   0  0  0  0  0  0  0  0  0  0  0  0
   56.9502   31.8358   47.2766 H   0  0  0  0  0  0  0  0  0  0  0  0
   58.7206   31.6414   46.8990 H   0  0  0  0  0  0  0  0  0  0  0  0
   56.1000   30.8110   44.1210 C   0  0  0  0  0  0  0  0  0  0  0  0
   55.1600   31.3500   44.3104 H   0  0  0  0  0  0  0  0  0  0  0  0
   56.1510   29.6300   43.4500 N   0  0  0  0  0  0  0  0  0  0  0  0
   55.3070   29.1400   43.0800 H   0  0  0  0  0  0  0  0  0  0  0  0
   55.8390   23.1080   43.6590 C   0  0  0  0  0  0  0  0  0  0  0  0
   54.8842   23.6041   43.4306 H   0  0  0  0  0  0  0  0  0  0  0  0
   56.1940   21.9780   42.9950 N   0  0  0  0  0  0  0  0  0  0  0  0
  1  2  1  0
  2  3  2  0
  3  4  1  0
  4  5  1  0
  4  6  2  0
  6  7  1  0
  7  8  2  0
  8  9  1  0
  9 10  1  0
 10 11  1  0
 10 12  2  0
 12 13  1  0
 13 14  1  0
 13 15  1  0
 15 16  1  0
 15 17  1  0
 15 18  1  0
 18 19  1  0
 18 20  1  0
 12 21  1  0
 21 22  2  0
 22 23  1  0
 23 24  2  0
 23 25  1  0
 25 26  1  0
 26 27  1  0
 27 28  1  0
 28 29  1  0
 29 30  1  0
 30 31  1  0
 30 32  1  0
 30 33  1  0
 33 34  1  0
 33 35  1  0
 33 36  1  0
 36 37  1  0
 36 38  1  0
 38 39  1  0
 39 40  1  0
 39 41  1  0
 39 42  1  0
 38 43  1  0
 43 44  1  0
 43 45  1  0
 43 46  1  0
 36 47  1  0
 47 48  1  0
 47 49  1  0
 47 50  1  0
 50 51  1  0
 50 52  1  0
 28 53  2  0
 53 54  1  0
 53 55  1  0
 55 56  1  0
  6 57  1  0
 57 58  1  0
 57 59  2  0
 59  2  1  0
 22  8  1  0
 55 26  2  0
 18 13  1  0
 50 29  1  0
M  CHG  3   9  -1  25  -1  55   1
M  END
>  <UniqueID>  (89) 
83

>  <SMILES>  (89) 
CN(C)C1CCN(c2c[nH+]c([N-]C(=O)c3nc(C4CC4)c[n-]/c3=N\c3cncnc3)s2)CC1

>  <Energy>  (89) 
385.07902363678005

>  <Genealogy>  (89) 
CN(C)C1CCN(c2c[nH+]c([N-]C(=O)c3nc(C4CC4)c[n-]c3=Nc3cncnc3)s2)CC1 (protonated)
CN(C)C1CCN(c2c[nH+]c([N-]C(=O)c3nc(C4CC4)c[n-]/c3=N\c3cncnc3)s2)CC1 (cis-trans isomerization)
CN(C)C1CCN(c2c[nH+]c([N-]C(=O)c3nc(C4CC4)c[n-]/c3=N\c3cncnc3)s2)CC1 (3D coordinates assigned)
CN(C)C1CCN(c2c[nH+]c([N-]C(=O)c3nc(C4CC4)c[n-]/c3=N\c3cncnc3)s2)CC1 (nonaromatic ring conformer: 385.07902363678005 kcal/mol)

>  <smiles>  (89) 
CN(C)C1CCN(c2cnc(NC(=O)c3nc(C4CC4)c[nH]c3=Nc3cncnc3)s2)CC1

>  <score_type>  (89) 
oracle

>  <origin>  (89) 
adg

>  <m_score__min__energy>  (89) 
-10.01

>  <m_primary>  (89) 
energy

$$$$
89:0
     RDKit          3D

 39 41  0  0  0  0  0  0  0  0999 V2000
   62.2920   34.2320   49.4040 C   0  0  0  0  0  0  0  0  0  0  0  0
   61.1290   34.3860   48.5960 O   0  0  0  0  0  0  0  0  0  0  0  0
   60.6090   33.3880   47.7580 C   0  0  0  0  0  0  0  0  0  0  0  0
   61.1380   32.0970   47.8530 C   0  0  0  0  0  0  0  0  0  0  0  0
   60.6530   31.0680   47.0410 C   0  0  0  0  0  0  0  0  0  0  0  0
   59.6160   31.3140   46.1260 C   0  0  0  0  0  0  0  0  0  0  0  0
   59.1070   30.2410   45.2430 C   0  0  0  0  0  0  0  0  0  0  0  0
   59.9390   29.4930   44.6670 O   0  0  0  0  0  0  0  0  0  0  0  0
   57.6550   30.0320   45.0210 C   0  0  0  0  0  0  0  0  0  0  0  0
   56.7600   30.9300   44.4670 C   0  0  0  0  0  0  0  0  0  0  0  0
   55.5220   30.4040   44.4940 N   0  0  0  0  0  0  0  0  0  0  0  0
   55.5860   29.1970   45.0340 N   0  0  0  0  0  0  0  0  0  0  0  0
   56.8670   28.9360   45.3500 C   0  0  0  0  0  0  0  0  0  0  0  0
   57.2910   27.6670   45.9670 C   0  0  0  0  0  0  0  0  0  0  0  0
   58.2930   27.6470   46.9480 C   0  0  0  0  0  0  0  0  0  0  0  0
   58.7020   26.4340   47.5090 C   0  0  0  0  0  0  0  0  0  0  0  0
   58.1320   25.2340   47.0780 C   0  0  0  0  0  0  0  0  0  0  0  0
   57.1640   25.2370   46.0600 C   0  0  0  0  0  0  0  0  0  0  0  0
   56.5450   24.0240   45.6080 N   0  0  0  0  0  0  0  0  0  0  0  0
   55.2640   23.9110   44.9730 C   0  0  0  0  0  0  0  0  0  0  0  0
   55.1500   23.1670   43.9650 O   0  0  0  0  0  0  0  0  0  0  0  0
   54.0640   24.5780   45.5090 C   0  0  0  0  0  0  0  0  0  0  0  0
   53.0440   23.9120   45.8240 O   0  0  0  0  0  0  0  0  0  0  0  0
   54.0410   25.9620   45.6330 O   0  0  0  0  0  0  0  0  0  0  0  0
   56.7390   26.4580   45.5180 C   0  0  0  0  0  0  0  0  0  0  0  0
   59.0980   32.6140   46.0150 C   0  0  0  0  0  0  0  0  0  0  0  0
   59.5840   33.6430   46.8270 C   0  0  0  0  0  0  0  0  0  0  0  0
   62.0082   34.2696   50.4661 H   0  0  0  0  0  0  0  0  0  0  0  0
   62.7650   33.2634   49.1849 H   0  0  0  0  0  0  0  0  0  0  0  0
   63.0008   35.0441   49.1849 H   0  0  0  0  0  0  0  0  0  0  0  0
   61.9431   31.8895   48.5733 H   0  0  0  0  0  0  0  0  0  0  0  0
   61.0858   30.0597   47.1189 H   0  0  0  0  0  0  0  0  0  0  0  0
   57.0204   31.9208   44.0664 H   0  0  0  0  0  0  0  0  0  0  0  0
   58.7581   28.5881   47.2767 H   0  0  0  0  0  0  0  0  0  0  0  0
   59.4747   26.4244   48.2919 H   0  0  0  0  0  0  0  0  0  0  0  0
   58.4420   24.2837   47.5371 H   0  0  0  0  0  0  0  0  0  0  0  0
   55.9668   26.4682   44.7347 H   0  0  0  0  0  0  0  0  0  0  0  0
   58.3038   32.8246   45.2837 H   0  0  0  0  0  0  0  0  0  0  0  0
   59.1640   34.6558   46.7382 H   0  0  0  0  0  0  0  0  0  0  0  0
  1  2  1  0
  2  3  1  0
  3  4  2  0
  4  5  1  0
  5  6  2  0
  6  7  1  0
  7  8  2  0
  7  9  1  0
  9 10  2  0
 10 11  1  0
 11 12  1  0
 12 13  2  0
 13 14  1  0
 14 15  2  0
 15 16  1  0
 16 17  2  0
 17 18  1  0
 18 19  1  0
 19 20  1  0
 20 21  2  0
 20 22  1  0
 22 23  2  0
 22 24  1  0
 18 25  2  0
  6 26  1  0
 26 27  2  0
 27  3  1  0
 13  9  1  0
 25 14  1  0
  1 28  1  0
  1 29  1  0
  1 30  1  0
  4 31  1  0
  5 32  1  0
 10 33  1  0
 15 34  1  0
 16 35  1  0
 17 36  1  0
 25 37  1  0
 26 38  1  0
 27 39  1  0
M  CHG  3  11  -1  19  -1  24  -1
M  END
>  <UniqueID>  (90) 
84

>  <SMILES>  (90) 
COc1ccc(C(=O)c2c[n-]nc2-c2cccc([N-]C(=O)C(=O)[O-])c2)cc1

>  <Energy>  (90) 
87.61797245295757

>  <Genealogy>  (90) 
COc1ccc(C(=O)c2c[n-]nc2-c2cccc([N-]C(=O)C(=O)[O-])c2)cc1 (protonated)
COc1ccc(C(=O)c2c[n-]nc2-c2cccc([N-]C(=O)C(=O)[O-])c2)cc1 (3D coordinates assigned)
COc1ccc(C(=O)c2c[n-]nc2-c2cccc([N-]C(=O)C(=O)[O-])c2)cc1 (optimized conformer: 87.61797245295757 kcal/mol)

>  <smiles>  (90) 
COc1ccc(C(=O)c2c[nH]nc2-c2cccc(NC(=O)C(=O)O)c2)cc1

>  <score_type>  (90) 
oracle

>  <origin>  (90) 
adg

>  <m_score__min__energy>  (90) 
-13.25

>  <m_primary>  (90) 
energy

$$$$
90:0
     RDKit          3D

 44 46  0  0  0  0  0  0  0  0999 V2000
   56.8840   28.9930   42.8740 C   0  0  0  0  0  0  0  0  0  0  0  0
   56.5000   30.4210   42.5830 C   0  0  0  0  0  0  0  0  0  0  0  0
   57.3450   31.3680   43.2710 N   0  0  0  0  0  0  0  0  0  0  0  0
   58.1390   32.2800   42.4720 C   0  0  0  0  0  0  0  0  0  0  0  0
   57.5960   32.3350   41.0400 C   0  0  0  0  0  0  0  0  0  0  0  0
   57.3810   31.3460   44.6960 C   0  0  0  0  0  0  0  0  0  0  0  0
   56.6660   30.4330   45.2400 O   0  0  0  0  0  0  0  0  0  0  0  0
   58.1350   32.2530   45.5140 C   0  0  0  0  0  0  0  0  0  0  0  0
   57.8530   33.5600   45.7900 C   0  0  0  0  0  0  0  0  0  0  0  0
   58.6590   34.3510   46.6130 C   0  0  0  0  0  0  0  0  0  0  0  0
   59.8130   33.8320   47.2030 C   0  0  0  0  0  0  0  0  0  0  0  0
   60.6050   34.5660   47.9940 N   0  0  0  0  0  0  0  0  0  0  0  0
   61.6990   34.0010   48.5270 C   0  0  0  0  0  0  0  0  0  0  0  0
   62.6820   34.4400   49.3460 N   0  0  0  0  0  0  0  0  0  0  0  0
   63.5680   33.4500   49.5920 C   0  0  0  0  0  0  0  0  0  0  0  0
   64.7390   33.4210   50.3800 N   0  0  0  0  0  0  0  0  0  0  0  0
   64.6830   34.2220   51.6210 C   0  0  0  0  0  0  0  0  0  0  0  0
   65.9360   32.7010   50.1040 C   0  0  0  0  0  0  0  0  0  0  0  0
   63.1410   32.3490   48.9100 N   0  0  0  0  0  0  0  0  0  0  0  0
   62.0220   32.6610   48.2680 C   0  0  0  0  0  0  0  0  0  0  0  0
   61.2170   31.8970   47.4570 C   0  0  0  0  0  0  0  0  0  0  0  0
   60.0880   32.5040   46.9140 C   0  0  0  0  0  0  0  0  0  0  0  0
   59.2960   31.7370   46.1090 C   0  0  0  0  0  0  0  0  0  0  0  0
   56.9254   28.8390   43.9624 H   0  0  0  0  0  0  0  0  0  0  0  0
   56.1361   28.3157   42.4360 H   0  0  0  0  0  0  0  0  0  0  0  0
   57.8708   28.7821   42.4360 H   0  0  0  0  0  0  0  0  0  0  0  0
   56.5822   30.5955   41.5000 H   0  0  0  0  0  0  0  0  0  0  0  0
   55.4695   30.5707   42.9376 H   0  0  0  0  0  0  0  0  0  0  0  0
   58.0956   33.2853   42.9164 H   0  0  0  0  0  0  0  0  0  0  0  0
   59.1801   31.9256   42.4489 H   0  0  0  0  0  0  0  0  0  0  0  0
   56.5019   32.4458   41.0667 H   0  0  0  0  0  0  0  0  0  0  0  0
   58.0387   33.1929   40.5127 H   0  0  0  0  0  0  0  0  0  0  0  0
   57.8576   31.4058   40.5127 H   0  0  0  0  0  0  0  0  0  0  0  0
   56.9528   34.0096   45.3455 H   0  0  0  0  0  0  0  0  0  0  0  0
   58.3800   35.3987   46.7989 H   0  0  0  0  0  0  0  0  0  0  0  0
   62.7750   35.4120   49.7580 H   0  0  0  0  0  0  0  0  0  0  0  0
   64.7298   33.5521   52.4922 H   0  0  0  0  0  0  0  0  0  0  0  0
   65.5347   34.9176   51.6472 H   0  0  0  0  0  0  0  0  0  0  0  0
   63.7428   34.7924   51.6472 H   0  0  0  0  0  0  0  0  0  0  0  0
   66.4165   32.4120   51.0503 H   0  0  0  0  0  0  0  0  0  0  0  0
   65.6952   31.7978   49.5242 H   0  0  0  0  0  0  0  0  0  0  0  0
   66.6211   33.3370   49.5242 H   0  0  0  0  0  0  0  0  0  0  0  0
   61.4562   30.8445   47.2448 H   0  0  0  0  0  0  0  0  0  0  0  0
   59.5748   30.6894   45.9224 H   0  0  0  0  0  0  0  0  0  0  0  0
  1  2  1  0
  2  3  1  0
  3  4  1  0
  4  5  1  0
  3  6  1  0
  6  7  2  0
  6  8  1  0
  8  9  2  0
  9 10  1  0
 10 11  2  0
 11 12  1  0
 12 13  2  0
 13 14  1  0
 14 15  1  0
 15 16  1  0
 16 17  1  0
 16 18  1  0
 15 19  2  0
 19 20  1  0
 20 21  2  0
 21 22  1  0
 22 23  2  0
 23  8  1  0
 22 11  1  0
 20 13  1  0
  1 24  1  0
  1 25  1  0
  1 26  1  0
  2 27  1  0
  2 28  1  0
  4 29  1  0
  4 30  1  0
  5 31  1  0
  5 32  1  0
  5 33  1  0
  9 34  1  0
 10 35  1  0
 14 36  1  0
 17 37  1  0
 17 38  1  0
 17 39  1  0
 18 40  1  0
 18 41  1  0
 18 42  1  0
 21 43  1  0
 23 44  1  0
M  END
>  <smiles>  (91) 
CCN(CC)C(=O)c1ccc2nc3[nH]c(N(C)C)nc3cc2c1

>  <score_type>  (91) 
oracle

>  <origin>  (91) 
adg

>  <m_score__min__energy>  (91) 
-7.4900000000000002

>  <m_primary>  (91) 
energy

$$$$
