0:0
     RDKit          3D

 76 79  0  0  0  0  0  0  0  0999 V2000
   57.1350   30.9160   51.7370 C   0  0  0  0  0  0  0  0  0  0  0  0
   58.3810   30.6840   51.0870 O   0  0  0  0  0  0  0  0  0  0  0  0
   58.7360   31.1930   49.8260 C   0  0  0  0  0  0  0  0  0  0  0  0
   58.8920   30.3500   48.7150 C   0  0  0  0  0  0  0  0  0  0  0  0
   59.1800   30.8640   47.4440 C   0  0  0  0  0  0  0  0  0  0  0  0
   59.3210   29.9600   46.3350 N   0  0  0  0  0  0  0  0  0  0  0  0
   58.2950   29.7810   45.3480 C   0  0  0  0  0  0  0  0  0  0  0  0
   57.2780   30.5250   45.3490 O   0  0  0  0  0  0  0  0  0  0  0  0
   58.4710   28.8010   44.3160 N   0  0  0  0  0  0  0  0  0  0  0  0
   57.9420   27.4670   44.3400 C   0  0  0  0  0  0  0  0  0  0  0  0
   57.3780   26.9830   45.5260 C   0  0  0  0  0  0  0  0  0  0  0  0
   56.8520   25.6870   45.5830 C   0  0  0  0  0  0  0  0  0  0  0  0
   56.8680   24.8620   44.4480 C   0  0  0  0  0  0  0  0  0  0  0  0
   56.3360   23.5230   44.5110 N   0  0  0  0  0  0  0  0  0  0  0  0
   57.0270   22.4340   43.7970 C   0  0  0  0  0  0  0  0  0  0  0  0
   57.8760   21.5870   44.7480 C   0  0  0  0  0  0  0  0  0  0  0  0
   59.5160   22.2720   44.8800 Cl  0  0  0  0  0  0  0  0  0  0  0  0
   55.2150   23.2420   45.4290 C   0  0  0  0  0  0  0  0  0  0  0  0
   53.9930   24.1220   45.1520 C   0  0  0  0  0  0  0  0  0  0  0  0
   52.4820   23.3040   45.6310 Cl  0  0  0  0  0  0  0  0  0  0  0  0
   57.4010   25.3640   43.2470 C   0  0  0  0  0  0  0  0  0  0  0  0
   57.9300   26.6550   43.1910 C   0  0  0  0  0  0  0  0  0  0  0  0
   59.3410   32.2570   47.2770 C   0  0  0  0  0  0  0  0  0  0  0  0
   59.6160   32.8180   46.0130 C   0  0  0  0  0  0  0  0  0  0  0  0
   59.7680   34.1990   45.8660 C   0  0  0  0  0  0  0  0  0  0  0  0
   59.6410   35.0390   46.9700 C   0  0  0  0  0  0  0  0  0  0  0  0
   59.3520   34.5070   48.2270 C   0  0  0  0  0  0  0  0  0  0  0  0
   59.1990   33.1170   48.3990 C   0  0  0  0  0  0  0  0  0  0  0  0
   58.9130   32.5810   49.6730 C   0  0  0  0  0  0  0  0  0  0  0  0
   58.7820   33.4520   50.7670 O   0  0  0  0  0  0  0  0  0  0  0  0
   59.4730   33.2930   52.0090 C   0  0  0  0  0  0  0  0  0  0  0  0
   60.9900   33.3820   51.8090 C   0  0  0  0  0  0  0  0  0  0  0  0
   61.5260   32.0730   51.3770 N   0  0  0  0  0  0  0  0  0  0  0  0
   61.3720   31.0720   52.4440 C   0  0  0  0  0  0  0  0  0  0  0  0
   62.9390   32.1820   50.9560 C   0  0  0  0  0  0  0  0  0  0  0  0
   63.0190   32.5330   49.4950 C   0  0  0  0  0  0  0  0  0  0  0  0
   63.3390   33.8460   49.1060 C   0  0  0  0  0  0  0  0  0  0  0  0
   63.3930   34.1860   47.7520 C   0  0  0  0  0  0  0  0  0  0  0  0
   63.1270   33.2210   46.7770 C   0  0  0  0  0  0  0  0  0  0  0  0
   62.8060   31.9130   47.1550 C   0  0  0  0  0  0  0  0  0  0  0  0
   62.7490   31.5690   48.5110 C   0  0  0  0  0  0  0  0  0  0  0  0
   57.2795   30.8891   52.8271 H   0  0  0  0  0  0  0  0  0  0  0  0
   56.7460   31.9020   51.4429 H   0  0  0  0  0  0  0  0  0  0  0  0
   56.4172   30.1361   51.4429 H   0  0  0  0  0  0  0  0  0  0  0  0
   58.7859   29.2629   48.8448 H   0  0  0  0  0  0  0  0  0  0  0  0
   60.2030   29.4080   46.2360 H   0  0  0  0  0  0  0  0  0  0  0  0
   57.3479   27.6249   46.4188 H   0  0  0  0  0  0  0  0  0  0  0  0
   56.4231   25.3126   46.5242 H   0  0  0  0  0  0  0  0  0  0  0  0
   56.2762   21.7885   43.3177 H   0  0  0  0  0  0  0  0  0  0  0  0
   57.6947   22.8833   43.0471 H   0  0  0  0  0  0  0  0  0  0  0  0
   57.4058   21.5747   45.7423 H   0  0  0  0  0  0  0  0  0  0  0  0
   57.9445   20.5624   44.3536 H   0  0  0  0  0  0  0  0  0  0  0  0
   54.9228   22.1876   45.3160 H   0  0  0  0  0  0  0  0  0  0  0  0
   55.5583   23.4603   46.4510 H   0  0  0  0  0  0  0  0  0  0  0  0
   54.0894   25.0583   45.7213 H   0  0  0  0  0  0  0  0  0  0  0  0
   53.9498   24.3255   44.0718 H   0  0  0  0  0  0  0  0  0  0  0  0
   57.4011   24.7346   42.3448 H   0  0  0  0  0  0  0  0  0  0  0  0
   58.3390   27.0388   42.2447 H   0  0  0  0  0  0  0  0  0  0  0  0
   59.7117   32.1625   45.1348 H   0  0  0  0  0  0  0  0  0  0  0  0
   59.9886   34.6242   44.8758 H   0  0  0  0  0  0  0  0  0  0  0  0
   59.7689   36.1250   46.8504 H   0  0  0  0  0  0  0  0  0  0  0  0
   59.2427   35.1786   49.0913 H   0  0  0  0  0  0  0  0  0  0  0  0
   59.1544   34.0857   52.7019 H   0  0  0  0  0  0  0  0  0  0  0  0
   59.2313   32.3017   52.4201 H   0  0  0  0  0  0  0  0  0  0  0  0
   61.2114   34.1369   51.0402 H   0  0  0  0  0  0  0  0  0  0  0  0
   61.4615   33.6662   52.7613 H   0  0  0  0  0  0  0  0  0  0  0  0
   61.4480   31.5660   53.4239 H   0  0  0  0  0  0  0  0  0  0  0  0
   60.3887   30.5874   52.3530 H   0  0  0  0  0  0  0  0  0  0  0  0
   62.1641   30.3142   52.3530 H   0  0  0  0  0  0  0  0  0  0  0  0
   63.4347   32.9668   51.5462 H   0  0  0  0  0  0  0  0  0  0  0  0
   63.4389   31.2163   51.1216 H   0  0  0  0  0  0  0  0  0  0  0  0
   63.5476   34.6084   49.8709 H   0  0  0  0  0  0  0  0  0  0  0  0
   63.6451   35.2142   47.4532 H   0  0  0  0  0  0  0  0  0  0  0  0
   63.1701   33.4901   45.7113 H   0  0  0  0  0  0  0  0  0  0  0  0
   62.5982   31.1541   46.3863 H   0  0  0  0  0  0  0  0  0  0  0  0
   62.4920   30.5409   48.8059 H   0  0  0  0  0  0  0  0  0  0  0  0
  1  2  1  0
  2  3  1  0
  3  4  2  0
  4  5  1  0
  5  6  1  0
  6  7  1  0
  7  8  2  0
  7  9  1  0
  9 10  1  0
 10 11  2  0
 11 12  1  0
 12 13  2  0
 13 14  1  0
 14 15  1  0
 15 16  1  0
 16 17  1  0
 14 18  1  0
 18 19  1  0
 19 20  1  0
 13 21  1  0
 21 22  2  0
  5 23  2  0
 23 24  1  0
 24 25  2  0
 25 26  1  0
 26 27  2  0
 27 28  1  0
 28 29  2  0
 29 30  1  0
 30 31  1  0
 31 32  1  0
 32 33  1  0
 33 34  1  0
 33 35  1  0
 35 36  1  0
 36 37  2  0
 37 38  1  0
 38 39  2  0
 39 40  1  0
 40 41  2  0
 29  3  1  0
 41 36  1  0
 22 10  1  0
 28 23  1  0
  1 42  1  0
  1 43  1  0
  1 44  1  0
  4 45  1  0
  6 46  1  0
 11 47  1  0
 12 48  1  0
 15 49  1  0
 15 50  1  0
 16 51  1  0
 16 52  1  0
 18 53  1  0
 18 54  1  0
 19 55  1  0
 19 56  1  0
 21 57  1  0
 22 58  1  0
 24 59  1  0
 25 60  1  0
 26 61  1  0
 27 62  1  0
 31 63  1  0
 31 64  1  0
 32 65  1  0
 32 66  1  0
 34 67  1  0
 34 68  1  0
 34 69  1  0
 35 70  1  0
 35 71  1  0
 37 72  1  0
 38 73  1  0
 39 74  1  0
 40 75  1  0
 41 76  1  0
M  CHG  1   9  -1
M  END
>  <UniqueID>  (1) 
1

>  <SMILES>  (1) 
COc1cc(NC(=O)[N-]c2ccc(N(CCCl)CCCl)cc2)c2ccccc2c1OCCN(C)Cc1ccccc1

>  <Energy>  (1) 
94.64044035069149

>  <Genealogy>  (1) 
COc1cc(NC(=O)[N-]c2ccc(N(CCCl)CCCl)cc2)c2ccccc2c1OCCN(C)Cc1ccccc1 (protonated)
COc1cc(NC(=O)[N-]c2ccc(N(CCCl)CCCl)cc2)c2ccccc2c1OCCN(C)Cc1ccccc1 (3D coordinates assigned)
COc1cc(NC(=O)[N-]c2ccc(N(CCCl)CCCl)cc2)c2ccccc2c1OCCN(C)Cc1ccccc1 (optimized conformer: 94.64044035069149 kcal/mol)

>  <smiles>  (1) 
COc1cc(NC(=O)Nc2ccc(N(CCCl)CCCl)cc2)c2ccccc2c1OCCN(C)Cc1ccccc1

>  <score_type>  (1) 
oracle

>  <origin>  (1) 
adg

>  <m_score__min__energy>  (1) 
-9.6400000000000006

>  <m_primary>  (1) 
energy

$$$$
1:0
     RDKit          3D

 65 68  0  0  1  0  0  0  0  0999 V2000
   64.4230   32.6960   48.1830 N   0  0  0  0  0  0  0  0  0  0  0  0
   63.5890   33.2800   49.1700 C   0  0  0  0  0  0  0  0  0  0  0  0
   63.7550   32.9130   50.3760 O   0  0  0  0  0  0  0  0  0  0  0  0
   62.5680   34.2820   48.7720 C   0  0  0  0  0  0  0  0  0  0  0  0
   61.2330   33.8280   49.1300 N   0  0  0  0  0  0  0  0  0  0  0  0
   60.8290   32.6520   48.8170 C   0  0  0  0  0  0  0  0  0  0  0  0
   61.3060   31.5710   49.4520 N   0  0  0  0  0  0  0  0  0  0  0  0
   60.8700   30.3480   49.1080 C   0  0  0  0  0  0  0  0  0  0  0  0
   59.9200   30.1540   48.0980 C   0  0  0  0  0  0  0  0  0  0  0  0
   59.5360   28.7870   47.8360 C   0  0  0  0  0  0  0  0  0  0  0  0
   59.8010   27.8050   48.5770 O   0  0  0  0  0  0  0  0  0  0  0  0
   58.7910   28.4490   46.6370 N   0  0  0  0  0  0  0  0  0  0  0  0
   58.4850   27.0630   46.4980 C   0  0  0  0  0  0  0  0  0  0  0  0
   57.2350   26.5420   46.7520 C   0  0  0  0  0  0  0  0  0  0  0  0
   56.9950   25.1940   46.6070 C   0  0  0  0  0  0  0  0  0  0  0  0
   58.0390   24.3560   46.1970 C   0  0  0  0  0  0  0  0  0  0  0  0
   57.8140   22.6350   45.9960 S   0  0  0  0  0  0  0  0  0  0  0  0
   59.1980   22.0460   45.7640 O   0  0  0  0  0  0  0  0  0  0  0  0
   57.2820   22.0790   47.2680 O   0  0  0  0  0  0  0  0  0  0  0  0
   56.8410   22.1980   44.7190 N   0  0  0  0  0  0  0  0  0  0  0  0
   56.8930   20.8820   44.2130 C   0  0  0  0  0  0  0  0  0  0  0  0
   56.9680   21.0130   42.6850 C   0  0  0  0  0  0  0  0  0  0  0  0
   55.9020   21.7870   42.2620 O   0  0  0  0  0  0  0  0  0  0  0  0
   55.8740   23.0670   42.7600 C   0  0  0  0  0  0  0  0  0  0  0  0
   55.8050   23.0520   44.2940 C   0  0  0  0  0  0  0  0  0  0  0  0
   59.2900   24.8710   45.9420 C   0  0  0  0  0  0  0  0  0  0  0  0
   59.4980   26.2120   46.0940 C   0  0  0  0  0  0  0  0  0  0  0  0
   59.4550   31.2640   47.4730 C   0  0  0  0  0  0  0  0  0  0  0  0
   58.6120   31.1920   46.5580 N   0  0  0  0  0  0  0  0  0  0  0  0
   57.7950   32.2540   46.1100 C   0  0  0  0  0  0  0  0  0  0  0  0
   57.5610   31.8480   44.6380 C   0  0  0  0  0  0  0  0  0  0  0  0
   57.9820   32.7450   43.6500 C   0  0  0  0  0  0  0  0  0  0  0  0
   57.7740   32.4290   42.3270 C   0  0  0  0  0  0  0  0  0  0  0  0
   57.1550   31.2290   42.0600 C   0  0  0  0  0  0  0  0  0  0  0  0
   56.7380   30.3410   43.0230 C   0  0  0  0  0  0  0  0  0  0  0  0
   56.9500   30.6640   44.3590 C   0  0  0  0  0  0  0  0  0  0  0  0
   56.5400   29.7860   45.3730 O   0  0  0  0  0  0  0  0  0  0  0  0
   59.9170   32.4800   47.8450 N   0  0  0  0  0  0  0  0  0  0  0  0
   64.9360   33.2860   47.4830 H   0  0  0  0  0  0  0  0  0  0  0  0
   64.5010   31.6380   48.1900 H   0  0  0  0  0  0  0  0  0  0  0  0
   62.7757   35.2323   49.2855 H   0  0  0  0  0  0  0  0  0  0  0  0
   62.6138   34.4187   47.6815 H   0  0  0  0  0  0  0  0  0  0  0  0
   62.0160   31.6480   50.2170 H   0  0  0  0  0  0  0  0  0  0  0  0
   61.2721   29.4711   49.6365 H   0  0  0  0  0  0  0  0  0  0  0  0
   58.5130   29.1770   45.9460 H   0  0  0  0  0  0  0  0  0  0  0  0
   56.4215   27.2090   47.0735 H   0  0  0  0  0  0  0  0  0  0  0  0
   55.9961   24.7808   46.8106 H   0  0  0  0  0  0  0  0  0  0  0  0
   57.7835   20.3614   44.5952 H   0  0  0  0  0  0  0  0  0  0  0  0
   56.0133   20.2986   44.5225 H   0  0  0  0  0  0  0  0  0  0  0  0
   57.9143   21.4954   42.3991 H   0  0  0  0  0  0  0  0  0  0  0  0
   56.9233   20.0186   42.2169 H   0  0  0  0  0  0  0  0  0  0  0  0
   56.7849   23.5969   42.4448 H   0  0  0  0  0  0  0  0  0  0  0  0
   54.9809   23.5780   42.3711 H   0  0  0  0  0  0  0  0  0  0  0  0
   55.9565   24.0656   44.6937 H   0  0  0  0  0  0  0  0  0  0  0  0
   54.8239   22.7051   44.6506 H   0  0  0  0  0  0  0  0  0  0  0  0
   60.1100   24.2120   45.6205 H   0  0  0  0  0  0  0  0  0  0  0  0
   60.4965   26.6261   45.8900 H   0  0  0  0  0  0  0  0  0  0  0  0
   56.8499   32.3006   46.6710 H   0  0  0  0  0  0  0  0  0  0  0  0
   58.2389   33.2521   46.2392 H   0  0  0  0  0  0  0  0  0  0  0  0
   58.4725   33.6898   43.9271 H   0  0  0  0  0  0  0  0  0  0  0  0
   58.0885   33.1054   41.5186 H   0  0  0  0  0  0  0  0  0  0  0  0
   56.9826   30.9630   41.0067 H   0  0  0  0  0  0  0  0  0  0  0  0
   56.2479   29.3967   42.7433 H   0  0  0  0  0  0  0  0  0  0  0  0
   56.7010   30.0880   46.3220 H   0  0  0  0  0  0  0  0  0  0  0  0
   59.5600   33.3380   47.3660 H   0  0  0  0  0  0  0  0  0  0  0  0
  1  2  1  0
  2  3  2  0
  2  4  1  0
  4  5  1  0
  5  6  2  0
  6  7  1  0
  7  8  1  0
  8  9  2  0
  9 10  1  0
 10 11  2  0
 10 12  1  0
 12 13  1  0
 13 14  2  0
 14 15  1  0
 15 16  2  0
 16 17  1  0
 17 18  2  0
 17 19  2  0
 17 20  1  0
 20 21  1  0
 21 22  1  0
 22 23  1  0
 23 24  1  0
 24 25  1  0
 16 26  1  0
 26 27  2  0
  9 28  1  0
 28 29  2  0
 29 30  1  0
 30 31  1  0
 31 32  2  0
 32 33  1  0
 33 34  2  0
 34 35  1  0
 35 36  2  0
 36 37  1  0
 28 38  1  0
 38  6  1  0
 27 13  1  0
 36 31  1  0
 25 20  1  0
  1 39  1  0
  1 40  1  0
  4 41  1  0
  4 42  1  0
  7 43  1  0
  8 44  1  0
 12 45  1  0
 14 46  1  0
 15 47  1  0
 21 48  1  0
 21 49  1  0
 22 50  1  0
 22 51  1  0
 24 52  1  0
 24 53  1  0
 25 54  1  0
 25 55  1  0
 26 56  1  0
 27 57  1  0
 30 58  1  0
 30 59  1  0
 32 60  1  0
 33 61  1  0
 34 62  1  0
 35 63  1  0
 37 64  1  0
 38 65  1  0
M  END
>  <smiles>  (2) 
NC(=O)CN=c1[nH]cc(C(=O)Nc2ccc(S(=O)(=O)N3CCOCC3)cc2)c(=NCc2ccccc2O)[nH]1

>  <score_type>  (2) 
oracle

>  <origin>  (2) 
adg

>  <m_score__min__energy>  (2) 
-9.6199999999999992

>  <m_primary>  (2) 
energy

$$$$
2:0
     RDKit          3D

 44 45  0  0  0  0  0  0  0  0999 V2000
   56.4880   24.5890   44.6940 C   0  0  0  0  0  0  0  0  0  0  0  0
   55.5030   25.0250   45.7720 C   0  0  0  0  0  0  0  0  0  0  0  0
   55.5320   26.4430   45.9410 O   0  0  0  0  0  0  0  0  0  0  0  0
   56.6890   27.2320   46.0630 C   0  0  0  0  0  0  0  0  0  0  0  0
   57.8460   26.7790   46.7230 C   0  0  0  0  0  0  0  0  0  0  0  0
   58.9740   27.5970   46.8200 C   0  0  0  0  0  0  0  0  0  0  0  0
   58.9730   28.8830   46.2560 C   0  0  0  0  0  0  0  0  0  0  0  0
   60.1580   29.7680   46.3520 C   0  0  0  0  0  0  0  0  0  0  0  0
   61.1940   29.4780   45.6910 O   0  0  0  0  0  0  0  0  0  0  0  0
   60.1490   30.9430   47.1830 N   0  0  0  0  0  0  0  0  0  0  0  0
   61.3000   31.7850   47.3540 C   0  0  0  0  0  0  0  0  0  0  0  0
   62.3810   31.3130   48.1120 C   0  0  0  0  0  0  0  0  0  0  0  0
   63.5170   32.1040   48.2940 C   0  0  0  0  0  0  0  0  0  0  0  0
   64.5500   31.6460   49.0420 F   0  0  0  0  0  0  0  0  0  0  0  0
   63.5870   33.3690   47.7080 C   0  0  0  0  0  0  0  0  0  0  0  0
   62.5300   33.8400   46.9260 C   0  0  0  0  0  0  0  0  0  0  0  0
   61.3810   33.0470   46.7280 C   0  0  0  0  0  0  0  0  0  0  0  0
   60.3240   33.4680   45.9040 O   0  0  0  0  0  0  0  0  0  0  0  0
   59.3410   34.4290   46.2770 C   0  0  0  0  0  0  0  0  0  0  0  0
   57.8110   29.3420   45.6130 C   0  0  0  0  0  0  0  0  0  0  0  0
   56.6710   28.5210   45.5100 C   0  0  0  0  0  0  0  0  0  0  0  0
   55.5010   28.9500   44.8630 O   0  0  0  0  0  0  0  0  0  0  0  0
   55.4430   30.0050   43.9070 C   0  0  0  0  0  0  0  0  0  0  0  0
   56.3200   29.6580   42.7150 C   0  0  0  0  0  0  0  0  0  0  0  0
   57.3958   24.1872   45.1677 H   0  0  0  0  0  0  0  0  0  0  0  0
   56.0260   23.8113   44.0681 H   0  0  0  0  0  0  0  0  0  0  0  0
   56.7531   25.4539   44.0681 H   0  0  0  0  0  0  0  0  0  0  0  0
   54.4883   24.7172   45.4793 H   0  0  0  0  0  0  0  0  0  0  0  0
   55.7874   24.5504   46.7227 H   0  0  0  0  0  0  0  0  0  0  0  0
   57.8624   25.7724   47.1662 H   0  0  0  0  0  0  0  0  0  0  0  0
   59.8702   27.2309   47.3423 H   0  0  0  0  0  0  0  0  0  0  0  0
   59.2560   31.2660   47.6170 H   0  0  0  0  0  0  0  0  0  0  0  0
   62.3337   30.3124   48.5665 H   0  0  0  0  0  0  0  0  0  0  0  0
   64.4771   33.9966   47.8625 H   0  0  0  0  0  0  0  0  0  0  0  0
   62.5942   34.8352   46.4619 H   0  0  0  0  0  0  0  0  0  0  0  0
   59.2822   34.4865   47.3739 H   0  0  0  0  0  0  0  0  0  0  0  0
   59.6187   35.4135   45.8726 H   0  0  0  0  0  0  0  0  0  0  0  0
   58.3630   34.1291   45.8726 H   0  0  0  0  0  0  0  0  0  0  0  0
   57.7913   30.3550   45.1847 H   0  0  0  0  0  0  0  0  0  0  0  0
   54.4041   30.1387   43.5712 H   0  0  0  0  0  0  0  0  0  0  0  0
   55.8025   30.9370   44.3675 H   0  0  0  0  0  0  0  0  0  0  0  0
   57.2878   29.2751   43.0710 H   0  0  0  0  0  0  0  0  0  0  0  0
   55.8230   28.8888   42.1057 H   0  0  0  0  0  0  0  0  0  0  0  0
   56.4839   30.5591   42.1057 H   0  0  0  0  0  0  0  0  0  0  0  0
  1  2  1  0
  2  3  1  0
  3  4  1  0
  4  5  2  0
  5  6  1  0
  6  7  2  0
  7  8  1  0
  8  9  2  0
  8 10  1  0
 10 11  1  0
 11 12  2  0
 12 13  1  0
 13 14  1  0
 13 15  2  0
 15 16  1  0
 16 17  2  0
 17 18  1  0
 18 19  1  0
  7 20  1  0
 20 21  2  0
 21 22  1  0
 22 23  1  0
 23 24  1  0
 21  4  1  0
 17 11  1  0
  1 25  1  0
  1 26  1  0
  1 27  1  0
  2 28  1  0
  2 29  1  0
  5 30  1  0
  6 31  1  0
 10 32  1  0
 12 33  1  0
 15 34  1  0
 16 35  1  0
 19 36  1  0
 19 37  1  0
 19 38  1  0
 20 39  1  0
 23 40  1  0
 23 41  1  0
 24 42  1  0
 24 43  1  0
 24 44  1  0
M  END
>  <UniqueID>  (3) 
2

>  <SMILES>  (3) 
CCOc1ccc(C(=O)Nc2cc(F)ccc2OC)cc1OCC

>  <Energy>  (3) 
46.39829428312252

>  <Genealogy>  (3) 
CCOc1ccc(C(=O)Nc2cc(F)ccc2OC)cc1OCC (3D coordinates assigned)
CCOc1ccc(C(=O)Nc2cc(F)ccc2OC)cc1OCC (optimized conformer: 46.39829428312252 kcal/mol)

>  <smiles>  (3) 
CCOc1ccc(C(=O)Nc2cc(F)ccc2OC)cc1OCC

>  <score_type>  (3) 
oracle

>  <origin>  (3) 
adg

>  <m_score__min__energy>  (3) 
-6.8700000000000001

>  <m_primary>  (3) 
energy

$$$$
3:0
     RDKit          3D

 50 53  0  0  0  0  0  0  0  0999 V2000
   62.6370   34.8950   49.9060 O   0  0  0  0  0  0  0  0  0  0  0  0
   61.8640   33.9040   49.8090 C   0  0  0  0  0  0  0  0  0  0  0  0
   61.6310   33.0200   51.0070 C   0  0  0  0  0  0  0  0  0  0  0  0
   60.5580   32.0050   50.7150 C   0  0  0  0  0  0  0  0  0  0  0  0
   59.2120   32.3040   50.9880 C   0  0  0  0  0  0  0  0  0  0  0  0
   58.2080   31.3840   50.6720 C   0  0  0  0  0  0  0  0  0  0  0  0
   58.5390   30.1680   50.0730 C   0  0  0  0  0  0  0  0  0  0  0  0
   59.8760   29.8670   49.7940 C   0  0  0  0  0  0  0  0  0  0  0  0
   60.8850   30.7780   50.1110 C   0  0  0  0  0  0  0  0  0  0  0  0
   62.1750   30.4720   49.8230 F   0  0  0  0  0  0  0  0  0  0  0  0
   61.2360   33.6230   48.5500 N   0  0  0  0  0  0  0  0  0  0  0  0
   62.0090   32.9660   47.4850 C   0  0  0  0  0  0  0  0  0  0  0  0
   61.2160   31.7920   46.8890 C   0  0  0  0  0  0  0  0  0  0  0  0
   59.7960   32.2090   46.6290 C   0  0  0  0  0  0  0  0  0  0  0  0
   59.1960   33.2590   47.2850 C   0  0  0  0  0  0  0  0  0  0  0  0
   57.8940   33.3480   46.8260 C   0  0  0  0  0  0  0  0  0  0  0  0
   57.7570   32.3050   45.9280 C   0  0  0  0  0  0  0  0  0  0  0  0
   56.5890   32.0080   45.2410 O   0  0  0  0  0  0  0  0  0  0  0  0
   58.9150   31.6150   45.7930 N   0  0  0  0  0  0  0  0  0  0  0  0
   59.1620   30.4750   44.9080 C   0  0  0  0  0  0  0  0  0  0  0  0
   58.7950   29.1750   45.5950 C   0  0  0  0  0  0  0  0  0  0  0  0
   59.7890   28.5070   46.3340 C   0  0  0  0  0  0  0  0  0  0  0  0
   59.4830   27.3690   47.0830 C   0  0  0  0  0  0  0  0  0  0  0  0
   58.1820   26.8770   47.1070 C   0  0  0  0  0  0  0  0  0  0  0  0
   57.1880   27.5050   46.3580 C   0  0  0  0  0  0  0  0  0  0  0  0
   57.4820   28.6340   45.5730 C   0  0  0  0  0  0  0  0  0  0  0  0
   56.4530   29.1750   44.7320 N   0  0  0  0  0  0  0  0  0  0  0  0
   56.7520   29.7020   43.6390 O   0  0  0  0  0  0  0  0  0  0  0  0
   55.1820   29.3460   45.2230 O   0  0  0  0  0  0  0  0  0  0  0  0
   59.9100   34.1730   48.2330 C   0  0  0  0  0  0  0  0  0  0  0  0
   62.5655   32.4965   51.2574 H   0  0  0  0  0  0  0  0  0  0  0  0
   61.3074   33.6454   51.8521 H   0  0  0  0  0  0  0  0  0  0  0  0
   58.9476   33.2656   51.4521 H   0  0  0  0  0  0  0  0  0  0  0  0
   57.1569   31.6187   50.8956 H   0  0  0  0  0  0  0  0  0  0  0  0
   57.7484   29.4462   49.8202 H   0  0  0  0  0  0  0  0  0  0  0  0
   60.1338   28.9073   49.3223 H   0  0  0  0  0  0  0  0  0  0  0  0
   62.2252   33.6965   46.6915 H   0  0  0  0  0  0  0  0  0  0  0  0
   62.9467   32.5810   47.9123 H   0  0  0  0  0  0  0  0  0  0  0  0
   61.6829   31.4802   45.9431 H   0  0  0  0  0  0  0  0  0  0  0  0
   61.2211   30.9544   47.6020 H   0  0  0  0  0  0  0  0  0  0  0  0
   57.1325   34.0881   47.1131 H   0  0  0  0  0  0  0  0  0  0  0  0
   56.1960   31.0750   45.2490 H   0  0  0  0  0  0  0  0  0  0  0  0
   58.5548   30.5863   43.9975 H   0  0  0  0  0  0  0  0  0  0  0  0
   60.2316   30.4506   44.6524 H   0  0  0  0  0  0  0  0  0  0  0  0
   60.8213   28.8866   46.3214 H   0  0  0  0  0  0  0  0  0  0  0  0
   60.2726   26.8603   47.6555 H   0  0  0  0  0  0  0  0  0  0  0  0
   57.9380   25.9940   47.7159 H   0  0  0  0  0  0  0  0  0  0  0  0
   56.1607   27.1124   46.3814 H   0  0  0  0  0  0  0  0  0  0  0  0
   60.0267   35.1630   47.7679 H   0  0  0  0  0  0  0  0  0  0  0  0
   59.3240   34.2660   49.1593 H   0  0  0  0  0  0  0  0  0  0  0  0
  1  2  2  0
  2  3  1  0
  3  4  1  0
  4  5  2  0
  5  6  1  0
  6  7  2  0
  7  8  1  0
  8  9  2  0
  9 10  1  0
  2 11  1  0
 11 12  1  0
 12 13  1  0
 13 14  1  0
 14 15  2  0
 15 16  1  0
 16 17  2  0
 17 18  1  0
 17 19  1  0
 19 20  1  0
 20 21  1  0
 21 22  2  0
 22 23  1  0
 23 24  2  0
 24 25  1  0
 25 26  2  0
 26 27  1  0
 27 28  2  0
 27 29  1  0
 15 30  1  0
  9  4  1  0
 30 11  1  0
 19 14  1  0
 26 21  1  0
  3 31  1  0
  3 32  1  0
  5 33  1  0
  6 34  1  0
  7 35  1  0
  8 36  1  0
 12 37  1  0
 12 38  1  0
 13 39  1  0
 13 40  1  0
 16 41  1  0
 18 42  1  0
 20 43  1  0
 20 44  1  0
 22 45  1  0
 23 46  1  0
 24 47  1  0
 25 48  1  0
 30 49  1  0
 30 50  1  0
M  CHG  2  27   1  29  -1
M  END
>  <UniqueID>  (4) 
3

>  <SMILES>  (4) 
O=C(Cc1ccccc1F)N1CCc2c(cc(O)n2Cc2ccccc2[N+](=O)[O-])C1

>  <Energy>  (4) 
91.76340445863289

>  <Genealogy>  (4) 
O=C(Cc1ccccc1F)N1CCc2c(cc(O)n2Cc2ccccc2[N+](=O)[O-])C1 (3D coordinates assigned)
O=C(Cc1ccccc1F)N1CCc2c(cc(O)n2Cc2ccccc2[N+](=O)[O-])C1 (nonaromatic ring conformer: 91.76340445863289 kcal/mol)

>  <smiles>  (4) 
O=C(Cc1ccccc1F)N1CCc2c(cc(O)n2Cc2ccccc2[N+](=O)[O-])C1

>  <score_type>  (4) 
oracle

>  <origin>  (4) 
adg

>  <m_score__min__energy>  (4) 
-8.9600000000000009

>  <m_primary>  (4) 
energy

$$$$
4:0
     RDKit          3D

 45 47  0  0  1  0  0  0  0  0999 V2000
   56.2620   20.7230   43.0320 N   0  0  0  0  0  0  0  0  0  0  0  0
   57.0890   21.1980   43.6840 C   0  0  0  0  0  0  0  0  0  0  0  0
   58.1540   21.7870   44.4980 C   0  0  0  0  0  0  0  0  0  0  0  0
   58.1560   23.2180   44.3330 N   0  0  0  0  0  0  0  0  0  0  0  0
   57.8750   24.0260   45.4450 C   0  0  0  0  0  0  0  0  0  0  0  0
   57.6330   23.4280   46.5440 O   0  0  0  0  0  0  0  0  0  0  0  0
   57.8550   25.4830   45.3750 C   0  0  0  0  0  0  0  0  0  0  0  0
   57.7430   26.2920   46.4860 C   0  0  0  0  0  0  0  0  0  0  0  0
   57.7260   27.6700   46.4140 C   0  0  0  0  0  0  0  0  0  0  0  0
   57.8260   28.2540   45.1520 C   0  0  0  0  0  0  0  0  0  0  0  0
   57.8030   29.7120   45.1210 C   0  0  0  0  0  0  0  0  0  0  0  0
   58.9570   30.3800   45.4720 C   0  0  0  0  0  0  0  0  0  0  0  0
   58.9260   31.7320   45.4400 N   0  0  0  0  0  0  0  0  0  0  0  0
   57.8220   32.4180   45.0830 C   0  0  0  0  0  0  0  0  0  0  0  0
   57.8810   33.6840   45.0810 N   0  0  0  0  0  0  0  0  0  0  0  0
   59.1080   34.4240   45.0600 C   0  0  0  0  0  0  0  0  0  0  0  0
   59.8610   34.3260   46.3420 C   0  0  0  0  0  0  0  0  0  0  0  0
   61.1840   33.9400   46.4080 C   0  0  0  0  0  0  0  0  0  0  0  0
   61.8890   33.8440   47.5900 C   0  0  0  0  0  0  0  0  0  0  0  0
   61.2730   34.1430   48.7880 C   0  0  0  0  0  0  0  0  0  0  0  0
   59.9490   34.5340   48.7620 C   0  0  0  0  0  0  0  0  0  0  0  0
   59.2610   34.6230   47.5710 C   0  0  0  0  0  0  0  0  0  0  0  0
   56.7060   31.7660   44.7440 N   0  0  0  0  0  0  0  0  0  0  0  0
   56.6680   30.4270   44.7540 C   0  0  0  0  0  0  0  0  0  0  0  0
   55.6210   29.7370   44.4370 N   0  0  0  0  0  0  0  0  0  0  0  0
   57.9390   27.4880   44.0100 C   0  0  0  0  0  0  0  0  0  0  0  0
   57.9520   26.0980   44.1440 C   0  0  0  0  0  0  0  0  0  0  0  0
   57.9836   21.5412   45.5566 H   0  0  0  0  0  0  0  0  0  0  0  0
   59.1248   21.3818   44.1764 H   0  0  0  0  0  0  0  0  0  0  0  0
   58.3640   23.6240   43.4030 H   0  0  0  0  0  0  0  0  0  0  0  0
   57.6636   25.8172   47.4751 H   0  0  0  0  0  0  0  0  0  0  0  0
   57.6367   28.2862   47.3208 H   0  0  0  0  0  0  0  0  0  0  0  0
   59.8663   29.8354   45.7662 H   0  0  0  0  0  0  0  0  0  0  0  0
   59.8240   32.2080   45.7130 H   0  0  0  0  0  0  0  0  0  0  0  0
   59.7408   34.0332   44.2495 H   0  0  0  0  0  0  0  0  0  0  0  0
   58.8545   35.4829   44.9038 H   0  0  0  0  0  0  0  0  0  0  0  0
   61.7036   33.6962   45.4696 H   0  0  0  0  0  0  0  0  0  0  0  0
   62.9428   33.5289   47.5774 H   0  0  0  0  0  0  0  0  0  0  0  0
   61.8221   34.0718   49.7385 H   0  0  0  0  0  0  0  0  0  0  0  0
   59.4365   34.7777   49.7043 H   0  0  0  0  0  0  0  0  0  0  0  0
   58.2070   34.9374   47.5870 H   0  0  0  0  0  0  0  0  0  0  0  0
   55.8740   32.2900   44.4750 H   0  0  0  0  0  0  0  0  0  0  0  0
   55.7810   28.9490   43.7560 H   0  0  0  0  0  0  0  0  0  0  0  0
   58.0168   27.9600   43.0195 H   0  0  0  0  0  0  0  0  0  0  0  0
   58.0422   25.4754   43.2417 H   0  0  0  0  0  0  0  0  0  0  0  0
  1  2  3  0
  2  3  1  0
  3  4  1  0
  4  5  1  0
  5  6  2  0
  5  7  1  0
  7  8  2  0
  8  9  1  0
  9 10  2  0
 10 11  1  0
 11 12  2  0
 12 13  1  0
 13 14  1  0
 14 15  2  0
 15 16  1  0
 16 17  1  0
 17 18  2  0
 18 19  1  0
 19 20  2  0
 20 21  1  0
 21 22  2  0
 14 23  1  0
 23 24  1  0
 24 25  2  3
 10 26  1  0
 26 27  2  0
 27  7  1  0
 24 11  1  0
 22 17  1  0
  3 28  1  0
  3 29  1  0
  4 30  1  0
  8 31  1  0
  9 32  1  0
 12 33  1  0
 13 34  1  0
 16 35  1  0
 16 36  1  0
 18 37  1  0
 19 38  1  0
 20 39  1  0
 21 40  1  0
 22 41  1  0
 23 42  1  0
 25 43  1  0
 26 44  1  0
 27 45  1  0
M  END
>  <smiles>  (5) 
N#CCNC(=O)c1ccc(-c2c[nH]c(=NCc3ccccc3)[nH]c2=N)cc1

>  <score_type>  (5) 
oracle

>  <origin>  (5) 
adg

>  <m_score__min__energy>  (5) 
-7.9299999999999997

>  <m_primary>  (5) 
energy

$$$$
5:0
     RDKit          3D

 48 50  0  0  0  0  0  0  0  0999 V2000
   59.6490   25.4880   46.0090 C   0  0  0  0  0  0  0  0  0  0  0  0
   58.2490   25.0790   45.6250 C   0  0  0  0  0  0  0  0  0  0  0  0
   58.0670   23.9380   44.9090 N   0  0  0  0  0  0  0  0  0  0  0  0
   56.8300   23.5060   44.5440 C   0  0  0  0  0  0  0  0  0  0  0  0
   56.7180   22.1040   43.6820 S   0  0  0  0  0  0  0  0  0  0  0  0
   55.7120   24.2250   44.8980 N   0  0  0  0  0  0  0  0  0  0  0  0
   54.3710   23.7510   44.5030 C   0  0  0  0  0  0  0  0  0  0  0  0
   55.8510   25.3750   45.6370 C   0  0  0  0  0  0  0  0  0  0  0  0
   54.8290   26.0310   45.9830 O   0  0  0  0  0  0  0  0  0  0  0  0
   57.1260   25.8360   46.0180 C   0  0  0  0  0  0  0  0  0  0  0  0
   57.2780   27.0970   46.8530 C   0  0  0  0  0  0  0  0  0  0  0  0
   57.2590   28.2800   46.0000 N   0  0  0  0  0  0  0  0  0  0  0  0
   58.3500   29.2000   45.8840 C   0  0  0  0  0  0  0  0  0  0  0  0
   59.4680   28.9140   46.3950 O   0  0  0  0  0  0  0  0  0  0  0  0
   58.1740   30.4720   45.1470 C   0  0  0  0  0  0  0  0  0  0  0  0
   57.9670   30.4660   43.7560 C   0  0  0  0  0  0  0  0  0  0  0  0
   57.7490   31.6630   43.0700 C   0  0  0  0  0  0  0  0  0  0  0  0
   57.7340   32.8760   43.7590 C   0  0  0  0  0  0  0  0  0  0  0  0
   57.9620   32.9050   45.1430 C   0  0  0  0  0  0  0  0  0  0  0  0
   57.8980   34.2110   45.8880 C   0  0  0  0  0  0  0  0  0  0  0  0
   58.2360   34.0070   47.2610 O   0  0  0  0  0  0  0  0  0  0  0  0
   59.5400   33.9390   47.7790 C   0  0  0  0  0  0  0  0  0  0  0  0
   59.7000   33.9260   49.1710 C   0  0  0  0  0  0  0  0  0  0  0  0
   60.9740   33.8550   49.7390 C   0  0  0  0  0  0  0  0  0  0  0  0
   62.1050   33.8120   48.9200 C   0  0  0  0  0  0  0  0  0  0  0  0
   61.9620   33.8440   47.5300 C   0  0  0  0  0  0  0  0  0  0  0  0
   63.3830   33.8210   46.5010 Cl  0  0  0  0  0  0  0  0  0  0  0  0
   60.6860   33.9060   46.9580 C   0  0  0  0  0  0  0  0  0  0  0  0
   58.1770   31.7000   45.8310 C   0  0  0  0  0  0  0  0  0  0  0  0
   59.7359   25.5134   47.1053 H   0  0  0  0  0  0  0  0  0  0  0  0
   60.3679   24.7623   45.6009 H   0  0  0  0  0  0  0  0  0  0  0  0
   59.8642   26.4866   45.6009 H   0  0  0  0  0  0  0  0  0  0  0  0
   58.9020   23.3720   44.6320 H   0  0  0  0  0  0  0  0  0  0  0  0
   53.7763   23.5408   45.4042 H   0  0  0  0  0  0  0  0  0  0  0  0
   53.8694   24.5263   43.9052 H   0  0  0  0  0  0  0  0  0  0  0  0
   54.4680   22.8327   43.9052 H   0  0  0  0  0  0  0  0  0  0  0  0
   56.4485   27.1565   47.5730 H   0  0  0  0  0  0  0  0  0  0  0  0
   58.2400   27.0575   47.3851 H   0  0  0  0  0  0  0  0  0  0  0  0
   57.9768   29.5138   43.2054 H   0  0  0  0  0  0  0  0  0  0  0  0
   57.5885   31.6492   41.9819 H   0  0  0  0  0  0  0  0  0  0  0  0
   57.5428   33.8129   43.2153 H   0  0  0  0  0  0  0  0  0  0  0  0
   58.6081   34.9214   45.4396 H   0  0  0  0  0  0  0  0  0  0  0  0
   56.8765   34.6140   45.8235 H   0  0  0  0  0  0  0  0  0  0  0  0
   58.8146   33.9721   49.8221 H   0  0  0  0  0  0  0  0  0  0  0  0
   61.0870   33.8329   50.8330 H   0  0  0  0  0  0  0  0  0  0  0  0
   63.1075   33.7530   49.3688 H   0  0  0  0  0  0  0  0  0  0  0  0
   60.5768   33.9291   45.8637 H   0  0  0  0  0  0  0  0  0  0  0  0
   58.3497   31.7172   46.9172 H   0  0  0  0  0  0  0  0  0  0  0  0
  1  2  1  0
  2  3  1  0
  3  4  1  0
  4  5  2  0
  4  6  1  0
  6  7  1  0
  6  8  1  0
  8  9  2  0
  8 10  1  0
 10 11  1  0
 11 12  1  0
 12 13  1  0
 13 14  2  0
 13 15  1  0
 15 16  2  0
 16 17  1  0
 17 18  2  0
 18 19  1  0
 19 20  1  0
 20 21  1  0
 21 22  1  0
 22 23  2  0
 23 24  1  0
 24 25  2  0
 25 26  1  0
 26 27  1  0
 26 28  2  0
 19 29  2  0
 10  2  2  0
 29 15  1  0
 28 22  1  0
  1 30  1  0
  1 31  1  0
  1 32  1  0
  3 33  1  0
  7 34  1  0
  7 35  1  0
  7 36  1  0
 11 37  1  0
 11 38  1  0
 16 39  1  0
 17 40  1  0
 18 41  1  0
 20 42  1  0
 20 43  1  0
 23 44  1  0
 24 45  1  0
 25 46  1  0
 28 47  1  0
 29 48  1  0
M  CHG  1  12  -1
M  END
>  <UniqueID>  (6) 
4

>  <SMILES>  (6) 
Cc1[nH]c(=S)n(C)c(=O)c1C[N-]C(=O)c1cccc(COc2cccc(Cl)c2)c1

>  <Energy>  (6) 
56.58793109574542

>  <Genealogy>  (6) 
Cc1[nH]c(=S)n(C)c(=O)c1C[N-]C(=O)c1cccc(COc2cccc(Cl)c2)c1 (protonated)
Cc1[nH]c(=S)n(C)c(=O)c1C[N-]C(=O)c1cccc(COc2cccc(Cl)c2)c1 (3D coordinates assigned)
Cc1[nH]c(=S)n(C)c(=O)c1C[N-]C(=O)c1cccc(COc2cccc(Cl)c2)c1 (optimized conformer: 56.58793109574542 kcal/mol)

>  <smiles>  (6) 
Cc1[nH]c(=S)n(C)c(=O)c1CNC(=O)c1cccc(COc2cccc(Cl)c2)c1

>  <score_type>  (6) 
oracle

>  <origin>  (6) 
adg

>  <m_score__min__energy>  (6) 
-11.09

>  <m_primary>  (6) 
energy

$$$$
6:0
     RDKit          3D

 49 51  0  0  0  0  0  0  0  0999 V2000
   63.3930   33.8400   46.3700 C   0  0  0  0  0  0  0  0  0  0  0  0
   61.9690   33.4880   46.7910 C   0  0  0  0  0  0  0  0  0  0  0  0
   61.9500   32.8220   48.1740 C   0  0  0  0  0  0  0  0  0  0  0  0
   61.8720   31.2860   48.0980 C   0  0  0  0  0  0  0  0  0  0  0  0
   60.4700   30.7520   47.7650 C   0  0  0  0  0  0  0  0  0  0  0  0
   60.4890   29.8340   46.6270 N   0  0  0  0  0  0  0  0  0  0  0  0
   59.2570   29.4900   45.9760 C   0  0  0  0  0  0  0  0  0  0  0  0
   58.3790   30.5330   45.6200 C   0  0  0  0  0  0  0  0  0  0  0  0
   58.7600   31.8440   45.9700 O   0  0  0  0  0  0  0  0  0  0  0  0
   57.8990   32.9720   46.0810 C   0  0  0  0  0  0  0  0  0  0  0  0
   57.1820   30.2300   44.9300 C   0  0  0  0  0  0  0  0  0  0  0  0
   56.2810   31.2180   44.5550 O   0  0  0  0  0  0  0  0  0  0  0  0
   56.8800   28.9090   44.6020 C   0  0  0  0  0  0  0  0  0  0  0  0
   57.7360   27.8700   44.9630 C   0  0  0  0  0  0  0  0  0  0  0  0
   57.4050   26.6240   44.6390 O   0  0  0  0  0  0  0  0  0  0  0  0
   58.1470   25.5650   44.9490 C   0  0  0  0  0  0  0  0  0  0  0  0
   57.6830   24.2190   44.5290 C   0  0  0  0  0  0  0  0  0  0  0  0
   58.2310   23.0420   45.0760 C   0  0  0  0  0  0  0  0  0  0  0  0
   57.7820   21.7870   44.6530 C   0  0  0  0  0  0  0  0  0  0  0  0
   56.7860   21.6880   43.6740 C   0  0  0  0  0  0  0  0  0  0  0  0
   56.3300   20.4430   43.2460 O   0  0  0  0  0  0  0  0  0  0  0  0
   56.2450   22.8500   43.1160 C   0  0  0  0  0  0  0  0  0  0  0  0
   56.6930   24.1070   43.5360 C   0  0  0  0  0  0  0  0  0  0  0  0
   59.3300   25.7460   45.6800 C   0  0  0  0  0  0  0  0  0  0  0  0
   59.7200   27.0330   46.0490 C   0  0  0  0  0  0  0  0  0  0  0  0
   60.7660   27.1730   46.7350 O   0  0  0  0  0  0  0  0  0  0  0  0
   58.9310   28.1420   45.6670 C   0  0  0  0  0  0  0  0  0  0  0  0
   64.0129   33.9932   47.2657 H   0  0  0  0  0  0  0  0  0  0  0  0
   63.8118   33.0183   45.7704 H   0  0  0  0  0  0  0  0  0  0  0  0
   63.3807   34.7621   45.7704 H   0  0  0  0  0  0  0  0  0  0  0  0
   61.3673   34.4081   46.8271 H   0  0  0  0  0  0  0  0  0  0  0  0
   61.5524   32.7820   46.0576 H   0  0  0  0  0  0  0  0  0  0  0  0
   62.8690   33.1007   48.7105 H   0  0  0  0  0  0  0  0  0  0  0  0
   61.0483   33.1730   48.6972 H   0  0  0  0  0  0  0  0  0  0  0  0
   62.5684   30.9415   47.3193 H   0  0  0  0  0  0  0  0  0  0  0  0
   62.1325   30.9022   49.0954 H   0  0  0  0  0  0  0  0  0  0  0  0
   60.0746   30.2206   48.6432 H   0  0  0  0  0  0  0  0  0  0  0  0
   59.8344   31.6095   47.4990 H   0  0  0  0  0  0  0  0  0  0  0  0
   61.2560   29.1250   46.5820 H   0  0  0  0  0  0  0  0  0  0  0  0
   57.7263   33.1983   47.1435 H   0  0  0  0  0  0  0  0  0  0  0  0
   58.3666   33.8397   45.5926 H   0  0  0  0  0  0  0  0  0  0  0  0
   56.9387   32.7498   45.5926 H   0  0  0  0  0  0  0  0  0  0  0  0
   55.9547   28.6840   44.0515 H   0  0  0  0  0  0  0  0  0  0  0  0
   59.0179   23.1107   45.8415 H   0  0  0  0  0  0  0  0  0  0  0  0
   58.2128   20.8745   45.0909 H   0  0  0  0  0  0  0  0  0  0  0  0
   56.8970   19.6090   43.3450 H   0  0  0  0  0  0  0  0  0  0  0  0
   55.4646   22.7757   42.3443 H   0  0  0  0  0  0  0  0  0  0  0  0
   56.2673   25.0159   43.0857 H   0  0  0  0  0  0  0  0  0  0  0  0
   59.9460   24.8788   45.9604 H   0  0  0  0  0  0  0  0  0  0  0  0
  1  2  1  0
  2  3  1  0
  3  4  1  0
  4  5  1  0
  5  6  1  0
  6  7  1  0
  7  8  2  0
  8  9  1  0
  9 10  1  0
  8 11  1  0
 11 12  1  0
 11 13  2  0
 13 14  1  0
 14 15  1  0
 15 16  1  0
 16 17  1  0
 17 18  2  0
 18 19  1  0
 19 20  2  0
 20 21  1  0
 20 22  1  0
 22 23  2  0
 16 24  2  0
 24 25  1  0
 25 26  2  0
 25 27  1  0
 27  7  1  0
 27 14  2  0
 23 17  1  0
  1 28  1  0
  1 29  1  0
  1 30  1  0
  2 31  1  0
  2 32  1  0
  3 33  1  0
  3 34  1  0
  4 35  1  0
  4 36  1  0
  5 37  1  0
  5 38  1  0
  6 39  1  0
 10 40  1  0
 10 41  1  0
 10 42  1  0
 13 43  1  0
 18 44  1  0
 19 45  1  0
 21 46  1  0
 22 47  1  0
 23 48  1  0
 24 49  1  0
M  CHG  1  12  -1
M  END
>  <UniqueID>  (7) 
5

>  <SMILES>  (7) 
CCCCCNc1c(OC)c([O-])cc2oc(-c3ccc(O)cc3)cc(=O)c12

>  <Energy>  (7) 
62.85013266785708

>  <Genealogy>  (7) 
CCCCCNc1c(OC)c([O-])cc2oc(-c3ccc(O)cc3)cc(=O)c12 (protonated)
CCCCCNc1c(OC)c([O-])cc2oc(-c3ccc(O)cc3)cc(=O)c12 (3D coordinates assigned)
CCCCCNc1c(OC)c([O-])cc2oc(-c3ccc(O)cc3)cc(=O)c12 (optimized conformer: 62.85013266785708 kcal/mol)

>  <smiles>  (7) 
CCCCCNc1c(OC)c(O)cc2oc(-c3ccc(O)cc3)cc(=O)c12

>  <score_type>  (7) 
oracle

>  <origin>  (7) 
adg

>  <m_score__min__energy>  (7) 
-8.5700000000000003

>  <m_primary>  (7) 
energy

$$$$
7:0
     RDKit          3D

 34 36  0  0  0  0  0  0  0  0999 V2000
   55.0770   26.3920   46.0270 N   0  0  0  0  0  0  0  0  0  0  0  0
   56.6840   25.8330   46.3260 S   0  0  0  0  0  0  0  0  0  0  0  0
   56.7050   25.0100   47.5850 O   0  0  0  0  0  0  0  0  0  0  0  0
   57.1300   24.9690   45.1790 O   0  0  0  0  0  0  0  0  0  0  0  0
   57.7600   27.2170   46.5040 C   0  0  0  0  0  0  0  0  0  0  0  0
   58.6680   27.2580   47.5700 C   0  0  0  0  0  0  0  0  0  0  0  0
   59.5210   28.3540   47.7220 C   0  0  0  0  0  0  0  0  0  0  0  0
   59.4580   29.4210   46.8200 C   0  0  0  0  0  0  0  0  0  0  0  0
   58.5350   29.4100   45.7680 C   0  0  0  0  0  0  0  0  0  0  0  0
   58.5130   30.5310   44.8670 N   0  0  0  0  0  0  0  0  0  0  0  0
   57.3770   31.3000   44.4600 C   0  0  0  0  0  0  0  0  0  0  0  0
   56.2080   30.9310   44.7450 O   0  0  0  0  0  0  0  0  0  0  0  0
   57.5890   32.6100   43.7700 C   0  0  0  0  0  0  0  0  0  0  0  0
   57.1390   33.9920   44.8760 S   0  0  0  0  0  0  0  0  0  0  0  0
   58.3240   33.5490   46.1430 C   0  0  0  0  0  0  0  0  0  0  0  0
   57.9850   33.1140   47.3710 N   0  0  0  0  0  0  0  0  0  0  0  0
   59.1210   32.8760   48.0040 N   0  0  0  0  0  0  0  0  0  0  0  0
   60.1060   33.1800   47.1370 C   0  0  0  0  0  0  0  0  0  0  0  0
   61.5340   33.0530   47.4340 C   0  0  0  0  0  0  0  0  0  0  0  0
   62.4920   33.7760   46.8110 N   0  0  0  0  0  0  0  0  0  0  0  0
   63.7360   33.4620   47.2640 C   0  0  0  0  0  0  0  0  0  0  0  0
   63.7770   32.4860   48.2520 C   0  0  0  0  0  0  0  0  0  0  0  0
   62.1970   32.0010   48.5660 S   0  0  0  0  0  0  0  0  0  0  0  0
   59.6240   33.5970   45.9930 O   0  0  0  0  0  0  0  0  0  0  0  0
   57.6980   28.2900   45.6010 C   0  0  0  0  0  0  0  0  0  0  0  0
   55.1440   27.0920   45.2550 H   0  0  0  0  0  0  0  0  0  0  0  0
   58.7094   26.4260   48.2884 H   0  0  0  0  0  0  0  0  0  0  0  0
   60.2427   28.3777   48.5518 H   0  0  0  0  0  0  0  0  0  0  0  0
   60.1397   30.2761   46.9384 H   0  0  0  0  0  0  0  0  0  0  0  0
   58.6476   32.7030   43.4860 H   0  0  0  0  0  0  0  0  0  0  0  0
   56.9525   32.6484   42.8737 H   0  0  0  0  0  0  0  0  0  0  0  0
   64.6442   33.9462   46.8758 H   0  0  0  0  0  0  0  0  0  0  0  0
   64.6824   32.0989   48.7422 H   0  0  0  0  0  0  0  0  0  0  0  0
   56.9917   28.2557   44.7584 H   0  0  0  0  0  0  0  0  0  0  0  0
  1  2  1  0
  2  3  2  0
  2  4  2  0
  2  5  1  0
  5  6  2  0
  6  7  1  0
  7  8  2  0
  8  9  1  0
  9 10  1  0
 10 11  1  0
 11 12  2  0
 11 13  1  0
 13 14  1  0
 14 15  1  0
 15 16  2  0
 16 17  1  0
 17 18  2  0
 18 19  1  0
 19 20  2  0
 20 21  1  0
 21 22  2  0
 22 23  1  0
 18 24  1  0
  9 25  2  0
 25  5  1  0
 24 15  1  0
 23 19  1  0
  1 26  1  0
  6 27  1  0
  7 28  1  0
  8 29  1  0
 13 30  1  0
 13 31  1  0
 21 32  1  0
 22 33  1  0
 25 34  1  0
M  CHG  2   1  -1  10  -1
M  END
>  <UniqueID>  (8) 
6

>  <SMILES>  (8) 
[NH-]S(=O)(=O)c1cccc([N-]C(=O)CSc2nnc(-c3nccs3)o2)c1

>  <Energy>  (8) 
98.32670558146228

>  <Genealogy>  (8) 
[NH-]S(=O)(=O)c1cccc([N-]C(=O)CSc2nnc(-c3nccs3)o2)c1 (protonated)
[NH-]S(=O)(=O)c1cccc([N-]C(=O)CSc2nnc(-c3nccs3)o2)c1 (3D coordinates assigned)
[NH-]S(=O)(=O)c1cccc([N-]C(=O)CSc2nnc(-c3nccs3)o2)c1 (optimized conformer: 98.32670558146228 kcal/mol)

>  <smiles>  (8) 
NS(=O)(=O)c1cccc(NC(=O)CSc2nnc(-c3nccs3)o2)c1

>  <score_type>  (8) 
oracle

>  <origin>  (8) 
adg

>  <m_score__min__energy>  (8) 
-12.81

>  <m_primary>  (8) 
energy

$$$$
8:0
     RDKit          3D

 65 67  0  0  0  0  0  0  0  0999 V2000
   62.9490   32.4120   52.4840 C   0  0  0  0  0  0  0  0  0  0  0  0
   63.2040   31.4780   51.3900 N   0  0  0  0  0  0  0  0  0  0  0  0
   64.4480   30.7650   51.3670 C   0  0  0  0  0  0  0  0  0  0  0  0
   64.4790   29.4350   51.8170 C   0  0  0  0  0  0  0  0  0  0  0  0
   65.6800   28.7250   51.8540 C   0  0  0  0  0  0  0  0  0  0  0  0
   66.8660   29.3430   51.4600 C   0  0  0  0  0  0  0  0  0  0  0  0
   66.8510   30.6640   51.0080 C   0  0  0  0  0  0  0  0  0  0  0  0
   65.6500   31.3850   50.9450 C   0  0  0  0  0  0  0  0  0  0  0  0
   65.7080   33.0340   50.2980 S   0  0  0  0  0  0  0  0  0  0  0  0
   65.1000   34.0420   51.2330 O   0  0  0  0  0  0  0  0  0  0  0  0
   67.1560   33.3860   50.0780 O   0  0  0  0  0  0  0  0  0  0  0  0
   64.8900   33.1190   48.7670 N   0  0  0  0  0  0  0  0  0  0  0  0
   63.5270   33.5180   48.5750 C   0  0  0  0  0  0  0  0  0  0  0  0
   62.8120   34.2330   49.5510 C   0  0  0  0  0  0  0  0  0  0  0  0
   61.4640   34.5480   49.3480 C   0  0  0  0  0  0  0  0  0  0  0  0
   60.8180   34.1710   48.1600 C   0  0  0  0  0  0  0  0  0  0  0  0
   59.3450   34.4240   47.9870 C   0  0  0  0  0  0  0  0  0  0  0  0
   59.1130   35.0800   46.7050 N   0  0  0  0  0  0  0  0  0  0  0  0
   59.0620   34.3710   45.4650 C   0  0  0  0  0  0  0  0  0  0  0  0
   59.9900   34.5030   44.6200 O   0  0  0  0  0  0  0  0  0  0  0  0
   57.9630   33.4950   45.1980 N   0  0  0  0  0  0  0  0  0  0  0  0
   57.9540   32.5640   44.0680 C   0  0  0  0  0  0  0  0  0  0  0  0
   57.4240   31.2140   44.4850 C   0  0  0  0  0  0  0  0  0  0  0  0
   56.1900   30.7570   44.0000 C   0  0  0  0  0  0  0  0  0  0  0  0
   55.7000   29.5090   44.3870 C   0  0  0  0  0  0  0  0  0  0  0  0
   56.4320   28.6930   45.2580 C   0  0  0  0  0  0  0  0  0  0  0  0
   55.8840   27.4170   45.6220 N   0  0  0  0  0  0  0  0  0  0  0  0
   56.7830   26.0490   46.1960 S   0  0  0  0  0  0  0  0  0  0  0  0
   57.6760   25.3060   44.8580 C   0  0  0  0  0  0  0  0  0  0  0  0
   55.8240   25.0320   46.7520 O   0  0  0  0  0  0  0  0  0  0  0  0
   57.7280   26.4680   47.2870 O   0  0  0  0  0  0  0  0  0  0  0  0
   57.6700   29.1450   45.7410 C   0  0  0  0  0  0  0  0  0  0  0  0
   58.1580   30.4000   45.3630 C   0  0  0  0  0  0  0  0  0  0  0  0
   61.5410   33.4800   47.1740 C   0  0  0  0  0  0  0  0  0  0  0  0
   62.8900   33.1700   47.3780 C   0  0  0  0  0  0  0  0  0  0  0  0
   61.8600   30.9020   50.4460 S   0  0  0  0  0  0  0  0  0  0  0  0
   61.3370   29.3090   51.0440 C   0  0  0  0  0  0  0  0  0  0  0  0
   62.2730   30.7760   49.0060 O   0  0  0  0  0  0  0  0  0  0  0  0
   60.7140   31.8690   50.5400 O   0  0  0  0  0  0  0  0  0  0  0  0
   63.0895   31.8972   53.4459 H   0  0  0  0  0  0  0  0  0  0  0  0
   63.6492   33.2576   52.4149 H   0  0  0  0  0  0  0  0  0  0  0  0
   61.9163   32.7845   52.4149 H   0  0  0  0  0  0  0  0  0  0  0  0
   63.5480   28.9483   52.1433 H   0  0  0  0  0  0  0  0  0  0  0  0
   65.6908   27.6788   52.1937 H   0  0  0  0  0  0  0  0  0  0  0  0
   67.8152   28.7889   51.5053 H   0  0  0  0  0  0  0  0  0  0  0  0
   67.7910   31.1440   50.6981 H   0  0  0  0  0  0  0  0  0  0  0  0
   63.3142   34.5462   50.4782 H   0  0  0  0  0  0  0  0  0  0  0  0
   60.9072   35.0942   50.1237 H   0  0  0  0  0  0  0  0  0  0  0  0
   58.8028   33.4672   48.0130 H   0  0  0  0  0  0  0  0  0  0  0  0
   58.9854   35.0707   48.8009 H   0  0  0  0  0  0  0  0  0  0  0  0
   57.1650   33.4680   45.8740 H   0  0  0  0  0  0  0  0  0  0  0  0
   57.3143   32.9713   43.2712 H   0  0  0  0  0  0  0  0  0  0  0  0
   58.9858   32.4398   43.7075 H   0  0  0  0  0  0  0  0  0  0  0  0
   55.6057   31.3851   43.3114 H   0  0  0  0  0  0  0  0  0  0  0  0
   54.7287   29.1628   44.0038 H   0  0  0  0  0  0  0  0  0  0  0  0
   58.4628   24.6514   45.2610 H   0  0  0  0  0  0  0  0  0  0  0  0
   56.9853   24.7123   44.2412 H   0  0  0  0  0  0  0  0  0  0  0  0
   58.1342   26.0931   44.2412 H   0  0  0  0  0  0  0  0  0  0  0  0
   58.2585   28.5098   46.4193 H   0  0  0  0  0  0  0  0  0  0  0  0
   59.1232   30.7519   45.7561 H   0  0  0  0  0  0  0  0  0  0  0  0
   61.0452   33.1816   46.2385 H   0  0  0  0  0  0  0  0  0  0  0  0
   63.4548   32.6485   46.5912 H   0  0  0  0  0  0  0  0  0  0  0  0
   61.3380   29.3119   52.1440 H   0  0  0  0  0  0  0  0  0  0  0  0
   60.3216   29.0955   50.6788 H   0  0  0  0  0  0  0  0  0  0  0  0
   62.0283   28.5352   50.6788 H   0  0  0  0  0  0  0  0  0  0  0  0
  1  2  1  0
  2  3  1  0
  3  4  2  0
  4  5  1  0
  5  6  2  0
  6  7  1  0
  7  8  2  0
  8  9  1  0
  9 10  2  0
  9 11  2  0
  9 12  1  0
 12 13  1  0
 13 14  2  0
 14 15  1  0
 15 16  2  0
 16 17  1  0
 17 18  1  0
 18 19  1  0
 19 20  2  0
 19 21  1  0
 21 22  1  0
 22 23  1  0
 23 24  2  0
 24 25  1  0
 25 26  2  0
 26 27  1  0
 27 28  1  0
 28 29  1  0
 28 30  2  0
 28 31  2  0
 26 32  1  0
 32 33  2  0
 16 34  1  0
 34 35  2  0
  2 36  1  0
 36 37  1  0
 36 38  2  0
 36 39  2  0
  8  3  1  0
 35 13  1  0
 33 23  1  0
  1 40  1  0
  1 41  1  0
  1 42  1  0
  4 43  1  0
  5 44  1  0
  6 45  1  0
  7 46  1  0
 14 47  1  0
 15 48  1  0
 17 49  1  0
 17 50  1  0
 21 51  1  0
 22 52  1  0
 22 53  1  0
 24 54  1  0
 25 55  1  0
 29 56  1  0
 29 57  1  0
 29 58  1  0
 32 59  1  0
 33 60  1  0
 34 61  1  0
 35 62  1  0
 37 63  1  0
 37 64  1  0
 37 65  1  0
M  CHG  3  12  -1  18  -1  27  -1
M  END
>  <UniqueID>  (9) 
7

>  <SMILES>  (9) 
CN(c1ccccc1S(=O)(=O)[N-]c1ccc(C[N-]C(=O)NCc2ccc([N-]S(C)(=O)=O)cc2)cc1)S(C)(=O)=O

>  <Energy>  (9) 
64.58541439068082

>  <Genealogy>  (9) 
CN(c1ccccc1S(=O)(=O)[N-]c1ccc(C[N-]C(=O)NCc2ccc([N-]S(C)(=O)=O)cc2)cc1)S(C)(=O)=O (protonated)
CN(c1ccccc1S(=O)(=O)[N-]c1ccc(C[N-]C(=O)NCc2ccc([N-]S(C)(=O)=O)cc2)cc1)S(C)(=O)=O (3D coordinates assigned)
CN(c1ccccc1S(=O)(=O)[N-]c1ccc(C[N-]C(=O)NCc2ccc([N-]S(C)(=O)=O)cc2)cc1)S(C)(=O)=O (optimized conformer: 64.58541439068082 kcal/mol)

>  <smiles>  (9) 
CN(c1ccccc1S(=O)(=O)Nc1ccc(CNC(=O)NCc2ccc(NS(C)(=O)=O)cc2)cc1)S(C)(=O)=O

>  <score_type>  (9) 
oracle

>  <origin>  (9) 
adg

>  <m_score__min__energy>  (9) 
-13.65

>  <m_primary>  (9) 
energy

$$$$
9:0
     RDKit          3D

 34 35  0  0  0  0  0  0  0  0999 V2000
   61.3583   28.6273   45.7646 H   0  0  0  0  0  0  0  0  0  0  0  0
   60.6210   29.1890   46.3570 C   0  0  0  0  0  0  0  0  0  0  0  0
   61.0650   29.9260   47.3880 C   0  0  0  0  0  0  0  0  0  0  0  0
   61.0562   29.4747   48.3911 H   0  0  0  0  0  0  0  0  0  0  0  0
   61.5670   31.3160   47.2490 C   0  0  0  0  0  0  0  0  0  0  0  0
   62.9540   31.5320   47.2650 C   0  0  0  0  0  0  0  0  0  0  0  0
   63.6377   30.6770   47.3723 H   0  0  0  0  0  0  0  0  0  0  0  0
   63.4730   32.8220   47.1460 C   0  0  0  0  0  0  0  0  0  0  0  0
   64.5611   32.9804   47.1768 H   0  0  0  0  0  0  0  0  0  0  0  0
   62.6150   33.9120   46.9880 C   0  0  0  0  0  0  0  0  0  0  0  0
   63.0299   34.9280   46.9126 H   0  0  0  0  0  0  0  0  0  0  0  0
   61.2320   33.7200   46.9250 C   0  0  0  0  0  0  0  0  0  0  0  0
   60.4100   34.8450   46.7570 O   0  0  0  0  0  0  0  0  0  0  0  0
   59.3160   34.9260   45.8860 C   0  0  0  0  0  0  0  0  0  0  0  0
   59.3030   35.7660   44.9440 O   0  0  0  0  0  0  0  0  0  0  0  0
   58.1830   34.0840   46.1110 N   0  0  0  0  0  0  0  0  0  0  0  0
   58.2050   33.4110   46.9090 H   0  0  0  0  0  0  0  0  0  0  0  0
   57.0050   34.1290   45.2540 C   0  0  0  0  0  0  0  0  0  0  0  0
   56.0993   34.1636   45.8773 H   0  0  0  0  0  0  0  0  0  0  0  0
   57.0476   35.0262   44.6190 H   0  0  0  0  0  0  0  0  0  0  0  0
   56.9790   33.2312   44.6190 H   0  0  0  0  0  0  0  0  0  0  0  0
   60.7070   32.4210   47.0700 C   0  0  0  0  0  0  0  0  0  0  0  0
   59.6182   32.2664   47.0435 H   0  0  0  0  0  0  0  0  0  0  0  0
   59.1900   29.0900   45.9720 C   0  0  0  0  0  0  0  0  0  0  0  0
   58.5640   30.2220   45.4210 C   0  0  0  0  0  0  0  0  0  0  0  0
   59.1393   31.1488   45.2791 H   0  0  0  0  0  0  0  0  0  0  0  0
   57.2160   30.1790   45.0520 C   0  0  0  0  0  0  0  0  0  0  0  0
   56.7382   31.0676   44.6136 H   0  0  0  0  0  0  0  0  0  0  0  0
   56.4750   29.0100   45.2390 C   0  0  0  0  0  0  0  0  0  0  0  0
   55.1350   28.9700   44.8710 O   0  0  0  0  0  0  0  0  0  0  0  0
   57.0800   27.8830   45.7990 C   0  0  0  0  0  0  0  0  0  0  0  0
   56.4945   26.9639   45.9488 H   0  0  0  0  0  0  0  0  0  0  0  0
   58.4280   27.9190   46.1700 C   0  0  0  0  0  0  0  0  0  0  0  0
   58.8964   27.0303   46.6182 H   0  0  0  0  0  0  0  0  0  0  0  0
  1  2  1  0
  2  3  2  0
  3  4  1  0
  3  5  1  0
  5  6  2  0
  6  7  1  0
  6  8  1  0
  8  9  1  0
  8 10  2  0
 10 11  1  0
 10 12  1  0
 12 13  1  0
 13 14  1  0
 14 15  2  0
 14 16  1  0
 16 17  1  0
 16 18  1  0
 18 19  1  0
 18 20  1  0
 18 21  1  0
 12 22  2  0
 22 23  1  0
  2 24  1  0
 24 25  2  0
 25 26  1  0
 25 27  1  0
 27 28  1  0
 27 29  2  0
 29 30  1  0
 29 31  1  0
 31 32  1  0
 31 33  2  0
 33 34  1  0
 22  5  1  0
 33 24  1  0
M  CHG  1  30  -1
M  END
>  <UniqueID>  (10) 
8

>  <SMILES>  (10) 
CNC(=O)Oc1cccc(/C=C/c2ccc([O-])cc2)c1

>  <Energy>  (10) 
40.867118953624306

>  <Genealogy>  (10) 
CNC(=O)Oc1cccc(C=Cc2ccc([O-])cc2)c1 (protonated)
CNC(=O)Oc1cccc(/C=C/c2ccc([O-])cc2)c1 (cis-trans isomerization)
CNC(=O)Oc1cccc(/C=C/c2ccc([O-])cc2)c1 (3D coordinates assigned)
CNC(=O)Oc1cccc(/C=C/c2ccc([O-])cc2)c1 (optimized conformer: 40.867118953624306 kcal/mol)

>  <smiles>  (10) 
CNC(=O)Oc1cccc(C=Cc2ccc(O)cc2)c1

>  <score_type>  (10) 
oracle

>  <origin>  (10) 
adg

>  <m_score__min__energy>  (10) 
-10.51

>  <m_primary>  (10) 
energy

$$$$
10:0
     RDKit          3D

 50 53  0  0  0  0  0  0  0  0999 V2000
   63.2190   31.9360   49.4480 C   0  0  0  0  0  0  0  0  0  0  0  0
   63.9010   32.0880   48.1530 N   0  0  2  0  0  0  0  0  0  0  0  0
   64.5600   33.2850   48.1670 O   0  0  0  0  0  0  0  0  0  0  0  0
   62.9440   32.1120   47.0220 C   0  0  1  0  0  0  0  0  0  0  0  0
   61.7950   31.1800   47.2640 C   0  0  0  0  0  0  0  0  0  0  0  0
   60.6070   31.7850   47.2740 C   0  0  0  0  0  0  0  0  0  0  0  0
   59.3510   30.9840   47.1340 C   0  0  0  0  0  0  0  0  0  0  0  0
   59.1260   30.0870   47.9890 O   0  0  0  0  0  0  0  0  0  0  0  0
   58.4490   31.0460   45.9350 C   0  0  0  0  0  0  0  0  0  0  0  0
   58.0840   32.1710   45.2900 C   0  0  0  0  0  0  0  0  0  0  0  0
   58.4790   33.5010   45.8390 C   0  0  2  0  0  0  0  0  0  0  0  0
   57.8720   33.7160   47.0850 O   0  0  0  0  0  0  0  0  0  0  0  0
   58.3110   34.6550   45.0440 O   0  0  0  0  0  0  0  0  0  0  0  0
   59.6740   35.0030   45.2430 C   0  0  0  0  0  0  0  0  0  0  0  0
   59.9850   33.6410   45.8100 C   0  0  1  0  0  0  0  0  0  0  0  0
   60.7360   33.2870   47.1100 C   0  0  1  0  0  0  0  0  0  0  0  0
   60.3350   34.0600   48.4040 C   0  0  0  0  0  0  0  0  0  0  0  0
   59.3000   33.3360   49.1570 N   0  0  0  0  0  0  0  0  0  0  0  0
   59.5690   33.3660   50.5970 C   0  0  0  0  0  0  0  0  0  0  0  0
   58.7530   32.2980   51.2750 C   0  0  0  0  0  0  0  0  0  0  0  0
   57.5750   32.6360   51.9610 C   0  0  0  0  0  0  0  0  0  0  0  0
   56.7920   31.6380   52.5510 C   0  0  0  0  0  0  0  0  0  0  0  0
   57.1740   30.2980   52.4510 C   0  0  0  0  0  0  0  0  0  0  0  0
   58.3360   29.9510   51.7580 C   0  0  0  0  0  0  0  0  0  0  0  0
   59.1240   30.9450   51.1680 C   0  0  0  0  0  0  0  0  0  0  0  0
   60.2420   30.5890   50.4850 F   0  0  0  0  0  0  0  0  0  0  0  0
   62.2150   33.4170   46.8780 C   0  0  0  0  0  0  0  0  0  0  0  0
   62.7520   34.4620   46.5400 O   0  0  0  0  0  0  0  0  0  0  0  0
   63.9399   32.0967   50.2632 H   0  0  0  0  0  0  0  0  0  0  0  0
   62.4083   32.6755   49.5245 H   0  0  0  0  0  0  0  0  0  0  0  0
   62.7990   30.9222   49.5245 H   0  0  0  0  0  0  0  0  0  0  0  0
   64.5890   31.3070   48.0300 H   0  0  0  0  0  0  0  0  0  0  0  0
   64.6450   33.5860   47.2220 H   0  0  0  0  0  0  0  0  0  0  0  0
   63.5774   31.8704   46.1557 H   0  0  0  0  0  0  0  0  0  0  0  0
   61.9204   30.0982   47.4188 H   0  0  0  0  0  0  0  0  0  0  0  0
   58.0535   30.0939   45.5516 H   0  0  0  0  0  0  0  0  0  0  0  0
   57.4968   32.1093   44.3619 H   0  0  0  0  0  0  0  0  0  0  0  0
   58.0970   32.9310   47.6490 H   0  0  0  0  0  0  0  0  0  0  0  0
   60.2137   35.2282   44.3113 H   0  0  0  0  0  0  0  0  0  0  0  0
   59.9241   35.9022   45.8252 H   0  0  0  0  0  0  0  0  0  0  0  0
   60.7399   33.0272   45.2969 H   0  0  0  0  0  0  0  0  0  0  0  0
   61.2241   34.1796   49.0405 H   0  0  0  0  0  0  0  0  0  0  0  0
   59.9316   35.0410   48.1127 H   0  0  0  0  0  0  0  0  0  0  0  0
   58.3860   33.8210   48.9910 H   0  0  0  0  0  0  0  0  0  0  0  0
   60.6385   33.1808   50.7755 H   0  0  0  0  0  0  0  0  0  0  0  0
   59.2983   34.3518   51.0032 H   0  0  0  0  0  0  0  0  0  0  0  0
   57.2669   33.6894   52.0347 H   0  0  0  0  0  0  0  0  0  0  0  0
   55.8746   31.9087   53.0942 H   0  0  0  0  0  0  0  0  0  0  0  0
   56.5589   29.5151   52.9186 H   0  0  0  0  0  0  0  0  0  0  0  0
   58.6319   28.8947   51.6760 H   0  0  0  0  0  0  0  0  0  0  0  0
  1  2  1  0
  2  3  1  0
  2  4  1  0
  4  5  1  0
  5  6  2  0
  6  7  1  0
  7  8  2  0
  7  9  1  0
  9 10  2  0
 10 11  1  0
 11 12  1  1
 11 13  1  0
 13 14  1  0
 14 15  1  0
 15 16  1  0
 16 17  1  1
 17 18  1  0
 18 19  1  0
 19 20  1  0
 20 21  2  0
 21 22  1  0
 22 23  2  0
 23 24  1  0
 24 25  2  0
 25 26  1  0
 16 27  1  0
 27 28  2  0
 27  4  1  0
 16  6  1  0
 25 20  1  0
 15 11  1  0
  1 29  1  0
  1 30  1  0
  1 31  1  0
  2 32  1  6
  3 33  1  0
  4 34  1  6
  5 35  1  0
  9 36  1  0
 10 37  1  0
 12 38  1  0
 14 39  1  0
 14 40  1  0
 15 41  1  6
 17 42  1  0
 17 43  1  0
 18 44  1  0
 19 45  1  0
 19 46  1  0
 21 47  1  0
 22 48  1  0
 23 49  1  0
 24 50  1  0
M  CHG  1   2   1
M  END
>  <UniqueID>  (11) 
9

>  <SMILES>  (11) 
C[N@H+](O)[C@H]1C=C2C(=O)C=CC3(O)OCC3C2(CNCc2ccccc2F)C1=O

>  <Energy>  (11) 
160.94974707080206

>  <Genealogy>  (11) 
C[NH+](O)C1C=C2C(=O)C=CC3(O)OCC3C2(CNCc2ccccc2F)C1=O (protonated)
C[N@H+](O)[C@H]1C=C2C(=O)C=CC3(O)OCC3C2(CNCc2ccccc2F)C1=O (chirality)
C[N@H+](O)[C@H]1C=C2C(=O)C=CC3(O)OCC3C2(CNCc2ccccc2F)C1=O (3D coordinates assigned)
C[N@H+](O)[C@H]1C=C2C(=O)C=CC3(O)OCC3C2(CNCc2ccccc2F)C1=O (nonaromatic ring conformer: 160.94974707080206 kcal/mol)

>  <smiles>  (11) 
CN(O)C1C=C2C(=O)C=CC3(O)OCC3C2(CNCc2ccccc2F)C1=O

>  <score_type>  (11) 
oracle

>  <origin>  (11) 
adg

>  <m_score__min__energy>  (11) 
-4.71

>  <m_primary>  (11) 
energy

$$$$
11:0
     RDKit          3D

 40 42  0  0  0  0  0  0  0  0999 V2000
   59.2950   35.4140   46.4000 O   0  0  0  0  0  0  0  0  0  0  0  0
   58.7960   34.3360   45.9760 C   0  0  0  0  0  0  0  0  0  0  0  0
   57.7860   34.3900   44.8660 C   0  0  0  0  0  0  0  0  0  0  0  0
   57.0100   33.1530   44.8120 N   0  0  0  0  0  0  0  0  0  0  0  0
   57.3880   31.9730   44.0890 C   0  0  0  0  0  0  0  0  0  0  0  0
   57.9230   32.0970   42.9550 O   0  0  0  0  0  0  0  0  0  0  0  0
   57.1280   30.6200   44.6160 C   0  0  0  0  0  0  0  0  0  0  0  0
   55.8530   30.0530   44.4920 C   0  0  0  0  0  0  0  0  0  0  0  0
   55.6070   28.8040   44.9650 N   0  0  0  0  0  0  0  0  0  0  0  0
   56.5720   28.0590   45.5650 C   0  0  0  0  0  0  0  0  0  0  0  0
   56.2730   26.7740   46.0340 C   0  0  0  0  0  0  0  0  0  0  0  0
   55.0220   26.2670   45.8930 F   0  0  0  0  0  0  0  0  0  0  0  0
   57.2650   26.0040   46.6470 C   0  0  0  0  0  0  0  0  0  0  0  0
   58.5600   26.5080   46.7870 C   0  0  0  0  0  0  0  0  0  0  0  0
   58.8700   27.7900   46.3240 C   0  0  0  0  0  0  0  0  0  0  0  0
   57.8780   28.5810   45.7130 C   0  0  0  0  0  0  0  0  0  0  0  0
   58.1490   29.8780   45.2370 C   0  0  0  0  0  0  0  0  0  0  0  0
   59.3060   30.3710   45.3510 O   0  0  0  0  0  0  0  0  0  0  0  0
   59.1460   33.0740   46.5710 N   0  0  0  0  0  0  0  0  0  0  0  0
   60.0110   32.9150   47.7110 C   0  0  0  0  0  0  0  0  0  0  0  0
   59.5020   32.7700   49.0120 C   0  0  0  0  0  0  0  0  0  0  0  0
   60.3690   32.6140   50.0930 C   0  0  0  0  0  0  0  0  0  0  0  0
   61.7540   32.6320   49.9030 C   0  0  0  0  0  0  0  0  0  0  0  0
   62.7840   32.4070   51.3140 Cl  0  0  0  0  0  0  0  0  0  0  0  0
   62.2870   32.8330   48.6110 C   0  0  0  0  0  0  0  0  0  0  0  0
   63.7840   32.8930   48.3930 C   0  0  0  0  0  0  0  0  0  0  0  0
   64.0470   33.2210   47.0760 F   0  0  0  0  0  0  0  0  0  0  0  0
   64.3860   33.8350   49.2100 F   0  0  0  0  0  0  0  0  0  0  0  0
   64.3490   31.6610   48.6760 F   0  0  0  0  0  0  0  0  0  0  0  0
   61.4010   32.9660   47.5250 C   0  0  0  0  0  0  0  0  0  0  0  0
   57.1047   35.2362   45.0388 H   0  0  0  0  0  0  0  0  0  0  0  0
   58.3171   34.5159   43.9110 H   0  0  0  0  0  0  0  0  0  0  0  0
   55.0460   30.6231   44.0085 H   0  0  0  0  0  0  0  0  0  0  0  0
   57.0251   24.9975   47.0205 H   0  0  0  0  0  0  0  0  0  0  0  0
   59.3386   25.8940   47.2632 H   0  0  0  0  0  0  0  0  0  0  0  0
   59.8915   28.1820   46.4372 H   0  0  0  0  0  0  0  0  0  0  0  0
   58.6180   32.2300   46.2510 H   0  0  0  0  0  0  0  0  0  0  0  0
   58.4148   32.7795   49.1789 H   0  0  0  0  0  0  0  0  0  0  0  0
   59.9595   32.4755   51.1045 H   0  0  0  0  0  0  0  0  0  0  0  0
   61.8055   33.1125   46.5126 H   0  0  0  0  0  0  0  0  0  0  0  0
  1  2  2  0
  2  3  1  0
  3  4  1  0
  4  5  1  0
  5  6  2  0
  5  7  1  0
  7  8  2  0
  8  9  1  0
  9 10  1  0
 10 11  2  0
 11 12  1  0
 11 13  1  0
 13 14  2  0
 14 15  1  0
 15 16  2  0
 16 17  1  0
 17 18  2  0
  2 19  1  0
 19 20  1  0
 20 21  2  0
 21 22  1  0
 22 23  2  0
 23 24  1  0
 23 25  1  0
 25 26  1  0
 26 27  1  0
 26 28  1  0
 26 29  1  0
 25 30  2  0
 17  7  1  0
 30 20  1  0
 16 10  1  0
  3 31  1  0
  3 32  1  0
  8 33  1  0
 13 34  1  0
 14 35  1  0
 15 36  1  0
 19 37  1  0
 21 38  1  0
 22 39  1  0
 30 40  1  0
M  CHG  2   4  -1   9  -1
M  END
>  <UniqueID>  (12) 
10

>  <SMILES>  (12) 
O=C(C[N-]C(=O)c1c[n-]c2c(F)cccc2c1=O)Nc1ccc(Cl)c(C(F)(F)F)c1

>  <Energy>  (12) 
53.0587573424401

>  <Genealogy>  (12) 
O=C(C[N-]C(=O)c1c[n-]c2c(F)cccc2c1=O)Nc1ccc(Cl)c(C(F)(F)F)c1 (protonated)
O=C(C[N-]C(=O)c1c[n-]c2c(F)cccc2c1=O)Nc1ccc(Cl)c(C(F)(F)F)c1 (3D coordinates assigned)
O=C(C[N-]C(=O)c1c[n-]c2c(F)cccc2c1=O)Nc1ccc(Cl)c(C(F)(F)F)c1 (optimized conformer: 53.0587573424401 kcal/mol)

>  <smiles>  (12) 
O=C(CNC(=O)c1c[nH]c2c(F)cccc2c1=O)Nc1ccc(Cl)c(C(F)(F)F)c1

>  <score_type>  (12) 
oracle

>  <origin>  (12) 
adg

>  <m_score__min__energy>  (12) 
-11.210000000000001

>  <m_primary>  (12) 
energy

$$$$
12:0
     RDKit          3D

 57 59  0  0  0  0  0  0  0  0999 V2000
   59.4980   29.7790   50.6310 C   0  0  0  0  0  0  0  0  0  0  0  0
   60.6600   30.0570   49.6810 C   0  0  0  0  0  0  0  0  0  0  0  0
   60.2030   30.1160   48.2770 N   0  0  0  0  0  0  0  0  0  0  0  0
   60.7640   29.1270   47.3360 C   0  0  0  0  0  0  0  0  0  0  0  0
   59.7140   28.5830   46.3950 C   0  0  0  0  0  0  0  0  0  0  0  0
   59.8970   28.6600   45.0050 C   0  0  0  0  0  0  0  0  0  0  0  0
   58.9460   28.1230   44.1330 C   0  0  0  0  0  0  0  0  0  0  0  0
   57.8010   27.5050   44.6410 C   0  0  0  0  0  0  0  0  0  0  0  0
   57.6060   27.4230   46.0220 C   0  0  0  0  0  0  0  0  0  0  0  0
   58.5620   27.9550   46.8950 C   0  0  0  0  0  0  0  0  0  0  0  0
   59.4300   31.2320   47.7500 C   0  0  0  0  0  0  0  0  0  0  0  0
   58.4630   31.6910   48.4230 O   0  0  0  0  0  0  0  0  0  0  0  0
   59.7030   31.8690   46.4040 C   0  0  0  0  0  0  0  0  0  0  0  0
   58.9710   33.1430   46.2180 N   0  0  2  0  0  0  0  0  0  0  0  0
   58.5950   33.4230   44.8060 C   0  0  0  0  0  0  0  0  0  0  0  0
   57.8090   32.3230   44.1190 C   0  0  0  0  0  0  0  0  0  0  0  0
   57.7830   32.2400   42.7140 C   0  0  0  0  0  0  0  0  0  0  0  0
   57.0570   31.2320   42.0720 C   0  0  0  0  0  0  0  0  0  0  0  0
   56.3220   30.3150   42.8240 C   0  0  0  0  0  0  0  0  0  0  0  0
   56.3040   30.4130   44.2200 C   0  0  0  0  0  0  0  0  0  0  0  0
   57.0350   31.4160   44.8650 C   0  0  0  0  0  0  0  0  0  0  0  0
   59.8580   34.4550   46.9690 S   0  0  0  0  0  0  0  0  0  0  0  0
   59.1090   34.9520   48.1740 O   0  0  0  0  0  0  0  0  0  0  0  0
   59.9930   35.5900   45.9910 O   0  0  0  0  0  0  0  0  0  0  0  0
   61.4860   33.9530   47.4240 C   0  0  0  0  0  0  0  0  0  0  0  0
   62.4740   33.7710   46.4440 C   0  0  0  0  0  0  0  0  0  0  0  0
   63.7540   33.3470   46.8090 C   0  0  0  0  0  0  0  0  0  0  0  0
   64.0530   33.0900   48.1530 C   0  0  0  0  0  0  0  0  0  0  0  0
   63.0700   33.2590   49.1290 C   0  0  0  0  0  0  0  0  0  0  0  0
   61.7890   33.6860   48.7670 C   0  0  0  0  0  0  0  0  0  0  0  0
   59.8466   29.8624   51.6710 H   0  0  0  0  0  0  0  0  0  0  0  0
   58.6960   30.5106   50.4533 H   0  0  0  0  0  0  0  0  0  0  0  0
   59.1140   28.7636   50.4533 H   0  0  0  0  0  0  0  0  0  0  0  0
   61.1196   31.0198   49.9490 H   0  0  0  0  0  0  0  0  0  0  0  0
   61.3888   29.2385   49.7749 H   0  0  0  0  0  0  0  0  0  0  0  0
   61.5560   29.6092   46.7441 H   0  0  0  0  0  0  0  0  0  0  0  0
   61.1625   28.2866   47.9234 H   0  0  0  0  0  0  0  0  0  0  0  0
   60.7960   29.1469   44.5992 H   0  0  0  0  0  0  0  0  0  0  0  0
   59.0993   28.1871   43.0456 H   0  0  0  0  0  0  0  0  0  0  0  0
   57.0529   27.0829   43.9538 H   0  0  0  0  0  0  0  0  0  0  0  0
   56.7022   26.9409   46.4228 H   0  0  0  0  0  0  0  0  0  0  0  0
   58.4095   27.8805   47.9818 H   0  0  0  0  0  0  0  0  0  0  0  0
   60.7818   32.0670   46.3202 H   0  0  0  0  0  0  0  0  0  0  0  0
   59.3575   31.1698   45.6282 H   0  0  0  0  0  0  0  0  0  0  0  0
   58.0770   33.0790   46.7520 H   0  0  0  0  0  0  0  0  0  0  0  0
   57.9848   34.3381   44.7910 H   0  0  0  0  0  0  0  0  0  0  0  0
   59.5397   33.5170   44.2505 H   0  0  0  0  0  0  0  0  0  0  0  0
   58.3396   32.9757   42.1149 H   0  0  0  0  0  0  0  0  0  0  0  0
   57.0654   31.1620   40.9743 H   0  0  0  0  0  0  0  0  0  0  0  0
   55.7576   29.5163   42.3205 H   0  0  0  0  0  0  0  0  0  0  0  0
   55.7129   29.6988   44.8120 H   0  0  0  0  0  0  0  0  0  0  0  0
   57.0044   31.4959   45.9617 H   0  0  0  0  0  0  0  0  0  0  0  0
   62.2400   33.9626   45.3864 H   0  0  0  0  0  0  0  0  0  0  0  0
   64.5287   33.2147   46.0393 H   0  0  0  0  0  0  0  0  0  0  0  0
   65.0612   32.7554   48.4388 H   0  0  0  0  0  0  0  0  0  0  0  0
   63.3034   33.0559   50.1846 H   0  0  0  0  0  0  0  0  0  0  0  0
   61.0155   33.8131   49.5387 H   0  0  0  0  0  0  0  0  0  0  0  0
  1  2  1  0
  2  3  1  0
  3  4  1  0
  4  5  1  0
  5  6  2  0
  6  7  1  0
  7  8  2  0
  8  9  1  0
  9 10  2  0
  3 11  1  0
 11 12  2  0
 11 13  1  0
 13 14  1  0
 14 15  1  0
 15 16  1  0
 16 17  2  0
 17 18  1  0
 18 19  2  0
 19 20  1  0
 20 21  2  0
 14 22  1  0
 22 23  2  0
 22 24  2  0
 22 25  1  0
 25 26  2  0
 26 27  1  0
 27 28  2  0
 28 29  1  0
 29 30  2  0
 10  5  1  0
 21 16  1  0
 30 25  1  0
  1 31  1  0
  1 32  1  0
  1 33  1  0
  2 34  1  0
  2 35  1  0
  4 36  1  0
  4 37  1  0
  6 38  1  0
  7 39  1  0
  8 40  1  0
  9 41  1  0
 10 42  1  0
 13 43  1  0
 13 44  1  0
 14 45  1  1
 15 46  1  0
 15 47  1  0
 17 48  1  0
 18 49  1  0
 19 50  1  0
 20 51  1  0
 21 52  1  0
 26 53  1  0
 27 54  1  0
 28 55  1  0
 29 56  1  0
 30 57  1  0
M  CHG  1  14   1
M  END
>  <UniqueID>  (13) 
11

>  <SMILES>  (13) 
CCN(Cc1ccccc1)C(=O)C[N@H+](Cc1ccccc1)S(=O)(=O)c1ccccc1

>  <Energy>  (13) 
60.7643702953301

>  <Genealogy>  (13) 
CCN(Cc1ccccc1)C(=O)C[NH+](Cc1ccccc1)S(=O)(=O)c1ccccc1 (protonated)
CCN(Cc1ccccc1)C(=O)C[N@H+](Cc1ccccc1)S(=O)(=O)c1ccccc1 (chirality)
CCN(Cc1ccccc1)C(=O)C[N@H+](Cc1ccccc1)S(=O)(=O)c1ccccc1 (3D coordinates assigned)
CCN(Cc1ccccc1)C(=O)C[N@H+](Cc1ccccc1)S(=O)(=O)c1ccccc1 (optimized conformer: 60.7643702953301 kcal/mol)

>  <smiles>  (13) 
CCN(Cc1ccccc1)C(=O)CN(Cc1ccccc1)S(=O)(=O)c1ccccc1

>  <score_type>  (13) 
oracle

>  <origin>  (13) 
adg

>  <m_score__min__energy>  (13) 
-7.5499999999999998

>  <m_primary>  (13) 
energy

$$$$
13:0
     RDKit          3D

 44 46  0  0  0  0  0  0  0  0999 V2000
   55.8830   24.0750   44.4580 C   0  0  0  0  0  0  0  0  0  0  0  0
   55.8670   24.7180   45.7280 O   0  0  0  0  0  0  0  0  0  0  0  0
   56.8240   25.6480   46.1640 C   0  0  0  0  0  0  0  0  0  0  0  0
   57.5780   25.3330   47.2930 C   0  0  0  0  0  0  0  0  0  0  0  0
   58.5360   26.2210   47.7760 C   0  0  0  0  0  0  0  0  0  0  0  0
   58.7660   27.4490   47.1300 C   0  0  0  0  0  0  0  0  0  0  0  0
   59.7220   28.3530   47.6260 C   0  0  0  0  0  0  0  0  0  0  0  0
   60.3610   28.0840   48.6810 O   0  0  0  0  0  0  0  0  0  0  0  0
   59.9400   29.5700   46.9650 C   0  0  0  0  0  0  0  0  0  0  0  0
   60.9380   30.5540   47.4450 C   0  0  0  0  0  0  0  0  0  0  0  0
   61.1840   31.5670   46.7350 O   0  0  0  0  0  0  0  0  0  0  0  0
   61.6190   30.3620   48.6980 N   0  0  0  0  0  0  0  0  0  0  0  0
   62.6280   31.2490   49.2090 C   0  0  0  0  0  0  0  0  0  0  0  0
   63.3410   32.1170   48.3630 C   0  0  0  0  0  0  0  0  0  0  0  0
   64.3360   32.9490   48.8820 C   0  0  0  0  0  0  0  0  0  0  0  0
   64.6350   32.9270   50.2530 C   0  0  0  0  0  0  0  0  0  0  0  0
   65.7310   33.7920   50.8010 C   0  0  0  0  0  0  0  0  0  0  0  0
   63.9550   32.0310   51.0890 C   0  0  0  0  0  0  0  0  0  0  0  0
   62.9610   31.1970   50.5700 C   0  0  0  0  0  0  0  0  0  0  0  0
   59.1700   29.8760   45.8380 C   0  0  0  0  0  0  0  0  0  0  0  0
   58.2450   29.0000   45.3390 N   0  0  0  0  0  0  0  0  0  0  0  0
   57.5030   29.4150   44.1310 C   0  0  0  0  0  0  0  0  0  0  0  0
   56.1300   29.8940   44.4950 C   0  0  0  0  0  0  0  0  0  0  0  0
   55.8720   31.1260   44.5070 O   0  0  0  0  0  0  0  0  0  0  0  0
   55.1470   28.9810   44.8550 O   0  0  0  0  0  0  0  0  0  0  0  0
   58.0170   27.7910   45.9710 C   0  0  0  0  0  0  0  0  0  0  0  0
   57.0430   26.8730   45.5060 C   0  0  0  0  0  0  0  0  0  0  0  0
   55.9101   22.9845   44.5995 H   0  0  0  0  0  0  0  0  0  0  0  0
   54.9777   24.3495   43.8966 H   0  0  0  0  0  0  0  0  0  0  0  0
   56.7735   24.3942   43.8966 H   0  0  0  0  0  0  0  0  0  0  0  0
   57.4150   24.3744   47.8072 H   0  0  0  0  0  0  0  0  0  0  0  0
   59.1186   25.9594   48.6716 H   0  0  0  0  0  0  0  0  0  0  0  0
   61.3370   29.5600   49.3040 H   0  0  0  0  0  0  0  0  0  0  0  0
   63.1141   32.1410   47.2869 H   0  0  0  0  0  0  0  0  0  0  0  0
   64.8881   33.6250   48.2125 H   0  0  0  0  0  0  0  0  0  0  0  0
   65.7015   33.7687   51.9004 H   0  0  0  0  0  0  0  0  0  0  0  0
   66.7041   33.4158   50.4523 H   0  0  0  0  0  0  0  0  0  0  0  0
   65.5912   34.8258   50.4523 H   0  0  0  0  0  0  0  0  0  0  0  0
   64.2050   31.9840   52.1592 H   0  0  0  0  0  0  0  0  0  0  0  0
   62.4360   30.4946   51.2341 H   0  0  0  0  0  0  0  0  0  0  0  0
   59.3119   30.8464   45.3398 H   0  0  0  0  0  0  0  0  0  0  0  0
   58.0497   30.2290   43.6325 H   0  0  0  0  0  0  0  0  0  0  0  0
   57.4104   28.5508   43.4568 H   0  0  0  0  0  0  0  0  0  0  0  0
   56.4476   27.1219   44.6152 H   0  0  0  0  0  0  0  0  0  0  0  0
  1  2  1  0
  2  3  1  0
  3  4  2  0
  4  5  1  0
  5  6  2  0
  6  7  1  0
  7  8  2  0
  7  9  1  0
  9 10  1  0
 10 11  2  0
 10 12  1  0
 12 13  1  0
 13 14  2  0
 14 15  1  0
 15 16  2  0
 16 17  1  0
 16 18  1  0
 18 19  2  0
  9 20  2  0
 20 21  1  0
 21 22  1  0
 22 23  1  0
 23 24  2  0
 23 25  1  0
 21 26  1  0
 26 27  2  0
 27  3  1  0
 26  6  1  0
 19 13  1  0
  1 28  1  0
  1 29  1  0
  1 30  1  0
  4 31  1  0
  5 32  1  0
 12 33  1  0
 14 34  1  0
 15 35  1  0
 17 36  1  0
 17 37  1  0
 17 38  1  0
 18 39  1  0
 19 40  1  0
 20 41  1  0
 22 42  1  0
 22 43  1  0
 27 44  1  0
M  CHG  1  25  -1
M  END
>  <UniqueID>  (14) 
12

>  <SMILES>  (14) 
COc1ccc2c(=O)c(C(=O)Nc3ccc(C)cc3)cn(CC(=O)[O-])c2c1

>  <Energy>  (14) 
63.09994713217225

>  <Genealogy>  (14) 
COc1ccc2c(=O)c(C(=O)Nc3ccc(C)cc3)cn(CC(=O)[O-])c2c1 (protonated)
COc1ccc2c(=O)c(C(=O)Nc3ccc(C)cc3)cn(CC(=O)[O-])c2c1 (3D coordinates assigned)
COc1ccc2c(=O)c(C(=O)Nc3ccc(C)cc3)cn(CC(=O)[O-])c2c1 (optimized conformer: 63.09994713217225 kcal/mol)

>  <smiles>  (14) 
COc1ccc2c(=O)c(C(=O)Nc3ccc(C)cc3)cn(CC(=O)O)c2c1

>  <score_type>  (14) 
oracle

>  <origin>  (14) 
adg

>  <m_score__min__energy>  (14) 
-9.4800000000000004

>  <m_primary>  (14) 
energy

$$$$
14:0
     RDKit          3D

 91 94  0  0  0  0  0  0  0  0999 V2000
   55.3650   30.9510   51.9930 C   0  0  0  0  0  0  0  0  0  0  0  0
   56.8490   30.8520   51.6240 C   0  0  0  0  0  0  0  0  0  0  0  0
   57.6330   30.1450   52.7410 C   0  0  0  0  0  0  0  0  0  0  0  0
   57.4320   32.2540   51.3590 C   0  0  0  0  0  0  0  0  0  0  0  0
   58.6680   32.1760   50.5510 N   0  0  0  0  0  0  0  0  0  0  0  0
   59.6550   33.2320   50.8100 C   0  0  0  0  0  0  0  0  0  0  0  0
   61.0180   32.6220   50.7640 C   0  0  0  0  0  0  0  0  0  0  0  0
   61.4100   31.5270   51.5310 C   0  0  0  0  0  0  0  0  0  0  0  0
   62.9700   31.1040   51.0510 S   0  0  0  0  0  0  0  0  0  0  0  0
   63.0850   32.3410   49.9170 C   0  0  0  0  0  0  0  0  0  0  0  0
   64.2350   32.5520   48.9770 C   0  0  0  0  0  0  0  0  0  0  0  0
   65.4500   33.1010   49.7300 C   0  0  0  0  0  0  0  0  0  0  0  0
   63.8150   33.5040   47.8550 C   0  0  0  0  0  0  0  0  0  0  0  0
   61.9430   33.0620   49.8660 N   0  0  0  0  0  0  0  0  0  0  0  0
   58.5920   31.6780   49.1520 C   0  0  0  0  0  0  0  0  0  0  0  0
   59.5780   30.5450   48.7550 C   0  0  1  0  0  0  0  0  0  0  0  0
   59.5060   29.4820   49.6800 O   0  0  0  0  0  0  0  0  0  0  0  0
   59.4330   30.0090   47.3030 C   0  0  2  0  0  0  0  0  0  0  0  0
   60.3030   30.8900   46.3680 C   0  0  0  0  0  0  0  0  0  0  0  0
   59.9410   32.3530   46.3780 C   0  0  0  0  0  0  0  0  0  0  0  0
   58.8500   32.8270   45.6320 C   0  0  0  0  0  0  0  0  0  0  0  0
   58.5250   34.1860   45.6410 C   0  0  0  0  0  0  0  0  0  0  0  0
   59.2800   35.0800   46.4060 C   0  0  0  0  0  0  0  0  0  0  0  0
   60.3520   34.6150   47.1700 C   0  0  0  0  0  0  0  0  0  0  0  0
   60.6810   33.2560   47.1630 C   0  0  0  0  0  0  0  0  0  0  0  0
   58.0290   30.1050   46.8860 N   0  0  0  0  0  0  0  0  0  0  0  0
   57.4450   29.8360   45.6000 C   0  0  0  0  0  0  0  0  0  0  0  0
   56.7570   30.7360   45.0660 O   0  0  0  0  0  0  0  0  0  0  0  0
   57.5320   28.5230   44.9130 C   0  0  0  0  0  0  0  0  0  0  0  0
   57.7230   28.4880   43.5200 C   0  0  0  0  0  0  0  0  0  0  0  0
   57.8290   27.2710   42.8510 C   0  0  0  0  0  0  0  0  0  0  0  0
   57.8030   26.0720   43.5680 C   0  0  0  0  0  0  0  0  0  0  0  0
   57.6810   26.0800   44.9670 C   0  0  0  0  0  0  0  0  0  0  0  0
   57.7330   24.8280   45.7620 C   0  0  0  0  0  0  0  0  0  0  0  0
   58.7650   24.1080   45.7050 O   0  0  0  0  0  0  0  0  0  0  0  0
   56.6040   24.3860   46.5390 N   0  0  0  0  0  0  0  0  0  0  0  0
   56.6040   23.0680   47.1850 C   0  0  0  0  0  0  0  0  0  0  0  0
   55.2060   22.6930   47.6260 C   0  0  0  0  0  0  0  0  0  0  0  0
   55.0770   21.8480   48.7430 C   0  0  0  0  0  0  0  0  0  0  0  0
   53.8250   21.4070   49.1610 C   0  0  0  0  0  0  0  0  0  0  0  0
   52.6780   21.8010   48.4690 C   0  0  0  0  0  0  0  0  0  0  0  0
   52.7840   22.6390   47.3570 C   0  0  0  0  0  0  0  0  0  0  0  0
   54.0380   23.0910   46.9140 C   0  0  0  0  0  0  0  0  0  0  0  0
   54.1130   24.1340   45.4830 S   0  0  0  0  0  0  0  0  0  0  0  0
   54.4220   25.7620   45.9690 N   0  0  0  0  0  0  0  0  0  0  0  0
   55.2220   23.6870   44.5650 O   0  0  0  0  0  0  0  0  0  0  0  0
   52.8080   24.0640   44.7350 O   0  0  0  0  0  0  0  0  0  0  0  0
   57.5350   27.3140   45.6220 C   0  0  0  0  0  0  0  0  0  0  0  0
   55.2591   30.9581   53.0879 H   0  0  0  0  0  0  0  0  0  0  0  0
   54.9451   31.8792   51.5780 H   0  0  0  0  0  0  0  0  0  0  0  0
   54.8255   30.0868   51.5780 H   0  0  0  0  0  0  0  0  0  0  0  0
   56.9416   30.2571   50.7034 H   0  0  0  0  0  0  0  0  0  0  0  0
   57.2603   30.4811   53.7198 H   0  0  0  0  0  0  0  0  0  0  0  0
   57.4984   29.0570   52.6513 H   0  0  0  0  0  0  0  0  0  0  0  0
   58.7014   30.3909   52.6513 H   0  0  0  0  0  0  0  0  0  0  0  0
   56.6871   32.8558   50.8178 H   0  0  0  0  0  0  0  0  0  0  0  0
   57.6771   32.7175   52.3260 H   0  0  0  0  0  0  0  0  0  0  0  0
   59.5719   34.0152   50.0420 H   0  0  0  0  0  0  0  0  0  0  0  0
   59.4756   33.6847   51.7964 H   0  0  0  0  0  0  0  0  0  0  0  0
   60.8111   31.0293   52.3079 H   0  0  0  0  0  0  0  0  0  0  0  0
   64.5196   31.5861   48.5342 H   0  0  0  0  0  0  0  0  0  0  0  0
   65.2762   33.0225   50.8133 H   0  0  0  0  0  0  0  0  0  0  0  0
   66.3432   32.5190   49.4588 H   0  0  0  0  0  0  0  0  0  0  0  0
   65.6035   34.1559   49.4588 H   0  0  0  0  0  0  0  0  0  0  0  0
   63.4074   34.4278   48.2914 H   0  0  0  0  0  0  0  0  0  0  0  0
   64.6896   33.7468   47.2335 H   0  0  0  0  0  0  0  0  0  0  0  0
   63.0461   33.0217   47.2335 H   0  0  0  0  0  0  0  0  0  0  0  0
   57.5711   31.3028   48.9878 H   0  0  0  0  0  0  0  0  0  0  0  0
   58.8750   32.5370   48.5259 H   0  0  0  0  0  0  0  0  0  0  0  0
   60.5718   31.0156   48.7842 H   0  0  0  0  0  0  0  0  0  0  0  0
   59.1640   29.8540   50.5330 H   0  0  0  0  0  0  0  0  0  0  0  0
   59.7577   28.9593   47.2522 H   0  0  0  0  0  0  0  0  0  0  0  0
   61.3527   30.7930   46.6822 H   0  0  0  0  0  0  0  0  0  0  0  0
   60.1274   30.5297   45.3436 H   0  0  0  0  0  0  0  0  0  0  0  0
   58.2477   32.1246   45.0371 H   0  0  0  0  0  0  0  0  0  0  0  0
   57.6752   34.5523   45.0463 H   0  0  0  0  0  0  0  0  0  0  0  0
   59.0291   36.1510   46.4060 H   0  0  0  0  0  0  0  0  0  0  0  0
   60.9388   35.3189   47.7785 H   0  0  0  0  0  0  0  0  0  0  0  0
   61.5208   32.8919   47.7730 H   0  0  0  0  0  0  0  0  0  0  0  0
   57.7892   29.4292   42.9545 H   0  0  0  0  0  0  0  0  0  0  0  0
   57.9334   27.2537   41.7561 H   0  0  0  0  0  0  0  0  0  0  0  0
   57.8787   25.1142   43.0324 H   0  0  0  0  0  0  0  0  0  0  0  0
   55.7420   24.9670   46.5760 H   0  0  0  0  0  0  0  0  0  0  0  0
   56.9726   22.3157   46.4722 H   0  0  0  0  0  0  0  0  0  0  0  0
   57.2574   23.1056   48.0691 H   0  0  0  0  0  0  0  0  0  0  0  0
   55.9760   21.5321   49.2925 H   0  0  0  0  0  0  0  0  0  0  0  0
   53.7389   20.7475   50.0372 H   0  0  0  0  0  0  0  0  0  0  0  0
   51.6893   21.4507   48.8003 H   0  0  0  0  0  0  0  0  0  0  0  0
   51.8745   22.9489   46.8215 H   0  0  0  0  0  0  0  0  0  0  0  0
   53.6300   26.3400   45.6140 H   0  0  0  0  0  0  0  0  0  0  0  0
   57.4205   27.3319   46.7159 H   0  0  0  0  0  0  0  0  0  0  0  0
  1  2  1  0
  2  3  1  0
  2  4  1  0
  4  5  1  0
  5  6  1  0
  6  7  1  0
  7  8  2  0
  8  9  1  0
  9 10  1  0
 10 11  1  0
 11 12  1  0
 11 13  1  0
 10 14  2  0
  5 15  1  0
 15 16  1  0
 16 17  1  0
 16 18  1  0
 18 19  1  0
 19 20  1  0
 20 21  2  0
 21 22  1  0
 22 23  2  0
 23 24  1  0
 24 25  2  0
 18 26  1  0
 26 27  1  0
 27 28  2  0
 27 29  1  0
 29 30  2  0
 30 31  1  0
 31 32  2  0
 32 33  1  0
 33 34  1  0
 34 35  2  0
 34 36  1  0
 36 37  1  0
 37 38  1  0
 38 39  2  0
 39 40  1  0
 40 41  2  0
 41 42  1  0
 42 43  2  0
 43 44  1  0
 44 45  1  0
 44 46  2  0
 44 47  2  0
 33 48  2  0
 14  7  1  0
 25 20  1  0
 48 29  1  0
 43 38  1  0
  1 49  1  0
  1 50  1  0
  1 51  1  0
  2 52  1  0
  3 53  1  0
  3 54  1  0
  3 55  1  0
  4 56  1  0
  4 57  1  0
  6 58  1  0
  6 59  1  0
  8 60  1  0
 11 61  1  0
 12 62  1  0
 12 63  1  0
 12 64  1  0
 13 65  1  0
 13 66  1  0
 13 67  1  0
 15 68  1  0
 15 69  1  0
 16 70  1  6
 17 71  1  0
 18 72  1  1
 19 73  1  0
 19 74  1  0
 21 75  1  0
 22 76  1  0
 23 77  1  0
 24 78  1  0
 25 79  1  0
 30 80  1  0
 31 81  1  0
 32 82  1  0
 36 83  1  0
 37 84  1  0
 37 85  1  0
 39 86  1  0
 40 87  1  0
 41 88  1  0
 42 89  1  0
 45 90  1  0
 48 91  1  0
M  CHG  2  26  -1  45  -1
M  END
>  <UniqueID>  (15) 
13

>  <SMILES>  (15) 
CC(C)CN(Cc1csc(C(C)C)n1)C[C@@H](O)[C@H](Cc1ccccc1)[N-]C(=O)c1cccc(C(=O)NCc2ccccc2S([NH-])(=O)=O)c1

>  <Energy>  (15) 
130.1021129983976

>  <Genealogy>  (15) 
CC(C)CN(Cc1csc(C(C)C)n1)CC(O)C(Cc1ccccc1)[N-]C(=O)c1cccc(C(=O)NCc2ccccc2S([NH-])(=O)=O)c1 (protonated)
CC(C)CN(Cc1csc(C(C)C)n1)C[C@@H](O)[C@H](Cc1ccccc1)[N-]C(=O)c1cccc(C(=O)NCc2ccccc2S([NH-])(=O)=O)c1 (chirality)
CC(C)CN(Cc1csc(C(C)C)n1)C[C@@H](O)[C@H](Cc1ccccc1)[N-]C(=O)c1cccc(C(=O)NCc2ccccc2S([NH-])(=O)=O)c1 (3D coordinates assigned)
CC(C)CN(Cc1csc(C(C)C)n1)C[C@@H](O)[C@H](Cc1ccccc1)[N-]C(=O)c1cccc(C(=O)NCc2ccccc2S([NH-])(=O)=O)c1 (optimized conformer: 130.1021129983976 kcal/mol)

>  <smiles>  (15) 
CC(C)CN(Cc1csc(C(C)C)n1)CC(O)C(Cc1ccccc1)NC(=O)c1cccc(C(=O)NCc2ccccc2S(N)(=O)=O)c1

>  <score_type>  (15) 
oracle

>  <origin>  (15) 
adg

>  <m_score__min__energy>  (15) 
-14.9

>  <m_primary>  (15) 
energy

$$$$
15:0
     RDKit          3D

 41 43  0  0  0  0  0  0  0  0999 V2000
   59.2340   34.6480   45.1390 C   0  0  0  0  0  0  0  0  0  0  0  0
   59.6100   34.7080   46.9170 S   0  0  0  0  0  0  0  0  0  0  0  0
   58.4370   33.4090   47.3260 C   0  0  0  0  0  0  0  0  0  0  0  0
   57.2950   33.4560   46.7950 O   0  0  0  0  0  0  0  0  0  0  0  0
   58.7810   32.3000   48.2550 C   0  0  0  0  0  0  0  0  0  0  0  0
   59.4860   31.1790   47.7810 C   0  0  0  0  0  0  0  0  0  0  0  0
   59.8020   30.1250   48.6400 C   0  0  0  0  0  0  0  0  0  0  0  0
   59.4300   30.1760   49.9830 C   0  0  0  0  0  0  0  0  0  0  0  0
   58.7460   31.2960   50.4850 C   0  0  0  0  0  0  0  0  0  0  0  0
   58.3260   31.3630   51.8590 N   0  0  0  0  0  0  0  0  0  0  0  0
   59.1730   31.7870   52.9390 C   0  0  0  0  0  0  0  0  0  0  0  0
   60.2510   32.3990   52.7070 O   0  0  0  0  0  0  0  0  0  0  0  0
   58.7630   31.5320   54.3560 C   0  0  0  0  0  0  0  0  0  0  0  0
   58.5480   29.7430   54.6540 S   0  0  0  0  0  0  0  0  0  0  0  0
   57.0380   29.6210   53.6990 C   0  0  0  0  0  0  0  0  0  0  0  0
   56.7440   28.5930   52.8830 N   0  0  0  0  0  0  0  0  0  0  0  0
   55.5550   28.8630   52.3660 N   0  0  0  0  0  0  0  0  0  0  0  0
   55.1730   30.0470   52.8870 C   0  0  0  0  0  0  0  0  0  0  0  0
   53.8990   30.7240   52.5770 C   0  0  0  0  0  0  0  0  0  0  0  0
   53.6530   31.2360   51.2920 C   0  0  0  0  0  0  0  0  0  0  0  0
   52.4430   31.8760   51.0070 C   0  0  0  0  0  0  0  0  0  0  0  0
   51.4680   32.0090   52.0010 C   0  0  0  0  0  0  0  0  0  0  0  0
   50.2660   32.6440   51.7160 O   0  0  0  0  0  0  0  0  0  0  0  0
   51.7050   31.5010   53.2820 C   0  0  0  0  0  0  0  0  0  0  0  0
   52.9140   30.8600   53.5700 C   0  0  0  0  0  0  0  0  0  0  0  0
   56.0840   30.5180   53.7060 O   0  0  0  0  0  0  0  0  0  0  0  0
   58.4100   32.3430   49.6130 C   0  0  0  0  0  0  0  0  0  0  0  0
   58.1568   34.4761   44.9976 H   0  0  0  0  0  0  0  0  0  0  0  0
   59.5174   35.6027   44.6719 H   0  0  0  0  0  0  0  0  0  0  0  0
   59.8004   33.8289   44.6719 H   0  0  0  0  0  0  0  0  0  0  0  0
   59.7908   31.1325   46.7251 H   0  0  0  0  0  0  0  0  0  0  0  0
   60.3470   29.2502   48.2557 H   0  0  0  0  0  0  0  0  0  0  0  0
   59.6728   29.3368   50.6514 H   0  0  0  0  0  0  0  0  0  0  0  0
   57.3280   31.1470   52.0820 H   0  0  0  0  0  0  0  0  0  0  0  0
   59.5394   31.9199   55.0319 H   0  0  0  0  0  0  0  0  0  0  0  0
   57.8052   32.0394   54.5437 H   0  0  0  0  0  0  0  0  0  0  0  0
   54.4160   31.1329   50.5064 H   0  0  0  0  0  0  0  0  0  0  0  0
   52.2575   32.2757   49.9991 H   0  0  0  0  0  0  0  0  0  0  0  0
   50.9391   31.6058   54.0646 H   0  0  0  0  0  0  0  0  0  0  0  0
   53.0949   30.4603   54.5787 H   0  0  0  0  0  0  0  0  0  0  0  0
   57.8494   33.2088   49.9952 H   0  0  0  0  0  0  0  0  0  0  0  0
  1  2  1  0
  2  3  1  0
  3  4  2  0
  3  5  1  0
  5  6  2  0
  6  7  1  0
  7  8  2  0
  8  9  1  0
  9 10  1  0
 10 11  1  0
 11 12  2  0
 11 13  1  0
 13 14  1  0
 14 15  1  0
 15 16  2  0
 16 17  1  0
 17 18  2  0
 18 19  1  0
 19 20  2  0
 20 21  1  0
 21 22  2  0
 22 23  1  0
 22 24  1  0
 24 25  2  0
 18 26  1  0
  9 27  2  0
 27  5  1  0
 26 15  1  0
 25 19  1  0
  1 28  1  0
  1 29  1  0
  1 30  1  0
  6 31  1  0
  7 32  1  0
  8 33  1  0
 10 34  1  0
 13 35  1  0
 13 36  1  0
 20 37  1  0
 21 38  1  0
 24 39  1  0
 25 40  1  0
 27 41  1  0
M  CHG  1  23  -1
M  END
>  <UniqueID>  (16) 
14

>  <SMILES>  (16) 
CSC(=O)c1cccc(NC(=O)CSc2nnc(-c3ccc([O-])cc3)o2)c1

>  <Energy>  (16) 
73.93635666984919

>  <Genealogy>  (16) 
CSC(=O)c1cccc(NC(=O)CSc2nnc(-c3ccc([O-])cc3)o2)c1 (protonated)
CSC(=O)c1cccc(NC(=O)CSc2nnc(-c3ccc([O-])cc3)o2)c1 (3D coordinates assigned)
CSC(=O)c1cccc(NC(=O)CSc2nnc(-c3ccc([O-])cc3)o2)c1 (optimized conformer: 73.93635666984919 kcal/mol)

>  <smiles>  (16) 
CSC(=O)c1cccc(NC(=O)CSc2nnc(-c3ccc(O)cc3)o2)c1

>  <score_type>  (16) 
oracle

>  <origin>  (16) 
adg

>  <m_score__min__energy>  (16) 
-12.67

>  <m_primary>  (16) 
energy

$$$$
16:0
     RDKit          3D

 68 72  0  0  0  0  0  0  0  0999 V2000
   57.7370   31.1840   51.8250 H   0  0  0  0  0  0  0  0  0  0  0  0
   57.5770   30.9300   50.8250 N   0  0  0  0  0  0  0  0  0  0  0  0
   58.5550   30.8410   49.9780 C   0  0  0  0  0  0  0  0  0  0  0  0
   59.4340   29.6470   49.9950 C   0  0  0  0  0  0  0  0  0  0  0  0
   60.4940   29.5560   50.9140 C   0  0  0  0  0  0  0  0  0  0  0  0
   60.6705   30.3755   51.6262 H   0  0  0  0  0  0  0  0  0  0  0  0
   61.3250   28.4330   50.9300 C   0  0  0  0  0  0  0  0  0  0  0  0
   62.1508   28.3719   51.6540 H   0  0  0  0  0  0  0  0  0  0  0  0
   61.1100   27.3890   50.0300 C   0  0  0  0  0  0  0  0  0  0  0  0
   61.7688   26.5082   50.0458 H   0  0  0  0  0  0  0  0  0  0  0  0
   60.0610   27.4570   49.1080 C   0  0  0  0  0  0  0  0  0  0  0  0
   59.8910   26.3980   48.2030 O   0  0  0  0  0  0  0  0  0  0  0  0
   59.4530   26.5270   46.8790 C   0  0  0  0  0  0  0  0  0  0  0  0
   59.7000   27.6900   46.2210 N   0  0  0  0  0  0  0  0  0  0  0  0
   59.3070   27.8740   44.9350 C   0  0  0  0  0  0  0  0  0  0  0  0
   59.5800   29.0930   44.3050 O   0  0  0  0  0  0  0  0  0  0  0  0
   58.8350   30.2630   44.5020 C   0  0  0  0  0  0  0  0  0  0  0  0
   57.8320   30.5720   43.5760 C   0  0  0  0  0  0  0  0  0  0  0  0
   57.6523   29.9020   42.7223 H   0  0  0  0  0  0  0  0  0  0  0  0
   57.0590   31.7220   43.7270 C   0  0  0  0  0  0  0  0  0  0  0  0
   56.2746   31.9559   42.9921 H   0  0  0  0  0  0  0  0  0  0  0  0
   57.2770   32.5770   44.8070 C   0  0  0  0  0  0  0  0  0  0  0  0
   56.6632   33.4827   44.9210 H   0  0  0  0  0  0  0  0  0  0  0  0
   58.2760   32.2870   45.7490 C   0  0  0  0  0  0  0  0  0  0  0  0
   58.5120   33.1770   46.8450 N   0  0  0  0  0  0  0  0  0  0  0  0
   59.6700   34.4630   46.7800 S   0  0  0  0  0  0  0  0  0  0  0  0
   59.1100   35.6560   47.5020 O   0  0  0  0  0  0  0  0  0  0  0  0
   59.9030   34.8480   45.3460 O   0  0  0  0  0  0  0  0  0  0  0  0
   61.1940   34.0030   47.5320 C   0  0  0  0  0  0  0  0  0  0  0  0
   61.2920   33.9140   48.9270 C   0  0  0  0  0  0  0  0  0  0  0  0
   60.4221   34.1578   49.5545 H   0  0  0  0  0  0  0  0  0  0  0  0
   62.4930   33.5160   49.5240 C   0  0  0  0  0  0  0  0  0  0  0  0
   62.5635   33.4481   50.6196 H   0  0  0  0  0  0  0  0  0  0  0  0
   63.6080   33.2030   48.7320 C   0  0  0  0  0  0  0  0  0  0  0  0
   64.8780   32.7370   49.3790 C   0  0  0  0  0  0  0  0  0  0  0  0
   64.7685   32.7772   50.4728 H   0  0  0  0  0  0  0  0  0  0  0  0
   65.0892   31.7028   49.0694 H   0  0  0  0  0  0  0  0  0  0  0  0
   65.7080   33.3892   49.0694 H   0  0  0  0  0  0  0  0  0  0  0  0
   63.5040   33.2820   47.3350 C   0  0  0  0  0  0  0  0  0  0  0  0
   64.3693   33.0248   46.7064 H   0  0  0  0  0  0  0  0  0  0  0  0
   62.3060   33.6860   46.7380 C   0  0  0  0  0  0  0  0  0  0  0  0
   62.2353   33.7555   45.6425 H   0  0  0  0  0  0  0  0  0  0  0  0
   59.0830   31.1450   45.5790 C   0  0  0  0  0  0  0  0  0  0  0  0
   60.1800   30.9030   46.4890 C   0  0  0  0  0  0  0  0  0  0  0  0
   61.0570   30.7070   47.2200 N   0  0  0  0  0  0  0  0  0  0  0  0
   58.6740   26.8670   44.2710 N   0  0  0  0  0  0  0  0  0  0  0  0
   58.4240   25.6740   44.8670 C   0  0  0  0  0  0  0  0  0  0  0  0
   57.7440   24.6900   44.1350 O   0  0  0  0  0  0  0  0  0  0  0  0
   56.9350   23.6830   44.6840 C   0  0  0  0  0  0  0  0  0  0  0  0
   57.4570   22.4350   45.0650 C   0  0  0  0  0  0  0  0  0  0  0  0
   58.5328   22.2337   44.9548 H   0  0  0  0  0  0  0  0  0  0  0  0
   56.6140   21.4500   45.5830 C   0  0  0  0  0  0  0  0  0  0  0  0
   57.0283   20.4774   45.8871 H   0  0  0  0  0  0  0  0  0  0  0  0
   55.2450   21.6970   45.7160 C   0  0  0  0  0  0  0  0  0  0  0  0
   54.5869   20.9181   46.1284 H   0  0  0  0  0  0  0  0  0  0  0  0
   54.7030   22.9350   45.3260 C   0  0  0  0  0  0  0  0  0  0  0  0
   53.2520   23.1980   45.4540 C   0  0  0  0  0  0  0  0  0  0  0  0
   52.4240   22.2520   45.3980 O   0  0  0  0  0  0  0  0  0  0  0  0
   52.7830   24.4960   45.6310 O   0  0  0  0  0  0  0  0  0  0  0  0
   55.5600   23.9210   44.8060 C   0  0  0  0  0  0  0  0  0  0  0  0
   55.1460   24.8903   44.4914 H   0  0  0  0  0  0  0  0  0  0  0  0
   58.8050   25.4780   46.2050 C   0  0  0  0  0  0  0  0  0  0  0  0
   58.5540   24.3010   46.8320 F   0  0  0  0  0  0  0  0  0  0  0  0
   59.2330   28.5950   49.0810 C   0  0  0  0  0  0  0  0  0  0  0  0
   58.4227   28.6630   48.3402 H   0  0  0  0  0  0  0  0  0  0  0  0
   58.7620   31.8930   49.0280 N   0  0  0  0  0  0  0  0  0  0  0  0
   58.1810   32.7600   49.0580 H   0  0  0  0  0  0  0  0  0  0  0  0
   59.4400   31.7860   48.2410 H   0  0  0  0  0  0  0  0  0  0  0  0
  1  2  1  0
  2  3  2  0
  3  4  1  0
  4  5  2  0
  5  6  1  0
  5  7  1  0
  7  8  1  0
  7  9  2  0
  9 10  1  0
  9 11  1  0
 11 12  1  0
 12 13  1  0
 13 14  2  0
 14 15  1  0
 15 16  1  0
 16 17  1  0
 17 18  2  0
 18 19  1  0
 18 20  1  0
 20 21  1  0
 20 22  2  0
 22 23  1  0
 22 24  1  0
 24 25  1  0
 25 26  1  0
 26 27  2  0
 26 28  2  0
 26 29  1  0
 29 30  2  0
 30 31  1  0
 30 32  1  0
 32 33  1  0
 32 34  2  0
 34 35  1  0
 35 36  1  0
 35 37  1  0
 35 38  1  0
 34 39  1  0
 39 40  1  0
 39 41  2  0
 41 42  1  0
 24 43  2  0
 43 44  1  0
 44 45  3  0
 15 46  2  0
 46 47  1  0
 47 48  1  0
 48 49  1  0
 49 50  2  0
 50 51  1  0
 50 52  1  0
 52 53  1  0
 52 54  2  0
 54 55  1  0
 54 56  1  0
 56 57  1  0
 57 58  2  0
 57 59  1  0
 56 60  2  0
 60 61  1  0
 47 62  2  0
 62 63  1  0
 11 64  2  0
 64 65  1  0
  3 66  1  0
 66 67  1  0
 66 68  1  0
 64  4  1  0
 62 13  1  0
 43 17  1  0
 60 49  1  0
 41 29  1  0
M  CHG  2  25  -1  59  -1
M  END
>  <UniqueID>  (17) 
15

>  <SMILES>  (17) 
[H]/N=C(\N)c1cccc(Oc2nc(Oc3cccc([N-]S(=O)(=O)c4ccc(C)cc4)c3C#N)nc(Oc3cccc(C(=O)[O-])c3)c2F)c1

>  <Energy>  (17) 
108.01260139503484

>  <Genealogy>  (17) 
Cc1ccc(S(=O)(=O)[N-]c2cccc(Oc3nc(Oc4cccc(C(=N)N)c4)c(F)c(Oc4cccc(C(=O)[O-])c4)n3)c2C#N)cc1 (protonated)
[H]/N=C(\N)c1cccc(Oc2nc(Oc3cccc([N-]S(=O)(=O)c4ccc(C)cc4)c3C#N)nc(Oc3cccc(C(=O)[O-])c3)c2F)c1 (cis-trans isomerization)
[H]/N=C(\N)c1cccc(Oc2nc(Oc3cccc([N-]S(=O)(=O)c4ccc(C)cc4)c3C#N)nc(Oc3cccc(C(=O)[O-])c3)c2F)c1 (3D coordinates assigned)
[H]/N=C(\N)c1cccc(Oc2nc(Oc3cccc([N-]S(=O)(=O)c4ccc(C)cc4)c3C#N)nc(Oc3cccc(C(=O)[O-])c3)c2F)c1 (optimized conformer: 108.01260139503484 kcal/mol)

>  <smiles>  (17) 
Cc1ccc(S(=O)(=O)Nc2cccc(Oc3nc(Oc4cccc(C(=N)N)c4)c(F)c(Oc4cccc(C(=O)O)c4)n3)c2C#N)cc1

>  <score_type>  (17) 
oracle

>  <origin>  (17) 
adg

>  <m_score__min__energy>  (17) 
-14.289999999999999

>  <m_primary>  (17) 
energy

$$$$
17:0
     RDKit          3D

 45 48  0  0  0  0  0  0  0  0999 V2000
   59.7165   36.3681   45.6807 H   0  0  0  0  0  0  0  0  0  0  0  0
   59.6690   35.2750   45.7940 C   0  0  0  0  0  0  0  0  0  0  0  0
   58.8630   34.5430   44.9840 N   0  0  0  0  0  0  0  0  0  0  0  0
   58.7780   33.1910   45.1110 C   0  0  0  0  0  0  0  0  0  0  0  0
   58.0220   32.4830   44.3230 N   0  0  0  0  0  0  0  0  0  0  0  0
   57.4680   31.1840   44.5960 C   0  0  0  0  0  0  0  0  0  0  0  0
   56.2810   30.7370   43.9860 C   0  0  0  0  0  0  0  0  0  0  0  0
   55.7659   31.3794   43.2566 H   0  0  0  0  0  0  0  0  0  0  0  0
   55.7530   29.4830   44.3010 C   0  0  0  0  0  0  0  0  0  0  0  0
   54.8331   29.1357   43.8079 H   0  0  0  0  0  0  0  0  0  0  0  0
   56.3900   28.6680   45.2410 C   0  0  0  0  0  0  0  0  0  0  0  0
   55.8740   27.4500   45.5470 N   0  0  0  0  0  0  0  0  0  0  0  0
   56.4740   26.6470   46.4650 C   0  0  0  0  0  0  0  0  0  0  0  0
   55.9800   25.5210   46.7320 O   0  0  0  0  0  0  0  0  0  0  0  0
   57.6040   27.0580   47.0950 N   0  0  0  0  0  0  0  0  0  0  0  0
   58.1610   28.2680   46.8300 C   0  0  0  0  0  0  0  0  0  0  0  0
   59.2100   28.6110   47.4370 O   0  0  0  0  0  0  0  0  0  0  0  0
   57.5630   29.1170   45.8830 C   0  0  0  0  0  0  0  0  0  0  0  0
   58.0890   30.3810   45.5620 C   0  0  0  0  0  0  0  0  0  0  0  0
   58.9940   30.7418   46.0726 H   0  0  0  0  0  0  0  0  0  0  0  0
   59.5300   32.5590   46.0500 N   0  0  0  0  0  0  0  0  0  0  0  0
   60.3630   33.2430   46.8830 C   0  0  0  0  0  0  0  0  0  0  0  0
   61.1480   32.4930   47.8960 C   0  0  0  0  0  0  0  0  0  0  0  0
   62.2750   33.0640   48.5140 C   0  0  0  0  0  0  0  0  0  0  0  0
   62.5838   34.0868   48.2525 H   0  0  0  0  0  0  0  0  0  0  0  0
   63.0040   32.3370   49.4590 C   0  0  0  0  0  0  0  0  0  0  0  0
   64.1230   32.9500   50.0470 O   0  0  0  0  0  0  0  0  0  0  0  0
   65.4450   32.4070   50.0990 C   0  0  0  0  0  0  0  0  0  0  0  0
   65.7251   32.0169   49.1094 H   0  0  0  0  0  0  0  0  0  0  0  0
   66.4130   33.5140   50.5100 C   0  0  0  0  0  0  0  0  0  0  0  0
   66.4617   33.5697   51.6075 H   0  0  0  0  0  0  0  0  0  0  0  0
   67.4134   33.2937   50.1093 H   0  0  0  0  0  0  0  0  0  0  0  0
   66.0612   34.4761   50.1093 H   0  0  0  0  0  0  0  0  0  0  0  0
   65.5050   31.2510   51.1020 C   0  0  0  0  0  0  0  0  0  0  0  0
   65.4842   31.6525   52.1259 H   0  0  0  0  0  0  0  0  0  0  0  0
   64.6400   30.5886   50.9502 H   0  0  0  0  0  0  0  0  0  0  0  0
   66.4339   30.6817   50.9502 H   0  0  0  0  0  0  0  0  0  0  0  0
   62.6010   31.0280   49.7690 C   0  0  0  0  0  0  0  0  0  0  0  0
   63.1593   30.4366   50.5096 H   0  0  0  0  0  0  0  0  0  0  0  0
   61.4870   30.4840   49.1300 C   0  0  0  0  0  0  0  0  0  0  0  0
   61.1682   29.4581   49.3665 H   0  0  0  0  0  0  0  0  0  0  0  0
   60.7920   31.2140   48.2160 N   0  0  0  0  0  0  0  0  0  0  0  0
   59.9590   30.7710   47.7680 H   0  0  0  0  0  0  0  0  0  0  0  0
   60.4370   34.6410   46.7700 C   0  0  0  0  0  0  0  0  0  0  0  0
   61.0878   35.2241   47.4381 H   0  0  0  0  0  0  0  0  0  0  0  0
  1  2  1  0
  2  3  1  0
  3  4  1  0
  4  5  2  0
  5  6  1  0
  6  7  2  0
  7  8  1  0
  7  9  1  0
  9 10  1  0
  9 11  2  0
 11 12  1  0
 12 13  1  0
 13 14  2  0
 13 15  1  0
 15 16  1  0
 16 17  2  0
 16 18  1  0
 18 19  2  0
 19 20  1  0
  4 21  1  0
 21 22  2  0
 22 23  1  0
 23 24  2  0
 24 25  1  0
 24 26  1  0
 26 27  1  0
 27 28  1  0
 28 29  1  0
 28 30  1  0
 30 31  1  0
 30 32  1  0
 30 33  1  0
 28 34  1  0
 34 35  1  0
 34 36  1  0
 34 37  1  0
 26 38  2  0
 38 39  1  0
 38 40  1  0
 40 41  1  0
 40 42  2  0
 42 43  1  0
 22 44  1  0
 44 45  1  0
 44  2  2  0
 19  6  1  0
 42 23  1  0
 18 11  1  0
M  CHG  4   3  -1  12  -1  15  -1  42   1
M  END
>  <UniqueID>  (18) 
16

>  <SMILES>  (18) 
CC(C)Oc1cc[nH+]c(-c2cc[n-]/c(=N\c3ccc4[n-]c(=O)[n-]c(=O)c4c3)n2)c1

>  <Energy>  (18) 
61.799280194628345

>  <Genealogy>  (18) 
CC(C)Oc1cc[nH+]c(-c2cc[n-]c(=Nc3ccc4[n-]c(=O)[n-]c(=O)c4c3)n2)c1 (protonated)
CC(C)Oc1cc[nH+]c(-c2cc[n-]/c(=N\c3ccc4[n-]c(=O)[n-]c(=O)c4c3)n2)c1 (cis-trans isomerization)
CC(C)Oc1cc[nH+]c(-c2cc[n-]/c(=N\c3ccc4[n-]c(=O)[n-]c(=O)c4c3)n2)c1 (3D coordinates assigned)
CC(C)Oc1cc[nH+]c(-c2cc[n-]/c(=N\c3ccc4[n-]c(=O)[n-]c(=O)c4c3)n2)c1 (optimized conformer: 61.799280194628345 kcal/mol)

>  <smiles>  (18) 
CC(C)Oc1ccnc(-c2cc[nH]c(=Nc3ccc4[nH]c(=O)[nH]c(=O)c4c3)n2)c1

>  <score_type>  (18) 
oracle

>  <origin>  (18) 
adg

>  <m_score__min__energy>  (18) 
-12.35

>  <m_primary>  (18) 
energy

$$$$
18:0
     RDKit          3D

 46 49  0  0  0  0  0  0  0  0999 V2000
   54.8730   29.7540   44.0860 O   0  0  0  0  0  0  0  0  0  0  0  0
   56.0410   29.3560   44.3440 C   0  0  0  0  0  0  0  0  0  0  0  0
   57.1290   29.5340   43.3330 C   0  0  0  0  0  0  0  0  0  0  0  0
   57.0710   31.2070   42.6030 S   0  0  0  0  0  0  0  0  0  0  0  0
   57.5870   32.0500   44.0990 C   0  0  0  0  0  0  0  0  0  0  0  0
   57.2390   31.6730   45.3400 N   0  0  0  0  0  0  0  0  0  0  0  0
   57.8090   32.5150   46.1850 N   0  0  0  0  0  0  0  0  0  0  0  0
   58.4860   33.3890   45.4130 C   0  0  0  0  0  0  0  0  0  0  0  0
   59.3010   34.5190   45.9490 C   0  0  0  0  0  0  0  0  0  0  0  0
   59.9830   34.1120   47.1750 N   0  0  0  0  0  0  0  0  0  0  0  0
   59.4410   34.0120   48.4140 C   0  0  0  0  0  0  0  0  0  0  0  0
   60.3370   33.6370   49.3630 N   0  0  0  0  0  0  0  0  0  0  0  0
   61.4830   33.5130   48.6670 C   0  0  0  0  0  0  0  0  0  0  0  0
   62.7390   33.1610   49.1560 C   0  0  0  0  0  0  0  0  0  0  0  0
   63.8120   33.1320   48.2450 C   0  0  0  0  0  0  0  0  0  0  0  0
   63.6020   33.4430   46.8820 C   0  0  0  0  0  0  0  0  0  0  0  0
   62.3170   33.7830   46.4180 C   0  0  0  0  0  0  0  0  0  0  0  0
   61.2790   33.8070   47.3510 C   0  0  0  0  0  0  0  0  0  0  0  0
   58.3590   33.1080   44.1340 O   0  0  0  0  0  0  0  0  0  0  0  0
   56.3630   28.7870   45.6160 N   0  0  0  0  0  0  0  0  0  0  0  0
   56.5520   27.3950   45.8910 C   0  0  0  0  0  0  0  0  0  0  0  0
   55.5670   26.6160   45.9950 O   0  0  0  0  0  0  0  0  0  0  0  0
   57.9440   26.8650   46.0240 C   0  0  0  0  0  0  0  0  0  0  0  0
   58.9310   27.9930   46.1620 C   0  0  0  0  0  0  0  0  0  0  0  0
   59.8490   28.2600   45.1310 C   0  0  0  0  0  0  0  0  0  0  0  0
   60.7620   29.3110   45.2560 C   0  0  0  0  0  0  0  0  0  0  0  0
   60.7660   30.1030   46.4060 C   0  0  0  0  0  0  0  0  0  0  0  0
   59.8600   29.8440   47.4350 C   0  0  0  0  0  0  0  0  0  0  0  0
   58.9470   28.7910   47.3180 C   0  0  0  0  0  0  0  0  0  0  0  0
   58.1032   29.3880   43.8225 H   0  0  0  0  0  0  0  0  0  0  0  0
   56.9882   28.7948   42.5306 H   0  0  0  0  0  0  0  0  0  0  0  0
   56.6380   30.8650   45.6120 H   0  0  0  0  0  0  0  0  0  0  0  0
   60.0486   34.8157   45.1987 H   0  0  0  0  0  0  0  0  0  0  0  0
   58.6364   35.3665   46.1724 H   0  0  0  0  0  0  0  0  0  0  0  0
   58.3814   34.2144   48.6289 H   0  0  0  0  0  0  0  0  0  0  0  0
   62.8874   32.9141   50.2176 H   0  0  0  0  0  0  0  0  0  0  0  0
   64.8199   32.8657   48.5959 H   0  0  0  0  0  0  0  0  0  0  0  0
   64.4481   33.4192   46.1794 H   0  0  0  0  0  0  0  0  0  0  0  0
   62.1376   34.0210   45.3591 H   0  0  0  0  0  0  0  0  0  0  0  0
   58.0024   26.2228   46.9152 H   0  0  0  0  0  0  0  0  0  0  0  0
   58.1906   26.2873   45.1210 H   0  0  0  0  0  0  0  0  0  0  0  0
   59.8487   27.6395   44.2227 H   0  0  0  0  0  0  0  0  0  0  0  0
   61.4788   29.5146   44.4468 H   0  0  0  0  0  0  0  0  0  0  0  0
   61.4836   30.9313   46.5007 H   0  0  0  0  0  0  0  0  0  0  0  0
   59.8638   30.4692   48.3400 H   0  0  0  0  0  0  0  0  0  0  0  0
   58.2386   28.5869   48.1344 H   0  0  0  0  0  0  0  0  0  0  0  0
  1  2  2  0
  2  3  1  0
  3  4  1  0
  4  5  1  0
  5  6  2  0
  6  7  1  0
  7  8  2  0
  8  9  1  0
  9 10  1  0
 10 11  1  0
 11 12  2  0
 12 13  1  0
 13 14  2  0
 14 15  1  0
 15 16  2  0
 16 17  1  0
 17 18  2  0
  8 19  1  0
  2 20  1  0
 20 21  1  0
 21 22  2  0
 21 23  1  0
 23 24  1  0
 24 25  2  0
 25 26  1  0
 26 27  2  0
 27 28  1  0
 28 29  2  0
 19  5  1  0
 29 24  1  0
 18 10  1  0
 18 13  1  0
  3 30  1  0
  3 31  1  0
  6 32  1  0
  9 33  1  0
  9 34  1  0
 11 35  1  0
 14 36  1  0
 15 37  1  0
 16 38  1  0
 17 39  1  0
 23 40  1  0
 23 41  1  0
 25 42  1  0
 26 43  1  0
 27 44  1  0
 28 45  1  0
 29 46  1  0
M  CHG  2   6   1  20  -1
M  END
>  <UniqueID>  (19) 
17

>  <SMILES>  (19) 
O=C(CSc1[nH+]nc(Cn2cnc3ccccc32)o1)[N-]C(=O)Cc1ccccc1

>  <Energy>  (19) 
108.26883684211668

>  <Genealogy>  (19) 
O=C(CSc1[nH+]nc(Cn2cnc3ccccc32)o1)[N-]C(=O)Cc1ccccc1 (protonated)
O=C(CSc1[nH+]nc(Cn2cnc3ccccc32)o1)[N-]C(=O)Cc1ccccc1 (3D coordinates assigned)
O=C(CSc1[nH+]nc(Cn2cnc3ccccc32)o1)[N-]C(=O)Cc1ccccc1 (optimized conformer: 108.26883684211668 kcal/mol)

>  <smiles>  (19) 
O=C(CSc1nnc(Cn2cnc3ccccc32)o1)NC(=O)Cc1ccccc1

>  <score_type>  (19) 
oracle

>  <origin>  (19) 
adg

>  <m_score__min__energy>  (19) 
-10.41

>  <m_primary>  (19) 
energy

$$$$
19:0
     RDKit          3D

 34 37  0  0  0  0  0  0  0  0999 V2000
   57.2330   34.1150   46.2700 N   0  0  0  0  0  0  0  0  0  0  0  0
   57.9340   33.0360   46.2340 C   0  0  0  0  0  0  0  0  0  0  0  0
   57.6540   31.7670   45.9110 N   0  0  0  0  0  0  0  0  0  0  0  0
   58.5860   30.8730   45.9710 C   0  0  0  0  0  0  0  0  0  0  0  0
   58.3730   29.4400   45.6330 C   0  0  0  0  0  0  0  0  0  0  0  0
   58.2570   29.0240   44.3240 C   0  0  0  0  0  0  0  0  0  0  0  0
   58.0560   27.6910   43.9770 C   0  0  0  0  0  0  0  0  0  0  0  0
   57.9690   26.7400   44.9650 C   0  0  0  0  0  0  0  0  0  0  0  0
   57.7600   25.3370   44.6280 C   0  0  0  0  0  0  0  0  0  0  0  0
   58.4180   24.2700   45.1990 C   0  0  0  0  0  0  0  0  0  0  0  0
   57.9110   23.1490   44.5860 C   0  0  0  0  0  0  0  0  0  0  0  0
   58.1980   21.8240   44.7590 C   0  0  0  0  0  0  0  0  0  0  0  0
   59.0880   21.4700   45.6270 N   0  0  0  0  0  0  0  0  0  0  0  0
   57.5570   20.9160   44.0310 N   0  0  0  0  0  0  0  0  0  0  0  0
   56.6230   21.2950   43.1210 C   0  0  0  0  0  0  0  0  0  0  0  0
   56.3280   22.6070   42.9390 N   0  0  0  0  0  0  0  0  0  0  0  0
   56.9600   23.5640   43.6620 C   0  0  0  0  0  0  0  0  0  0  0  0
   56.8810   24.9160   43.7020 N   0  0  0  0  0  0  0  0  0  0  0  0
   58.0860   27.1700   46.2690 C   0  0  0  0  0  0  0  0  0  0  0  0
   58.2830   28.4750   46.6060 C   0  0  0  0  0  0  0  0  0  0  0  0
   59.8610   31.2850   46.3760 C   0  0  0  0  0  0  0  0  0  0  0  0
   59.7420   33.0300   46.6910 S   0  0  0  0  0  0  0  0  0  0  0  0
   56.3510   34.2190   46.7660 H   0  0  0  0  0  0  0  0  0  0  0  0
   56.6420   31.5450   45.6110 H   0  0  0  0  0  0  0  0  0  0  0  0
   58.3259   29.7744   43.5226 H   0  0  0  0  0  0  0  0  0  0  0  0
   57.9675   27.4011   42.9196 H   0  0  0  0  0  0  0  0  0  0  0  0
   59.1890   24.3073   45.9827 H   0  0  0  0  0  0  0  0  0  0  0  0
   59.4890   20.5080   45.6220 H   0  0  0  0  0  0  0  0  0  0  0  0
   57.7370   19.8920   44.1200 H   0  0  0  0  0  0  0  0  0  0  0  0
   56.1007   20.5314   42.5259 H   0  0  0  0  0  0  0  0  0  0  0  0
   56.2350   25.4960   43.1020 H   0  0  0  0  0  0  0  0  0  0  0  0
   58.0171   26.4248   47.0752 H   0  0  0  0  0  0  0  0  0  0  0  0
   58.3707   28.7580   47.6653 H   0  0  0  0  0  0  0  0  0  0  0  0
   60.7569   30.6551   46.4787 H   0  0  0  0  0  0  0  0  0  0  0  0
  1  2  2  3
  2  3  1  0
  3  4  1  0
  4  5  1  0
  5  6  2  0
  6  7  1  0
  7  8  2  0
  8  9  1  0
  9 10  2  0
 10 11  1  0
 11 12  1  0
 12 13  2  3
 12 14  1  0
 14 15  1  0
 15 16  2  0
 16 17  1  0
 17 18  1  0
  8 19  1  0
 19 20  2  0
  4 21  2  0
 21 22  1  0
 22  2  1  0
 20  5  1  0
 18  9  1  0
 17 11  2  0
  1 23  1  0
  3 24  1  0
  6 25  1  0
  7 26  1  0
 10 27  1  0
 13 28  1  0
 14 29  1  0
 15 30  1  0
 18 31  1  0
 19 32  1  0
 20 33  1  0
 21 34  1  0
M  END
>  <smiles>  (20) 
N=c1[nH]c(-c2ccc(-c3cc4c(=N)[nH]cnc4[nH]3)cc2)cs1

>  <score_type>  (20) 
oracle

>  <origin>  (20) 
adg

>  <m_score__min__energy>  (20) 
-7.3700000000000001

>  <m_primary>  (20) 
energy

$$$$
20:0
     RDKit          3D

 56 58  0  0  0  0  0  0  0  0999 V2000
   63.3310   33.8150   46.4230 C   0  0  0  0  0  0  0  0  0  0  0  0
   63.6110   32.5290   47.2020 C   0  0  0  0  0  0  0  0  0  0  0  0
   63.0980   32.5970   48.5890 N   0  0  0  0  0  0  0  0  0  0  0  0
   62.8600   33.9980   49.0090 C   0  0  0  0  0  0  0  0  0  0  0  0
   63.1740   34.2280   50.4880 C   0  0  0  0  0  0  0  0  0  0  0  0
   61.9840   31.6540   48.8800 C   0  0  0  0  0  0  0  0  0  0  0  0
   60.5700   32.2760   49.0360 C   0  0  0  0  0  0  0  0  0  0  0  0
   59.7510   32.1860   47.8060 N   0  0  0  0  0  0  0  0  0  0  0  0
   59.6080   33.2600   46.9600 C   0  0  0  0  0  0  0  0  0  0  0  0
   58.8470   33.1820   45.8240 C   0  0  0  0  0  0  0  0  0  0  0  0
   58.1640   32.0040   45.5350 C   0  0  0  0  0  0  0  0  0  0  0  0
   57.1190   31.8510   44.0850 S   0  0  0  0  0  0  0  0  0  0  0  0
   57.3660   30.0480   43.8980 C   0  0  0  0  0  0  0  0  0  0  0  0
   56.4050   29.2520   44.7400 C   0  0  0  0  0  0  0  0  0  0  0  0
   55.1700   29.3250   44.5020 O   0  0  0  0  0  0  0  0  0  0  0  0
   56.8380   28.5520   45.9150 N   0  0  0  0  0  0  0  0  0  0  0  0
   57.9190   27.6100   45.9830 C   0  0  0  0  0  0  0  0  0  0  0  0
   59.2520   28.0490   45.9470 C   0  0  0  0  0  0  0  0  0  0  0  0
   60.3020   27.1300   45.9910 C   0  0  0  0  0  0  0  0  0  0  0  0
   60.0300   25.7610   46.0460 C   0  0  0  0  0  0  0  0  0  0  0  0
   58.7070   25.3100   46.0460 C   0  0  0  0  0  0  0  0  0  0  0  0
   57.6480   26.2290   46.0050 C   0  0  0  0  0  0  0  0  0  0  0  0
   56.2910   25.7420   46.0050 C   0  0  0  0  0  0  0  0  0  0  0  0
   55.2020   25.3520   46.0060 N   0  0  0  0  0  0  0  0  0  0  0  0
   58.2730   30.9630   46.3980 N   0  0  0  0  0  0  0  0  0  0  0  0
   59.0360   31.0420   47.5250 C   0  0  0  0  0  0  0  0  0  0  0  0
   59.0540   30.0590   48.3130 O   0  0  0  0  0  0  0  0  0  0  0  0
   58.8340   34.4500   45.0570 C   0  0  0  0  0  0  0  0  0  0  0  0
   59.6600   35.4160   45.9200 C   0  0  0  0  0  0  0  0  0  0  0  0
   60.1920   34.6200   47.1250 C   0  0  0  0  0  0  0  0  0  0  0  0
   63.1515   34.6395   47.1287 H   0  0  0  0  0  0  0  0  0  0  0  0
   64.1976   34.0563   45.7900 H   0  0  0  0  0  0  0  0  0  0  0  0
   62.4425   33.6742   45.7900 H   0  0  0  0  0  0  0  0  0  0  0  0
   63.1259   31.6880   46.6849 H   0  0  0  0  0  0  0  0  0  0  0  0
   64.7014   32.3917   47.2498 H   0  0  0  0  0  0  0  0  0  0  0  0
   63.4984   34.6603   48.4058 H   0  0  0  0  0  0  0  0  0  0  0  0
   61.7926   34.2157   48.8564 H   0  0  0  0  0  0  0  0  0  0  0  0
   62.4402   33.6905   51.1065 H   0  0  0  0  0  0  0  0  0  0  0  0
   64.1846   33.8549   50.7106 H   0  0  0  0  0  0  0  0  0  0  0  0
   63.1231   35.3040   50.7106 H   0  0  0  0  0  0  0  0  0  0  0  0
   61.9394   30.9258   48.0567 H   0  0  0  0  0  0  0  0  0  0  0  0
   62.2203   31.2202   49.8629 H   0  0  0  0  0  0  0  0  0  0  0  0
   60.0438   31.7482   49.8450 H   0  0  0  0  0  0  0  0  0  0  0  0
   60.7071   33.3445   49.2583 H   0  0  0  0  0  0  0  0  0  0  0  0
   57.2191   29.7780   42.8418 H   0  0  0  0  0  0  0  0  0  0  0  0
   58.3861   29.8103   44.2339 H   0  0  0  0  0  0  0  0  0  0  0  0
   59.4708   29.1252   45.8836 H   0  0  0  0  0  0  0  0  0  0  0  0
   61.3435   27.4839   45.9824 H   0  0  0  0  0  0  0  0  0  0  0  0
   60.8574   25.0375   46.0893 H   0  0  0  0  0  0  0  0  0  0  0  0
   58.4956   24.2310   46.0783 H   0  0  0  0  0  0  0  0  0  0  0  0
   59.2983   34.3140   44.0691 H   0  0  0  0  0  0  0  0  0  0  0  0
   57.8153   34.8186   44.8664 H   0  0  0  0  0  0  0  0  0  0  0  0
   60.5003   35.8178   45.3347 H   0  0  0  0  0  0  0  0  0  0  0  0
   59.0411   36.2609   46.2564 H   0  0  0  0  0  0  0  0  0  0  0  0
   61.2910   34.5761   47.1075 H   0  0  0  0  0  0  0  0  0  0  0  0
   59.9162   35.0802   48.0853 H   0  0  0  0  0  0  0  0  0  0  0  0
  1  2  1  0
  2  3  1  0
  3  4  1  0
  4  5  1  0
  3  6  1  0
  6  7  1  0
  7  8  1  0
  8  9  1  0
  9 10  2  0
 10 11  1  0
 11 12  1  0
 12 13  1  0
 13 14  1  0
 14 15  2  0
 14 16  1  0
 16 17  1  0
 17 18  2  0
 18 19  1  0
 19 20  2  0
 20 21  1  0
 21 22  2  0
 22 23  1  0
 23 24  3  0
 11 25  2  0
 25 26  1  0
 26 27  2  0
 10 28  1  0
 28 29  1  0
 29 30  1  0
 26  8  1  0
 30  9  1  0
 22 17  1  0
  1 31  1  0
  1 32  1  0
  1 33  1  0
  2 34  1  0
  2 35  1  0
  4 36  1  0
  4 37  1  0
  5 38  1  0
  5 39  1  0
  5 40  1  0
  6 41  1  0
  6 42  1  0
  7 43  1  0
  7 44  1  0
 13 45  1  0
 13 46  1  0
 18 47  1  0
 19 48  1  0
 20 49  1  0
 21 50  1  0
 28 51  1  0
 28 52  1  0
 29 53  1  0
 29 54  1  0
 30 55  1  0
 30 56  1  0
M  CHG  1  16  -1
M  END
>  <UniqueID>  (21) 
18

>  <SMILES>  (21) 
CCN(CC)CCn1c2c(c(SCC(=O)[N-]c3ccccc3C#N)nc1=O)CCC2

>  <Energy>  (21) 
72.06688885220365

>  <Genealogy>  (21) 
CCN(CC)CCn1c2c(c(SCC(=O)[N-]c3ccccc3C#N)nc1=O)CCC2 (protonated)
CCN(CC)CCn1c2c(c(SCC(=O)[N-]c3ccccc3C#N)nc1=O)CCC2 (3D coordinates assigned)
CCN(CC)CCn1c2c(c(SCC(=O)[N-]c3ccccc3C#N)nc1=O)CCC2 (nonaromatic ring conformer: 72.06688885220365 kcal/mol)

>  <smiles>  (21) 
CCN(CC)CCn1c2c(c(SCC(=O)Nc3ccccc3C#N)nc1=O)CCC2

>  <score_type>  (21) 
oracle

>  <origin>  (21) 
adg

>  <m_score__min__energy>  (21) 
-10.720000000000001

>  <m_primary>  (21) 
energy

$$$$
21:0
     RDKit          3D

 45 48  0  0  0  0  0  0  0  0999 V2000
   56.7562   21.3487   42.2378 H   0  0  0  0  0  0  0  0  0  0  0  0
   56.6300   21.9740   43.1340 C   0  0  0  0  0  0  0  0  0  0  0  0
   55.5180   22.5800   43.4830 O   0  0  0  0  0  0  0  0  0  0  0  0
   55.7330   23.2350   44.6000 C   0  0  0  0  0  0  0  0  0  0  0  0
   54.6880   24.0320   45.3160 C   0  0  0  0  0  0  0  0  0  0  0  0
   53.9764   23.3459   45.7985 H   0  0  0  0  0  0  0  0  0  0  0  0
   54.1647   24.6693   44.5880 H   0  0  0  0  0  0  0  0  0  0  0  0
   55.3030   24.8820   46.3340 N   0  0  0  0  0  0  0  0  0  0  0  0
   56.0570   25.9120   46.0840 C   0  0  0  0  0  0  0  0  0  0  0  0
   55.5210   27.0790   45.6320 N   0  0  0  0  0  0  0  0  0  0  0  0
   56.3180   28.1440   45.3640 C   0  0  0  0  0  0  0  0  0  0  0  0
   55.7770   29.2530   44.9500 N   0  0  0  0  0  0  0  0  0  0  0  0
   56.4290   30.3080   44.2210 C   0  0  0  0  0  0  0  0  0  0  0  0
   56.4520   30.2440   42.8220 C   0  0  0  0  0  0  0  0  0  0  0  0
   55.9626   29.4049   42.3059 H   0  0  0  0  0  0  0  0  0  0  0  0
   57.0920   31.2380   42.0770 C   0  0  0  0  0  0  0  0  0  0  0  0
   57.0922   31.1863   40.9782 H   0  0  0  0  0  0  0  0  0  0  0  0
   57.7320   32.2980   42.7260 C   0  0  0  0  0  0  0  0  0  0  0  0
   58.2251   33.0860   42.1379 H   0  0  0  0  0  0  0  0  0  0  0  0
   57.7450   32.3560   44.1230 C   0  0  0  0  0  0  0  0  0  0  0  0
   58.5710   33.6700   44.9400 Cl  0  0  0  0  0  0  0  0  0  0  0  0
   57.1060   31.3590   44.8710 C   0  0  0  0  0  0  0  0  0  0  0  0
   57.1328   31.3966   45.9700 H   0  0  0  0  0  0  0  0  0  0  0  0
   57.6570   28.0440   45.5720 N   0  0  0  0  0  0  0  0  0  0  0  0
   58.2010   26.8840   46.0230 C   0  0  0  0  0  0  0  0  0  0  0  0
   59.4810   26.7760   46.2120 N   0  0  0  0  0  0  0  0  0  0  0  0
   60.1770   27.3040   47.3820 C   0  0  0  0  0  0  0  0  0  0  0  0
   59.8075   26.8001   48.2873 H   0  0  0  0  0  0  0  0  0  0  0  0
   61.2574   27.1248   47.2791 H   0  0  0  0  0  0  0  0  0  0  0  0
   59.9210   28.7800   47.4900 C   0  0  0  0  0  0  0  0  0  0  0  0
   59.1690   29.2920   48.5600 C   0  0  0  0  0  0  0  0  0  0  0  0
   58.7880   28.6128   49.3368 H   0  0  0  0  0  0  0  0  0  0  0  0
   58.9030   30.6630   48.6410 C   0  0  0  0  0  0  0  0  0  0  0  0
   58.3211   31.0611   49.4854 H   0  0  0  0  0  0  0  0  0  0  0  0
   59.3760   31.5270   47.6500 C   0  0  0  0  0  0  0  0  0  0  0  0
   59.1686   32.6052   47.7164 H   0  0  0  0  0  0  0  0  0  0  0  0
   60.1120   31.0230   46.5750 C   0  0  0  0  0  0  0  0  0  0  0  0
   60.4806   31.7045   45.7942 H   0  0  0  0  0  0  0  0  0  0  0  0
   60.3810   29.6530   46.4900 C   0  0  0  0  0  0  0  0  0  0  0  0
   60.9541   29.2582   45.6381 H   0  0  0  0  0  0  0  0  0  0  0  0
   57.3970   25.8210   46.2770 N   0  0  0  0  0  0  0  0  0  0  0  0
   57.0390   23.0560   45.0120 C   0  0  0  0  0  0  0  0  0  0  0  0
   57.5173   23.4758   45.9092 H   0  0  0  0  0  0  0  0  0  0  0  0
   57.6170   22.2410   44.0630 C   0  0  0  0  0  0  0  0  0  0  0  0
   58.6548   21.8766   44.0482 H   0  0  0  0  0  0  0  0  0  0  0  0
  1  2  1  0
  2  3  1  0
  3  4  1  0
  4  5  1  0
  5  6  1  0
  5  7  1  0
  5  8  1  0
  8  9  2  0
  9 10  1  0
 10 11  1  0
 11 12  2  3
 12 13  1  0
 13 14  2  0
 14 15  1  0
 14 16  1  0
 16 17  1  0
 16 18  2  0
 18 19  1  0
 18 20  1  0
 20 21  1  0
 20 22  2  0
 22 23  1  0
 11 24  1  0
 24 25  1  0
 25 26  2  0
 26 27  1  0
 27 28  1  0
 27 29  1  0
 27 30  1  0
 30 31  2  0
 31 32  1  0
 31 33  1  0
 33 34  1  0
 33 35  2  0
 35 36  1  0
 35 37  1  0
 37 38  1  0
 37 39  2  0
 39 40  1  0
 25 41  1  0
  4 42  2  0
 42 43  1  0
 42 44  1  0
 44 45  1  0
 44  2  2  0
 41  9  1  0
 22 13  1  0
 39 30  1  0
M  CHG  3  10  -1  24  -1  41  -1
M  END
>  <UniqueID>  (22) 
19

>  <SMILES>  (22) 
Clc1cccc(N=c2[n-]/c(=N\Cc3ccccc3)[n-]/c(=N/Cc3ccco3)[n-]2)c1

>  <Energy>  (22) 
78.47188571397277

>  <Genealogy>  (22) 
Clc1cccc(N=c2[n-]c(=NCc3ccccc3)[n-]c(=NCc3ccco3)[n-]2)c1 (protonated)
Clc1cccc(N=c2[n-]/c(=N\Cc3ccccc3)[n-]/c(=N/Cc3ccco3)[n-]2)c1 (cis-trans isomerization)
Clc1cccc(N=c2[n-]/c(=N\Cc3ccccc3)[n-]/c(=N/Cc3ccco3)[n-]2)c1 (3D coordinates assigned)
Clc1cccc(N=c2[n-]/c(=N\Cc3ccccc3)[n-]/c(=N/Cc3ccco3)[n-]2)c1 (optimized conformer: 78.47188571397277 kcal/mol)

>  <smiles>  (22) 
Clc1cccc(N=c2[nH]c(=NCc3ccccc3)[nH]c(=NCc3ccco3)[nH]2)c1

>  <score_type>  (22) 
oracle

>  <origin>  (22) 
adg

>  <m_score__min__energy>  (22) 
-13.91

>  <m_primary>  (22) 
energy

$$$$
22:0
     RDKit          3D

 34 36  0  0  0  0  0  0  0  0999 V2000
   58.8310   20.1910   45.6870 H   0  0  0  0  0  0  0  0  0  0  0  0
   58.4600   20.8660   46.3450 O   0  0  0  0  0  0  0  0  0  0  0  0
   57.8170   22.0130   45.8980 C   0  0  0  0  0  0  0  0  0  0  0  0
   57.3800   22.9750   46.7560 N   0  0  0  0  0  0  0  0  0  0  0  0
   56.7870   23.9900   46.0870 C   0  0  0  0  0  0  0  0  0  0  0  0
   56.2770   25.0430   46.6530 N   0  0  0  0  0  0  0  0  0  0  0  0
   55.5350   26.0830   45.9960 C   0  0  0  0  0  0  0  0  0  0  0  0
   54.3070   25.9430   45.7490 O   0  0  0  0  0  0  0  0  0  0  0  0
   56.1680   27.3220   45.6670 N   0  0  0  0  0  0  0  0  0  0  0  0
   57.5710   27.6020   45.7910 C   0  0  0  0  0  0  0  0  0  0  0  0
   58.4980   26.5660   46.0000 C   0  0  0  0  0  0  0  0  0  0  0  0
   58.1429   25.5349   46.1438 H   0  0  0  0  0  0  0  0  0  0  0  0
   59.8670   26.8390   46.0260 C   0  0  0  0  0  0  0  0  0  0  0  0
   60.5853   26.0263   46.2092 H   0  0  0  0  0  0  0  0  0  0  0  0
   60.3260   28.1410   45.8200 C   0  0  0  0  0  0  0  0  0  0  0  0
   61.4053   28.3526   45.8359 H   0  0  0  0  0  0  0  0  0  0  0  0
   59.4160   29.1740   45.5940 C   0  0  0  0  0  0  0  0  0  0  0  0
   59.7828   30.1952   45.4137 H   0  0  0  0  0  0  0  0  0  0  0  0
   58.0390   28.9200   45.5950 C   0  0  0  0  0  0  0  0  0  0  0  0
   57.1620   29.9910   45.3710 O   0  0  0  0  0  0  0  0  0  0  0  0
   57.5580   31.3200   45.1530 C   0  0  0  0  0  0  0  0  0  0  0  0
   57.7480   31.7580   43.8350 C   0  0  0  0  0  0  0  0  0  0  0  0
   57.5844   31.0623   42.9988 H   0  0  0  0  0  0  0  0  0  0  0  0
   58.1440   33.0730   43.5770 C   0  0  0  0  0  0  0  0  0  0  0  0
   58.2843   33.4112   42.5397 H   0  0  0  0  0  0  0  0  0  0  0  0
   58.3620   33.9590   44.6360 C   0  0  0  0  0  0  0  0  0  0  0  0
   58.6682   34.9956   44.4317 H   0  0  0  0  0  0  0  0  0  0  0  0
   58.1910   33.5280   45.9540 C   0  0  0  0  0  0  0  0  0  0  0  0
   58.3665   34.2246   46.7871 H   0  0  0  0  0  0  0  0  0  0  0  0
   57.7970   32.2120   46.2150 C   0  0  0  0  0  0  0  0  0  0  0  0
   57.6734   31.8727   47.2541 H   0  0  0  0  0  0  0  0  0  0  0  0
   56.7850   23.7360   44.4280 S   0  0  0  0  0  0  0  0  0  0  0  0
   57.5780   22.2560   44.5500 C   0  0  0  0  0  0  0  0  0  0  0  0
   57.8571   21.5989   43.7132 H   0  0  0  0  0  0  0  0  0  0  0  0
  1  2  1  0
  2  3  1  0
  3  4  1  0
  4  5  1  0
  5  6  2  0
  6  7  1  0
  7  8  2  0
  7  9  1  0
  9 10  1  0
 10 11  2  0
 11 12  1  0
 11 13  1  0
 13 14  1  0
 13 15  2  0
 15 16  1  0
 15 17  1  0
 17 18  1  0
 17 19  2  0
 19 20  1  0
 20 21  1  0
 21 22  2  0
 22 23  1  0
 22 24  1  0
 24 25  1  0
 24 26  2  0
 26 27  1  0
 26 28  1  0
 28 29  1  0
 28 30  2  0
 30 31  1  0
  5 32  1  0
 32 33  1  0
 33 34  1  0
 33  3  2  0
 19 10  1  0
 30 21  1  0
M  CHG  2   4  -1   9  -1
M  END
>  <UniqueID>  (23) 
20

>  <SMILES>  (23) 
O=C(/N=c1\[n-]c(O)cs1)[N-]c1ccccc1Oc1ccccc1

>  <Energy>  (23) 
78.6662735448438

>  <Genealogy>  (23) 
O=C(N=c1[n-]c(O)cs1)[N-]c1ccccc1Oc1ccccc1 (protonated)
O=C(/N=c1\[n-]c(O)cs1)[N-]c1ccccc1Oc1ccccc1 (cis-trans isomerization)
O=C(/N=c1\[n-]c(O)cs1)[N-]c1ccccc1Oc1ccccc1 (3D coordinates assigned)
O=C(/N=c1\[n-]c(O)cs1)[N-]c1ccccc1Oc1ccccc1 (optimized conformer: 78.6662735448438 kcal/mol)

>  <smiles>  (23) 
O=C(N=c1[nH]c(O)cs1)Nc1ccccc1Oc1ccccc1

>  <score_type>  (23) 
oracle

>  <origin>  (23) 
adg

>  <m_score__min__energy>  (23) 
-10.69

>  <m_primary>  (23) 
energy

$$$$
23:0
     RDKit          3D

 23 24  0  0  0  0  0  0  0  0999 V2000
   56.1990   30.6350   44.2730 O   0  0  0  0  0  0  0  0  0  0  0  0
   56.5330   29.5160   44.7420 C   0  0  0  0  0  0  0  0  0  0  0  0
   55.5800   28.6250   45.1150 N   0  0  0  0  0  0  0  0  0  0  0  0
   55.9130   27.4120   45.6250 C   0  0  0  0  0  0  0  0  0  0  0  0
   54.9030   26.5320   45.9920 O   0  0  0  0  0  0  0  0  0  0  0  0
   57.2660   27.0580   45.7720 C   0  0  0  0  0  0  0  0  0  0  0  0
   57.6580   25.7220   46.3680 C   0  0  0  0  0  0  0  0  0  0  0  0
   57.1820   24.5840   45.4970 C   0  0  0  0  0  0  0  0  0  0  0  0
   56.8510   24.8320   44.1530 C   0  0  0  0  0  0  0  0  0  0  0  0
   56.4270   23.7910   43.3230 C   0  0  0  0  0  0  0  0  0  0  0  0
   56.3290   22.4900   43.8240 C   0  0  0  0  0  0  0  0  0  0  0  0
   55.9090   21.4570   42.9970 O   0  0  0  0  0  0  0  0  0  0  0  0
   56.6530   22.2310   45.1580 C   0  0  0  0  0  0  0  0  0  0  0  0
   57.0770   23.2680   45.9970 C   0  0  0  0  0  0  0  0  0  0  0  0
   57.3840   22.9800   47.3230 O   0  0  0  0  0  0  0  0  0  0  0  0
   58.2350   28.0030   45.3800 C   0  0  0  0  0  0  0  0  0  0  0  0
   59.4640   27.7510   45.4870 O   0  0  0  0  0  0  0  0  0  0  0  0
   57.8460   29.2030   44.8760 N   0  0  0  0  0  0  0  0  0  0  0  0
   58.7534   25.6743   46.4563 H   0  0  0  0  0  0  0  0  0  0  0  0
   57.1887   25.6272   47.3583 H   0  0  0  0  0  0  0  0  0  0  0  0
   56.9265   25.8535   43.7519 H   0  0  0  0  0  0  0  0  0  0  0  0
   56.1699   23.9958   42.2733 H   0  0  0  0  0  0  0  0  0  0  0  0
   56.5745   21.2066   45.5511 H   0  0  0  0  0  0  0  0  0  0  0  0
  1  2  2  0
  2  3  1  0
  3  4  1  0
  4  5  1  0
  4  6  2  0
  6  7  1  0
  7  8  1  0
  8  9  2  0
  9 10  1  0
 10 11  2  0
 11 12  1  0
 11 13  1  0
 13 14  2  0
 14 15  1  0
  6 16  1  0
 16 17  2  0
 16 18  1  0
 18  2  1  0
 14  8  1  0
  7 19  1  0
  7 20  1  0
  9 21  1  0
 10 22  1  0
 13 23  1  0
M  CHG  5   3  -1   5  -1  12  -1  15  -1  18  -1
M  END
>  <UniqueID>  (24) 
21

>  <SMILES>  (24) 
O=c1[n-]c([O-])c(Cc2ccc([O-])cc2[O-])c(=O)[n-]1

>  <Energy>  (24) 
27.1965437840662

>  <Genealogy>  (24) 
O=c1[n-]c([O-])c(Cc2ccc([O-])cc2[O-])c(=O)[n-]1 (protonated)
O=c1[n-]c([O-])c(Cc2ccc([O-])cc2[O-])c(=O)[n-]1 (3D coordinates assigned)
O=c1[n-]c([O-])c(Cc2ccc([O-])cc2[O-])c(=O)[n-]1 (optimized conformer: 27.1965437840662 kcal/mol)

>  <smiles>  (24) 
O=c1[nH]c(O)c(Cc2ccc(O)cc2O)c(=O)[nH]1

>  <score_type>  (24) 
oracle

>  <origin>  (24) 
adg

>  <m_score__min__energy>  (24) 
-16.800000000000001

>  <m_primary>  (24) 
energy

$$$$
24:0
     RDKit          3D

 21 22  0  0  0  0  0  0  0  0999 V2000
   56.9920   20.7270   42.7250 C   0  0  0  0  0  0  0  0  0  0  0  0
   55.9550   21.6140   43.1290 O   0  0  0  0  0  0  0  0  0  0  0  0
   56.1890   22.7350   43.9320 C   0  0  0  0  0  0  0  0  0  0  0  0
   57.5140   23.0530   44.2980 C   0  0  0  0  0  0  0  0  0  0  0  0
   57.7520   24.1830   45.1080 C   0  0  0  0  0  0  0  0  0  0  0  0
   59.0390   24.5660   45.5150 O   0  0  0  0  0  0  0  0  0  0  0  0
   60.1430   23.6760   45.6210 C   0  0  0  0  0  0  0  0  0  0  0  0
   56.6680   24.9080   45.4920 N   0  0  0  0  0  0  0  0  0  0  0  0
   56.4990   26.0160   46.2410 C   0  0  0  0  0  0  0  0  0  0  0  0
   57.6960   26.8670   46.9640 S   0  0  0  0  0  0  0  0  0  0  0  0
   55.1920   26.3480   46.3280 N   0  0  0  0  0  0  0  0  0  0  0  0
   54.5060   25.4480   45.6280 N   0  0  0  0  0  0  0  0  0  0  0  0
   55.4180   24.5920   45.1360 C   0  0  0  0  0  0  0  0  0  0  0  0
   55.1510   23.5150   44.3600 N   0  0  0  0  0  0  0  0  0  0  0  0
   57.4829   20.3071   43.6153 H   0  0  0  0  0  0  0  0  0  0  0  0
   56.5635   19.9116   42.1237 H   0  0  0  0  0  0  0  0  0  0  0  0
   57.7311   21.2767   42.1237 H   0  0  0  0  0  0  0  0  0  0  0  0
   58.3514   22.4272   43.9558 H   0  0  0  0  0  0  0  0  0  0  0  0
   60.3675   23.4950   46.6825 H   0  0  0  0  0  0  0  0  0  0  0  0
   59.8941   22.7230   45.1312 H   0  0  0  0  0  0  0  0  0  0  0  0
   61.0214   24.1215   45.1312 H   0  0  0  0  0  0  0  0  0  0  0  0
  1  2  1  0
  2  3  1  0
  3  4  1  0
  4  5  2  0
  5  6  1  0
  6  7  1  0
  5  8  1  0
  8  9  1  0
  9 10  2  0
  9 11  1  0
 11 12  1  0
 12 13  2  0
 13 14  1  0
 14  3  2  0
 13  8  1  0
  1 15  1  0
  1 16  1  0
  1 17  1  0
  4 18  1  0
  7 19  1  0
  7 20  1  0
  7 21  1  0
M  CHG  1  11  -1
M  END
>  <UniqueID>  (25) 
22

>  <SMILES>  (25) 
COc1cc(OC)n2c(=S)[n-]nc2n1

>  <Energy>  (25) 
62.88128249707311

>  <Genealogy>  (25) 
COc1cc(OC)n2c(=S)[n-]nc2n1 (protonated)
COc1cc(OC)n2c(=S)[n-]nc2n1 (3D coordinates assigned)
COc1cc(OC)n2c(=S)[n-]nc2n1 (optimized conformer: 62.88128249707311 kcal/mol)

>  <smiles>  (25) 
COc1cc(OC)n2c(=S)[nH]nc2n1

>  <score_type>  (25) 
oracle

>  <origin>  (25) 
adg

>  <m_score__min__energy>  (25) 
-6.3200000000000003

>  <m_primary>  (25) 
energy

$$$$
25:0
     RDKit          3D

 55 57  0  0  0  0  0  0  0  0999 V2000
   63.9650   33.4203   48.0724 H   0  0  0  0  0  0  0  0  0  0  0  0
   64.2450   32.9410   49.0220 C   0  0  0  0  0  0  0  0  0  0  0  0
   65.2720   33.4420   49.7600 N   0  0  0  0  0  0  0  0  0  0  0  0
   65.6630   32.8750   50.9360 C   0  0  0  0  0  0  0  0  0  0  0  0
   66.7810   33.4750   51.6900 C   0  0  0  0  0  0  0  0  0  0  0  0
   67.8020   32.7780   51.9340 O   0  0  0  0  0  0  0  0  0  0  0  0
   66.7270   34.8360   52.1520 N   0  0  0  0  0  0  0  0  0  0  0  0
   65.6530   35.2570   53.0620 C   0  0  0  0  0  0  0  0  0  0  0  0
   66.0911   35.5579   54.0251 H   0  0  0  0  0  0  0  0  0  0  0  0
   64.9593   34.4160   53.2087 H   0  0  0  0  0  0  0  0  0  0  0  0
   64.8860   36.4330   52.4700 C   0  0  0  0  0  0  0  0  0  0  0  0
   64.4813   37.0535   53.2832 H   0  0  0  0  0  0  0  0  0  0  0  0
   65.5638   37.0379   51.8497 H   0  0  0  0  0  0  0  0  0  0  0  0
   64.0592   36.0566   51.8497 H   0  0  0  0  0  0  0  0  0  0  0  0
   67.8610   35.7310   51.8900 C   0  0  0  0  0  0  0  0  0  0  0  0
   67.4834   36.7381   51.6593 H   0  0  0  0  0  0  0  0  0  0  0  0
   68.5040   35.7663   52.7818 H   0  0  0  0  0  0  0  0  0  0  0  0
   68.6760   35.2160   50.7090 C   0  0  0  0  0  0  0  0  0  0  0  0
   69.5512   34.6630   51.0808 H   0  0  0  0  0  0  0  0  0  0  0  0
   68.0527   34.5475   50.0970 H   0  0  0  0  0  0  0  0  0  0  0  0
   69.0122   36.0660   50.0970 H   0  0  0  0  0  0  0  0  0  0  0  0
   64.9700   31.7550   51.4240 C   0  0  0  0  0  0  0  0  0  0  0  0
   65.2598   31.2979   52.3816 H   0  0  0  0  0  0  0  0  0  0  0  0
   63.9100   31.2260   50.6840 C   0  0  0  0  0  0  0  0  0  0  0  0
   63.3635   30.3466   51.0554 H   0  0  0  0  0  0  0  0  0  0  0  0
   63.5450   31.8160   49.4710 C   0  0  0  0  0  0  0  0  0  0  0  0
   62.4510   31.2840   48.7020 C   0  0  0  0  0  0  0  0  0  0  0  0
   61.5360   30.8380   48.0570 C   0  0  0  0  0  0  0  0  0  0  0  0
   60.4410   30.3070   47.2880 C   0  0  0  0  0  0  0  0  0  0  0  0
   59.9360   29.0340   47.5750 C   0  0  0  0  0  0  0  0  0  0  0  0
   60.3734   28.4408   48.3916 H   0  0  0  0  0  0  0  0  0  0  0  0
   58.8760   28.5150   46.8250 C   0  0  0  0  0  0  0  0  0  0  0  0
   58.4882   27.5109   47.0515 H   0  0  0  0  0  0  0  0  0  0  0  0
   58.3010   29.2660   45.7830 C   0  0  0  0  0  0  0  0  0  0  0  0
   57.1760   28.7170   44.9890 C   0  0  0  0  0  0  0  0  0  0  0  0
   57.0760   29.0070   43.7630 O   0  0  0  0  0  0  0  0  0  0  0  0
   56.2060   27.8620   45.6200 N   0  0  0  0  0  0  0  0  0  0  0  0
   56.2520   26.5660   45.7310 C   0  0  0  0  0  0  0  0  0  0  0  0
   55.1310   25.8340   45.9890 N   0  0  0  0  0  0  0  0  0  0  0  0
   55.1670   24.4810   46.1110 C   0  0  0  0  0  0  0  0  0  0  0  0
   54.2416   23.9236   46.3180 H   0  0  0  0  0  0  0  0  0  0  0  0
   56.3770   23.7970   45.9740 C   0  0  0  0  0  0  0  0  0  0  0  0
   56.4097   22.7021   46.0741 H   0  0  0  0  0  0  0  0  0  0  0  0
   57.5530   24.5200   45.7070 C   0  0  0  0  0  0  0  0  0  0  0  0
   58.8020   23.8980   45.5590 O   0  0  0  0  0  0  0  0  0  0  0  0
   59.0060   22.6550   44.8960 C   0  0  0  0  0  0  0  0  0  0  0  0
   59.1368   21.8582   45.6430 H   0  0  0  0  0  0  0  0  0  0  0  0
   58.1331   22.4277   44.2664 H   0  0  0  0  0  0  0  0  0  0  0  0
   59.9057   22.7186   44.2664 H   0  0  0  0  0  0  0  0  0  0  0  0
   57.4820   25.9110   45.5830 C   0  0  0  0  0  0  0  0  0  0  0  0
   58.3918   26.4912   45.3692 H   0  0  0  0  0  0  0  0  0  0  0  0
   58.8140   30.5470   45.5070 C   0  0  0  0  0  0  0  0  0  0  0  0
   58.3733   31.1483   44.6982 H   0  0  0  0  0  0  0  0  0  0  0  0
   59.8790   31.0620   46.2520 C   0  0  0  0  0  0  0  0  0  0  0  0
   60.2759   32.0621   46.0236 H   0  0  0  0  0  0  0  0  0  0  0  0
  1  2  1  0
  2  3  2  0
  3  4  1  0
  4  5  1  0
  5  6  2  0
  5  7  1  0
  7  8  1  0
  8  9  1  0
  8 10  1  0
  8 11  1  0
 11 12  1  0
 11 13  1  0
 11 14  1  0
  7 15  1  0
 15 16  1  0
 15 17  1  0
 15 18  1  0
 18 19  1  0
 18 20  1  0
 18 21  1  0
  4 22  2  0
 22 23  1  0
 22 24  1  0
 24 25  1  0
 24 26  2  0
 26 27  1  0
 27 28  3  0
 28 29  1  0
 29 30  2  0
 30 31  1  0
 30 32  1  0
 32 33  1  0
 32 34  2  0
 34 35  1  0
 35 36  2  0
 35 37  1  0
 37 38  2  0
 38 39  1  0
 39 40  1  0
 40 41  1  0
 40 42  2  0
 42 43  1  0
 42 44  1  0
 44 45  1  0
 45 46  1  0
 46 47  1  0
 46 48  1  0
 46 49  1  0
 44 50  2  0
 50 51  1  0
 34 52  1  0
 52 53  1  0
 52 54  2  0
 54 55  1  0
 26  2  1  0
 54 29  1  0
 50 38  1  0
M  CHG  1  39  -1
M  END
>  <UniqueID>  (26) 
23

>  <SMILES>  (26) 
CCN(CC)C(=O)c1ccc(C#Cc2ccc(C(=O)/N=c3/cc(OC)cc[n-]3)cc2)cn1

>  <Energy>  (26) 
55.1421661319226

>  <Genealogy>  (26) 
CCN(CC)C(=O)c1ccc(C#Cc2ccc(C(=O)N=c3cc(OC)cc[n-]3)cc2)cn1 (protonated)
CCN(CC)C(=O)c1ccc(C#Cc2ccc(C(=O)/N=c3/cc(OC)cc[n-]3)cc2)cn1 (cis-trans isomerization)
CCN(CC)C(=O)c1ccc(C#Cc2ccc(C(=O)/N=c3/cc(OC)cc[n-]3)cc2)cn1 (3D coordinates assigned)
CCN(CC)C(=O)c1ccc(C#Cc2ccc(C(=O)/N=c3/cc(OC)cc[n-]3)cc2)cn1 (optimized conformer: 55.1421661319226 kcal/mol)

>  <smiles>  (26) 
CCN(CC)C(=O)c1ccc(C#Cc2ccc(C(=O)N=c3cc(OC)cc[nH]3)cc2)cn1

>  <score_type>  (26) 
oracle

>  <origin>  (26) 
adg

>  <m_score__min__energy>  (26) 
-8.1999999999999993

>  <m_primary>  (26) 
energy

$$$$
26:0
     RDKit          3D

 31 33  0  0  0  0  0  0  0  0999 V2000
   57.4610   29.3270   54.2370 C   0  0  0  0  0  0  0  0  0  0  0  0
   56.5720   30.4130   53.1410 S   0  0  0  0  0  0  0  0  0  0  0  0
   56.6170   29.8310   51.7570 O   0  0  0  0  0  0  0  0  0  0  0  0
   57.2120   31.7730   53.1170 O   0  0  0  0  0  0  0  0  0  0  0  0
   54.9150   30.5470   53.6400 N   0  0  0  0  0  0  0  0  0  0  0  0
   54.0270   29.4180   53.7740 C   0  0  0  0  0  0  0  0  0  0  0  0
   54.5340   28.1040   53.7730 C   0  0  0  0  0  0  0  0  0  0  0  0
   53.6720   27.0020   53.8930 C   0  0  0  0  0  0  0  0  0  0  0  0
   54.1370   25.6750   53.8900 C   0  0  0  0  0  0  0  0  0  0  0  0
   55.3670   25.4190   53.7790 O   0  0  0  0  0  0  0  0  0  0  0  0
   53.2530   24.6500   54.0090 N   0  0  0  0  0  0  0  0  0  0  0  0
   51.9200   24.8800   54.1300 C   0  0  0  0  0  0  0  0  0  0  0  0
   51.4460   26.1520   54.1380 N   0  0  0  0  0  0  0  0  0  0  0  0
   52.2860   27.2140   54.0230 C   0  0  0  0  0  0  0  0  0  0  0  0
   51.7770   28.5130   54.0370 C   0  0  0  0  0  0  0  0  0  0  0  0
   52.6350   29.6150   53.9280 C   0  0  0  0  0  0  0  0  0  0  0  0
   51.9070   31.2590   53.9530 S   0  0  0  0  0  0  0  0  0  0  0  0
   51.6160   31.2590   52.1850 C   0  0  0  0  0  0  0  0  0  0  0  0
   51.9730   29.9850   51.1440 S   0  0  0  0  0  0  0  0  0  0  0  0
   51.4000   30.8250   49.8020 C   0  0  0  0  0  0  0  0  0  0  0  0
   51.3980   30.3680   48.6300 O   0  0  0  0  0  0  0  0  0  0  0  0
   50.9370   32.0540   50.1140 N   0  0  0  0  0  0  0  0  0  0  0  0
   51.0570   32.2950   51.4460 C   0  0  0  0  0  0  0  0  0  0  0  0
   50.6440   33.4940   52.0130 O   0  0  0  0  0  0  0  0  0  0  0  0
   57.2397   29.5973   55.2801 H   0  0  0  0  0  0  0  0  0  0  0  0
   57.1512   28.2875   54.0540 H   0  0  0  0  0  0  0  0  0  0  0  0
   58.5412   29.4253   54.0540 H   0  0  0  0  0  0  0  0  0  0  0  0
   54.5420   31.5160   53.7290 H   0  0  0  0  0  0  0  0  0  0  0  0
   55.6173   27.9392   53.6771 H   0  0  0  0  0  0  0  0  0  0  0  0
   51.2231   24.0339   54.2217 H   0  0  0  0  0  0  0  0  0  0  0  0
   50.6931   28.6731   54.1344 H   0  0  0  0  0  0  0  0  0  0  0  0
  1  2  1  0
  2  3  2  0
  2  4  2  0
  2  5  1  0
  5  6  1  0
  6  7  2  0
  7  8  1  0
  8  9  1  0
  9 10  2  0
  9 11  1  0
 11 12  2  0
 12 13  1  0
 13 14  1  0
 14 15  1  0
 15 16  2  0
 16 17  1  0
 17 18  1  0
 18 19  1  0
 19 20  1  0
 20 21  2  0
 20 22  1  0
 22 23  1  0
 23 24  1  0
 16  6  1  0
 23 18  2  0
 14  8  2  0
  1 25  1  0
  1 26  1  0
  1 27  1  0
  5 28  1  0
  7 29  1  0
 12 30  1  0
 15 31  1  0
M  CHG  3  13  -1  22  -1  24  -1
M  END
>  <UniqueID>  (27) 
24

>  <SMILES>  (27) 
CS(=O)(=O)Nc1cc2c(=O)nc[n-]c2cc1Sc1sc(=O)[n-]c1[O-]

>  <Energy>  (27) 
65.98458214961138

>  <Genealogy>  (27) 
CS(=O)(=O)Nc1cc2c(=O)nc[n-]c2cc1Sc1sc(=O)[n-]c1[O-] (protonated)
CS(=O)(=O)Nc1cc2c(=O)nc[n-]c2cc1Sc1sc(=O)[n-]c1[O-] (3D coordinates assigned)
CS(=O)(=O)Nc1cc2c(=O)nc[n-]c2cc1Sc1sc(=O)[n-]c1[O-] (optimized conformer: 65.98458214961138 kcal/mol)

>  <smiles>  (27) 
CS(=O)(=O)Nc1cc2c(=O)nc[nH]c2cc1Sc1sc(=O)[nH]c1O

>  <score_type>  (27) 
oracle

>  <origin>  (27) 
adg

>  <m_score__min__energy>  (27) 
-15

>  <m_primary>  (27) 
energy

$$$$
27:0
     RDKit          3D

 63 66  0  0  0  0  0  0  0  0999 V2000
   55.9850   30.5890   52.2420 C   0  0  0  0  0  0  0  0  0  0  0  0
   56.9940   31.6380   51.9080 C   0  0  0  0  0  0  0  0  0  0  0  0
   56.8400   32.8110   52.3480 O   0  0  0  0  0  0  0  0  0  0  0  0
   58.1020   31.3160   51.0550 N   0  0  0  0  0  0  0  0  0  0  0  0
   59.2320   32.1780   50.8380 C   0  0  0  0  0  0  0  0  0  0  0  0
   60.3170   32.1270   51.7260 C   0  0  0  0  0  0  0  0  0  0  0  0
   61.4250   32.9540   51.5370 C   0  0  0  0  0  0  0  0  0  0  0  0
   61.4500   33.8610   50.4750 C   0  0  0  0  0  0  0  0  0  0  0  0
   60.3560   33.9650   49.6100 C   0  0  0  0  0  0  0  0  0  0  0  0
   60.4150   34.9010   48.5250 N   0  0  0  0  0  0  0  0  0  0  0  0
   60.7330   34.5960   47.1600 C   0  0  0  0  0  0  0  0  0  0  0  0
   61.8920   34.1860   46.8840 O   0  0  0  0  0  0  0  0  0  0  0  0
   59.7370   34.7970   46.0490 C   0  0  0  0  0  0  0  0  0  0  0  0
   58.9600   33.5320   45.7960 C   0  0  0  0  0  0  0  0  0  0  0  0
   58.3880   33.2960   44.5360 C   0  0  0  0  0  0  0  0  0  0  0  0
   57.6830   32.1140   44.2910 C   0  0  0  0  0  0  0  0  0  0  0  0
   57.5600   31.1410   45.2920 C   0  0  0  0  0  0  0  0  0  0  0  0
   56.7980   29.9580   45.0190 N   0  0  0  0  0  0  0  0  0  0  0  0
   56.9800   29.0600   43.9150 C   0  0  0  0  0  0  0  0  0  0  0  0
   56.4630   29.3630   42.8070 O   0  0  0  0  0  0  0  0  0  0  0  0
   57.8490   27.8220   44.0270 C   0  0  0  0  0  0  0  0  0  0  0  0
   57.3990   26.9340   45.2030 C   0  0  0  0  0  0  0  0  0  0  0  0
   57.7890   27.5040   46.5870 C   0  0  0  0  0  0  0  0  0  0  0  0
   58.8580   28.5190   46.5070 N   0  0  0  0  0  0  0  0  0  0  0  0
   59.5500   28.7950   48.0870 S   0  0  0  0  0  0  0  0  0  0  0  0
   60.0620   27.4990   48.6510 O   0  0  0  0  0  0  0  0  0  0  0  0
   58.4850   29.3230   49.0070 O   0  0  0  0  0  0  0  0  0  0  0  0
   60.8680   29.9550   48.0180 C   0  0  0  0  0  0  0  0  0  0  0  0
   61.3470   30.5740   46.8730 C   0  0  0  0  0  0  0  0  0  0  0  0
   62.4070   31.4520   47.1300 C   0  0  0  0  0  0  0  0  0  0  0  0
   62.7620   31.5190   48.4720 C   0  0  0  0  0  0  0  0  0  0  0  0
   61.7570   30.4880   49.3410 S   0  0  0  0  0  0  0  0  0  0  0  0
   59.9030   28.1180   45.5560 C   0  0  0  0  0  0  0  0  0  0  0  0
   59.3550   28.1810   44.1200 C   0  0  0  0  0  0  0  0  0  0  0  0
   58.1140   31.3860   46.5600 C   0  0  0  0  0  0  0  0  0  0  0  0
   58.8220   32.5660   46.8050 C   0  0  0  0  0  0  0  0  0  0  0  0
   59.2530   33.1090   49.7820 C   0  0  0  0  0  0  0  0  0  0  0  0
   55.8981   30.4986   53.3348 H   0  0  0  0  0  0  0  0  0  0  0  0
   55.0095   30.8705   51.8186 H   0  0  0  0  0  0  0  0  0  0  0  0
   56.3042   29.6252   51.8186 H   0  0  0  0  0  0  0  0  0  0  0  0
   58.0420   30.4370   50.4940 H   0  0  0  0  0  0  0  0  0  0  0  0
   60.2941   31.4304   52.5770 H   0  0  0  0  0  0  0  0  0  0  0  0
   62.2804   32.8915   52.2257 H   0  0  0  0  0  0  0  0  0  0  0  0
   62.3342   34.4963   50.3183 H   0  0  0  0  0  0  0  0  0  0  0  0
   59.0391   35.5994   46.3304 H   0  0  0  0  0  0  0  0  0  0  0  0
   60.2801   35.0682   45.1317 H   0  0  0  0  0  0  0  0  0  0  0  0
   58.4951   34.0449   43.7374 H   0  0  0  0  0  0  0  0  0  0  0  0
   57.2219   31.9466   43.3064 H   0  0  0  0  0  0  0  0  0  0  0  0
   57.7183   27.2404   43.1025 H   0  0  0  0  0  0  0  0  0  0  0  0
   56.3045   26.8317   45.1638 H   0  0  0  0  0  0  0  0  0  0  0  0
   57.9110   25.9666   45.0941 H   0  0  0  0  0  0  0  0  0  0  0  0
   56.8994   27.9655   47.0404 H   0  0  0  0  0  0  0  0  0  0  0  0
   58.1697   26.6692   47.1937 H   0  0  0  0  0  0  0  0  0  0  0  0
   60.9371   30.3940   45.8682 H   0  0  0  0  0  0  0  0  0  0  0  0
   62.9110   32.0337   46.3441 H   0  0  0  0  0  0  0  0  0  0  0  0
   63.5647   32.1413   48.8944 H   0  0  0  0  0  0  0  0  0  0  0  0
   60.7618   28.7990   45.6490 H   0  0  0  0  0  0  0  0  0  0  0  0
   60.2197   27.0883   45.7783 H   0  0  0  0  0  0  0  0  0  0  0  0
   59.4958   29.2022   43.7361 H   0  0  0  0  0  0  0  0  0  0  0  0
   59.9066   27.4377   43.5256 H   0  0  0  0  0  0  0  0  0  0  0  0
   57.9898   30.6454   47.3638 H   0  0  0  0  0  0  0  0  0  0  0  0
   59.2732   32.7385   47.7933 H   0  0  0  0  0  0  0  0  0  0  0  0
   58.4020   33.1674   49.0875 H   0  0  0  0  0  0  0  0  0  0  0  0
  1  2  1  0
  2  3  2  0
  2  4  1  0
  4  5  1  0
  5  6  2  0
  6  7  1  0
  7  8  2  0
  8  9  1  0
  9 10  1  0
 10 11  1  0
 11 12  2  0
 11 13  1  0
 13 14  1  0
 14 15  2  0
 15 16  1  0
 16 17  2  0
 17 18  1  0
 18 19  1  0
 19 20  2  0
 19 21  1  0
 21 22  1  0
 22 23  1  0
 23 24  1  0
 24 25  1  0
 25 26  2  0
 25 27  2  0
 25 28  1  0
 28 29  2  0
 29 30  1  0
 30 31  2  0
 31 32  1  0
 24 33  1  0
 33 34  1  0
 17 35  1  0
 35 36  2  0
  9 37  2  0
 37  5  1  0
 36 14  1  0
 34 21  1  0
 32 28  1  0
  1 38  1  0
  1 39  1  0
  1 40  1  0
  4 41  1  0
  6 42  1  0
  7 43  1  0
  8 44  1  0
 13 45  1  0
 13 46  1  0
 15 47  1  0
 16 48  1  0
 21 49  1  0
 22 50  1  0
 22 51  1  0
 23 52  1  0
 23 53  1  0
 29 54  1  0
 30 55  1  0
 31 56  1  0
 33 57  1  0
 33 58  1  0
 34 59  1  0
 34 60  1  0
 35 61  1  0
 36 62  1  0
 37 63  1  0
M  CHG  2  10  -1  18  -1
M  END
>  <UniqueID>  (28) 
25

>  <SMILES>  (28) 
CC(=O)Nc1cccc([N-]C(=O)Cc2ccc([N-]C(=O)C3CCN(S(=O)(=O)c4cccs4)CC3)cc2)c1

>  <Energy>  (28) 
107.57964068460616

>  <Genealogy>  (28) 
CC(=O)Nc1cccc([N-]C(=O)Cc2ccc([N-]C(=O)C3CCN(S(=O)(=O)c4cccs4)CC3)cc2)c1 (protonated)
CC(=O)Nc1cccc([N-]C(=O)Cc2ccc([N-]C(=O)C3CCN(S(=O)(=O)c4cccs4)CC3)cc2)c1 (3D coordinates assigned)
CC(=O)Nc1cccc([N-]C(=O)Cc2ccc([N-]C(=O)C3CCN(S(=O)(=O)c4cccs4)CC3)cc2)c1 (nonaromatic ring conformer: 107.57964068460616 kcal/mol)

>  <smiles>  (28) 
CC(=O)Nc1cccc(NC(=O)Cc2ccc(NC(=O)C3CCN(S(=O)(=O)c4cccs4)CC3)cc2)c1

>  <score_type>  (28) 
oracle

>  <origin>  (28) 
adg

>  <m_score__min__energy>  (28) 
-13.01

>  <m_primary>  (28) 
energy

$$$$
28:0
     RDKit          3D

 52 56  0  0  0  0  0  0  0  0999 V2000
   55.3460   29.3150   45.2210 N   0  0  0  0  0  0  0  0  0  0  0  0
   56.5500   29.7470   44.0600 S   0  0  0  0  0  0  0  0  0  0  0  0
   55.9000   30.3990   42.8730 O   0  0  0  0  0  0  0  0  0  0  0  0
   57.2720   28.5080   43.6110 O   0  0  0  0  0  0  0  0  0  0  0  0
   57.6910   30.8620   44.7840 C   0  0  0  0  0  0  0  0  0  0  0  0
   58.7380   30.4640   45.5480 N   0  0  0  0  0  0  0  0  0  0  0  0
   59.4640   31.5340   45.9620 C   0  0  0  0  0  0  0  0  0  0  0  0
   60.6050   31.4540   46.7590 C   0  0  0  0  0  0  0  0  0  0  0  0
   61.2760   32.6420   47.1110 C   0  0  0  0  0  0  0  0  0  0  0  0
   62.7390   32.5520   48.0870 S   0  0  0  0  0  0  0  0  0  0  0  0
   63.7260   31.6080   47.4610 O   0  0  0  0  0  0  0  0  0  0  0  0
   63.3560   33.9180   48.1580 O   0  0  0  0  0  0  0  0  0  0  0  0
   62.3450   32.0160   49.6960 N   0  0  0  0  0  0  0  0  0  0  0  0
   61.9150   33.1390   50.5470 C   0  0  1  0  0  0  0  0  0  0  0  0
   61.0610   34.1630   49.7760 C   0  0  0  0  0  0  0  0  0  0  0  0
   59.6160   33.9220   50.1910 C   0  0  0  0  0  0  0  0  0  0  0  0
   59.6720   33.0580   51.3560 N   0  0  0  0  0  0  0  0  0  0  0  0
   58.5020   32.7190   52.1250 C   0  0  0  0  0  0  0  0  0  0  0  0
   57.7650   33.6380   52.5740 O   0  0  0  0  0  0  0  0  0  0  0  0
   58.1010   31.2920   52.3650 C   0  0  0  0  0  0  0  0  0  0  0  0
   58.6660   30.4180   51.2900 C   0  0  0  0  0  0  0  0  0  0  0  0
   59.7040   29.5670   51.5090 N   0  0  0  0  0  0  0  0  0  0  0  0
   59.8330   28.9590   50.3210 C   0  0  0  0  0  0  0  0  0  0  0  0
   60.7500   27.9730   49.9620 C   0  0  0  0  0  0  0  0  0  0  0  0
   60.6850   27.4690   48.6490 C   0  0  0  0  0  0  0  0  0  0  0  0
   59.7160   27.9570   47.7430 C   0  0  0  0  0  0  0  0  0  0  0  0
   58.8050   28.9520   48.1430 C   0  0  0  0  0  0  0  0  0  0  0  0
   58.9020   29.4300   49.4470 C   0  0  0  0  0  0  0  0  0  0  0  0
   58.1380   30.3590   50.0400 N   0  0  0  0  0  0  0  0  0  0  0  0
   61.0200   32.6170   51.6720 C   0  0  0  0  0  0  0  0  0  0  0  0
   60.7900   33.8900   46.6580 C   0  0  0  0  0  0  0  0  0  0  0  0
   59.6370   33.9570   45.8600 C   0  0  0  0  0  0  0  0  0  0  0  0
   58.9980   32.7650   45.5280 C   0  0  0  0  0  0  0  0  0  0  0  0
   57.6250   32.5420   44.5900 S   0  0  0  0  0  0  0  0  0  0  0  0
   54.4210   29.3760   44.7390 H   0  0  0  0  0  0  0  0  0  0  0  0
   60.9757   30.4788   47.1076 H   0  0  0  0  0  0  0  0  0  0  0  0
   61.5910   31.2930   49.6290 H   0  0  0  0  0  0  0  0  0  0  0  0
   62.8345   33.6149   50.9186 H   0  0  0  0  0  0  0  0  0  0  0  0
   61.3660   35.1867   50.0389 H   0  0  0  0  0  0  0  0  0  0  0  0
   61.1869   34.0476   48.6893 H   0  0  0  0  0  0  0  0  0  0  0  0
   59.1275   34.8744   50.4448 H   0  0  0  0  0  0  0  0  0  0  0  0
   59.0348   33.4635   49.3774 H   0  0  0  0  0  0  0  0  0  0  0  0
   58.4859   30.9641   53.3419 H   0  0  0  0  0  0  0  0  0  0  0  0
   57.0036   31.2169   52.3542 H   0  0  0  0  0  0  0  0  0  0  0  0
   61.4976   27.6019   50.6785 H   0  0  0  0  0  0  0  0  0  0  0  0
   61.3924   26.6909   48.3263 H   0  0  0  0  0  0  0  0  0  0  0  0
   59.6738   27.5566   46.7193 H   0  0  0  0  0  0  0  0  0  0  0  0
   58.0432   29.3385   47.4500 H   0  0  0  0  0  0  0  0  0  0  0  0
   61.3406   33.0332   52.6384 H   0  0  0  0  0  0  0  0  0  0  0  0
   61.0747   31.5213   51.7517 H   0  0  0  0  0  0  0  0  0  0  0  0
   61.3188   34.8146   46.9327 H   0  0  0  0  0  0  0  0  0  0  0  0
   59.2492   34.9239   45.5069 H   0  0  0  0  0  0  0  0  0  0  0  0
  1  2  1  0
  2  3  2  0
  2  4  2  0
  2  5  1  0
  5  6  2  0
  6  7  1  0
  7  8  2  0
  8  9  1  0
  9 10  1  0
 10 11  2  0
 10 12  2  0
 10 13  1  0
 13 14  1  0
 14 15  1  0
 15 16  1  0
 16 17  1  0
 17 18  1  0
 18 19  2  0
 18 20  1  0
 20 21  1  0
 21 22  2  0
 22 23  1  0
 23 24  2  0
 24 25  1  0
 25 26  2  0
 26 27  1  0
 27 28  2  0
 28 29  1  0
 17 30  1  0
  9 31  2  0
 31 32  1  0
 32 33  2  0
 33 34  1  0
 34  5  1  0
 33  7  1  0
 30 14  1  0
 29 21  1  0
 28 23  1  0
  1 35  1  0
  8 36  1  0
 13 37  1  0
 14 38  1  1
 15 39  1  0
 15 40  1  0
 16 41  1  0
 16 42  1  0
 20 43  1  0
 20 44  1  0
 24 45  1  0
 25 46  1  0
 26 47  1  0
 27 48  1  0
 30 49  1  0
 30 50  1  0
 31 51  1  0
 32 52  1  0
M  CHG  2   1  -1  29  -1
M  END
>  <UniqueID>  (29) 
26

>  <SMILES>  (29) 
[NH-]S(=O)(=O)c1nc2cc(S(=O)(=O)N[C@H]3CCN(C(=O)Cc4nc5ccccc5[n-]4)C3)ccc2s1

>  <Energy>  (29) 
123.51791671944645

>  <Genealogy>  (29) 
[NH-]S(=O)(=O)c1nc2cc(S(=O)(=O)NC3CCN(C(=O)Cc4nc5ccccc5[n-]4)C3)ccc2s1 (protonated)
[NH-]S(=O)(=O)c1nc2cc(S(=O)(=O)N[C@H]3CCN(C(=O)Cc4nc5ccccc5[n-]4)C3)ccc2s1 (chirality)
[NH-]S(=O)(=O)c1nc2cc(S(=O)(=O)N[C@H]3CCN(C(=O)Cc4nc5ccccc5[n-]4)C3)ccc2s1 (3D coordinates assigned)
[NH-]S(=O)(=O)c1nc2cc(S(=O)(=O)N[C@H]3CCN(C(=O)Cc4nc5ccccc5[n-]4)C3)ccc2s1 (nonaromatic ring conformer: 123.51791671944645 kcal/mol)

>  <smiles>  (29) 
NS(=O)(=O)c1nc2cc(S(=O)(=O)NC3CCN(C(=O)Cc4nc5ccccc5[nH]4)C3)ccc2s1

>  <score_type>  (29) 
oracle

>  <origin>  (29) 
adg

>  <m_score__min__energy>  (29) 
-13.43

>  <m_primary>  (29) 
energy

$$$$
29:0
     RDKit          3D

 56 58  0  0  0  0  0  0  0  0999 V2000
   56.8710   29.1050   54.8580 C   0  0  0  0  0  0  0  0  0  0  0  0
   56.2970   30.3920   54.2680 C   0  0  0  0  0  0  0  0  0  0  0  0
   56.1510   30.2850   52.8060 N   0  0  0  0  0  0  0  0  0  0  0  0
   54.8790   29.7580   52.2830 C   0  0  0  0  0  0  0  0  0  0  0  0
   54.0430   30.8730   51.6540 C   0  0  0  0  0  0  0  0  0  0  0  0
   57.2220   30.7000   51.9100 C   0  0  0  0  0  0  0  0  0  0  0  0
   58.0940   29.7530   51.3320 C   0  0  0  0  0  0  0  0  0  0  0  0
   59.1200   30.1540   50.4710 C   0  0  0  0  0  0  0  0  0  0  0  0
   59.3090   31.5100   50.1760 C   0  0  0  0  0  0  0  0  0  0  0  0
   60.3900   31.9400   49.2250 C   0  0  0  0  0  0  0  0  0  0  0  0
   60.0440   31.5350   47.8600 N   0  0  0  0  0  0  0  0  0  0  0  0
   59.1760   32.3590   47.0630 C   0  0  0  0  0  0  0  0  0  0  0  0
   57.8870   32.6740   47.5150 C   0  0  0  0  0  0  0  0  0  0  0  0
   57.0440   33.4780   46.7410 C   0  0  0  0  0  0  0  0  0  0  0  0
   57.4830   33.9730   45.5090 C   0  0  0  0  0  0  0  0  0  0  0  0
   56.6450   34.7730   44.7410 O   0  0  0  0  0  0  0  0  0  0  0  0
   58.7660   33.6610   45.0490 C   0  0  0  0  0  0  0  0  0  0  0  0
   59.6090   32.8530   45.8200 C   0  0  0  0  0  0  0  0  0  0  0  0
   60.4830   29.9480   47.2970 S   0  0  0  0  0  0  0  0  0  0  0  0
   61.1690   29.1900   48.3980 O   0  0  0  0  0  0  0  0  0  0  0  0
   61.4190   30.0580   46.1260 O   0  0  0  0  0  0  0  0  0  0  0  0
   59.0350   29.0930   46.7710 C   0  0  0  0  0  0  0  0  0  0  0  0
   58.7970   27.7740   47.1780 C   0  0  0  0  0  0  0  0  0  0  0  0
   57.6240   27.1240   46.7930 C   0  0  0  0  0  0  0  0  0  0  0  0
   56.6780   27.7810   45.9960 C   0  0  0  0  0  0  0  0  0  0  0  0
   55.5230   27.0970   45.6310 O   0  0  0  0  0  0  0  0  0  0  0  0
   56.9030   29.1120   45.5760 C   0  0  0  0  0  0  0  0  0  0  0  0
   55.9280   29.8480   44.7300 C   0  0  0  0  0  0  0  0  0  0  0  0
   54.8440   29.3140   44.3730 O   0  0  0  0  0  0  0  0  0  0  0  0
   56.1990   31.1470   44.3150 O   0  0  0  0  0  0  0  0  0  0  0  0
   58.0880   29.7570   45.9780 C   0  0  0  0  0  0  0  0  0  0  0  0
   58.4450   32.4600   50.7340 C   0  0  0  0  0  0  0  0  0  0  0  0
   57.4170   32.0620   51.5930 C   0  0  0  0  0  0  0  0  0  0  0  0
   56.8456   29.1619   55.9562 H   0  0  0  0  0  0  0  0  0  0  0  0
   56.2701   28.2474   54.5213 H   0  0  0  0  0  0  0  0  0  0  0  0
   57.9106   28.9790   54.5213 H   0  0  0  0  0  0  0  0  0  0  0  0
   55.3102   30.5834   54.7147 H   0  0  0  0  0  0  0  0  0  0  0  0
   56.9885   31.2179   54.4910 H   0  0  0  0  0  0  0  0  0  0  0  0
   55.0921   28.9941   51.5207 H   0  0  0  0  0  0  0  0  0  0  0  0
   54.3106   29.3209   53.1172 H   0  0  0  0  0  0  0  0  0  0  0  0
   53.5866   31.4817   52.4484 H   0  0  0  0  0  0  0  0  0  0  0  0
   54.6891   31.5085   51.0305 H   0  0  0  0  0  0  0  0  0  0  0  0
   53.2519   30.4309   51.0305 H   0  0  0  0  0  0  0  0  0  0  0  0
   57.9648   28.6851   51.5619 H   0  0  0  0  0  0  0  0  0  0  0  0
   59.7830   29.3996   50.0224 H   0  0  0  0  0  0  0  0  0  0  0  0
   60.4967   33.0341   49.2648 H   0  0  0  0  0  0  0  0  0  0  0  0
   61.3379   31.4630   49.5148 H   0  0  0  0  0  0  0  0  0  0  0  0
   57.5368   32.2869   48.4833 H   0  0  0  0  0  0  0  0  0  0  0  0
   56.0338   33.7214   47.1020 H   0  0  0  0  0  0  0  0  0  0  0  0
   59.1128   34.0509   44.0806 H   0  0  0  0  0  0  0  0  0  0  0  0
   60.6150   32.6032   45.4519 H   0  0  0  0  0  0  0  0  0  0  0  0
   59.5359   27.2499   47.8020 H   0  0  0  0  0  0  0  0  0  0  0  0
   57.4410   26.0890   47.1175 H   0  0  0  0  0  0  0  0  0  0  0  0
   58.2735   30.7954   45.6660 H   0  0  0  0  0  0  0  0  0  0  0  0
   58.5761   33.5257   50.4949 H   0  0  0  0  0  0  0  0  0  0  0  0
   56.7502   32.8208   52.0284 H   0  0  0  0  0  0  0  0  0  0  0  0
  1  2  1  0
  2  3  1  0
  3  4  1  0
  4  5  1  0
  3  6  1  0
  6  7  2  0
  7  8  1  0
  8  9  2  0
  9 10  1  0
 10 11  1  0
 11 12  1  0
 12 13  2  0
 13 14  1  0
 14 15  2  0
 15 16  1  0
 15 17  1  0
 17 18  2  0
 11 19  1  0
 19 20  2  0
 19 21  2  0
 19 22  1  0
 22 23  2  0
 23 24  1  0
 24 25  2  0
 25 26  1  0
 25 27  1  0
 27 28  1  0
 28 29  2  0
 28 30  1  0
 27 31  2  0
  9 32  1  0
 32 33  2  0
 33  6  1  0
 18 12  1  0
 31 22  1  0
  1 34  1  0
  1 35  1  0
  1 36  1  0
  2 37  1  0
  2 38  1  0
  4 39  1  0
  4 40  1  0
  5 41  1  0
  5 42  1  0
  5 43  1  0
  7 44  1  0
  8 45  1  0
 10 46  1  0
 10 47  1  0
 13 48  1  0
 14 49  1  0
 17 50  1  0
 18 51  1  0
 23 52  1  0
 24 53  1  0
 31 54  1  0
 32 55  1  0
 33 56  1  0
M  CHG  3  16  -1  26  -1  30  -1
M  END
>  <UniqueID>  (30) 
27

>  <SMILES>  (30) 
CCN(CC)c1ccc(CN(c2ccc([O-])cc2)S(=O)(=O)c2ccc([O-])c(C(=O)[O-])c2)cc1

>  <Energy>  (30) 
62.54749428286516

>  <Genealogy>  (30) 
CCN(CC)c1ccc(CN(c2ccc([O-])cc2)S(=O)(=O)c2ccc([O-])c(C(=O)[O-])c2)cc1 (protonated)
CCN(CC)c1ccc(CN(c2ccc([O-])cc2)S(=O)(=O)c2ccc([O-])c(C(=O)[O-])c2)cc1 (3D coordinates assigned)
CCN(CC)c1ccc(CN(c2ccc([O-])cc2)S(=O)(=O)c2ccc([O-])c(C(=O)[O-])c2)cc1 (optimized conformer: 62.54749428286516 kcal/mol)

>  <smiles>  (30) 
CCN(CC)c1ccc(CN(c2ccc(O)cc2)S(=O)(=O)c2ccc(O)c(C(=O)O)c2)cc1

>  <score_type>  (30) 
oracle

>  <origin>  (30) 
adg

>  <m_score__min__energy>  (30) 
-14.41

>  <m_primary>  (30) 
energy

$$$$
30:0
     RDKit          3D

 39 41  0  0  0  0  0  0  0  0999 V2000
   55.5280   28.8810   44.8830 N   0  0  0  0  0  0  0  0  0  0  0  0
   56.9010   29.9280   44.8260 S   0  0  0  0  0  0  0  0  0  0  0  0
   56.4480   31.3490   44.6470 O   0  0  0  0  0  0  0  0  0  0  0  0
   57.7790   29.5460   43.6670 O   0  0  0  0  0  0  0  0  0  0  0  0
   57.8070   29.7850   46.3200 C   0  0  0  0  0  0  0  0  0  0  0  0
   58.1430   28.5970   46.9560 C   0  0  0  0  0  0  0  0  0  0  0  0
   58.8310   28.7540   48.1160 N   0  0  0  0  0  0  0  0  0  0  0  0
   59.0390   30.0620   48.3950 C   0  0  0  0  0  0  0  0  0  0  0  0
   59.6800   30.4860   49.4390 N   0  0  0  0  0  0  0  0  0  0  0  0
   59.1860   31.8700   50.3600 S   0  0  0  0  0  0  0  0  0  0  0  0
   60.3920   32.5010   50.9990 O   0  0  0  0  0  0  0  0  0  0  0  0
   58.5390   32.8660   49.4390 O   0  0  0  0  0  0  0  0  0  0  0  0
   58.0670   31.3670   51.6220 C   0  0  0  0  0  0  0  0  0  0  0  0
   58.3960   31.5210   52.9760 C   0  0  0  0  0  0  0  0  0  0  0  0
   57.4680   31.1880   53.9640 C   0  0  0  0  0  0  0  0  0  0  0  0
   56.2010   30.7170   53.6080 C   0  0  0  0  0  0  0  0  0  0  0  0
   55.8550   30.5680   52.2540 C   0  0  0  0  0  0  0  0  0  0  0  0
   54.4830   30.0760   51.8760 C   0  0  0  0  0  0  0  0  0  0  0  0
   53.5610   31.2000   51.6990 N   0  0  0  0  0  0  0  0  0  0  0  0
   52.4760   31.5090   52.3590 C   0  0  0  0  0  0  0  0  0  0  0  0
   52.3790   31.0720   53.6450 N   0  0  0  0  0  0  0  0  0  0  0  0
   51.3040   31.3390   54.4330 C   0  0  0  0  0  0  0  0  0  0  0  0
   50.2410   32.0860   53.9330 C   0  0  0  0  0  0  0  0  0  0  0  0
   50.2930   32.5430   52.6180 C   0  0  0  0  0  0  0  0  0  0  0  0
   51.4030   32.2640   51.8160 C   0  0  0  0  0  0  0  0  0  0  0  0
   51.3940   32.7250   50.5080 O   0  0  0  0  0  0  0  0  0  0  0  0
   56.8070   30.8650   51.2660 C   0  0  0  0  0  0  0  0  0  0  0  0
   58.3840   31.0790   47.2270 S   0  0  0  0  0  0  0  0  0  0  0  0
   54.7340   29.4410   45.2660 H   0  0  0  0  0  0  0  0  0  0  0  0
   57.8738   27.6096   46.5529 H   0  0  0  0  0  0  0  0  0  0  0  0
   59.3869   31.9048   53.2602 H   0  0  0  0  0  0  0  0  0  0  0  0
   57.7344   31.2965   55.0257 H   0  0  0  0  0  0  0  0  0  0  0  0
   55.4716   30.4619   54.3909 H   0  0  0  0  0  0  0  0  0  0  0  0
   54.5486   29.5110   50.9345 H   0  0  0  0  0  0  0  0  0  0  0  0
   54.1038   29.4309   52.6823 H   0  0  0  0  0  0  0  0  0  0  0  0
   51.2740   30.9644   55.4668 H   0  0  0  0  0  0  0  0  0  0  0  0
   49.3716   32.3124   54.5678 H   0  0  0  0  0  0  0  0  0  0  0  0
   49.4555   33.1269   52.2085 H   0  0  0  0  0  0  0  0  0  0  0  0
   56.5630   30.7029   50.2057 H   0  0  0  0  0  0  0  0  0  0  0  0
  1  2  1  0
  2  3  2  0
  2  4  2  0
  2  5  1  0
  5  6  2  0
  6  7  1  0
  7  8  1  0
  8  9  2  3
  9 10  1  0
 10 11  2  0
 10 12  2  0
 10 13  1  0
 13 14  2  0
 14 15  1  0
 15 16  2  0
 16 17  1  0
 17 18  1  0
 18 19  1  0
 19 20  2  3
 20 21  1  0
 21 22  1  0
 22 23  2  0
 23 24  1  0
 24 25  2  0
 25 26  1  0
 17 27  2  0
  8 28  1  0
 28  5  1  0
 27 13  1  0
 25 20  1  0
  1 29  1  0
  6 30  1  0
 14 31  1  0
 15 32  1  0
 16 33  1  0
 18 34  1  0
 18 35  1  0
 22 36  1  0
 23 37  1  0
 24 38  1  0
 27 39  1  0
M  CHG  4   1  -1   7  -1  21  -1  26  -1
M  END
>  <UniqueID>  (31) 
28

>  <SMILES>  (31) 
[NH-]S(=O)(=O)c1c[n-]c(=NS(=O)(=O)c2cccc(CN=c3[n-]cccc3[O-])c2)s1

>  <Energy>  (31) 
77.94911097785901

>  <Genealogy>  (31) 
[NH-]S(=O)(=O)c1c[n-]c(=NS(=O)(=O)c2cccc(CN=c3[n-]cccc3[O-])c2)s1 (protonated)
[NH-]S(=O)(=O)c1c[n-]c(=NS(=O)(=O)c2cccc(CN=c3[n-]cccc3[O-])c2)s1 (3D coordinates assigned)
[NH-]S(=O)(=O)c1c[n-]c(=NS(=O)(=O)c2cccc(CN=c3[n-]cccc3[O-])c2)s1 (optimized conformer: 77.94911097785901 kcal/mol)

>  <smiles>  (31) 
NS(=O)(=O)c1c[nH]c(=NS(=O)(=O)c2cccc(CN=c3[nH]cccc3O)c2)s1

>  <score_type>  (31) 
oracle

>  <origin>  (31) 
adg

>  <m_score__min__energy>  (31) 
-16.579999999999998

>  <m_primary>  (31) 
energy

$$$$
31:0
     RDKit          3D

 74 78  0  0  1  0  0  0  0  0999 V2000
   56.1660   22.0690   42.6410 N   0  0  0  0  0  0  0  0  0  0  0  0
   57.0220   22.3270   44.0880 S   0  0  0  0  0  0  0  0  0  0  0  0
   58.4770   21.9780   43.7570 O   0  0  0  0  0  0  0  0  0  0  0  0
   56.5690   21.4760   45.2350 O   0  0  0  0  0  0  0  0  0  0  0  0
   56.9900   23.9900   44.6690 C   0  0  0  0  0  0  0  0  0  0  0  0
   57.5080   24.9520   43.8320 C   0  0  0  0  0  0  0  0  0  0  0  0
   57.4110   26.2850   44.2370 C   0  0  0  0  0  0  0  0  0  0  0  0
   56.7960   26.6290   45.4840 C   0  0  0  0  0  0  0  0  0  0  0  0
   56.4320   28.0360   45.3840 N   0  0  0  0  0  0  0  0  0  0  0  0
   57.2090   28.9870   45.7080 C   0  0  0  0  0  0  0  0  0  0  0  0
   57.0600   30.0940   44.8660 N   0  0  0  0  0  0  0  0  0  0  0  0
   58.0950   30.9290   44.9380 C   0  0  0  0  0  0  0  0  0  0  0  0
   58.3230   32.0880   44.2670 O   0  0  0  0  0  0  0  0  0  0  0  0
   57.4090   33.0040   44.4560 C   0  0  0  0  0  0  0  0  0  0  0  0
   57.9900   34.1270   45.4110 C   0  0  0  0  0  0  0  0  0  0  0  0
   59.2960   33.7190   45.4340 N   0  0  0  0  0  0  0  0  0  0  0  0
   59.8310   34.1100   47.0100 S   0  0  0  0  0  0  0  0  0  0  0  0
   59.8280   34.9550   47.9250 O   0  0  0  0  0  0  0  0  0  0  0  0
   59.6840   32.5750   47.7220 O   0  0  0  0  0  0  0  0  0  0  0  0
   61.6450   33.7080   46.3790 C   0  0  0  0  0  0  0  0  0  0  0  0
   62.4240   33.9030   47.6200 C   0  0  0  0  0  0  0  0  0  0  0  0
   63.3090   32.7540   47.7540 N   0  0  0  0  0  0  0  0  0  0  0  0
   64.2260   32.8740   48.8380 C   0  0  0  0  0  0  0  0  0  0  0  0
   63.7260   32.2480   50.1040 C   0  0  0  0  0  0  0  0  0  0  0  0
   63.1600   30.9970   49.8760 O   0  0  0  0  0  0  0  0  0  0  0  0
   62.0900   31.0550   48.9980 C   0  0  0  0  0  0  0  0  0  0  0  0
   62.6180   31.5180   47.6570 C   0  0  0  0  0  0  0  0  0  0  0  0
   59.2170   30.7920   45.7610 N   0  0  0  0  0  0  0  0  0  0  0  0
   59.2570   29.7750   46.5190 C   0  0  0  0  0  0  0  0  0  0  0  0
   60.2120   29.4210   47.3700 O   0  0  0  0  0  0  0  0  0  0  0  0
   59.8100   28.2890   47.8970 C   0  0  0  0  0  0  0  0  0  0  0  0
   60.6260   27.4990   48.8470 C   0  0  0  0  0  0  0  0  0  0  0  0
   60.6380   28.2410   50.0990 C   0  0  0  0  0  0  0  0  0  0  0  0
   59.7270   29.2610   50.3430 C   0  0  0  0  0  0  0  0  0  0  0  0
   59.7400   29.8550   51.6030 C   0  0  0  0  0  0  0  0  0  0  0  0
   60.6500   29.3910   52.5850 C   0  0  0  0  0  0  0  0  0  0  0  0
   61.4870   28.3710   52.2730 C   0  0  0  0  0  0  0  0  0  0  0  0
   61.5080   27.8140   51.0640 C   0  0  0  0  0  0  0  0  0  0  0  0
   58.6040   27.9200   47.4430 C   0  0  0  0  0  0  0  0  0  0  0  0
   58.2360   28.8310   46.5130 C   0  0  0  0  0  0  0  0  0  0  0  0
   56.3310   25.6980   46.3100 C   0  0  0  0  0  0  0  0  0  0  0  0
   56.4480   24.3530   45.8540 C   0  0  0  0  0  0  0  0  0  0  0  0
   55.1680   22.2340   42.6540 H   0  0  0  0  0  0  0  0  0  0  0  0
   56.5640   22.6830   41.8630 H   0  0  0  0  0  0  0  0  0  0  0  0
   57.9819   24.6803   42.8772 H   0  0  0  0  0  0  0  0  0  0  0  0
   57.8116   27.0800   43.5908 H   0  0  0  0  0  0  0  0  0  0  0  0
   57.1295   33.4502   43.4902 H   0  0  0  0  0  0  0  0  0  0  0  0
   56.5191   32.5501   44.9164 H   0  0  0  0  0  0  0  0  0  0  0  0
   57.8780   35.1339   44.9826 H   0  0  0  0  0  0  0  0  0  0  0  0
   57.5013   34.2190   46.3922 H   0  0  0  0  0  0  0  0  0  0  0  0
   60.0180   34.2580   44.8340 H   0  0  0  0  0  0  0  0  0  0  0  0
   61.7248   32.6748   46.0099 H   0  0  0  0  0  0  0  0  0  0  0  0
   61.9783   34.3259   45.5322 H   0  0  0  0  0  0  0  0  0  0  0  0
   63.0146   34.8286   47.5535 H   0  0  0  0  0  0  0  0  0  0  0  0
   61.7581   33.9885   48.4914 H   0  0  0  0  0  0  0  0  0  0  0  0
   65.1692   32.3843   48.5543 H   0  0  0  0  0  0  0  0  0  0  0  0
   64.3618   33.9477   49.0349 H   0  0  0  0  0  0  0  0  0  0  0  0
   64.5687   32.1352   50.8019 H   0  0  0  0  0  0  0  0  0  0  0  0
   62.9482   32.9027   50.5240 H   0  0  0  0  0  0  0  0  0  0  0  0
   61.6339   30.0591   48.8972 H   0  0  0  0  0  0  0  0  0  0  0  0
   61.3237   31.7506   49.3708 H   0  0  0  0  0  0  0  0  0  0  0  0
   63.3074   30.7559   47.2648 H   0  0  0  0  0  0  0  0  0  0  0  0
   61.7587   31.6617   46.9855 H   0  0  0  0  0  0  0  0  0  0  0  0
   59.8280   31.6300   45.7660 H   0  0  0  0  0  0  0  0  0  0  0  0
   60.1778   26.5059   48.9983 H   0  0  0  0  0  0  0  0  0  0  0  0
   61.6463   27.3481   48.4646 H   0  0  0  0  0  0  0  0  0  0  0  0
   59.0192   29.5886   49.5673 H   0  0  0  0  0  0  0  0  0  0  0  0
   59.0485   30.6787   51.8340 H   0  0  0  0  0  0  0  0  0  0  0  0
   60.6769   29.8507   53.5840 H   0  0  0  0  0  0  0  0  0  0  0  0
   62.1720   27.9908   53.0451 H   0  0  0  0  0  0  0  0  0  0  0  0
   62.2252   27.0102   50.8412 H   0  0  0  0  0  0  0  0  0  0  0  0
   58.0237   27.0429   47.7654 H   0  0  0  0  0  0  0  0  0  0  0  0
   55.8844   25.9493   47.2833 H   0  0  0  0  0  0  0  0  0  0  0  0
   56.0716   23.5550   46.5109 H   0  0  0  0  0  0  0  0  0  0  0  0
  1  2  1  0
  2  3  2  0
  2  4  2  0
  2  5  1  0
  5  6  2  0
  6  7  1  0
  7  8  2  0
  8  9  1  0
  9 10  2  0
 10 11  1  0
 11 12  2  0
 12 13  1  0
 13 14  1  0
 14 15  1  0
 15 16  1  0
 16 17  1  0
 17 18  2  0
 17 19  2  0
 17 20  1  0
 20 21  1  0
 21 22  1  0
 22 23  1  0
 23 24  1  0
 24 25  1  0
 25 26  1  0
 26 27  1  0
 12 28  1  0
 28 29  1  0
 29 30  1  0
 30 31  1  0
 31 32  1  0
 32 33  1  0
 33 34  2  0
 34 35  1  0
 35 36  2  0
 36 37  1  0
 37 38  2  0
 31 39  2  0
 39 40  1  0
  8 41  1  0
 41 42  2  0
 42  5  1  0
 40 10  1  0
 27 22  1  0
 40 29  2  0
 38 33  1  0
  1 43  1  0
  1 44  1  0
  6 45  1  0
  7 46  1  0
 14 47  1  0
 14 48  1  0
 15 49  1  0
 15 50  1  0
 16 51  1  0
 20 52  1  0
 20 53  1  0
 21 54  1  0
 21 55  1  0
 23 56  1  0
 23 57  1  0
 24 58  1  0
 24 59  1  0
 26 60  1  0
 26 61  1  0
 27 62  1  0
 27 63  1  0
 28 64  1  0
 32 65  1  0
 32 66  1  0
 34 67  1  0
 35 68  1  0
 36 69  1  0
 37 70  1  0
 38 71  1  0
 39 72  1  0
 41 73  1  0
 42 74  1  0
M  END
>  <smiles>  (32) 
NS(=O)(=O)c1ccc(N=c2nc(OCCNS(=O)(=O)CCN3CCOCC3)[nH]c3oc(Cc4ccccc4)cc23)cc1

>  <score_type>  (32) 
oracle

>  <origin>  (32) 
adg

>  <m_score__min__energy>  (32) 
-11.09

>  <m_primary>  (32) 
energy

$$$$
32:0
     RDKit          3D

 58 62  0  0  0  0  0  0  0  0999 V2000
   57.1320   27.8570   45.9610 C   0  0  0  0  0  0  0  0  0  0  0  0
   56.9300   26.3970   45.7000 C   0  0  0  0  0  0  0  0  0  0  0  0
   57.9230   25.4340   45.5580 C   0  0  0  0  0  0  0  0  0  0  0  0
   59.4060   25.6480   45.6840 C   0  0  0  0  0  0  0  0  0  0  0  0
   59.7750   26.0360   47.1210 C   0  0  0  0  0  0  0  0  0  0  0  0
   60.1910   27.4540   47.1940 N   0  0  0  0  0  0  0  0  0  0  0  0
   59.2700   28.2170   48.0580 C   0  0  0  0  0  0  0  0  0  0  0  0
   59.8290   29.6220   48.2790 C   0  0  0  0  0  0  0  0  0  0  0  0
   60.2050   30.2340   47.0040 N   0  0  0  0  0  0  0  0  0  0  0  0
   60.6660   31.5910   46.9910 C   0  0  0  0  0  0  0  0  0  0  0  0
   61.9540   31.8730   47.4680 C   0  0  0  0  0  0  0  0  0  0  0  0
   62.4530   33.1760   47.4310 C   0  0  0  0  0  0  0  0  0  0  0  0
   61.6720   34.2120   46.9180 C   0  0  0  0  0  0  0  0  0  0  0  0
   60.3730   33.9530   46.4500 C   0  0  0  0  0  0  0  0  0  0  0  0
   59.8520   32.6390   46.5010 C   0  0  0  0  0  0  0  0  0  0  0  0
   58.4680   32.3590   45.9400 C   0  0  0  0  0  0  0  0  0  0  0  0
   57.5270   33.5570   46.1230 C   0  0  0  0  0  0  0  0  0  0  0  0
   58.1540   34.7800   45.6340 N   0  0  0  0  0  0  0  0  0  0  0  0
   59.5320   35.0380   45.9060 C   0  0  0  0  0  0  0  0  0  0  0  0
   60.0140   36.1760   45.6590 O   0  0  0  0  0  0  0  0  0  0  0  0
   59.9450   29.5380   45.7430 C   0  0  0  0  0  0  0  0  0  0  0  0
   60.3460   28.0510   45.8370 C   0  0  0  0  0  0  0  0  0  0  0  0
   57.2590   24.2230   45.4240 C   0  0  0  0  0  0  0  0  0  0  0  0
   57.8080   22.9430   45.3330 C   0  0  0  0  0  0  0  0  0  0  0  0
   56.9300   21.8550   45.2670 C   0  0  0  0  0  0  0  0  0  0  0  0
   55.5420   22.0620   45.2810 C   0  0  0  0  0  0  0  0  0  0  0  0
   55.0300   23.3710   45.3580 C   0  0  0  0  0  0  0  0  0  0  0  0
   53.6150   23.5870   45.3100 N   0  0  0  0  0  0  0  0  0  0  0  0
   53.0350   24.0970   46.2890 O   0  0  0  0  0  0  0  0  0  0  0  0
   52.9570   23.5380   44.1020 O   0  0  0  0  0  0  0  0  0  0  0  0
   55.9200   24.4060   45.4440 N   0  0  0  0  0  0  0  0  0  0  0  0
   55.7180   25.7290   45.6320 C   0  0  0  0  0  0  0  0  0  0  0  0
   54.4740   26.3260   45.7930 O   0  0  0  0  0  0  0  0  0  0  0  0
   57.1567   28.0355   47.0461 H   0  0  0  0  0  0  0  0  0  0  0  0
   58.0835   28.1811   45.5143 H   0  0  0  0  0  0  0  0  0  0  0  0
   56.3042   28.4273   45.5143 H   0  0  0  0  0  0  0  0  0  0  0  0
   59.9295   24.7188   45.4146 H   0  0  0  0  0  0  0  0  0  0  0  0
   59.7054   26.4629   45.0085 H   0  0  0  0  0  0  0  0  0  0  0  0
   58.9010   25.8830   47.7712 H   0  0  0  0  0  0  0  0  0  0  0  0
   60.6140   25.4058   47.4511 H   0  0  0  0  0  0  0  0  0  0  0  0
   58.2847   28.2859   47.5738 H   0  0  0  0  0  0  0  0  0  0  0  0
   59.1663   27.7060   49.0266 H   0  0  0  0  0  0  0  0  0  0  0  0
   59.0629   30.2432   48.7660 H   0  0  0  0  0  0  0  0  0  0  0  0
   60.7234   29.5514   48.9155 H   0  0  0  0  0  0  0  0  0  0  0  0
   62.5757   31.0615   47.8743 H   0  0  0  0  0  0  0  0  0  0  0  0
   63.4649   33.3866   47.8074 H   0  0  0  0  0  0  0  0  0  0  0  0
   62.0747   35.2349   46.8799 H   0  0  0  0  0  0  0  0  0  0  0  0
   58.5571   32.1367   44.8664 H   0  0  0  0  0  0  0  0  0  0  0  0
   58.0437   31.5038   46.4864 H   0  0  0  0  0  0  0  0  0  0  0  0
   56.5986   33.3769   45.5613 H   0  0  0  0  0  0  0  0  0  0  0  0
   57.3061   33.6748   47.1941 H   0  0  0  0  0  0  0  0  0  0  0  0
   58.8724   29.6068   45.5091 H   0  0  0  0  0  0  0  0  0  0  0  0
   60.5442   30.0124   44.9518 H   0  0  0  0  0  0  0  0  0  0  0  0
   59.7178   27.4807   45.1369 H   0  0  0  0  0  0  0  0  0  0  0  0
   61.4174   27.9997   45.5930 H   0  0  0  0  0  0  0  0  0  0  0  0
   58.8977   22.7938   45.3137 H   0  0  0  0  0  0  0  0  0  0  0  0
   57.3300   20.8323   45.2038 H   0  0  0  0  0  0  0  0  0  0  0  0
   54.8559   21.2036   45.2319 H   0  0  0  0  0  0  0  0  0  0  0  0
  1  2  1  0
  2  3  1  0
  3  4  1  0
  4  5  1  0
  5  6  1  0
  6  7  1  0
  7  8  1  0
  8  9  1  0
  9 10  1  0
 10 11  2  0
 11 12  1  0
 12 13  2  0
 13 14  1  0
 14 15  2  0
 15 16  1  0
 16 17  1  0
 17 18  1  0
 18 19  1  0
 19 20  2  0
  9 21  1  0
 21 22  1  0
  3 23  2  0
 23 24  1  0
 24 25  2  0
 25 26  1  0
 26 27  2  0
 27 28  1  0
 28 29  2  0
 28 30  1  0
 27 31  1  0
 31 32  1  0
 32 33  1  0
 32  2  2  0
 22  6  1  0
 31 23  1  0
 15 10  1  0
 19 14  1  0
  1 34  1  0
  1 35  1  0
  1 36  1  0
  4 37  1  0
  4 38  1  0
  5 39  1  0
  5 40  1  0
  7 41  1  0
  7 42  1  0
  8 43  1  0
  8 44  1  0
 11 45  1  0
 12 46  1  0
 13 47  1  0
 16 48  1  0
 16 49  1  0
 17 50  1  0
 17 51  1  0
 21 52  1  0
 21 53  1  0
 22 54  1  0
 22 55  1  0
 24 56  1  0
 25 57  1  0
 26 58  1  0
M  CHG  4  18  -1  28   1  30  -1  33  -1
M  END
>  <UniqueID>  (33) 
29

>  <SMILES>  (33) 
Cc1c(CCN2CCN(c3cccc4c3CC[N-]C4=O)CC2)c2cccc([N+](=O)[O-])n2c1[O-]

>  <Energy>  (33) 
111.45084394532499

>  <Genealogy>  (33) 
Cc1c(CCN2CCN(c3cccc4c3CC[N-]C4=O)CC2)c2cccc([N+](=O)[O-])n2c1[O-] (protonated)
Cc1c(CCN2CCN(c3cccc4c3CC[N-]C4=O)CC2)c2cccc([N+](=O)[O-])n2c1[O-] (3D coordinates assigned)
Cc1c(CCN2CCN(c3cccc4c3CC[N-]C4=O)CC2)c2cccc([N+](=O)[O-])n2c1[O-] (nonaromatic ring conformer: 111.45084394532499 kcal/mol)

>  <smiles>  (33) 
Cc1c(CCN2CCN(c3cccc4c3CCNC4=O)CC2)c2cccc([N+](=O)[O-])n2c1O

>  <score_type>  (33) 
oracle

>  <origin>  (33) 
adg

>  <m_score__min__energy>  (33) 
-13.539999999999999

>  <m_primary>  (33) 
energy

$$$$
33:0
     RDKit          3D

 42 44  0  0  0  0  0  0  0  0999 V2000
   59.2300   21.9950   44.8460 C   0  0  0  0  0  0  0  0  0  0  0  0
   57.7590   22.3080   44.8820 C   0  0  0  0  0  0  0  0  0  0  0  0
   56.8530   21.2980   45.2440 C   0  0  0  0  0  0  0  0  0  0  0  0
   55.4840   21.5680   45.3210 C   0  0  0  0  0  0  0  0  0  0  0  0
   54.6190   20.5880   45.6830 F   0  0  0  0  0  0  0  0  0  0  0  0
   55.0070   22.8480   45.0350 C   0  0  0  0  0  0  0  0  0  0  0  0
   55.8960   23.8560   44.6540 C   0  0  0  0  0  0  0  0  0  0  0  0
   57.2660   23.5920   44.5500 C   0  0  0  0  0  0  0  0  0  0  0  0
   58.1160   24.6270   44.1410 O   0  0  0  0  0  0  0  0  0  0  0  0
   57.8190   25.9820   44.3220 C   0  0  0  0  0  0  0  0  0  0  0  0
   58.0370   26.8770   43.2740 C   0  0  0  0  0  0  0  0  0  0  0  0
   57.7440   28.2300   43.4560 C   0  0  0  0  0  0  0  0  0  0  0  0
   57.2290   28.6870   44.6800 C   0  0  0  0  0  0  0  0  0  0  0  0
   56.9180   30.1230   44.8700 C   0  0  0  0  0  0  0  0  0  0  0  0
   55.7930   30.5630   44.5010 O   0  0  0  0  0  0  0  0  0  0  0  0
   57.8630   31.0160   45.4820 N   0  0  0  0  0  0  0  0  0  0  0  0
   57.6100   32.4490   45.6200 C   0  0  0  0  0  0  0  0  0  0  0  0
   58.4640   33.0340   46.7190 C   0  0  0  0  0  0  0  0  0  0  0  0
   58.5000   32.4070   47.9770 C   0  0  0  0  0  0  0  0  0  0  0  0
   59.3000   32.9190   49.0020 C   0  0  0  0  0  0  0  0  0  0  0  0
   60.0720   34.0600   48.7830 C   0  0  0  0  0  0  0  0  0  0  0  0
   60.0490   34.6920   47.5370 C   0  0  0  0  0  0  0  0  0  0  0  0
   59.2520   34.1870   46.5030 C   0  0  0  0  0  0  0  0  0  0  0  0
   59.2640   35.0250   44.9540 Cl  0  0  0  0  0  0  0  0  0  0  0  0
   57.0450   27.7510   45.7140 C   0  0  0  0  0  0  0  0  0  0  0  0
   57.3420   26.4400   45.5120 N   0  0  0  0  0  0  0  0  0  0  0  0
   59.6128   21.9135   45.8740 H   0  0  0  0  0  0  0  0  0  0  0  0
   59.3895   21.0428   44.3188 H   0  0  0  0  0  0  0  0  0  0  0  0
   59.7633   22.7998   44.3188 H   0  0  0  0  0  0  0  0  0  0  0  0
   57.2236   20.2869   45.4686 H   0  0  0  0  0  0  0  0  0  0  0  0
   53.9308   23.0632   45.1096 H   0  0  0  0  0  0  0  0  0  0  0  0
   55.5161   24.8646   44.4342 H   0  0  0  0  0  0  0  0  0  0  0  0
   58.4361   26.5199   42.3131 H   0  0  0  0  0  0  0  0  0  0  0  0
   57.9176   28.9422   42.6358 H   0  0  0  0  0  0  0  0  0  0  0  0
   58.7490   30.6420   45.8860 H   0  0  0  0  0  0  0  0  0  0  0  0
   57.8476   32.9515   44.6708 H   0  0  0  0  0  0  0  0  0  0  0  0
   56.5506   32.6000   45.8746 H   0  0  0  0  0  0  0  0  0  0  0  0
   57.8938   31.5066   48.1557 H   0  0  0  0  0  0  0  0  0  0  0  0
   59.3210   32.4216   49.9829 H   0  0  0  0  0  0  0  0  0  0  0  0
   60.6994   34.4626   49.5919 H   0  0  0  0  0  0  0  0  0  0  0  0
   60.6602   35.5908   47.3678 H   0  0  0  0  0  0  0  0  0  0  0  0
   56.6593   28.0813   46.6898 H   0  0  0  0  0  0  0  0  0  0  0  0
  1  2  1  0
  2  3  2  0
  3  4  1  0
  4  5  1  0
  4  6  2  0
  6  7  1  0
  7  8  2  0
  8  9  1  0
  9 10  1  0
 10 11  2  0
 11 12  1  0
 12 13  2  0
 13 14  1  0
 14 15  2  0
 14 16  1  0
 16 17  1  0
 17 18  1  0
 18 19  2  0
 19 20  1  0
 20 21  2  0
 21 22  1  0
 22 23  2  0
 23 24  1  0
 13 25  1  0
 25 26  2  0
  8  2  1  0
 26 10  1  0
 23 18  1  0
  1 27  1  0
  1 28  1  0
  1 29  1  0
  3 30  1  0
  6 31  1  0
  7 32  1  0
 11 33  1  0
 12 34  1  0
 16 35  1  0
 17 36  1  0
 17 37  1  0
 19 38  1  0
 20 39  1  0
 21 40  1  0
 22 41  1  0
 25 42  1  0
M  END
>  <UniqueID>  (34) 
30

>  <SMILES>  (34) 
Cc1cc(F)ccc1Oc1ccc(C(=O)NCc2ccccc2Cl)cn1

>  <Energy>  (34) 
53.501338230848965

>  <Genealogy>  (34) 
Cc1cc(F)ccc1Oc1ccc(C(=O)NCc2ccccc2Cl)cn1 (3D coordinates assigned)
Cc1cc(F)ccc1Oc1ccc(C(=O)NCc2ccccc2Cl)cn1 (optimized conformer: 53.501338230848965 kcal/mol)

>  <smiles>  (34) 
Cc1cc(F)ccc1Oc1ccc(C(=O)NCc2ccccc2Cl)cn1

>  <score_type>  (34) 
oracle

>  <origin>  (34) 
adg

>  <m_score__min__energy>  (34) 
-7.7199999999999998

>  <m_primary>  (34) 
energy

$$$$
34:0
     RDKit          3D

 44 46  0  0  0  0  0  0  0  0999 V2000
   58.1210   29.6360   50.8550 O   0  0  0  0  0  0  0  0  0  0  0  0
   58.7630   30.4000   50.0870 C   0  0  0  0  0  0  0  0  0  0  0  0
   59.7540   29.8100   49.1270 C   0  0  0  0  0  0  0  0  0  0  0  0
   61.0780   30.0340   49.6050 O   0  0  0  0  0  0  0  0  0  0  0  0
   61.9400   31.0270   49.1150 C   0  0  0  0  0  0  0  0  0  0  0  0
   62.8010   31.7610   49.9560 C   0  0  0  0  0  0  0  0  0  0  0  0
   63.6430   32.7410   49.4200 C   0  0  0  0  0  0  0  0  0  0  0  0
   64.4690   33.4440   50.2330 F   0  0  0  0  0  0  0  0  0  0  0  0
   63.6340   32.9960   48.0460 C   0  0  0  0  0  0  0  0  0  0  0  0
   62.7830   32.2730   47.2070 C   0  0  0  0  0  0  0  0  0  0  0  0
   61.9400   31.2920   47.7380 C   0  0  0  0  0  0  0  0  0  0  0  0
   61.1190   30.5950   46.9130 F   0  0  0  0  0  0  0  0  0  0  0  0
   58.4990   31.8080   50.1330 N   0  0  0  0  0  0  0  0  0  0  0  0
   59.0380   32.8040   49.2530 C   0  0  0  0  0  0  0  0  0  0  0  0
   60.0790   33.6580   49.6570 C   0  0  0  0  0  0  0  0  0  0  0  0
   60.5720   34.6280   48.7820 C   0  0  0  0  0  0  0  0  0  0  0  0
   60.0220   34.7650   47.5060 C   0  0  0  0  0  0  0  0  0  0  0  0
   58.9660   33.9380   47.1030 C   0  0  0  0  0  0  0  0  0  0  0  0
   58.2940   34.1110   45.4840 S   0  0  0  0  0  0  0  0  0  0  0  0
   58.9740   35.2600   44.7960 O   0  0  0  0  0  0  0  0  0  0  0  0
   56.8170   34.3810   45.5390 O   0  0  0  0  0  0  0  0  0  0  0  0
   58.5740   32.6590   44.5790 N   0  0  0  0  0  0  0  0  0  0  0  0
   57.9200   31.4030   44.8090 C   0  0  0  0  0  0  0  0  0  0  0  0
   56.7440   31.0350   44.1290 C   0  0  0  0  0  0  0  0  0  0  0  0
   56.1350   29.8050   44.3910 C   0  0  0  0  0  0  0  0  0  0  0  0
   56.6940   28.9280   45.3310 C   0  0  0  0  0  0  0  0  0  0  0  0
   56.0940   27.6990   45.6010 O   0  0  0  0  0  0  0  0  0  0  0  0
   57.8640   29.2880   46.0040 C   0  0  0  0  0  0  0  0  0  0  0  0
   58.4750   30.5190   45.7430 C   0  0  0  0  0  0  0  0  0  0  0  0
   58.4670   32.9690   47.9850 C   0  0  0  0  0  0  0  0  0  0  0  0
   59.5760   28.7283   49.0366 H   0  0  0  0  0  0  0  0  0  0  0  0
   59.6364   30.2873   48.1429 H   0  0  0  0  0  0  0  0  0  0  0  0
   62.8107   31.5623   51.0379 H   0  0  0  0  0  0  0  0  0  0  0  0
   64.2972   33.7662   47.6252 H   0  0  0  0  0  0  0  0  0  0  0  0
   62.7760   32.4759   46.1259 H   0  0  0  0  0  0  0  0  0  0  0  0
   60.5066   33.5617   50.6659 H   0  0  0  0  0  0  0  0  0  0  0  0
   61.3952   35.2854   49.0985 H   0  0  0  0  0  0  0  0  0  0  0  0
   60.4189   35.5240   46.8158 H   0  0  0  0  0  0  0  0  0  0  0  0
   56.3026   31.7183   43.3885 H   0  0  0  0  0  0  0  0  0  0  0  0
   55.2145   29.5241   43.8583 H   0  0  0  0  0  0  0  0  0  0  0  0
   55.1510   27.4920   45.2940 H   0  0  0  0  0  0  0  0  0  0  0  0
   58.3060   28.6016   46.7412 H   0  0  0  0  0  0  0  0  0  0  0  0
   59.3976   30.7946   46.2749 H   0  0  0  0  0  0  0  0  0  0  0  0
   57.6220   32.3346   47.6791 H   0  0  0  0  0  0  0  0  0  0  0  0
  1  2  2  0
  2  3  1  0
  3  4  1  0
  4  5  1  0
  5  6  2  0
  6  7  1  0
  7  8  1  0
  7  9  2  0
  9 10  1  0
 10 11  2  0
 11 12  1  0
  2 13  1  0
 13 14  1  0
 14 15  2  0
 15 16  1  0
 16 17  2  0
 17 18  1  0
 18 19  1  0
 19 20  2  0
 19 21  2  0
 19 22  1  0
 22 23  1  0
 23 24  2  0
 24 25  1  0
 25 26  2  0
 26 27  1  0
 26 28  1  0
 28 29  2  0
 18 30  2  0
 11  5  1  0
 30 14  1  0
 29 23  1  0
  3 31  1  0
  3 32  1  0
  6 33  1  0
  9 34  1  0
 10 35  1  0
 15 36  1  0
 16 37  1  0
 17 38  1  0
 24 39  1  0
 25 40  1  0
 27 41  1  0
 28 42  1  0
 29 43  1  0
 30 44  1  0
M  CHG  2  13  -1  22  -1
M  END
>  <UniqueID>  (35) 
31

>  <SMILES>  (35) 
O=C(COc1cc(F)ccc1F)[N-]c1cccc(S(=O)(=O)[N-]c2ccc(O)cc2)c1

>  <Energy>  (35) 
52.99987997101785

>  <Genealogy>  (35) 
O=C(COc1cc(F)ccc1F)[N-]c1cccc(S(=O)(=O)[N-]c2ccc(O)cc2)c1 (protonated)
O=C(COc1cc(F)ccc1F)[N-]c1cccc(S(=O)(=O)[N-]c2ccc(O)cc2)c1 (3D coordinates assigned)
O=C(COc1cc(F)ccc1F)[N-]c1cccc(S(=O)(=O)[N-]c2ccc(O)cc2)c1 (optimized conformer: 52.99987997101785 kcal/mol)

>  <smiles>  (35) 
O=C(COc1cc(F)ccc1F)Nc1cccc(S(=O)(=O)Nc2ccc(O)cc2)c1

>  <score_type>  (35) 
oracle

>  <origin>  (35) 
adg

>  <m_score__min__energy>  (35) 
-11.029999999999999

>  <m_primary>  (35) 
energy

$$$$
35:0
     RDKit          3D

 29 30  0  0  0  0  0  0  0  0999 V2000
   55.2260   26.6550   45.9770 N   0  0  0  0  0  0  0  0  0  0  0  0
   56.9340   26.8200   45.7600 S   0  0  0  0  0  0  0  0  0  0  0  0
   57.3730   25.8720   44.6780 O   0  0  0  0  0  0  0  0  0  0  0  0
   57.6180   26.4650   47.0500 O   0  0  0  0  0  0  0  0  0  0  0  0
   57.3570   28.4760   45.3060 C   0  0  0  0  0  0  0  0  0  0  0  0
   58.6740   28.9250   45.4900 C   0  0  0  0  0  0  0  0  0  0  0  0
   59.0380   30.2290   45.1470 C   0  0  0  0  0  0  0  0  0  0  0  0
   58.0880   31.1150   44.6100 C   0  0  0  0  0  0  0  0  0  0  0  0
   58.4270   32.4690   44.2520 N   0  0  0  0  0  0  0  0  0  0  0  0
   58.1330   33.6410   45.0750 C   0  0  0  0  0  0  0  0  0  0  0  0
   59.0090   33.6620   46.2900 C   0  0  0  0  0  0  0  0  0  0  0  0
   58.5840   33.4970   47.6040 C   0  0  0  0  0  0  0  0  0  0  0  0
   59.6310   33.5380   48.5310 C   0  0  0  0  0  0  0  0  0  0  0  0
   60.8740   33.7270   47.9430 C   0  0  0  0  0  0  0  0  0  0  0  0
   62.5390   33.8330   48.8640 Br  0  0  0  0  0  0  0  0  0  0  0  0
   60.6830   33.8410   46.2770 S   0  0  0  0  0  0  0  0  0  0  0  0
   56.7750   30.6640   44.4150 C   0  0  0  0  0  0  0  0  0  0  0  0
   56.4010   29.3590   44.7540 C   0  0  0  0  0  0  0  0  0  0  0  0
   55.0760   28.9770   44.5270 O   0  0  0  0  0  0  0  0  0  0  0  0
   54.7880   26.7180   45.0310 H   0  0  0  0  0  0  0  0  0  0  0  0
   59.4279   28.2423   45.9090 H   0  0  0  0  0  0  0  0  0  0  0  0
   60.0746   30.5648   45.2980 H   0  0  0  0  0  0  0  0  0  0  0  0
   58.8890   32.6400   43.3290 H   0  0  0  0  0  0  0  0  0  0  0  0
   58.3111   34.5519   44.4846 H   0  0  0  0  0  0  0  0  0  0  0  0
   57.0816   33.5962   45.3952 H   0  0  0  0  0  0  0  0  0  0  0  0
   57.5310   33.3492   47.8859 H   0  0  0  0  0  0  0  0  0  0  0  0
   59.4840   33.4313   49.6159 H   0  0  0  0  0  0  0  0  0  0  0  0
   56.0262   31.3476   43.9883 H   0  0  0  0  0  0  0  0  0  0  0  0
   54.7690   28.0150   44.5020 H   0  0  0  0  0  0  0  0  0  0  0  0
  1  2  1  0
  2  3  2  0
  2  4  2  0
  2  5  1  0
  5  6  2  0
  6  7  1  0
  7  8  2  0
  8  9  1  0
  9 10  1  0
 10 11  1  0
 11 12  2  0
 12 13  1  0
 13 14  2  0
 14 15  1  0
 14 16  1  0
  8 17  1  0
 17 18  2  0
 18 19  1  0
 18  5  1  0
 16 11  1  0
  1 20  1  0
  6 21  1  0
  7 22  1  0
  9 23  1  0
 10 24  1  0
 10 25  1  0
 12 26  1  0
 13 27  1  0
 17 28  1  0
 19 29  1  0
M  CHG  1   1  -1
M  END
>  <UniqueID>  (36) 
32

>  <SMILES>  (36) 
[NH-]S(=O)(=O)c1ccc(NCc2ccc(Br)s2)cc1O

>  <Energy>  (36) 
55.69936440496498

>  <Genealogy>  (36) 
[NH-]S(=O)(=O)c1ccc(NCc2ccc(Br)s2)cc1O (protonated)
[NH-]S(=O)(=O)c1ccc(NCc2ccc(Br)s2)cc1O (3D coordinates assigned)
[NH-]S(=O)(=O)c1ccc(NCc2ccc(Br)s2)cc1O (optimized conformer: 55.69936440496498 kcal/mol)

>  <smiles>  (36) 
NS(=O)(=O)c1ccc(NCc2ccc(Br)s2)cc1O

>  <score_type>  (36) 
oracle

>  <origin>  (36) 
adg

>  <m_score__min__energy>  (36) 
-11.289999999999999

>  <m_primary>  (36) 
energy

$$$$
36:0
     RDKit          3D

 61 63  0  0  0  0  0  0  0  0999 V2000
   59.5250   29.1950   49.0070 C   0  0  0  0  0  0  0  0  0  0  0  0
   59.4720   29.5110   50.3960 O   0  0  0  0  0  0  0  0  0  0  0  0
   59.1370   30.7700   50.9210 C   0  0  0  0  0  0  0  0  0  0  0  0
   59.6030   31.9570   50.3190 C   0  0  0  0  0  0  0  0  0  0  0  0
   59.2090   33.2100   50.7980 C   0  0  0  0  0  0  0  0  0  0  0  0
   59.4900   34.3860   50.0190 N   0  0  0  0  0  0  0  0  0  0  0  0
   60.5020   34.4030   48.9570 C   0  0  0  0  0  0  0  0  0  0  0  0
   59.9960   33.6800   47.7170 C   0  0  0  0  0  0  0  0  0  0  0  0
   58.8780   34.2160   47.0600 C   0  0  0  0  0  0  0  0  0  0  0  0
   58.2440   33.4920   46.0610 C   0  0  0  0  0  0  0  0  0  0  0  0
   58.7070   32.2240   45.7180 C   0  0  0  0  0  0  0  0  0  0  0  0
   57.9550   31.4170   44.7300 C   0  0  0  0  0  0  0  0  0  0  0  0
   57.3950   30.1810   45.1020 C   0  0  0  0  0  0  0  0  0  0  0  0
   57.5280   29.7140   46.3700 F   0  0  0  0  0  0  0  0  0  0  0  0
   56.6640   29.4340   44.1730 C   0  0  0  0  0  0  0  0  0  0  0  0
   56.4870   29.9100   42.8720 C   0  0  0  0  0  0  0  0  0  0  0  0
   57.0380   31.1370   42.4960 C   0  0  0  0  0  0  0  0  0  0  0  0
   57.7640   31.8940   43.4200 C   0  0  0  0  0  0  0  0  0  0  0  0
   58.2910   33.0840   43.0350 F   0  0  0  0  0  0  0  0  0  0  0  0
   59.8670   31.7300   46.3440 C   0  0  0  0  0  0  0  0  0  0  0  0
   60.3030   30.5910   46.0130 O   0  0  0  0  0  0  0  0  0  0  0  0
   60.5200   32.4720   47.3010 N   0  0  0  0  0  0  0  0  0  0  0  0
   61.7360   31.9150   47.9250 C   0  0  0  0  0  0  0  0  0  0  0  0
   58.4470   33.2880   51.9680 C   0  0  0  0  0  0  0  0  0  0  0  0
   57.9930   32.1250   52.5880 C   0  0  0  0  0  0  0  0  0  0  0  0
   58.2920   30.8550   52.0560 C   0  0  0  0  0  0  0  0  0  0  0  0
   57.6390   29.6540   52.6490 C   0  0  0  0  0  0  0  0  0  0  0  0
   58.2770   28.9240   53.4560 O   0  0  0  0  0  0  0  0  0  0  0  0
   56.2700   29.3430   52.3590 N   0  0  0  0  0  0  0  0  0  0  0  0
   55.1960   30.3270   52.4440 C   0  0  0  0  0  0  0  0  0  0  0  0
   54.0860   29.9670   51.4530 C   0  0  0  0  0  0  0  0  0  0  0  0
   52.7610   30.6490   51.8200 C   0  0  0  0  0  0  0  0  0  0  0  0
   51.7740   30.6480   50.6470 C   0  0  0  0  0  0  0  0  0  0  0  0
   51.0540   31.9550   50.5240 C   0  0  0  0  0  0  0  0  0  0  0  0
   50.6610   32.3580   49.4000 O   0  0  0  0  0  0  0  0  0  0  0  0
   50.7830   32.7070   51.6580 O   0  0  0  0  0  0  0  0  0  0  0  0
   59.7058   28.1171   48.8828 H   0  0  0  0  0  0  0  0  0  0  0  0
   58.5693   29.4635   48.5332 H   0  0  0  0  0  0  0  0  0  0  0  0
   60.3408   29.7606   48.5332 H   0  0  0  0  0  0  0  0  0  0  0  0
   60.2868   31.8962   49.4595 H   0  0  0  0  0  0  0  0  0  0  0  0
   59.1420   35.3090   50.3660 H   0  0  0  0  0  0  0  0  0  0  0  0
   60.7342   35.4462   48.6967 H   0  0  0  0  0  0  0  0  0  0  0  0
   61.4041   33.8895   49.3212 H   0  0  0  0  0  0  0  0  0  0  0  0
   58.5036   35.2123   47.3377 H   0  0  0  0  0  0  0  0  0  0  0  0
   57.3750   33.9196   45.5394 H   0  0  0  0  0  0  0  0  0  0  0  0
   56.2270   28.4685   44.4678 H   0  0  0  0  0  0  0  0  0  0  0  0
   55.9135   29.3184   42.1433 H   0  0  0  0  0  0  0  0  0  0  0  0
   56.9003   31.5087   41.4699 H   0  0  0  0  0  0  0  0  0  0  0  0
   61.6395   31.9592   49.0199 H   0  0  0  0  0  0  0  0  0  0  0  0
   61.8634   30.8688   47.6101 H   0  0  0  0  0  0  0  0  0  0  0  0
   62.6115   32.5019   47.6101 H   0  0  0  0  0  0  0  0  0  0  0  0
   58.2051   34.2701   52.4004 H   0  0  0  0  0  0  0  0  0  0  0  0
   57.3923   32.1998   53.5064 H   0  0  0  0  0  0  0  0  0  0  0  0
   54.7865   30.3339   53.4649 H   0  0  0  0  0  0  0  0  0  0  0  0
   55.5942   31.3226   52.1987 H   0  0  0  0  0  0  0  0  0  0  0  0
   54.3874   30.2904   50.4458 H   0  0  0  0  0  0  0  0  0  0  0  0
   53.9342   28.8780   51.4857 H   0  0  0  0  0  0  0  0  0  0  0  0
   52.3076   30.1130   52.6668 H   0  0  0  0  0  0  0  0  0  0  0  0
   52.9771   31.6950   52.0830 H   0  0  0  0  0  0  0  0  0  0  0  0
   52.3280   30.4578   49.7159 H   0  0  0  0  0  0  0  0  0  0  0  0
   51.0264   29.8622   50.8303 H   0  0  0  0  0  0  0  0  0  0  0  0
  1  2  1  0
  2  3  1  0
  3  4  2  0
  4  5  1  0
  5  6  1  0
  6  7  1  0
  7  8  1  0
  8  9  2  0
  9 10  1  0
 10 11  2  0
 11 12  1  0
 12 13  2  0
 13 14  1  0
 13 15  1  0
 15 16  2  0
 16 17  1  0
 17 18  2  0
 18 19  1  0
 11 20  1  0
 20 21  2  0
 20 22  1  0
 22 23  1  0
  5 24  2  0
 24 25  1  0
 25 26  2  0
 26 27  1  0
 27 28  2  0
 27 29  1  0
 29 30  1  0
 30 31  1  0
 31 32  1  0
 32 33  1  0
 33 34  1  0
 34 35  2  0
 34 36  1  0
 26  3  1  0
 22  8  1  0
 18 12  1  0
  1 37  1  0
  1 38  1  0
  1 39  1  0
  4 40  1  0
  6 41  1  0
  7 42  1  0
  7 43  1  0
  9 44  1  0
 10 45  1  0
 15 46  1  0
 16 47  1  0
 17 48  1  0
 23 49  1  0
 23 50  1  0
 23 51  1  0
 24 52  1  0
 25 53  1  0
 30 54  1  0
 30 55  1  0
 31 56  1  0
 31 57  1  0
 32 58  1  0
 32 59  1  0
 33 60  1  0
 33 61  1  0
M  CHG  2  29  -1  36  -1
M  END
>  <UniqueID>  (37) 
33

>  <SMILES>  (37) 
COc1cc(NCc2ccc(-c3c(F)cccc3F)c(=O)n2C)ccc1C(=O)[N-]CCCCC(=O)[O-]

>  <Energy>  (37) 
71.87170267229271

>  <Genealogy>  (37) 
COc1cc(NCc2ccc(-c3c(F)cccc3F)c(=O)n2C)ccc1C(=O)[N-]CCCCC(=O)[O-] (protonated)
COc1cc(NCc2ccc(-c3c(F)cccc3F)c(=O)n2C)ccc1C(=O)[N-]CCCCC(=O)[O-] (3D coordinates assigned)
COc1cc(NCc2ccc(-c3c(F)cccc3F)c(=O)n2C)ccc1C(=O)[N-]CCCCC(=O)[O-] (optimized conformer: 71.87170267229271 kcal/mol)

>  <smiles>  (37) 
COc1cc(NCc2ccc(-c3c(F)cccc3F)c(=O)n2C)ccc1C(=O)NCCCCC(=O)O

>  <score_type>  (37) 
oracle

>  <origin>  (37) 
adg

>  <m_score__min__energy>  (37) 
-14.31

>  <m_primary>  (37) 
energy

$$$$
37:0
     RDKit          3D

 58 60  0  0  0  0  0  0  0  0999 V2000
   60.3830   28.2190   45.5130 C   0  0  0  0  0  0  0  0  0  0  0  0
   59.6250   28.8030   46.4460 C   0  0  0  0  0  0  0  0  0  0  0  0
   58.1420   28.5750   46.5140 C   0  0  0  0  0  0  0  0  0  0  0  0
   57.4330   29.3330   45.4200 C   0  0  0  0  0  0  0  0  0  0  0  0
   58.0670   30.4270   44.8050 C   0  0  0  0  0  0  0  0  0  0  0  0
   57.4270   31.1430   43.7800 C   0  0  0  0  0  0  0  0  0  0  0  0
   58.1160   32.2850   43.1330 C   0  0  0  0  0  0  0  0  0  0  0  0
   58.3570   32.2300   41.8970 O   0  0  0  0  0  0  0  0  0  0  0  0
   58.5170   33.5010   43.8690 C   0  0  0  0  0  0  0  0  0  0  0  0
   58.0980   33.7580   45.1170 C   0  0  0  0  0  0  0  0  0  0  0  0
   58.9310   33.5810   46.3330 C   0  0  0  0  0  0  0  0  0  0  0  0
   60.0330   34.4090   46.6330 C   0  0  0  0  0  0  0  0  0  0  0  0
   60.7820   34.1960   47.7930 C   0  0  0  0  0  0  0  0  0  0  0  0
   60.4600   33.1480   48.6640 C   0  0  0  0  0  0  0  0  0  0  0  0
   61.1940   32.9580   49.8350 O   0  0  0  0  0  0  0  0  0  0  0  0
   59.3880   32.2930   48.3560 C   0  0  0  0  0  0  0  0  0  0  0  0
   59.0280   31.1760   49.2460 C   0  0  0  0  0  0  0  0  0  0  0  0
   59.8410   30.1440   49.4990 C   0  0  0  0  0  0  0  0  0  0  0  0
   60.8370   30.0130   50.9510 S   0  0  0  0  0  0  0  0  0  0  0  0
   62.0870   30.8360   50.8180 O   0  0  0  0  0  0  0  0  0  0  0  0
   61.2100   28.5740   51.1740 O   0  0  0  0  0  0  0  0  0  0  0  0
   59.9320   30.5580   52.3250 N   0  0  0  0  0  0  0  0  0  0  0  0
   58.5150   30.7870   52.3570 C   0  0  0  0  0  0  0  0  0  0  0  0
   57.5990   29.7160   52.3780 C   0  0  0  0  0  0  0  0  0  0  0  0
   56.2240   29.9610   52.3970 C   0  0  0  0  0  0  0  0  0  0  0  0
   55.7460   31.2690   52.3890 C   0  0  0  0  0  0  0  0  0  0  0  0
   56.6420   32.3410   52.3600 C   0  0  0  0  0  0  0  0  0  0  0  0
   58.0270   32.1110   52.3550 C   0  0  0  0  0  0  0  0  0  0  0  0
   59.1360   33.4870   52.2980 S   0  0  0  0  0  0  0  0  0  0  0  0
   60.7390   32.9840   52.7070 N   0  0  0  0  0  0  0  0  0  0  0  0
   59.1550   34.0710   50.9130 O   0  0  0  0  0  0  0  0  0  0  0  0
   58.6800   34.5290   53.2790 O   0  0  0  0  0  0  0  0  0  0  0  0
   58.6230   32.5240   47.2050 C   0  0  0  0  0  0  0  0  0  0  0  0
   56.1520   30.7340   43.3510 C   0  0  0  0  0  0  0  0  0  0  0  0
   55.5250   29.6380   43.9460 C   0  0  0  0  0  0  0  0  0  0  0  0
   56.1600   28.9320   44.9710 C   0  0  0  0  0  0  0  0  0  0  0  0
   55.5230   27.8330   45.5380 O   0  0  0  0  0  0  0  0  0  0  0  0
   61.4668   28.4056   45.4889 H   0  0  0  0  0  0  0  0  0  0  0  0
   59.9231   27.5517   44.7692 H   0  0  0  0  0  0  0  0  0  0  0  0
   60.0994   29.4677   47.1830 H   0  0  0  0  0  0  0  0  0  0  0  0
   57.9367   27.5004   46.3996 H   0  0  0  0  0  0  0  0  0  0  0  0
   57.7744   28.9336   47.4868 H   0  0  0  0  0  0  0  0  0  0  0  0
   59.0747   30.7252   45.1300 H   0  0  0  0  0  0  0  0  0  0  0  0
   59.1842   34.2229   43.3753 H   0  0  0  0  0  0  0  0  0  0  0  0
   57.0691   34.1241   45.2481 H   0  0  0  0  0  0  0  0  0  0  0  0
   60.3042   35.2272   45.9496 H   0  0  0  0  0  0  0  0  0  0  0  0
   61.6309   34.8564   48.0237 H   0  0  0  0  0  0  0  0  0  0  0  0
   60.7680   32.5830   50.6730 H   0  0  0  0  0  0  0  0  0  0  0  0
   58.0392   31.1911   49.7278 H   0  0  0  0  0  0  0  0  0  0  0  0
   59.8918   29.3306   48.7602 H   0  0  0  0  0  0  0  0  0  0  0  0
   57.9694   28.6803   52.3794 H   0  0  0  0  0  0  0  0  0  0  0  0
   55.5169   29.1186   52.4183 H   0  0  0  0  0  0  0  0  0  0  0  0
   54.6626   31.4584   52.4055 H   0  0  0  0  0  0  0  0  0  0  0  0
   56.2595   33.3722   52.3410 H   0  0  0  0  0  0  0  0  0  0  0  0
   61.0750   32.3730   51.9290 H   0  0  0  0  0  0  0  0  0  0  0  0
   57.7689   31.8680   46.9812 H   0  0  0  0  0  0  0  0  0  0  0  0
   55.6457   31.2808   42.5419 H   0  0  0  0  0  0  0  0  0  0  0  0
   54.5257   29.3285   43.6061 H   0  0  0  0  0  0  0  0  0  0  0  0
  1  2  2  0
  2  3  1  0
  3  4  1  0
  4  5  2  0
  5  6  1  0
  6  7  1  0
  7  8  2  0
  7  9  1  0
  9 10  2  3
 10 11  1  0
 11 12  2  0
 12 13  1  0
 13 14  2  0
 14 15  1  0
 14 16  1  0
 16 17  1  0
 17 18  2  3
 18 19  1  0
 19 20  2  0
 19 21  2  0
 19 22  1  0
 22 23  1  0
 23 24  2  0
 24 25  1  0
 25 26  2  0
 26 27  1  0
 27 28  2  0
 28 29  1  0
 29 30  1  0
 29 31  2  0
 29 32  2  0
 16 33  2  0
  6 34  2  0
 34 35  1  0
 35 36  2  0
 36 37  1  0
 36  4  1  0
 33 11  1  0
 28 23  1  0
  1 38  1  0
  1 39  1  0
  2 40  1  0
  3 41  1  0
  3 42  1  0
  5 43  1  0
  9 44  1  0
 10 45  1  0
 12 46  1  0
 13 47  1  0
 15 48  1  0
 17 49  1  0
 18 50  1  0
 24 51  1  0
 25 52  1  0
 26 53  1  0
 27 54  1  0
 30 55  1  0
 33 56  1  0
 34 57  1  0
 35 58  1  0
M  CHG  3  22  -1  30  -1  37  -1
M  END
>  <UniqueID>  (38) 
34

>  <SMILES>  (38) 
C=CCc1cc(C(=O)C=Cc2ccc(O)c(C=CS(=O)(=O)[N-]c3ccccc3S([NH-])(=O)=O)c2)ccc1[O-]

>  <Energy>  (38) 
76.85221832777117

>  <Genealogy>  (38) 
C=CCc1cc(C(=O)C=Cc2ccc(O)c(C=CS(=O)(=O)[N-]c3ccccc3S([NH-])(=O)=O)c2)ccc1[O-] (protonated)
C=CCc1cc(C(=O)C=Cc2ccc(O)c(C=CS(=O)(=O)[N-]c3ccccc3S([NH-])(=O)=O)c2)ccc1[O-] (3D coordinates assigned)
C=CCc1cc(C(=O)C=Cc2ccc(O)c(C=CS(=O)(=O)[N-]c3ccccc3S([NH-])(=O)=O)c2)ccc1[O-] (optimized conformer: 76.85221832777117 kcal/mol)

>  <smiles>  (38) 
C=CCc1cc(C(=O)C=Cc2ccc(O)c(C=CS(=O)(=O)Nc3ccccc3S(N)(=O)=O)c2)ccc1O

>  <score_type>  (38) 
oracle

>  <origin>  (38) 
adg

>  <m_score__min__energy>  (38) 
-16.420000000000002

>  <m_primary>  (38) 
energy

$$$$
38:0
     RDKit          3D

 49 52  0  0  0  0  0  0  0  0999 V2000
   60.0280   33.8520   49.9680 C   0  0  0  0  0  0  0  0  0  0  0  0
   60.9670   33.8010   48.8010 C   0  0  0  0  0  0  0  0  0  0  0  0
   62.2900   33.5810   49.0390 N   0  0  0  0  0  0  0  0  0  0  0  0
   63.2040   33.5070   48.0380 C   0  0  0  0  0  0  0  0  0  0  0  0
   62.8020   33.6620   46.7140 C   0  0  0  0  0  0  0  0  0  0  0  0
   61.4560   33.8920   46.4310 C   0  0  0  0  0  0  0  0  0  0  0  0
   60.5120   33.9620   47.4700 C   0  0  0  0  0  0  0  0  0  0  0  0
   59.1190   34.2010   47.1890 N   0  0  0  0  0  0  0  0  0  0  0  0
   58.4260   34.0110   45.6090 S   0  0  0  0  0  0  0  0  0  0  0  0
   57.0480   34.6070   45.5940 O   0  0  0  0  0  0  0  0  0  0  0  0
   59.2840   34.7300   44.6060 O   0  0  0  0  0  0  0  0  0  0  0  0
   58.3030   32.2990   45.2140 C   0  0  0  0  0  0  0  0  0  0  0  0
   57.3520   31.8680   44.2820 C   0  0  0  0  0  0  0  0  0  0  0  0
   57.2290   30.5100   43.9770 C   0  0  0  0  0  0  0  0  0  0  0  0
   58.0600   29.5600   44.5980 C   0  0  0  0  0  0  0  0  0  0  0  0
   57.9280   28.1160   44.2780 C   0  0  0  0  0  0  0  0  0  0  0  0
   58.2590   27.6270   43.0030 C   0  0  0  0  0  0  0  0  0  0  0  0
   58.1400   26.3030   42.7230 N   0  0  0  0  0  0  0  0  0  0  0  0
   57.6970   25.4110   43.6470 C   0  0  0  0  0  0  0  0  0  0  0  0
   57.3390   25.8470   44.9330 C   0  0  0  0  0  0  0  0  0  0  0  0
   56.8940   24.9620   45.9260 O   0  0  0  0  0  0  0  0  0  0  0  0
   55.6750   24.2710   45.9010 C   0  0  0  0  0  0  0  0  0  0  0  0
   55.6870   22.8830   46.0880 C   0  0  0  0  0  0  0  0  0  0  0  0
   54.4920   22.1580   46.0720 C   0  0  0  0  0  0  0  0  0  0  0  0
   53.2740   22.8190   45.8820 C   0  0  0  0  0  0  0  0  0  0  0  0
   53.2500   24.2060   45.7210 C   0  0  0  0  0  0  0  0  0  0  0  0
   54.4430   24.9380   45.7420 C   0  0  0  0  0  0  0  0  0  0  0  0
   54.3940   26.3230   45.6300 O   0  0  0  0  0  0  0  0  0  0  0  0
   57.4700   27.2030   45.2420 C   0  0  0  0  0  0  0  0  0  0  0  0
   59.0190   30.0020   45.5290 C   0  0  0  0  0  0  0  0  0  0  0  0
   59.1380   31.3610   45.8330 C   0  0  0  0  0  0  0  0  0  0  0  0
   60.6046   33.8207   50.9042 H   0  0  0  0  0  0  0  0  0  0  0  0
   59.4438   34.7832   49.9281 H   0  0  0  0  0  0  0  0  0  0  0  0
   59.3464   32.9896   49.9281 H   0  0  0  0  0  0  0  0  0  0  0  0
   64.2630   33.3245   48.2731 H   0  0  0  0  0  0  0  0  0  0  0  0
   63.5388   33.6036   45.8993 H   0  0  0  0  0  0  0  0  0  0  0  0
   61.1310   34.0195   45.3879 H   0  0  0  0  0  0  0  0  0  0  0  0
   58.4530   34.3960   47.9680 H   0  0  0  0  0  0  0  0  0  0  0  0
   56.6985   32.6016   43.7874 H   0  0  0  0  0  0  0  0  0  0  0  0
   56.4763   30.1812   43.2454 H   0  0  0  0  0  0  0  0  0  0  0  0
   58.6165   28.3201   42.2272 H   0  0  0  0  0  0  0  0  0  0  0  0
   57.6186   24.3450   43.3873 H   0  0  0  0  0  0  0  0  0  0  0  0
   56.6417   22.3607   46.2483 H   0  0  0  0  0  0  0  0  0  0  0  0
   54.5095   21.0667   46.2089 H   0  0  0  0  0  0  0  0  0  0  0  0
   52.3351   22.2463   45.8594 H   0  0  0  0  0  0  0  0  0  0  0  0
   52.2908   24.7248   45.5773 H   0  0  0  0  0  0  0  0  0  0  0  0
   57.2119   27.5592   46.2502 H   0  0  0  0  0  0  0  0  0  0  0  0
   59.6794   29.2726   46.0207 H   0  0  0  0  0  0  0  0  0  0  0  0
   59.8911   31.6951   46.5619 H   0  0  0  0  0  0  0  0  0  0  0  0
  1  2  1  0
  2  3  2  0
  3  4  1  0
  4  5  2  0
  5  6  1  0
  6  7  2  0
  7  8  1  0
  8  9  1  0
  9 10  2  0
  9 11  2  0
  9 12  1  0
 12 13  2  0
 13 14  1  0
 14 15  2  0
 15 16  1  0
 16 17  2  0
 17 18  1  0
 18 19  2  0
 19 20  1  0
 20 21  1  0
 21 22  1  0
 22 23  2  0
 23 24  1  0
 24 25  2  0
 25 26  1  0
 26 27  2  0
 27 28  1  0
 20 29  2  0
 15 30  1  0
 30 31  2  0
  7  2  1  0
 31 12  1  0
 29 16  1  0
 27 22  1  0
  1 32  1  0
  1 33  1  0
  1 34  1  0
  4 35  1  0
  5 36  1  0
  6 37  1  0
  8 38  1  0
 13 39  1  0
 14 40  1  0
 17 41  1  0
 19 42  1  0
 23 43  1  0
 24 44  1  0
 25 45  1  0
 26 46  1  0
 29 47  1  0
 30 48  1  0
 31 49  1  0
M  CHG  1  28  -1
M  END
>  <UniqueID>  (39) 
35

>  <SMILES>  (39) 
Cc1ncccc1NS(=O)(=O)c1ccc(-c2cncc(Oc3ccccc3[O-])c2)cc1

>  <Energy>  (39) 
71.59793916339102

>  <Genealogy>  (39) 
Cc1ncccc1NS(=O)(=O)c1ccc(-c2cncc(Oc3ccccc3[O-])c2)cc1 (protonated)
Cc1ncccc1NS(=O)(=O)c1ccc(-c2cncc(Oc3ccccc3[O-])c2)cc1 (3D coordinates assigned)
Cc1ncccc1NS(=O)(=O)c1ccc(-c2cncc(Oc3ccccc3[O-])c2)cc1 (optimized conformer: 71.59793916339102 kcal/mol)

>  <smiles>  (39) 
Cc1ncccc1NS(=O)(=O)c1ccc(-c2cncc(Oc3ccccc3O)c2)cc1

>  <score_type>  (39) 
oracle

>  <origin>  (39) 
adg

>  <m_score__min__energy>  (39) 
-13.48

>  <m_primary>  (39) 
energy

$$$$
39:0
     RDKit          3D

 59 62  0  0  0  0  0  0  0  0999 V2000
   56.6390   30.2310   43.5280 C   0  0  0  0  0  0  0  0  0  0  0  0
   56.7060   30.7320   44.8610 O   0  0  0  0  0  0  0  0  0  0  0  0
   57.6470   31.6730   45.3080 C   0  0  0  0  0  0  0  0  0  0  0  0
   57.7010   32.9150   44.6690 C   0  0  0  0  0  0  0  0  0  0  0  0
   58.6230   33.8850   45.0730 C   0  0  0  0  0  0  0  0  0  0  0  0
   59.5130   33.6210   46.1250 C   0  0  0  0  0  0  0  0  0  0  0  0
   60.5190   34.6600   46.5420 C   0  0  0  0  0  0  0  0  0  0  0  0
   61.7170   34.0210   47.0860 N   0  0  0  0  0  0  0  0  0  0  0  0
   62.7330   33.4930   46.3730 C   0  0  0  0  0  0  0  0  0  0  0  0
   63.6670   32.9330   47.1680 N   0  0  0  0  0  0  0  0  0  0  0  0
   63.2260   33.1050   48.4280 C   0  0  0  0  0  0  0  0  0  0  0  0
   62.0170   33.7700   48.3800 C   0  0  0  0  0  0  0  0  0  0  0  0
   61.2000   34.1960   49.5670 C   0  0  0  0  0  0  0  0  0  0  0  0
   60.1270   33.2180   49.8360 N   0  0  0  0  0  0  0  0  0  0  0  0
   59.2620   33.6330   50.9750 C   0  0  0  0  0  0  0  0  0  0  0  0
   59.0590   32.5590   52.0600 C   0  0  0  0  0  0  0  0  0  0  0  0
   58.8350   31.2370   51.4600 N   0  0  0  0  0  0  0  0  0  0  0  0
   57.9960   30.2560   52.0990 C   0  0  0  0  0  0  0  0  0  0  0  0
   57.4040   29.3940   51.3930 O   0  0  0  0  0  0  0  0  0  0  0  0
   57.8850   30.1570   53.6010 C   0  0  0  0  0  0  0  0  0  0  0  0
   56.6000   30.8170   54.1150 C   0  0  0  0  0  0  0  0  0  0  0  0
   55.3930   30.3780   53.3410 C   0  0  0  0  0  0  0  0  0  0  0  0
   54.6450   29.2310   53.5740 C   0  0  0  0  0  0  0  0  0  0  0  0
   53.6020   29.0590   52.6560 C   0  0  0  0  0  0  0  0  0  0  0  0
   53.5240   30.0680   51.7040 C   0  0  0  0  0  0  0  0  0  0  0  0
   54.7540   31.1730   52.0040 S   0  0  0  0  0  0  0  0  0  0  0  0
   59.5740   30.8570   50.2520 C   0  0  0  0  0  0  0  0  0  0  0  0
   60.6890   31.8620   49.9670 C   0  0  0  0  0  0  0  0  0  0  0  0
   59.4570   32.3790   46.7740 C   0  0  0  0  0  0  0  0  0  0  0  0
   58.5320   31.4100   46.3710 C   0  0  0  0  0  0  0  0  0  0  0  0
   56.4932   29.1410   43.5529 H   0  0  0  0  0  0  0  0  0  0  0  0
   55.7958   30.7018   43.0013 H   0  0  0  0  0  0  0  0  0  0  0  0
   57.5763   30.4637   43.0013 H   0  0  0  0  0  0  0  0  0  0  0  0
   57.0111   33.1313   43.8400 H   0  0  0  0  0  0  0  0  0  0  0  0
   58.6509   34.8597   44.5638 H   0  0  0  0  0  0  0  0  0  0  0  0
   60.7972   35.2665   45.6675 H   0  0  0  0  0  0  0  0  0  0  0  0
   60.0716   35.2983   47.3182 H   0  0  0  0  0  0  0  0  0  0  0  0
   62.7924   33.5165   45.2749 H   0  0  0  0  0  0  0  0  0  0  0  0
   64.5480   32.4640   46.8680 H   0  0  0  0  0  0  0  0  0  0  0  0
   63.7414   32.7722   49.3410 H   0  0  0  0  0  0  0  0  0  0  0  0
   61.8535   34.2677   50.4489 H   0  0  0  0  0  0  0  0  0  0  0  0
   60.7437   35.1735   49.3517 H   0  0  0  0  0  0  0  0  0  0  0  0
   59.7195   34.5144   51.4481 H   0  0  0  0  0  0  0  0  0  0  0  0
   58.2675   33.8339   50.5499 H   0  0  0  0  0  0  0  0  0  0  0  0
   59.9552   32.5175   52.6965 H   0  0  0  0  0  0  0  0  0  0  0  0
   58.1739   32.8269   52.6556 H   0  0  0  0  0  0  0  0  0  0  0  0
   57.8817   29.0956   53.8898 H   0  0  0  0  0  0  0  0  0  0  0  0
   58.7436   30.6815   54.0455 H   0  0  0  0  0  0  0  0  0  0  0  0
   56.4610   30.5473   55.1723 H   0  0  0  0  0  0  0  0  0  0  0  0
   56.7048   31.9050   53.9916 H   0  0  0  0  0  0  0  0  0  0  0  0
   54.8511   28.5295   54.3958 H   0  0  0  0  0  0  0  0  0  0  0  0
   52.9092   28.2051   52.6857 H   0  0  0  0  0  0  0  0  0  0  0  0
   52.7838   30.1325   50.8928 H   0  0  0  0  0  0  0  0  0  0  0  0
   60.0143   29.8593   50.3961 H   0  0  0  0  0  0  0  0  0  0  0  0
   58.8792   30.8459   49.3993 H   0  0  0  0  0  0  0  0  0  0  0  0
   61.4131   31.8466   50.7949 H   0  0  0  0  0  0  0  0  0  0  0  0
   61.1897   31.5873   49.0269 H   0  0  0  0  0  0  0  0  0  0  0  0
   60.1449   32.1654   47.6054 H   0  0  0  0  0  0  0  0  0  0  0  0
   58.4959   30.4390   46.8865 H   0  0  0  0  0  0  0  0  0  0  0  0
  1  2  1  0
  2  3  1  0
  3  4  2  0
  4  5  1  0
  5  6  2  0
  6  7  1  0
  7  8  1  0
  8  9  1  0
  9 10  2  0
 10 11  1  0
 11 12  2  0
 12 13  1  0
 13 14  1  0
 14 15  1  0
 15 16  1  0
 16 17  1  0
 17 18  1  0
 18 19  2  0
 18 20  1  0
 20 21  1  0
 21 22  1  0
 22 23  2  0
 23 24  1  0
 24 25  2  0
 25 26  1  0
 17 27  1  0
 27 28  1  0
  6 29  1  0
 29 30  2  0
 30  3  1  0
 12  8  1  0
 28 14  1  0
 26 22  1  0
  1 31  1  0
  1 32  1  0
  1 33  1  0
  4 34  1  0
  5 35  1  0
  7 36  1  0
  7 37  1  0
  9 38  1  0
 10 39  1  0
 11 40  1  0
 13 41  1  0
 13 42  1  0
 15 43  1  0
 15 44  1  0
 16 45  1  0
 16 46  1  0
 20 47  1  0
 20 48  1  0
 21 49  1  0
 21 50  1  0
 23 51  1  0
 24 52  1  0
 25 53  1  0
 27 54  1  0
 27 55  1  0
 28 56  1  0
 28 57  1  0
 29 58  1  0
 30 59  1  0
M  CHG  1  10   1
M  END
>  <UniqueID>  (40) 
36

>  <SMILES>  (40) 
COc1ccc(Cn2c[nH+]cc2CN2CCN(C(=O)CCc3cccs3)CC2)cc1

>  <Energy>  (40) 
116.86638727293348

>  <Genealogy>  (40) 
COc1ccc(Cn2c[nH+]cc2CN2CCN(C(=O)CCc3cccs3)CC2)cc1 (protonated)
COc1ccc(Cn2c[nH+]cc2CN2CCN(C(=O)CCc3cccs3)CC2)cc1 (3D coordinates assigned)
COc1ccc(Cn2c[nH+]cc2CN2CCN(C(=O)CCc3cccs3)CC2)cc1 (nonaromatic ring conformer: 116.86638727293348 kcal/mol)

>  <smiles>  (40) 
COc1ccc(Cn2cncc2CN2CCN(C(=O)CCc3cccs3)CC2)cc1

>  <score_type>  (40) 
oracle

>  <origin>  (40) 
adg

>  <m_score__min__energy>  (40) 
-7.8799999999999999

>  <m_primary>  (40) 
energy

$$$$
40:0
     RDKit          3D

 51 53  0  0  0  0  0  0  0  0999 V2000
   55.4230   26.6960   46.0050 N   0  0  0  0  0  0  0  0  0  0  0  0
   56.9780   25.9640   46.2030 S   0  0  0  0  0  0  0  0  0  0  0  0
   57.2290   25.0570   45.0310 O   0  0  0  0  0  0  0  0  0  0  0  0
   57.0010   25.1510   47.4670 O   0  0  0  0  0  0  0  0  0  0  0  0
   58.2210   27.2200   46.2850 C   0  0  0  0  0  0  0  0  0  0  0  0
   59.1140   27.2230   47.3690 C   0  0  0  0  0  0  0  0  0  0  0  0
   60.1310   28.1760   47.4480 C   0  0  0  0  0  0  0  0  0  0  0  0
   60.2660   29.1380   46.4500 C   0  0  0  0  0  0  0  0  0  0  0  0
   59.3820   29.1540   45.3700 C   0  0  0  0  0  0  0  0  0  0  0  0
   58.3530   28.1990   45.2700 C   0  0  0  0  0  0  0  0  0  0  0  0
   57.4410   28.2400   44.1570 N   0  0  0  0  0  0  0  0  0  0  0  0
   56.3690   29.5750   43.8770 S   0  0  0  0  0  0  0  0  0  0  0  0
   55.9110   29.5550   42.4460 O   0  0  0  0  0  0  0  0  0  0  0  0
   55.1720   29.4450   44.7760 O   0  0  0  0  0  0  0  0  0  0  0  0
   57.2180   31.0890   44.1750 C   0  0  0  0  0  0  0  0  0  0  0  0
   57.6910   31.8680   43.1100 C   0  0  0  0  0  0  0  0  0  0  0  0
   58.3440   33.0790   43.3610 C   0  0  0  0  0  0  0  0  0  0  0  0
   58.5200   33.5290   44.6790 C   0  0  0  0  0  0  0  0  0  0  0  0
   59.2550   34.8130   44.9530 C   0  0  0  0  0  0  0  0  0  0  0  0
   60.0140   34.7250   46.2780 C   0  0  0  0  0  0  0  0  0  0  0  0
   59.0860   34.8530   47.4030 N   0  0  0  0  0  0  0  0  0  0  0  0
   59.5370   33.7990   48.7120 S   0  0  0  0  0  0  0  0  0  0  0  0
   58.5530   32.6680   48.8280 O   0  0  0  0  0  0  0  0  0  0  0  0
   59.5210   34.5780   49.9980 O   0  0  0  0  0  0  0  0  0  0  0  0
   61.1610   33.1690   48.4460 C   0  0  0  0  0  0  0  0  0  0  0  0
   62.2680   33.8610   48.9550 C   0  0  0  0  0  0  0  0  0  0  0  0
   63.5610   33.3760   48.7370 C   0  0  0  0  0  0  0  0  0  0  0  0
   63.7540   32.2010   48.0050 C   0  0  0  0  0  0  0  0  0  0  0  0
   62.6530   31.5100   47.4890 C   0  0  0  0  0  0  0  0  0  0  0  0
   61.3590   31.9920   47.7080 C   0  0  0  0  0  0  0  0  0  0  0  0
   58.0580   32.7390   45.7440 C   0  0  0  0  0  0  0  0  0  0  0  0
   57.4070   31.5280   45.4910 C   0  0  0  0  0  0  0  0  0  0  0  0
   55.5270   27.4450   45.2840 H   0  0  0  0  0  0  0  0  0  0  0  0
   59.0112   26.4681   48.1624 H   0  0  0  0  0  0  0  0  0  0  0  0
   60.8269   28.1671   48.2999 H   0  0  0  0  0  0  0  0  0  0  0  0
   61.0701   29.8859   46.5130 H   0  0  0  0  0  0  0  0  0  0  0  0
   59.4907   29.9209   44.5889 H   0  0  0  0  0  0  0  0  0  0  0  0
   57.4720   27.4980   43.4240 H   0  0  0  0  0  0  0  0  0  0  0  0
   57.5482   31.5260   42.0743 H   0  0  0  0  0  0  0  0  0  0  0  0
   58.7214   33.6817   42.5218 H   0  0  0  0  0  0  0  0  0  0  0  0
   59.9698   35.0016   44.1385 H   0  0  0  0  0  0  0  0  0  0  0  0
   58.5252   35.6337   45.0155 H   0  0  0  0  0  0  0  0  0  0  0  0
   60.5268   33.7537   46.3389 H   0  0  0  0  0  0  0  0  0  0  0  0
   60.7491   35.5420   46.3250 H   0  0  0  0  0  0  0  0  0  0  0  0
   62.1193   34.7883   49.5277 H   0  0  0  0  0  0  0  0  0  0  0  0
   64.4273   33.9196   49.1419 H   0  0  0  0  0  0  0  0  0  0  0  0
   64.7717   31.8198   47.8348 H   0  0  0  0  0  0  0  0  0  0  0  0
   62.8052   30.5868   46.9106 H   0  0  0  0  0  0  0  0  0  0  0  0
   60.4943   31.4474   47.3009 H   0  0  0  0  0  0  0  0  0  0  0  0
   58.2088   33.0741   46.7808 H   0  0  0  0  0  0  0  0  0  0  0  0
   57.0416   30.9172   46.3297 H   0  0  0  0  0  0  0  0  0  0  0  0
  1  2  1  0
  2  3  2  0
  2  4  2  0
  2  5  1  0
  5  6  2  0
  6  7  1  0
  7  8  2  0
  8  9  1  0
  9 10  2  0
 10 11  1  0
 11 12  1  0
 12 13  2  0
 12 14  2  0
 12 15  1  0
 15 16  2  0
 16 17  1  0
 17 18  2  0
 18 19  1  0
 19 20  1  0
 20 21  1  0
 21 22  1  0
 22 23  2  0
 22 24  2  0
 22 25  1  0
 25 26  2  0
 26 27  1  0
 27 28  2  0
 28 29  1  0
 29 30  2  0
 18 31  1  0
 31 32  2  0
 10  5  1  0
 32 15  1  0
 30 25  1  0
  1 33  1  0
  6 34  1  0
  7 35  1  0
  8 36  1  0
  9 37  1  0
 11 38  1  0
 16 39  1  0
 17 40  1  0
 19 41  1  0
 19 42  1  0
 20 43  1  0
 20 44  1  0
 26 45  1  0
 27 46  1  0
 28 47  1  0
 29 48  1  0
 30 49  1  0
 31 50  1  0
 32 51  1  0
M  CHG  2   1  -1  21  -1
M  END
>  <UniqueID>  (41) 
37

>  <SMILES>  (41) 
[NH-]S(=O)(=O)c1ccccc1NS(=O)(=O)c1ccc(CC[N-]S(=O)(=O)c2ccccc2)cc1

>  <Energy>  (41) 
54.97190478963215

>  <Genealogy>  (41) 
[NH-]S(=O)(=O)c1ccccc1NS(=O)(=O)c1ccc(CC[N-]S(=O)(=O)c2ccccc2)cc1 (protonated)
[NH-]S(=O)(=O)c1ccccc1NS(=O)(=O)c1ccc(CC[N-]S(=O)(=O)c2ccccc2)cc1 (3D coordinates assigned)
[NH-]S(=O)(=O)c1ccccc1NS(=O)(=O)c1ccc(CC[N-]S(=O)(=O)c2ccccc2)cc1 (optimized conformer: 54.97190478963215 kcal/mol)

>  <smiles>  (41) 
NS(=O)(=O)c1ccccc1NS(=O)(=O)c1ccc(CCNS(=O)(=O)c2ccccc2)cc1

>  <score_type>  (41) 
oracle

>  <origin>  (41) 
adg

>  <m_score__min__energy>  (41) 
-14.91

>  <m_primary>  (41) 
energy

$$$$
41:0
     RDKit          3D

 33 34  0  0  0  0  0  0  0  0999 V2000
   58.8360   34.1050   46.5670 C   0  0  0  0  0  0  0  0  0  0  0  0
   57.9070   33.6160   45.5400 N   0  0  0  0  0  0  0  0  0  0  0  0
   57.0120   34.5740   44.8790 C   0  0  0  0  0  0  0  0  0  0  0  0
   57.8740   32.2090   45.1850 C   0  0  0  0  0  0  0  0  0  0  0  0
   58.1060   31.2100   46.1560 C   0  0  0  0  0  0  0  0  0  0  0  0
   58.0710   29.8570   45.8120 C   0  0  0  0  0  0  0  0  0  0  0  0
   57.7950   29.4700   44.4970 C   0  0  0  0  0  0  0  0  0  0  0  0
   57.7410   27.7310   44.0570 S   0  0  0  0  0  0  0  0  0  0  0  0
   58.1890   27.1910   45.7150 C   0  0  0  0  0  0  0  0  0  0  0  0
   57.4260   26.4260   46.5800 C   0  0  0  0  0  0  0  0  0  0  0  0
   56.0880   25.9600   46.3700 N   0  0  0  0  0  0  0  0  0  0  0  0
   55.2030   26.7210   45.9280 O   0  0  0  0  0  0  0  0  0  0  0  0
   55.7460   24.6830   46.7460 O   0  0  0  0  0  0  0  0  0  0  0  0
   58.1260   26.1680   47.7020 N   0  0  0  0  0  0  0  0  0  0  0  0
   59.3050   26.7950   47.5040 C   0  0  0  0  0  0  0  0  0  0  0  0
   60.7280   26.7370   48.7800 Br  0  0  0  0  0  0  0  0  0  0  0  0
   59.3670   27.4390   46.3180 N   0  0  0  0  0  0  0  0  0  0  0  0
   60.5190   28.1540   45.7710 C   0  0  0  0  0  0  0  0  0  0  0  0
   57.5770   30.4460   43.5220 C   0  0  0  0  0  0  0  0  0  0  0  0
   57.6120   31.8010   43.8590 C   0  0  0  0  0  0  0  0  0  0  0  0
   58.4262   33.8893   47.5648 H   0  0  0  0  0  0  0  0  0  0  0  0
   59.8072   33.6012   46.4527 H   0  0  0  0  0  0  0  0  0  0  0  0
   58.9705   35.1908   46.4527 H   0  0  0  0  0  0  0  0  0  0  0  0
   56.4698   35.1544   45.6400 H   0  0  0  0  0  0  0  0  0  0  0  0
   57.6042   35.2558   44.2509 H   0  0  0  0  0  0  0  0  0  0  0  0
   56.2916   34.0295   44.2509 H   0  0  0  0  0  0  0  0  0  0  0  0
   58.3168   31.5011   47.1956 H   0  0  0  0  0  0  0  0  0  0  0  0
   58.2615   29.0920   46.5792 H   0  0  0  0  0  0  0  0  0  0  0  0
   61.1376   28.5379   46.5956 H   0  0  0  0  0  0  0  0  0  0  0  0
   61.1167   27.4679   45.1529 H   0  0  0  0  0  0  0  0  0  0  0  0
   60.1694   28.9941   45.1529 H   0  0  0  0  0  0  0  0  0  0  0  0
   57.3766   30.1459   42.4829 H   0  0  0  0  0  0  0  0  0  0  0  0
   57.4334   32.5591   43.0822 H   0  0  0  0  0  0  0  0  0  0  0  0
  1  2  1  0
  2  3  1  0
  2  4  1  0
  4  5  2  0
  5  6  1  0
  6  7  2  0
  7  8  1  0
  8  9  1  0
  9 10  2  0
 10 11  1  0
 11 12  2  0
 11 13  1  0
 10 14  1  0
 14 15  2  0
 15 16  1  0
 15 17  1  0
 17 18  1  0
  7 19  1  0
 19 20  2  0
 20  4  1  0
 17  9  1  0
  1 21  1  0
  1 22  1  0
  1 23  1  0
  3 24  1  0
  3 25  1  0
  3 26  1  0
  5 27  1  0
  6 28  1  0
 18 29  1  0
 18 30  1  0
 18 31  1  0
 19 32  1  0
 20 33  1  0
M  CHG  2  11   1  13  -1
M  END
>  <UniqueID>  (42) 
38

>  <SMILES>  (42) 
CN(C)c1ccc(Sc2c([N+](=O)[O-])nc(Br)n2C)cc1

>  <Energy>  (42) 
60.809977087780084

>  <Genealogy>  (42) 
CN(C)c1ccc(Sc2c([N+](=O)[O-])nc(Br)n2C)cc1 (3D coordinates assigned)
CN(C)c1ccc(Sc2c([N+](=O)[O-])nc(Br)n2C)cc1 (optimized conformer: 60.809977087780084 kcal/mol)

>  <smiles>  (42) 
CN(C)c1ccc(Sc2c([N+](=O)[O-])nc(Br)n2C)cc1

>  <score_type>  (42) 
oracle

>  <origin>  (42) 
adg

>  <m_score__min__energy>  (42) 
-7.3899999999999997

>  <m_primary>  (42) 
energy

$$$$
42:0
     RDKit          3D

 43 47  0  0  0  0  0  0  0  0999 V2000
   58.4148   26.6592   44.1574 H   0  0  0  0  0  0  0  0  0  0  0  0
   57.7610   26.9870   44.9790 C   0  0  0  0  0  0  0  0  0  0  0  0
   57.1850   25.9550   45.8600 C   0  0  0  0  0  0  0  0  0  0  0  0
   57.8720   24.8790   46.2800 N   0  0  0  0  0  0  0  0  0  0  0  0
   56.9560   24.1760   46.9820 C   0  0  0  0  0  0  0  0  0  0  0  0
   57.2300   23.0890   47.5540 O   0  0  0  0  0  0  0  0  0  0  0  0
   55.7240   24.7250   47.0140 N   0  0  0  0  0  0  0  0  0  0  0  0
   55.8810   25.8450   46.2900 C   0  0  0  0  0  0  0  0  0  0  0  0
   54.8390   26.7140   45.9870 O   0  0  0  0  0  0  0  0  0  0  0  0
   57.5360   28.3000   45.1190 C   0  0  0  0  0  0  0  0  0  0  0  0
   56.5420   29.0950   44.5460 C   0  0  0  0  0  0  0  0  0  0  0  0
   55.7796   28.7415   43.8363 H   0  0  0  0  0  0  0  0  0  0  0  0
   56.6580   30.3680   44.9960 N   0  0  0  0  0  0  0  0  0  0  0  0
   57.6850   30.3960   45.8310 N   0  0  0  0  0  0  0  0  0  0  0  0
   58.1910   31.4490   46.5370 C   0  0  0  0  0  0  0  0  0  0  0  0
   57.7020   32.6540   46.4710 N   0  0  0  0  0  0  0  0  0  0  0  0
   57.3700   33.3920   45.2560 C   0  0  0  0  0  0  0  0  0  0  0  0
   56.2751   33.3159   45.3294 H   0  0  0  0  0  0  0  0  0  0  0  0
   58.3770   33.2180   44.1330 C   0  0  0  0  0  0  0  0  0  0  0  0
   59.2031   32.4997   44.2410 H   0  0  0  0  0  0  0  0  0  0  0  0
   58.3139   32.9834   43.0602 H   0  0  0  0  0  0  0  0  0  0  0  0
   58.3670   34.4960   44.9580 C   0  0  0  0  0  0  0  0  0  0  0  0
   59.1862   34.7024   45.6626 H   0  0  0  0  0  0  0  0  0  0  0  0
   58.2938   35.5694   44.7289 H   0  0  0  0  0  0  0  0  0  0  0  0
   59.2630   31.2150   47.3440 N   0  0  0  0  0  0  0  0  0  0  0  0
   59.8120   29.9670   47.4440 C   0  0  0  0  0  0  0  0  0  0  0  0
   60.8340   29.7850   48.2250 N   0  0  0  0  0  0  0  0  0  0  0  0
   61.1810   30.6670   49.3350 C   0  0  0  0  0  0  0  0  0  0  0  0
   60.2615   31.0651   49.7889 H   0  0  0  0  0  0  0  0  0  0  0  0
   61.7465   30.1022   50.0907 H   0  0  0  0  0  0  0  0  0  0  0  0
   62.0200   31.8020   48.8250 C   0  0  0  0  0  0  0  0  0  0  0  0
   62.6430   31.7120   47.5680 C   0  0  0  0  0  0  0  0  0  0  0  0
   62.5379   30.7962   46.9678 H   0  0  0  0  0  0  0  0  0  0  0  0
   63.3960   32.7840   47.0790 C   0  0  0  0  0  0  0  0  0  0  0  0
   63.8894   32.7063   46.0989 H   0  0  0  0  0  0  0  0  0  0  0  0
   63.5230   33.9540   47.8330 C   0  0  0  0  0  0  0  0  0  0  0  0
   64.1197   34.7941   47.4481 H   0  0  0  0  0  0  0  0  0  0  0  0
   62.8920   34.0570   49.0760 C   0  0  0  0  0  0  0  0  0  0  0  0
   63.0090   35.1950   49.8030 F   0  0  0  0  0  0  0  0  0  0  0  0
   62.1380   32.9870   49.5700 C   0  0  0  0  0  0  0  0  0  0  0  0
   61.6360   33.0740   50.5449 H   0  0  0  0  0  0  0  0  0  0  0  0
   59.2870   28.9300   46.7270 N   0  0  0  0  0  0  0  0  0  0  0  0
   58.2220   29.1770   45.9280 C   0  0  0  0  0  0  0  0  0  0  0  0
  1  2  1  0
  2  3  1  0
  3  4  1  0
  4  5  1  0
  5  6  2  0
  5  7  1  0
  7  8  1  0
  8  9  1  0
  2 10  2  3
 10 11  1  0
 11 12  1  0
 11 13  2  0
 13 14  1  0
 14 15  1  0
 15 16  2  0
 16 17  1  0
 17 18  1  0
 17 19  1  0
 19 20  1  0
 19 21  1  0
 19 22  1  0
 22 23  1  0
 22 24  1  0
 15 25  1  0
 25 26  1  0
 26 27  2  3
 27 28  1  0
 28 29  1  0
 28 30  1  0
 28 31  1  0
 31 32  2  0
 32 33  1  0
 32 34  1  0
 34 35  1  0
 34 36  2  0
 36 37  1  0
 36 38  1  0
 38 39  1  0
 38 40  2  0
 40 41  1  0
 26 42  1  0
 42 43  2  0
  8  3  2  0
 43 10  1  0
 43 14  1  0
 22 17  1  0
 40 31  1  0
M  CHG  4   4  -1   7  -1   9  -1  25  -1
M  END
>  <UniqueID>  (43) 
39

>  <SMILES>  (43) 
O=c1[n-]c([O-])c(C=c2cnn3/c(=N\C4CC4)[n-]c(=NCc4cccc(F)c4)nc23)[n-]1

>  <Energy>  (43) 
388.0192515057896

>  <Genealogy>  (43) 
O=c1[n-]c([O-])c(C=c2cnn3c(=NC4CC4)[n-]c(=NCc4cccc(F)c4)nc23)[n-]1 (protonated)
O=c1[n-]c([O-])c(C=c2cnn3/c(=N\C4CC4)[n-]c(=NCc4cccc(F)c4)nc23)[n-]1 (cis-trans isomerization)
O=c1[n-]c([O-])c(C=c2cnn3/c(=N\C4CC4)[n-]c(=NCc4cccc(F)c4)nc23)[n-]1 (3D coordinates assigned)
O=c1[n-]c([O-])c(C=c2cnn3/c(=N\C4CC4)[n-]c(=NCc4cccc(F)c4)nc23)[n-]1 (nonaromatic ring conformer: 388.0192515057896 kcal/mol)

>  <smiles>  (43) 
O=c1[nH]c(O)c(C=c2cnn3c(=NC4CC4)[nH]c(=NCc4cccc(F)c4)nc23)[nH]1

>  <score_type>  (43) 
oracle

>  <origin>  (43) 
adg

>  <m_score__min__energy>  (43) 
-17.719999999999999

>  <m_primary>  (43) 
energy

$$$$
43:0
     RDKit          3D

 53 56  0  0  0  0  0  0  0  0999 V2000
   64.7140   33.0410   49.8310 C   0  0  0  0  0  0  0  0  0  0  0  0
   63.5490   33.2830   48.9180 C   0  0  0  0  0  0  0  0  0  0  0  0
   63.7520   33.5280   47.5570 C   0  0  0  0  0  0  0  0  0  0  0  0
   62.6650   33.7920   46.7230 C   0  0  0  0  0  0  0  0  0  0  0  0
   61.3640   33.8340   47.2650 C   0  0  0  0  0  0  0  0  0  0  0  0
   60.3110   34.0840   46.5340 N   0  0  0  0  0  0  0  0  0  0  0  0
   59.0420   33.4110   46.5770 C   0  0  0  0  0  0  0  0  0  0  0  0
   58.3700   33.4630   47.6420 O   0  0  0  0  0  0  0  0  0  0  0  0
   58.4710   32.7410   45.3820 C   0  0  0  0  0  0  0  0  0  0  0  0
   58.5330   33.3660   44.1230 C   0  0  0  0  0  0  0  0  0  0  0  0
   58.0050   32.7360   42.9940 C   0  0  0  0  0  0  0  0  0  0  0  0
   57.4090   31.4780   43.1050 C   0  0  0  0  0  0  0  0  0  0  0  0
   57.3390   30.8420   44.3500 C   0  0  0  0  0  0  0  0  0  0  0  0
   56.6310   29.2350   44.4810 S   0  0  0  0  0  0  0  0  0  0  0  0
   55.1320   29.3490   44.5160 O   0  0  0  0  0  0  0  0  0  0  0  0
   57.0220   28.3950   43.2980 O   0  0  0  0  0  0  0  0  0  0  0  0
   57.1790   28.4840   45.9370 N   0  0  0  0  0  0  0  0  0  0  0  0
   57.2460   27.0630   46.0310 C   0  0  0  0  0  0  0  0  0  0  0  0
   56.0650   26.3190   46.1530 C   0  0  0  0  0  0  0  0  0  0  0  0
   56.1190   24.9240   46.2240 C   0  0  0  0  0  0  0  0  0  0  0  0
   57.3510   24.2680   46.1650 C   0  0  0  0  0  0  0  0  0  0  0  0
   58.5320   25.0050   46.0430 C   0  0  0  0  0  0  0  0  0  0  0  0
   58.4900   26.4110   45.9910 C   0  0  0  0  0  0  0  0  0  0  0  0
   59.6550   27.1810   45.8390 O   0  0  0  0  0  0  0  0  0  0  0  0
   60.0150   28.2810   46.6310 C   0  0  0  0  0  0  0  0  0  0  0  0
   60.6200   29.3830   46.0130 C   0  0  0  0  0  0  0  0  0  0  0  0
   60.9800   30.5060   46.7660 C   0  0  0  0  0  0  0  0  0  0  0  0
   60.7250   30.5390   48.1390 C   0  0  0  0  0  0  0  0  0  0  0  0
   60.1020   29.4520   48.7600 C   0  0  0  0  0  0  0  0  0  0  0  0
   59.7410   28.3290   48.0100 C   0  0  0  0  0  0  0  0  0  0  0  0
   57.8860   31.4650   45.4800 C   0  0  0  0  0  0  0  0  0  0  0  0
   61.1930   33.5880   48.5970 N   0  0  0  0  0  0  0  0  0  0  0  0
   62.2430   33.3290   49.4240 C   0  0  0  0  0  0  0  0  0  0  0  0
   64.3807   33.1102   50.8770 H   0  0  0  0  0  0  0  0  0  0  0  0
   65.1252   32.0383   49.6428 H   0  0  0  0  0  0  0  0  0  0  0  0
   65.4906   33.7970   49.6428 H   0  0  0  0  0  0  0  0  0  0  0  0
   64.7708   33.5127   47.1425 H   0  0  0  0  0  0  0  0  0  0  0  0
   62.8222   33.9664   45.6484 H   0  0  0  0  0  0  0  0  0  0  0  0
   59.0003   34.3572   44.0273 H   0  0  0  0  0  0  0  0  0  0  0  0
   58.0588   33.2324   42.0139 H   0  0  0  0  0  0  0  0  0  0  0  0
   56.9940   30.9862   42.2129 H   0  0  0  0  0  0  0  0  0  0  0  0
   55.0936   26.8336   46.1930 H   0  0  0  0  0  0  0  0  0  0  0  0
   55.1909   24.3425   46.3264 H   0  0  0  0  0  0  0  0  0  0  0  0
   57.3915   23.1699   46.2146 H   0  0  0  0  0  0  0  0  0  0  0  0
   59.4991   24.4839   45.9873 H   0  0  0  0  0  0  0  0  0  0  0  0
   60.8130   29.3654   44.9302 H   0  0  0  0  0  0  0  0  0  0  0  0
   61.4643   31.3637   46.2763 H   0  0  0  0  0  0  0  0  0  0  0  0
   61.0141   31.4196   48.7314 H   0  0  0  0  0  0  0  0  0  0  0  0
   59.8957   29.4807   49.8401 H   0  0  0  0  0  0  0  0  0  0  0  0
   59.2411   27.4802   48.4996 H   0  0  0  0  0  0  0  0  0  0  0  0
   57.8577   30.9517   46.4525 H   0  0  0  0  0  0  0  0  0  0  0  0
   60.2320   33.6100   49.0080 H   0  0  0  0  0  0  0  0  0  0  0  0
   62.0652   33.1548   50.4955 H   0  0  0  0  0  0  0  0  0  0  0  0
  1  2  1  0
  2  3  1  0
  3  4  2  0
  4  5  1  0
  5  6  2  3
  6  7  1  0
  7  8  2  0
  7  9  1  0
  9 10  2  0
 10 11  1  0
 11 12  2  0
 12 13  1  0
 13 14  1  0
 14 15  2  0
 14 16  2  0
 14 17  1  0
 17 18  1  0
 18 19  2  0
 19 20  1  0
 20 21  2  0
 21 22  1  0
 22 23  2  0
 23 24  1  0
 24 25  1  0
 25 26  2  0
 26 27  1  0
 27 28  2  0
 28 29  1  0
 29 30  2  0
 13 31  2  0
  5 32  1  0
 32 33  1  0
 33  2  2  0
 31  9  1  0
 23 18  1  0
 30 25  1  0
  1 34  1  0
  1 35  1  0
  1 36  1  0
  3 37  1  0
  4 38  1  0
 10 39  1  0
 11 40  1  0
 12 41  1  0
 19 42  1  0
 20 43  1  0
 21 44  1  0
 22 45  1  0
 26 46  1  0
 27 47  1  0
 28 48  1  0
 29 49  1  0
 30 50  1  0
 31 51  1  0
 32 52  1  0
 33 53  1  0
M  CHG  1  17  -1
M  END
>  <UniqueID>  (44) 
40

>  <SMILES>  (44) 
Cc1ccc(=NC(=O)c2cccc(S(=O)(=O)[N-]c3ccccc3Oc3ccccc3)c2)[nH]c1

>  <Energy>  (44) 
81.13395814340012

>  <Genealogy>  (44) 
Cc1ccc(=NC(=O)c2cccc(S(=O)(=O)[N-]c3ccccc3Oc3ccccc3)c2)[nH]c1 (protonated)
Cc1ccc(=NC(=O)c2cccc(S(=O)(=O)[N-]c3ccccc3Oc3ccccc3)c2)[nH]c1 (3D coordinates assigned)
Cc1ccc(=NC(=O)c2cccc(S(=O)(=O)[N-]c3ccccc3Oc3ccccc3)c2)[nH]c1 (optimized conformer: 81.13395814340012 kcal/mol)

>  <smiles>  (44) 
Cc1ccc(=NC(=O)c2cccc(S(=O)(=O)Nc3ccccc3Oc3ccccc3)c2)[nH]c1

>  <score_type>  (44) 
oracle

>  <origin>  (44) 
adg

>  <m_score__min__energy>  (44) 
-11.81

>  <m_primary>  (44) 
energy

$$$$
44:0
     RDKit          3D

 53 58  0  0  0  0  0  0  0  0999 V2000
   52.9297   32.1195   53.1767 H   0  0  0  0  0  0  0  0  0  0  0  0
   53.0350   31.2610   52.4970 C   0  0  0  0  0  0  0  0  0  0  0  0
   52.1950   31.2500   51.2840 C   0  0  0  0  0  0  0  0  0  0  0  0
   52.2550   30.3300   50.3040 N   0  0  0  0  0  0  0  0  0  0  0  0
   51.3860   30.7960   49.3820 C   0  0  0  0  0  0  0  0  0  0  0  0
   51.1510   30.1900   48.3040 O   0  0  0  0  0  0  0  0  0  0  0  0
   50.7940   31.9670   49.7020 N   0  0  0  0  0  0  0  0  0  0  0  0
   51.3270   32.2440   50.9030 C   0  0  0  0  0  0  0  0  0  0  0  0
   51.0240   33.3840   51.6370 O   0  0  0  0  0  0  0  0  0  0  0  0
   53.9180   30.3080   52.8390 C   0  0  0  0  0  0  0  0  0  0  0  0
   53.6020   29.1060   53.4610 C   0  0  0  0  0  0  0  0  0  0  0  0
   52.5933   28.7991   53.7745 H   0  0  0  0  0  0  0  0  0  0  0  0
   54.7250   28.3730   53.6210 N   0  0  0  0  0  0  0  0  0  0  0  0
   54.7330   27.4200   54.0320 H   0  0  0  0  0  0  0  0  0  0  0  0
   55.7500   29.0550   53.1220 N   0  0  0  0  0  0  0  0  0  0  0  0
   57.0750   28.7210   52.9940 C   0  0  0  0  0  0  0  0  0  0  0  0
   57.6150   27.6340   53.4720 N   0  0  0  0  0  0  0  0  0  0  0  0
   58.3520   27.4370   54.7120 C   0  0  0  0  0  0  0  0  0  0  0  0
   58.3478   26.3370   54.7186 H   0  0  0  0  0  0  0  0  0  0  0  0
   59.4080   28.4930   54.9890 C   0  0  0  0  0  0  0  0  0  0  0  0
   60.3228   28.2254   55.5381 H   0  0  0  0  0  0  0  0  0  0  0  0
   59.9848   29.1973   54.3715 H   0  0  0  0  0  0  0  0  0  0  0  0
   58.0740   28.5430   55.7140 C   0  0  0  0  0  0  0  0  0  0  0  0
   58.0229   28.3118   56.7882 H   0  0  0  0  0  0  0  0  0  0  0  0
   57.2846   29.2988   55.8390 H   0  0  0  0  0  0  0  0  0  0  0  0
   57.8860   29.5940   52.3360 N   0  0  0  0  0  0  0  0  0  0  0  0
   57.4080   30.7650   51.8180 C   0  0  0  0  0  0  0  0  0  0  0  0
   58.2940   31.6640   51.1220 N   0  0  0  0  0  0  0  0  0  0  0  0
   59.5940   31.9990   51.7270 C   0  0  0  0  0  0  0  0  0  0  0  0
   59.4297   32.3400   52.7598 H   0  0  0  0  0  0  0  0  0  0  0  0
   60.2253   31.0985   51.7061 H   0  0  0  0  0  0  0  0  0  0  0  0
   60.3100   33.1030   50.9480 C   0  0  0  0  0  0  0  0  0  0  0  0
   59.8016   34.0629   51.1214 H   0  0  0  0  0  0  0  0  0  0  0  0
   61.3537   33.1741   51.2882 H   0  0  0  0  0  0  0  0  0  0  0  0
   60.2830   32.7870   49.5150 N   0  0  0  0  0  0  0  0  0  0  0  0
   61.4660   32.8900   48.6990 C   0  0  0  0  0  0  0  0  0  0  0  0
   61.8410   31.8360   47.9200 N   0  0  0  0  0  0  0  0  0  0  0  0
   62.9590   31.8700   47.1490 C   0  0  0  0  0  0  0  0  0  0  0  0
   63.2255   31.0011   46.5294 H   0  0  0  0  0  0  0  0  0  0  0  0
   63.7700   33.0060   47.1420 C   0  0  0  0  0  0  0  0  0  0  0  0
   64.6719   33.0422   46.5133 H   0  0  0  0  0  0  0  0  0  0  0  0
   63.4230   34.0950   47.9420 C   0  0  0  0  0  0  0  0  0  0  0  0
   64.0563   34.9944   47.9527 H   0  0  0  0  0  0  0  0  0  0  0  0
   62.2710   34.0420   48.7290 C   0  0  0  0  0  0  0  0  0  0  0  0
   61.9956   34.8946   49.3672 H   0  0  0  0  0  0  0  0  0  0  0  0
   59.0100   32.4220   48.8780 C   0  0  0  0  0  0  0  0  0  0  0  0
   58.7640   33.1783   48.1180 H   0  0  0  0  0  0  0  0  0  0  0  0
   59.1307   31.4264   48.4261 H   0  0  0  0  0  0  0  0  0  0  0  0
   57.8590   32.3450   49.8900 C   0  0  0  0  0  0  0  0  0  0  0  0
   57.5277   33.3641   50.1384 H   0  0  0  0  0  0  0  0  0  0  0  0
   57.0323   31.7735   49.4428 H   0  0  0  0  0  0  0  0  0  0  0  0
   56.0910   31.0750   51.9680 N   0  0  0  0  0  0  0  0  0  0  0  0
   55.2870   30.2180   52.6360 C   0  0  0  0  0  0  0  0  0  0  0  0
  1  2  1  0
  2  3  1  0
  3  4  1  0
  4  5  1  0
  5  6  2  0
  5  7  1  0
  7  8  1  0
  8  9  1  0
  2 10  2  3
 10 11  1  0
 11 12  1  0
 11 13  2  0
 13 14  1  0
 13 15  1  0
 15 16  1  0
 16 17  2  0
 17 18  1  0
 18 19  1  0
 18 20  1  0
 20 21  1  0
 20 22  1  0
 20 23  1  0
 23 24  1  0
 23 25  1  0
 16 26  1  0
 26 27  2  0
 27 28  1  0
 28 29  1  0
 29 30  1  0
 29 31  1  0
 29 32  1  0
 32 33  1  0
 32 34  1  0
 32 35  1  0
 35 36  1  0
 36 37  2  0
 37 38  1  0
 38 39  1  0
 38 40  2  0
 40 41  1  0
 40 42  1  0
 42 43  1  0
 42 44  2  0
 44 45  1  0
 35 46  1  0
 46 47  1  0
 46 48  1  0
 46 49  1  0
 49 50  1  0
 49 51  1  0
 27 52  1  0
 52 53  2  0
  8  3  2  0
 53 10  1  0
 53 15  1  0
 23 18  1  0
 49 28  1  0
 44 36  1  0
M  CHG  4   4  -1   7  -1   9  -1  13   1
M  END
>  <UniqueID>  (45) 
41

>  <SMILES>  (45) 
O=c1[n-]c([O-])c(C=c2c[nH+]n3/c(=N\C4CC4)nc(N4CCN(c5ccccn5)CC4)nc23)[n-]1

>  <Energy>  (45) 
408.50850934164106

>  <Genealogy>  (45) 
O=c1[n-]c([O-])c(C=c2c[nH+]n3c(=NC4CC4)nc(N4CCN(c5ccccn5)CC4)nc23)[n-]1 (protonated)
O=c1[n-]c([O-])c(C=c2c[nH+]n3/c(=N\C4CC4)nc(N4CCN(c5ccccn5)CC4)nc23)[n-]1 (cis-trans isomerization)
O=c1[n-]c([O-])c(C=c2c[nH+]n3/c(=N\C4CC4)nc(N4CCN(c5ccccn5)CC4)nc23)[n-]1 (3D coordinates assigned)
O=c1[n-]c([O-])c(C=c2c[nH+]n3/c(=N\C4CC4)nc(N4CCN(c5ccccn5)CC4)nc23)[n-]1 (nonaromatic ring conformer: 408.50850934164106 kcal/mol)

>  <smiles>  (45) 
O=c1[nH]c(O)c(C=c2cnn3c(=NC4CC4)nc(N4CCN(c5ccccn5)CC4)nc23)[nH]1

>  <score_type>  (45) 
oracle

>  <origin>  (45) 
adg

>  <m_score__min__energy>  (45) 
-16.27

>  <m_primary>  (45) 
energy

$$$$
45:0
     RDKit          3D

 49 52  0  0  0  0  0  0  0  0999 V2000
   59.2260   29.4500   49.0100 C   0  0  0  0  0  0  0  0  0  0  0  0
   60.2930   28.8120   48.3170 O   0  0  0  0  0  0  0  0  0  0  0  0
   60.3680   27.4250   48.1660 C   0  0  0  0  0  0  0  0  0  0  0  0
   60.6200   26.6820   49.1530 O   0  0  0  0  0  0  0  0  0  0  0  0
   60.0960   26.8170   46.8270 C   0  0  0  0  0  0  0  0  0  0  0  0
   58.7910   27.3330   46.2810 C   0  0  0  0  0  0  0  0  0  0  0  0
   58.7360   28.6140   45.7120 C   0  0  0  0  0  0  0  0  0  0  0  0
   57.5340   29.1140   45.1940 C   0  0  0  0  0  0  0  0  0  0  0  0
   57.4920   30.4750   44.6400 C   0  0  0  0  0  0  0  0  0  0  0  0
   57.6380   30.6160   43.3980 O   0  0  0  0  0  0  0  0  0  0  0  0
   57.3150   31.6520   45.4460 N   0  0  0  0  0  0  0  0  0  0  0  0
   58.2960   32.5480   46.0730 C   0  0  1  0  0  0  0  0  0  0  0  0
   59.5890   31.7240   46.3080 C   0  0  0  0  0  0  0  0  0  0  0  0
   60.6780   32.6000   46.9610 C   0  0  2  0  0  0  0  0  0  0  0  0
   60.1640   33.1260   48.3180 C   0  0  0  0  0  0  0  0  0  0  0  0
   58.8860   33.9620   48.0950 C   0  0  1  0  0  0  0  0  0  0  0  0
   59.2070   35.1520   47.1630 C   0  0  0  0  0  0  0  0  0  0  0  0
   59.7250   34.6260   45.8050 C   0  0  1  0  0  0  0  0  0  0  0  0
   61.0010   33.7890   46.0320 C   0  0  0  0  0  0  0  0  0  0  0  0
   58.6380   33.7450   45.1460 C   0  0  0  0  0  0  0  0  0  0  0  0
   57.7960   33.0800   47.4430 C   0  0  0  0  0  0  0  0  0  0  0  0
   56.3560   28.3620   45.3250 C   0  0  0  0  0  0  0  0  0  0  0  0
   55.1460   28.8800   44.8700 O   0  0  0  0  0  0  0  0  0  0  0  0
   56.3960   27.0860   45.9110 C   0  0  0  0  0  0  0  0  0  0  0  0
   55.2380   26.3170   46.0340 O   0  0  0  0  0  0  0  0  0  0  0  0
   57.6110   26.5730   46.3860 C   0  0  0  0  0  0  0  0  0  0  0  0
   57.6370   25.3110   46.9710 O   0  0  0  0  0  0  0  0  0  0  0  0
   59.3845   29.3552   50.0944 H   0  0  0  0  0  0  0  0  0  0  0  0
   59.1954   30.5148   48.7356 H   0  0  0  0  0  0  0  0  0  0  0  0
   58.2735   28.9731   48.7356 H   0  0  0  0  0  0  0  0  0  0  0  0
   60.9097   27.0808   46.1354 H   0  0  0  0  0  0  0  0  0  0  0  0
   60.0353   25.7238   46.9331 H   0  0  0  0  0  0  0  0  0  0  0  0
   59.6452   29.2319   45.6721 H   0  0  0  0  0  0  0  0  0  0  0  0
   59.9583   31.3472   45.3428 H   0  0  0  0  0  0  0  0  0  0  0  0
   59.3580   30.8844   46.9801 H   0  0  0  0  0  0  0  0  0  0  0  0
   61.5883   32.0037   47.1214 H   0  0  0  0  0  0  0  0  0  0  0  0
   60.9369   33.7549   48.7840 H   0  0  0  0  0  0  0  0  0  0  0  0
   59.9357   32.2761   48.9780 H   0  0  0  0  0  0  0  0  0  0  0  0
   58.5222   34.3379   49.0627 H   0  0  0  0  0  0  0  0  0  0  0  0
   59.9781   35.7833   47.6286 H   0  0  0  0  0  0  0  0  0  0  0  0
   58.2939   35.7433   47.0000 H   0  0  0  0  0  0  0  0  0  0  0  0
   59.9570   35.4751   45.1453 H   0  0  0  0  0  0  0  0  0  0  0  0
   61.7742   34.4181   46.4971 H   0  0  0  0  0  0  0  0  0  0  0  0
   61.3678   33.4107   45.0664 H   0  0  0  0  0  0  0  0  0  0  0  0
   59.0100   33.3659   44.1827 H   0  0  0  0  0  0  0  0  0  0  0  0
   57.7324   34.3477   44.9831 H   0  0  0  0  0  0  0  0  0  0  0  0
   57.5709   32.2301   48.1041 H   0  0  0  0  0  0  0  0  0  0  0  0
   56.8882   33.6816   47.2883 H   0  0  0  0  0  0  0  0  0  0  0  0
   54.3130   26.7240   45.9740 H   0  0  0  0  0  0  0  0  0  0  0  0
  1  2  1  0
  2  3  1  0
  3  4  2  0
  3  5  1  0
  5  6  1  0
  6  7  2  0
  7  8  1  0
  8  9  1  0
  9 10  2  0
  9 11  1  0
 12 11  1  6
 12 13  1  0
 13 14  1  0
 14 15  1  0
 15 16  1  0
 16 17  1  0
 17 18  1  0
 18 19  1  0
 18 20  1  0
 16 21  1  0
  8 22  2  0
 22 23  1  0
 22 24  1  0
 24 25  1  0
 24 26  2  0
 26 27  1  0
 26  6  1  0
 20 12  1  0
 21 12  1  0
 19 14  1  0
  1 28  1  0
  1 29  1  0
  1 30  1  0
  5 31  1  0
  5 32  1  0
  7 33  1  0
 13 34  1  0
 13 35  1  0
 14 36  1  1
 15 37  1  0
 15 38  1  0
 16 39  1  1
 17 40  1  0
 17 41  1  0
 18 42  1  6
 19 43  1  0
 19 44  1  0
 20 45  1  0
 20 46  1  0
 21 47  1  0
 21 48  1  0
 25 49  1  0
M  CHG  3  11  -1  23  -1  27  -1
M  END
>  <UniqueID>  (46) 
42

>  <SMILES>  (46) 
COC(=O)Cc1cc(C(=O)[N-]C23CC4CC(CC(C4)C2)C3)c([O-])c(O)c1[O-]

>  <Energy>  (46) 
54.83900275425474

>  <Genealogy>  (46) 
COC(=O)Cc1cc(C(=O)[N-]C23CC4CC(CC(C4)C2)C3)c([O-])c(O)c1[O-] (protonated)
COC(=O)Cc1cc(C(=O)[N-]C23CC4CC(CC(C4)C2)C3)c([O-])c(O)c1[O-] (3D coordinates assigned)
COC(=O)Cc1cc(C(=O)[N-]C23CC4CC(CC(C4)C2)C3)c([O-])c(O)c1[O-] (nonaromatic ring conformer: 54.83900275425474 kcal/mol)

>  <smiles>  (46) 
COC(=O)Cc1cc(C(=O)NC23CC4CC(CC(C4)C2)C3)c(O)c(O)c1O

>  <score_type>  (46) 
oracle

>  <origin>  (46) 
adg

>  <m_score__min__energy>  (46) 
-15.56

>  <m_primary>  (46) 
energy

$$$$
46:0
     RDKit          3D

 34 35  0  0  0  0  0  0  0  0999 V2000
   55.1670   24.9370   45.6170 C   0  0  0  0  0  0  0  0  0  0  0  0
   55.0270   26.3370   46.0050 N   0  0  0  0  0  0  0  0  0  0  0  0
   56.4940   27.2020   45.6680 S   0  0  0  0  0  0  0  0  0  0  0  0
   57.2760   27.4180   46.9330 O   0  0  0  0  0  0  0  0  0  0  0  0
   57.3300   26.3700   44.7380 O   0  0  0  0  0  0  0  0  0  0  0  0
   56.1510   28.7110   44.8780 N   0  0  0  0  0  0  0  0  0  0  0  0
   56.8740   29.9470   44.9800 C   0  0  0  0  0  0  0  0  0  0  0  0
   56.6500   31.0390   44.1210 C   0  0  0  0  0  0  0  0  0  0  0  0
   57.3810   32.2200   44.2770 C   0  0  0  0  0  0  0  0  0  0  0  0
   58.3490   32.3260   45.2790 C   0  0  0  0  0  0  0  0  0  0  0  0
   59.2530   33.8280   45.4600 S   0  0  0  0  0  0  0  0  0  0  0  0
   59.5330   34.4570   44.1240 O   0  0  0  0  0  0  0  0  0  0  0  0
   58.4400   34.7880   46.2780 O   0  0  0  0  0  0  0  0  0  0  0  0
   60.7530   33.5150   46.2690 N   0  0  0  0  0  0  0  0  0  0  0  0
   60.9740   33.6250   47.6820 C   0  0  0  0  0  0  0  0  0  0  0  0
   59.9080   33.7750   48.5880 C   0  0  0  0  0  0  0  0  0  0  0  0
   60.1540   33.8410   49.9610 C   0  0  0  0  0  0  0  0  0  0  0  0
   61.4600   33.7510   50.4460 C   0  0  0  0  0  0  0  0  0  0  0  0
   62.5270   33.6220   49.5550 C   0  0  0  0  0  0  0  0  0  0  0  0
   62.2900   33.5590   48.1770 C   0  0  0  0  0  0  0  0  0  0  0  0
   63.6560   33.3790   47.0860 Cl  0  0  0  0  0  0  0  0  0  0  0  0
   58.5850   31.2380   46.1270 C   0  0  0  0  0  0  0  0  0  0  0  0
   57.8490   30.0600   45.9790 C   0  0  0  0  0  0  0  0  0  0  0  0
   55.2296   24.3109   46.5193 H   0  0  0  0  0  0  0  0  0  0  0  0
   54.2948   24.6331   45.0196 H   0  0  0  0  0  0  0  0  0  0  0  0
   56.0821   24.8118   45.0196 H   0  0  0  0  0  0  0  0  0  0  0  0
   55.8964   30.9627   43.3234 H   0  0  0  0  0  0  0  0  0  0  0  0
   57.1930   33.0716   43.6066 H   0  0  0  0  0  0  0  0  0  0  0  0
   58.8760   33.8406   48.2130 H   0  0  0  0  0  0  0  0  0  0  0  0
   59.3159   33.9643   50.6627 H   0  0  0  0  0  0  0  0  0  0  0  0
   61.6482   33.7817   51.5293 H   0  0  0  0  0  0  0  0  0  0  0  0
   63.5572   33.5697   49.9371 H   0  0  0  0  0  0  0  0  0  0  0  0
   59.3520   31.3106   46.9121 H   0  0  0  0  0  0  0  0  0  0  0  0
   58.0372   29.2122   46.6542 H   0  0  0  0  0  0  0  0  0  0  0  0
  1  2  1  0
  2  3  1  0
  3  4  2  0
  3  5  2  0
  3  6  1  0
  6  7  1  0
  7  8  2  0
  8  9  1  0
  9 10  2  0
 10 11  1  0
 11 12  2  0
 11 13  2  0
 11 14  1  0
 14 15  1  0
 15 16  2  0
 16 17  1  0
 17 18  2  0
 18 19  1  0
 19 20  2  0
 20 21  1  0
 10 22  1  0
 22 23  2  0
 23  7  1  0
 20 15  1  0
  1 24  1  0
  1 25  1  0
  1 26  1  0
  8 27  1  0
  9 28  1  0
 16 29  1  0
 17 30  1  0
 18 31  1  0
 19 32  1  0
 22 33  1  0
 23 34  1  0
M  CHG  3   2  -1   6  -1  14  -1
M  END
>  <UniqueID>  (47) 
43

>  <SMILES>  (47) 
C[N-]S(=O)(=O)[N-]c1ccc(S(=O)(=O)[N-]c2ccccc2Cl)cc1

>  <Energy>  (47) 
39.71673635303329

>  <Genealogy>  (47) 
C[N-]S(=O)(=O)[N-]c1ccc(S(=O)(=O)[N-]c2ccccc2Cl)cc1 (protonated)
C[N-]S(=O)(=O)[N-]c1ccc(S(=O)(=O)[N-]c2ccccc2Cl)cc1 (3D coordinates assigned)
C[N-]S(=O)(=O)[N-]c1ccc(S(=O)(=O)[N-]c2ccccc2Cl)cc1 (optimized conformer: 39.71673635303329 kcal/mol)

>  <smiles>  (47) 
CNS(=O)(=O)Nc1ccc(S(=O)(=O)Nc2ccccc2Cl)cc1

>  <score_type>  (47) 
oracle

>  <origin>  (47) 
adg

>  <m_score__min__energy>  (47) 
-12.34

>  <m_primary>  (47) 
energy

$$$$
47:0
     RDKit          3D

 59 62  0  0  0  0  0  0  0  0999 V2000
   53.7310   29.7400   51.2460 O   0  0  0  0  0  0  0  0  0  0  0  0
   53.6870   30.8510   51.8440 C   0  0  0  0  0  0  0  0  0  0  0  0
   54.8860   31.6290   51.9900 N   0  0  0  0  0  0  0  0  0  0  0  0
   56.2080   31.0730   51.8870 C   0  0  0  0  0  0  0  0  0  0  0  0
   56.4350   29.7520   52.2950 C   0  0  0  0  0  0  0  0  0  0  0  0
   57.7120   29.1920   52.2020 C   0  0  0  0  0  0  0  0  0  0  0  0
   58.7730   29.9460   51.6990 C   0  0  0  0  0  0  0  0  0  0  0  0
   58.5660   31.2700   51.2760 C   0  0  0  0  0  0  0  0  0  0  0  0
   59.7220   32.0850   50.7310 C   0  0  0  0  0  0  0  0  0  0  0  0
   59.9920   31.8530   49.2950 N   0  0  0  0  0  0  0  0  0  0  0  0
   60.6810   30.5720   48.9970 C   0  0  0  0  0  0  0  0  0  0  0  0
   59.7550   29.5580   48.3120 C   0  0  0  0  0  0  0  0  0  0  0  0
   59.2240   30.1120   46.9710 C   0  0  0  0  0  0  0  0  0  0  0  0
   57.9410   29.4090   46.6110 C   0  0  0  0  0  0  0  0  0  0  0  0
   57.5960   28.3570   47.2160 O   0  0  0  0  0  0  0  0  0  0  0  0
   57.1680   29.8900   45.5090 N   0  0  0  0  0  0  0  0  0  0  0  0
   57.7570   30.4590   44.3010 C   0  0  0  0  0  0  0  0  0  0  0  0
   56.9340   30.1250   43.0630 C   0  0  0  0  0  0  0  0  0  0  0  0
   57.1030   31.3100   42.1160 C   0  0  0  0  0  0  0  0  0  0  0  0
   57.7280   32.4440   42.9260 C   0  0  0  0  0  0  0  0  0  0  0  0
   57.7610   31.9760   44.3720 C   0  0  0  0  0  0  0  0  0  0  0  0
   59.0700   31.6550   46.9880 C   0  0  0  0  0  0  0  0  0  0  0  0
   58.8440   32.1760   48.4130 C   0  0  0  0  0  0  0  0  0  0  0  0
   57.2720   31.8140   51.3440 C   0  0  0  0  0  0  0  0  0  0  0  0
   52.3810   31.3670   52.3210 C   0  0  0  0  0  0  0  0  0  0  0  0
   51.9170   31.0050   53.5980 C   0  0  0  0  0  0  0  0  0  0  0  0
   50.6880   31.4760   54.0620 C   0  0  0  0  0  0  0  0  0  0  0  0
   49.9280   32.3150   53.2490 C   0  0  0  0  0  0  0  0  0  0  0  0
   50.3890   32.6770   52.0230 N   0  0  0  0  0  0  0  0  0  0  0  0
   51.5840   32.2370   51.5440 C   0  0  0  0  0  0  0  0  0  0  0  0
   51.9700   32.6350   50.4130 O   0  0  0  0  0  0  0  0  0  0  0  0
   54.7910   32.6700   52.0340 H   0  0  0  0  0  0  0  0  0  0  0  0
   55.6026   29.1518   52.6911 H   0  0  0  0  0  0  0  0  0  0  0  0
   57.8812   28.1545   52.5260 H   0  0  0  0  0  0  0  0  0  0  0  0
   59.7770   29.5015   51.6332 H   0  0  0  0  0  0  0  0  0  0  0  0
   59.4917   33.1513   50.8727 H   0  0  0  0  0  0  0  0  0  0  0  0
   60.6218   31.7718   51.2807 H   0  0  0  0  0  0  0  0  0  0  0  0
   61.5348   30.7755   48.3340 H   0  0  0  0  0  0  0  0  0  0  0  0
   61.0090   30.1363   49.9523 H   0  0  0  0  0  0  0  0  0  0  0  0
   60.3150   28.6305   48.1217 H   0  0  0  0  0  0  0  0  0  0  0  0
   58.8988   29.3618   48.9741 H   0  0  0  0  0  0  0  0  0  0  0  0
   59.9675   29.9041   46.1874 H   0  0  0  0  0  0  0  0  0  0  0  0
   58.7714   30.0388   44.2342 H   0  0  0  0  0  0  0  0  0  0  0  0
   57.3071   29.2032   42.5928 H   0  0  0  0  0  0  0  0  0  0  0  0
   55.8764   29.9566   43.3145 H   0  0  0  0  0  0  0  0  0  0  0  0
   57.7631   31.0345   41.2803 H   0  0  0  0  0  0  0  0  0  0  0  0
   56.1344   31.6166   41.6944 H   0  0  0  0  0  0  0  0  0  0  0  0
   58.7484   32.6478   42.5694 H   0  0  0  0  0  0  0  0  0  0  0  0
   57.1480   33.3729   42.8222 H   0  0  0  0  0  0  0  0  0  0  0  0
   58.6716   32.3361   44.8731 H   0  0  0  0  0  0  0  0  0  0  0  0
   56.9074   32.3624   44.9482 H   0  0  0  0  0  0  0  0  0  0  0  0
   59.9843   32.1110   46.5804 H   0  0  0  0  0  0  0  0  0  0  0  0
   58.1958   31.9238   46.3769 H   0  0  0  0  0  0  0  0  0  0  0  0
   58.7149   33.2679   48.3787 H   0  0  0  0  0  0  0  0  0  0  0  0
   57.9458   31.6897   48.8213 H   0  0  0  0  0  0  0  0  0  0  0  0
   57.0896   32.8315   50.9679 H   0  0  0  0  0  0  0  0  0  0  0  0
   52.5262   30.3468   54.2349 H   0  0  0  0  0  0  0  0  0  0  0  0
   50.3229   31.1881   55.0589 H   0  0  0  0  0  0  0  0  0  0  0  0
   48.9534   32.6848   53.6003 H   0  0  0  0  0  0  0  0  0  0  0  0
  1  2  2  0
  2  3  1  0
  3  4  1  0
  4  5  2  0
  5  6  1  0
  6  7  2  0
  7  8  1  0
  8  9  1  0
  9 10  1  0
 10 11  1  0
 11 12  1  0
 12 13  1  0
 13 14  1  0
 14 15  2  0
 14 16  1  0
 16 17  1  0
 17 18  1  0
 18 19  1  0
 19 20  1  0
 20 21  1  0
 13 22  1  0
 22 23  1  0
  8 24  2  0
  2 25  1  0
 25 26  2  0
 26 27  1  0
 27 28  2  0
 28 29  1  0
 29 30  1  0
 30 31  2  0
 24  4  1  0
 30 25  1  0
 23 10  1  0
 21 17  1  0
  3 32  1  0
  5 33  1  0
  6 34  1  0
  7 35  1  0
  9 36  1  0
  9 37  1  0
 11 38  1  0
 11 39  1  0
 12 40  1  0
 12 41  1  0
 13 42  1  0
 17 43  1  0
 18 44  1  0
 18 45  1  0
 19 46  1  0
 19 47  1  0
 20 48  1  0
 20 49  1  0
 21 50  1  0
 21 51  1  0
 22 52  1  0
 22 53  1  0
 23 54  1  0
 23 55  1  0
 24 56  1  0
 26 57  1  0
 27 58  1  0
 28 59  1  0
M  CHG  2  16  -1  29  -1
M  END
>  <UniqueID>  (48) 
44

>  <SMILES>  (48) 
O=C(Nc1cccc(CN2CCC(C(=O)[N-]C3CCCC3)CC2)c1)c1ccc[n-]c1=O

>  <Energy>  (48) 
76.89037688646734

>  <Genealogy>  (48) 
O=C(Nc1cccc(CN2CCC(C(=O)[N-]C3CCCC3)CC2)c1)c1ccc[n-]c1=O (protonated)
O=C(Nc1cccc(CN2CCC(C(=O)[N-]C3CCCC3)CC2)c1)c1ccc[n-]c1=O (3D coordinates assigned)
O=C(Nc1cccc(CN2CCC(C(=O)[N-]C3CCCC3)CC2)c1)c1ccc[n-]c1=O (nonaromatic ring conformer: 76.89037688646734 kcal/mol)

>  <smiles>  (48) 
O=C(Nc1cccc(CN2CCC(C(=O)NC3CCCC3)CC2)c1)c1ccc[nH]c1=O

>  <score_type>  (48) 
oracle

>  <origin>  (48) 
adg

>  <m_score__min__energy>  (48) 
-12.800000000000001

>  <m_primary>  (48) 
energy

$$$$
48:0
     RDKit          3D

 16 16  0  0  0  0  0  0  0  0999 V2000
   54.2320   25.0730   45.6110 C   0  0  0  0  0  0  0  0  0  0  0  0
   54.8910   26.3210   45.9700 N   0  0  0  0  0  0  0  0  0  0  0  0
   56.2990   26.4640   46.1830 C   0  0  0  0  0  0  0  0  0  0  0  0
   56.8080   25.9790   47.2290 O   0  0  0  0  0  0  0  0  0  0  0  0
   57.1950   27.1340   45.1790 C   0  0  0  0  0  0  0  0  0  0  0  0
   56.7970   28.5630   45.0000 C   0  0  0  0  0  0  0  0  0  0  0  0
   55.5190   28.9710   44.8750 N   0  0  0  0  0  0  0  0  0  0  0  0
   55.5510   30.2870   44.7520 N   0  0  0  0  0  0  0  0  0  0  0  0
   56.8480   30.6340   44.8100 C   0  0  0  0  0  0  0  0  0  0  0  0
   57.2480   31.8240   44.7260 O   0  0  0  0  0  0  0  0  0  0  0  0
   57.6760   29.5860   44.9670 N   0  0  0  0  0  0  0  0  0  0  0  0
   53.9467   24.5327   46.5257 H   0  0  0  0  0  0  0  0  0  0  0  0
   53.3315   25.2912   45.0181 H   0  0  0  0  0  0  0  0  0  0  0  0
   54.9200   24.4524   45.0181 H   0  0  0  0  0  0  0  0  0  0  0  0
   58.2352   27.0889   45.5340 H   0  0  0  0  0  0  0  0  0  0  0  0
   57.1029   26.6137   44.2142 H   0  0  0  0  0  0  0  0  0  0  0  0
  1  2  1  0
  2  3  1  0
  3  4  2  0
  3  5  1  0
  5  6  1  0
  6  7  2  0
  7  8  1  0
  8  9  1  0
  9 10  2  0
  9 11  1  0
 11  6  1  0
  1 12  1  0
  1 13  1  0
  1 14  1  0
  5 15  1  0
  5 16  1  0
M  CHG  3   2  -1   8  -1  11  -1
M  END
>  <UniqueID>  (49) 
45

>  <SMILES>  (49) 
C[N-]C(=O)Cc1n[n-]c(=O)[n-]1

>  <Energy>  (49) 
42.17602517980809

>  <Genealogy>  (49) 
C[N-]C(=O)Cc1n[n-]c(=O)[n-]1 (protonated)
C[N-]C(=O)Cc1n[n-]c(=O)[n-]1 (3D coordinates assigned)
C[N-]C(=O)Cc1n[n-]c(=O)[n-]1 (optimized conformer: 42.17602517980809 kcal/mol)

>  <smiles>  (49) 
CNC(=O)Cc1n[nH]c(=O)[nH]1

>  <score_type>  (49) 
oracle

>  <origin>  (49) 
adg

>  <m_score__min__energy>  (49) 
-11.91

>  <m_primary>  (49) 
energy

$$$$
49:0
     RDKit          3D

 58 61  0  0  0  0  0  0  0  0999 V2000
   56.6060   22.1370   47.7410 C   0  0  0  0  0  0  0  0  0  0  0  0
   57.5030   23.2330   47.5950 O   0  0  0  0  0  0  0  0  0  0  0  0
   57.1660   24.4560   46.9970 C   0  0  0  0  0  0  0  0  0  0  0  0
   55.9910   24.5270   46.2420 C   0  0  0  0  0  0  0  0  0  0  0  0
   55.5960   25.7320   45.6530 C   0  0  0  0  0  0  0  0  0  0  0  0
   56.3720   26.8880   45.8100 C   0  0  0  0  0  0  0  0  0  0  0  0
   55.8930   28.1180   45.2470 N   0  0  0  0  0  0  0  0  0  0  0  0
   56.8840   29.3430   44.5190 S   0  0  0  0  0  0  0  0  0  0  0  0
   56.1530   30.6540   44.5910 O   0  0  0  0  0  0  0  0  0  0  0  0
   57.1090   28.9810   43.0780 O   0  0  0  0  0  0  0  0  0  0  0  0
   58.4270   29.5120   45.3710 C   0  0  0  0  0  0  0  0  0  0  0  0
   58.4870   30.3110   46.5240 C   0  0  0  0  0  0  0  0  0  0  0  0
   59.6860   30.4720   47.2310 C   0  0  0  0  0  0  0  0  0  0  0  0
   59.7010   31.2950   48.4110 N   0  0  0  0  0  0  0  0  0  0  0  0
   58.7710   32.4040   48.6200 C   0  0  0  0  0  0  0  0  0  0  0  0
   58.8870   33.3850   47.4870 C   0  0  0  0  0  0  0  0  0  0  0  0
   57.8340   33.7480   46.6620 C   0  0  0  0  0  0  0  0  0  0  0  0
   58.3700   34.5360   45.6600 C   0  0  0  0  0  0  0  0  0  0  0  0
   59.7290   34.6090   45.9020 C   0  0  0  0  0  0  0  0  0  0  0  0
   60.0430   33.9030   47.0090 N   0  0  0  0  0  0  0  0  0  0  0  0
   61.3680   33.7430   47.5430 C   0  0  0  0  0  0  0  0  0  0  0  0
   62.4190   33.3520   46.6970 C   0  0  0  0  0  0  0  0  0  0  0  0
   63.7120   33.1950   47.2020 C   0  0  0  0  0  0  0  0  0  0  0  0
   63.9630   33.4120   48.5600 C   0  0  0  0  0  0  0  0  0  0  0  0
   62.9220   33.7840   49.4170 C   0  0  0  0  0  0  0  0  0  0  0  0
   61.6150   33.9600   48.9150 C   0  0  0  0  0  0  0  0  0  0  0  0
   60.5500   34.3680   49.7360 O   0  0  0  0  0  0  0  0  0  0  0  0
   60.2770   33.8360   51.0280 C   0  0  0  0  0  0  0  0  0  0  0  0
   60.8370   29.7990   46.7920 C   0  0  0  0  0  0  0  0  0  0  0  0
   60.7970   29.0170   45.6370 C   0  0  0  0  0  0  0  0  0  0  0  0
   59.6080   28.8780   44.9110 C   0  0  0  0  0  0  0  0  0  0  0  0
   59.6400   28.1180   43.7400 O   0  0  0  0  0  0  0  0  0  0  0  0
   57.5700   26.8150   46.5450 C   0  0  0  0  0  0  0  0  0  0  0  0
   57.9640   25.6090   47.1340 C   0  0  0  0  0  0  0  0  0  0  0  0
   56.4424   21.9370   48.8102 H   0  0  0  0  0  0  0  0  0  0  0  0
   55.6463   22.3824   47.2628 H   0  0  0  0  0  0  0  0  0  0  0  0
   57.0364   21.2448   47.2628 H   0  0  0  0  0  0  0  0  0  0  0  0
   55.3722   23.6271   46.1104 H   0  0  0  0  0  0  0  0  0  0  0  0
   54.6692   25.7728   45.0620 H   0  0  0  0  0  0  0  0  0  0  0  0
   57.5778   30.8189   46.8781 H   0  0  0  0  0  0  0  0  0  0  0  0
   60.1750   30.9190   49.2660 H   0  0  0  0  0  0  0  0  0  0  0  0
   57.7428   32.0154   48.6630 H   0  0  0  0  0  0  0  0  0  0  0  0
   59.0153   32.9101   49.5656 H   0  0  0  0  0  0  0  0  0  0  0  0
   56.7779   33.4645   46.7811 H   0  0  0  0  0  0  0  0  0  0  0  0
   57.8225   35.0114   44.8328 H   0  0  0  0  0  0  0  0  0  0  0  0
   60.4501   35.1622   45.2824 H   0  0  0  0  0  0  0  0  0  0  0  0
   62.2227   33.1683   45.6304 H   0  0  0  0  0  0  0  0  0  0  0  0
   64.5326   32.9007   46.5311 H   0  0  0  0  0  0  0  0  0  0  0  0
   64.9821   33.2899   48.9557 H   0  0  0  0  0  0  0  0  0  0  0  0
   63.1231   33.9401   50.4871 H   0  0  0  0  0  0  0  0  0  0  0  0
   60.6364   34.5363   51.7963 H   0  0  0  0  0  0  0  0  0  0  0  0
   59.1928   33.6903   51.1430 H   0  0  0  0  0  0  0  0  0  0  0  0
   60.7909   32.8702   51.1430 H   0  0  0  0  0  0  0  0  0  0  0  0
   61.7743   29.8884   47.3608 H   0  0  0  0  0  0  0  0  0  0  0  0
   61.7081   28.5050   45.2938 H   0  0  0  0  0  0  0  0  0  0  0  0
   58.9670   28.2150   42.9910 H   0  0  0  0  0  0  0  0  0  0  0  0
   58.1993   27.7103   46.6568 H   0  0  0  0  0  0  0  0  0  0  0  0
   58.9017   25.5606   47.7071 H   0  0  0  0  0  0  0  0  0  0  0  0
  1  2  1  0
  2  3  1  0
  3  4  2  0
  4  5  1  0
  5  6  2  0
  6  7  1  0
  7  8  1  0
  8  9  2  0
  8 10  2  0
  8 11  1  0
 11 12  2  0
 12 13  1  0
 13 14  1  0
 14 15  1  0
 15 16  1  0
 16 17  2  0
 17 18  1  0
 18 19  2  0
 19 20  1  0
 20 21  1  0
 21 22  2  0
 22 23  1  0
 23 24  2  0
 24 25  1  0
 25 26  2  0
 26 27  1  0
 27 28  1  0
 13 29  2  0
 29 30  1  0
 30 31  2  0
 31 32  1  0
  6 33  1  0
 33 34  2  0
 34  3  1  0
 31 11  1  0
 20 16  1  0
 26 21  1  0
  1 35  1  0
  1 36  1  0
  1 37  1  0
  4 38  1  0
  5 39  1  0
 12 40  1  0
 14 41  1  0
 15 42  1  0
 15 43  1  0
 17 44  1  0
 18 45  1  0
 19 46  1  0
 22 47  1  0
 23 48  1  0
 24 49  1  0
 25 50  1  0
 28 51  1  0
 28 52  1  0
 28 53  1  0
 29 54  1  0
 30 55  1  0
 32 56  1  0
 33 57  1  0
 34 58  1  0
M  CHG  1   7  -1
M  END
>  <UniqueID>  (50) 
46

>  <SMILES>  (50) 
COc1ccc([N-]S(=O)(=O)c2cc(NCc3cccn3-c3ccccc3OC)ccc2O)cc1

>  <Energy>  (50) 
94.17078972801357

>  <Genealogy>  (50) 
COc1ccc([N-]S(=O)(=O)c2cc(NCc3cccn3-c3ccccc3OC)ccc2O)cc1 (protonated)
COc1ccc([N-]S(=O)(=O)c2cc(NCc3cccn3-c3ccccc3OC)ccc2O)cc1 (3D coordinates assigned)
COc1ccc([N-]S(=O)(=O)c2cc(NCc3cccn3-c3ccccc3OC)ccc2O)cc1 (optimized conformer: 94.17078972801357 kcal/mol)

>  <smiles>  (50) 
COc1ccc(NS(=O)(=O)c2cc(NCc3cccn3-c3ccccc3OC)ccc2O)cc1

>  <score_type>  (50) 
oracle

>  <origin>  (50) 
adg

>  <m_score__min__energy>  (50) 
-11.65

>  <m_primary>  (50) 
energy

$$$$
50:0
     RDKit          3D

 34 35  0  0  0  0  0  0  0  0999 V2000
   57.0260   33.7943   46.5384 H   0  0  0  0  0  0  0  0  0  0  0  0
   58.1220   33.7070   46.5720 C   0  0  0  0  0  0  0  0  0  0  0  0
   58.9190   34.8100   46.2650 C   0  0  0  0  0  0  0  0  0  0  0  0
   58.4511   35.7618   45.9730 H   0  0  0  0  0  0  0  0  0  0  0  0
   60.3110   34.7070   46.3280 C   0  0  0  0  0  0  0  0  0  0  0  0
   60.9338   35.5812   46.0873 H   0  0  0  0  0  0  0  0  0  0  0  0
   60.9220   33.4970   46.6960 C   0  0  0  0  0  0  0  0  0  0  0  0
   62.4230   33.4450   46.7900 C   0  0  0  0  0  0  0  0  0  0  0  0
   62.7240   33.4346   47.8480 H   0  0  0  0  0  0  0  0  0  0  0  0
   62.7900   32.5336   46.2954 H   0  0  0  0  0  0  0  0  0  0  0  0
   62.8522   34.3288   46.2954 H   0  0  0  0  0  0  0  0  0  0  0  0
   60.1100   32.3630   46.9500 C   0  0  0  0  0  0  0  0  0  0  0  0
   60.6720   31.0810   47.2740 N   0  0  0  0  0  0  0  0  0  0  0  0
   60.6660   30.0570   46.5070 N   0  0  0  0  0  0  0  0  0  0  0  0
   59.6000   29.0980   46.3930 C   0  0  0  0  0  0  0  0  0  0  0  0
   59.7830   27.8200   46.9270 C   0  0  0  0  0  0  0  0  0  0  0  0
   60.7309   27.5662   47.4241 H   0  0  0  0  0  0  0  0  0  0  0  0
   58.7710   26.8630   46.8340 C   0  0  0  0  0  0  0  0  0  0  0  0
   58.9308   25.8561   47.2471 H   0  0  0  0  0  0  0  0  0  0  0  0
   57.5520   27.1780   46.2170 C   0  0  0  0  0  0  0  0  0  0  0  0
   56.2870   25.9550   46.0900 S   0  0  0  0  0  0  0  0  0  0  0  0
   56.3380   25.0550   47.2930 O   0  0  0  0  0  0  0  0  0  0  0  0
   56.4770   25.1280   44.8490 O   0  0  0  0  0  0  0  0  0  0  0  0
   54.7870   26.7070   46.0120 O   0  0  0  0  0  0  0  0  0  0  0  0
   57.3380   28.4730   45.7100 C   0  0  0  0  0  0  0  0  0  0  0  0
   56.1040   28.7720   45.1070 O   0  0  0  0  0  0  0  0  0  0  0  0
   55.9220   29.7460   44.0840 C   0  0  0  0  0  0  0  0  0  0  0  0
   55.7383   30.7290   44.5422 H   0  0  0  0  0  0  0  0  0  0  0  0
   56.8264   29.7956   43.4599 H   0  0  0  0  0  0  0  0  0  0  0  0
   55.0607   29.4657   43.4599 H   0  0  0  0  0  0  0  0  0  0  0  0
   58.3600   29.4340   45.8230 C   0  0  0  0  0  0  0  0  0  0  0  0
   58.1866   30.4584   45.4616 H   0  0  0  0  0  0  0  0  0  0  0  0
   58.7150   32.4920   46.9220 C   0  0  0  0  0  0  0  0  0  0  0  0
   58.0820   31.6295   47.1777 H   0  0  0  0  0  0  0  0  0  0  0  0
  1  2  1  0
  2  3  2  0
  3  4  1  0
  3  5  1  0
  5  6  1  0
  5  7  2  0
  7  8  1  0
  8  9  1  0
  8 10  1  0
  8 11  1  0
  7 12  1  0
 12 13  1  0
 13 14  2  0
 14 15  1  0
 15 16  2  0
 16 17  1  0
 16 18  1  0
 18 19  1  0
 18 20  2  0
 20 21  1  0
 21 22  2  0
 21 23  2  0
 21 24  1  0
 20 25  1  0
 25 26  1  0
 26 27  1  0
 27 28  1  0
 27 29  1  0
 27 30  1  0
 25 31  2  0
 31 32  1  0
 12 33  2  0
 33 34  1  0
 33  2  1  0
 31 15  1  0
M  CHG  1  24  -1
M  END
>  <UniqueID>  (51) 
47

>  <SMILES>  (51) 
COc1cc(/N=N\c2ccccc2C)ccc1S(=O)(=O)[O-]

>  <Energy>  (51) 
48.95421075931839

>  <Genealogy>  (51) 
COc1cc(N=Nc2ccccc2C)ccc1S(=O)(=O)[O-] (protonated)
COc1cc(/N=N\c2ccccc2C)ccc1S(=O)(=O)[O-] (cis-trans isomerization)
COc1cc(/N=N\c2ccccc2C)ccc1S(=O)(=O)[O-] (3D coordinates assigned)
COc1cc(/N=N\c2ccccc2C)ccc1S(=O)(=O)[O-] (optimized conformer: 48.95421075931839 kcal/mol)

>  <smiles>  (51) 
COc1cc(N=Nc2ccccc2C)ccc1S(=O)(=O)O

>  <score_type>  (51) 
oracle

>  <origin>  (51) 
adg

>  <m_score__min__energy>  (51) 
-10.99

>  <m_primary>  (51) 
energy

$$$$
51:0
     RDKit          3D

 37 39  0  0  0  0  0  0  0  0999 V2000
   56.6010   20.3940   43.0220 C   0  0  0  0  0  0  0  0  0  0  0  0
   56.2170   21.7650   42.9770 O   0  0  0  0  0  0  0  0  0  0  0  0
   56.7510   22.7640   43.8030 C   0  0  0  0  0  0  0  0  0  0  0  0
   57.2610   22.4900   45.0870 C   0  0  0  0  0  0  0  0  0  0  0  0
   57.7830   23.5230   45.8720 C   0  0  0  0  0  0  0  0  0  0  0  0
   57.7960   24.8380   45.3910 C   0  0  0  0  0  0  0  0  0  0  0  0
   58.4790   26.1310   46.3700 S   0  0  0  0  0  0  0  0  0  0  0  0
   59.9770   26.1220   46.2590 O   0  0  0  0  0  0  0  0  0  0  0  0
   58.1130   25.9310   47.8140 O   0  0  0  0  0  0  0  0  0  0  0  0
   57.8580   27.6510   45.8150 N   0  0  0  0  0  0  0  0  0  0  0  0
   56.5780   27.9650   45.5520 C   0  0  0  0  0  0  0  0  0  0  0  0
   55.5140   27.0760   45.6360 O   0  0  0  0  0  0  0  0  0  0  0  0
   56.4900   29.2960   45.2060 C   0  0  0  0  0  0  0  0  0  0  0  0
   57.7350   29.8240   45.2560 N   0  0  0  0  0  0  0  0  0  0  0  0
   58.1000   31.1920   44.9850 C   0  0  0  0  0  0  0  0  0  0  0  0
   58.6540   31.9930   46.0000 C   0  0  0  0  0  0  0  0  0  0  0  0
   59.0040   33.3210   45.7420 C   0  0  0  0  0  0  0  0  0  0  0  0
   58.8010   33.8650   44.4720 C   0  0  0  0  0  0  0  0  0  0  0  0
   58.2430   33.0830   43.4590 C   0  0  0  0  0  0  0  0  0  0  0  0
   57.8920   31.7520   43.7110 C   0  0  0  0  0  0  0  0  0  0  0  0
   58.5370   28.8020   45.6410 C   0  0  0  0  0  0  0  0  0  0  0  0
   59.7740   28.9180   45.8580 O   0  0  0  0  0  0  0  0  0  0  0  0
   57.2980   25.1110   44.1110 C   0  0  0  0  0  0  0  0  0  0  0  0
   56.7760   24.0790   43.3250 C   0  0  0  0  0  0  0  0  0  0  0  0
   56.6910   20.0726   44.0702 H   0  0  0  0  0  0  0  0  0  0  0  0
   55.8394   19.7831   42.5153 H   0  0  0  0  0  0  0  0  0  0  0  0
   57.5691   20.2676   42.5153 H   0  0  0  0  0  0  0  0  0  0  0  0
   57.2487   21.4602   45.4736 H   0  0  0  0  0  0  0  0  0  0  0  0
   58.1851   23.3015   46.8716 H   0  0  0  0  0  0  0  0  0  0  0  0
   55.5695   29.8346   44.9365 H   0  0  0  0  0  0  0  0  0  0  0  0
   58.8127   31.5712   47.0034 H   0  0  0  0  0  0  0  0  0  0  0  0
   59.4402   33.9389   46.5407 H   0  0  0  0  0  0  0  0  0  0  0  0
   59.0807   34.9095   44.2698 H   0  0  0  0  0  0  0  0  0  0  0  0
   58.0789   33.5141   42.4604 H   0  0  0  0  0  0  0  0  0  0  0  0
   57.4515   31.1408   42.9095 H   0  0  0  0  0  0  0  0  0  0  0  0
   57.3175   26.1400   43.7228 H   0  0  0  0  0  0  0  0  0  0  0  0
   56.3818   24.3027   42.3227 H   0  0  0  0  0  0  0  0  0  0  0  0
  1  2  1  0
  2  3  1  0
  3  4  2  0
  4  5  1  0
  5  6  2  0
  6  7  1  0
  7  8  2  0
  7  9  2  0
  7 10  1  0
 10 11  1  0
 11 12  1  0
 11 13  2  0
 13 14  1  0
 14 15  1  0
 15 16  2  0
 16 17  1  0
 17 18  2  0
 18 19  1  0
 19 20  2  0
 14 21  1  0
 21 22  2  0
  6 23  1  0
 23 24  2  0
 24  3  1  0
 21 10  1  0
 20 15  1  0
  1 25  1  0
  1 26  1  0
  1 27  1  0
  4 28  1  0
  5 29  1  0
 13 30  1  0
 16 31  1  0
 17 32  1  0
 18 33  1  0
 19 34  1  0
 20 35  1  0
 23 36  1  0
 24 37  1  0
M  CHG  1  12  -1
M  END
>  <UniqueID>  (52) 
48

>  <SMILES>  (52) 
COc1ccc(S(=O)(=O)n2c([O-])cn(-c3ccccc3)c2=O)cc1

>  <Energy>  (52) 
80.35169002630708

>  <Genealogy>  (52) 
COc1ccc(S(=O)(=O)n2c([O-])cn(-c3ccccc3)c2=O)cc1 (protonated)
COc1ccc(S(=O)(=O)n2c([O-])cn(-c3ccccc3)c2=O)cc1 (3D coordinates assigned)
COc1ccc(S(=O)(=O)n2c([O-])cn(-c3ccccc3)c2=O)cc1 (optimized conformer: 80.35169002630708 kcal/mol)

>  <smiles>  (52) 
COc1ccc(S(=O)(=O)n2c(O)cn(-c3ccccc3)c2=O)cc1

>  <score_type>  (52) 
oracle

>  <origin>  (52) 
adg

>  <m_score__min__energy>  (52) 
-10.32

>  <m_primary>  (52) 
energy

$$$$
52:0
     RDKit          3D

 23 24  0  0  0  0  0  0  0  0999 V2000
   58.1820   26.6450   44.2960 O   0  0  0  0  0  0  0  0  0  0  0  0
   57.6750   26.7320   45.4490 C   0  0  0  0  0  0  0  0  0  0  0  0
   57.5970   28.0120   46.0890 N   0  0  0  0  0  0  0  0  0  0  0  0
   57.5070   29.2770   45.4190 C   0  0  0  0  0  0  0  0  0  0  0  0
   58.6700   30.0460   45.2790 C   0  0  0  0  0  0  0  0  0  0  0  0
   58.6290   31.2800   44.6250 C   0  0  0  0  0  0  0  0  0  0  0  0
   57.4270   31.7480   44.0880 C   0  0  0  0  0  0  0  0  0  0  0  0
   56.2680   30.9740   44.1910 C   0  0  0  0  0  0  0  0  0  0  0  0
   56.3040   29.7340   44.8400 C   0  0  0  0  0  0  0  0  0  0  0  0
   55.1520   28.9540   44.8710 O   0  0  0  0  0  0  0  0  0  0  0  0
   57.1220   25.5200   46.1130 C   0  0  0  0  0  0  0  0  0  0  0  0
   55.7400   25.4010   46.3770 C   0  0  0  0  0  0  0  0  0  0  0  0
   54.8500   26.4050   46.0130 O   0  0  0  0  0  0  0  0  0  0  0  0
   55.2550   24.2880   46.9830 N   0  0  0  0  0  0  0  0  0  0  0  0
   56.0730   23.2710   47.3460 C   0  0  0  0  0  0  0  0  0  0  0  0
   55.5970   22.2490   47.9060 O   0  0  0  0  0  0  0  0  0  0  0  0
   57.4040   23.3530   47.1070 N   0  0  0  0  0  0  0  0  0  0  0  0
   57.9480   24.4420   46.5060 C   0  0  0  0  0  0  0  0  0  0  0  0
   59.1930   24.4750   46.3200 O   0  0  0  0  0  0  0  0  0  0  0  0
   59.6220   29.6755   45.6869 H   0  0  0  0  0  0  0  0  0  0  0  0
   59.5439   31.8837   44.5328 H   0  0  0  0  0  0  0  0  0  0  0  0
   57.3930   32.7253   43.5843 H   0  0  0  0  0  0  0  0  0  0  0  0
   55.3242   31.3403   43.7607 H   0  0  0  0  0  0  0  0  0  0  0  0
  1  2  2  0
  2  3  1  0
  3  4  1  0
  4  5  2  0
  5  6  1  0
  6  7  2  0
  7  8  1  0
  8  9  2  0
  9 10  1  0
  2 11  1  0
 11 12  2  0
 12 13  1  0
 12 14  1  0
 14 15  1  0
 15 16  2  0
 15 17  1  0
 17 18  1  0
 18 19  2  0
  9  4  1  0
 18 11  1  0
  5 20  1  0
  6 21  1  0
  7 22  1  0
  8 23  1  0
M  CHG  5   3  -1  10  -1  13  -1  14  -1  17  -1
M  END
>  <UniqueID>  (53) 
49

>  <SMILES>  (53) 
O=C([N-]c1ccccc1[O-])c1c([O-])[n-]c(=O)[n-]c1=O

>  <Energy>  (53) 
35.63611250261603

>  <Genealogy>  (53) 
O=C([N-]c1ccccc1[O-])c1c([O-])[n-]c(=O)[n-]c1=O (protonated)
O=C([N-]c1ccccc1[O-])c1c([O-])[n-]c(=O)[n-]c1=O (3D coordinates assigned)
O=C([N-]c1ccccc1[O-])c1c([O-])[n-]c(=O)[n-]c1=O (optimized conformer: 35.63611250261603 kcal/mol)

>  <smiles>  (53) 
O=C(Nc1ccccc1O)c1c(O)[nH]c(=O)[nH]c1=O

>  <score_type>  (53) 
oracle

>  <origin>  (53) 
adg

>  <m_score__min__energy>  (53) 
-18.079999999999998

>  <m_primary>  (53) 
energy

$$$$
53:0
     RDKit          3D

 47 49  0  0  1  0  0  0  0  0999 V2000
   57.2160   20.2720   44.9520 N   0  0  0  0  0  0  0  0  0  0  0  0
   57.3820   21.5670   43.8230 S   0  0  0  0  0  0  0  0  0  0  0  0
   56.2850   21.4440   42.8060 O   0  0  0  0  0  0  0  0  0  0  0  0
   58.7380   21.4530   43.1860 O   0  0  0  0  0  0  0  0  0  0  0  0
   57.2220   23.1170   44.6240 C   0  0  0  0  0  0  0  0  0  0  0  0
   58.2990   23.8200   45.1140 C   0  0  0  0  0  0  0  0  0  0  0  0
   58.1720   25.0400   45.7450 C   0  0  0  0  0  0  0  0  0  0  0  0
   56.9100   25.5780   45.8900 C   0  0  0  0  0  0  0  0  0  0  0  0
   56.6870   26.8340   46.5290 N   0  0  0  0  0  0  0  0  0  0  0  0
   56.9200   27.9570   45.9440 C   0  0  0  0  0  0  0  0  0  0  0  0
   56.0190   28.4230   45.0740 N   0  0  0  0  0  0  0  0  0  0  0  0
   56.1990   29.5790   44.4360 C   0  0  0  0  0  0  0  0  0  0  0  0
   57.3390   30.3910   44.6260 C   0  0  0  0  0  0  0  0  0  0  0  0
   57.3900   31.6110   43.8740 C   0  0  0  0  0  0  0  0  0  0  0  0
   58.6100   31.7250   43.1500 F   0  0  0  0  0  0  0  0  0  0  0  0
   56.6240   31.3970   42.7450 F   0  0  0  0  0  0  0  0  0  0  0  0
   57.0130   32.8100   44.2930 F   0  0  0  0  0  0  0  0  0  0  0  0
   58.2400   29.8840   45.5220 C   0  0  0  0  0  0  0  0  0  0  0  0
   59.2790   30.4840   45.7740 N   0  0  0  0  0  0  0  0  0  0  0  0
   59.6300   31.6150   46.4530 C   0  0  0  0  0  0  0  0  0  0  0  0
   59.6100   32.9320   45.9990 C   0  0  0  0  0  0  0  0  0  0  0  0
   59.8620   34.0130   46.8060 C   0  0  0  0  0  0  0  0  0  0  0  0
   60.1540   33.8500   48.1370 C   0  0  0  0  0  0  0  0  0  0  0  0
   60.1830   32.5620   48.6230 C   0  0  0  0  0  0  0  0  0  0  0  0
   59.9350   31.4480   47.8460 C   0  0  0  0  0  0  0  0  0  0  0  0
   59.9850   29.8380   48.5070 S   0  0  0  0  0  0  0  0  0  0  0  0
   60.6940   28.7060   47.4210 N   0  0  0  0  0  0  0  0  0  0  0  0
   60.6240   29.8010   49.8680 O   0  0  0  0  0  0  0  0  0  0  0  0
   58.5610   29.3910   48.6900 O   0  0  0  0  0  0  0  0  0  0  0  0
   58.0190   28.6880   46.1610 N   0  0  0  0  0  0  0  0  0  0  0  0
   55.8220   24.8770   45.4000 C   0  0  0  0  0  0  0  0  0  0  0  0
   55.9540   23.6500   44.7670 C   0  0  0  0  0  0  0  0  0  0  0  0
   56.8570   19.4450   44.4460 H   0  0  0  0  0  0  0  0  0  0  0  0
   58.1520   20.1130   45.4060 H   0  0  0  0  0  0  0  0  0  0  0  0
   59.3048   23.3903   44.9973 H   0  0  0  0  0  0  0  0  0  0  0  0
   59.0571   25.5719   46.1240 H   0  0  0  0  0  0  0  0  0  0  0  0
   55.1450   27.8670   44.8840 H   0  0  0  0  0  0  0  0  0  0  0  0
   55.4255   29.9158   43.7301 H   0  0  0  0  0  0  0  0  0  0  0  0
   59.3803   33.1148   44.9389 H   0  0  0  0  0  0  0  0  0  0  0  0
   59.8294   35.0263   46.3792 H   0  0  0  0  0  0  0  0  0  0  0  0
   60.3565   34.7127   48.7887 H   0  0  0  0  0  0  0  0  0  0  0  0
   60.4163   32.4126   49.6875 H   0  0  0  0  0  0  0  0  0  0  0  0
   60.1790   27.8060   47.5330 H   0  0  0  0  0  0  0  0  0  0  0  0
   60.6830   28.9880   46.4310 H   0  0  0  0  0  0  0  0  0  0  0  0
   58.7080   28.3020   46.8470 H   0  0  0  0  0  0  0  0  0  0  0  0
   54.8168   25.3083   45.5167 H   0  0  0  0  0  0  0  0  0  0  0  0
   55.0715   23.1138   44.3879 H   0  0  0  0  0  0  0  0  0  0  0  0
  1  2  1  0
  2  3  2  0
  2  4  2  0
  2  5  1  0
  5  6  2  0
  6  7  1  0
  7  8  2  0
  8  9  1  0
  9 10  2  0
 10 11  1  0
 11 12  1  0
 12 13  2  0
 13 14  1  0
 14 15  1  0
 14 16  1  0
 14 17  1  0
 13 18  1  0
 18 19  2  0
 19 20  1  0
 20 21  2  0
 21 22  1  0
 22 23  2  0
 23 24  1  0
 24 25  2  0
 25 26  1  0
 26 27  1  0
 26 28  2  0
 26 29  2  0
 18 30  1  0
  8 31  1  0
 31 32  2  0
 32  5  1  0
 30 10  1  0
 25 20  1  0
  1 33  1  0
  1 34  1  0
  6 35  1  0
  7 36  1  0
 11 37  1  0
 12 38  1  0
 21 39  1  0
 22 40  1  0
 23 41  1  0
 24 42  1  0
 27 43  1  0
 27 44  1  0
 30 45  1  0
 31 46  1  0
 32 47  1  0
M  END
>  <smiles>  (54) 
NS(=O)(=O)c1ccc(N=c2[nH]cc(C(F)(F)F)c(=Nc3ccccc3S(N)(=O)=O)[nH]2)cc1

>  <score_type>  (54) 
oracle

>  <origin>  (54) 
adg

>  <m_score__min__energy>  (54) 
-9.0299999999999994

>  <m_primary>  (54) 
energy

$$$$
54:0
     RDKit          3D

 23 24  0  0  0  0  0  0  0  0999 V2000
   58.3678   27.0152   44.1431 H   0  0  0  0  0  0  0  0  0  0  0  0
   57.6810   27.5150   44.8420 C   0  0  0  0  0  0  0  0  0  0  0  0
   56.9690   26.7970   45.6590 N   0  0  0  0  0  0  0  0  0  0  0  0
   56.4530   25.4770   45.4130 C   0  0  0  0  0  0  0  0  0  0  0  0
   57.2700   24.4060   44.9920 C   0  0  0  0  0  0  0  0  0  0  0  0
   58.3493   24.5637   44.8498 H   0  0  0  0  0  0  0  0  0  0  0  0
   56.7140   23.1460   44.7550 C   0  0  0  0  0  0  0  0  0  0  0  0
   57.3584   22.3142   44.4342 H   0  0  0  0  0  0  0  0  0  0  0  0
   55.3430   22.9390   44.9240 C   0  0  0  0  0  0  0  0  0  0  0  0
   54.9095   21.9446   44.7417 H   0  0  0  0  0  0  0  0  0  0  0  0
   54.5230   23.9970   45.3250 C   0  0  0  0  0  0  0  0  0  0  0  0
   53.4425   23.8357   45.4531 H   0  0  0  0  0  0  0  0  0  0  0  0
   55.0730   25.2610   45.5640 C   0  0  0  0  0  0  0  0  0  0  0  0
   54.2410   26.3030   45.9590 O   0  0  0  0  0  0  0  0  0  0  0  0
   57.5850   28.9980   44.8340 C   0  0  0  0  0  0  0  0  0  0  0  0
   56.3500   29.6820   44.8480 C   0  0  0  0  0  0  0  0  0  0  0  0
   55.1420   28.9950   44.8710 O   0  0  0  0  0  0  0  0  0  0  0  0
   56.3260   31.0400   44.8400 N   0  0  0  0  0  0  0  0  0  0  0  0
   57.4700   31.7650   44.8160 C   0  0  0  0  0  0  0  0  0  0  0  0
   57.4030   33.3960   44.8060 S   0  0  0  0  0  0  0  0  0  0  0  0
   58.6720   31.1360   44.8000 N   0  0  0  0  0  0  0  0  0  0  0  0
   58.7570   29.7810   44.8090 C   0  0  0  0  0  0  0  0  0  0  0  0
   59.8950   29.2410   44.7930 O   0  0  0  0  0  0  0  0  0  0  0  0
  1  2  1  0
  2  3  2  0
  3  4  1  0
  4  5  2  0
  5  6  1  0
  5  7  1  0
  7  8  1  0
  7  9  2  0
  9 10  1  0
  9 11  1  0
 11 12  1  0
 11 13  2  0
 13 14  1  0
  2 15  1  0
 15 16  2  0
 16 17  1  0
 16 18  1  0
 18 19  1  0
 19 20  2  0
 19 21  1  0
 21 22  1  0
 22 23  2  0
 13  4  1  0
 22 15  1  0
M  CHG  4  14  -1  17  -1  18  -1  21  -1
M  END
>  <UniqueID>  (55) 
50

>  <SMILES>  (55) 
O=c1[n-]c(=S)[n-]c([O-])c1/C=N/c1ccccc1[O-]

>  <Energy>  (55) 
30.944734703613733

>  <Genealogy>  (55) 
O=c1[n-]c(=S)[n-]c([O-])c1C=Nc1ccccc1[O-] (protonated)
O=c1[n-]c(=S)[n-]c([O-])c1/C=N/c1ccccc1[O-] (cis-trans isomerization)
O=c1[n-]c(=S)[n-]c([O-])c1/C=N/c1ccccc1[O-] (3D coordinates assigned)
O=c1[n-]c(=S)[n-]c([O-])c1/C=N/c1ccccc1[O-] (optimized conformer: 30.944734703613733 kcal/mol)

>  <smiles>  (55) 
O=c1[nH]c(=S)[nH]c(O)c1C=Nc1ccccc1O

>  <score_type>  (55) 
oracle

>  <origin>  (55) 
adg

>  <m_score__min__energy>  (55) 
-16.800000000000001

>  <m_primary>  (55) 
energy

$$$$
55:0
     RDKit          3D

 43 46  0  0  0  0  0  0  0  0999 V2000
   60.3730   29.8530   47.5970 C   0  0  0  0  0  0  0  0  0  0  0  0
   60.6460   31.2290   47.0640 C   0  0  0  0  0  0  0  0  0  0  0  0
   61.7990   31.7140   47.2230 O   0  0  0  0  0  0  0  0  0  0  0  0
   59.5980   32.0250   46.3670 C   0  0  0  0  0  0  0  0  0  0  0  0
   59.7300   33.4160   46.1940 C   0  0  0  0  0  0  0  0  0  0  0  0
   58.7280   34.1480   45.5550 C   0  0  0  0  0  0  0  0  0  0  0  0
   57.5890   33.5070   45.0670 C   0  0  0  0  0  0  0  0  0  0  0  0
   57.4480   32.1220   45.2010 C   0  0  0  0  0  0  0  0  0  0  0  0
   56.2550   31.5000   44.7030 N   0  0  0  0  0  0  0  0  0  0  0  0
   56.1680   30.2040   44.1010 C   0  0  0  0  0  0  0  0  0  0  0  0
   56.5330   30.0650   42.9030 O   0  0  0  0  0  0  0  0  0  0  0  0
   55.7300   29.0730   44.8730 N   0  0  0  0  0  0  0  0  0  0  0  0
   56.4820   28.1090   45.3160 C   0  0  0  0  0  0  0  0  0  0  0  0
   56.0220   27.0260   45.9810 N   0  0  0  0  0  0  0  0  0  0  0  0
   57.0360   26.1890   46.3280 C   0  0  0  0  0  0  0  0  0  0  0  0
   56.7790   24.8910   47.0260 C   0  0  0  0  0  0  0  0  0  0  0  0
   56.1360   23.9230   46.0810 C   0  0  0  0  0  0  0  0  0  0  0  0
   54.7720   23.7930   45.8250 C   0  0  0  0  0  0  0  0  0  0  0  0
   54.5570   22.8840   44.8460 N   0  0  0  0  0  0  0  0  0  0  0  0
   55.7750   22.4540   44.4800 C   0  0  0  0  0  0  0  0  0  0  0  0
   56.0430   21.5500   43.5050 N   0  0  0  0  0  0  0  0  0  0  0  0
   57.3460   21.2340   43.2330 C   0  0  0  0  0  0  0  0  0  0  0  0
   58.3980   21.8450   43.9540 C   0  0  0  0  0  0  0  0  0  0  0  0
   58.1050   22.7830   44.9590 C   0  0  0  0  0  0  0  0  0  0  0  0
   56.7630   23.0640   45.2000 C   0  0  0  0  0  0  0  0  0  0  0  0
   58.3060   26.6000   45.9250 C   0  0  0  0  0  0  0  0  0  0  0  0
   58.1480   28.0710   45.1230 S   0  0  0  0  0  0  0  0  0  0  0  0
   58.4430   31.3880   45.8730 C   0  0  0  0  0  0  0  0  0  0  0  0
   60.3780   29.8781   48.6967 H   0  0  0  0  0  0  0  0  0  0  0  0
   59.3895   29.5109   47.2425 H   0  0  0  0  0  0  0  0  0  0  0  0
   61.1514   29.1614   47.2425 H   0  0  0  0  0  0  0  0  0  0  0  0
   60.6292   33.9295   46.5651 H   0  0  0  0  0  0  0  0  0  0  0  0
   58.8370   35.2361   45.4355 H   0  0  0  0  0  0  0  0  0  0  0  0
   56.7988   34.0931   44.5750 H   0  0  0  0  0  0  0  0  0  0  0  0
   57.7321   24.4738   47.3830 H   0  0  0  0  0  0  0  0  0  0  0  0
   56.1068   25.0653   47.8791 H   0  0  0  0  0  0  0  0  0  0  0  0
   53.9806   24.3516   46.3462 H   0  0  0  0  0  0  0  0  0  0  0  0
   53.6360   22.5940   44.4470 H   0  0  0  0  0  0  0  0  0  0  0  0
   57.5771   20.4992   42.4477 H   0  0  0  0  0  0  0  0  0  0  0  0
   59.4433   21.5868   43.7288 H   0  0  0  0  0  0  0  0  0  0  0  0
   58.9043   23.2754   45.5323 H   0  0  0  0  0  0  0  0  0  0  0  0
   59.2467   26.0576   46.1006 H   0  0  0  0  0  0  0  0  0  0  0  0
   58.3173   30.3044   46.0141 H   0  0  0  0  0  0  0  0  0  0  0  0
  1  2  1  0
  2  3  2  0
  2  4  1  0
  4  5  2  0
  5  6  1  0
  6  7  2  0
  7  8  1  0
  8  9  1  0
  9 10  1  0
 10 11  2  0
 10 12  1  0
 12 13  2  3
 13 14  1  0
 14 15  1  0
 15 16  1  0
 16 17  1  0
 17 18  2  0
 18 19  1  0
 19 20  1  0
 20 21  2  0
 21 22  1  0
 22 23  2  0
 23 24  1  0
 24 25  2  0
 15 26  2  0
 26 27  1  0
  8 28  2  0
 28  4  1  0
 27 13  1  0
 25 17  1  0
 25 20  1  0
  1 29  1  0
  1 30  1  0
  1 31  1  0
  5 32  1  0
  6 33  1  0
  7 34  1  0
 16 35  1  0
 16 36  1  0
 18 37  1  0
 19 38  1  0
 22 39  1  0
 23 40  1  0
 24 41  1  0
 26 42  1  0
 28 43  1  0
M  CHG  2   9  -1  14  -1
M  END
>  <UniqueID>  (56) 
51

>  <SMILES>  (56) 
CC(=O)c1cccc([N-]C(=O)N=c2[n-]c(Cc3c[nH]c4ncccc34)cs2)c1

>  <Energy>  (56) 
115.08282369767133

>  <Genealogy>  (56) 
CC(=O)c1cccc([N-]C(=O)N=c2[n-]c(Cc3c[nH]c4ncccc34)cs2)c1 (protonated)
CC(=O)c1cccc([N-]C(=O)N=c2[n-]c(Cc3c[nH]c4ncccc34)cs2)c1 (3D coordinates assigned)
CC(=O)c1cccc([N-]C(=O)N=c2[n-]c(Cc3c[nH]c4ncccc34)cs2)c1 (optimized conformer: 115.08282369767133 kcal/mol)

>  <smiles>  (56) 
CC(=O)c1cccc(NC(=O)N=c2[nH]c(Cc3c[nH]c4ncccc34)cs2)c1

>  <score_type>  (56) 
oracle

>  <origin>  (56) 
adg

>  <m_score__min__energy>  (56) 
-11.6

>  <m_primary>  (56) 
energy

$$$$
56:0
     RDKit          3D

 45 47  0  0  0  0  0  0  0  0999 V2000
   54.3940   26.1860   45.9770 N   0  0  0  0  0  0  0  0  0  0  0  0
   55.6380   24.9870   46.0410 S   0  0  0  0  0  0  0  0  0  0  0  0
   55.5340   24.0840   44.8450 O   0  0  0  0  0  0  0  0  0  0  0  0
   55.4610   24.1700   47.2900 O   0  0  0  0  0  0  0  0  0  0  0  0
   57.2100   25.7800   46.0440 C   0  0  0  0  0  0  0  0  0  0  0  0
   58.3770   25.0070   46.1100 C   0  0  0  0  0  0  0  0  0  0  0  0
   59.6300   25.6260   46.0920 C   0  0  0  0  0  0  0  0  0  0  0  0
   59.7240   27.0170   45.9870 C   0  0  0  0  0  0  0  0  0  0  0  0
   58.5670   27.8020   45.9060 C   0  0  0  0  0  0  0  0  0  0  0  0
   58.7060   29.2220   45.7470 N   0  0  0  0  0  0  0  0  0  0  0  0
   57.6010   30.2350   44.8730 S   0  0  0  0  0  0  0  0  0  0  0  0
   57.8050   30.0310   43.3970 O   0  0  0  0  0  0  0  0  0  0  0  0
   56.1910   29.8570   45.2270 O   0  0  0  0  0  0  0  0  0  0  0  0
   57.8690   31.9170   45.3210 C   0  0  0  0  0  0  0  0  0  0  0  0
   57.3700   32.9400   44.5020 C   0  0  0  0  0  0  0  0  0  0  0  0
   57.4690   34.2740   44.9050 C   0  0  0  0  0  0  0  0  0  0  0  0
   58.0460   34.5920   46.1380 C   0  0  0  0  0  0  0  0  0  0  0  0
   58.5340   33.5730   46.9720 C   0  0  0  0  0  0  0  0  0  0  0  0
   59.0990   33.8720   48.2530 N   0  0  0  0  0  0  0  0  0  0  0  0
   60.5010   33.9790   48.5240 C   0  0  0  0  0  0  0  0  0  0  0  0
   61.2370   34.5550   47.6790 O   0  0  0  0  0  0  0  0  0  0  0  0
   61.0670   33.4150   49.7220 N   0  0  0  0  0  0  0  0  0  0  0  0
   62.4760   33.3130   49.9840 C   0  0  0  0  0  0  0  0  0  0  0  0
   63.2640   32.4780   49.1800 C   0  0  0  0  0  0  0  0  0  0  0  0
   64.6430   32.3880   49.3880 C   0  0  0  0  0  0  0  0  0  0  0  0
   65.2510   33.1460   50.3930 C   0  0  0  0  0  0  0  0  0  0  0  0
   66.5910   33.0540   50.5840 F   0  0  0  0  0  0  0  0  0  0  0  0
   64.4790   34.0040   51.1850 C   0  0  0  0  0  0  0  0  0  0  0  0
   65.2370   34.9810   52.4310 Cl  0  0  0  0  0  0  0  0  0  0  0  0
   63.0980   34.0930   50.9770 C   0  0  0  0  0  0  0  0  0  0  0  0
   58.4810   32.2420   46.5430 C   0  0  0  0  0  0  0  0  0  0  0  0
   57.3070   27.1760   45.9640 C   0  0  0  0  0  0  0  0  0  0  0  0
   54.7900   27.0580   46.3970 H   0  0  0  0  0  0  0  0  0  0  0  0
   58.3068   23.9112   46.1761 H   0  0  0  0  0  0  0  0  0  0  0  0
   60.5439   25.0176   46.1606 H   0  0  0  0  0  0  0  0  0  0  0  0
   60.7131   27.4980   45.9679 H   0  0  0  0  0  0  0  0  0  0  0  0
   56.8992   32.6914   43.5394 H   0  0  0  0  0  0  0  0  0  0  0  0
   57.0926   35.0748   44.2515 H   0  0  0  0  0  0  0  0  0  0  0  0
   58.1179   35.6427   46.4556 H   0  0  0  0  0  0  0  0  0  0  0  0
   60.4220   33.0640   50.4640 H   0  0  0  0  0  0  0  0  0  0  0  0
   62.7933   31.8890   48.3791 H   0  0  0  0  0  0  0  0  0  0  0  0
   65.2508   31.7199   48.7601 H   0  0  0  0  0  0  0  0  0  0  0  0
   62.4951   34.7764   51.5930 H   0  0  0  0  0  0  0  0  0  0  0  0
   58.9200   31.4477   47.1646 H   0  0  0  0  0  0  0  0  0  0  0  0
   56.3924   27.7869   45.9464 H   0  0  0  0  0  0  0  0  0  0  0  0
  1  2  1  0
  2  3  2  0
  2  4  2  0
  2  5  1  0
  5  6  2  0
  6  7  1  0
  7  8  2  0
  8  9  1  0
  9 10  1  0
 10 11  1  0
 11 12  2  0
 11 13  2  0
 11 14  1  0
 14 15  2  0
 15 16  1  0
 16 17  2  0
 17 18  1  0
 18 19  1  0
 19 20  1  0
 20 21  2  0
 20 22  1  0
 22 23  1  0
 23 24  2  0
 24 25  1  0
 25 26  2  0
 26 27  1  0
 26 28  1  0
 28 29  1  0
 28 30  2  0
 18 31  2  0
  9 32  2  0
 32  5  1  0
 31 14  1  0
 30 23  1  0
  1 33  1  0
  6 34  1  0
  7 35  1  0
  8 36  1  0
 15 37  1  0
 16 38  1  0
 17 39  1  0
 22 40  1  0
 24 41  1  0
 25 42  1  0
 30 43  1  0
 31 44  1  0
 32 45  1  0
M  CHG  3   1  -1  10  -1  19  -1
M  END
>  <UniqueID>  (57) 
52

>  <SMILES>  (57) 
[NH-]S(=O)(=O)c1cccc([N-]S(=O)(=O)c2cccc([N-]C(=O)Nc3ccc(F)c(Cl)c3)c2)c1

>  <Energy>  (57) 
57.24394481897597

>  <Genealogy>  (57) 
[NH-]S(=O)(=O)c1cccc([N-]S(=O)(=O)c2cccc([N-]C(=O)Nc3ccc(F)c(Cl)c3)c2)c1 (protonated)
[NH-]S(=O)(=O)c1cccc([N-]S(=O)(=O)c2cccc([N-]C(=O)Nc3ccc(F)c(Cl)c3)c2)c1 (3D coordinates assigned)
[NH-]S(=O)(=O)c1cccc([N-]S(=O)(=O)c2cccc([N-]C(=O)Nc3ccc(F)c(Cl)c3)c2)c1 (optimized conformer: 57.24394481897597 kcal/mol)

>  <smiles>  (57) 
NS(=O)(=O)c1cccc(NS(=O)(=O)c2cccc(NC(=O)Nc3ccc(F)c(Cl)c3)c2)c1

>  <score_type>  (57) 
oracle

>  <origin>  (57) 
adg

>  <m_score__min__energy>  (57) 
-14.699999999999999

>  <m_primary>  (57) 
energy

$$$$
57:0
     RDKit          3D

 41 43  0  0  0  0  0  0  0  0999 V2000
   56.2490   24.9350   47.5320 N   0  0  0  0  0  0  0  0  0  0  0  0
   57.0780   25.7690   46.7160 C   0  0  0  0  0  0  0  0  0  0  0  0
   58.4700   25.6930   46.8290 C   0  0  0  0  0  0  0  0  0  0  0  0
   59.2770   26.4970   46.0290 C   0  0  0  0  0  0  0  0  0  0  0  0
   58.6860   27.3880   45.1280 C   0  0  0  0  0  0  0  0  0  0  0  0
   59.4180   28.1120   44.4020 O   0  0  0  0  0  0  0  0  0  0  0  0
   57.3250   27.4810   45.0410 N   0  0  0  0  0  0  0  0  0  0  0  0
   56.7820   28.3710   44.1300 O   0  0  0  0  0  0  0  0  0  0  0  0
   56.2990   29.6340   44.4980 C   0  0  0  0  0  0  0  0  0  0  0  0
   55.2260   29.7280   45.1550 O   0  0  0  0  0  0  0  0  0  0  0  0
   57.0630   30.8500   44.1450 C   0  0  0  0  0  0  0  0  0  0  0  0
   57.3080   31.1760   42.7980 C   0  0  0  0  0  0  0  0  0  0  0  0
   58.0290   32.3270   42.4690 C   0  0  0  0  0  0  0  0  0  0  0  0
   58.5130   33.1630   43.4770 C   0  0  0  0  0  0  0  0  0  0  0  0
   58.2810   32.8510   44.8230 C   0  0  0  0  0  0  0  0  0  0  0  0
   58.9040   33.8850   46.1070 S   0  0  0  0  0  0  0  0  0  0  0  0
   57.7650   34.2800   47.0040 O   0  0  0  0  0  0  0  0  0  0  0  0
   59.5280   35.1310   45.5400 O   0  0  0  0  0  0  0  0  0  0  0  0
   60.0870   33.0200   47.0370 N   0  0  0  0  0  0  0  0  0  0  0  0
   59.9860   31.6440   47.4320 C   0  0  0  0  0  0  0  0  0  0  0  0
   60.7750   30.6370   46.8430 C   0  0  0  0  0  0  0  0  0  0  0  0
   60.6240   29.3030   47.2390 C   0  0  0  0  0  0  0  0  0  0  0  0
   59.7030   28.9660   48.2320 C   0  0  0  0  0  0  0  0  0  0  0  0
   58.9270   29.9620   48.8320 C   0  0  0  0  0  0  0  0  0  0  0  0
   59.0630   31.2950   48.4290 C   0  0  0  0  0  0  0  0  0  0  0  0
   58.2820   32.2480   49.0010 F   0  0  0  0  0  0  0  0  0  0  0  0
   57.5560   31.6960   45.1540 C   0  0  0  0  0  0  0  0  0  0  0  0
   56.5180   26.6660   45.7910 C   0  0  0  0  0  0  0  0  0  0  0  0
   55.1360   26.7080   45.6230 O   0  0  0  0  0  0  0  0  0  0  0  0
   55.2250   24.8580   47.3460 H   0  0  0  0  0  0  0  0  0  0  0  0
   56.6470   24.3790   48.3220 H   0  0  0  0  0  0  0  0  0  0  0  0
   58.9267   24.9985   47.5495 H   0  0  0  0  0  0  0  0  0  0  0  0
   60.3724   26.4318   46.1052 H   0  0  0  0  0  0  0  0  0  0  0  0
   56.9297   30.5209   41.9994 H   0  0  0  0  0  0  0  0  0  0  0  0
   58.2156   32.5748   41.4137 H   0  0  0  0  0  0  0  0  0  0  0  0
   59.0781   34.0692   43.2136 H   0  0  0  0  0  0  0  0  0  0  0  0
   61.5119   30.8996   46.0697 H   0  0  0  0  0  0  0  0  0  0  0  0
   61.2328   28.5182   46.7663 H   0  0  0  0  0  0  0  0  0  0  0  0
   59.5878   27.9170   48.5424 H   0  0  0  0  0  0  0  0  0  0  0  0
   58.2086   29.6975   49.6219 H   0  0  0  0  0  0  0  0  0  0  0  0
   57.3721   31.4507   46.2104 H   0  0  0  0  0  0  0  0  0  0  0  0
  1  2  1  0
  2  3  1  0
  3  4  2  0
  4  5  1  0
  5  6  2  0
  5  7  1  0
  7  8  1  0
  8  9  1  0
  9 10  2  0
  9 11  1  0
 11 12  2  0
 12 13  1  0
 13 14  2  0
 14 15  1  0
 15 16  1  0
 16 17  2  0
 16 18  2  0
 16 19  1  0
 19 20  1  0
 20 21  2  0
 21 22  1  0
 22 23  2  0
 23 24  1  0
 24 25  2  0
 25 26  1  0
 15 27  2  0
  7 28  1  0
 28 29  1  0
 28  2  2  0
 27 11  1  0
 25 20  1  0
  1 30  1  0
  1 31  1  0
  3 32  1  0
  4 33  1  0
 12 34  1  0
 13 35  1  0
 14 36  1  0
 21 37  1  0
 22 38  1  0
 23 39  1  0
 24 40  1  0
 27 41  1  0
M  CHG  2  19  -1  29  -1
M  END
>  <UniqueID>  (58) 
53

>  <SMILES>  (58) 
Nc1ccc(=O)n(OC(=O)c2cccc(S(=O)(=O)[N-]c3ccccc3F)c2)c1[O-]

>  <Energy>  (58) 
55.18947606121316

>  <Genealogy>  (58) 
Nc1ccc(=O)n(OC(=O)c2cccc(S(=O)(=O)[N-]c3ccccc3F)c2)c1[O-] (protonated)
Nc1ccc(=O)n(OC(=O)c2cccc(S(=O)(=O)[N-]c3ccccc3F)c2)c1[O-] (3D coordinates assigned)
Nc1ccc(=O)n(OC(=O)c2cccc(S(=O)(=O)[N-]c3ccccc3F)c2)c1[O-] (optimized conformer: 55.18947606121316 kcal/mol)

>  <smiles>  (58) 
Nc1ccc(=O)n(OC(=O)c2cccc(S(=O)(=O)Nc3ccccc3F)c2)c1O

>  <score_type>  (58) 
oracle

>  <origin>  (58) 
adg

>  <m_score__min__energy>  (58) 
-14.119999999999999

>  <m_primary>  (58) 
energy

$$$$
58:0
     RDKit          3D

 54 56  0  0  0  0  0  0  0  0999 V2000
   57.9200   33.9500   45.8570 C   0  0  0  0  0  0  0  0  0  0  0  0
   57.3240   32.9200   44.8990 C   0  0  0  0  0  0  0  0  0  0  0  0
   58.3470   31.8610   44.4660 C   0  0  0  0  0  0  0  0  0  0  0  0
   58.3470   30.6610   45.3900 C   0  0  0  0  0  0  0  0  0  0  0  0
   57.4280   29.6110   45.3660 C   0  0  0  0  0  0  0  0  0  0  0  0
   56.2870   29.4340   44.4360 C   0  0  0  0  0  0  0  0  0  0  0  0
   55.1670   29.0590   44.8650 O   0  0  0  0  0  0  0  0  0  0  0  0
   56.4290   29.6850   43.0780 O   0  0  0  0  0  0  0  0  0  0  0  0
   57.7870   28.7550   46.4040 C   0  0  0  0  0  0  0  0  0  0  0  0
   57.1240   27.4430   46.7630 C   0  0  0  0  0  0  0  0  0  0  0  0
   57.9550   26.2230   46.3940 C   0  0  0  0  0  0  0  0  0  0  0  0
   59.3630   26.3200   46.3440 C   0  0  0  0  0  0  0  0  0  0  0  0
   60.1460   25.2210   45.9910 C   0  0  0  0  0  0  0  0  0  0  0  0
   59.5410   24.0130   45.6560 C   0  0  0  0  0  0  0  0  0  0  0  0
   58.1510   23.9040   45.6540 C   0  0  0  0  0  0  0  0  0  0  0  0
   57.3430   25.0000   46.0010 C   0  0  0  0  0  0  0  0  0  0  0  0
   55.5820   24.8120   45.9040 S   0  0  0  0  0  0  0  0  0  0  0  0
   54.7880   26.3440   46.0390 N   0  0  0  0  0  0  0  0  0  0  0  0
   55.1060   23.9370   47.0290 O   0  0  0  0  0  0  0  0  0  0  0  0
   55.2080   24.1880   44.5880 O   0  0  0  0  0  0  0  0  0  0  0  0
   58.8810   29.3350   47.0390 C   0  0  0  0  0  0  0  0  0  0  0  0
   59.6140   28.7680   48.2270 C   0  0  0  0  0  0  0  0  0  0  0  0
   59.2210   30.4880   46.4150 N   0  0  0  0  0  0  0  0  0  0  0  0
   60.3890   31.3280   46.7180 C   0  0  0  0  0  0  0  0  0  0  0  0
   60.0240   32.3840   47.7150 C   0  0  0  0  0  0  0  0  0  0  0  0
   60.6420   33.4830   47.7040 O   0  0  0  0  0  0  0  0  0  0  0  0
   58.9500   32.1380   48.6360 N   0  0  0  0  0  0  0  0  0  0  0  0
   58.8300   32.5830   49.8530 C   0  0  0  0  0  0  0  0  0  0  0  0
   59.5360   33.6400   50.3070 N   0  0  0  0  0  0  0  0  0  0  0  0
   59.2560   33.9360   51.6030 C   0  0  0  0  0  0  0  0  0  0  0  0
   58.3110   33.1070   52.1990 C   0  0  0  0  0  0  0  0  0  0  0  0
   57.8170   31.9710   51.0570 S   0  0  0  0  0  0  0  0  0  0  0  0
   57.7373   33.6343   46.8948 H   0  0  0  0  0  0  0  0  0  0  0  0
   59.0033   34.0288   45.6830 H   0  0  0  0  0  0  0  0  0  0  0  0
   57.4485   34.9285   45.6830 H   0  0  0  0  0  0  0  0  0  0  0  0
   56.4847   32.4158   45.4003 H   0  0  0  0  0  0  0  0  0  0  0  0
   56.9930   33.4545   43.9964 H   0  0  0  0  0  0  0  0  0  0  0  0
   58.1012   31.5252   43.4478 H   0  0  0  0  0  0  0  0  0  0  0  0
   59.3465   32.3188   44.5036 H   0  0  0  0  0  0  0  0  0  0  0  0
   56.9463   27.4281   47.8484 H   0  0  0  0  0  0  0  0  0  0  0  0
   56.1889   27.3843   46.1867 H   0  0  0  0  0  0  0  0  0  0  0  0
   59.8493   27.2763   46.5870 H   0  0  0  0  0  0  0  0  0  0  0  0
   61.2424   25.3090   45.9773 H   0  0  0  0  0  0  0  0  0  0  0  0
   60.1605   23.1431   45.3924 H   0  0  0  0  0  0  0  0  0  0  0  0
   57.6813   22.9486   45.3775 H   0  0  0  0  0  0  0  0  0  0  0  0
   55.1560   26.9510   45.2720 H   0  0  0  0  0  0  0  0  0  0  0  0
   59.1456   29.1303   49.1540 H   0  0  0  0  0  0  0  0  0  0  0  0
   59.5663   27.6694   48.1972 H   0  0  0  0  0  0  0  0  0  0  0  0
   60.6653   29.0903   48.1972 H   0  0  0  0  0  0  0  0  0  0  0  0
   61.1908   30.6991   47.1323 H   0  0  0  0  0  0  0  0  0  0  0  0
   60.7315   31.8128   45.7919 H   0  0  0  0  0  0  0  0  0  0  0  0
   60.2240   34.1750   49.7290 H   0  0  0  0  0  0  0  0  0  0  0  0
   59.7388   34.7663   52.1392 H   0  0  0  0  0  0  0  0  0  0  0  0
   57.9494   33.1804   53.2353 H   0  0  0  0  0  0  0  0  0  0  0  0
  1  2  1  0
  2  3  1  0
  3  4  1  0
  4  5  2  0
  5  6  1  0
  6  7  2  0
  6  8  1  0
  5  9  1  0
  9 10  1  0
 10 11  1  0
 11 12  2  0
 12 13  1  0
 13 14  2  0
 14 15  1  0
 15 16  2  0
 16 17  1  0
 17 18  1  0
 17 19  2  0
 17 20  2  0
  9 21  2  0
 21 22  1  0
 21 23  1  0
 23 24  1  0
 24 25  1  0
 25 26  2  0
 25 27  1  0
 27 28  2  3
 28 29  1  0
 29 30  1  0
 30 31  2  0
 31 32  1  0
 23  4  1  0
 32 28  1  0
 16 11  1  0
  1 33  1  0
  1 34  1  0
  1 35  1  0
  2 36  1  0
  2 37  1  0
  3 38  1  0
  3 39  1  0
 10 40  1  0
 10 41  1  0
 12 42  1  0
 13 43  1  0
 14 44  1  0
 15 45  1  0
 18 46  1  0
 22 47  1  0
 22 48  1  0
 22 49  1  0
 24 50  1  0
 24 51  1  0
 29 52  1  0
 30 53  1  0
 31 54  1  0
M  CHG  2   8  -1  18  -1
M  END
>  <UniqueID>  (59) 
54

>  <SMILES>  (59) 
CCCc1c(C(=O)[O-])c(Cc2ccccc2S([NH-])(=O)=O)c(C)n1CC(=O)N=c1[nH]ccs1

>  <Energy>  (59) 
114.62795132318388

>  <Genealogy>  (59) 
CCCc1c(C(=O)[O-])c(Cc2ccccc2S([NH-])(=O)=O)c(C)n1CC(=O)N=c1[nH]ccs1 (protonated)
CCCc1c(C(=O)[O-])c(Cc2ccccc2S([NH-])(=O)=O)c(C)n1CC(=O)N=c1[nH]ccs1 (3D coordinates assigned)
CCCc1c(C(=O)[O-])c(Cc2ccccc2S([NH-])(=O)=O)c(C)n1CC(=O)N=c1[nH]ccs1 (optimized conformer: 114.62795132318388 kcal/mol)

>  <smiles>  (59) 
CCCc1c(C(=O)O)c(Cc2ccccc2S(N)(=O)=O)c(C)n1CC(=O)N=c1[nH]ccs1

>  <score_type>  (59) 
oracle

>  <origin>  (59) 
adg

>  <m_score__min__energy>  (59) 
-13.539999999999999

>  <m_primary>  (59) 
energy

$$$$
59:0
     RDKit          3D

 36 38  0  0  0  0  0  0  0  0999 V2000
   60.9950   30.1470   47.9190 C   0  0  0  0  0  0  0  0  0  0  0  0
   61.6800   31.4490   47.6010 C   0  0  0  0  0  0  0  0  0  0  0  0
   63.0050   31.4230   47.1300 C   0  0  0  0  0  0  0  0  0  0  0  0
   63.6700   32.6070   46.8140 C   0  0  0  0  0  0  0  0  0  0  0  0
   63.0250   33.8320   46.9670 C   0  0  0  0  0  0  0  0  0  0  0  0
   61.7120   33.8790   47.4380 C   0  0  0  0  0  0  0  0  0  0  0  0
   61.0200   32.6940   47.7660 C   0  0  0  0  0  0  0  0  0  0  0  0
   59.6660   32.7500   48.2660 N   0  0  0  0  0  0  0  0  0  0  0  0
   58.5570   33.3420   47.5150 C   0  0  0  0  0  0  0  0  0  0  0  0
   58.3090   32.5770   46.2850 N   0  0  0  0  0  0  0  0  0  0  0  0
   58.0220   31.2790   46.4220 N   0  0  0  0  0  0  0  0  0  0  0  0
   57.7960   30.4580   45.3640 C   0  0  0  0  0  0  0  0  0  0  0  0
   57.4710   29.0390   45.6200 C   0  0  0  0  0  0  0  0  0  0  0  0
   58.5710   27.9160   46.2310 S   0  0  0  0  0  0  0  0  0  0  0  0
   57.4680   26.6520   46.1830 C   0  0  0  0  0  0  0  0  0  0  0  0
   57.7940   25.1220   46.6490 S   0  0  0  0  0  0  0  0  0  0  0  0
   56.2710   27.0410   45.6980 N   0  0  0  0  0  0  0  0  0  0  0  0
   56.2690   28.3620   45.3780 C   0  0  0  0  0  0  0  0  0  0  0  0
   55.1470   28.9610   44.8190 O   0  0  0  0  0  0  0  0  0  0  0  0
   57.8470   30.9940   44.0760 C   0  0  0  0  0  0  0  0  0  0  0  0
   58.1570   32.3390   43.9000 C   0  0  0  0  0  0  0  0  0  0  0  0
   58.2070   32.8380   42.5950 O   0  0  0  0  0  0  0  0  0  0  0  0
   58.4020   33.1430   45.0320 C   0  0  0  0  0  0  0  0  0  0  0  0
   58.7940   34.7340   44.8440 S   0  0  0  0  0  0  0  0  0  0  0  0
   60.9301   30.0237   49.0101 H   0  0  0  0  0  0  0  0  0  0  0  0
   59.9823   30.1511   47.4896 H   0  0  0  0  0  0  0  0  0  0  0  0
   61.5720   29.3147   47.4896 H   0  0  0  0  0  0  0  0  0  0  0  0
   63.5216   30.4593   47.0098 H   0  0  0  0  0  0  0  0  0  0  0  0
   64.7052   32.5736   46.4434 H   0  0  0  0  0  0  0  0  0  0  0  0
   63.5517   34.7646   46.7160 H   0  0  0  0  0  0  0  0  0  0  0  0
   61.2109   34.8512   47.5548 H   0  0  0  0  0  0  0  0  0  0  0  0
   59.4450   32.3380   49.1990 H   0  0  0  0  0  0  0  0  0  0  0  0
   57.6504   33.3317   48.1379 H   0  0  0  0  0  0  0  0  0  0  0  0
   58.8179   34.3764   47.2469 H   0  0  0  0  0  0  0  0  0  0  0  0
   57.6429   30.3556   43.2037 H   0  0  0  0  0  0  0  0  0  0  0  0
   58.9630   33.4110   42.2440 H   0  0  0  0  0  0  0  0  0  0  0  0
  1  2  1  0
  2  3  2  0
  3  4  1  0
  4  5  2  0
  5  6  1  0
  6  7  2  0
  7  8  1  0
  8  9  1  0
  9 10  1  0
 10 11  1  0
 11 12  2  0
 12 13  1  0
 13 14  1  0
 14 15  1  0
 15 16  2  0
 15 17  1  0
 17 18  1  0
 18 19  1  0
 12 20  1  0
 20 21  2  0
 21 22  1  0
 21 23  1  0
 23 24  2  0
  7  2  1  0
 23 10  1  0
 18 13  2  0
  1 25  1  0
  1 26  1  0
  1 27  1  0
  3 28  1  0
  4 29  1  0
  5 30  1  0
  6 31  1  0
  8 32  1  0
  9 33  1  0
  9 34  1  0
 20 35  1  0
 22 36  1  0
M  CHG  2  17  -1  19  -1
M  END
>  <UniqueID>  (60) 
55

>  <SMILES>  (60) 
Cc1ccccc1NCn1nc(-c2sc(=S)[n-]c2[O-])cc(O)c1=S

>  <Energy>  (60) 
78.20702487418681

>  <Genealogy>  (60) 
Cc1ccccc1NCn1nc(-c2sc(=S)[n-]c2[O-])cc(O)c1=S (protonated)
Cc1ccccc1NCn1nc(-c2sc(=S)[n-]c2[O-])cc(O)c1=S (3D coordinates assigned)
Cc1ccccc1NCn1nc(-c2sc(=S)[n-]c2[O-])cc(O)c1=S (optimized conformer: 78.20702487418681 kcal/mol)

>  <smiles>  (60) 
Cc1ccccc1NCn1nc(-c2sc(=S)[nH]c2O)cc(O)c1=S

>  <score_type>  (60) 
oracle

>  <origin>  (60) 
adg

>  <m_score__min__energy>  (60) 
-13.1

>  <m_primary>  (60) 
energy

$$$$
60:0
     RDKit          3D

 41 41  0  0  0  0  0  0  0  0999 V2000
   59.6340   35.0250   45.6490 C   0  0  0  0  0  0  0  0  0  0  0  0
   58.4210   34.4060   44.9630 C   0  0  0  0  0  0  0  0  0  0  0  0
   58.3810   32.9540   45.1870 N   0  0  0  0  0  0  0  0  0  0  0  0
   58.7490   32.3970   46.4650 C   0  0  0  0  0  0  0  0  0  0  0  0
   59.6820   31.3480   46.5390 C   0  0  0  0  0  0  0  0  0  0  0  0
   60.0450   30.8090   47.7760 C   0  0  0  0  0  0  0  0  0  0  0  0
   59.4780   31.3100   48.9520 C   0  0  0  0  0  0  0  0  0  0  0  0
   58.5480   32.3500   48.8900 C   0  0  0  0  0  0  0  0  0  0  0  0
   58.1840   32.8930   47.6540 C   0  0  0  0  0  0  0  0  0  0  0  0
   57.8080   31.8880   43.9330 S   0  0  0  0  0  0  0  0  0  0  0  0
   58.8930   30.9470   43.4920 O   0  0  0  0  0  0  0  0  0  0  0  0
   57.4060   32.7180   42.7450 O   0  0  0  0  0  0  0  0  0  0  0  0
   56.4200   31.0010   44.4790 N   0  0  0  0  0  0  0  0  0  0  0  0
   56.2340   29.5810   44.4060 C   0  0  0  0  0  0  0  0  0  0  0  0
   55.1740   29.0930   44.8840 O   0  0  0  0  0  0  0  0  0  0  0  0
   57.2110   28.7070   43.7990 N   0  0  0  0  0  0  0  0  0  0  0  0
   58.1020   28.0190   44.7760 C   0  0  0  0  0  0  0  0  0  0  0  0
   57.7580   28.4180   46.2290 C   0  0  0  0  0  0  0  0  0  0  0  0
   59.5910   28.3310   44.4990 C   0  0  0  0  0  0  0  0  0  0  0  0
   57.9000   26.4940   44.6340 C   0  0  0  0  0  0  0  0  0  0  0  0
   59.5101   34.9618   46.7402 H   0  0  0  0  0  0  0  0  0  0  0  0
   60.5417   34.4799   45.3508 H   0  0  0  0  0  0  0  0  0  0  0  0
   59.7252   36.0799   45.3508 H   0  0  0  0  0  0  0  0  0  0  0  0
   57.5054   34.8594   45.3706 H   0  0  0  0  0  0  0  0  0  0  0  0
   58.4922   34.5947   43.8817 H   0  0  0  0  0  0  0  0  0  0  0  0
   60.1293   30.9488   45.6168 H   0  0  0  0  0  0  0  0  0  0  0  0
   60.7775   29.9898   47.8248 H   0  0  0  0  0  0  0  0  0  0  0  0
   59.7644   30.8852   49.9254 H   0  0  0  0  0  0  0  0  0  0  0  0
   58.1010   32.7427   49.8152 H   0  0  0  0  0  0  0  0  0  0  0  0
   57.4517   33.7127   47.6111 H   0  0  0  0  0  0  0  0  0  0  0  0
   57.7920   29.2840   43.1470 H   0  0  0  0  0  0  0  0  0  0  0  0
   56.7290   27.9960   43.2110 H   0  0  0  0  0  0  0  0  0  0  0  0
   58.3130   27.7742   46.9272 H   0  0  0  0  0  0  0  0  0  0  0  0
   58.0383   29.4683   46.3970 H   0  0  0  0  0  0  0  0  0  0  0  0
   56.6778   28.2954   46.3970 H   0  0  0  0  0  0  0  0  0  0  0  0
   60.1259   28.4431   45.4536 H   0  0  0  0  0  0  0  0  0  0  0  0
   60.0374   27.5069   43.9232 H   0  0  0  0  0  0  0  0  0  0  0  0
   59.6690   29.2650   43.9232 H   0  0  0  0  0  0  0  0  0  0  0  0
   57.8395   26.0375   45.6330 H   0  0  0  0  0  0  0  0  0  0  0  0
   56.9679   26.2972   44.0839 H   0  0  0  0  0  0  0  0  0  0  0  0
   58.7487   26.0614   44.0839 H   0  0  0  0  0  0  0  0  0  0  0  0
  1  2  1  0
  2  3  1  0
  3  4  1  0
  4  5  2  0
  5  6  1  0
  6  7  2  0
  7  8  1  0
  8  9  2  0
  3 10  1  0
 10 11  2  0
 10 12  2  0
 10 13  1  0
 13 14  1  0
 14 15  2  0
 14 16  1  0
 16 17  1  0
 17 18  1  0
 17 19  1  0
 17 20  1  0
  9  4  1  0
  1 21  1  0
  1 22  1  0
  1 23  1  0
  2 24  1  0
  2 25  1  0
  5 26  1  0
  6 27  1  0
  7 28  1  0
  8 29  1  0
  9 30  1  0
 16 31  1  0
 16 32  1  0
 18 33  1  0
 18 34  1  0
 18 35  1  0
 19 36  1  0
 19 37  1  0
 19 38  1  0
 20 39  1  0
 20 40  1  0
 20 41  1  0
M  CHG  2  13  -1  16   1
M  END
>  <UniqueID>  (61) 
56

>  <SMILES>  (61) 
CCN(c1ccccc1)S(=O)(=O)[N-]C(=O)[NH2+]C(C)(C)C

>  <Energy>  (61) 
43.17071251378883

>  <Genealogy>  (61) 
CCN(c1ccccc1)S(=O)(=O)[N-]C(=O)[NH2+]C(C)(C)C (protonated)
CCN(c1ccccc1)S(=O)(=O)[N-]C(=O)[NH2+]C(C)(C)C (3D coordinates assigned)
CCN(c1ccccc1)S(=O)(=O)[N-]C(=O)[NH2+]C(C)(C)C (optimized conformer: 43.17071251378883 kcal/mol)

>  <smiles>  (61) 
CCN(c1ccccc1)S(=O)(=O)NC(=O)NC(C)(C)C

>  <score_type>  (61) 
oracle

>  <origin>  (61) 
adg

>  <m_score__min__energy>  (61) 
-7.0199999999999996

>  <m_primary>  (61) 
energy

$$$$
61:0
     RDKit          3D

 33 34  0  0  0  0  0  0  0  0999 V2000
   56.0922   26.4374   46.6905 H   0  0  0  0  0  0  0  0  0  0  0  0
   57.0370   26.8660   46.3250 C   0  0  0  0  0  0  0  0  0  0  0  0
   57.0170   27.8900   45.3770 C   0  0  0  0  0  0  0  0  0  0  0  0
   56.0536   28.2618   44.9979 H   0  0  0  0  0  0  0  0  0  0  0  0
   58.2180   28.4530   44.9000 C   0  0  0  0  0  0  0  0  0  0  0  0
   58.1660   29.4940   43.9000 N   0  0  0  0  0  0  0  0  0  0  0  0
   58.9960   30.1240   44.0060 H   0  0  0  0  0  0  0  0  0  0  0  0
   58.2140   29.1030   42.9320 H   0  0  0  0  0  0  0  0  0  0  0  0
   56.9730   30.2780   44.0690 C   0  0  0  0  0  0  0  0  0  0  0  0
   55.5490   29.7150   43.4620 S   0  0  0  0  0  0  0  0  0  0  0  0
   57.0100   31.4000   44.9730 N   0  0  0  0  0  0  0  0  0  0  0  0
   58.0350   31.8970   45.6040 C   0  0  0  0  0  0  0  0  0  0  0  0
   59.0200   31.0970   46.1020 N   0  0  0  0  0  0  0  0  0  0  0  0
   60.0870   31.5970   46.7820 C   0  0  0  0  0  0  0  0  0  0  0  0
   61.1330   30.6690   47.3100 C   0  0  0  0  0  0  0  0  0  0  0  0
   61.1155   30.6845   48.4098 H   0  0  0  0  0  0  0  0  0  0  0  0
   60.9306   29.6479   46.9544 H   0  0  0  0  0  0  0  0  0  0  0  0
   62.1227   30.9916   46.9544 H   0  0  0  0  0  0  0  0  0  0  0  0
   60.1920   32.9770   46.9930 C   0  0  0  0  0  0  0  0  0  0  0  0
   61.0455   33.3894   47.5510 H   0  0  0  0  0  0  0  0  0  0  0  0
   59.2000   33.8290   46.4870 C   0  0  0  0  0  0  0  0  0  0  0  0
   59.2710   35.3060   46.7380 C   0  0  0  0  0  0  0  0  0  0  0  0
   59.2800   35.4937   47.8218 H   0  0  0  0  0  0  0  0  0  0  0  0
   60.1896   35.7106   46.2881 H   0  0  0  0  0  0  0  0  0  0  0  0
   58.3954   35.7969   46.2881 H   0  0  0  0  0  0  0  0  0  0  0  0
   58.1080   33.2800   45.8040 C   0  0  0  0  0  0  0  0  0  0  0  0
   57.3091   33.9345   45.4254 H   0  0  0  0  0  0  0  0  0  0  0  0
   59.4480   27.9550   45.3950 C   0  0  0  0  0  0  0  0  0  0  0  0
   61.0000   28.5950   44.8640 Cl  0  0  0  0  0  0  0  0  0  0  0  0
   59.4540   26.9270   46.3460 C   0  0  0  0  0  0  0  0  0  0  0  0
   60.4109   26.5439   46.7301 H   0  0  0  0  0  0  0  0  0  0  0  0
   58.2540   26.3850   46.8100 C   0  0  0  0  0  0  0  0  0  0  0  0
   58.2700   25.3890   47.7290 F   0  0  0  0  0  0  0  0  0  0  0  0
  1  2  1  0
  2  3  2  0
  3  4  1  0
  3  5  1  0
  5  6  1  0
  6  7  1  0
  6  8  1  0
  6  9  1  0
  9 10  2  0
  9 11  1  0
 11 12  2  0
 12 13  1  0
 13 14  1  0
 14 15  1  0
 15 16  1  0
 15 17  1  0
 15 18  1  0
 14 19  2  0
 19 20  1  0
 19 21  1  0
 21 22  1  0
 22 23  1  0
 22 24  1  0
 22 25  1  0
 21 26  2  0
 26 27  1  0
  5 28  2  0
 28 29  1  0
 28 30  1  0
 30 31  1  0
 30 32  2  0
 32 33  1  0
 32  2  1  0
 26 12  1  0
M  CHG  2   6   1  13  -1
M  END
>  <UniqueID>  (62) 
57

>  <SMILES>  (62) 
Cc1cc(C)[n-]/c(=N\C(=S)[NH2+]c2ccc(F)cc2Cl)c1

>  <Energy>  (62) 
39.90157521128911

>  <Genealogy>  (62) 
Cc1cc(C)[n-]c(=NC(=S)[NH2+]c2ccc(F)cc2Cl)c1 (protonated)
Cc1cc(C)[n-]/c(=N\C(=S)[NH2+]c2ccc(F)cc2Cl)c1 (cis-trans isomerization)
Cc1cc(C)[n-]/c(=N\C(=S)[NH2+]c2ccc(F)cc2Cl)c1 (3D coordinates assigned)
Cc1cc(C)[n-]/c(=N\C(=S)[NH2+]c2ccc(F)cc2Cl)c1 (optimized conformer: 39.90157521128911 kcal/mol)

>  <smiles>  (62) 
Cc1cc(C)[nH]c(=NC(=S)Nc2ccc(F)cc2Cl)c1

>  <score_type>  (62) 
oracle

>  <origin>  (62) 
adg

>  <m_score__min__energy>  (62) 
-7.0099999999999998

>  <m_primary>  (62) 
energy

$$$$
62:0
     RDKit          3D

 37 38  0  0  0  0  0  0  0  0999 V2000
   57.0040   34.5680   44.8710 C   0  0  0  0  0  0  0  0  0  0  0  0
   57.7150   33.3610   45.3910 C   0  0  0  0  0  0  0  0  0  0  0  0
   57.2560   32.1360   45.2670 O   0  0  0  0  0  0  0  0  0  0  0  0
   58.1220   31.3120   45.8110 C   0  0  0  0  0  0  0  0  0  0  0  0
   57.9560   29.8590   45.8620 C   0  0  0  0  0  0  0  0  0  0  0  0
   56.8370   29.3400   45.6080 O   0  0  0  0  0  0  0  0  0  0  0  0
   59.2010   32.0100   46.3160 C   0  0  0  0  0  0  0  0  0  0  0  0
   58.9300   33.3420   46.0580 C   0  0  0  0  0  0  0  0  0  0  0  0
   59.8280   34.5080   46.3580 C   0  0  0  0  0  0  0  0  0  0  0  0
   61.0760   34.0590   47.0790 C   0  0  0  0  0  0  0  0  0  0  0  0
   62.2540   33.8430   46.3460 C   0  0  0  0  0  0  0  0  0  0  0  0
   63.4140   33.3980   46.9820 C   0  0  0  0  0  0  0  0  0  0  0  0
   63.4210   33.1470   48.3580 C   0  0  0  0  0  0  0  0  0  0  0  0
   64.6180   32.6980   48.9400 O   0  0  0  0  0  0  0  0  0  0  0  0
   64.7250   31.9740   50.1680 C   0  0  0  0  0  0  0  0  0  0  0  0
   66.1380   32.0820   50.7560 C   0  0  0  0  0  0  0  0  0  0  0  0
   67.0030   32.9150   49.9190 N   0  0  0  0  0  0  0  0  0  0  0  0
   62.2430   33.3580   49.0980 C   0  0  0  0  0  0  0  0  0  0  0  0
   61.0760   33.8040   48.4670 C   0  0  0  0  0  0  0  0  0  0  0  0
   59.6300   34.0260   49.4480 Cl  0  0  0  0  0  0  0  0  0  0  0  0
   56.6464   35.1751   45.7157 H   0  0  0  0  0  0  0  0  0  0  0  0
   57.6950   35.1646   44.2573 H   0  0  0  0  0  0  0  0  0  0  0  0
   56.1473   34.2528   44.2573 H   0  0  0  0  0  0  0  0  0  0  0  0
   58.8111   29.2182   46.1230 H   0  0  0  0  0  0  0  0  0  0  0  0
   60.0879   31.5951   46.8172 H   0  0  0  0  0  0  0  0  0  0  0  0
   60.1136   34.9943   45.4136 H   0  0  0  0  0  0  0  0  0  0  0  0
   59.2838   35.2117   47.0050 H   0  0  0  0  0  0  0  0  0  0  0  0
   62.2627   34.0260   45.2614 H   0  0  0  0  0  0  0  0  0  0  0  0
   64.3316   33.2432   46.3954 H   0  0  0  0  0  0  0  0  0  0  0  0
   64.0038   32.3843   50.8902 H   0  0  0  0  0  0  0  0  0  0  0  0
   64.5124   30.9138   49.9663 H   0  0  0  0  0  0  0  0  0  0  0  0
   66.0748   32.5275   51.7598 H   0  0  0  0  0  0  0  0  0  0  0  0
   66.5711   31.0720   50.8035 H   0  0  0  0  0  0  0  0  0  0  0  0
   66.8290   33.9280   50.1150 H   0  0  0  0  0  0  0  0  0  0  0  0
   66.7890   32.7270   48.9130 H   0  0  0  0  0  0  0  0  0  0  0  0
   68.0080   32.6860   50.0990 H   0  0  0  0  0  0  0  0  0  0  0  0
   62.2392   33.1708   50.1819 H   0  0  0  0  0  0  0  0  0  0  0  0
  1  2  1  0
  2  3  1  0
  3  4  1  0
  4  5  1  0
  5  6  2  0
  4  7  2  0
  7  8  1  0
  8  9  1  0
  9 10  1  0
 10 11  2  0
 11 12  1  0
 12 13  2  0
 13 14  1  0
 14 15  1  0
 15 16  1  0
 16 17  1  0
 13 18  1  0
 18 19  2  0
 19 20  1  0
  8  2  2  0
 19 10  1  0
  1 21  1  0
  1 22  1  0
  1 23  1  0
  5 24  1  0
  7 25  1  0
  9 26  1  0
  9 27  1  0
 11 28  1  0
 12 29  1  0
 15 30  1  0
 15 31  1  0
 16 32  1  0
 16 33  1  0
 17 34  1  0
 17 35  1  0
 17 36  1  0
 18 37  1  0
M  CHG  1  17   1
M  END
>  <UniqueID>  (63) 
58

>  <SMILES>  (63) 
Cc1oc(C=O)cc1Cc1ccc(OCC[NH3+])cc1Cl

>  <Energy>  (63) 
57.73243992763965

>  <Genealogy>  (63) 
Cc1oc(C=O)cc1Cc1ccc(OCC[NH3+])cc1Cl (protonated)
Cc1oc(C=O)cc1Cc1ccc(OCC[NH3+])cc1Cl (3D coordinates assigned)
Cc1oc(C=O)cc1Cc1ccc(OCC[NH3+])cc1Cl (optimized conformer: 57.73243992763965 kcal/mol)

>  <smiles>  (63) 
Cc1oc(C=O)cc1Cc1ccc(OCCN)cc1Cl

>  <score_type>  (63) 
oracle

>  <origin>  (63) 
adg

>  <m_score__min__energy>  (63) 
-5.25

>  <m_primary>  (63) 
energy

$$$$
63:0
     RDKit          3D

 40 42  0  0  0  0  0  0  0  0999 V2000
   58.8910   32.4830   50.1670 C   0  0  0  0  0  0  0  0  0  0  0  0
   58.9950   33.0580   48.8190 N   0  0  0  0  0  0  0  0  0  0  0  0
   58.2310   32.5450   47.8040 C   0  0  0  0  0  0  0  0  0  0  0  0
   58.3210   33.0640   46.5030 C   0  0  0  0  0  0  0  0  0  0  0  0
   57.4900   32.5010   45.4120 C   0  0  0  0  0  0  0  0  0  0  0  0
   57.0200   33.2720   44.5330 O   0  0  0  0  0  0  0  0  0  0  0  0
   57.2490   31.0930   45.2900 N   0  0  0  0  0  0  0  0  0  0  0  0
   58.2210   30.0460   45.4510 C   0  0  0  0  0  0  0  0  0  0  0  0
   59.5810   30.3700   45.6130 C   0  0  0  0  0  0  0  0  0  0  0  0
   60.5380   29.3700   45.7750 C   0  0  0  0  0  0  0  0  0  0  0  0
   60.1510   28.0330   45.7920 C   0  0  0  0  0  0  0  0  0  0  0  0
   58.8050   27.6900   45.6540 C   0  0  0  0  0  0  0  0  0  0  0  0
   57.8170   28.6840   45.4910 C   0  0  0  0  0  0  0  0  0  0  0  0
   56.3930   28.2600   45.3520 C   0  0  0  0  0  0  0  0  0  0  0  0
   55.5900   28.9970   44.7170 O   0  0  0  0  0  0  0  0  0  0  0  0
   55.9130   27.0660   45.9980 N   0  0  0  0  0  0  0  0  0  0  0  0
   56.0440   25.8210   45.6330 C   0  0  0  0  0  0  0  0  0  0  0  0
   57.0800   25.3680   44.7870 C   0  0  0  0  0  0  0  0  0  0  0  0
   57.1510   24.0130   44.4520 C   0  0  0  0  0  0  0  0  0  0  0  0
   56.2090   23.1180   44.9580 C   0  0  0  0  0  0  0  0  0  0  0  0
   56.2850   21.4160   44.5400 Cl  0  0  0  0  0  0  0  0  0  0  0  0
   55.2080   23.5930   45.8080 C   0  0  0  0  0  0  0  0  0  0  0  0
   55.1540   24.9140   46.1240 N   0  0  0  0  0  0  0  0  0  0  0  0
   59.1880   34.1380   46.2680 C   0  0  0  0  0  0  0  0  0  0  0  0
   59.9590   34.6520   47.3070 C   0  0  0  0  0  0  0  0  0  0  0  0
   59.8570   34.0980   48.5840 C   0  0  0  0  0  0  0  0  0  0  0  0
   60.5640   34.5700   49.5160 O   0  0  0  0  0  0  0  0  0  0  0  0
   59.0344   33.2758   50.9159 H   0  0  0  0  0  0  0  0  0  0  0  0
   57.8966   32.0312   50.2972 H   0  0  0  0  0  0  0  0  0  0  0  0
   59.6642   31.7115   50.2972 H   0  0  0  0  0  0  0  0  0  0  0  0
   57.5384   31.7160   48.0113 H   0  0  0  0  0  0  0  0  0  0  0  0
   59.8922   31.4250   45.6117 H   0  0  0  0  0  0  0  0  0  0  0  0
   61.5989   29.6371   45.8894 H   0  0  0  0  0  0  0  0  0  0  0  0
   60.9081   27.2445   45.9145 H   0  0  0  0  0  0  0  0  0  0  0  0
   58.5105   26.6303   45.6726 H   0  0  0  0  0  0  0  0  0  0  0  0
   57.8251   26.0759   44.3949 H   0  0  0  0  0  0  0  0  0  0  0  0
   57.9508   23.6522   43.7885 H   0  0  0  0  0  0  0  0  0  0  0  0
   54.4628   22.8978   46.2220 H   0  0  0  0  0  0  0  0  0  0  0  0
   59.2600   34.5760   45.2616 H   0  0  0  0  0  0  0  0  0  0  0  0
   60.6457   35.4912   47.1223 H   0  0  0  0  0  0  0  0  0  0  0  0
  1  2  1  0
  2  3  1  0
  3  4  2  0
  4  5  1  0
  5  6  2  0
  5  7  1  0
  7  8  1  0
  8  9  2  0
  9 10  1  0
 10 11  2  0
 11 12  1  0
 12 13  2  0
 13 14  1  0
 14 15  2  0
 14 16  1  0
 16 17  2  3
 17 18  1  0
 18 19  2  0
 19 20  1  0
 20 21  1  0
 20 22  2  0
 22 23  1  0
  4 24  1  0
 24 25  2  0
 25 26  1  0
 26 27  2  0
 26  2  1  0
 13  8  1  0
 23 17  1  0
  1 28  1  0
  1 29  1  0
  1 30  1  0
  3 31  1  0
  9 32  1  0
 10 33  1  0
 11 34  1  0
 12 35  1  0
 18 36  1  0
 19 37  1  0
 22 38  1  0
 24 39  1  0
 25 40  1  0
M  CHG  2   7  -1  23  -1
M  END
>  <UniqueID>  (64) 
59

>  <SMILES>  (64) 
Cn1cc(C(=O)[N-]c2ccccc2C(=O)N=c2ccc(Cl)c[n-]2)ccc1=O

>  <Energy>  (64) 
63.762360685204754

>  <Genealogy>  (64) 
Cn1cc(C(=O)[N-]c2ccccc2C(=O)N=c2ccc(Cl)c[n-]2)ccc1=O (protonated)
Cn1cc(C(=O)[N-]c2ccccc2C(=O)N=c2ccc(Cl)c[n-]2)ccc1=O (3D coordinates assigned)
Cn1cc(C(=O)[N-]c2ccccc2C(=O)N=c2ccc(Cl)c[n-]2)ccc1=O (optimized conformer: 63.762360685204754 kcal/mol)

>  <smiles>  (64) 
Cn1cc(C(=O)Nc2ccccc2C(=O)N=c2ccc(Cl)c[nH]2)ccc1=O

>  <score_type>  (64) 
oracle

>  <origin>  (64) 
adg

>  <m_score__min__energy>  (64) 
-12.65

>  <m_primary>  (64) 
energy

$$$$
64:0
     RDKit          3D

 45 46  0  0  0  0  0  0  0  0999 V2000
   56.4240   32.2780   52.3270 O   0  0  0  0  0  0  0  0  0  0  0  0
   56.8230   31.2430   51.7300 C   0  0  0  0  0  0  0  0  0  0  0  0
   56.4210   29.9250   52.2610 C   0  0  0  0  0  0  0  0  0  0  0  0
   55.1600   29.5320   52.5000 C   0  0  0  0  0  0  0  0  0  0  0  0
   53.9460   30.3450   52.2620 C   0  0  0  0  0  0  0  0  0  0  0  0
   53.6440   30.8650   50.9890 C   0  0  0  0  0  0  0  0  0  0  0  0
   52.5010   31.6480   50.8000 C   0  0  0  0  0  0  0  0  0  0  0  0
   51.6630   31.9380   51.8810 C   0  0  0  0  0  0  0  0  0  0  0  0
   50.5260   32.7150   51.6920 O   0  0  0  0  0  0  0  0  0  0  0  0
   51.9740   31.4520   53.1550 C   0  0  0  0  0  0  0  0  0  0  0  0
   53.1160   30.6680   53.3480 C   0  0  0  0  0  0  0  0  0  0  0  0
   57.8150   31.3880   50.6080 C   0  0  0  0  0  0  0  0  0  0  0  0
   58.6520   30.1430   50.4910 C   0  0  0  0  0  0  0  0  0  0  0  0
   59.1840   29.6780   51.4890 O   0  0  0  0  0  0  0  0  0  0  0  0
   58.8200   29.4460   49.1690 C   0  0  0  0  0  0  0  0  0  0  0  0
   59.7890   28.2620   49.3030 C   0  0  0  0  0  0  0  0  0  0  0  0
   60.5980   28.0120   48.0140 C   0  0  0  0  0  0  0  0  0  0  0  0
   59.9300   28.5820   46.7490 C   0  0  0  0  0  0  0  0  0  0  0  0
   58.5590   28.0040   46.5100 C   0  0  0  0  0  0  0  0  0  0  0  0
   58.2540   26.6990   46.9290 C   0  0  0  0  0  0  0  0  0  0  0  0
   56.9950   26.1500   46.6670 C   0  0  0  0  0  0  0  0  0  0  0  0
   56.0330   26.8990   45.9830 C   0  0  0  0  0  0  0  0  0  0  0  0
   54.7840   26.3460   45.7210 O   0  0  0  0  0  0  0  0  0  0  0  0
   56.3290   28.2010   45.5620 C   0  0  0  0  0  0  0  0  0  0  0  0
   55.3760   28.9510   44.8830 O   0  0  0  0  0  0  0  0  0  0  0  0
   57.5890   28.7520   45.8230 C   0  0  0  0  0  0  0  0  0  0  0  0
   57.2228   29.2043   52.4792 H   0  0  0  0  0  0  0  0  0  0  0  0
   55.0166   28.5202   52.9071 H   0  0  0  0  0  0  0  0  0  0  0  0
   54.3101   30.6544   50.1393 H   0  0  0  0  0  0  0  0  0  0  0  0
   52.2608   32.0364   49.7993 H   0  0  0  0  0  0  0  0  0  0  0  0
   51.3191   31.6869   54.0070 H   0  0  0  0  0  0  0  0  0  0  0  0
   53.3653   30.3026   54.3551 H   0  0  0  0  0  0  0  0  0  0  0  0
   57.2746   31.5527   49.6641 H   0  0  0  0  0  0  0  0  0  0  0  0
   58.4725   32.2444   50.8184 H   0  0  0  0  0  0  0  0  0  0  0  0
   57.8417   29.0761   48.8282 H   0  0  0  0  0  0  0  0  0  0  0  0
   59.2308   30.1605   48.4404 H   0  0  0  0  0  0  0  0  0  0  0  0
   60.4900   28.4711   50.1245 H   0  0  0  0  0  0  0  0  0  0  0  0
   59.1902   27.3609   49.5018 H   0  0  0  0  0  0  0  0  0  0  0  0
   61.5866   28.4809   48.1270 H   0  0  0  0  0  0  0  0  0  0  0  0
   60.6658   26.9222   47.8809 H   0  0  0  0  0  0  0  0  0  0  0  0
   59.8387   29.6726   46.8592 H   0  0  0  0  0  0  0  0  0  0  0  0
   60.5604   28.3138   45.8884 H   0  0  0  0  0  0  0  0  0  0  0  0
   59.0090   26.1058   47.4658 H   0  0  0  0  0  0  0  0  0  0  0  0
   56.7613   25.1278   46.9994 H   0  0  0  0  0  0  0  0  0  0  0  0
   57.8202   29.7742   45.4889 H   0  0  0  0  0  0  0  0  0  0  0  0
  1  2  2  0
  2  3  1  0
  3  4  2  3
  4  5  1  0
  5  6  2  0
  6  7  1  0
  7  8  2  0
  8  9  1  0
  8 10  1  0
 10 11  2  0
  2 12  1  0
 12 13  1  0
 13 14  2  0
 13 15  1  0
 15 16  1  0
 16 17  1  0
 17 18  1  0
 18 19  1  0
 19 20  2  0
 20 21  1  0
 21 22  2  0
 22 23  1  0
 22 24  1  0
 24 25  1  0
 24 26  2  0
 11  5  1  0
 26 19  1  0
  3 27  1  0
  4 28  1  0
  6 29  1  0
  7 30  1  0
 10 31  1  0
 11 32  1  0
 12 33  1  0
 12 34  1  0
 15 35  1  0
 15 36  1  0
 16 37  1  0
 16 38  1  0
 17 39  1  0
 17 40  1  0
 18 41  1  0
 18 42  1  0
 20 43  1  0
 21 44  1  0
 26 45  1  0
M  CHG  3   9  -1  23  -1  25  -1
M  END
>  <UniqueID>  (65) 
60

>  <SMILES>  (65) 
O=C(C=Cc1ccc([O-])cc1)CC(=O)CCCCc1ccc([O-])c([O-])c1

>  <Energy>  (65) 
46.4135098769138

>  <Genealogy>  (65) 
O=C(C=Cc1ccc([O-])cc1)CC(=O)CCCCc1ccc([O-])c([O-])c1 (protonated)
O=C(C=Cc1ccc([O-])cc1)CC(=O)CCCCc1ccc([O-])c([O-])c1 (3D coordinates assigned)
O=C(C=Cc1ccc([O-])cc1)CC(=O)CCCCc1ccc([O-])c([O-])c1 (optimized conformer: 46.4135098769138 kcal/mol)

>  <smiles>  (65) 
O=C(C=Cc1ccc(O)cc1)CC(=O)CCCCc1ccc(O)c(O)c1

>  <score_type>  (65) 
oracle

>  <origin>  (65) 
adg

>  <m_score__min__energy>  (65) 
-18.5

>  <m_primary>  (65) 
energy

$$$$
65:0
     RDKit          3D

 61 65  0  0  0  0  0  0  0  0999 V2000
   58.2640   29.0360   51.3690 O   0  0  0  0  0  0  0  0  0  0  0  0
   58.2010   30.2390   50.9940 C   0  0  0  0  0  0  0  0  0  0  0  0
   59.2550   30.8170   50.2170 N   0  0  0  0  0  0  0  0  0  0  0  0
   59.0940   31.6030   49.0280 C   0  0  0  0  0  0  0  0  0  0  0  0
   59.9710   31.3910   47.9570 C   0  0  0  0  0  0  0  0  0  0  0  0
   59.8360   32.1260   46.7750 C   0  0  0  0  0  0  0  0  0  0  0  0
   58.8050   33.0640   46.6450 C   0  0  0  0  0  0  0  0  0  0  0  0
   58.6710   33.8480   45.4100 C   0  0  0  0  0  0  0  0  0  0  0  0
   59.2220   34.9780   45.3320 O   0  0  0  0  0  0  0  0  0  0  0  0
   57.9330   33.3480   44.2890 N   0  0  0  0  0  0  0  0  0  0  0  0
   58.3090   32.1490   43.5510 C   0  0  0  0  0  0  0  0  0  0  0  0
   57.5700   30.9670   44.1070 C   0  0  0  0  0  0  0  0  0  0  0  0
   56.2240   30.7450   43.7710 C   0  0  0  0  0  0  0  0  0  0  0  0
   55.5490   29.6260   44.2710 C   0  0  0  0  0  0  0  0  0  0  0  0
   56.2150   28.7160   45.0990 C   0  0  0  0  0  0  0  0  0  0  0  0
   55.5420   27.6040   45.5920 O   0  0  0  0  0  0  0  0  0  0  0  0
   57.5590   28.9240   45.4250 C   0  0  0  0  0  0  0  0  0  0  0  0
   58.2370   30.0430   44.9280 C   0  0  0  0  0  0  0  0  0  0  0  0
   57.9060   33.2620   47.7040 C   0  0  0  0  0  0  0  0  0  0  0  0
   58.0470   32.5350   48.8880 C   0  0  0  0  0  0  0  0  0  0  0  0
   57.0710   31.0480   51.3370 N   0  0  0  0  0  0  0  0  0  0  0  0
   55.9480   30.6340   52.1290 C   0  0  0  0  0  0  0  0  0  0  0  0
   54.6670   30.4970   51.5660 C   0  0  0  0  0  0  0  0  0  0  0  0
   53.5760   30.1570   52.3690 C   0  0  0  0  0  0  0  0  0  0  0  0
   53.7480   29.9670   53.7410 C   0  0  0  0  0  0  0  0  0  0  0  0
   55.0130   30.1140   54.3140 C   0  0  0  0  0  0  0  0  0  0  0  0
   56.1170   30.4460   53.5150 C   0  0  0  0  0  0  0  0  0  0  0  0
   57.4190   30.5670   54.1140 N   0  0  0  0  0  0  0  0  0  0  0  0
   57.8990   31.8790   54.5380 C   0  0  0  0  0  0  0  0  0  0  0  0
   58.7890   32.4380   53.4690 C   0  0  0  0  0  0  0  0  0  0  0  0
   58.4230   33.6270   52.8110 C   0  0  0  0  0  0  0  0  0  0  0  0
   59.2470   34.1710   51.8240 C   0  0  0  0  0  0  0  0  0  0  0  0
   60.4430   33.5410   51.4890 C   0  0  0  0  0  0  0  0  0  0  0  0
   60.8140   32.3550   52.1270 C   0  0  0  0  0  0  0  0  0  0  0  0
   59.9860   31.7780   53.1060 C   0  0  0  0  0  0  0  0  0  0  0  0
   60.4480   30.5250   53.7550 C   0  0  0  0  0  0  0  0  0  0  0  0
   59.7100   29.4320   53.9920 C   0  0  0  0  0  0  0  0  0  0  0  0
   58.2560   29.4050   54.2590 C   0  0  0  0  0  0  0  0  0  0  0  0
   57.7520   28.3260   54.6700 O   0  0  0  0  0  0  0  0  0  0  0  0
   60.7712   30.6415   48.0461 H   0  0  0  0  0  0  0  0  0  0  0  0
   60.5412   31.9668   45.9459 H   0  0  0  0  0  0  0  0  0  0  0  0
   58.0514   32.2761   42.4892 H   0  0  0  0  0  0  0  0  0  0  0  0
   59.3921   31.9831   43.6482 H   0  0  0  0  0  0  0  0  0  0  0  0
   55.6992   31.4531   43.1128 H   0  0  0  0  0  0  0  0  0  0  0  0
   54.4925   29.4615   44.0125 H   0  0  0  0  0  0  0  0  0  0  0  0
   58.0841   28.2069   46.0731 H   0  0  0  0  0  0  0  0  0  0  0  0
   59.2960   30.1994   45.1813 H   0  0  0  0  0  0  0  0  0  0  0  0
   57.0888   33.9911   47.6014 H   0  0  0  0  0  0  0  0  0  0  0  0
   57.3379   32.6907   49.7144 H   0  0  0  0  0  0  0  0  0  0  0  0
   54.5233   30.6584   50.4874 H   0  0  0  0  0  0  0  0  0  0  0  0
   52.5792   30.0387   51.9192 H   0  0  0  0  0  0  0  0  0  0  0  0
   52.8866   29.7013   54.3714 H   0  0  0  0  0  0  0  0  0  0  0  0
   55.1442   29.9688   55.3965 H   0  0  0  0  0  0  0  0  0  0  0  0
   57.0434   32.5521   54.6958 H   0  0  0  0  0  0  0  0  0  0  0  0
   58.4603   31.7847   55.4793 H   0  0  0  0  0  0  0  0  0  0  0  0
   57.4818   34.1309   53.0760 H   0  0  0  0  0  0  0  0  0  0  0  0
   58.9514   35.0978   51.3106 H   0  0  0  0  0  0  0  0  0  0  0  0
   61.0970   33.9783   50.7202 H   0  0  0  0  0  0  0  0  0  0  0  0
   61.7635   31.8676   51.8608 H   0  0  0  0  0  0  0  0  0  0  0  0
   61.5005   30.4906   54.0728 H   0  0  0  0  0  0  0  0  0  0  0  0
   60.2345   28.4651   53.9875 H   0  0  0  0  0  0  0  0  0  0  0  0
  1  2  2  0
  2  3  1  0
  3  4  1  0
  4  5  2  0
  5  6  1  0
  6  7  2  0
  7  8  1  0
  8  9  2  0
  8 10  1  0
 10 11  1  0
 11 12  1  0
 12 13  2  0
 13 14  1  0
 14 15  2  0
 15 16  1  0
 15 17  1  0
 17 18  2  0
  7 19  1  0
 19 20  2  0
  2 21  1  0
 21 22  1  0
 22 23  2  0
 23 24  1  0
 24 25  2  0
 25 26  1  0
 26 27  2  0
 27 28  1  0
 28 29  1  0
 29 30  1  0
 30 31  2  0
 31 32  1  0
 32 33  2  0
 33 34  1  0
 34 35  2  0
 35 36  1  0
 36 37  2  0
 37 38  1  0
 38 39  2  0
 20  4  1  0
 27 22  1  0
 38 28  1  0
 18 12  1  0
 35 30  1  0
  5 40  1  0
  6 41  1  0
 11 42  1  0
 11 43  1  0
 13 44  1  0
 14 45  1  0
 17 46  1  0
 18 47  1  0
 19 48  1  0
 20 49  1  0
 23 50  1  0
 24 51  1  0
 25 52  1  0
 26 53  1  0
 29 54  1  0
 29 55  1  0
 31 56  1  0
 32 57  1  0
 33 58  1  0
 34 59  1  0
 36 60  1  0
 37 61  1  0
M  CHG  4   3  -1  10  -1  16  -1  21  -1
M  END
>  <UniqueID>  (66) 
61

>  <SMILES>  (66) 
O=C([N-]c1ccc(C(=O)[N-]Cc2ccc([O-])cc2)cc1)[N-]c1ccccc1N1Cc2ccccc2C=CC1=O

>  <Energy>  (66) 
94.52957411717469

>  <Genealogy>  (66) 
O=C([N-]c1ccc(C(=O)[N-]Cc2ccc([O-])cc2)cc1)[N-]c1ccccc1N1Cc2ccccc2C=CC1=O (protonated)
O=C([N-]c1ccc(C(=O)[N-]Cc2ccc([O-])cc2)cc1)[N-]c1ccccc1N1Cc2ccccc2C=CC1=O (3D coordinates assigned)
O=C([N-]c1ccc(C(=O)[N-]Cc2ccc([O-])cc2)cc1)[N-]c1ccccc1N1Cc2ccccc2C=CC1=O (nonaromatic ring conformer: 94.52957411717469 kcal/mol)

>  <smiles>  (66) 
O=C(Nc1ccc(C(=O)NCc2ccc(O)cc2)cc1)Nc1ccccc1N1Cc2ccccc2C=CC1=O

>  <score_type>  (66) 
oracle

>  <origin>  (66) 
adg

>  <m_score__min__energy>  (66) 
-14.93

>  <m_primary>  (66) 
energy

$$$$
66:0
     RDKit          3D

 42 46  0  0  0  0  0  0  0  0999 V2000
   57.9134   26.8085   43.7662 H   0  0  0  0  0  0  0  0  0  0  0  0
   57.5370   27.0890   44.7610 C   0  0  0  0  0  0  0  0  0  0  0  0
   57.1130   25.9960   45.6560 C   0  0  0  0  0  0  0  0  0  0  0  0
   57.9160   25.0320   46.1410 N   0  0  0  0  0  0  0  0  0  0  0  0
   57.1130   24.3500   46.9870 C   0  0  0  0  0  0  0  0  0  0  0  0
   57.5080   23.3480   47.6370 O   0  0  0  0  0  0  0  0  0  0  0  0
   55.8560   24.8320   47.0860 N   0  0  0  0  0  0  0  0  0  0  0  0
   55.8780   25.8800   46.2460 C   0  0  0  0  0  0  0  0  0  0  0  0
   54.7910   26.7170   46.0280 O   0  0  0  0  0  0  0  0  0  0  0  0
   57.5020   28.3980   45.0590 C   0  0  0  0  0  0  0  0  0  0  0  0
   56.8820   29.3830   44.2900 C   0  0  0  0  0  0  0  0  0  0  0  0
   56.3322   29.1987   43.3553 H   0  0  0  0  0  0  0  0  0  0  0  0
   57.0550   30.6000   44.8610 N   0  0  0  0  0  0  0  0  0  0  0  0
   57.7710   30.4070   45.9560 N   0  0  0  0  0  0  0  0  0  0  0  0
   58.2220   31.3450   46.8240 C   0  0  0  0  0  0  0  0  0  0  0  0
   57.9130   32.6010   46.6450 N   0  0  0  0  0  0  0  0  0  0  0  0
   57.5380   33.3750   45.4460 C   0  0  0  0  0  0  0  0  0  0  0  0
   56.4634   33.1770   45.5727 H   0  0  0  0  0  0  0  0  0  0  0  0
   58.5000   33.3460   44.2680 C   0  0  0  0  0  0  0  0  0  0  0  0
   59.4120   32.7329   44.3169 H   0  0  0  0  0  0  0  0  0  0  0  0
   58.4101   33.1252   43.1941 H   0  0  0  0  0  0  0  0  0  0  0  0
   58.3760   34.6050   45.1300 C   0  0  0  0  0  0  0  0  0  0  0  0
   59.1987   34.8975   45.7990 H   0  0  0  0  0  0  0  0  0  0  0  0
   58.1599   35.6655   44.9336 H   0  0  0  0  0  0  0  0  0  0  0  0
   58.9990   30.9240   47.8590 N   0  0  0  0  0  0  0  0  0  0  0  0
   59.3240   29.6030   48.0130 C   0  0  0  0  0  0  0  0  0  0  0  0
   60.1700   29.1880   49.1070 N   0  0  0  0  0  0  0  0  0  0  0  0
   60.4930   27.7650   49.2800 C   0  0  0  0  0  0  0  0  0  0  0  0
   59.6081   27.1603   49.0325 H   0  0  0  0  0  0  0  0  0  0  0  0
   61.3281   27.5062   48.6125 H   0  0  0  0  0  0  0  0  0  0  0  0
   60.9090   27.4810   50.7270 C   0  0  0  0  0  0  0  0  0  0  0  0
   60.0319   27.5889   51.3820 H   0  0  0  0  0  0  0  0  0  0  0  0
   61.3068   26.4571   50.7845 H   0  0  0  0  0  0  0  0  0  0  0  0
   61.9140   28.3810   51.1470 O   0  0  0  0  0  0  0  0  0  0  0  0
   61.3820   29.6900   51.1950 C   0  0  0  0  0  0  0  0  0  0  0  0
   60.4822   29.6901   51.8278 H   0  0  0  0  0  0  0  0  0  0  0  0
   62.1447   30.3643   51.6116 H   0  0  0  0  0  0  0  0  0  0  0  0
   61.0090   30.1800   49.7930 C   0  0  0  0  0  0  0  0  0  0  0  0
   60.4554   31.1269   49.8760 H   0  0  0  0  0  0  0  0  0  0  0  0
   61.9308   30.3291   49.2115 H   0  0  0  0  0  0  0  0  0  0  0  0
   58.8510   28.6850   47.1180 N   0  0  0  0  0  0  0  0  0  0  0  0
   58.0600   29.1120   46.1070 C   0  0  0  0  0  0  0  0  0  0  0  0
  1  2  1  0
  2  3  1  0
  3  4  1  0
  4  5  1  0
  5  6  2  0
  5  7  1  0
  7  8  1  0
  8  9  1  0
  2 10  2  0
 10 11  1  0
 11 12  1  0
 11 13  2  0
 13 14  1  0
 14 15  1  0
 15 16  2  0
 16 17  1  0
 17 18  1  0
 17 19  1  0
 19 20  1  0
 19 21  1  0
 19 22  1  0
 22 23  1  0
 22 24  1  0
 15 25  1  0
 25 26  2  0
 26 27  1  0
 27 28  1  0
 28 29  1  0
 28 30  1  0
 28 31  1  0
 31 32  1  0
 31 33  1  0
 31 34  1  0
 34 35  1  0
 35 36  1  0
 35 37  1  0
 35 38  1  0
 38 39  1  0
 38 40  1  0
 26 41  1  0
 41 42  2  0
  8  3  2  0
 42 10  1  0
 42 14  1  0
 22 17  1  0
 38 27  1  0
M  CHG  3   4  -1   7  -1   9  -1
M  END
>  <UniqueID>  (67) 
62

>  <SMILES>  (67) 
O=c1[n-]c([O-])c(/C=c2/cnn3/c(=N/C4CC4)nc(N4CCOCC4)nc23)[n-]1

>  <Energy>  (67) 
394.10398993801255

>  <Genealogy>  (67) 
O=c1[n-]c([O-])c(C=c2cnn3c(=NC4CC4)nc(N4CCOCC4)nc23)[n-]1 (protonated)
O=c1[n-]c([O-])c(/C=c2/cnn3/c(=N/C4CC4)nc(N4CCOCC4)nc23)[n-]1 (cis-trans isomerization)
O=c1[n-]c([O-])c(/C=c2/cnn3/c(=N/C4CC4)nc(N4CCOCC4)nc23)[n-]1 (3D coordinates assigned)
O=c1[n-]c([O-])c(/C=c2/cnn3/c(=N/C4CC4)nc(N4CCOCC4)nc23)[n-]1 (nonaromatic ring conformer: 394.10398993801255 kcal/mol)

>  <smiles>  (67) 
O=c1[nH]c(O)c(C=c2cnn3c(=NC4CC4)nc(N4CCOCC4)nc23)[nH]1

>  <score_type>  (67) 
oracle

>  <origin>  (67) 
adg

>  <m_score__min__energy>  (67) 
-15.77

>  <m_primary>  (67) 
energy

$$$$
67:0
     RDKit          3D

 46 48  0  0  1  0  0  0  0  0999 V2000
   63.6900   33.5640   47.2050 C   0  0  0  0  0  0  0  0  0  0  0  0
   62.2750   33.8090   47.5170 C   0  0  0  0  0  0  0  0  0  0  0  0
   61.3270   34.1480   46.5910 C   0  0  0  0  0  0  0  0  0  0  0  0
   60.0030   34.3760   46.8990 C   0  0  0  0  0  0  0  0  0  0  0  0
   59.1700   34.6910   45.9730 N   0  0  0  0  0  0  0  0  0  0  0  0
   57.7180   33.8740   45.6520 S   0  0  0  0  0  0  0  0  0  0  0  0
   56.6980   34.6230   44.8590 O   0  0  0  0  0  0  0  0  0  0  0  0
   57.0550   33.8090   47.0350 O   0  0  0  0  0  0  0  0  0  0  0  0
   57.9070   32.2110   45.1760 C   0  0  0  0  0  0  0  0  0  0  0  0
   58.9330   31.4000   45.6400 C   0  0  0  0  0  0  0  0  0  0  0  0
   59.0640   30.0780   45.2490 C   0  0  0  0  0  0  0  0  0  0  0  0
   58.1670   29.5100   44.3720 C   0  0  0  0  0  0  0  0  0  0  0  0
   58.2580   28.1650   43.9430 N   0  0  0  0  0  0  0  0  0  0  0  0
   57.6590   27.1640   44.7830 C   0  0  0  0  0  0  0  0  0  0  0  0
   57.1060   27.5740   45.8270 O   0  0  0  0  0  0  0  0  0  0  0  0
   57.6980   25.7470   44.4290 C   0  0  0  0  0  0  0  0  0  0  0  0
   57.1510   24.8780   45.2400 C   0  0  0  0  0  0  0  0  0  0  0  0
   55.7410   24.5810   45.1880 C   0  0  0  0  0  0  0  0  0  0  0  0
   55.1500   23.7220   44.2680 C   0  0  0  0  0  0  0  0  0  0  0  0
   53.7980   23.7070   44.5470 C   0  0  0  0  0  0  0  0  0  0  0  0
   53.6310   24.5520   45.6150 C   0  0  0  0  0  0  0  0  0  0  0  0
   54.7980   25.0500   45.9660 O   0  0  0  0  0  0  0  0  0  0  0  0
   57.1500   30.2870   43.9020 C   0  0  0  0  0  0  0  0  0  0  0  0
   57.0230   31.5830   44.2870 C   0  0  0  0  0  0  0  0  0  0  0  0
   59.6290   34.2570   48.1790 N   0  0  0  0  0  0  0  0  0  0  0  0
   60.5460   33.9220   49.1240 C   0  0  0  0  0  0  0  0  0  0  0  0
   60.0590   33.8070   50.5330 C   0  0  0  0  0  0  0  0  0  0  0  0
   61.8450   33.7010   48.8070 N   0  0  0  0  0  0  0  0  0  0  0  0
   64.2600   33.4653   48.1406 H   0  0  0  0  0  0  0  0  0  0  0  0
   63.7813   32.6367   46.6204 H   0  0  0  0  0  0  0  0  0  0  0  0
   64.0878   34.4066   46.6204 H   0  0  0  0  0  0  0  0  0  0  0  0
   61.6391   34.2441   45.5406 H   0  0  0  0  0  0  0  0  0  0  0  0
   59.6672   31.8216   46.3423 H   0  0  0  0  0  0  0  0  0  0  0  0
   59.8946   29.4744   45.6437 H   0  0  0  0  0  0  0  0  0  0  0  0
   58.7300   27.8600   43.0620 H   0  0  0  0  0  0  0  0  0  0  0  0
   58.1790   25.4164   43.4966 H   0  0  0  0  0  0  0  0  0  0  0  0
   57.7817   24.3619   45.9788 H   0  0  0  0  0  0  0  0  0  0  0  0
   55.6614   23.1621   43.4711 H   0  0  0  0  0  0  0  0  0  0  0  0
   53.0174   23.1365   44.0224 H   0  0  0  0  0  0  0  0  0  0  0  0
   52.6711   24.7782   46.1023 H   0  0  0  0  0  0  0  0  0  0  0  0
   56.4207   29.8571   43.1997 H   0  0  0  0  0  0  0  0  0  0  0  0
   56.1852   32.1692   43.8814 H   0  0  0  0  0  0  0  0  0  0  0  0
   58.6370   34.4210   48.4500 H   0  0  0  0  0  0  0  0  0  0  0  0
   60.8907   34.0034   51.2256 H   0  0  0  0  0  0  0  0  0  0  0  0
   59.2576   34.5406   50.7050 H   0  0  0  0  0  0  0  0  0  0  0  0
   59.6704   32.7924   50.7050 H   0  0  0  0  0  0  0  0  0  0  0  0
  1  2  1  0
  2  3  2  0
  3  4  1  0
  4  5  2  0
  5  6  1  0
  6  7  2  0
  6  8  2  0
  6  9  1  0
  9 10  2  0
 10 11  1  0
 11 12  2  0
 12 13  1  0
 13 14  1  0
 14 15  2  0
 14 16  1  0
 16 17  2  0
 17 18  1  0
 18 19  2  0
 19 20  1  0
 20 21  2  0
 21 22  1  0
 12 23  1  0
 23 24  2  0
  4 25  1  0
 25 26  1  0
 26 27  1  0
 26 28  2  0
 28  2  1  0
 24  9  1  0
 22 18  1  0
  1 29  1  0
  1 30  1  0
  1 31  1  0
  3 32  1  0
 10 33  1  0
 11 34  1  0
 13 35  1  0
 16 36  1  0
 17 37  1  0
 19 38  1  0
 20 39  1  0
 21 40  1  0
 23 41  1  0
 24 42  1  0
 25 43  1  0
 27 44  1  0
 27 45  1  0
 27 46  1  0
M  END
>  <smiles>  (68) 
Cc1cc(=NS(=O)(=O)c2ccc(NC(=O)C=Cc3ccco3)cc2)[nH]c(C)n1

>  <score_type>  (68) 
oracle

>  <origin>  (68) 
adg

>  <m_score__min__energy>  (68) 
-8.7300000000000004

>  <m_primary>  (68) 
energy

$$$$
68:0
     RDKit          3D

 72 76  0  0  0  0  0  0  0  0999 V2000
   57.4170   33.0880   52.2520 C   0  0  0  0  0  0  0  0  0  0  0  0
   57.4540   31.6860   51.8450 N   0  0  0  0  0  0  0  0  0  0  0  0
   56.3790   30.7980   52.1980 C   0  0  0  0  0  0  0  0  0  0  0  0
   56.6480   29.5380   52.7610 C   0  0  0  0  0  0  0  0  0  0  0  0
   55.5980   28.6840   53.1150 C   0  0  0  0  0  0  0  0  0  0  0  0
   54.2740   29.0790   52.9060 C   0  0  0  0  0  0  0  0  0  0  0  0
   53.9980   30.3260   52.3380 C   0  0  0  0  0  0  0  0  0  0  0  0
   55.0440   31.1840   51.9850 C   0  0  0  0  0  0  0  0  0  0  0  0
   58.6410   31.1950   50.6740 S   0  0  0  0  0  0  0  0  0  0  0  0
   59.9170   30.8210   51.3780 O   0  0  0  0  0  0  0  0  0  0  0  0
   58.1570   30.0030   49.8970 O   0  0  0  0  0  0  0  0  0  0  0  0
   58.9210   32.5240   49.5550 C   0  0  0  0  0  0  0  0  0  0  0  0
   59.8460   33.5230   49.8810 C   0  0  0  0  0  0  0  0  0  0  0  0
   60.1080   34.5560   48.9780 C   0  0  0  0  0  0  0  0  0  0  0  0
   59.4580   34.5910   47.7420 C   0  0  0  0  0  0  0  0  0  0  0  0
   58.5330   33.5900   47.3970 C   0  0  0  0  0  0  0  0  0  0  0  0
   57.8580   33.6220   46.0810 C   0  0  0  0  0  0  0  0  0  0  0  0
   56.6270   33.8940   46.0070 O   0  0  0  0  0  0  0  0  0  0  0  0
   58.5860   33.3430   44.9170 O   0  0  0  0  0  0  0  0  0  0  0  0
   58.0940   32.5230   43.8590 C   0  0  0  0  0  0  0  0  0  0  0  0
   57.7410   31.1550   44.3770 C   0  0  0  0  0  0  0  0  0  0  0  0
   56.4820   30.5960   44.1150 C   0  0  0  0  0  0  0  0  0  0  0  0
   56.1470   29.3420   44.6340 C   0  0  0  0  0  0  0  0  0  0  0  0
   57.0590   28.6380   45.4350 C   0  0  0  0  0  0  0  0  0  0  0  0
   56.7190   27.3100   45.9830 C   0  0  0  0  0  0  0  0  0  0  0  0
   55.5280   26.7150   45.7790 N   0  0  0  0  0  0  0  0  0  0  0  0
   55.5170   25.5580   46.4230 N   0  0  0  0  0  0  0  0  0  0  0  0
   56.7000   25.3980   47.0450 C   0  0  0  0  0  0  0  0  0  0  0  0
   57.5020   26.4920   46.7870 C   0  0  0  0  0  0  0  0  0  0  0  0
   58.9170   26.6510   47.1780 C   0  0  0  0  0  0  0  0  0  0  0  0
   59.7980   25.9240   46.6500 O   0  0  0  0  0  0  0  0  0  0  0  0
   59.2920   27.6180   48.1710 N   0  0  0  0  0  0  0  0  0  0  0  0
   60.6590   27.6820   48.6910 C   0  0  0  0  0  0  0  0  0  0  0  0
   60.8580   28.8900   49.6160 C   0  0  0  0  0  0  0  0  0  0  0  0
   61.3750   30.0900   48.8630 C   0  0  0  0  0  0  0  0  0  0  0  0
   62.3350   30.9320   49.4500 C   0  0  0  0  0  0  0  0  0  0  0  0
   62.8020   32.0570   48.7600 C   0  0  0  0  0  0  0  0  0  0  0  0
   62.3120   32.3490   47.4820 C   0  0  0  0  0  0  0  0  0  0  0  0
   61.3540   31.5190   46.8930 C   0  0  0  0  0  0  0  0  0  0  0  0
   60.8850   30.3930   47.5790 C   0  0  0  0  0  0  0  0  0  0  0  0
   58.3280   29.1860   45.6750 C   0  0  0  0  0  0  0  0  0  0  0  0
   58.6640   30.4420   45.1580 C   0  0  0  0  0  0  0  0  0  0  0  0
   58.2700   32.5570   48.3140 C   0  0  0  0  0  0  0  0  0  0  0  0
   57.4153   33.1511   53.3502 H   0  0  0  0  0  0  0  0  0  0  0  0
   58.3017   33.6082   51.8562 H   0  0  0  0  0  0  0  0  0  0  0  0
   56.5061   33.5608   51.8562 H   0  0  0  0  0  0  0  0  0  0  0  0
   57.6890   29.2222   52.9239 H   0  0  0  0  0  0  0  0  0  0  0  0
   55.8148   27.7009   53.5582 H   0  0  0  0  0  0  0  0  0  0  0  0
   53.4489   28.4086   53.1885 H   0  0  0  0  0  0  0  0  0  0  0  0
   52.9554   30.6330   52.1683 H   0  0  0  0  0  0  0  0  0  0  0  0
   54.8216   32.1646   51.5390 H   0  0  0  0  0  0  0  0  0  0  0  0
   60.3671   33.4944   50.8493 H   0  0  0  0  0  0  0  0  0  0  0  0
   60.8285   35.3445   49.2410 H   0  0  0  0  0  0  0  0  0  0  0  0
   59.6710   35.4062   47.0348 H   0  0  0  0  0  0  0  0  0  0  0  0
   57.1967   32.9894   43.4261 H   0  0  0  0  0  0  0  0  0  0  0  0
   58.8756   32.4234   43.0915 H   0  0  0  0  0  0  0  0  0  0  0  0
   55.7555   31.1461   43.4990 H   0  0  0  0  0  0  0  0  0  0  0  0
   55.1623   28.9044   44.4131 H   0  0  0  0  0  0  0  0  0  0  0  0
   56.9832   24.5322   47.6616 H   0  0  0  0  0  0  0  0  0  0  0  0
   58.5750   28.2960   48.5150 H   0  0  0  0  0  0  0  0  0  0  0  0
   60.8690   26.7619   49.2560 H   0  0  0  0  0  0  0  0  0  0  0  0
   61.3459   27.7861   47.8382 H   0  0  0  0  0  0  0  0  0  0  0  0
   59.8937   29.1476   50.0784 H   0  0  0  0  0  0  0  0  0  0  0  0
   61.6014   28.6182   50.3799 H   0  0  0  0  0  0  0  0  0  0  0  0
   62.7208   30.7063   50.4551 H   0  0  0  0  0  0  0  0  0  0  0  0
   63.5548   32.7121   49.2228 H   0  0  0  0  0  0  0  0  0  0  0  0
   62.6811   33.2325   46.9406 H   0  0  0  0  0  0  0  0  0  0  0  0
   60.9683   31.7511   45.8893 H   0  0  0  0  0  0  0  0  0  0  0  0
   60.1305   29.7423   47.1128 H   0  0  0  0  0  0  0  0  0  0  0  0
   59.0622   28.6256   46.2724 H   0  0  0  0  0  0  0  0  0  0  0  0
   59.6551   30.8723   45.3644 H   0  0  0  0  0  0  0  0  0  0  0  0
   57.5478   31.7686   48.0555 H   0  0  0  0  0  0  0  0  0  0  0  0
  1  2  1  0
  2  3  1  0
  3  4  2  0
  4  5  1  0
  5  6  2  0
  6  7  1  0
  7  8  2  0
  2  9  1  0
  9 10  2  0
  9 11  2  0
  9 12  1  0
 12 13  2  0
 13 14  1  0
 14 15  2  0
 15 16  1  0
 16 17  1  0
 17 18  2  0
 17 19  1  0
 19 20  1  0
 20 21  1  0
 21 22  2  0
 22 23  1  0
 23 24  2  0
 24 25  1  0
 25 26  2  0
 26 27  1  0
 27 28  1  0
 28 29  2  0
 29 30  1  0
 30 31  2  0
 30 32  1  0
 32 33  1  0
 33 34  1  0
 34 35  1  0
 35 36  2  0
 36 37  1  0
 37 38  2  0
 38 39  1  0
 39 40  2  0
 24 41  1  0
 41 42  2  0
 16 43  2  0
  8  3  1  0
 43 12  1  0
 42 21  1  0
 29 25  1  0
 40 35  1  0
  1 44  1  0
  1 45  1  0
  1 46  1  0
  4 47  1  0
  5 48  1  0
  6 49  1  0
  7 50  1  0
  8 51  1  0
 13 52  1  0
 14 53  1  0
 15 54  1  0
 20 55  1  0
 20 56  1  0
 22 57  1  0
 23 58  1  0
 28 59  1  0
 32 60  1  0
 33 61  1  0
 33 62  1  0
 34 63  1  0
 34 64  1  0
 36 65  1  0
 37 66  1  0
 38 67  1  0
 39 68  1  0
 40 69  1  0
 41 70  1  0
 42 71  1  0
 43 72  1  0
M  CHG  1  27  -1
M  END
>  <UniqueID>  (69) 
63

>  <SMILES>  (69) 
CN(c1ccccc1)S(=O)(=O)c1cccc(C(=O)OCc2ccc(-c3n[n-]cc3C(=O)NCCc3ccccc3)cc2)c1

>  <Energy>  (69) 
113.19640151969192

>  <Genealogy>  (69) 
CN(c1ccccc1)S(=O)(=O)c1cccc(C(=O)OCc2ccc(-c3n[n-]cc3C(=O)NCCc3ccccc3)cc2)c1 (protonated)
CN(c1ccccc1)S(=O)(=O)c1cccc(C(=O)OCc2ccc(-c3n[n-]cc3C(=O)NCCc3ccccc3)cc2)c1 (3D coordinates assigned)
CN(c1ccccc1)S(=O)(=O)c1cccc(C(=O)OCc2ccc(-c3n[n-]cc3C(=O)NCCc3ccccc3)cc2)c1 (optimized conformer: 113.19640151969192 kcal/mol)

>  <smiles>  (69) 
CN(c1ccccc1)S(=O)(=O)c1cccc(C(=O)OCc2ccc(-c3n[nH]cc3C(=O)NCCc3ccccc3)cc2)c1

>  <score_type>  (69) 
oracle

>  <origin>  (69) 
adg

>  <m_score__min__energy>  (69) 
-13.08

>  <m_primary>  (69) 
energy

$$$$
69:0
     RDKit          3D

 42 45  0  0  0  0  0  0  0  0999 V2000
   54.7700   28.1600   44.5320 H   0  0  0  0  0  0  0  0  0  0  0  0
   55.2390   29.0090   44.8240 O   0  0  0  0  0  0  0  0  0  0  0  0
   56.5600   28.9780   45.2590 C   0  0  0  0  0  0  0  0  0  0  0  0
   57.3840   30.0510   45.1160 N   0  0  0  0  0  0  0  0  0  0  0  0
   58.6180   29.7960   45.5980 C   0  0  0  0  0  0  0  0  0  0  0  0
   59.5520   30.7010   45.6210 N   0  0  0  0  0  0  0  0  0  0  0  0
   59.4580   31.9930   46.2440 C   0  0  0  0  0  0  0  0  0  0  0  0
   58.2860   32.7590   46.1170 C   0  0  0  0  0  0  0  0  0  0  0  0
   57.4483   32.3780   45.5144 H   0  0  0  0  0  0  0  0  0  0  0  0
   58.1760   33.9990   46.7490 C   0  0  0  0  0  0  0  0  0  0  0  0
   57.2590   34.5948   46.6299 H   0  0  0  0  0  0  0  0  0  0  0  0
   59.2240   34.4860   47.5310 C   0  0  0  0  0  0  0  0  0  0  0  0
   59.1332   35.4670   48.0202 H   0  0  0  0  0  0  0  0  0  0  0  0
   60.3920   33.7290   47.6950 C   0  0  0  0  0  0  0  0  0  0  0  0
   61.4410   34.2120   48.4920 C   0  0  0  0  0  0  0  0  0  0  0  0
   61.3461   35.1884   48.9896 H   0  0  0  0  0  0  0  0  0  0  0  0
   62.6050   33.4580   48.6560 C   0  0  0  0  0  0  0  0  0  0  0  0
   63.4245   33.8428   49.2807 H   0  0  0  0  0  0  0  0  0  0  0  0
   62.7310   32.2170   48.0290 C   0  0  0  0  0  0  0  0  0  0  0  0
   63.6498   31.6270   48.1621 H   0  0  0  0  0  0  0  0  0  0  0  0
   61.6950   31.7210   47.2330 C   0  0  0  0  0  0  0  0  0  0  0  0
   61.8030   30.7427   46.7419 H   0  0  0  0  0  0  0  0  0  0  0  0
   60.5130   32.4670   47.0560 C   0  0  0  0  0  0  0  0  0  0  0  0
   58.7330   28.2340   46.2280 S   0  0  0  0  0  0  0  0  0  0  0  0
   57.1260   27.8650   45.8800 C   0  0  0  0  0  0  0  0  0  0  0  0
   56.4530   26.5730   46.1190 C   0  0  0  0  0  0  0  0  0  0  0  0
   57.1260   25.6180   46.5870 O   0  0  0  0  0  0  0  0  0  0  0  0
   55.0680   26.3500   45.8180 N   0  0  0  0  0  0  0  0  0  0  0  0
   54.4130   25.0560   45.6310 C   0  0  0  0  0  0  0  0  0  0  0  0
   53.9696   24.7371   46.5858 H   0  0  0  0  0  0  0  0  0  0  0  0
   53.6361   25.1672   44.8603 H   0  0  0  0  0  0  0  0  0  0  0  0
   55.3950   24.0090   45.1710 C   0  0  0  0  0  0  0  0  0  0  0  0
   55.8820   24.0220   43.8530 C   0  0  0  0  0  0  0  0  0  0  0  0
   55.5464   24.8017   43.1534 H   0  0  0  0  0  0  0  0  0  0  0  0
   56.7910   23.0490   43.4260 C   0  0  0  0  0  0  0  0  0  0  0  0
   57.1609   23.0593   42.3901 H   0  0  0  0  0  0  0  0  0  0  0  0
   57.2300   22.0630   44.3150 C   0  0  0  0  0  0  0  0  0  0  0  0
   57.9406   21.2944   43.9768 H   0  0  0  0  0  0  0  0  0  0  0  0
   56.7660   22.0540   45.6330 C   0  0  0  0  0  0  0  0  0  0  0  0
   57.1153   21.2804   46.3327 H   0  0  0  0  0  0  0  0  0  0  0  0
   55.8590   23.0260   46.0640 C   0  0  0  0  0  0  0  0  0  0  0  0
   55.5064   23.0224   47.1060 H   0  0  0  0  0  0  0  0  0  0  0  0
  1  2  1  0
  2  3  1  0
  3  4  1  0
  4  5  1  0
  5  6  2  0
  6  7  1  0
  7  8  2  0
  8  9  1  0
  8 10  1  0
 10 11  1  0
 10 12  2  0
 12 13  1  0
 12 14  1  0
 14 15  2  0
 15 16  1  0
 15 17  1  0
 17 18  1  0
 17 19  2  0
 19 20  1  0
 19 21  1  0
 21 22  1  0
 21 23  2  0
  5 24  1  0
 24 25  1  0
 25 26  1  0
 26 27  2  0
 26 28  1  0
 28 29  1  0
 29 30  1  0
 29 31  1  0
 29 32  1  0
 32 33  2  0
 33 34  1  0
 33 35  1  0
 35 36  1  0
 35 37  2  0
 37 38  1  0
 37 39  1  0
 39 40  1  0
 39 41  2  0
 41 42  1  0
 25  3  2  0
 41 32  1  0
 23  7  1  0
 23 14  1  0
M  CHG  2   4  -1  28  -1
M  END
>  <UniqueID>  (70) 
64

>  <SMILES>  (70) 
O=C([N-]Cc1ccccc1)c1s/c(=N\c2cccc3ccccc23)[n-]c1O

>  <Energy>  (70) 
89.23061635115695

>  <Genealogy>  (70) 
O=C([N-]Cc1ccccc1)c1sc(=Nc2cccc3ccccc23)[n-]c1O (protonated)
O=C([N-]Cc1ccccc1)c1s/c(=N\c2cccc3ccccc23)[n-]c1O (cis-trans isomerization)
O=C([N-]Cc1ccccc1)c1s/c(=N\c2cccc3ccccc23)[n-]c1O (3D coordinates assigned)
O=C([N-]Cc1ccccc1)c1s/c(=N\c2cccc3ccccc23)[n-]c1O (optimized conformer: 89.23061635115695 kcal/mol)

>  <smiles>  (70) 
O=C(NCc1ccccc1)c1sc(=Nc2cccc3ccccc23)[nH]c1O

>  <score_type>  (70) 
oracle

>  <origin>  (70) 
adg

>  <m_score__min__energy>  (70) 
-12.98

>  <m_primary>  (70) 
energy

$$$$
70:0
     RDKit          3D

 36 37  0  0  0  0  0  0  0  0999 V2000
   64.2910   32.2640   48.9510 N   0  0  0  0  0  0  0  0  0  0  0  0
   62.9980   32.9420   48.0260 S   0  0  0  0  0  0  0  0  0  0  0  0
   63.4570   33.1690   46.6130 O   0  0  0  0  0  0  0  0  0  0  0  0
   62.5920   34.2610   48.6200 O   0  0  0  0  0  0  0  0  0  0  0  0
   61.6300   31.8340   48.0410 C   0  0  0  0  0  0  0  0  0  0  0  0
   61.5180   30.8620   49.0420 C   0  0  0  0  0  0  0  0  0  0  0  0
   60.4260   29.9910   49.0560 C   0  0  0  0  0  0  0  0  0  0  0  0
   59.4300   30.0990   48.0810 C   0  0  0  0  0  0  0  0  0  0  0  0
   59.5140   31.0920   47.0900 C   0  0  0  0  0  0  0  0  0  0  0  0
   58.5040   31.2320   46.0770 N   0  0  0  0  0  0  0  0  0  0  0  0
   58.3990   32.3710   45.2060 C   0  0  0  0  0  0  0  0  0  0  0  0
   59.1740   33.3560   45.3370 O   0  0  0  0  0  0  0  0  0  0  0  0
   57.4170   32.3660   44.0720 C   0  0  0  0  0  0  0  0  0  0  0  0
   56.2590   31.5510   44.4210 N   0  0  0  0  0  0  0  0  0  0  0  0
   56.1740   30.1490   44.1570 C   0  0  0  0  0  0  0  0  0  0  0  0
   56.1560   29.7460   42.9640 O   0  0  0  0  0  0  0  0  0  0  0  0
   56.0160   29.2150   45.2340 N   0  0  0  0  0  0  0  0  0  0  0  0
   56.7510   28.1750   45.5160 C   0  0  0  0  0  0  0  0  0  0  0  0
   58.0990   28.2910   45.3600 N   0  0  0  0  0  0  0  0  0  0  0  0
   58.9580   27.2700   45.6210 C   0  0  0  0  0  0  0  0  0  0  0  0
   58.4690   26.0420   46.0580 C   0  0  0  0  0  0  0  0  0  0  0  0
   57.0950   25.8710   46.2100 C   0  0  0  0  0  0  0  0  0  0  0  0
   56.2200   26.9250   45.9320 C   0  0  0  0  0  0  0  0  0  0  0  0
   54.8520   26.6930   46.0300 O   0  0  0  0  0  0  0  0  0  0  0  0
   60.6320   31.9390   47.0640 C   0  0  0  0  0  0  0  0  0  0  0  0
   64.8020   31.6030   48.3240 H   0  0  0  0  0  0  0  0  0  0  0  0
   62.2920   30.7838   49.8197 H   0  0  0  0  0  0  0  0  0  0  0  0
   60.3497   29.2187   49.8356 H   0  0  0  0  0  0  0  0  0  0  0  0
   58.5773   29.4041   48.0895 H   0  0  0  0  0  0  0  0  0  0  0  0
   57.9250   30.3920   45.8520 H   0  0  0  0  0  0  0  0  0  0  0  0
   57.0898   33.3963   43.8685 H   0  0  0  0  0  0  0  0  0  0  0  0
   57.8993   31.9452   43.1774 H   0  0  0  0  0  0  0  0  0  0  0  0
   60.0402   27.4143   45.4868 H   0  0  0  0  0  0  0  0  0  0  0  0
   59.1601   25.2158   46.2808 H   0  0  0  0  0  0  0  0  0  0  0  0
   56.6972   24.9034   46.5499 H   0  0  0  0  0  0  0  0  0  0  0  0
   60.7257   32.6930   46.2685 H   0  0  0  0  0  0  0  0  0  0  0  0
  1  2  1  0
  2  3  2  0
  2  4  2  0
  2  5  1  0
  5  6  2  0
  6  7  1  0
  7  8  2  0
  8  9  1  0
  9 10  1  0
 10 11  1  0
 11 12  2  0
 11 13  1  0
 13 14  1  0
 14 15  1  0
 15 16  2  0
 15 17  1  0
 17 18  2  3
 18 19  1  0
 19 20  1  0
 20 21  2  0
 21 22  1  0
 22 23  2  0
 23 24  1  0
  9 25  2  0
 25  5  1  0
 23 18  1  0
  1 26  1  0
  6 27  1  0
  7 28  1  0
  8 29  1  0
 10 30  1  0
 13 31  1  0
 13 32  1  0
 20 33  1  0
 21 34  1  0
 22 35  1  0
 25 36  1  0
M  CHG  4   1  -1  14  -1  19  -1  24  -1
M  END
>  <UniqueID>  (71) 
65

>  <SMILES>  (71) 
[NH-]S(=O)(=O)c1cccc(NC(=O)C[N-]C(=O)N=c2[n-]cccc2[O-])c1

>  <Energy>  (71) 
45.186197582728

>  <Genealogy>  (71) 
[NH-]S(=O)(=O)c1cccc(NC(=O)C[N-]C(=O)N=c2[n-]cccc2[O-])c1 (protonated)
[NH-]S(=O)(=O)c1cccc(NC(=O)C[N-]C(=O)N=c2[n-]cccc2[O-])c1 (3D coordinates assigned)
[NH-]S(=O)(=O)c1cccc(NC(=O)C[N-]C(=O)N=c2[n-]cccc2[O-])c1 (optimized conformer: 45.186197582728 kcal/mol)

>  <smiles>  (71) 
NS(=O)(=O)c1cccc(NC(=O)CNC(=O)N=c2[nH]cccc2O)c1

>  <score_type>  (71) 
oracle

>  <origin>  (71) 
adg

>  <m_score__min__energy>  (71) 
-14.75

>  <m_primary>  (71) 
energy

$$$$
71:0
     RDKit          3D

 32 34  0  0  0  0  0  0  0  0999 V2000
   55.7670   28.3930   45.2090 O   0  0  0  0  0  0  0  0  0  0  0  0
   56.7270   27.7060   45.6550 C   0  0  0  0  0  0  0  0  0  0  0  0
   56.4770   26.5010   46.3960 N   0  0  0  0  0  0  0  0  0  0  0  0
   55.5310   25.6370   46.1670 C   0  0  0  0  0  0  0  0  0  0  0  0
   54.3260   25.9600   45.6480 N   0  0  0  0  0  0  0  0  0  0  0  0
   53.6880   24.7790   45.5760 C   0  0  0  0  0  0  0  0  0  0  0  0
   54.5140   23.7850   46.0480 C   0  0  0  0  0  0  0  0  0  0  0  0
   55.6870   24.3230   46.4240 N   0  0  0  0  0  0  0  0  0  0  0  0
   58.1160   28.1820   45.4500 C   0  0  0  0  0  0  0  0  0  0  0  0
   59.1710   27.4270   45.9960 C   0  0  0  0  0  0  0  0  0  0  0  0
   60.4980   27.8210   45.8150 C   0  0  0  0  0  0  0  0  0  0  0  0
   60.7930   28.9750   45.0910 C   0  0  0  0  0  0  0  0  0  0  0  0
   59.7600   29.7440   44.5560 C   0  0  0  0  0  0  0  0  0  0  0  0
   58.4220   29.3690   44.7350 C   0  0  0  0  0  0  0  0  0  0  0  0
   57.1540   30.4710   44.0850 S   0  0  0  0  0  0  0  0  0  0  0  0
   57.7410   31.8740   45.0360 C   0  0  0  0  0  0  0  0  0  0  0  0
   58.1220   31.7050   46.3740 C   0  0  0  0  0  0  0  0  0  0  0  0
   58.5760   32.8000   47.1160 C   0  0  0  0  0  0  0  0  0  0  0  0
   58.6550   34.0640   46.5220 C   0  0  0  0  0  0  0  0  0  0  0  0
   58.2840   34.2330   45.1840 C   0  0  0  0  0  0  0  0  0  0  0  0
   57.8290   33.1400   44.4400 C   0  0  0  0  0  0  0  0  0  0  0  0
   52.6655   24.6305   45.1987 H   0  0  0  0  0  0  0  0  0  0  0  0
   54.2551   22.7176   46.1082 H   0  0  0  0  0  0  0  0  0  0  0  0
   58.9475   26.5166   46.5716 H   0  0  0  0  0  0  0  0  0  0  0  0
   61.3126   27.2194   46.2447 H   0  0  0  0  0  0  0  0  0  0  0  0
   61.8396   29.2788   44.9418 H   0  0  0  0  0  0  0  0  0  0  0  0
   59.9983   30.6549   43.9873 H   0  0  0  0  0  0  0  0  0  0  0  0
   58.0639   30.7106   46.8408 H   0  0  0  0  0  0  0  0  0  0  0  0
   58.8711   32.6673   48.1673 H   0  0  0  0  0  0  0  0  0  0  0  0
   59.0090   34.9254   47.1074 H   0  0  0  0  0  0  0  0  0  0  0  0
   58.3502   35.2266   44.7167 H   0  0  0  0  0  0  0  0  0  0  0  0
   57.5401   33.2734   43.3870 H   0  0  0  0  0  0  0  0  0  0  0  0
  1  2  2  0
  2  3  1  0
  3  4  2  3
  4  5  1  0
  5  6  1  0
  6  7  2  0
  7  8  1  0
  2  9  1  0
  9 10  2  0
 10 11  1  0
 11 12  2  0
 12 13  1  0
 13 14  2  0
 14 15  1  0
 15 16  1  0
 16 17  2  0
 17 18  1  0
 18 19  2  0
 19 20  1  0
 20 21  2  0
  8  4  1  0
 14  9  1  0
 21 16  1  0
  6 22  1  0
  7 23  1  0
 10 24  1  0
 11 25  1  0
 12 26  1  0
 13 27  1  0
 17 28  1  0
 18 29  1  0
 19 30  1  0
 20 31  1  0
 21 32  1  0
M  CHG  2   5  -1   8  -1
M  END
>  <UniqueID>  (72) 
66

>  <SMILES>  (72) 
O=C(N=c1[n-]cc[n-]1)c1ccccc1Sc1ccccc1

>  <Energy>  (72) 
64.23894270808523

>  <Genealogy>  (72) 
O=C(N=c1[n-]cc[n-]1)c1ccccc1Sc1ccccc1 (protonated)
O=C(N=c1[n-]cc[n-]1)c1ccccc1Sc1ccccc1 (3D coordinates assigned)
O=C(N=c1[n-]cc[n-]1)c1ccccc1Sc1ccccc1 (optimized conformer: 64.23894270808523 kcal/mol)

>  <smiles>  (72) 
O=C(N=c1[nH]cc[nH]1)c1ccccc1Sc1ccccc1

>  <score_type>  (72) 
oracle

>  <origin>  (72) 
adg

>  <m_score__min__energy>  (72) 
-11.35

>  <m_primary>  (72) 
energy

$$$$
72:0
     RDKit          3D

 63 66  0  0  0  0  0  0  0  0999 V2000
   58.6720   33.4820   42.5960 H   0  0  0  0  0  0  0  0  0  0  0  0
   58.2640   32.6620   42.1620 O   0  0  0  0  0  0  0  0  0  0  0  0
   57.6320   31.6740   42.9170 C   0  0  0  0  0  0  0  0  0  0  0  0
   56.7020   30.8180   42.3070 C   0  0  0  0  0  0  0  0  0  0  0  0
   56.4737   30.9331   41.2371 H   0  0  0  0  0  0  0  0  0  0  0  0
   56.0650   29.8220   43.0480 C   0  0  0  0  0  0  0  0  0  0  0  0
   55.3313   29.1629   42.5610 H   0  0  0  0  0  0  0  0  0  0  0  0
   56.3540   29.6570   44.4060 C   0  0  0  0  0  0  0  0  0  0  0  0
   55.6920   28.6090   45.1380 N   0  0  0  0  0  0  0  0  0  0  0  0
   56.2570   27.5370   45.6140 C   0  0  0  0  0  0  0  0  0  0  0  0
   55.5030   26.4340   45.8540 N   0  0  0  0  0  0  0  0  0  0  0  0
   56.0750   25.3010   46.3370 C   0  0  0  0  0  0  0  0  0  0  0  0
   55.3330   24.2570   46.5600 N   0  0  0  0  0  0  0  0  0  0  0  0
   54.7040   23.4440   45.5200 C   0  0  0  0  0  0  0  0  0  0  0  0
   54.0711   22.6781   45.9921 H   0  0  0  0  0  0  0  0  0  0  0  0
   54.0936   24.0962   44.8781 H   0  0  0  0  0  0  0  0  0  0  0  0
   55.7460   22.7730   44.6790 C   0  0  0  0  0  0  0  0  0  0  0  0
   55.5280   22.3180   43.4670 O   0  0  0  0  0  0  0  0  0  0  0  0
   56.6460   21.8080   43.0060 C   0  0  0  0  0  0  0  0  0  0  0  0
   56.7711   21.3490   42.0142 H   0  0  0  0  0  0  0  0  0  0  0  0
   57.6420   21.9350   43.9550 C   0  0  0  0  0  0  0  0  0  0  0  0
   58.6875   21.6054   43.8643 H   0  0  0  0  0  0  0  0  0  0  0  0
   57.0610   22.5580   45.0380 C   0  0  0  0  0  0  0  0  0  0  0  0
   57.5439   22.8274   45.9889 H   0  0  0  0  0  0  0  0  0  0  0  0
   57.4130   25.2730   46.5790 N   0  0  0  0  0  0  0  0  0  0  0  0
   58.1770   26.3690   46.3290 C   0  0  0  0  0  0  0  0  0  0  0  0
   59.4550   26.3640   46.5520 N   0  0  0  0  0  0  0  0  0  0  0  0
   60.3490   27.4800   46.2700 C   0  0  0  0  0  0  0  0  0  0  0  0
   61.3908   27.1735   46.4453 H   0  0  0  0  0  0  0  0  0  0  0  0
   60.2406   27.7919   45.2207 H   0  0  0  0  0  0  0  0  0  0  0  0
   59.9970   28.6190   47.1820 C   0  0  0  0  0  0  0  0  0  0  0  0
   60.2090   29.9440   46.7630 C   0  0  0  0  0  0  0  0  0  0  0  0
   60.5813   30.1454   45.7477 H   0  0  0  0  0  0  0  0  0  0  0  0
   59.9480   31.0060   47.6330 C   0  0  0  0  0  0  0  0  0  0  0  0
   60.1065   32.0417   47.2979 H   0  0  0  0  0  0  0  0  0  0  0  0
   59.4860   30.7550   48.9280 C   0  0  0  0  0  0  0  0  0  0  0  0
   59.2759   31.5927   49.6093 H   0  0  0  0  0  0  0  0  0  0  0  0
   59.2910   29.4390   49.3570 C   0  0  0  0  0  0  0  0  0  0  0  0
   58.9323   29.2419   50.3780 H   0  0  0  0  0  0  0  0  0  0  0  0
   59.5510   28.3730   48.4910 C   0  0  0  0  0  0  0  0  0  0  0  0
   59.4059   27.3385   48.8356 H   0  0  0  0  0  0  0  0  0  0  0  0
   57.5960   27.4920   45.8430 N   0  0  0  0  0  0  0  0  0  0  0  0
   57.2440   30.5480   45.0310 C   0  0  0  0  0  0  0  0  0  0  0  0
   57.4162   30.4727   46.1148 H   0  0  0  0  0  0  0  0  0  0  0  0
   57.9160   31.5330   44.2890 C   0  0  0  0  0  0  0  0  0  0  0  0
   58.8930   32.4470   44.9940 C   0  0  0  0  0  0  0  0  0  0  0  0
   59.8980   32.2971   44.5726 H   0  0  0  0  0  0  0  0  0  0  0  0
   58.8932   32.2081   46.0677 H   0  0  0  0  0  0  0  0  0  0  0  0
   58.4970   33.8610   44.8180 N   0  0  0  0  0  0  0  0  0  0  0  0
   57.1610   34.1670   45.3750 C   0  0  0  0  0  0  0  0  0  0  0  0
   56.3855   33.7986   44.6874 H   0  0  0  0  0  0  0  0  0  0  0  0
   57.0597   35.2553   45.4989 H   0  0  0  0  0  0  0  0  0  0  0  0
   56.9990   33.4880   46.7320 C   0  0  0  0  0  0  0  0  0  0  0  0
   57.1741   34.2219   47.5325 H   0  0  0  0  0  0  0  0  0  0  0  0
   55.9794   33.0848   46.8209 H   0  0  0  0  0  0  0  0  0  0  0  0
   57.7267   32.6679   46.8209 H   0  0  0  0  0  0  0  0  0  0  0  0
   59.5440   34.8190   45.2460 C   0  0  0  0  0  0  0  0  0  0  0  0
   60.2593   34.9403   44.4192 H   0  0  0  0  0  0  0  0  0  0  0  0
   59.0284   35.7556   45.5047 H   0  0  0  0  0  0  0  0  0  0  0  0
   60.3230   34.3840   46.4970 C   0  0  0  0  0  0  0  0  0  0  0  0
   59.7717   34.6919   47.3977 H   0  0  0  0  0  0  0  0  0  0  0  0
   60.4396   33.2902   46.4944 H   0  0  0  0  0  0  0  0  0  0  0  0
   61.3154   34.8585   46.4944 H   0  0  0  0  0  0  0  0  0  0  0  0
  1  2  1  0
  2  3  1  0
  3  4  2  0
  4  5  1  0
  4  6  1  0
  6  7  1  0
  6  8  2  0
  8  9  1  0
  9 10  2  3
 10 11  1  0
 11 12  1  0
 12 13  2  0
 13 14  1  0
 14 15  1  0
 14 16  1  0
 14 17  1  0
 17 18  1  0
 18 19  1  0
 19 20  1  0
 19 21  2  0
 21 22  1  0
 21 23  1  0
 23 24  1  0
 12 25  1  0
 25 26  1  0
 26 27  2  0
 27 28  1  0
 28 29  1  0
 28 30  1  0
 28 31  1  0
 31 32  2  0
 32 33  1  0
 32 34  1  0
 34 35  1  0
 34 36  2  0
 36 37  1  0
 36 38  1  0
 38 39  1  0
 38 40  2  0
 40 41  1  0
 26 42  1  0
  8 43  1  0
 43 44  1  0
 43 45  2  0
 45 46  1  0
 46 47  1  0
 46 48  1  0
 46 49  1  0
 49 50  1  0
 50 51  1  0
 50 52  1  0
 50 53  1  0
 53 54  1  0
 53 55  1  0
 53 56  1  0
 49 57  1  0
 57 58  1  0
 57 59  1  0
 57 60  1  0
 60 61  1  0
 60 62  1  0
 60 63  1  0
 45  3  1  0
 42 10  1  0
 23 17  2  0
 40 31  1  0
M  CHG  3  11  -1  25  -1  42  -1
M  END
>  <UniqueID>  (73) 
67

>  <SMILES>  (73) 
CCN(CC)Cc1cc(N=c2[n-]/c(=N/Cc3ccccc3)[n-]/c(=N\Cc3ccco3)[n-]2)ccc1O

>  <Energy>  (73) 
94.16306417189448

>  <Genealogy>  (73) 
CCN(CC)Cc1cc(N=c2[n-]c(=NCc3ccccc3)[n-]c(=NCc3ccco3)[n-]2)ccc1O (protonated)
CCN(CC)Cc1cc(N=c2[n-]/c(=N/Cc3ccccc3)[n-]/c(=N\Cc3ccco3)[n-]2)ccc1O (cis-trans isomerization)
CCN(CC)Cc1cc(N=c2[n-]/c(=N/Cc3ccccc3)[n-]/c(=N\Cc3ccco3)[n-]2)ccc1O (3D coordinates assigned)
CCN(CC)Cc1cc(N=c2[n-]/c(=N/Cc3ccccc3)[n-]/c(=N\Cc3ccco3)[n-]2)ccc1O (optimized conformer: 94.16306417189448 kcal/mol)

>  <smiles>  (73) 
CCN(CC)Cc1cc(N=c2[nH]c(=NCc3ccccc3)[nH]c(=NCc3ccco3)[nH]2)ccc1O

>  <score_type>  (73) 
oracle

>  <origin>  (73) 
adg

>  <m_score__min__energy>  (73) 
-13.82

>  <m_primary>  (73) 
energy

$$$$
73:0
     RDKit          3D

 55 58  0  0  0  0  0  0  0  0999 V2000
   60.8890   34.9800   48.1560 O   0  0  0  0  0  0  0  0  0  0  0  0
   60.1800   33.9750   48.4350 C   0  0  0  0  0  0  0  0  0  0  0  0
   60.3030   33.3280   49.7140 N   0  0  0  0  0  0  0  0  0  0  0  0
   59.3770   33.0530   50.5920 C   0  0  0  0  0  0  0  0  0  0  0  0
   59.1370   33.8460   51.7350 C   0  0  0  0  0  0  0  0  0  0  0  0
   58.1200   33.4810   52.6220 C   0  0  0  0  0  0  0  0  0  0  0  0
   57.3490   32.3470   52.3710 C   0  0  0  0  0  0  0  0  0  0  0  0
   57.5980   31.5940   51.2250 C   0  0  0  0  0  0  0  0  0  0  0  0
   58.5890   31.9640   50.3700 N   0  0  0  0  0  0  0  0  0  0  0  0
   59.2880   33.4020   47.3990 C   0  0  0  0  0  0  0  0  0  0  0  0
   59.8260   32.7780   46.2590 C   0  0  0  0  0  0  0  0  0  0  0  0
   58.9860   32.2210   45.2920 C   0  0  0  0  0  0  0  0  0  0  0  0
   57.5900   32.2740   45.4460 C   0  0  0  0  0  0  0  0  0  0  0  0
   56.6940   31.6910   44.4910 N   0  0  0  0  0  0  0  0  0  0  0  0
   56.4660   29.9890   44.2470 S   0  0  0  0  0  0  0  0  0  0  0  0
   55.1390   29.5800   44.8220 O   0  0  0  0  0  0  0  0  0  0  0  0
   56.4650   29.6930   42.7720 O   0  0  0  0  0  0  0  0  0  0  0  0
   57.7400   29.0970   45.0730 C   0  0  0  0  0  0  0  0  0  0  0  0
   58.3970   28.0540   44.4080 C   0  0  0  0  0  0  0  0  0  0  0  0
   59.3940   27.3250   45.0590 C   0  0  0  0  0  0  0  0  0  0  0  0
   59.7360   27.6290   46.3800 C   0  0  0  0  0  0  0  0  0  0  0  0
   59.0770   28.6630   47.0570 C   0  0  0  0  0  0  0  0  0  0  0  0
   59.4910   29.0580   48.7240 S   0  0  0  0  0  0  0  0  0  0  0  0
   60.0720   27.8510   49.4100 O   0  0  0  0  0  0  0  0  0  0  0  0
   58.2360   29.4620   49.4480 O   0  0  0  0  0  0  0  0  0  0  0  0
   60.6390   30.3720   48.7500 N   0  0  0  0  0  0  0  0  0  0  0  0
   61.6030   30.1790   49.8470 C   0  0  0  0  0  0  0  0  0  0  0  0
   62.6510   31.3160   49.8600 C   0  0  0  0  0  0  0  0  0  0  0  0
   62.5650   32.1470   48.7160 O   0  0  0  0  0  0  0  0  0  0  0  0
   62.5900   31.3560   47.5450 C   0  0  0  0  0  0  0  0  0  0  0  0
   61.3310   30.4720   47.4480 C   0  0  0  0  0  0  0  0  0  0  0  0
   58.0850   29.4020   46.3980 C   0  0  0  0  0  0  0  0  0  0  0  0
   57.0530   32.9080   46.5700 C   0  0  0  0  0  0  0  0  0  0  0  0
   57.8900   33.4660   47.5400 C   0  0  0  0  0  0  0  0  0  0  0  0
   59.7446   34.7428   51.9259 H   0  0  0  0  0  0  0  0  0  0  0  0
   57.9280   34.0889   53.5184 H   0  0  0  0  0  0  0  0  0  0  0  0
   56.5530   32.0499   53.0696 H   0  0  0  0  0  0  0  0  0  0  0  0
   56.9930   30.7004   51.0119 H   0  0  0  0  0  0  0  0  0  0  0  0
   60.9170   32.7283   46.1280 H   0  0  0  0  0  0  0  0  0  0  0  0
   59.4199   31.7377   44.4042 H   0  0  0  0  0  0  0  0  0  0  0  0
   58.1268   27.8086   43.3703 H   0  0  0  0  0  0  0  0  0  0  0  0
   59.9113   26.5100   44.5316 H   0  0  0  0  0  0  0  0  0  0  0  0
   60.5244   27.0549   46.8888 H   0  0  0  0  0  0  0  0  0  0  0  0
   60.1020   31.2550   48.9220 H   0  0  0  0  0  0  0  0  0  0  0  0
   61.0632   30.1745   50.8054 H   0  0  0  0  0  0  0  0  0  0  0  0
   62.1224   29.2210   49.6970 H   0  0  0  0  0  0  0  0  0  0  0  0
   62.4911   31.9328   50.7567 H   0  0  0  0  0  0  0  0  0  0  0  0
   63.6480   30.8512   49.8609 H   0  0  0  0  0  0  0  0  0  0  0  0
   62.6346   32.0160   46.6661 H   0  0  0  0  0  0  0  0  0  0  0  0
   63.4744   30.7030   47.5822 H   0  0  0  0  0  0  0  0  0  0  0  0
   60.6428   30.9096   46.7099 H   0  0  0  0  0  0  0  0  0  0  0  0
   61.6409   29.4616   47.1429 H   0  0  0  0  0  0  0  0  0  0  0  0
   57.5752   30.2241   46.9217 H   0  0  0  0  0  0  0  0  0  0  0  0
   55.9615   32.9683   46.6922 H   0  0  0  0  0  0  0  0  0  0  0  0
   57.4522   33.9590   48.4205 H   0  0  0  0  0  0  0  0  0  0  0  0
  1  2  2  0
  2  3  1  0
  3  4  2  3
  4  5  1  0
  5  6  2  0
  6  7  1  0
  7  8  2  0
  8  9  1  0
  2 10  1  0
 10 11  2  0
 11 12  1  0
 12 13  2  0
 13 14  1  0
 14 15  1  0
 15 16  2  0
 15 17  2  0
 15 18  1  0
 18 19  2  0
 19 20  1  0
 20 21  2  0
 21 22  1  0
 22 23  1  0
 23 24  2  0
 23 25  2  0
 23 26  1  0
 26 27  1  0
 27 28  1  0
 28 29  1  0
 29 30  1  0
 30 31  1  0
 22 32  2  0
 13 33  1  0
 33 34  2  0
  9  4  1  0
 34 10  1  0
 32 18  1  0
 31 26  1  0
  5 35  1  0
  6 36  1  0
  7 37  1  0
  8 38  1  0
 11 39  1  0
 12 40  1  0
 19 41  1  0
 20 42  1  0
 21 43  1  0
 26 44  1  0
 27 45  1  0
 27 46  1  0
 28 47  1  0
 28 48  1  0
 30 49  1  0
 30 50  1  0
 31 51  1  0
 31 52  1  0
 32 53  1  0
 33 54  1  0
 34 55  1  0
M  CHG  3   9  -1  14  -1  26   1
M  END
>  <UniqueID>  (74) 
68

>  <SMILES>  (74) 
O=C(N=c1cccc[n-]1)c1ccc([N-]S(=O)(=O)c2cccc(S(=O)(=O)[NH+]3CCOCC3)c2)cc1

>  <Energy>  (74) 
78.00080978316842

>  <Genealogy>  (74) 
O=C(N=c1cccc[n-]1)c1ccc([N-]S(=O)(=O)c2cccc(S(=O)(=O)[NH+]3CCOCC3)c2)cc1 (protonated)
O=C(N=c1cccc[n-]1)c1ccc([N-]S(=O)(=O)c2cccc(S(=O)(=O)[NH+]3CCOCC3)c2)cc1 (3D coordinates assigned)
O=C(N=c1cccc[n-]1)c1ccc([N-]S(=O)(=O)c2cccc(S(=O)(=O)[NH+]3CCOCC3)c2)cc1 (nonaromatic ring conformer: 78.00080978316842 kcal/mol)

>  <smiles>  (74) 
O=C(N=c1cccc[nH]1)c1ccc(NS(=O)(=O)c2cccc(S(=O)(=O)N3CCOCC3)c2)cc1

>  <score_type>  (74) 
oracle

>  <origin>  (74) 
adg

>  <m_score__min__energy>  (74) 
-11.52

>  <m_primary>  (74) 
energy

$$$$
74:0
     RDKit          3D

 31 33  0  0  0  0  0  0  0  0999 V2000
   59.0670   35.3130   44.7700 O   0  0  0  0  0  0  0  0  0  0  0  0
   59.2040   34.5870   45.7930 C   0  0  0  0  0  0  0  0  0  0  0  0
   60.0130   35.0950   46.8070 C   0  0  0  0  0  0  0  0  0  0  0  0
   60.3420   34.5300   48.0330 C   0  0  0  0  0  0  0  0  0  0  0  0
   59.9470   33.3080   48.5610 C   0  0  0  0  0  0  0  0  0  0  0  0
   59.1230   32.3460   47.9940 C   0  0  0  0  0  0  0  0  0  0  0  0
   58.5240   32.4060   46.7820 N   0  0  0  0  0  0  0  0  0  0  0  0
   57.7710   31.4260   46.3720 O   0  0  0  0  0  0  0  0  0  0  0  0
   57.2870   31.6820   45.1840 C   0  0  0  0  0  0  0  0  0  0  0  0
   56.4390   30.8380   44.4650 O   0  0  0  0  0  0  0  0  0  0  0  0
   56.9240   29.7360   43.7020 C   0  0  0  0  0  0  0  0  0  0  0  0
   57.9030   28.9280   44.5090 C   0  0  0  0  0  0  0  0  0  0  0  0
   59.2720   29.2450   44.4980 C   0  0  0  0  0  0  0  0  0  0  0  0
   60.1700   28.5070   45.2770 C   0  0  0  0  0  0  0  0  0  0  0  0
   59.7090   27.4540   46.0700 C   0  0  0  0  0  0  0  0  0  0  0  0
   58.3470   27.1360   46.0900 C   0  0  0  0  0  0  0  0  0  0  0  0
   57.7680   25.8190   47.0930 Cl  0  0  0  0  0  0  0  0  0  0  0  0
   57.4450   27.8730   45.3140 C   0  0  0  0  0  0  0  0  0  0  0  0
   57.7410   32.9060   44.7610 C   0  0  0  0  0  0  0  0  0  0  0  0
   58.5370   33.3550   45.8100 C   0  0  0  0  0  0  0  0  0  0  0  0
   60.4537   36.0832   46.6090 H   0  0  0  0  0  0  0  0  0  0  0  0
   61.0050   35.1321   48.6717 H   0  0  0  0  0  0  0  0  0  0  0  0
   60.3391   33.0711   49.5611 H   0  0  0  0  0  0  0  0  0  0  0  0
   58.9376   31.4412   48.5915 H   0  0  0  0  0  0  0  0  0  0  0  0
   56.0778   29.0957   43.4124 H   0  0  0  0  0  0  0  0  0  0  0  0
   57.4327   30.1199   42.8054 H   0  0  0  0  0  0  0  0  0  0  0  0
   59.6383   30.0749   43.8758 H   0  0  0  0  0  0  0  0  0  0  0  0
   61.2412   28.7568   45.2647 H   0  0  0  0  0  0  0  0  0  0  0  0
   60.4176   26.8741   46.6795 H   0  0  0  0  0  0  0  0  0  0  0  0
   56.3736   27.6247   45.3350 H   0  0  0  0  0  0  0  0  0  0  0  0
   57.5250   33.4154   43.8103 H   0  0  0  0  0  0  0  0  0  0  0  0
  1  2  2  0
  2  3  1  0
  3  4  2  0
  4  5  1  0
  5  6  2  0
  6  7  1  0
  7  8  1  0
  8  9  1  0
  9 10  1  0
 10 11  1  0
 11 12  1  0
 12 13  2  0
 13 14  1  0
 14 15  2  0
 15 16  1  0
 16 17  1  0
 16 18  2  0
  9 19  2  0
 19 20  1  0
 20  2  1  0
 20  7  2  0
 18 12  1  0
  3 21  1  0
  4 22  1  0
  5 23  1  0
  6 24  1  0
 11 25  1  0
 11 26  1  0
 13 27  1  0
 14 28  1  0
 15 29  1  0
 18 30  1  0
 19 31  1  0
M  CHG  1   7   1
M  END
>  <UniqueID>  (75) 
69

>  <SMILES>  (75) 
O=c1cccc[n+]2oc(OCc3cccc(Cl)c3)cc12

>  <Energy>  (75) 
78.35066121091738

>  <Genealogy>  (75) 
O=c1cccc[n+]2oc(OCc3cccc(Cl)c3)cc12 (3D coordinates assigned)
O=c1cccc[n+]2oc(OCc3cccc(Cl)c3)cc12 (optimized conformer: 78.35066121091738 kcal/mol)

>  <smiles>  (75) 
O=c1cccc[n+]2oc(OCc3cccc(Cl)c3)cc12

>  <score_type>  (75) 
oracle

>  <origin>  (75) 
adg

>  <m_score__min__energy>  (75) 
-5.8600000000000003

>  <m_primary>  (75) 
energy

$$$$
75:0
     RDKit          3D

 35 36  0  0  0  0  0  0  0  0999 V2000
   59.2110   34.5860   47.1980 C   0  0  0  0  0  0  0  0  0  0  0  0
   58.2890   34.2370   46.1690 O   0  0  0  0  0  0  0  0  0  0  0  0
   58.1570   32.9500   45.6280 C   0  0  0  0  0  0  0  0  0  0  0  0
   57.5630   32.8160   44.3680 C   0  0  0  0  0  0  0  0  0  0  0  0
   57.4090   31.5540   43.7850 C   0  0  0  0  0  0  0  0  0  0  0  0
   57.8460   30.4050   44.4600 C   0  0  0  0  0  0  0  0  0  0  0  0
   57.7050   29.0450   43.8320 C   0  0  0  0  0  0  0  0  0  0  0  0
   57.0150   28.1350   44.7430 N   0  0  0  0  0  0  0  0  0  0  0  0
   57.7130   27.3220   45.6950 C   0  0  0  0  0  0  0  0  0  0  0  0
   58.9710   27.3580   45.7660 O   0  0  0  0  0  0  0  0  0  0  0  0
   56.9470   26.4110   46.6060 C   0  0  0  0  0  0  0  0  0  0  0  0
   55.5810   26.3400   46.2050 O   0  0  0  0  0  0  0  0  0  0  0  0
   55.0080   25.2050   45.6200 C   0  0  0  0  0  0  0  0  0  0  0  0
   55.7890   24.3850   44.8040 C   0  0  0  0  0  0  0  0  0  0  0  0
   55.1990   23.2570   44.2310 C   0  0  0  0  0  0  0  0  0  0  0  0
   55.8740   22.4940   43.4920 O   0  0  0  0  0  0  0  0  0  0  0  0
   53.8900   22.9790   44.4740 N   0  0  0  0  0  0  0  0  0  0  0  0
   53.1430   23.7890   45.2700 C   0  0  0  0  0  0  0  0  0  0  0  0
   51.9330   23.5170   45.4820 O   0  0  0  0  0  0  0  0  0  0  0  0
   53.7000   24.8910   45.8350 N   0  0  0  0  0  0  0  0  0  0  0  0
   58.4470   30.5350   45.7220 C   0  0  0  0  0  0  0  0  0  0  0  0
   58.6010   31.7960   46.3040 C   0  0  0  0  0  0  0  0  0  0  0  0
   58.7479   34.4107   48.1802 H   0  0  0  0  0  0  0  0  0  0  0  0
   60.1164   33.9684   47.1040 H   0  0  0  0  0  0  0  0  0  0  0  0
   59.4805   35.6483   47.1040 H   0  0  0  0  0  0  0  0  0  0  0  0
   57.2143   33.7108   43.8316 H   0  0  0  0  0  0  0  0  0  0  0  0
   56.9431   31.4623   42.7928 H   0  0  0  0  0  0  0  0  0  0  0  0
   57.1266   29.1336   42.9005 H   0  0  0  0  0  0  0  0  0  0  0  0
   58.7067   28.6446   43.6169 H   0  0  0  0  0  0  0  0  0  0  0  0
   55.9740   28.0660   44.6860 H   0  0  0  0  0  0  0  0  0  0  0  0
   57.3888   25.4044   46.5670 H   0  0  0  0  0  0  0  0  0  0  0  0
   56.9975   26.8069   47.6310 H   0  0  0  0  0  0  0  0  0  0  0  0
   56.8466   24.6225   44.6165 H   0  0  0  0  0  0  0  0  0  0  0  0
   58.7985   29.6395   46.2555 H   0  0  0  0  0  0  0  0  0  0  0  0
   59.0709   31.8883   47.2943 H   0  0  0  0  0  0  0  0  0  0  0  0
  1  2  1  0
  2  3  1  0
  3  4  2  0
  4  5  1  0
  5  6  2  0
  6  7  1  0
  7  8  1  0
  8  9  1  0
  9 10  2  0
  9 11  1  0
 11 12  1  0
 12 13  1  0
 13 14  2  0
 14 15  1  0
 15 16  2  0
 15 17  1  0
 17 18  1  0
 18 19  2  0
 18 20  1  0
  6 21  1  0
 21 22  2  0
 22  3  1  0
 20 13  1  0
  1 23  1  0
  1 24  1  0
  1 25  1  0
  4 26  1  0
  5 27  1  0
  7 28  1  0
  7 29  1  0
  8 30  1  0
 11 31  1  0
 11 32  1  0
 14 33  1  0
 21 34  1  0
 22 35  1  0
M  CHG  2  17  -1  20  -1
M  END
>  <UniqueID>  (76) 
70

>  <SMILES>  (76) 
COc1ccc(CNC(=O)COc2cc(=O)[n-]c(=O)[n-]2)cc1

>  <Energy>  (76) 
30.614431395840818

>  <Genealogy>  (76) 
COc1ccc(CNC(=O)COc2cc(=O)[n-]c(=O)[n-]2)cc1 (protonated)
COc1ccc(CNC(=O)COc2cc(=O)[n-]c(=O)[n-]2)cc1 (3D coordinates assigned)
COc1ccc(CNC(=O)COc2cc(=O)[n-]c(=O)[n-]2)cc1 (optimized conformer: 30.614431395840818 kcal/mol)

>  <smiles>  (76) 
COc1ccc(CNC(=O)COc2cc(=O)[nH]c(=O)[nH]2)cc1

>  <score_type>  (76) 
oracle

>  <origin>  (76) 
adg

>  <m_score__min__energy>  (76) 
-12.08

>  <m_primary>  (76) 
energy

$$$$
76:0
     RDKit          3D

 47 49  0  0  0  0  0  0  0  0999 V2000
   55.5190   28.9890   45.1840 N   0  0  0  0  0  0  0  0  0  0  0  0
   56.6650   29.5820   44.0350 S   0  0  0  0  0  0  0  0  0  0  0  0
   57.5250   28.4440   43.5620 O   0  0  0  0  0  0  0  0  0  0  0  0
   55.9440   30.1610   42.8500 O   0  0  0  0  0  0  0  0  0  0  0  0
   57.6860   30.8080   44.7810 C   0  0  0  0  0  0  0  0  0  0  0  0
   57.7800   32.3890   44.2150 S   0  0  0  0  0  0  0  0  0  0  0  0
   58.7410   32.9630   45.4630 C   0  0  0  0  0  0  0  0  0  0  0  0
   59.2970   34.6570   45.6310 S   0  0  0  0  0  0  0  0  0  0  0  0
   59.6480   34.5270   47.4190 C   0  0  0  0  0  0  0  0  0  0  0  0
   61.0580   34.0550   47.6440 C   0  0  0  0  0  0  0  0  0  0  0  0
   61.5450   33.8460   48.9460 C   0  0  0  0  0  0  0  0  0  0  0  0
   62.8620   33.4150   49.1420 C   0  0  0  0  0  0  0  0  0  0  0  0
   63.7010   33.2000   48.0460 C   0  0  0  0  0  0  0  0  0  0  0  0
   63.2250   33.4130   46.7500 C   0  0  0  0  0  0  0  0  0  0  0  0
   61.9090   33.8380   46.5470 C   0  0  0  0  0  0  0  0  0  0  0  0
   58.9960   31.9340   46.3560 C   0  0  0  0  0  0  0  0  0  0  0  0
   58.4190   30.7110   45.9720 C   0  0  0  0  0  0  0  0  0  0  0  0
   58.5970   29.4890   46.7780 C   0  0  0  0  0  0  0  0  0  0  0  0
   59.3170   29.5360   47.8120 O   0  0  0  0  0  0  0  0  0  0  0  0
   58.0270   28.2400   46.3590 N   0  0  0  0  0  0  0  0  0  0  0  0
   58.3100   26.9790   47.0430 C   0  0  0  0  0  0  0  0  0  0  0  0
   59.2630   26.1100   46.2160 C   0  0  0  0  0  0  0  0  0  0  0  0
   58.5130   25.0480   45.4520 C   0  0  0  0  0  0  0  0  0  0  0  0
   58.8290   23.6910   45.6320 C   0  0  0  0  0  0  0  0  0  0  0  0
   58.1690   22.7090   44.8870 C   0  0  0  0  0  0  0  0  0  0  0  0
   57.1910   23.0750   43.9580 C   0  0  0  0  0  0  0  0  0  0  0  0
   56.8780   24.4240   43.7660 C   0  0  0  0  0  0  0  0  0  0  0  0
   57.5400   25.4090   44.5060 C   0  0  0  0  0  0  0  0  0  0  0  0
   54.5800   29.3370   44.8860 H   0  0  0  0  0  0  0  0  0  0  0  0
   59.5173   35.5140   47.8866 H   0  0  0  0  0  0  0  0  0  0  0  0
   58.9533   33.8013   47.8669 H   0  0  0  0  0  0  0  0  0  0  0  0
   60.8900   34.0215   49.8121 H   0  0  0  0  0  0  0  0  0  0  0  0
   63.2375   33.2451   50.1619 H   0  0  0  0  0  0  0  0  0  0  0  0
   64.7362   32.8631   48.2034 H   0  0  0  0  0  0  0  0  0  0  0  0
   63.8871   33.2459   45.8876 H   0  0  0  0  0  0  0  0  0  0  0  0
   61.5381   34.0032   45.5247 H   0  0  0  0  0  0  0  0  0  0  0  0
   59.5901   32.0616   47.2729 H   0  0  0  0  0  0  0  0  0  0  0  0
   57.5130   28.1920   45.4530 H   0  0  0  0  0  0  0  0  0  0  0  0
   58.7727   27.1939   48.0175 H   0  0  0  0  0  0  0  0  0  0  0  0
   57.3648   26.4329   47.1784 H   0  0  0  0  0  0  0  0  0  0  0  0
   59.8037   26.7498   45.5030 H   0  0  0  0  0  0  0  0  0  0  0  0
   59.9642   25.6135   46.9028 H   0  0  0  0  0  0  0  0  0  0  0  0
   59.5987   23.3999   46.3619 H   0  0  0  0  0  0  0  0  0  0  0  0
   58.4196   21.6478   45.0321 H   0  0  0  0  0  0  0  0  0  0  0  0
   56.6672   22.3012   43.3776 H   0  0  0  0  0  0  0  0  0  0  0  0
   56.1104   24.7109   43.0322 H   0  0  0  0  0  0  0  0  0  0  0  0
   57.2977   26.4700   44.3465 H   0  0  0  0  0  0  0  0  0  0  0  0
  1  2  1  0
  2  3  2  0
  2  4  2  0
  2  5  1  0
  5  6  1  0
  6  7  1  0
  7  8  1  0
  8  9  1  0
  9 10  1  0
 10 11  2  0
 11 12  1  0
 12 13  2  0
 13 14  1  0
 14 15  2  0
  7 16  2  0
 16 17  1  0
 17 18  1  0
 18 19  2  0
 18 20  1  0
 20 21  1  0
 21 22  1  0
 22 23  1  0
 23 24  2  0
 24 25  1  0
 25 26  2  0
 26 27  1  0
 27 28  2  0
 17  5  2  0
 28 23  1  0
 15 10  1  0
  1 29  1  0
  9 30  1  0
  9 31  1  0
 11 32  1  0
 12 33  1  0
 13 34  1  0
 14 35  1  0
 15 36  1  0
 16 37  1  0
 20 38  1  0
 21 39  1  0
 21 40  1  0
 22 41  1  0
 22 42  1  0
 24 43  1  0
 25 44  1  0
 26 45  1  0
 27 46  1  0
 28 47  1  0
M  CHG  1   1  -1
M  END
>  <UniqueID>  (77) 
71

>  <SMILES>  (77) 
[NH-]S(=O)(=O)c1sc(SCc2ccccc2)cc1C(=O)NCCc1ccccc1

>  <Energy>  (77) 
67.59923653822658

>  <Genealogy>  (77) 
[NH-]S(=O)(=O)c1sc(SCc2ccccc2)cc1C(=O)NCCc1ccccc1 (protonated)
[NH-]S(=O)(=O)c1sc(SCc2ccccc2)cc1C(=O)NCCc1ccccc1 (3D coordinates assigned)
[NH-]S(=O)(=O)c1sc(SCc2ccccc2)cc1C(=O)NCCc1ccccc1 (optimized conformer: 67.59923653822658 kcal/mol)

>  <smiles>  (77) 
NS(=O)(=O)c1sc(SCc2ccccc2)cc1C(=O)NCCc1ccccc1

>  <score_type>  (77) 
oracle

>  <origin>  (77) 
adg

>  <m_score__min__energy>  (77) 
-12.529999999999999

>  <m_primary>  (77) 
energy

$$$$
77:0
     RDKit          3D

 35 37  0  0  0  0  0  0  0  0999 V2000
   60.5980   26.5980   47.1300 H   0  0  0  0  0  0  0  0  0  0  0  0
   59.9580   26.3060   46.4020 O   0  0  0  0  0  0  0  0  0  0  0  0
   58.8760   27.0810   45.9710 C   0  0  0  0  0  0  0  0  0  0  0  0
   57.5830   26.5280   46.0260 C   0  0  0  0  0  0  0  0  0  0  0  0
   57.3860   25.1510   46.5390 C   0  0  0  0  0  0  0  0  0  0  0  0
   57.2060   24.9250   47.9140 C   0  0  0  0  0  0  0  0  0  0  0  0
   57.2106   25.7735   48.6140 H   0  0  0  0  0  0  0  0  0  0  0  0
   57.0210   23.6250   48.3960 C   0  0  0  0  0  0  0  0  0  0  0  0
   56.8816   23.4535   49.4736 H   0  0  0  0  0  0  0  0  0  0  0  0
   57.0130   22.5430   47.5100 C   0  0  0  0  0  0  0  0  0  0  0  0
   56.8290   21.2530   47.9910 O   0  0  0  0  0  0  0  0  0  0  0  0
   57.1920   22.7610   46.1400 C   0  0  0  0  0  0  0  0  0  0  0  0
   57.1872   21.9098   45.4432 H   0  0  0  0  0  0  0  0  0  0  0  0
   57.3770   24.0590   45.6550 C   0  0  0  0  0  0  0  0  0  0  0  0
   57.5161   24.2261   44.5767 H   0  0  0  0  0  0  0  0  0  0  0  0
   56.4780   27.2820   45.5970 C   0  0  0  0  0  0  0  0  0  0  0  0
   55.1980   26.7320   45.6740 O   0  0  0  0  0  0  0  0  0  0  0  0
   56.6530   28.5890   45.1100 C   0  0  0  0  0  0  0  0  0  0  0  0
   55.5450   29.3460   44.6820 C   0  0  0  0  0  0  0  0  0  0  0  0
   54.5358   28.9107   44.7281 H   0  0  0  0  0  0  0  0  0  0  0  0
   55.7180   30.6440   44.2000 C   0  0  0  0  0  0  0  0  0  0  0  0
   54.8462   31.2275   43.8692 H   0  0  0  0  0  0  0  0  0  0  0  0
   56.9920   31.2020   44.1370 C   0  0  0  0  0  0  0  0  0  0  0  0
   57.1235   32.2250   43.7546 H   0  0  0  0  0  0  0  0  0  0  0  0
   58.1030   30.4690   44.5570 C   0  0  0  0  0  0  0  0  0  0  0  0
   59.1050   30.9196   44.5033 H   0  0  0  0  0  0  0  0  0  0  0  0
   57.9530   29.1550   45.0500 C   0  0  0  0  0  0  0  0  0  0  0  0
   59.0680   28.3900   45.4740 C   0  0  0  0  0  0  0  0  0  0  0  0
   60.4330   28.9600   45.4200 C   0  0  0  0  0  0  0  0  0  0  0  0
   61.0572   28.7177   44.5472 H   0  0  0  0  0  0  0  0  0  0  0  0
   60.9580   29.7520   46.3650 C   0  0  0  0  0  0  0  0  0  0  0  0
   61.5525   30.6132   46.0259 H   0  0  0  0  0  0  0  0  0  0  0  0
   60.8070   29.5680   47.8220 C   0  0  0  0  0  0  0  0  0  0  0  0
   60.8976   30.4446   48.4803 H   0  0  0  0  0  0  0  0  0  0  0  0
   60.5780   28.4420   48.3370 O   0  0  0  0  0  0  0  0  0  0  0  0
  1  2  1  0
  2  3  1  0
  3  4  2  0
  4  5  1  0
  5  6  2  0
  6  7  1  0
  6  8  1  0
  8  9  1  0
  8 10  2  0
 10 11  1  0
 10 12  1  0
 12 13  1  0
 12 14  2  0
 14 15  1  0
  4 16  1  0
 16 17  1  0
 16 18  2  0
 18 19  1  0
 19 20  1  0
 19 21  2  0
 21 22  1  0
 21 23  1  0
 23 24  1  0
 23 25  2  0
 25 26  1  0
 25 27  1  0
 27 28  2  0
 28 29  1  0
 29 30  1  0
 29 31  2  0
 31 32  1  0
 31 33  1  0
 33 34  1  0
 33 35  2  0
 28  3  1  0
 14  5  1  0
 27 18  1  0
M  CHG  2  11  -1  17  -1
M  END
>  <UniqueID>  (78) 
72

>  <SMILES>  (78) 
O=C/C=C\c1c(O)c(-c2ccc([O-])cc2)c([O-])c2ccccc12

>  <Energy>  (78) 
61.329482597490085

>  <Genealogy>  (78) 
O=CC=Cc1c(O)c(-c2ccc([O-])cc2)c([O-])c2ccccc12 (protonated)
O=C/C=C\c1c(O)c(-c2ccc([O-])cc2)c([O-])c2ccccc12 (cis-trans isomerization)
O=C/C=C\c1c(O)c(-c2ccc([O-])cc2)c([O-])c2ccccc12 (3D coordinates assigned)
O=C/C=C\c1c(O)c(-c2ccc([O-])cc2)c([O-])c2ccccc12 (optimized conformer: 61.329482597490085 kcal/mol)

>  <smiles>  (78) 
O=CC=Cc1c(O)c(-c2ccc(O)cc2)c(O)c2ccccc12

>  <score_type>  (78) 
oracle

>  <origin>  (78) 
adg

>  <m_score__min__energy>  (78) 
-10.4

>  <m_primary>  (78) 
energy

$$$$
78:0
     RDKit          3D

 43 46  0  0  0  0  0  0  0  0999 V2000
   59.6450   35.5160   46.5990 C   0  0  0  0  0  0  0  0  0  0  0  0
   58.9420   34.3840   45.9100 C   0  0  0  0  0  0  0  0  0  0  0  0
   58.2260   33.4360   46.6590 C   0  0  0  0  0  0  0  0  0  0  0  0
   57.6020   32.3600   46.0200 C   0  0  0  0  0  0  0  0  0  0  0  0
   57.7010   32.2110   44.6300 C   0  0  0  0  0  0  0  0  0  0  0  0
   56.9340   30.8480   43.8210 S   0  0  0  0  0  0  0  0  0  0  0  0
   55.5770   30.5740   44.4070 O   0  0  0  0  0  0  0  0  0  0  0  0
   56.7800   31.1770   42.3640 O   0  0  0  0  0  0  0  0  0  0  0  0
   57.9190   29.4280   43.9870 N   0  0  0  0  0  0  0  0  0  0  0  0
   58.5150   29.0030   45.2260 C   0  0  0  0  0  0  0  0  0  0  0  0
   59.6560   29.6660   45.6990 C   0  0  0  0  0  0  0  0  0  0  0  0
   60.2540   29.2850   46.9020 C   0  0  0  0  0  0  0  0  0  0  0  0
   59.7270   28.2260   47.6600 C   0  0  0  0  0  0  0  0  0  0  0  0
   60.3730   27.8360   48.9380 C   0  0  0  0  0  0  0  0  0  0  0  0
   61.0020   28.6960   49.8500 C   0  0  0  0  0  0  0  0  0  0  0  0
   61.4350   27.9150   50.8420 N   0  0  0  0  0  0  0  0  0  0  0  0
   62.1120   28.0500   52.0040 C   0  0  0  0  0  0  0  0  0  0  0  0
   62.6450   29.3550   52.5030 C   0  0  0  0  0  0  0  0  0  0  0  0
   62.3140   26.8120   52.6370 C   0  0  0  0  0  0  0  0  0  0  0  0
   61.5980   25.5710   51.6920 S   0  0  0  0  0  0  0  0  0  0  0  0
   61.0910   26.6820   50.5440 C   0  0  0  0  0  0  0  0  0  0  0  0
   60.4310   26.5450   49.3820 N   0  0  0  0  0  0  0  0  0  0  0  0
   58.5880   27.5530   47.1810 C   0  0  0  0  0  0  0  0  0  0  0  0
   57.9900   27.9350   45.9770 C   0  0  0  0  0  0  0  0  0  0  0  0
   58.4260   33.1500   43.8830 C   0  0  0  0  0  0  0  0  0  0  0  0
   59.0490   34.2260   44.5210 C   0  0  0  0  0  0  0  0  0  0  0  0
   59.5655   35.3880   47.6886 H   0  0  0  0  0  0  0  0  0  0  0  0
   60.7055   35.5212   46.3068 H   0  0  0  0  0  0  0  0  0  0  0  0
   59.1795   36.4688   46.3068 H   0  0  0  0  0  0  0  0  0  0  0  0
   58.1558   33.5402   47.7518 H   0  0  0  0  0  0  0  0  0  0  0  0
   57.0314   31.6280   46.6104 H   0  0  0  0  0  0  0  0  0  0  0  0
   58.1470   28.9070   43.1100 H   0  0  0  0  0  0  0  0  0  0  0  0
   60.0846   30.4949   45.1165 H   0  0  0  0  0  0  0  0  0  0  0  0
   61.1465   29.8193   47.2597 H   0  0  0  0  0  0  0  0  0  0  0  0
   61.1150   29.7869   49.7654 H   0  0  0  0  0  0  0  0  0  0  0  0
   62.6448   29.3546   53.6030 H   0  0  0  0  0  0  0  0  0  0  0  0
   63.6726   29.4956   52.1365 H   0  0  0  0  0  0  0  0  0  0  0  0
   62.0097   30.1748   52.1365 H   0  0  0  0  0  0  0  0  0  0  0  0
   62.8467   26.6619   53.5877 H   0  0  0  0  0  0  0  0  0  0  0  0
   58.1644   26.7187   47.7594 H   0  0  0  0  0  0  0  0  0  0  0  0
   57.1022   27.3967   45.6136 H   0  0  0  0  0  0  0  0  0  0  0  0
   58.5047   33.0395   42.7914 H   0  0  0  0  0  0  0  0  0  0  0  0
   59.6262   34.9527   43.9304 H   0  0  0  0  0  0  0  0  0  0  0  0
  1  2  1  0
  2  3  2  0
  3  4  1  0
  4  5  2  0
  5  6  1  0
  6  7  2  0
  6  8  2  0
  6  9  1  0
  9 10  1  0
 10 11  2  0
 11 12  1  0
 12 13  2  0
 13 14  1  0
 14 15  2  0
 15 16  1  0
 16 17  1  0
 17 18  1  0
 17 19  2  0
 19 20  1  0
 20 21  1  0
 21 22  2  0
 13 23  1  0
 23 24  2  0
  5 25  1  0
 25 26  2  0
 26  2  1  0
 24 10  1  0
 22 14  1  0
 21 16  1  0
  1 27  1  0
  1 28  1  0
  1 29  1  0
  3 30  1  0
  4 31  1  0
  9 32  1  0
 11 33  1  0
 12 34  1  0
 15 35  1  0
 18 36  1  0
 18 37  1  0
 18 38  1  0
 19 39  1  0
 23 40  1  0
 24 41  1  0
 25 42  1  0
 26 43  1  0
M  END
>  <UniqueID>  (79) 
73

>  <SMILES>  (79) 
Cc1ccc(S(=O)(=O)Nc2ccc(-c3cn4c(C)csc4n3)cc2)cc1

>  <Energy>  (79) 
127.21582538775918

>  <Genealogy>  (79) 
Cc1ccc(S(=O)(=O)Nc2ccc(-c3cn4c(C)csc4n3)cc2)cc1 (3D coordinates assigned)
Cc1ccc(S(=O)(=O)Nc2ccc(-c3cn4c(C)csc4n3)cc2)cc1 (optimized conformer: 127.21582538775918 kcal/mol)

>  <smiles>  (79) 
Cc1ccc(S(=O)(=O)Nc2ccc(-c3cn4c(C)csc4n3)cc2)cc1

>  <score_type>  (79) 
oracle

>  <origin>  (79) 
adg

>  <m_score__min__energy>  (79) 
-8.5600000000000005

>  <m_primary>  (79) 
energy

$$$$
79:0
     RDKit          3D

 36 37  0  0  0  0  0  0  0  0999 V2000
   55.2020   28.6450   45.6270 H   0  0  0  0  0  0  0  0  0  0  0  0
   55.1470   29.3430   44.8520 N   0  0  0  0  0  0  0  0  0  0  0  0
   56.7320   29.4680   44.1750 S   0  0  0  0  0  0  0  0  0  0  0  0
   57.5500   28.2800   44.5940 O   0  0  0  0  0  0  0  0  0  0  0  0
   56.6380   29.4830   42.6750 O   0  0  0  0  0  0  0  0  0  0  0  0
   57.4970   30.9490   44.7390 C   0  0  0  0  0  0  0  0  0  0  0  0
   57.3970   32.1250   43.9830 C   0  0  0  0  0  0  0  0  0  0  0  0
   56.8497   32.1185   43.0289 H   0  0  0  0  0  0  0  0  0  0  0  0
   57.9910   33.3070   44.4380 C   0  0  0  0  0  0  0  0  0  0  0  0
   57.9093   34.2264   43.8397 H   0  0  0  0  0  0  0  0  0  0  0  0
   58.6910   33.3250   45.6550 C   0  0  0  0  0  0  0  0  0  0  0  0
   59.3050   34.6080   46.1500 C   0  0  0  0  0  0  0  0  0  0  0  0
   60.1820   34.8515   45.5322 H   0  0  0  0  0  0  0  0  0  0  0  0
   58.5564   35.4109   46.0794 H   0  0  0  0  0  0  0  0  0  0  0  0
   59.7220   34.4720   47.5450 N   0  0  0  0  0  0  0  0  0  0  0  0
   60.9200   34.1420   47.9370 C   0  0  0  0  0  0  0  0  0  0  0  0
   61.7850   33.5320   47.0880 N   0  0  0  0  0  0  0  0  0  0  0  0
   63.0280   33.1840   47.4980 C   0  0  0  0  0  0  0  0  0  0  0  0
   63.8040   32.6240   46.6780 O   0  0  0  0  0  0  0  0  0  0  0  0
   63.4280   33.4410   48.7830 N   0  0  0  0  0  0  0  0  0  0  0  0
   64.7870   33.0850   49.2370 C   0  0  0  0  0  0  0  0  0  0  0  0
   65.4114   32.8586   48.3602 H   0  0  0  0  0  0  0  0  0  0  0  0
   65.2033   33.9351   49.7973 H   0  0  0  0  0  0  0  0  0  0  0  0
   64.7550   31.8650   50.1560 C   0  0  0  0  0  0  0  0  0  0  0  0
   63.9246   31.2075   49.8589 H   0  0  0  0  0  0  0  0  0  0  0  0
   65.7094   31.3249   50.0704 H   0  0  0  0  0  0  0  0  0  0  0  0
   64.5740   32.2680   51.4860 O   0  0  0  0  0  0  0  0  0  0  0  0
   63.8910   32.9870   51.4640 H   0  0  0  0  0  0  0  0  0  0  0  0
   62.5550   34.0720   49.6330 C   0  0  0  0  0  0  0  0  0  0  0  0
   62.8950   34.3440   50.8170 O   0  0  0  0  0  0  0  0  0  0  0  0
   61.3110   34.4140   49.2070 N   0  0  0  0  0  0  0  0  0  0  0  0
   60.6500   34.8900   49.8650 H   0  0  0  0  0  0  0  0  0  0  0  0
   58.7800   32.1480   46.4150 C   0  0  0  0  0  0  0  0  0  0  0  0
   59.3205   32.1545   47.3730 H   0  0  0  0  0  0  0  0  0  0  0  0
   58.1850   30.9680   45.9600 C   0  0  0  0  0  0  0  0  0  0  0  0
   58.2570   30.0505   46.5626 H   0  0  0  0  0  0  0  0  0  0  0  0
  1  2  1  0
  2  3  1  0
  3  4  2  0
  3  5  2  0
  3  6  1  0
  6  7  2  0
  7  8  1  0
  7  9  1  0
  9 10  1  0
  9 11  2  0
 11 12  1  0
 12 13  1  0
 12 14  1  0
 12 15  1  0
 15 16  2  0
 16 17  1  0
 17 18  1  0
 18 19  2  0
 18 20  1  0
 20 21  1  0
 21 22  1  0
 21 23  1  0
 21 24  1  0
 24 25  1  0
 24 26  1  0
 24 27  1  0
 27 28  1  0
 20 29  1  0
 29 30  2  0
 29 31  1  0
 31 32  1  0
 11 33  1  0
 33 34  1  0
 33 35  2  0
 35 36  1  0
 35  6  1  0
 31 16  1  0
M  CHG  2   2  -1  17  -1
M  END
>  <UniqueID>  (80) 
74

>  <SMILES>  (80) 
[NH-]S(=O)(=O)c1ccc(C/N=c2\[n-]c(=O)n(CCO)c(=O)[nH]2)cc1

>  <Energy>  (80) 
36.14494923543235

>  <Genealogy>  (80) 
[NH-]S(=O)(=O)c1ccc(CN=c2[n-]c(=O)n(CCO)c(=O)[nH]2)cc1 (protonated)
[NH-]S(=O)(=O)c1ccc(C/N=c2\[n-]c(=O)n(CCO)c(=O)[nH]2)cc1 (cis-trans isomerization)
[NH-]S(=O)(=O)c1ccc(C/N=c2\[n-]c(=O)n(CCO)c(=O)[nH]2)cc1 (3D coordinates assigned)
[NH-]S(=O)(=O)c1ccc(C/N=c2\[n-]c(=O)n(CCO)c(=O)[nH]2)cc1 (optimized conformer: 36.14494923543235 kcal/mol)

>  <smiles>  (80) 
NS(=O)(=O)c1ccc(CN=c2[nH]c(=O)n(CCO)c(=O)[nH]2)cc1

>  <score_type>  (80) 
oracle

>  <origin>  (80) 
adg

>  <m_score__min__energy>  (80) 
-10.720000000000001

>  <m_primary>  (80) 
energy

$$$$
80:0
     RDKit          3D

 18 18  0  0  0  0  0  0  0  0999 V2000
   56.2720   30.3440   52.8120 C   0  0  0  0  0  0  0  0  0  0  0  0
   55.2880   30.4130   51.7430 N   0  0  0  0  0  0  0  0  0  0  0  0
   53.9090   30.0800   51.9360 C   0  0  0  0  0  0  0  0  0  0  0  0
   53.5790   29.2990   52.8710 O   0  0  0  0  0  0  0  0  0  0  0  0
   52.8710   30.6500   51.0440 C   0  0  0  0  0  0  0  0  0  0  0  0
   52.3500   31.9340   51.2710 C   0  0  0  0  0  0  0  0  0  0  0  0
   51.3990   32.4440   50.4450 N   0  0  0  0  0  0  0  0  0  0  0  0
   50.9180   31.7480   49.3820 C   0  0  0  0  0  0  0  0  0  0  0  0
   50.0370   32.2670   48.6470 O   0  0  0  0  0  0  0  0  0  0  0  0
   51.4060   30.4610   49.1110 C   0  0  0  0  0  0  0  0  0  0  0  0
   50.9370   29.7140   48.0300 O   0  0  0  0  0  0  0  0  0  0  0  0
   52.3850   29.9160   49.9480 C   0  0  0  0  0  0  0  0  0  0  0  0
   55.7597   30.3799   53.7848 H   0  0  0  0  0  0  0  0  0  0  0  0
   56.8374   29.4040   52.7298 H   0  0  0  0  0  0  0  0  0  0  0  0
   56.9630   31.1959   52.7298 H   0  0  0  0  0  0  0  0  0  0  0  0
   52.7133   32.5298   52.1213 H   0  0  0  0  0  0  0  0  0  0  0  0
   50.1760   30.0370   47.4450 H   0  0  0  0  0  0  0  0  0  0  0  0
   52.7767   28.9078   49.7477 H   0  0  0  0  0  0  0  0  0  0  0  0
  1  2  1  0
  2  3  1  0
  3  4  2  0
  3  5  1  0
  5  6  2  0
  6  7  1  0
  7  8  1  0
  8  9  2  0
  8 10  1  0
 10 11  1  0
 10 12  2  0
 12  5  1  0
  1 13  1  0
  1 14  1  0
  1 15  1  0
  6 16  1  0
 11 17  1  0
 12 18  1  0
M  CHG  2   2  -1   7  -1
M  END
>  <UniqueID>  (81) 
75

>  <SMILES>  (81) 
C[N-]C(=O)c1c[n-]c(=O)c(O)c1

>  <Energy>  (81) 
15.820578255777018

>  <Genealogy>  (81) 
C[N-]C(=O)c1c[n-]c(=O)c(O)c1 (protonated)
C[N-]C(=O)c1c[n-]c(=O)c(O)c1 (3D coordinates assigned)
C[N-]C(=O)c1c[n-]c(=O)c(O)c1 (optimized conformer: 15.820578255777018 kcal/mol)

>  <smiles>  (81) 
CNC(=O)c1c[nH]c(=O)c(O)c1

>  <score_type>  (81) 
oracle

>  <origin>  (81) 
adg

>  <m_score__min__energy>  (81) 
-8.9000000000000004

>  <m_primary>  (81) 
energy

$$$$
81:0
     RDKit          3D

 36 37  0  0  0  0  0  0  0  0999 V2000
   56.4580   30.4810   45.5920 H   0  0  0  0  0  0  0  0  0  0  0  0
   56.8040   31.3270   45.1550 O   0  0  0  0  0  0  0  0  0  0  0  0
   57.9060   32.0210   45.6550 C   0  0  0  0  0  0  0  0  0  0  0  0
   59.0180   31.3020   46.1060 C   0  0  0  0  0  0  0  0  0  0  0  0
   59.0055   30.2028   46.0672 H   0  0  0  0  0  0  0  0  0  0  0  0
   60.1510   31.9650   46.6080 C   0  0  0  0  0  0  0  0  0  0  0  0
   61.2970   31.1470   47.0760 C   0  0  0  0  0  0  0  0  0  0  0  0
   62.2255   31.1767   46.4869 H   0  0  0  0  0  0  0  0  0  0  0  0
   61.2730   30.3740   48.1710 C   0  0  0  0  0  0  0  0  0  0  0  0
   62.2236   30.0198   48.5964 H   0  0  0  0  0  0  0  0  0  0  0  0
   60.0100   29.9860   48.8200 C   0  0  0  0  0  0  0  0  0  0  0  0
   59.2680   30.8910   49.2830 O   0  0  0  0  0  0  0  0  0  0  0  0
   59.6180   28.6180   48.9900 N   0  0  0  0  0  0  0  0  0  0  0  0
   60.2350   27.4790   48.3150 C   0  0  0  0  0  0  0  0  0  0  0  0
   61.3246   27.5164   48.4611 H   0  0  0  0  0  0  0  0  0  0  0  0
   59.8316   26.5478   48.7395 H   0  0  0  0  0  0  0  0  0  0  0  0
   59.9240   27.5220   46.8190 C   0  0  0  0  0  0  0  0  0  0  0  0
   60.1582   28.5251   46.4331 H   0  0  0  0  0  0  0  0  0  0  0  0
   60.5353   26.7586   46.3155 H   0  0  0  0  0  0  0  0  0  0  0  0
   58.4710   27.2200   46.5520 C   0  0  0  0  0  0  0  0  0  0  0  0
   57.9330   25.9710   46.9020 C   0  0  0  0  0  0  0  0  0  0  0  0
   58.5679   25.2199   47.3947 H   0  0  0  0  0  0  0  0  0  0  0  0
   56.5940   25.6780   46.6270 C   0  0  0  0  0  0  0  0  0  0  0  0
   56.1768   24.7003   46.9100 H   0  0  0  0  0  0  0  0  0  0  0  0
   55.7840   26.6250   45.9930 C   0  0  0  0  0  0  0  0  0  0  0  0
   54.4540   26.3270   45.7220 O   0  0  0  0  0  0  0  0  0  0  0  0
   56.3160   27.8690   45.6300 C   0  0  0  0  0  0  0  0  0  0  0  0
   55.5170   28.8110   44.9960 O   0  0  0  0  0  0  0  0  0  0  0  0
   57.6560   28.1640   45.9060 C   0  0  0  0  0  0  0  0  0  0  0  0
   58.0728   29.1397   45.6156 H   0  0  0  0  0  0  0  0  0  0  0  0
   60.1410   33.3730   46.6710 C   0  0  0  0  0  0  0  0  0  0  0  0
   61.0123   33.9089   47.0754 H   0  0  0  0  0  0  0  0  0  0  0  0
   59.0290   34.0920   46.2220 C   0  0  0  0  0  0  0  0  0  0  0  0
   59.0326   35.1909   46.2709 H   0  0  0  0  0  0  0  0  0  0  0  0
   57.9140   33.4240   45.7120 C   0  0  0  0  0  0  0  0  0  0  0  0
   56.8190   34.1560   45.2690 O   0  0  0  0  0  0  0  0  0  0  0  0
  1  2  1  0
  2  3  1  0
  3  4  2  0
  4  5  1  0
  4  6  1  0
  6  7  1  0
  7  8  1  0
  7  9  2  0
  9 10  1  0
  9 11  1  0
 11 12  2  0
 11 13  1  0
 13 14  1  0
 14 15  1  0
 14 16  1  0
 14 17  1  0
 17 18  1  0
 17 19  1  0
 17 20  1  0
 20 21  2  0
 21 22  1  0
 21 23  1  0
 23 24  1  0
 23 25  2  0
 25 26  1  0
 25 27  1  0
 27 28  1  0
 27 29  2  0
 29 30  1  0
  6 31  2  0
 31 32  1  0
 31 33  1  0
 33 34  1  0
 33 35  2  0
 35 36  1  0
 35  3  1  0
 29 20  1  0
M  CHG  4  13  -1  26  -1  28  -1  36  -1
M  END
>  <UniqueID>  (82) 
76

>  <SMILES>  (82) 
O=C(/C=C/c1ccc([O-])c(O)c1)[N-]CCc1ccc([O-])c([O-])c1

>  <Energy>  (82) 
39.75047565563969

>  <Genealogy>  (82) 
O=C(C=Cc1ccc([O-])c(O)c1)[N-]CCc1ccc([O-])c([O-])c1 (protonated)
O=C(/C=C/c1ccc([O-])c(O)c1)[N-]CCc1ccc([O-])c([O-])c1 (cis-trans isomerization)
O=C(/C=C/c1ccc([O-])c(O)c1)[N-]CCc1ccc([O-])c([O-])c1 (3D coordinates assigned)
O=C(/C=C/c1ccc([O-])c(O)c1)[N-]CCc1ccc([O-])c([O-])c1 (optimized conformer: 39.75047565563969 kcal/mol)

>  <smiles>  (82) 
O=C(C=Cc1ccc(O)c(O)c1)NCCc1ccc(O)c(O)c1

>  <score_type>  (82) 
oracle

>  <origin>  (82) 
adg

>  <m_score__min__energy>  (82) 
-16.989999999999998

>  <m_primary>  (82) 
energy

$$$$
82:0
     RDKit          3D

 58 61  0  0  0  0  0  0  0  0999 V2000
   65.9930   32.1540   50.5690 C   0  0  0  0  0  0  0  0  0  0  0  0
   64.5840   32.0300   50.7380 O   0  0  0  0  0  0  0  0  0  0  0  0
   63.6680   31.9190   49.6820 C   0  0  0  0  0  0  0  0  0  0  0  0
   63.8920   32.6750   48.5250 C   0  0  0  0  0  0  0  0  0  0  0  0
   63.0070   32.6000   47.4460 C   0  0  0  0  0  0  0  0  0  0  0  0
   61.8770   31.7800   47.5110 C   0  0  0  0  0  0  0  0  0  0  0  0
   61.0240   31.7240   46.4000 O   0  0  0  0  0  0  0  0  0  0  0  0
   60.0640   30.7290   46.1690 C   0  0  0  0  0  0  0  0  0  0  0  0
   60.4290   29.4180   46.1090 N   0  0  0  0  0  0  0  0  0  0  0  0
   59.5300   28.4260   45.8910 C   0  0  0  0  0  0  0  0  0  0  0  0
   58.1720   28.7310   45.7140 C   0  0  0  0  0  0  0  0  0  0  0  0
   57.1870   27.7070   45.4990 N   0  0  0  0  0  0  0  0  0  0  0  0
   56.9240   26.6360   46.4230 C   0  0  0  0  0  0  0  0  0  0  0  0
   57.5330   26.5770   47.5240 O   0  0  0  0  0  0  0  0  0  0  0  0
   55.9500   25.6310   46.1220 N   0  0  0  0  0  0  0  0  0  0  0  0
   56.1310   24.5330   45.2190 C   0  0  0  0  0  0  0  0  0  0  0  0
   55.0350   24.0830   44.4730 C   0  0  0  0  0  0  0  0  0  0  0  0
   55.1700   23.0000   43.5990 C   0  0  0  0  0  0  0  0  0  0  0  0
   56.4000   22.3470   43.4790 C   0  0  0  0  0  0  0  0  0  0  0  0
   56.5300   21.2950   42.6330 F   0  0  0  0  0  0  0  0  0  0  0  0
   57.4920   22.7690   44.2420 C   0  0  0  0  0  0  0  0  0  0  0  0
   57.3610   23.8520   45.1180 C   0  0  0  0  0  0  0  0  0  0  0  0
   58.4180   24.2030   45.8950 F   0  0  0  0  0  0  0  0  0  0  0  0
   57.7690   30.0670   45.8110 C   0  0  0  0  0  0  0  0  0  0  0  0
   58.7110   31.0800   46.0330 C   0  0  0  0  0  0  0  0  0  0  0  0
   58.1890   32.7680   46.0930 S   0  0  0  0  0  0  0  0  0  0  0  0
   58.8360   33.5290   44.9670 O   0  0  0  0  0  0  0  0  0  0  0  0
   56.6990   32.8430   45.9090 O   0  0  0  0  0  0  0  0  0  0  0  0
   58.6360   33.5390   47.6500 C   0  0  0  0  0  0  0  0  0  0  0  0
   58.7380   32.5090   48.7820 C   0  0  0  0  0  0  0  0  0  0  0  0
   59.1510   33.1920   50.1060 C   0  0  0  0  0  0  0  0  0  0  0  0
   59.6070   34.5260   49.9340 O   0  0  0  0  0  0  0  0  0  0  0  0
   60.5860   34.5790   48.9130 C   0  0  0  0  0  0  0  0  0  0  0  0
   59.9560   34.3240   47.5290 C   0  0  0  0  0  0  0  0  0  0  0  0
   61.6570   31.0020   48.6620 C   0  0  0  0  0  0  0  0  0  0  0  0
   62.5430   31.0750   49.7420 C   0  0  0  0  0  0  0  0  0  0  0  0
   66.4782   32.1967   51.5553 H   0  0  0  0  0  0  0  0  0  0  0  0
   66.3731   31.2858   50.0106 H   0  0  0  0  0  0  0  0  0  0  0  0
   66.2157   33.0752   50.0106 H   0  0  0  0  0  0  0  0  0  0  0  0
   64.7714   33.3331   48.4648 H   0  0  0  0  0  0  0  0  0  0  0  0
   63.2012   33.1908   46.5387 H   0  0  0  0  0  0  0  0  0  0  0  0
   59.8666   27.3794   45.8529 H   0  0  0  0  0  0  0  0  0  0  0  0
   56.7000   27.6990   44.5760 H   0  0  0  0  0  0  0  0  0  0  0  0
   54.0614   24.5847   44.5751 H   0  0  0  0  0  0  0  0  0  0  0  0
   54.3078   22.6617   43.0056 H   0  0  0  0  0  0  0  0  0  0  0  0
   58.4570   22.2484   44.1537 H   0  0  0  0  0  0  0  0  0  0  0  0
   56.7041   30.3243   45.7122 H   0  0  0  0  0  0  0  0  0  0  0  0
   57.8307   34.2458   47.8990 H   0  0  0  0  0  0  0  0  0  0  0  0
   57.7609   32.0220   48.9163 H   0  0  0  0  0  0  0  0  0  0  0  0
   59.5020   31.7640   48.5148 H   0  0  0  0  0  0  0  0  0  0  0  0
   58.2803   33.2050   50.7781 H   0  0  0  0  0  0  0  0  0  0  0  0
   59.9888   32.6135   50.5223 H   0  0  0  0  0  0  0  0  0  0  0  0
   61.0558   35.5736   48.9165 H   0  0  0  0  0  0  0  0  0  0  0  0
   61.3359   33.7976   49.1058 H   0  0  0  0  0  0  0  0  0  0  0  0
   59.7548   35.2903   47.0435 H   0  0  0  0  0  0  0  0  0  0  0  0
   60.6610   33.7272   46.9316 H   0  0  0  0  0  0  0  0  0  0  0  0
   60.7849   30.3336   48.7130 H   0  0  0  0  0  0  0  0  0  0  0  0
   62.3598   30.4701   50.6423 H   0  0  0  0  0  0  0  0  0  0  0  0
  1  2  1  0
  2  3  1  0
  3  4  2  0
  4  5  1  0
  5  6  2  0
  6  7  1  0
  7  8  1  0
  8  9  2  0
  9 10  1  0
 10 11  2  0
 11 12  1  0
 12 13  1  0
 13 14  2  0
 13 15  1  0
 15 16  1  0
 16 17  2  0
 17 18  1  0
 18 19  2  0
 19 20  1  0
 19 21  1  0
 21 22  2  0
 22 23  1  0
 11 24  1  0
 24 25  2  0
 25 26  1  0
 26 27  2  0
 26 28  2  0
 26 29  1  0
 29 30  1  0
 30 31  1  0
 31 32  1  0
 32 33  1  0
 33 34  1  0
  6 35  1  0
 35 36  2  0
 36  3  1  0
 25  8  1  0
 34 29  1  0
 22 16  1  0
  1 37  1  0
  1 38  1  0
  1 39  1  0
  4 40  1  0
  5 41  1  0
 10 42  1  0
 12 43  1  0
 17 44  1  0
 18 45  1  0
 21 46  1  0
 24 47  1  0
 29 48  1  0
 30 49  1  0
 30 50  1  0
 31 51  1  0
 31 52  1  0
 33 53  1  0
 33 54  1  0
 34 55  1  0
 34 56  1  0
 35 57  1  0
 36 58  1  0
M  CHG  1  15  -1
M  END
>  <UniqueID>  (83) 
77

>  <SMILES>  (83) 
COc1ccc(Oc2ncc(NC(=O)[N-]c3ccc(F)cc3F)cc2S(=O)(=O)C2CCOCC2)cc1

>  <Energy>  (83) 
78.1106910669383

>  <Genealogy>  (83) 
COc1ccc(Oc2ncc(NC(=O)[N-]c3ccc(F)cc3F)cc2S(=O)(=O)C2CCOCC2)cc1 (protonated)
COc1ccc(Oc2ncc(NC(=O)[N-]c3ccc(F)cc3F)cc2S(=O)(=O)C2CCOCC2)cc1 (3D coordinates assigned)
COc1ccc(Oc2ncc(NC(=O)[N-]c3ccc(F)cc3F)cc2S(=O)(=O)C2CCOCC2)cc1 (nonaromatic ring conformer: 78.1106910669383 kcal/mol)

>  <smiles>  (83) 
COc1ccc(Oc2ncc(NC(=O)Nc3ccc(F)cc3F)cc2S(=O)(=O)C2CCOCC2)cc1

>  <score_type>  (83) 
oracle

>  <origin>  (83) 
adg

>  <m_score__min__energy>  (83) 
-11.140000000000001

>  <m_primary>  (83) 
energy

$$$$
83:0
     RDKit          3D

 50 52  0  0  0  0  0  0  0  0999 V2000
   55.2160   29.1940   44.8750 N   0  0  0  0  0  0  0  0  0  0  0  0
   56.5360   29.6770   45.1120 C   0  0  0  0  0  0  0  0  0  0  0  0
   56.8790   30.7980   44.6480 O   0  0  0  0  0  0  0  0  0  0  0  0
   57.4970   28.8420   45.8590 C   0  0  0  0  0  0  0  0  0  0  0  0
   58.6250   29.3890   46.3900 N   0  0  0  0  0  0  0  0  0  0  0  0
   59.3300   28.4970   47.1170 C   0  0  0  0  0  0  0  0  0  0  0  0
   60.4310   28.8190   47.7280 N   0  0  0  0  0  0  0  0  0  0  0  0
   60.5440   29.1010   49.1580 C   0  0  0  0  0  0  0  0  0  0  0  0
   60.9140   30.5690   49.3860 C   0  0  0  0  0  0  0  0  0  0  0  0
   60.2880   31.4460   48.3310 C   0  0  0  0  0  0  0  0  0  0  0  0
   58.9030   31.6800   48.3330 C   0  0  0  0  0  0  0  0  0  0  0  0
   58.3280   32.5210   47.3730 C   0  0  0  0  0  0  0  0  0  0  0  0
   59.1350   33.1370   46.4030 C   0  0  0  0  0  0  0  0  0  0  0  0
   58.4310   34.2050   45.1900 S   0  0  0  0  0  0  0  0  0  0  0  0
   58.3710   33.3890   43.6660 N   0  0  0  0  0  0  0  0  0  0  0  0
   57.0370   34.5850   45.6100 O   0  0  0  0  0  0  0  0  0  0  0  0
   59.2550   35.4560   45.0520 O   0  0  0  0  0  0  0  0  0  0  0  0
   60.5190   32.9200   46.4110 C   0  0  0  0  0  0  0  0  0  0  0  0
   61.0950   32.0840   47.3710 C   0  0  0  0  0  0  0  0  0  0  0  0
   58.5890   26.9790   47.1510 S   0  0  0  0  0  0  0  0  0  0  0  0
   57.3210   27.4880   46.1720 C   0  0  0  0  0  0  0  0  0  0  0  0
   56.2460   26.6360   45.7610 N   0  0  0  0  0  0  0  0  0  0  0  0
   55.9030   25.4370   46.4660 C   0  0  0  0  0  0  0  0  0  0  0  0
   56.5550   25.0890   47.4900 O   0  0  0  0  0  0  0  0  0  0  0  0
   54.7980   24.6490   46.0110 N   0  0  0  0  0  0  0  0  0  0  0  0
   54.6590   24.1690   44.6400 C   0  0  0  0  0  0  0  0  0  0  0  0
   55.7750   23.2140   44.3120 C   0  0  0  0  0  0  0  0  0  0  0  0
   56.5560   22.6470   45.3330 C   0  0  0  0  0  0  0  0  0  0  0  0
   57.5540   21.7180   45.0210 C   0  0  0  0  0  0  0  0  0  0  0  0
   57.7760   21.3470   43.6920 C   0  0  0  0  0  0  0  0  0  0  0  0
   57.0020   21.9060   42.6730 C   0  0  0  0  0  0  0  0  0  0  0  0
   56.0030   22.8360   42.9790 C   0  0  0  0  0  0  0  0  0  0  0  0
   54.4570   29.3410   45.5770 H   0  0  0  0  0  0  0  0  0  0  0  0
   59.5810   28.8901   49.6460 H   0  0  0  0  0  0  0  0  0  0  0  0
   61.3325   28.4642   49.5856 H   0  0  0  0  0  0  0  0  0  0  0  0
   60.5536   30.8826   50.3768 H   0  0  0  0  0  0  0  0  0  0  0  0
   62.0077   30.6714   49.3280 H   0  0  0  0  0  0  0  0  0  0  0  0
   58.2676   31.2004   49.0921 H   0  0  0  0  0  0  0  0  0  0  0  0
   57.2426   32.6995   47.3785 H   0  0  0  0  0  0  0  0  0  0  0  0
   57.6750   32.6150   43.7610 H   0  0  0  0  0  0  0  0  0  0  0  0
   61.1547   33.4097   45.6586 H   0  0  0  0  0  0  0  0  0  0  0  0
   62.1833   31.9240   47.3763 H   0  0  0  0  0  0  0  0  0  0  0  0
   55.5430   27.0250   45.0930 H   0  0  0  0  0  0  0  0  0  0  0  0
   53.6940   23.6524   44.5313 H   0  0  0  0  0  0  0  0  0  0  0  0
   54.7038   25.0259   43.9517 H   0  0  0  0  0  0  0  0  0  0  0  0
   56.3822   22.9344   46.3805 H   0  0  0  0  0  0  0  0  0  0  0  0
   58.1652   21.2786   45.8231 H   0  0  0  0  0  0  0  0  0  0  0  0
   58.5602   20.6149   43.4488 H   0  0  0  0  0  0  0  0  0  0  0  0
   57.1783   21.6143   41.6271 H   0  0  0  0  0  0  0  0  0  0  0  0
   55.3944   23.2724   42.1733 H   0  0  0  0  0  0  0  0  0  0  0  0
  1  2  1  0
  2  3  2  0
  2  4  1  0
  4  5  1  0
  5  6  1  0
  6  7  2  3
  7  8  1  0
  8  9  1  0
  9 10  1  0
 10 11  2  0
 11 12  1  0
 12 13  2  0
 13 14  1  0
 14 15  1  0
 14 16  2  0
 14 17  2  0
 13 18  1  0
 18 19  2  0
  6 20  1  0
 20 21  1  0
 21 22  1  0
 22 23  1  0
 23 24  2  0
 23 25  1  0
 25 26  1  0
 26 27  1  0
 27 28  2  0
 28 29  1  0
 29 30  2  0
 30 31  1  0
 31 32  2  0
 21  4  2  0
 32 27  1  0
 19 10  1  0
  1 33  1  0
  8 34  1  0
  8 35  1  0
  9 36  1  0
  9 37  1  0
 11 38  1  0
 12 39  1  0
 15 40  1  0
 18 41  1  0
 19 42  1  0
 22 43  1  0
 26 44  1  0
 26 45  1  0
 28 46  1  0
 29 47  1  0
 30 48  1  0
 31 49  1  0
 32 50  1  0
M  CHG  4   1  -1   5  -1  15  -1  25  -1
M  END
>  <UniqueID>  (84) 
78

>  <SMILES>  (84) 
[NH-]C(=O)c1[n-]c(=NCCc2ccc(S([NH-])(=O)=O)cc2)sc1NC(=O)[N-]Cc1ccccc1

>  <Energy>  (84) 
82.73727085752125

>  <Genealogy>  (84) 
[NH-]C(=O)c1[n-]c(=NCCc2ccc(S([NH-])(=O)=O)cc2)sc1NC(=O)[N-]Cc1ccccc1 (protonated)
[NH-]C(=O)c1[n-]c(=NCCc2ccc(S([NH-])(=O)=O)cc2)sc1NC(=O)[N-]Cc1ccccc1 (3D coordinates assigned)
[NH-]C(=O)c1[n-]c(=NCCc2ccc(S([NH-])(=O)=O)cc2)sc1NC(=O)[N-]Cc1ccccc1 (optimized conformer: 82.73727085752125 kcal/mol)

>  <smiles>  (84) 
NC(=O)c1[nH]c(=NCCc2ccc(S(N)(=O)=O)cc2)sc1NC(=O)NCc1ccccc1

>  <score_type>  (84) 
oracle

>  <origin>  (84) 
adg

>  <m_score__min__energy>  (84) 
-15.9

>  <m_primary>  (84) 
energy

$$$$
84:0
     RDKit          3D

 41 43  0  0  0  0  0  0  0  0999 V2000
   57.8743   32.9256   42.5776 H   0  0  0  0  0  0  0  0  0  0  0  0
   57.4610   32.0330   43.0700 C   0  0  0  0  0  0  0  0  0  0  0  0
   57.3680   31.9740   44.4650 C   0  0  0  0  0  0  0  0  0  0  0  0
   57.8250   33.1260   45.3020 C   0  0  0  0  0  0  0  0  0  0  0  0
   57.7230   32.8689   46.3667 H   0  0  0  0  0  0  0  0  0  0  0  0
   58.8789   33.3470   45.0775 H   0  0  0  0  0  0  0  0  0  0  0  0
   57.2092   34.0094   45.0775 H   0  0  0  0  0  0  0  0  0  0  0  0
   56.8530   30.8640   45.0600 N   0  0  0  0  0  0  0  0  0  0  0  0
   56.4180   29.7880   44.3500 C   0  0  0  0  0  0  0  0  0  0  0  0
   55.9450   28.7660   45.0030 N   0  0  0  0  0  0  0  0  0  0  0  0
   56.8560   27.4190   45.6190 S   0  0  0  0  0  0  0  0  0  0  0  0
   55.9310   26.5090   46.3760 O   0  0  0  0  0  0  0  0  0  0  0  0
   57.4530   26.6600   44.4680 O   0  0  0  0  0  0  0  0  0  0  0  0
   58.1140   27.9850   46.7140 C   0  0  0  0  0  0  0  0  0  0  0  0
   58.2500   29.3520   46.9910 C   0  0  0  0  0  0  0  0  0  0  0  0
   57.5716   30.0775   46.5183 H   0  0  0  0  0  0  0  0  0  0  0  0
   59.2450   29.7960   47.8660 C   0  0  0  0  0  0  0  0  0  0  0  0
   59.3376   30.8686   48.0916 H   0  0  0  0  0  0  0  0  0  0  0  0
   60.1280   28.8770   48.4590 C   0  0  0  0  0  0  0  0  0  0  0  0
   61.1530   29.2960   49.3730 N   0  0  0  0  0  0  0  0  0  0  0  0
   61.4740   30.6500   49.7210 C   0  0  0  0  0  0  0  0  0  0  0  0
   61.3790   30.9990   50.9280 O   0  0  0  0  0  0  0  0  0  0  0  0
   61.9600   31.6270   48.7180 C   0  0  0  0  0  0  0  0  0  0  0  0
   61.0880   32.5520   48.1230 C   0  0  0  0  0  0  0  0  0  0  0  0
   60.0240   32.5609   48.4018 H   0  0  0  0  0  0  0  0  0  0  0  0
   61.5670   33.4590   47.1800 C   0  0  0  0  0  0  0  0  0  0  0  0
   60.8872   34.1914   46.7201 H   0  0  0  0  0  0  0  0  0  0  0  0
   62.9180   33.4310   46.8230 C   0  0  0  0  0  0  0  0  0  0  0  0
   63.3610   34.2470   45.9720 O   0  0  0  0  0  0  0  0  0  0  0  0
   63.7530   32.5180   47.3940 N   0  0  0  0  0  0  0  0  0  0  0  0
   64.7620   32.5000   47.1200 H   0  0  0  0  0  0  0  0  0  0  0  0
   63.3060   31.6240   48.3180 C   0  0  0  0  0  0  0  0  0  0  0  0
   64.0039   30.8942   48.7543 H   0  0  0  0  0  0  0  0  0  0  0  0
   59.9770   27.5110   48.1940 C   0  0  0  0  0  0  0  0  0  0  0  0
   60.6455   26.7829   48.6767 H   0  0  0  0  0  0  0  0  0  0  0  0
   58.9810   27.0670   47.3190 C   0  0  0  0  0  0  0  0  0  0  0  0
   58.8782   25.9929   47.1052 H   0  0  0  0  0  0  0  0  0  0  0  0
   56.4990   29.8190   42.9430 C   0  0  0  0  0  0  0  0  0  0  0  0
   56.1517   28.9613   42.3482 H   0  0  0  0  0  0  0  0  0  0  0  0
   57.0240   30.9480   42.3110 C   0  0  0  0  0  0  0  0  0  0  0  0
   57.0929   30.9815   41.2137 H   0  0  0  0  0  0  0  0  0  0  0  0
  1  2  1  0
  2  3  2  0
  3  4  1  0
  4  5  1  0
  4  6  1  0
  4  7  1  0
  3  8  1  0
  8  9  1  0
  9 10  2  0
 10 11  1  0
 11 12  2  0
 11 13  2  0
 11 14  1  0
 14 15  2  0
 15 16  1  0
 15 17  1  0
 17 18  1  0
 17 19  2  0
 19 20  1  0
 20 21  1  0
 21 22  2  0
 21 23  1  0
 23 24  1  0
 24 25  1  0
 24 26  2  0
 26 27  1  0
 26 28  1  0
 28 29  2  0
 28 30  1  0
 30 31  1  0
 30 32  1  0
 32 33  1  0
 19 34  1  0
 34 35  1  0
 34 36  2  0
 36 37  1  0
  9 38  1  0
 38 39  1  0
 38 40  2  0
 40 41  1  0
 40  2  1  0
 36 14  1  0
 32 23  2  0
M  CHG  2   8  -1  20  -1
M  END
>  <UniqueID>  (85) 
79

>  <SMILES>  (85) 
Cc1ccc/c(=N\S(=O)(=O)c2ccc([N-]C(=O)c3ccc(=O)[nH]c3)cc2)[n-]1

>  <Energy>  (85) 
55.614666174537355

>  <Genealogy>  (85) 
Cc1cccc(=NS(=O)(=O)c2ccc([N-]C(=O)c3ccc(=O)[nH]c3)cc2)[n-]1 (protonated)
Cc1ccc/c(=N\S(=O)(=O)c2ccc([N-]C(=O)c3ccc(=O)[nH]c3)cc2)[n-]1 (cis-trans isomerization)
Cc1ccc/c(=N\S(=O)(=O)c2ccc([N-]C(=O)c3ccc(=O)[nH]c3)cc2)[n-]1 (3D coordinates assigned)
Cc1ccc/c(=N\S(=O)(=O)c2ccc([N-]C(=O)c3ccc(=O)[nH]c3)cc2)[n-]1 (optimized conformer: 55.614666174537355 kcal/mol)

>  <smiles>  (85) 
Cc1cccc(=NS(=O)(=O)c2ccc(NC(=O)c3ccc(=O)[nH]c3)cc2)[nH]1

>  <score_type>  (85) 
oracle

>  <origin>  (85) 
adg

>  <m_score__min__energy>  (85) 
-11.699999999999999

>  <m_primary>  (85) 
energy

$$$$
85:0
     RDKit          3D

 22 23  0  0  0  0  0  0  0  0999 V2000
   54.9850   29.5560   54.7220 O   0  0  0  0  0  0  0  0  0  0  0  0
   54.7870   29.6480   53.2340 S   0  0  0  0  0  0  0  0  0  0  0  0
   54.5800   28.2600   52.6950 O   0  0  0  0  0  0  0  0  0  0  0  0
   53.3800   30.6370   52.8640 C   0  0  0  0  0  0  0  0  0  0  0  0
   52.4020   30.8680   53.8430 C   0  0  0  0  0  0  0  0  0  0  0  0
   51.2930   31.6700   53.5520 C   0  0  0  0  0  0  0  0  0  0  0  0
   51.1600   32.2490   52.2860 C   0  0  0  0  0  0  0  0  0  0  0  0
   50.0580   33.0450   51.9980 O   0  0  0  0  0  0  0  0  0  0  0  0
   52.1360   32.0260   51.3100 C   0  0  0  0  0  0  0  0  0  0  0  0
   53.2450   31.2250   51.5990 C   0  0  0  0  0  0  0  0  0  0  0  0
   56.1890   30.3500   52.5050 N   0  0  0  0  0  0  0  0  0  0  0  0
   56.5790   31.6290   52.6340 C   0  0  0  0  0  0  0  0  0  0  0  0
   57.7290   31.8020   51.8950 C   0  0  0  0  0  0  0  0  0  0  0  0
   57.9790   30.5610   51.3370 C   0  0  0  0  0  0  0  0  0  0  0  0
   57.0250   29.6910   51.7220 N   0  0  0  0  0  0  0  0  0  0  0  0
   52.5072   30.4178   54.8411 H   0  0  0  0  0  0  0  0  0  0  0  0
   50.5250   31.8452   54.3198 H   0  0  0  0  0  0  0  0  0  0  0  0
   52.0313   32.4811   50.3140 H   0  0  0  0  0  0  0  0  0  0  0  0
   54.0141   31.0558   50.8309 H   0  0  0  0  0  0  0  0  0  0  0  0
   56.0692   32.4032   53.2263 H   0  0  0  0  0  0  0  0  0  0  0  0
   58.3181   32.7232   51.7752 H   0  0  0  0  0  0  0  0  0  0  0  0
   58.8274   30.3211   50.6792 H   0  0  0  0  0  0  0  0  0  0  0  0
  1  2  2  0
  2  3  2  0
  2  4  1  0
  4  5  2  0
  5  6  1  0
  6  7  2  0
  7  8  1  0
  7  9  1  0
  9 10  2  0
  2 11  1  0
 11 12  1  0
 12 13  2  0
 13 14  1  0
 14 15  2  0
 10  4  1  0
 15 11  1  0
  5 16  1  0
  6 17  1  0
  9 18  1  0
 10 19  1  0
 12 20  1  0
 13 21  1  0
 14 22  1  0
M  CHG  1   8  -1
M  END
>  <UniqueID>  (86) 
80

>  <SMILES>  (86) 
O=S(=O)(c1ccc([O-])cc1)n1cccn1

>  <Energy>  (86) 
54.02458760191962

>  <Genealogy>  (86) 
O=S(=O)(c1ccc([O-])cc1)n1cccn1 (protonated)
O=S(=O)(c1ccc([O-])cc1)n1cccn1 (3D coordinates assigned)
O=S(=O)(c1ccc([O-])cc1)n1cccn1 (optimized conformer: 54.02458760191962 kcal/mol)

>  <smiles>  (86) 
O=S(=O)(c1ccc(O)cc1)n1cccn1

>  <score_type>  (86) 
oracle

>  <origin>  (86) 
adg

>  <m_score__min__energy>  (86) 
-9.7300000000000004

>  <m_primary>  (86) 
energy

$$$$
86:0
     RDKit          3D

 44 46  0  0  0  0  0  0  0  0999 V2000
   66.2870   32.7030   50.0620 C   0  0  0  0  0  0  0  0  0  0  0  0
   64.8480   33.1050   49.9390 C   0  0  0  0  0  0  0  0  0  0  0  0
   64.1340   33.5200   51.0720 C   0  0  0  0  0  0  0  0  0  0  0  0
   62.7850   33.8680   50.9700 C   0  0  0  0  0  0  0  0  0  0  0  0
   62.1210   33.7810   49.7320 C   0  0  0  0  0  0  0  0  0  0  0  0
   60.7410   34.1590   49.5960 N   0  0  0  0  0  0  0  0  0  0  0  0
   59.9730   34.0120   48.3890 C   0  0  0  0  0  0  0  0  0  0  0  0
   58.9520   33.0550   48.3360 C   0  0  0  0  0  0  0  0  0  0  0  0
   58.1660   32.9180   47.1870 C   0  0  0  0  0  0  0  0  0  0  0  0
   58.3760   33.7510   46.0740 C   0  0  0  0  0  0  0  0  0  0  0  0
   57.5340   33.6150   44.8620 C   0  0  0  0  0  0  0  0  0  0  0  0
   56.6960   34.5130   44.5770 O   0  0  0  0  0  0  0  0  0  0  0  0
   57.6370   32.4420   44.0430 N   0  0  0  0  0  0  0  0  0  0  0  0
   57.4940   31.0820   44.4780 C   0  0  0  0  0  0  0  0  0  0  0  0
   56.2340   30.4780   44.3880 C   0  0  0  0  0  0  0  0  0  0  0  0
   56.0450   29.1620   44.8240 C   0  0  0  0  0  0  0  0  0  0  0  0
   57.1130   28.4410   45.3710 C   0  0  0  0  0  0  0  0  0  0  0  0
   56.8560   26.7900   45.9270 S   0  0  0  0  0  0  0  0  0  0  0  0
   55.1600   26.4590   45.9990 N   0  0  0  0  0  0  0  0  0  0  0  0
   57.5210   25.8320   44.9780 O   0  0  0  0  0  0  0  0  0  0  0  0
   57.4510   26.6060   47.2970 O   0  0  0  0  0  0  0  0  0  0  0  0
   58.3700   29.0520   45.4910 C   0  0  0  0  0  0  0  0  0  0  0  0
   58.5600   30.3650   45.0520 C   0  0  0  0  0  0  0  0  0  0  0  0
   59.3880   34.7260   46.1380 C   0  0  0  0  0  0  0  0  0  0  0  0
   60.1740   34.8600   47.2870 C   0  0  0  0  0  0  0  0  0  0  0  0
   62.8390   33.3730   48.5990 C   0  0  0  0  0  0  0  0  0  0  0  0
   64.1880   33.0230   48.7020 C   0  0  0  0  0  0  0  0  0  0  0  0
   66.5570   32.6276   51.1257 H   0  0  0  0  0  0  0  0  0  0  0  0
   66.4383   31.7282   49.5753 H   0  0  0  0  0  0  0  0  0  0  0  0
   66.9216   33.4583   49.5753 H   0  0  0  0  0  0  0  0  0  0  0  0
   64.6394   33.5719   52.0476 H   0  0  0  0  0  0  0  0  0  0  0  0
   62.2392   34.2115   51.8611 H   0  0  0  0  0  0  0  0  0  0  0  0
   60.2690   34.5870   50.4240 H   0  0  0  0  0  0  0  0  0  0  0  0
   58.7667   32.4060   49.2046 H   0  0  0  0  0  0  0  0  0  0  0  0
   57.3771   32.1522   47.1540 H   0  0  0  0  0  0  0  0  0  0  0  0
   55.3865   31.0422   43.9715 H   0  0  0  0  0  0  0  0  0  0  0  0
   55.0541   28.6925   44.7367 H   0  0  0  0  0  0  0  0  0  0  0  0
   54.7550   27.0920   46.7260 H   0  0  0  0  0  0  0  0  0  0  0  0
   59.2097   28.4952   45.9325 H   0  0  0  0  0  0  0  0  0  0  0  0
   59.5468   30.8399   45.1556 H   0  0  0  0  0  0  0  0  0  0  0  0
   59.5626   35.3884   45.2773 H   0  0  0  0  0  0  0  0  0  0  0  0
   60.9544   35.6341   47.3282 H   0  0  0  0  0  0  0  0  0  0  0  0
   62.3366   33.3280   47.6215 H   0  0  0  0  0  0  0  0  0  0  0  0
   64.7351   32.6819   47.8107 H   0  0  0  0  0  0  0  0  0  0  0  0
  1  2  1  0
  2  3  2  0
  3  4  1  0
  4  5  2  0
  5  6  1  0
  6  7  1  0
  7  8  2  0
  8  9  1  0
  9 10  2  0
 10 11  1  0
 11 12  2  0
 11 13  1  0
 13 14  1  0
 14 15  2  0
 15 16  1  0
 16 17  2  0
 17 18  1  0
 18 19  1  0
 18 20  2  0
 18 21  2  0
 17 22  1  0
 22 23  2  0
 10 24  1  0
 24 25  2  0
  5 26  1  0
 26 27  2  0
 27  2  1  0
 25  7  1  0
 23 14  1  0
  1 28  1  0
  1 29  1  0
  1 30  1  0
  3 31  1  0
  4 32  1  0
  6 33  1  0
  8 34  1  0
  9 35  1  0
 15 36  1  0
 16 37  1  0
 19 38  1  0
 22 39  1  0
 23 40  1  0
 24 41  1  0
 25 42  1  0
 26 43  1  0
 27 44  1  0
M  CHG  2  13  -1  19  -1
M  END
>  <UniqueID>  (87) 
81

>  <SMILES>  (87) 
Cc1ccc(Nc2ccc(C(=O)[N-]c3ccc(S([NH-])(=O)=O)cc3)cc2)cc1

>  <Energy>  (87) 
55.50192164268748

>  <Genealogy>  (87) 
Cc1ccc(Nc2ccc(C(=O)[N-]c3ccc(S([NH-])(=O)=O)cc3)cc2)cc1 (protonated)
Cc1ccc(Nc2ccc(C(=O)[N-]c3ccc(S([NH-])(=O)=O)cc3)cc2)cc1 (3D coordinates assigned)
Cc1ccc(Nc2ccc(C(=O)[N-]c3ccc(S([NH-])(=O)=O)cc3)cc2)cc1 (optimized conformer: 55.50192164268748 kcal/mol)

>  <smiles>  (87) 
Cc1ccc(Nc2ccc(C(=O)Nc3ccc(S(N)(=O)=O)cc3)cc2)cc1

>  <score_type>  (87) 
oracle

>  <origin>  (87) 
adg

>  <m_score__min__energy>  (87) 
-12.92

>  <m_primary>  (87) 
energy

$$$$
87:0
     RDKit          3D

 38 41  0  0  0  0  0  0  0  0999 V2000
   55.0020   26.6710   45.2180 H   0  0  0  0  0  0  0  0  0  0  0  0
   54.3950   25.9380   45.6470 N   0  0  0  0  0  0  0  0  0  0  0  0
   54.5850   24.6830   45.4010 C   0  0  0  0  0  0  0  0  0  0  0  0
   53.6240   23.7410   45.5170 N   0  0  0  0  0  0  0  0  0  0  0  0
   54.1870   22.5950   45.2380 O   0  0  0  0  0  0  0  0  0  0  0  0
   55.4560   22.7660   44.9530 C   0  0  0  0  0  0  0  0  0  0  0  0
   56.4020   21.7960   44.6380 C   0  0  0  0  0  0  0  0  0  0  0  0
   56.1261   20.7334   44.5697 H   0  0  0  0  0  0  0  0  0  0  0  0
   57.7220   22.2200   44.4100 C   0  0  0  0  0  0  0  0  0  0  0  0
   58.4983   21.4800   44.1657 H   0  0  0  0  0  0  0  0  0  0  0  0
   58.0600   23.5890   44.4920 C   0  0  0  0  0  0  0  0  0  0  0  0
   59.0991   23.9034   44.3147 H   0  0  0  0  0  0  0  0  0  0  0  0
   57.0800   24.5600   44.7990 C   0  0  0  0  0  0  0  0  0  0  0  0
   57.4400   25.9900   44.8730 C   0  0  0  0  0  0  0  0  0  0  0  0
   57.4530   26.6490   46.1120 C   0  0  0  0  0  0  0  0  0  0  0  0
   57.1909   26.0985   47.0276 H   0  0  0  0  0  0  0  0  0  0  0  0
   57.7970   28.0000   46.1880 C   0  0  0  0  0  0  0  0  0  0  0  0
   57.7887   28.5101   47.1625 H   0  0  0  0  0  0  0  0  0  0  0  0
   58.1530   28.7130   45.0340 C   0  0  0  0  0  0  0  0  0  0  0  0
   58.4940   30.1050   45.1460 N   0  0  0  0  0  0  0  0  0  0  0  0
   59.4740   30.3700   45.3910 H   0  0  0  0  0  0  0  0  0  0  0  0
   57.4100   31.3950   44.7330 S   0  0  0  0  0  0  0  0  0  0  0  0
   57.8960   32.0710   43.4830 O   0  0  0  0  0  0  0  0  0  0  0  0
   56.0360   30.8380   44.4870 O   0  0  0  0  0  0  0  0  0  0  0  0
   57.3350   32.5490   46.0240 N   0  0  0  0  0  0  0  0  0  0  0  0
   58.3910   33.4580   46.3410 C   0  0  0  0  0  0  0  0  0  0  0  0
   59.1260   33.3570   47.5130 C   0  0  0  0  0  0  0  0  0  0  0  0
   58.9150   32.1540   48.7700 Cl  0  0  0  0  0  0  0  0  0  0  0  0
   60.2760   34.5800   47.5330 S   0  0  0  0  0  0  0  0  0  0  0  0
   59.8510   35.2580   46.0540 C   0  0  0  0  0  0  0  0  0  0  0  0
   60.3265   36.1333   45.5873 H   0  0  0  0  0  0  0  0  0  0  0  0
   58.7970   34.5250   45.5210 C   0  0  0  0  0  0  0  0  0  0  0  0
   58.3274   34.7569   44.5537 H   0  0  0  0  0  0  0  0  0  0  0  0
   58.1510   28.0480   43.7940 C   0  0  0  0  0  0  0  0  0  0  0  0
   58.4227   28.5957   42.8796 H   0  0  0  0  0  0  0  0  0  0  0  0
   57.8060   26.6960   43.7170 C   0  0  0  0  0  0  0  0  0  0  0  0
   57.8215   26.1823   42.7445 H   0  0  0  0  0  0  0  0  0  0  0  0
   55.7750   24.0940   45.0280 C   0  0  0  0  0  0  0  0  0  0  0  0
  1  2  1  0
  2  3  2  0
  3  4  1  0
  4  5  1  0
  5  6  1  0
  6  7  2  0
  7  8  1  0
  7  9  1  0
  9 10  1  0
  9 11  2  0
 11 12  1  0
 11 13  1  0
 13 14  1  0
 14 15  2  0
 15 16  1  0
 15 17  1  0
 17 18  1  0
 17 19  2  0
 19 20  1  0
 20 21  1  0
 20 22  1  0
 22 23  2  0
 22 24  2  0
 22 25  1  0
 25 26  1  0
 26 27  2  0
 27 28  1  0
 27 29  1  0
 29 30  1  0
 30 31  1  0
 30 32  2  0
 32 33  1  0
 19 34  1  0
 34 35  1  0
 34 36  2  0
 36 37  1  0
 13 38  2  0
 38  3  1  0
 38  6  1  0
 36 14  1  0
 32 26  1  0
M  CHG  2   4  -1  25  -1
M  END
>  <UniqueID>  (88) 
82

>  <SMILES>  (88) 
[H]/N=c1\[n-]oc2cccc(-c3ccc(NS(=O)(=O)[N-]c4ccsc4Cl)cc3)c12

>  <Energy>  (88) 
119.5918582185105

>  <Genealogy>  (88) 
N=c1[n-]oc2cccc(-c3ccc(NS(=O)(=O)[N-]c4ccsc4Cl)cc3)c12 (protonated)
[H]/N=c1\[n-]oc2cccc(-c3ccc(NS(=O)(=O)[N-]c4ccsc4Cl)cc3)c12 (cis-trans isomerization)
[H]/N=c1\[n-]oc2cccc(-c3ccc(NS(=O)(=O)[N-]c4ccsc4Cl)cc3)c12 (3D coordinates assigned)
[H]/N=c1\[n-]oc2cccc(-c3ccc(NS(=O)(=O)[N-]c4ccsc4Cl)cc3)c12 (optimized conformer: 119.5918582185105 kcal/mol)

>  <smiles>  (88) 
N=c1[nH]oc2cccc(-c3ccc(NS(=O)(=O)Nc4ccsc4Cl)cc3)c12

>  <score_type>  (88) 
oracle

>  <origin>  (88) 
adg

>  <m_score__min__energy>  (88) 
-12.720000000000001

>  <m_primary>  (88) 
energy

$$$$
88:0
     RDKit          3D

 50 53  0  0  0  0  0  0  0  0999 V2000
   58.2450   27.7200   47.7410 C   0  0  0  0  0  0  0  0  0  0  0  0
   57.2240   27.6690   46.7490 O   0  0  0  0  0  0  0  0  0  0  0  0
   57.4170   27.2710   45.4170 C   0  0  0  0  0  0  0  0  0  0  0  0
   57.5450   25.9090   45.0720 C   0  0  0  0  0  0  0  0  0  0  0  0
   57.7390   25.5260   43.7440 C   0  0  0  0  0  0  0  0  0  0  0  0
   57.8070   26.4920   42.7420 C   0  0  0  0  0  0  0  0  0  0  0  0
   57.6820   27.8440   43.0630 C   0  0  0  0  0  0  0  0  0  0  0  0
   57.4860   28.2510   44.3970 C   0  0  0  0  0  0  0  0  0  0  0  0
   57.3560   29.7020   44.6960 C   0  0  0  0  0  0  0  0  0  0  0  0
   56.2260   30.4090   44.4930 N   0  0  0  0  0  0  0  0  0  0  0  0
   56.5120   31.6170   44.8690 O   0  0  0  0  0  0  0  0  0  0  0  0
   57.7520   31.6730   45.2890 C   0  0  0  0  0  0  0  0  0  0  0  0
   58.4300   32.8980   45.7840 C   0  0  0  0  0  0  0  0  0  0  0  0
   58.7310   33.9230   44.8670 C   0  0  0  0  0  0  0  0  0  0  0  0
   59.3280   35.1110   45.2920 C   0  0  0  0  0  0  0  0  0  0  0  0
   59.6370   35.2950   46.6380 C   0  0  0  0  0  0  0  0  0  0  0  0
   59.3570   34.2890   47.5630 C   0  0  0  0  0  0  0  0  0  0  0  0
   58.7570   33.0880   47.1530 C   0  0  0  0  0  0  0  0  0  0  0  0
   58.5330   32.0420   48.1680 C   0  0  0  0  0  0  0  0  0  0  0  0
   57.9710   32.3470   49.2530 O   0  0  0  0  0  0  0  0  0  0  0  0
   58.9320   30.6860   47.9480 N   0  0  0  0  0  0  0  0  0  0  0  0
   60.2170   30.3000   47.3740 C   0  0  0  0  0  0  0  0  0  0  0  0
   61.3240   30.4270   48.4210 C   0  0  0  0  0  0  0  0  0  0  0  0
   62.0360   31.7510   48.3080 C   0  0  0  0  0  0  0  0  0  0  0  0
   62.8350   32.0310   47.1870 C   0  0  0  0  0  0  0  0  0  0  0  0
   63.5220   33.2460   47.0970 C   0  0  0  0  0  0  0  0  0  0  0  0
   63.4190   34.1870   48.1260 C   0  0  0  0  0  0  0  0  0  0  0  0
   62.6340   33.9120   49.2480 C   0  0  0  0  0  0  0  0  0  0  0  0
   61.9470   32.6980   49.3430 C   0  0  0  0  0  0  0  0  0  0  0  0
   58.3470   30.4680   45.1980 N   0  0  0  0  0  0  0  0  0  0  0  0
   57.7865   27.6971   48.7406 H   0  0  0  0  0  0  0  0  0  0  0  0
   58.9133   26.8541   47.6242 H   0  0  0  0  0  0  0  0  0  0  0  0
   58.8237   28.6482   47.6242 H   0  0  0  0  0  0  0  0  0  0  0  0
   57.4913   25.1411   45.8577 H   0  0  0  0  0  0  0  0  0  0  0  0
   57.8383   24.4608   43.4881 H   0  0  0  0  0  0  0  0  0  0  0  0
   57.9595   26.1880   41.6959 H   0  0  0  0  0  0  0  0  0  0  0  0
   57.7371   28.6000   42.2658 H   0  0  0  0  0  0  0  0  0  0  0  0
   58.4926   33.7859   43.8019 H   0  0  0  0  0  0  0  0  0  0  0  0
   59.5548   35.9031   44.5632 H   0  0  0  0  0  0  0  0  0  0  0  0
   60.1022   36.2343   46.9716 H   0  0  0  0  0  0  0  0  0  0  0  0
   59.6087   34.4382   48.6234 H   0  0  0  0  0  0  0  0  0  0  0  0
   60.1618   29.2571   47.0286 H   0  0  0  0  0  0  0  0  0  0  0  0
   60.4458   30.9649   46.5281 H   0  0  0  0  0  0  0  0  0  0  0  0
   60.8799   30.3435   49.4239 H   0  0  0  0  0  0  0  0  0  0  0  0
   62.0560   29.6237   48.2513 H   0  0  0  0  0  0  0  0  0  0  0  0
   62.9207   31.2918   46.3769 H   0  0  0  0  0  0  0  0  0  0  0  0
   64.1440   33.4615   46.2157 H   0  0  0  0  0  0  0  0  0  0  0  0
   63.9563   35.1440   48.0519 H   0  0  0  0  0  0  0  0  0  0  0  0
   62.5561   34.6518   50.0583 H   0  0  0  0  0  0  0  0  0  0  0  0
   61.3345   32.4831   50.2311 H   0  0  0  0  0  0  0  0  0  0  0  0
  1  2  1  0
  2  3  1  0
  3  4  2  0
  4  5  1  0
  5  6  2  0
  6  7  1  0
  7  8  2  0
  8  9  1  0
  9 10  2  0
 10 11  1  0
 11 12  1  0
 12 13  1  0
 13 14  2  0
 14 15  1  0
 15 16  2  0
 16 17  1  0
 17 18  2  0
 18 19  1  0
 19 20  2  0
 19 21  1  0
 21 22  1  0
 22 23  1  0
 23 24  1  0
 24 25  2  0
 25 26  1  0
 26 27  2  0
 27 28  1  0
 28 29  2  0
 12 30  2  0
  8  3  1  0
 30  9  1  0
 18 13  1  0
 29 24  1  0
  1 31  1  0
  1 32  1  0
  1 33  1  0
  4 34  1  0
  5 35  1  0
  6 36  1  0
  7 37  1  0
 14 38  1  0
 15 39  1  0
 16 40  1  0
 17 41  1  0
 22 42  1  0
 22 43  1  0
 23 44  1  0
 23 45  1  0
 25 46  1  0
 26 47  1  0
 27 48  1  0
 28 49  1  0
 29 50  1  0
M  CHG  1  21  -1
M  END
>  <UniqueID>  (89) 
83

>  <SMILES>  (89) 
COc1ccccc1-c1noc(-c2ccccc2C(=O)[N-]CCc2ccccc2)n1

>  <Energy>  (89) 
93.78963845937166

>  <Genealogy>  (89) 
COc1ccccc1-c1noc(-c2ccccc2C(=O)[N-]CCc2ccccc2)n1 (protonated)
COc1ccccc1-c1noc(-c2ccccc2C(=O)[N-]CCc2ccccc2)n1 (3D coordinates assigned)
COc1ccccc1-c1noc(-c2ccccc2C(=O)[N-]CCc2ccccc2)n1 (optimized conformer: 93.78963845937166 kcal/mol)

>  <smiles>  (89) 
COc1ccccc1-c1noc(-c2ccccc2C(=O)NCCc2ccccc2)n1

>  <score_type>  (89) 
oracle

>  <origin>  (89) 
adg

>  <m_score__min__energy>  (89) 
-11.94

>  <m_primary>  (89) 
energy

$$$$
89:0
     RDKit          3D

 29 30  0  0  0  0  0  0  0  0999 V2000
   58.1300   26.0790   44.5490 C   0  0  0  0  0  0  0  0  0  0  0  0
   58.3990   27.5070   44.6960 N   0  0  0  0  0  0  0  0  0  0  0  0
   59.6070   28.0420   44.6280 N   0  0  0  0  0  0  0  0  0  0  0  0
   59.5130   29.3700   44.8290 C   0  0  0  0  0  0  0  0  0  0  0  0
   58.1820   29.6990   45.0290 C   0  0  0  0  0  0  0  0  0  0  0  0
   57.6460   31.0590   45.2020 C   0  0  0  0  0  0  0  0  0  0  0  0
   56.5060   31.3400   44.7400 O   0  0  0  0  0  0  0  0  0  0  0  0
   58.3780   32.0190   45.9070 O   0  0  0  0  0  0  0  0  0  0  0  0
   57.8460   33.2880   46.2910 C   0  0  1  0  0  0  0  0  0  0  0  0
   58.8770   34.0520   47.0650 C   0  0  0  0  0  0  0  0  0  0  0  0
   59.6090   34.8280   45.9880 C   0  0  0  0  0  0  0  0  0  0  0  0
   58.7780   34.9590   44.8570 O   0  0  0  0  0  0  0  0  0  0  0  0
   57.6290   34.1730   45.0740 C   0  0  0  0  0  0  0  0  0  0  0  0
   57.5020   28.4880   44.9370 C   0  0  0  0  0  0  0  0  0  0  0  0
   56.0980   28.2750   45.1400 N   0  0  0  0  0  0  0  0  0  0  0  0
   55.2780   29.1770   44.8700 O   0  0  0  0  0  0  0  0  0  0  0  0
   55.6500   27.1260   45.7480 O   0  0  0  0  0  0  0  0  0  0  0  0
   58.0431   25.6179   45.5439 H   0  0  0  0  0  0  0  0  0  0  0  0
   57.1895   25.9380   43.9962 H   0  0  0  0  0  0  0  0  0  0  0  0
   58.9548   25.6055   43.9962 H   0  0  0  0  0  0  0  0  0  0  0  0
   60.4890   27.5120   44.4470 H   0  0  0  0  0  0  0  0  0  0  0  0
   60.3550   30.0778   44.8337 H   0  0  0  0  0  0  0  0  0  0  0  0
   56.9203   33.0826   46.8486 H   0  0  0  0  0  0  0  0  0  0  0  0
   58.4039   34.7316   47.7891 H   0  0  0  0  0  0  0  0  0  0  0  0
   59.5398   33.4051   47.6584 H   0  0  0  0  0  0  0  0  0  0  0  0
   59.8703   35.8264   46.3687 H   0  0  0  0  0  0  0  0  0  0  0  0
   60.5272   34.2906   45.7084 H   0  0  0  0  0  0  0  0  0  0  0  0
   56.7629   34.8287   45.2466 H   0  0  0  0  0  0  0  0  0  0  0  0
   57.4412   33.5445   44.1910 H   0  0  0  0  0  0  0  0  0  0  0  0
  1  2  1  0
  2  3  1  0
  3  4  2  0
  4  5  1  0
  5  6  1  0
  6  7  2  0
  6  8  1  0
  8  9  1  0
  9 10  1  0
 10 11  1  0
 11 12  1  0
 12 13  1  0
  5 14  2  0
 14 15  1  0
 15 16  2  0
 15 17  1  0
 14  2  1  0
 13  9  1  0
  1 18  1  0
  1 19  1  0
  1 20  1  0
  3 21  1  0
  4 22  1  0
  9 23  1  1
 10 24  1  0
 10 25  1  0
 11 26  1  0
 11 27  1  0
 13 28  1  0
 13 29  1  0
M  CHG  3   3   1  15   1  17  -1
M  END
>  <UniqueID>  (90) 
84

>  <SMILES>  (90) 
Cn1[nH+]cc(C(=O)O[C@H]2CCOC2)c1[N+](=O)[O-]

>  <Energy>  (90) 
61.537543274006744

>  <Genealogy>  (90) 
Cn1[nH+]cc(C(=O)OC2CCOC2)c1[N+](=O)[O-] (protonated)
Cn1[nH+]cc(C(=O)O[C@H]2CCOC2)c1[N+](=O)[O-] (chirality)
Cn1[nH+]cc(C(=O)O[C@H]2CCOC2)c1[N+](=O)[O-] (3D coordinates assigned)
Cn1[nH+]cc(C(=O)O[C@H]2CCOC2)c1[N+](=O)[O-] (nonaromatic ring conformer: 61.537543274006744 kcal/mol)

>  <smiles>  (90) 
Cn1ncc(C(=O)OC2CCOC2)c1[N+](=O)[O-]

>  <score_type>  (90) 
oracle

>  <origin>  (90) 
adg

>  <m_score__min__energy>  (90) 
-5.9199999999999999

>  <m_primary>  (90) 
energy

$$$$
90:0
     RDKit          3D

 38 41  0  0  0  0  0  0  0  0999 V2000
   56.6610   34.2840   45.1560 O   0  0  0  0  0  0  0  0  0  0  0  0
   57.6790   33.4620   45.8940 S   0  0  0  0  0  0  0  0  0  0  0  0
   57.3140   33.4400   47.3520 O   0  0  0  0  0  0  0  0  0  0  0  0
   59.2450   34.1880   45.7140 N   0  0  0  0  0  0  0  0  0  0  0  0
   60.2870   34.0860   46.6990 C   0  0  0  0  0  0  0  0  0  0  0  0
   60.0410   34.3190   48.0640 C   0  0  0  0  0  0  0  0  0  0  0  0
   61.0730   34.2040   48.9980 C   0  0  0  0  0  0  0  0  0  0  0  0
   62.3730   33.8570   48.5930 C   0  0  0  0  0  0  0  0  0  0  0  0
   63.4580   33.7440   49.6020 C   0  0  0  0  0  0  0  0  0  0  0  0
   63.3480   34.3360   50.8900 C   0  0  0  0  0  0  0  0  0  0  0  0
   64.3980   34.2140   51.8160 C   0  0  0  0  0  0  0  0  0  0  0  0
   65.5160   33.5050   51.4060 C   0  0  0  0  0  0  0  0  0  0  0  0
   66.6400   33.2570   52.1030 N   0  0  0  0  0  0  0  0  0  0  0  0
   67.4260   32.5490   51.2900 N   0  0  0  0  0  0  0  0  0  0  0  0
   66.7680   32.3810   50.1180 C   0  0  0  0  0  0  0  0  0  0  0  0
   65.5740   32.9770   50.1880 N   0  0  0  0  0  0  0  0  0  0  0  0
   64.6040   33.0690   49.2820 N   0  0  0  0  0  0  0  0  0  0  0  0
   62.6220   33.6510   47.2230 C   0  0  0  0  0  0  0  0  0  0  0  0
   61.5890   33.7660   46.2890 C   0  0  0  0  0  0  0  0  0  0  0  0
   57.6860   31.8270   45.2180 C   0  0  0  0  0  0  0  0  0  0  0  0
   57.0230   31.5780   44.0060 C   0  0  0  0  0  0  0  0  0  0  0  0
   57.0000   30.2910   43.4630 C   0  0  0  0  0  0  0  0  0  0  0  0
   57.6390   29.2410   44.1250 C   0  0  0  0  0  0  0  0  0  0  0  0
   58.3050   29.4770   45.3300 C   0  0  0  0  0  0  0  0  0  0  0  0
   58.3350   30.7640   45.8820 C   0  0  0  0  0  0  0  0  0  0  0  0
   59.1960   30.9980   47.3990 Cl  0  0  0  0  0  0  0  0  0  0  0  0
   59.4670   34.6060   44.7820 H   0  0  0  0  0  0  0  0  0  0  0  0
   59.0295   34.5935   48.3980 H   0  0  0  0  0  0  0  0  0  0  0  0
   60.8658   34.3871   50.0627 H   0  0  0  0  0  0  0  0  0  0  0  0
   62.4383   34.8912   51.1625 H   0  0  0  0  0  0  0  0  0  0  0  0
   64.3354   34.6604   52.8194 H   0  0  0  0  0  0  0  0  0  0  0  0
   67.1564   31.8379   49.2438 H   0  0  0  0  0  0  0  0  0  0  0  0
   63.6376   33.3975   46.8850 H   0  0  0  0  0  0  0  0  0  0  0  0
   61.7994   33.6039   45.2216 H   0  0  0  0  0  0  0  0  0  0  0  0
   56.5181   32.4018   43.4802 H   0  0  0  0  0  0  0  0  0  0  0  0
   56.4779   30.1048   42.5129 H   0  0  0  0  0  0  0  0  0  0  0  0
   57.6180   28.2276   43.6976 H   0  0  0  0  0  0  0  0  0  0  0  0
   58.8086   28.6476   45.8482 H   0  0  0  0  0  0  0  0  0  0  0  0
  1  2  2  0
  2  3  2  0
  2  4  1  0
  4  5  1  0
  5  6  2  0
  6  7  1  0
  7  8  2  0
  8  9  1  0
  9 10  1  0
 10 11  2  0
 11 12  1  0
 12 13  2  0
 13 14  1  0
 14 15  2  0
 15 16  1  0
 16 17  1  0
  8 18  1  0
 18 19  2  0
  2 20  1  0
 20 21  2  0
 21 22  1  0
 22 23  2  0
 23 24  1  0
 24 25  2  0
 25 26  1  0
 19  5  1  0
 25 20  1  0
 17  9  2  0
 16 12  1  0
  4 27  1  0
  6 28  1  0
  7 29  1  0
 10 30  1  0
 11 31  1  0
 15 32  1  0
 18 33  1  0
 19 34  1  0
 21 35  1  0
 22 36  1  0
 23 37  1  0
 24 38  1  0
M  END
>  <UniqueID>  (91) 
85

>  <SMILES>  (91) 
O=S(=O)(Nc1ccc(-c2ccc3nncn3n2)cc1)c1ccccc1Cl

>  <Energy>  (91) 
93.81790625204158

>  <Genealogy>  (91) 
O=S(=O)(Nc1ccc(-c2ccc3nncn3n2)cc1)c1ccccc1Cl (3D coordinates assigned)
O=S(=O)(Nc1ccc(-c2ccc3nncn3n2)cc1)c1ccccc1Cl (optimized conformer: 93.81790625204158 kcal/mol)

>  <smiles>  (91) 
O=S(=O)(Nc1ccc(-c2ccc3nncn3n2)cc1)c1ccccc1Cl

>  <score_type>  (91) 
oracle

>  <origin>  (91) 
adg

>  <m_score__min__energy>  (91) 
-8.8900000000000006

>  <m_primary>  (91) 
energy

$$$$
91:0
     RDKit          3D

 26 26  0  0  1  0  0  0  0  0999 V2000
   59.9300   34.2080   47.1830 C   0  0  0  0  0  0  0  0  0  0  0  0
   59.5570   33.5740   46.0310 O   0  0  0  0  0  0  0  0  0  0  0  0
   58.9250   34.4220   45.1570 C   0  0  0  0  0  0  0  0  0  0  0  0
   57.5270   33.9820   44.9030 C   0  0  0  0  0  0  0  0  0  0  0  0
   57.1990   32.7670   45.6070 N   0  0  0  0  0  0  0  0  0  0  0  0
   57.3730   31.5910   45.1260 C   0  0  0  0  0  0  0  0  0  0  0  0
   56.3760   30.9410   44.4940 N   0  0  0  0  0  0  0  0  0  0  0  0
   56.4980   29.7070   43.9690 C   0  0  0  0  0  0  0  0  0  0  0  0
   57.7480   29.0970   44.1070 C   0  0  0  0  0  0  0  0  0  0  0  0
   57.9700   27.7650   43.5700 C   0  0  0  0  0  0  0  0  0  0  0  0
   58.1640   26.7020   43.1540 N   0  0  0  0  0  0  0  0  0  0  0  0
   58.7780   29.7530   44.7520 C   0  0  0  0  0  0  0  0  0  0  0  0
   60.0900   29.1010   44.8930 C   0  0  0  0  0  0  0  0  0  0  0  0
   58.5670   30.9820   45.2460 N   0  0  0  0  0  0  0  0  0  0  0  0
   59.5868   33.6247   48.0502 H   0  0  0  0  0  0  0  0  0  0  0  0
   61.0258   34.2993   47.2130 H   0  0  0  0  0  0  0  0  0  0  0  0
   59.4776   35.2102   47.2130 H   0  0  0  0  0  0  0  0  0  0  0  0
   58.9109   35.4350   45.5856 H   0  0  0  0  0  0  0  0  0  0  0  0
   59.4732   34.4142   44.2034 H   0  0  0  0  0  0  0  0  0  0  0  0
   56.8409   34.7769   45.2308 H   0  0  0  0  0  0  0  0  0  0  0  0
   57.4271   33.7840   43.8256 H   0  0  0  0  0  0  0  0  0  0  0  0
   55.6608   29.2070   43.4600 H   0  0  0  0  0  0  0  0  0  0  0  0
   60.3279   28.9828   45.9604 H   0  0  0  0  0  0  0  0  0  0  0  0
   60.0616   28.1122   44.4120 H   0  0  0  0  0  0  0  0  0  0  0  0
   60.8610   29.7208   44.4120 H   0  0  0  0  0  0  0  0  0  0  0  0
   59.3610   31.4430   45.7220 H   0  0  0  0  0  0  0  0  0  0  0  0
  1  2  1  0
  2  3  1  0
  3  4  1  0
  4  5  1  0
  5  6  2  0
  6  7  1  0
  7  8  2  0
  8  9  1  0
  9 10  1  0
 10 11  3  0
  9 12  2  0
 12 13  1  0
 12 14  1  0
 14  6  1  0
  1 15  1  0
  1 16  1  0
  1 17  1  0
  3 18  1  0
  3 19  1  0
  4 20  1  0
  4 21  1  0
  8 22  1  0
 13 23  1  0
 13 24  1  0
 13 25  1  0
 14 26  1  0
M  END
>  <smiles>  (92) 
COCCN=c1ncc(C#N)c(C)[nH]1

>  <score_type>  (92) 
oracle

>  <origin>  (92) 
adg

>  <m_score__min__energy>  (92) 
-4.5

>  <m_primary>  (92) 
energy

$$$$
