0:0
     RDKit          3D

 49 52  0  0  0  0  0  0  0  0999 V2000
   56.4180   28.6340   53.5730 C   0  0  0  0  0  0  0  0  0  0  0  0
   56.0190   29.7180   52.7410 O   0  0  0  0  0  0  0  0  0  0  0  0
   56.8980   30.6690   52.2020 C   0  0  0  0  0  0  0  0  0  0  0  0
   56.8950   32.0160   52.6080 C   0  0  0  0  0  0  0  0  0  0  0  0
   57.7890   32.9260   52.0390 C   0  0  0  0  0  0  0  0  0  0  0  0
   58.6930   32.5140   51.0460 C   0  0  0  0  0  0  0  0  0  0  0  0
   59.6610   33.5140   50.4350 C   0  0  0  0  0  0  0  0  0  0  0  0
   59.8730   33.3510   48.9710 N   0  0  0  0  0  0  0  0  0  0  0  0
   61.2580   32.8930   48.6720 C   0  0  0  0  0  0  0  0  0  0  0  0
   61.4750   32.3030   47.2500 C   0  0  0  0  0  0  0  0  0  0  0  0
   60.2070   32.0310   46.4720 C   0  0  0  0  0  0  0  0  0  0  0  0
   59.9080   30.7270   46.0340 C   0  0  0  0  0  0  0  0  0  0  0  0
   58.7230   30.5020   45.3320 C   0  0  0  0  0  0  0  0  0  0  0  0
   57.8500   31.5230   45.0670 C   0  0  0  0  0  0  0  0  0  0  0  0
   58.1130   32.8270   45.4890 C   0  0  0  0  0  0  0  0  0  0  0  0
   59.3050   33.0900   46.1910 C   0  0  0  0  0  0  0  0  0  0  0  0
   59.5970   34.4780   46.7000 C   0  0  0  0  0  0  0  0  0  0  0  0
   59.4880   34.5870   48.2360 C   0  0  0  0  0  0  0  0  0  0  0  0
   56.6560   31.0590   44.3250 C   0  0  0  0  0  0  0  0  0  0  0  0
   56.8990   29.5490   44.1320 C   0  0  0  0  0  0  0  0  0  0  0  0
   58.2430   29.2060   44.8040 C   0  0  0  0  0  0  0  0  0  0  0  0
   58.7060   31.1620   50.6540 C   0  0  0  0  0  0  0  0  0  0  0  0
   59.5880   30.7180   49.7230 F   0  0  0  0  0  0  0  0  0  0  0  0
   57.8100   30.2530   51.2270 C   0  0  0  0  0  0  0  0  0  0  0  0
   56.3114   28.9236   54.6288 H   0  0  0  0  0  0  0  0  0  0  0  0
   55.7826   27.7601   53.3665 H   0  0  0  0  0  0  0  0  0  0  0  0
   57.4683   28.3806   53.3665 H   0  0  0  0  0  0  0  0  0  0  0  0
   56.1852   32.3542   53.3773 H   0  0  0  0  0  0  0  0  0  0  0  0
   57.7851   33.9745   52.3715 H   0  0  0  0  0  0  0  0  0  0  0  0
   59.2690   34.5259   50.6150 H   0  0  0  0  0  0  0  0  0  0  0  0
   60.6357   33.3393   50.9140 H   0  0  0  0  0  0  0  0  0  0  0  0
   59.2050   32.5880   48.7080 H   0  0  0  0  0  0  0  0  0  0  0  0
   61.9324   33.7542   48.7882 H   0  0  0  0  0  0  0  0  0  0  0  0
   61.4630   32.0717   49.3745 H   0  0  0  0  0  0  0  0  0  0  0  0
   62.0830   33.0158   46.6736 H   0  0  0  0  0  0  0  0  0  0  0  0
   61.9641   31.3281   47.3924 H   0  0  0  0  0  0  0  0  0  0  0  0
   60.5989   29.8968   46.2422 H   0  0  0  0  0  0  0  0  0  0  0  0
   57.3999   33.6371   45.2764 H   0  0  0  0  0  0  0  0  0  0  0  0
   60.6183   34.7549   46.3996 H   0  0  0  0  0  0  0  0  0  0  0  0
   58.8464   35.1548   46.2658 H   0  0  0  0  0  0  0  0  0  0  0  0
   60.1445   35.4040   48.5700 H   0  0  0  0  0  0  0  0  0  0  0  0
   58.4269   34.7682   48.4625 H   0  0  0  0  0  0  0  0  0  0  0  0
   55.7402   31.2361   44.9081 H   0  0  0  0  0  0  0  0  0  0  0  0
   56.5175   31.5903   43.3718 H   0  0  0  0  0  0  0  0  0  0  0  0
   56.0869   28.9749   44.6020 H   0  0  0  0  0  0  0  0  0  0  0  0
   56.9249   29.2946   43.0621 H   0  0  0  0  0  0  0  0  0  0  0  0
   58.0985   28.4816   45.6191 H   0  0  0  0  0  0  0  0  0  0  0  0
   58.9575   28.7430   44.1075 H   0  0  0  0  0  0  0  0  0  0  0  0
   57.8231   29.2005   50.9073 H   0  0  0  0  0  0  0  0  0  0  0  0
  1  2  1  0
  2  3  1  0
  3  4  2  0
  4  5  1  0
  5  6  2  0
  6  7  1  0
  7  8  1  0
  8  9  1  0
  9 10  1  0
 10 11  1  0
 11 12  2  0
 12 13  1  0
 13 14  2  0
 14 15  1  0
 15 16  2  0
 16 17  1  0
 17 18  1  0
 14 19  1  0
 19 20  1  0
 20 21  1  0
  6 22  1  0
 22 23  1  0
 22 24  2  0
 24  3  1  0
 18  8  1  0
 16 11  1  0
 21 13  1  0
  1 25  1  0
  1 26  1  0
  1 27  1  0
  4 28  1  0
  5 29  1  0
  7 30  1  0
  7 31  1  0
  8 32  1  0
  9 33  1  0
  9 34  1  0
 10 35  1  0
 10 36  1  0
 12 37  1  0
 15 38  1  0
 17 39  1  0
 17 40  1  0
 18 41  1  0
 18 42  1  0
 19 43  1  0
 19 44  1  0
 20 45  1  0
 20 46  1  0
 21 47  1  0
 21 48  1  0
 24 49  1  0
M  CHG  1   8   1
M  END
>  <UniqueID>  (1) 
1

>  <SMILES>  (1) 
COc1ccc(C[NH+]2CCc3cc4c(cc3CC2)CCC4)c(F)c1

>  <Energy>  (1) 
74.75388650969175

>  <Genealogy>  (1) 
COc1ccc(C[NH+]2CCc3cc4c(cc3CC2)CCC4)c(F)c1 (protonated)
COc1ccc(C[NH+]2CCc3cc4c(cc3CC2)CCC4)c(F)c1 (3D coordinates assigned)
COc1ccc(C[NH+]2CCc3cc4c(cc3CC2)CCC4)c(F)c1 (nonaromatic ring conformer: 74.75388650969175 kcal/mol)

>  <smiles>  (1) 
COc1ccc(CN2CCc3cc4c(cc3CC2)CCC4)c(F)c1

>  <score_type>  (1) 
oracle

>  <origin>  (1) 
adg

>  <m_score__min__energy>  (1) 
-4.2800000000000002

>  <m_primary>  (1) 
energy

$$$$
1:0
     RDKit          3D

 26 27  0  0  0  0  0  0  0  0999 V2000
   61.5860   34.2090   49.2840 C   0  0  0  0  0  0  0  0  0  0  0  0
   60.6300   34.8990   48.5020 O   0  0  0  0  0  0  0  0  0  0  0  0
   59.9040   34.1780   47.5630 C   0  0  0  0  0  0  0  0  0  0  0  0
   59.9120   32.8030   47.6650 C   0  0  0  0  0  0  0  0  0  0  0  0
   59.2050   32.0400   46.7550 C   0  0  0  0  0  0  0  0  0  0  0  0
   58.4710   32.6030   45.7210 C   0  0  0  0  0  0  0  0  0  0  0  0
   57.7400   31.7630   44.7820 C   0  0  0  0  0  0  0  0  0  0  0  0
   57.0340   30.7210   45.2630 N   0  0  0  0  0  0  0  0  0  0  0  0
   56.3370   29.9090   44.4470 C   0  0  0  0  0  0  0  0  0  0  0  0
   55.6660   28.9090   44.9510 N   0  0  0  0  0  0  0  0  0  0  0  0
   56.3170   30.1090   43.0830 C   0  0  0  0  0  0  0  0  0  0  0  0
   57.0380   31.1740   42.5960 C   0  0  0  0  0  0  0  0  0  0  0  0
   57.7170   31.9550   43.4600 N   0  0  0  0  0  0  0  0  0  0  0  0
   58.4800   33.9760   45.6420 C   0  0  0  0  0  0  0  0  0  0  0  0
   59.1840   34.7710   46.5450 C   0  0  0  0  0  0  0  0  0  0  0  0
   61.3689   34.3657   50.3509 H   0  0  0  0  0  0  0  0  0  0  0  0
   61.5405   33.1342   49.0545 H   0  0  0  0  0  0  0  0  0  0  0  0
   62.5918   34.5907   49.0545 H   0  0  0  0  0  0  0  0  0  0  0  0
   60.4804   32.3139   48.4697 H   0  0  0  0  0  0  0  0  0  0  0  0
   59.2250   30.9447   46.8543 H   0  0  0  0  0  0  0  0  0  0  0  0
   54.7790   28.5880   44.4960 H   0  0  0  0  0  0  0  0  0  0  0  0
   55.7493   29.4459   42.4137 H   0  0  0  0  0  0  0  0  0  0  0  0
   57.0604   31.3856   41.5168 H   0  0  0  0  0  0  0  0  0  0  0  0
   58.2480   32.7470   43.0420 H   0  0  0  0  0  0  0  0  0  0  0  0
   57.9111   34.4644   44.8372 H   0  0  0  0  0  0  0  0  0  0  0  0
   59.1660   35.8665   46.4469 H   0  0  0  0  0  0  0  0  0  0  0  0
  1  2  1  0
  2  3  1  0
  3  4  2  0
  4  5  1  0
  5  6  2  0
  6  7  1  0
  7  8  2  0
  8  9  1  0
  9 10  2  3
  9 11  1  0
 11 12  2  0
 12 13  1  0
  6 14  1  0
 14 15  2  0
 15  3  1  0
 13  7  1  0
  1 16  1  0
  1 17  1  0
  1 18  1  0
  4 19  1  0
  5 20  1  0
 10 21  1  0
 11 22  1  0
 12 23  1  0
 13 24  1  0
 14 25  1  0
 15 26  1  0
M  END
>  <smiles>  (2) 
COc1ccc(-c2nc(=N)cc[nH]2)cc1

>  <score_type>  (2) 
oracle

>  <origin>  (2) 
adg

>  <m_score__min__energy>  (2) 
-6.1799999999999997

>  <m_primary>  (2) 
energy

$$$$
2:0
     RDKit          3D

 58 61  0  0  0  0  0  0  0  0999 V2000
   62.3480   24.7900   52.4870 C   0  0  0  0  0  0  0  0  0  0  0  0
   61.7050   25.6410   51.5430 O   0  0  0  0  0  0  0  0  0  0  0  0
   61.7820   27.0480   51.5640 C   0  0  0  0  0  0  0  0  0  0  0  0
   60.7980   27.8690   50.9670 C   0  0  0  0  0  0  0  0  0  0  0  0
   60.9100   29.2660   51.0350 C   0  0  0  0  0  0  0  0  0  0  0  0
   62.0160   29.8590   51.6670 C   0  0  0  0  0  0  0  0  0  0  0  0
   62.1100   31.2860   51.7590 N   0  0  0  0  0  0  0  0  0  0  0  0
   62.2800   32.1180   50.6020 C   0  0  0  0  0  0  0  0  0  0  0  0
   63.0810   33.5420   50.7540 S   0  0  0  0  0  0  0  0  0  0  0  0
   61.4790   31.8890   49.4280 N   0  0  0  0  0  0  0  0  0  0  0  0
   62.1060   31.2360   48.2750 C   0  0  0  0  0  0  0  0  0  0  0  0
   61.0570   30.4180   47.5280 C   0  0  0  0  0  0  0  0  0  0  0  0
   59.9000   31.2970   47.1380 C   0  0  0  0  0  0  0  0  0  0  0  0
   59.1370   30.9810   46.0060 C   0  0  0  0  0  0  0  0  0  0  0  0
   58.0540   31.7840   45.6110 C   0  0  0  0  0  0  0  0  0  0  0  0
   57.2820   31.4980   44.4680 O   0  0  0  0  0  0  0  0  0  0  0  0
   57.7170   31.7240   43.1260 C   0  0  0  0  0  0  0  0  0  0  0  0
   57.7250   32.9070   46.3730 C   0  0  0  0  0  0  0  0  0  0  0  0
   56.6310   33.6840   45.9700 O   0  0  0  0  0  0  0  0  0  0  0  0
   56.6580   34.6070   44.8830 C   0  0  0  0  0  0  0  0  0  0  0  0
   58.4850   33.2200   47.5150 C   0  0  0  0  0  0  0  0  0  0  0  0
   59.5520   32.4090   47.9200 C   0  0  0  0  0  0  0  0  0  0  0  0
   60.2860   32.7340   49.2150 C   0  0  1  0  0  0  0  0  0  0  0  0
   59.3290   32.6000   50.3850 C   0  0  0  0  0  0  0  0  0  0  0  0
   59.2990   33.5710   51.4050 C   0  0  0  0  0  0  0  0  0  0  0  0
   58.4380   33.4210   52.4970 C   0  0  0  0  0  0  0  0  0  0  0  0
   57.6020   32.3060   52.5820 C   0  0  0  0  0  0  0  0  0  0  0  0
   57.6190   31.3360   51.5740 C   0  0  0  0  0  0  0  0  0  0  0  0
   56.7860   30.2230   51.6820 O   0  0  0  0  0  0  0  0  0  0  0  0
   58.4790   31.4850   50.4740 C   0  0  0  0  0  0  0  0  0  0  0  0
   62.9710   29.0400   52.2870 C   0  0  0  0  0  0  0  0  0  0  0  0
   62.8570   27.6430   52.2260 C   0  0  0  0  0  0  0  0  0  0  0  0
   62.0992   25.1193   53.5066 H   0  0  0  0  0  0  0  0  0  0  0  0
   62.0041   23.7553   52.3417 H   0  0  0  0  0  0  0  0  0  0  0  0
   63.4373   24.8382   52.3417 H   0  0  0  0  0  0  0  0  0  0  0  0
   59.9427   27.4116   50.4481 H   0  0  0  0  0  0  0  0  0  0  0  0
   60.1282   29.9000   50.5914 H   0  0  0  0  0  0  0  0  0  0  0  0
   62.0860   31.7390   52.7150 H   0  0  0  0  0  0  0  0  0  0  0  0
   62.5241   31.9995   47.6025 H   0  0  0  0  0  0  0  0  0  0  0  0
   62.9133   30.5734   48.6203 H   0  0  0  0  0  0  0  0  0  0  0  0
   61.5085   29.9871   46.6222 H   0  0  0  0  0  0  0  0  0  0  0  0
   60.6935   29.6128   48.1833 H   0  0  0  0  0  0  0  0  0  0  0  0
   59.3906   30.0880   45.4159 H   0  0  0  0  0  0  0  0  0  0  0  0
   58.6931   32.2311   43.1374 H   0  0  0  0  0  0  0  0  0  0  0  0
   57.8105   30.7604   42.6037 H   0  0  0  0  0  0  0  0  0  0  0  0
   56.9823   32.3544   42.6037 H   0  0  0  0  0  0  0  0  0  0  0  0
   56.6881   35.6343   45.2750 H   0  0  0  0  0  0  0  0  0  0  0  0
   57.5511   34.4230   44.2678 H   0  0  0  0  0  0  0  0  0  0  0  0
   55.7556   34.4755   44.2678 H   0  0  0  0  0  0  0  0  0  0  0  0
   58.2365   34.1178   48.1000 H   0  0  0  0  0  0  0  0  0  0  0  0
   60.6476   33.7700   49.1376 H   0  0  0  0  0  0  0  0  0  0  0  0
   59.9557   34.4512   51.3424 H   0  0  0  0  0  0  0  0  0  0  0  0
   58.4195   34.1828   53.2903 H   0  0  0  0  0  0  0  0  0  0  0  0
   56.9283   32.1899   53.4437 H   0  0  0  0  0  0  0  0  0  0  0  0
   57.0070   29.3470   51.2160 H   0  0  0  0  0  0  0  0  0  0  0  0
   58.4872   30.7253   49.6785 H   0  0  0  0  0  0  0  0  0  0  0  0
   63.8152   29.4962   52.8248 H   0  0  0  0  0  0  0  0  0  0  0  0
   63.6208   27.0117   52.7036 H   0  0  0  0  0  0  0  0  0  0  0  0
  1  2  1  0
  2  3  1  0
  3  4  2  0
  4  5  1  0
  5  6  2  0
  6  7  1  0
  7  8  1  0
  8  9  2  0
  8 10  1  0
 10 11  1  0
 11 12  1  0
 12 13  1  0
 13 14  2  0
 14 15  1  0
 15 16  1  0
 16 17  1  0
 15 18  2  0
 18 19  1  0
 19 20  1  0
 18 21  1  0
 21 22  2  0
 22 23  1  0
 23 24  1  0
 24 25  2  0
 25 26  1  0
 26 27  2  0
 27 28  1  0
 28 29  1  0
 28 30  2  0
  6 31  1  0
 31 32  2  0
 32  3  1  0
 23 10  1  0
 30 24  1  0
 22 13  1  0
  1 33  1  0
  1 34  1  0
  1 35  1  0
  4 36  1  0
  5 37  1  0
  7 38  1  0
 11 39  1  0
 11 40  1  0
 12 41  1  0
 12 42  1  0
 14 43  1  0
 17 44  1  0
 17 45  1  0
 17 46  1  0
 20 47  1  0
 20 48  1  0
 20 49  1  0
 21 50  1  0
 23 51  1  6
 25 52  1  0
 26 53  1  0
 27 54  1  0
 29 55  1  0
 30 56  1  0
 31 57  1  0
 32 58  1  0
M  END
>  <UniqueID>  (3) 
2

>  <SMILES>  (3) 
COc1ccc(NC(=S)N2CCc3cc(OC)c(OC)cc3[C@H]2c2cccc(O)c2)cc1

>  <Energy>  (3) 
70.68509363102363

>  <Genealogy>  (3) 
COc1ccc(NC(=S)N2CCc3cc(OC)c(OC)cc3[C@H]2c2cccc(O)c2)cc1 (chirality)
COc1ccc(NC(=S)N2CCc3cc(OC)c(OC)cc3[C@H]2c2cccc(O)c2)cc1 (3D coordinates assigned)
COc1ccc(NC(=S)N2CCc3cc(OC)c(OC)cc3[C@H]2c2cccc(O)c2)cc1 (nonaromatic ring conformer: 70.68509363102363 kcal/mol)

>  <smiles>  (3) 
COc1ccc(NC(=S)N2CCc3cc(OC)c(OC)cc3C2c2cccc(O)c2)cc1

>  <score_type>  (3) 
oracle

>  <origin>  (3) 
adg

>  <m_score__min__energy>  (3) 
-6.8499999999999996

>  <m_primary>  (3) 
energy

$$$$
3:0
     RDKit          3D

 32 34  0  0  0  0  0  0  0  0999 V2000
   55.2750   29.9870   44.9590 O   0  0  0  0  0  0  0  0  0  0  0  0
   55.8960   29.6640   43.7450 C   0  0  0  0  0  0  0  0  0  0  0  0
   57.1580   28.8190   43.9910 C   0  0  1  0  0  0  0  0  0  0  0  0
   58.2700   29.6810   44.1300 O   0  0  0  0  0  0  0  0  0  0  0  0
   58.8270   29.4820   45.4140 C   0  0  1  0  0  0  0  0  0  0  0  0
   59.1090   30.7710   46.0470 N   0  0  0  0  0  0  0  0  0  0  0  0
   60.2410   31.0410   46.6940 N   0  0  0  0  0  0  0  0  0  0  0  0
   60.1660   32.3300   47.0790 C   0  0  0  0  0  0  0  0  0  0  0  0
   61.1140   33.0640   47.7870 C   0  0  0  0  0  0  0  0  0  0  0  0
   60.8200   34.4130   48.0700 C   0  0  0  0  0  0  0  0  0  0  0  0
   59.6000   34.9860   47.6400 C   0  0  0  0  0  0  0  0  0  0  0  0
   58.6620   34.2190   46.9230 C   0  0  0  0  0  0  0  0  0  0  0  0
   58.9860   32.8890   46.6670 C   0  0  0  0  0  0  0  0  0  0  0  0
   58.3330   31.8820   46.0050 C   0  0  0  0  0  0  0  0  0  0  0  0
   57.0910   31.9850   45.3810 O   0  0  0  0  0  0  0  0  0  0  0  0
   57.8600   28.6680   46.2620 C   0  0  0  0  0  0  0  0  0  0  0  0
   57.0950   27.9010   45.2190 C   0  0  1  0  0  0  0  0  0  0  0  0
   55.7920   27.5410   45.6150 O   0  0  0  0  0  0  0  0  0  0  0  0
   56.0060   30.0970   45.6220 H   0  0  0  0  0  0  0  0  0  0  0  0
   55.1939   29.0920   43.1206 H   0  0  0  0  0  0  0  0  0  0  0  0
   56.1860   30.5950   43.2360 H   0  0  0  0  0  0  0  0  0  0  0  0
   57.2464   28.1561   43.1176 H   0  0  0  0  0  0  0  0  0  0  0  0
   59.7744   28.9308   45.3218 H   0  0  0  0  0  0  0  0  0  0  0  0
   62.0595   32.6069   48.1141 H   0  0  0  0  0  0  0  0  0  0  0  0
   61.5438   35.0244   48.6289 H   0  0  0  0  0  0  0  0  0  0  0  0
   59.3824   36.0399   47.8678 H   0  0  0  0  0  0  0  0  0  0  0  0
   57.7115   34.6528   46.5789 H   0  0  0  0  0  0  0  0  0  0  0  0
   56.8490   31.4170   44.5800 H   0  0  0  0  0  0  0  0  0  0  0  0
   58.3978   27.9904   46.9415 H   0  0  0  0  0  0  0  0  0  0  0  0
   57.2228   29.2801   46.9173 H   0  0  0  0  0  0  0  0  0  0  0  0
   57.5305   26.9114   45.0165 H   0  0  0  0  0  0  0  0  0  0  0  0
   55.1460   27.8780   44.9420 H   0  0  0  0  0  0  0  0  0  0  0  0
  1  2  1  0
  2  3  1  0
  3  4  1  0
  4  5  1  0
  5  6  1  0
  6  7  1  0
  7  8  2  0
  8  9  1  0
  9 10  2  0
 10 11  1  0
 11 12  2  0
 12 13  1  0
 13 14  2  0
 14 15  1  0
  5 16  1  0
 16 17  1  0
 17 18  1  0
 17  3  1  0
 14  6  1  0
 13  8  1  0
  1 19  1  0
  2 20  1  0
  2 21  1  0
  3 22  1  6
  5 23  1  6
  9 24  1  0
 10 25  1  0
 11 26  1  0
 12 27  1  0
 15 28  1  0
 16 29  1  0
 16 30  1  0
 17 31  1  6
 18 32  1  0
M  END
>  <UniqueID>  (4) 
3

>  <SMILES>  (4) 
OC[C@H]1O[C@@H](n2nc3ccccc3c2O)CC1O

>  <Energy>  (4) 
75.60695102967948

>  <Genealogy>  (4) 
OC[C@H]1O[C@@H](n2nc3ccccc3c2O)CC1O (chirality)
OC[C@H]1O[C@@H](n2nc3ccccc3c2O)CC1O (3D coordinates assigned)
OC[C@H]1O[C@@H](n2nc3ccccc3c2O)CC1O (nonaromatic ring conformer: 75.60695102967948 kcal/mol)

>  <smiles>  (4) 
OCC1OC(n2nc3ccccc3c2O)CC1O

>  <score_type>  (4) 
oracle

>  <origin>  (4) 
adg

>  <m_score__min__energy>  (4) 
-6.75

>  <m_primary>  (4) 
energy

$$$$
4:0
     RDKit          3D

 41 42  0  0  0  0  0  0  0  0999 V2000
   59.6750   30.5170   48.1310 C   0  0  0  0  0  0  0  0  0  0  0  0
   58.9520   31.1490   47.0790 O   0  0  0  0  0  0  0  0  0  0  0  0
   58.2270   30.4660   46.0890 C   0  0  0  0  0  0  0  0  0  0  0  0
   58.1890   29.0590   46.0270 C   0  0  0  0  0  0  0  0  0  0  0  0
   57.4580   28.4100   45.0210 C   0  0  0  0  0  0  0  0  0  0  0  0
   57.4540   26.9060   44.9360 C   0  0  0  0  0  0  0  0  0  0  0  0
   56.6970   26.3010   46.1200 C   0  0  0  0  0  0  0  0  0  0  0  0
   55.2670   26.5650   45.9910 N   0  0  0  0  0  0  0  0  0  0  0  0
   56.7780   29.1730   44.0630 C   0  0  0  0  0  0  0  0  0  0  0  0
   56.8090   30.5670   44.1200 C   0  0  0  0  0  0  0  0  0  0  0  0
   57.5350   31.2230   45.1310 C   0  0  0  0  0  0  0  0  0  0  0  0
   57.6010   32.6230   45.2220 O   0  0  0  0  0  0  0  0  0  0  0  0
   58.4520   33.4690   44.4470 C   0  0  0  0  0  0  0  0  0  0  0  0
   58.8580   34.7220   45.2330 C   0  0  0  0  0  0  0  0  0  0  0  0
   59.7180   34.3660   46.4190 C   0  0  0  0  0  0  0  0  0  0  0  0
   60.9990   33.8190   46.2280 C   0  0  0  0  0  0  0  0  0  0  0  0
   61.7780   33.4500   47.3280 C   0  0  0  0  0  0  0  0  0  0  0  0
   61.2840   33.6170   48.6250 C   0  0  0  0  0  0  0  0  0  0  0  0
   60.0080   34.1520   48.8220 C   0  0  0  0  0  0  0  0  0  0  0  0
   59.2240   34.5210   47.7240 C   0  0  0  0  0  0  0  0  0  0  0  0
   59.2844   30.8584   49.1010 H   0  0  0  0  0  0  0  0  0  0  0  0
   59.5584   29.4260   48.0522 H   0  0  0  0  0  0  0  0  0  0  0  0
   60.7406   30.7785   48.0522 H   0  0  0  0  0  0  0  0  0  0  0  0
   58.7368   28.4648   46.7732 H   0  0  0  0  0  0  0  0  0  0  0  0
   56.9657   26.5983   43.9996 H   0  0  0  0  0  0  0  0  0  0  0  0
   58.4935   26.5470   44.9593 H   0  0  0  0  0  0  0  0  0  0  0  0
   56.8655   25.2142   46.1421 H   0  0  0  0  0  0  0  0  0  0  0  0
   57.0639   26.7565   47.0516 H   0  0  0  0  0  0  0  0  0  0  0  0
   55.1460   27.4680   45.4780 H   0  0  0  0  0  0  0  0  0  0  0  0
   54.8840   26.7150   46.9520 H   0  0  0  0  0  0  0  0  0  0  0  0
   56.2166   28.6706   43.2615 H   0  0  0  0  0  0  0  0  0  0  0  0
   56.2622   31.1568   43.3696 H   0  0  0  0  0  0  0  0  0  0  0  0
   59.3582   32.9098   44.1712 H   0  0  0  0  0  0  0  0  0  0  0  0
   57.9017   33.7859   43.5488 H   0  0  0  0  0  0  0  0  0  0  0  0
   59.4217   35.3947   44.5699 H   0  0  0  0  0  0  0  0  0  0  0  0
   57.9453   35.2145   45.5996 H   0  0  0  0  0  0  0  0  0  0  0  0
   61.3895   33.6810   45.2090 H   0  0  0  0  0  0  0  0  0  0  0  0
   62.7817   33.0274   47.1730 H   0  0  0  0  0  0  0  0  0  0  0  0
   61.8991   33.3276   49.4898 H   0  0  0  0  0  0  0  0  0  0  0  0
   59.6194   34.2832   49.8427 H   0  0  0  0  0  0  0  0  0  0  0  0
   58.2170   34.9340   47.8835 H   0  0  0  0  0  0  0  0  0  0  0  0
  1  2  1  0
  2  3  1  0
  3  4  2  0
  4  5  1  0
  5  6  1  0
  6  7  1  0
  7  8  1  0
  5  9  2  0
  9 10  1  0
 10 11  2  0
 11 12  1  0
 12 13  1  0
 13 14  1  0
 14 15  1  0
 15 16  2  0
 16 17  1  0
 17 18  2  0
 18 19  1  0
 19 20  2  0
 11  3  1  0
 20 15  1  0
  1 21  1  0
  1 22  1  0
  1 23  1  0
  4 24  1  0
  6 25  1  0
  6 26  1  0
  7 27  1  0
  7 28  1  0
  8 29  1  0
  8 30  1  0
  9 31  1  0
 10 32  1  0
 13 33  1  0
 13 34  1  0
 14 35  1  0
 14 36  1  0
 16 37  1  0
 17 38  1  0
 18 39  1  0
 19 40  1  0
 20 41  1  0
M  END
>  <UniqueID>  (5) 
4

>  <SMILES>  (5) 
COc1cc(CCN)ccc1OCCc1ccccc1

>  <Energy>  (5) 
33.308926484959926

>  <Genealogy>  (5) 
COc1cc(CCN)ccc1OCCc1ccccc1 (3D coordinates assigned)
COc1cc(CCN)ccc1OCCc1ccccc1 (optimized conformer: 33.308926484959926 kcal/mol)

>  <smiles>  (5) 
COc1cc(CCN)ccc1OCCc1ccccc1

>  <score_type>  (5) 
oracle

>  <origin>  (5) 
adg

>  <m_score__min__energy>  (5) 
-7.9199999999999999

>  <m_primary>  (5) 
energy

$$$$
5:0
     RDKit          3D

 48 50  0  0  0  0  0  0  0  0999 V2000
   55.5330   29.7170   43.3560 C   0  0  0  0  0  0  0  0  0  0  0  0
   55.6030   29.3330   44.7260 O   0  0  0  0  0  0  0  0  0  0  0  0
   56.7980   29.1720   45.4450 C   0  0  0  0  0  0  0  0  0  0  0  0
   57.7550   30.1980   45.5450 C   0  0  0  0  0  0  0  0  0  0  0  0
   58.9300   30.0030   46.2730 C   0  0  0  0  0  0  0  0  0  0  0  0
   59.1630   28.7830   46.9260 C   0  0  0  0  0  0  0  0  0  0  0  0
   60.3680   28.5340   47.6660 N   0  0  0  0  0  0  0  0  0  0  0  0
   60.4640   27.9220   48.9570 C   0  0  0  0  0  0  0  0  0  0  0  0
   60.3680   26.6700   49.0840 O   0  0  0  0  0  0  0  0  0  0  0  0
   60.7230   28.7910   50.1530 C   0  0  0  0  0  0  0  0  0  0  0  0
   60.0660   30.1010   50.0210 N   0  0  0  0  0  0  0  0  0  0  0  0
   58.7360   30.2910   50.5590 C   0  0  0  0  0  0  0  0  0  0  0  0
   58.1400   29.3370   51.1310 O   0  0  0  0  0  0  0  0  0  0  0  0
   58.0120   31.5990   50.4070 C   0  0  0  0  0  0  0  0  0  0  0  0
   59.1680   32.9700   50.6960 S   0  0  0  0  0  0  0  0  0  0  0  0
   60.1580   32.5160   49.2670 C   0  0  0  0  0  0  0  0  0  0  0  0
   60.4050   33.3750   48.2610 C   0  0  0  0  0  0  0  0  0  0  0  0
   59.4920   33.6100   47.1230 C   0  0  0  0  0  0  0  0  0  0  0  0
   58.1530   33.2040   47.2250 C   0  0  0  0  0  0  0  0  0  0  0  0
   57.2590   33.4490   46.1780 C   0  0  0  0  0  0  0  0  0  0  0  0
   57.6910   34.1200   45.0300 C   0  0  0  0  0  0  0  0  0  0  0  0
   59.0160   34.5550   44.9330 C   0  0  0  0  0  0  0  0  0  0  0  0
   59.9120   34.3110   45.9780 C   0  0  0  0  0  0  0  0  0  0  0  0
   60.7010   31.1430   49.2480 C   0  0  0  0  0  0  0  0  0  0  0  0
   61.7100   30.8760   48.5380 O   0  0  0  0  0  0  0  0  0  0  0  0
   58.2240   27.7520   46.8090 C   0  0  0  0  0  0  0  0  0  0  0  0
   57.0350   27.9410   46.0770 C   0  0  0  0  0  0  0  0  0  0  0  0
   56.0680   26.9310   45.9540 O   0  0  0  0  0  0  0  0  0  0  0  0
   56.3600   25.5420   45.8470 C   0  0  0  0  0  0  0  0  0  0  0  0
   55.3361   30.7971   43.2875 H   0  0  0  0  0  0  0  0  0  0  0  0
   56.4880   29.4863   42.8613 H   0  0  0  0  0  0  0  0  0  0  0  0
   54.7208   29.1642   42.8613 H   0  0  0  0  0  0  0  0  0  0  0  0
   57.5761   31.1616   45.0456 H   0  0  0  0  0  0  0  0  0  0  0  0
   59.6762   30.8088   46.3350 H   0  0  0  0  0  0  0  0  0  0  0  0
   60.3373   28.2867   51.0513 H   0  0  0  0  0  0  0  0  0  0  0  0
   61.8078   28.9556   50.2312 H   0  0  0  0  0  0  0  0  0  0  0  0
   57.6013   31.6744   49.3893 H   0  0  0  0  0  0  0  0  0  0  0  0
   57.1923   31.6509   51.1387 H   0  0  0  0  0  0  0  0  0  0  0  0
   61.3488   33.9395   48.2875 H   0  0  0  0  0  0  0  0  0  0  0  0
   57.8046   32.6903   48.1332 H   0  0  0  0  0  0  0  0  0  0  0  0
   56.2145   33.1134   46.2577 H   0  0  0  0  0  0  0  0  0  0  0  0
   56.9889   34.3055   44.2038 H   0  0  0  0  0  0  0  0  0  0  0  0
   59.3540   35.0900   44.0333 H   0  0  0  0  0  0  0  0  0  0  0  0
   60.9496   34.6686   45.9046 H   0  0  0  0  0  0  0  0  0  0  0  0
   58.4163   26.7835   47.2938 H   0  0  0  0  0  0  0  0  0  0  0  0
   56.4513   25.1079   46.8536 H   0  0  0  0  0  0  0  0  0  0  0  0
   55.5483   25.0376   45.3024 H   0  0  0  0  0  0  0  0  0  0  0  0
   57.3061   25.4071   45.3024 H   0  0  0  0  0  0  0  0  0  0  0  0
  1  2  1  0
  2  3  1  0
  3  4  2  0
  4  5  1  0
  5  6  2  0
  6  7  1  0
  7  8  1  0
  8  9  2  0
  8 10  1  0
 10 11  1  0
 11 12  1  0
 12 13  2  0
 12 14  1  0
 14 15  1  0
 15 16  1  0
 16 17  2  3
 17 18  1  0
 18 19  2  0
 19 20  1  0
 20 21  2  0
 21 22  1  0
 22 23  2  0
 16 24  1  0
 24 25  2  0
  6 26  1  0
 26 27  2  0
 27 28  1  0
 28 29  1  0
 27  3  1  0
 24 11  1  0
 23 18  1  0
  1 30  1  0
  1 31  1  0
  1 32  1  0
  4 33  1  0
  5 34  1  0
 10 35  1  0
 10 36  1  0
 14 37  1  0
 14 38  1  0
 17 39  1  0
 19 40  1  0
 20 41  1  0
 21 42  1  0
 22 43  1  0
 23 44  1  0
 26 45  1  0
 29 46  1  0
 29 47  1  0
 29 48  1  0
M  CHG  1   7  -1
M  END
>  <UniqueID>  (6) 
5

>  <SMILES>  (6) 
COc1ccc([N-]C(=O)CN2C(=O)CSC(=Cc3ccccc3)C2=O)cc1OC

>  <Energy>  (6) 
60.97854737785595

>  <Genealogy>  (6) 
COc1ccc([N-]C(=O)CN2C(=O)CSC(=Cc3ccccc3)C2=O)cc1OC (protonated)
COc1ccc([N-]C(=O)CN2C(=O)CSC(=Cc3ccccc3)C2=O)cc1OC (3D coordinates assigned)
COc1ccc([N-]C(=O)CN2C(=O)CSC(=Cc3ccccc3)C2=O)cc1OC (nonaromatic ring conformer: 60.97854737785595 kcal/mol)

>  <smiles>  (6) 
COc1ccc(NC(=O)CN2C(=O)CSC(=Cc3ccccc3)C2=O)cc1OC

>  <score_type>  (6) 
oracle

>  <origin>  (6) 
adg

>  <m_score__min__energy>  (6) 
-10.81

>  <m_primary>  (6) 
energy

$$$$
6:0
     RDKit          3D

 35 37  0  0  0  0  0  0  0  0999 V2000
   57.1330   31.8610   41.4930 C   0  0  0  0  0  0  0  0  0  0  0  0
   57.1970   31.4540   42.9310 C   0  0  0  0  0  0  0  0  0  0  0  0
   56.6650   30.2300   43.3450 C   0  0  0  0  0  0  0  0  0  0  0  0
   56.7460   29.8850   44.6970 C   0  0  0  0  0  0  0  0  0  0  0  0
   56.1850   28.6460   45.1610 N   0  0  0  0  0  0  0  0  0  0  0  0
   56.9690   27.5360   45.6310 C   0  0  0  0  0  0  0  0  0  0  0  0
   58.3750   27.5480   45.5580 C   0  0  0  0  0  0  0  0  0  0  0  0
   59.1130   26.4480   46.0070 C   0  0  0  0  0  0  0  0  0  0  0  0
   58.4560   25.3240   46.5150 C   0  0  0  0  0  0  0  0  0  0  0  0
   57.0600   25.2940   46.5680 C   0  0  0  0  0  0  0  0  0  0  0  0
   56.3190   26.3920   46.1200 C   0  0  0  0  0  0  0  0  0  0  0  0
   57.3170   30.7570   45.5730 N   0  0  0  0  0  0  0  0  0  0  0  0
   57.8320   31.9470   45.1620 C   0  0  0  0  0  0  0  0  0  0  0  0
   58.4600   32.8670   46.1440 C   0  0  0  0  0  0  0  0  0  0  0  0
   58.6400   32.4700   47.4830 C   0  0  0  0  0  0  0  0  0  0  0  0
   59.2340   33.3380   48.4050 C   0  0  0  0  0  0  0  0  0  0  0  0
   59.6530   34.6070   48.0040 C   0  0  0  0  0  0  0  0  0  0  0  0
   59.4800   35.0130   46.6800 C   0  0  0  0  0  0  0  0  0  0  0  0
   58.8880   34.1500   45.7530 C   0  0  0  0  0  0  0  0  0  0  0  0
   57.7660   32.2830   43.8450 N   0  0  0  0  0  0  0  0  0  0  0  0
   56.9624   32.9456   41.4262 H   0  0  0  0  0  0  0  0  0  0  0  0
   58.0820   31.6078   40.9977 H   0  0  0  0  0  0  0  0  0  0  0  0
   56.3075   31.3288   40.9977 H   0  0  0  0  0  0  0  0  0  0  0  0
   56.1915   29.5509   42.6207 H   0  0  0  0  0  0  0  0  0  0  0  0
   55.1440   28.5800   45.2470 H   0  0  0  0  0  0  0  0  0  0  0  0
   58.8949   28.4256   45.1464 H   0  0  0  0  0  0  0  0  0  0  0  0
   60.2118   26.4676   45.9602 H   0  0  0  0  0  0  0  0  0  0  0  0
   59.0383   24.4623   46.8734 H   0  0  0  0  0  0  0  0  0  0  0  0
   56.5437   24.4063   46.9623 H   0  0  0  0  0  0  0  0  0  0  0  0
   55.2199   26.3590   46.1510 H   0  0  0  0  0  0  0  0  0  0  0  0
   58.3114   31.4711   47.8059 H   0  0  0  0  0  0  0  0  0  0  0  0
   59.3712   33.0194   49.4489 H   0  0  0  0  0  0  0  0  0  0  0  0
   60.1197   35.2875   48.7314 H   0  0  0  0  0  0  0  0  0  0  0  0
   59.8101   36.0140   46.3652 H   0  0  0  0  0  0  0  0  0  0  0  0
   58.7557   34.4757   44.7107 H   0  0  0  0  0  0  0  0  0  0  0  0
  1  2  1  0
  2  3  2  0
  3  4  1  0
  4  5  1  0
  5  6  1  0
  6  7  2  0
  7  8  1  0
  8  9  2  0
  9 10  1  0
 10 11  2  0
  4 12  2  0
 12 13  1  0
 13 14  1  0
 14 15  2  0
 15 16  1  0
 16 17  2  0
 17 18  1  0
 18 19  2  0
 13 20  2  0
 20  2  1  0
 11  6  1  0
 19 14  1  0
  1 21  1  0
  1 22  1  0
  1 23  1  0
  3 24  1  0
  5 25  1  0
  7 26  1  0
  8 27  1  0
  9 28  1  0
 10 29  1  0
 11 30  1  0
 15 31  1  0
 16 32  1  0
 17 33  1  0
 18 34  1  0
 19 35  1  0
M  END
>  <UniqueID>  (7) 
6

>  <SMILES>  (7) 
Cc1cc(Nc2ccccc2)nc(-c2ccccc2)n1

>  <Energy>  (7) 
41.77975415156784

>  <Genealogy>  (7) 
Cc1cc(Nc2ccccc2)nc(-c2ccccc2)n1 (3D coordinates assigned)
Cc1cc(Nc2ccccc2)nc(-c2ccccc2)n1 (optimized conformer: 41.77975415156784 kcal/mol)

>  <smiles>  (7) 
Cc1cc(Nc2ccccc2)nc(-c2ccccc2)n1

>  <score_type>  (7) 
oracle

>  <origin>  (7) 
adg

>  <m_score__min__energy>  (7) 
-8.2799999999999994

>  <m_primary>  (7) 
energy

$$$$
7:0
     RDKit          3D

 25 26  0  0  0  0  0  0  0  0999 V2000
   57.4280   28.6010   43.6700 C   0  0  0  0  0  0  0  0  0  0  0  0
   56.9740   30.2630   44.1180 S   0  0  0  0  0  0  0  0  0  0  0  0
   55.5200   30.3120   44.4990 O   0  0  0  0  0  0  0  0  0  0  0  0
   57.1730   31.1600   42.9300 O   0  0  0  0  0  0  0  0  0  0  0  0
   57.9680   30.8030   45.4510 N   0  0  0  0  0  0  0  0  0  0  0  0
   58.5230   29.7910   46.3500 C   0  0  0  0  0  0  0  0  0  0  0  0
   60.0410   29.8780   46.3390 C   0  0  0  0  0  0  0  0  0  0  0  0
   60.5400   31.3750   47.2320 S   0  0  0  0  0  0  0  0  0  0  0  0
   59.5760   32.5430   46.2480 C   0  0  0  0  0  0  0  0  0  0  0  0
   60.0200   33.8710   46.2260 C   0  0  0  0  0  0  0  0  0  0  0  0
   59.2640   34.8650   45.6070 C   0  0  0  0  0  0  0  0  0  0  0  0
   59.6980   36.1490   45.6080 F   0  0  0  0  0  0  0  0  0  0  0  0
   58.0450   34.5420   45.0130 C   0  0  0  0  0  0  0  0  0  0  0  0
   57.5980   33.2200   45.0040 C   0  0  0  0  0  0  0  0  0  0  0  0
   58.3680   32.1900   45.5850 C   0  0  0  0  0  0  0  0  0  0  0  0
   57.5903   28.0069   44.5814 H   0  0  0  0  0  0  0  0  0  0  0  0
   56.6207   28.1479   43.0759 H   0  0  0  0  0  0  0  0  0  0  0  0
   58.3535   28.6212   43.0759 H   0  0  0  0  0  0  0  0  0  0  0  0
   58.1535   29.9660   47.3712 H   0  0  0  0  0  0  0  0  0  0  0  0
   58.2114   28.7915   46.0125 H   0  0  0  0  0  0  0  0  0  0  0  0
   60.4667   28.9923   46.8332 H   0  0  0  0  0  0  0  0  0  0  0  0
   60.4080   29.9182   45.3028 H   0  0  0  0  0  0  0  0  0  0  0  0
   60.9762   34.1326   46.7026 H   0  0  0  0  0  0  0  0  0  0  0  0
   57.4340   35.3310   44.5503 H   0  0  0  0  0  0  0  0  0  0  0  0
   56.6318   32.9774   44.5374 H   0  0  0  0  0  0  0  0  0  0  0  0
  1  2  1  0
  2  3  2  0
  2  4  2  0
  2  5  1  0
  5  6  1  0
  6  7  1  0
  7  8  1  0
  8  9  1  0
  9 10  2  0
 10 11  1  0
 11 12  1  0
 11 13  2  0
 13 14  1  0
 14 15  2  0
 15  5  1  0
 15  9  1  0
  1 16  1  0
  1 17  1  0
  1 18  1  0
  6 19  1  0
  6 20  1  0
  7 21  1  0
  7 22  1  0
 10 23  1  0
 13 24  1  0
 14 25  1  0
M  END
>  <UniqueID>  (8) 
7

>  <SMILES>  (8) 
CS(=O)(=O)N1CCSc2cc(F)ccc21

>  <Energy>  (8) 
31.781557999836252

>  <Genealogy>  (8) 
CS(=O)(=O)N1CCSc2cc(F)ccc21 (3D coordinates assigned)
CS(=O)(=O)N1CCSc2cc(F)ccc21 (nonaromatic ring conformer: 31.781557999836252 kcal/mol)

>  <smiles>  (8) 
CS(=O)(=O)N1CCSc2cc(F)ccc21

>  <score_type>  (8) 
oracle

>  <origin>  (8) 
adg

>  <m_score__min__energy>  (8) 
-6.3300000000000001

>  <m_primary>  (8) 
energy

$$$$
8:0
     RDKit          3D

 39 41  0  0  0  0  0  0  0  0999 V2000
   58.5304   34.8611   43.7791 H   0  0  0  0  0  0  0  0  0  0  0  0
   58.6370   34.1300   44.5940 C   0  0  0  0  0  0  0  0  0  0  0  0
   59.0670   34.5480   45.8550 C   0  0  0  0  0  0  0  0  0  0  0  0
   59.2963   35.6095   46.0302 H   0  0  0  0  0  0  0  0  0  0  0  0
   59.2080   33.6250   46.8970 C   0  0  0  0  0  0  0  0  0  0  0  0
   59.6970   34.2220   48.4780 Cl  0  0  0  0  0  0  0  0  0  0  0  0
   58.9120   32.2620   46.6760 C   0  0  0  0  0  0  0  0  0  0  0  0
   59.0620   31.2890   47.7260 N   0  0  0  0  0  0  0  0  0  0  0  0
   58.5650   31.3980   48.9450 N   0  0  0  0  0  0  0  0  0  0  0  0
   58.9220   30.3340   49.6530 N   0  0  0  0  0  0  0  0  0  0  0  0
   59.6570   29.5150   48.9110 N   0  0  0  0  0  0  0  0  0  0  0  0
   59.7380   30.1260   47.7150 C   0  0  0  0  0  0  0  0  0  0  0  0
   60.3530   29.6440   46.6760 N   0  0  0  0  0  0  0  0  0  0  0  0
   60.3810   28.2260   46.3240 C   0  0  0  0  0  0  0  0  0  0  0  0
   60.9266   27.6706   47.1011 H   0  0  0  0  0  0  0  0  0  0  0  0
   60.8835   28.1099   45.3524 H   0  0  0  0  0  0  0  0  0  0  0  0
   58.9810   27.6830   46.2170 C   0  0  0  0  0  0  0  0  0  0  0  0
   58.6770   26.3980   46.6850 C   0  0  0  0  0  0  0  0  0  0  0  0
   59.4702   25.7715   47.1190 H   0  0  0  0  0  0  0  0  0  0  0  0
   57.3720   25.9090   46.6030 C   0  0  0  0  0  0  0  0  0  0  0  0
   57.1439   24.8975   46.9701 H   0  0  0  0  0  0  0  0  0  0  0  0
   56.3460   26.7010   46.0540 C   0  0  0  0  0  0  0  0  0  0  0  0
   55.0230   26.2430   45.9560 O   0  0  0  0  0  0  0  0  0  0  0  0
   54.6530   24.9110   45.6140 C   0  0  0  0  0  0  0  0  0  0  0  0
   54.4911   24.3281   46.5327 H   0  0  0  0  0  0  0  0  0  0  0  0
   53.7257   24.9284   45.0226 H   0  0  0  0  0  0  0  0  0  0  0  0
   55.4564   24.4477   45.0226 H   0  0  0  0  0  0  0  0  0  0  0  0
   56.6420   27.9910   45.5870 C   0  0  0  0  0  0  0  0  0  0  0  0
   55.5990   28.7610   45.0480 O   0  0  0  0  0  0  0  0  0  0  0  0
   55.7550   29.7160   44.0040 C   0  0  0  0  0  0  0  0  0  0  0  0
   55.9178   30.7127   44.4401 H   0  0  0  0  0  0  0  0  0  0  0  0
   56.6203   29.4419   43.3826 H   0  0  0  0  0  0  0  0  0  0  0  0
   54.8475   29.7315   43.3826 H   0  0  0  0  0  0  0  0  0  0  0  0
   57.9620   28.4770   45.6710 C   0  0  0  0  0  0  0  0  0  0  0  0
   58.1952   29.4878   45.3052 H   0  0  0  0  0  0  0  0  0  0  0  0
   58.4790   31.8540   45.4020 C   0  0  0  0  0  0  0  0  0  0  0  0
   58.2461   30.7947   45.2184 H   0  0  0  0  0  0  0  0  0  0  0  0
   58.3420   32.7830   44.3670 C   0  0  0  0  0  0  0  0  0  0  0  0
   57.8060   32.2590   42.7810 Cl  0  0  0  0  0  0  0  0  0  0  0  0
  1  2  1  0
  2  3  2  0
  3  4  1  0
  3  5  1  0
  5  6  1  0
  5  7  2  0
  7  8  1  0
  8  9  1  0
  9 10  2  0
 10 11  1  0
 11 12  1  0
 12 13  2  0
 13 14  1  0
 14 15  1  0
 14 16  1  0
 14 17  1  0
 17 18  2  0
 18 19  1  0
 18 20  1  0
 20 21  1  0
 20 22  2  0
 22 23  1  0
 23 24  1  0
 24 25  1  0
 24 26  1  0
 24 27  1  0
 22 28  1  0
 28 29  1  0
 29 30  1  0
 30 31  1  0
 30 32  1  0
 30 33  1  0
 28 34  2  0
 34 35  1  0
  7 36  1  0
 36 37  1  0
 36 38  2  0
 38 39  1  0
 38  2  1  0
 12  8  1  0
 34 17  1  0
M  CHG  1  11  -1
M  END
>  <UniqueID>  (9) 
8

>  <SMILES>  (9) 
COc1ccc(C/N=c2\[n-]nnn2-c2cc(Cl)ccc2Cl)cc1OC

>  <Energy>  (9) 
86.50292616151114

>  <Genealogy>  (9) 
COc1ccc(CN=c2[n-]nnn2-c2cc(Cl)ccc2Cl)cc1OC (protonated)
COc1ccc(C/N=c2\[n-]nnn2-c2cc(Cl)ccc2Cl)cc1OC (cis-trans isomerization)
COc1ccc(C/N=c2\[n-]nnn2-c2cc(Cl)ccc2Cl)cc1OC (3D coordinates assigned)
COc1ccc(C/N=c2\[n-]nnn2-c2cc(Cl)ccc2Cl)cc1OC (optimized conformer: 86.50292616151114 kcal/mol)

>  <smiles>  (9) 
COc1ccc(CN=c2[nH]nnn2-c2cc(Cl)ccc2Cl)cc1OC

>  <score_type>  (9) 
oracle

>  <origin>  (9) 
adg

>  <m_score__min__energy>  (9) 
-9.6899999999999995

>  <m_primary>  (9) 
energy

$$$$
9:0
     RDKit          3D

 39 42  0  0  0  0  0  0  0  0999 V2000
   54.1374   30.0270   44.0875 H   0  0  0  0  0  0  0  0  0  0  0  0
   55.1800   29.8380   44.3830 C   0  0  0  0  0  0  0  0  0  0  0  0
   55.5330   28.6240   44.8740 N   0  0  0  0  0  0  0  0  0  0  0  0
   56.8090   28.3460   45.2490 C   0  0  0  0  0  0  0  0  0  0  0  0
   57.1240   27.0750   45.7420 C   0  0  0  0  0  0  0  0  0  0  0  0
   56.3385   26.3096   45.8267 H   0  0  0  0  0  0  0  0  0  0  0  0
   58.4330   26.7750   46.1270 C   0  0  0  0  0  0  0  0  0  0  0  0
   58.6762   25.7747   46.5147 H   0  0  0  0  0  0  0  0  0  0  0  0
   59.4330   27.7440   46.0200 C   0  0  0  0  0  0  0  0  0  0  0  0
   60.4626   27.5039   46.3237 H   0  0  0  0  0  0  0  0  0  0  0  0
   59.1320   29.0170   45.5290 C   0  0  0  0  0  0  0  0  0  0  0  0
   59.9264   29.7736   45.4484 H   0  0  0  0  0  0  0  0  0  0  0  0
   57.8160   29.3380   45.1360 C   0  0  0  0  0  0  0  0  0  0  0  0
   57.4670   30.6170   44.6430 C   0  0  0  0  0  0  0  0  0  0  0  0
   58.3930   31.5350   44.5250 N   0  0  0  0  0  0  0  0  0  0  0  0
   59.0310   32.2790   45.5730 C   0  0  0  0  0  0  0  0  0  0  0  0
   59.3460   31.6820   46.8050 C   0  0  0  0  0  0  0  0  0  0  0  0
   59.0622   30.6364   46.9950 H   0  0  0  0  0  0  0  0  0  0  0  0
   60.0180   32.4100   47.7900 C   0  0  0  0  0  0  0  0  0  0  0  0
   60.2326   31.9442   48.7631 H   0  0  0  0  0  0  0  0  0  0  0  0
   60.4200   33.7290   47.5460 C   0  0  0  0  0  0  0  0  0  0  0  0
   61.0780   34.4330   48.5650 O   0  0  0  0  0  0  0  0  0  0  0  0
   62.3060   34.0740   49.1400 C   0  0  0  0  0  0  0  0  0  0  0  0
   63.2600   33.4320   48.3420 C   0  0  0  0  0  0  0  0  0  0  0  0
   63.0320   33.2093   47.2892 H   0  0  0  0  0  0  0  0  0  0  0  0
   64.5020   33.0720   48.8760 C   0  0  0  0  0  0  0  0  0  0  0  0
   65.2424   32.5571   48.2462 H   0  0  0  0  0  0  0  0  0  0  0  0
   64.8030   33.3660   50.2090 C   0  0  0  0  0  0  0  0  0  0  0  0
   66.0080   33.0190   50.7250 F   0  0  0  0  0  0  0  0  0  0  0  0
   63.8640   34.0250   51.0070 C   0  0  0  0  0  0  0  0  0  0  0  0
   64.1024   34.2601   52.0548 H   0  0  0  0  0  0  0  0  0  0  0  0
   62.6220   34.3860   50.4760 C   0  0  0  0  0  0  0  0  0  0  0  0
   61.8899   34.9151   51.1037 H   0  0  0  0  0  0  0  0  0  0  0  0
   60.1170   34.3220   46.3070 C   0  0  0  0  0  0  0  0  0  0  0  0
   60.4110   35.3639   46.1119 H   0  0  0  0  0  0  0  0  0  0  0  0
   59.4440   33.5930   45.3230 C   0  0  0  0  0  0  0  0  0  0  0  0
   59.2375   34.0544   44.3461 H   0  0  0  0  0  0  0  0  0  0  0  0
   56.1330   30.8480   44.2510 C   0  0  0  0  0  0  0  0  0  0  0  0
   55.8429   31.8264   43.8403 H   0  0  0  0  0  0  0  0  0  0  0  0
  1  2  1  0
  2  3  1  0
  3  4  1  0
  4  5  2  0
  5  6  1  0
  5  7  1  0
  7  8  1  0
  7  9  2  0
  9 10  1  0
  9 11  1  0
 11 12  1  0
 11 13  2  0
 13 14  1  0
 14 15  2  0
 15 16  1  0
 16 17  2  0
 17 18  1  0
 17 19  1  0
 19 20  1  0
 19 21  2  0
 21 22  1  0
 22 23  1  0
 23 24  2  0
 24 25  1  0
 24 26  1  0
 26 27  1  0
 26 28  2  0
 28 29  1  0
 28 30  1  0
 30 31  1  0
 30 32  2  0
 32 33  1  0
 21 34  1  0
 34 35  1  0
 34 36  2  0
 36 37  1  0
 14 38  1  0
 38 39  1  0
 38  2  2  0
 13  4  1  0
 36 16  1  0
 32 23  1  0
M  CHG  1   3  -1
M  END
>  <UniqueID>  (10) 
9

>  <SMILES>  (10) 
Fc1ccc(Oc2ccc(/N=c3\cc[n-]c4ccccc34)cc2)cc1

>  <Energy>  (10) 
65.34944837927942

>  <Genealogy>  (10) 
Fc1ccc(Oc2ccc(N=c3cc[n-]c4ccccc34)cc2)cc1 (protonated)
Fc1ccc(Oc2ccc(/N=c3\cc[n-]c4ccccc34)cc2)cc1 (cis-trans isomerization)
Fc1ccc(Oc2ccc(/N=c3\cc[n-]c4ccccc34)cc2)cc1 (3D coordinates assigned)
Fc1ccc(Oc2ccc(/N=c3\cc[n-]c4ccccc34)cc2)cc1 (optimized conformer: 65.34944837927942 kcal/mol)

>  <smiles>  (10) 
Fc1ccc(Oc2ccc(N=c3cc[nH]c4ccccc34)cc2)cc1

>  <score_type>  (10) 
oracle

>  <origin>  (10) 
adg

>  <m_score__min__energy>  (10) 
-9.3800000000000008

>  <m_primary>  (10) 
energy

$$$$
10:0
     RDKit          3D

 39 42  0  0  0  0  0  0  0  0999 V2000
   60.7560   29.1210   47.0050 N   0  0  0  0  0  0  0  0  0  0  0  0
   59.9200   30.1900   46.5280 C   0  0  0  0  0  0  0  0  0  0  0  0
   58.7920   29.9160   45.7190 C   0  0  0  0  0  0  0  0  0  0  0  0
   58.3460   28.5390   45.4180 C   0  0  0  0  0  0  0  0  0  0  0  0
   57.7910   27.7460   46.4340 C   0  0  0  0  0  0  0  0  0  0  0  0
   57.4000   26.4300   46.1670 C   0  0  0  0  0  0  0  0  0  0  0  0
   57.5730   25.8930   44.8880 C   0  0  0  0  0  0  0  0  0  0  0  0
   58.1440   26.6690   43.8770 C   0  0  0  0  0  0  0  0  0  0  0  0
   58.5370   27.9850   44.1400 C   0  0  0  0  0  0  0  0  0  0  0  0
   58.0620   30.9420   45.2100 N   0  0  0  0  0  0  0  0  0  0  0  0
   58.3500   32.2430   45.4620 C   0  0  0  0  0  0  0  0  0  0  0  0
   57.5500   33.2460   44.9030 C   0  0  0  0  0  0  0  0  0  0  0  0
   57.8320   34.5900   45.1550 C   0  0  0  0  0  0  0  0  0  0  0  0
   58.9140   34.9380   45.9640 C   0  0  0  0  0  0  0  0  0  0  0  0
   59.7200   33.9440   46.5280 C   0  0  0  0  0  0  0  0  0  0  0  0
   59.4450   32.5800   46.2870 C   0  0  0  0  0  0  0  0  0  0  0  0
   60.2380   31.5380   46.8260 C   0  0  0  0  0  0  0  0  0  0  0  0
   61.4120   31.8490   47.6720 C   0  0  0  0  0  0  0  0  0  0  0  0
   61.4130   31.4990   49.0300 C   0  0  0  0  0  0  0  0  0  0  0  0
   62.5220   31.7940   49.8290 C   0  0  0  0  0  0  0  0  0  0  0  0
   63.6320   32.4390   49.2750 C   0  0  0  0  0  0  0  0  0  0  0  0
   63.6350   32.7900   47.9210 C   0  0  0  0  0  0  0  0  0  0  0  0
   62.5270   32.4970   47.1200 C   0  0  0  0  0  0  0  0  0  0  0  0
   60.9780   29.0140   48.0180 H   0  0  0  0  0  0  0  0  0  0  0  0
   61.1240   28.3820   46.3670 H   0  0  0  0  0  0  0  0  0  0  0  0
   57.6629   28.1611   47.4446 H   0  0  0  0  0  0  0  0  0  0  0  0
   56.9557   25.8166   46.9647 H   0  0  0  0  0  0  0  0  0  0  0  0
   57.2595   24.8597   44.6780 H   0  0  0  0  0  0  0  0  0  0  0  0
   58.2848   26.2443   42.8721 H   0  0  0  0  0  0  0  0  0  0  0  0
   58.9972   28.5889   43.3441 H   0  0  0  0  0  0  0  0  0  0  0  0
   56.6970   32.9749   44.2636 H   0  0  0  0  0  0  0  0  0  0  0  0
   57.2001   35.3756   44.7150 H   0  0  0  0  0  0  0  0  0  0  0  0
   59.1339   35.9980   46.1589 H   0  0  0  0  0  0  0  0  0  0  0  0
   60.5729   34.2262   47.1628 H   0  0  0  0  0  0  0  0  0  0  0  0
   60.5403   30.9918   49.4672 H   0  0  0  0  0  0  0  0  0  0  0  0
   62.5212   31.5185   50.8939 H   0  0  0  0  0  0  0  0  0  0  0  0
   64.5038   32.6706   49.9046 H   0  0  0  0  0  0  0  0  0  0  0  0
   64.5092   33.2967   47.4862 H   0  0  0  0  0  0  0  0  0  0  0  0
   62.5297   32.7750   46.0557 H   0  0  0  0  0  0  0  0  0  0  0  0
  1  2  1  0
  2  3  2  0
  3  4  1  0
  4  5  2  0
  5  6  1  0
  6  7  2  0
  7  8  1  0
  8  9  2  0
  3 10  1  0
 10 11  2  0
 11 12  1  0
 12 13  2  0
 13 14  1  0
 14 15  2  0
 15 16  1  0
 16 17  2  0
 17 18  1  0
 18 19  2  0
 19 20  1  0
 20 21  2  0
 21 22  1  0
 22 23  2  0
 17  2  1  0
 23 18  1  0
  9  4  1  0
 16 11  1  0
  1 24  1  0
  1 25  1  0
  5 26  1  0
  6 27  1  0
  7 28  1  0
  8 29  1  0
  9 30  1  0
 12 31  1  0
 13 32  1  0
 14 33  1  0
 15 34  1  0
 19 35  1  0
 20 36  1  0
 21 37  1  0
 22 38  1  0
 23 39  1  0
M  END
>  <UniqueID>  (11) 
10

>  <SMILES>  (11) 
Nc1c(-c2ccccc2)nc2ccccc2c1-c1ccccc1

>  <Energy>  (11) 
64.7148461462182

>  <Genealogy>  (11) 
Nc1c(-c2ccccc2)nc2ccccc2c1-c1ccccc1 (3D coordinates assigned)
Nc1c(-c2ccccc2)nc2ccccc2c1-c1ccccc1 (optimized conformer: 64.7148461462182 kcal/mol)

>  <smiles>  (11) 
Nc1c(-c2ccccc2)nc2ccccc2c1-c1ccccc1

>  <score_type>  (11) 
oracle

>  <origin>  (11) 
adg

>  <m_score__min__energy>  (11) 
-7.3600000000000003

>  <m_primary>  (11) 
energy

$$$$
11:0
     RDKit          3D

 49 52  0  0  1  0  0  0  0  0999 V2000
   60.1670   29.8060   45.5070 O   0  0  0  0  0  0  0  0  0  0  0  0
   59.1090   29.6550   46.1320 C   0  0  0  0  0  0  0  0  0  0  0  0
   58.7810   30.7100   47.0740 N   0  0  0  0  0  0  0  0  0  0  0  0
   59.6240   31.8200   47.2350 C   0  0  0  0  0  0  0  0  0  0  0  0
   59.0180   33.0800   47.1380 C   0  0  0  0  0  0  0  0  0  0  0  0
   59.7010   34.2500   47.2840 C   0  0  0  0  0  0  0  0  0  0  0  0
   61.0590   34.2040   47.5420 C   0  0  0  0  0  0  0  0  0  0  0  0
   61.6890   32.9830   47.6450 C   0  0  0  0  0  0  0  0  0  0  0  0
   60.9540   31.8090   47.4890 C   0  0  0  0  0  0  0  0  0  0  0  0
   58.1580   28.5810   46.0470 C   0  0  0  0  0  0  0  0  0  0  0  0
   58.6250   27.3310   46.4970 C   0  0  0  0  0  0  0  0  0  0  0  0
   57.8810   26.2380   46.4940 N   0  0  0  0  0  0  0  0  0  0  0  0
   56.6260   26.2890   46.0510 C   0  0  0  0  0  0  0  0  0  0  0  0
   55.8570   25.2550   46.0130 N   0  0  0  0  0  0  0  0  0  0  0  0
   56.2810   24.0850   45.3280 C   0  0  0  0  0  0  0  0  0  0  0  0
   55.6910   23.7320   44.1140 C   0  0  0  0  0  0  0  0  0  0  0  0
   56.0710   22.6020   43.4140 C   0  0  0  0  0  0  0  0  0  0  0  0
   57.0790   21.8140   43.9700 C   0  0  0  0  0  0  0  0  0  0  0  0
   57.6640   22.1620   45.1720 C   0  0  0  0  0  0  0  0  0  0  0  0
   58.6670   21.3530   45.6980 O   0  0  0  0  0  0  0  0  0  0  0  0
   57.2730   23.2910   45.8560 C   0  0  0  0  0  0  0  0  0  0  0  0
   56.1560   27.4600   45.6180 N   0  0  0  0  0  0  0  0  0  0  0  0
   56.8800   28.6110   45.6000 C   0  0  0  0  0  0  0  0  0  0  0  0
   56.3540   29.6310   45.1530 N   0  0  0  0  0  0  0  0  0  0  0  0
   56.8030   30.4780   44.1450 C   0  0  0  0  0  0  0  0  0  0  0  0
   57.4200   31.6750   44.5730 C   0  0  0  0  0  0  0  0  0  0  0  0
   57.8410   32.6230   43.6630 C   0  0  0  0  0  0  0  0  0  0  0  0
   57.6470   32.3830   42.3260 C   0  0  0  0  0  0  0  0  0  0  0  0
   57.0460   31.2150   41.9160 C   0  0  0  0  0  0  0  0  0  0  0  0
   56.6080   30.2350   42.7860 C   0  0  0  0  0  0  0  0  0  0  0  0
   57.9040   30.6400   47.6370 H   0  0  0  0  0  0  0  0  0  0  0  0
   57.9381   33.1267   46.9340 H   0  0  0  0  0  0  0  0  0  0  0  0
   59.1808   35.2154   47.1981 H   0  0  0  0  0  0  0  0  0  0  0  0
   61.6318   35.1352   47.6640 H   0  0  0  0  0  0  0  0  0  0  0  0
   62.7687   32.9348   47.8497 H   0  0  0  0  0  0  0  0  0  0  0  0
   61.4713   30.8420   47.5750 H   0  0  0  0  0  0  0  0  0  0  0  0
   59.6579   27.2606   46.8687 H   0  0  0  0  0  0  0  0  0  0  0  0
   58.2700   25.3320   46.8380 H   0  0  0  0  0  0  0  0  0  0  0  0
   54.8984   24.3731   43.7007 H   0  0  0  0  0  0  0  0  0  0  0  0
   55.5978   22.3351   42.4575 H   0  0  0  0  0  0  0  0  0  0  0  0
   57.4115   20.9059   43.4457 H   0  0  0  0  0  0  0  0  0  0  0  0
   58.8060   20.4560   45.2510 H   0  0  0  0  0  0  0  0  0  0  0  0
   57.7477   23.5550   46.8126 H   0  0  0  0  0  0  0  0  0  0  0  0
   55.1520   27.4830   45.2680 H   0  0  0  0  0  0  0  0  0  0  0  0
   57.5670   31.8539   45.6484 H   0  0  0  0  0  0  0  0  0  0  0  0
   58.3223   33.5521   44.0024 H   0  0  0  0  0  0  0  0  0  0  0  0
   57.9721   33.1247   41.5815 H   0  0  0  0  0  0  0  0  0  0  0  0
   56.9067   31.0527   40.8370 H   0  0  0  0  0  0  0  0  0  0  0  0
   56.1307   29.3119   42.4255 H   0  0  0  0  0  0  0  0  0  0  0  0
  1  2  2  0
  2  3  1  0
  3  4  1  0
  4  5  2  0
  5  6  1  0
  6  7  2  0
  7  8  1  0
  8  9  2  0
  2 10  1  0
 10 11  2  0
 11 12  1  0
 12 13  1  0
 13 14  2  0
 14 15  1  0
 15 16  2  0
 16 17  1  0
 17 18  2  0
 18 19  1  0
 19 20  1  0
 19 21  2  0
 13 22  1  0
 22 23  1  0
 23 24  2  0
 24 25  1  0
 25 26  2  0
 26 27  1  0
 27 28  2  0
 28 29  1  0
 29 30  2  0
  9  4  1  0
 23 10  1  0
 30 25  1  0
 21 15  1  0
  3 31  1  0
  5 32  1  0
  6 33  1  0
  7 34  1  0
  8 35  1  0
  9 36  1  0
 11 37  1  0
 12 38  1  0
 16 39  1  0
 17 40  1  0
 18 41  1  0
 20 42  1  0
 21 43  1  0
 22 44  1  0
 26 45  1  0
 27 46  1  0
 28 47  1  0
 29 48  1  0
 30 49  1  0
M  END
>  <smiles>  (12) 
O=C(Nc1ccccc1)c1c[nH]c(=Nc2cccc(O)c2)[nH]c1=Nc1ccccc1

>  <score_type>  (12) 
oracle

>  <origin>  (12) 
adg

>  <m_score__min__energy>  (12) 
-10.1

>  <m_primary>  (12) 
energy

$$$$
12:0
     RDKit          3D

 40 42  0  0  0  0  0  0  0  0999 V2000
   57.5123   28.2382   42.8244 H   0  0  0  0  0  0  0  0  0  0  0  0
   57.3920   28.7010   43.8150 C   0  0  0  0  0  0  0  0  0  0  0  0
   56.8720   29.8940   43.8780 N   0  0  0  0  0  0  0  0  0  0  0  0
   57.5430   31.0460   44.3450 N   0  0  0  0  0  0  0  0  0  0  0  0
   57.8130   32.0650   43.4570 C   0  0  0  0  0  0  0  0  0  0  0  0
   57.4010   31.9480   42.0150 C   0  0  0  0  0  0  0  0  0  0  0  0
   56.3442   31.6479   41.9588 H   0  0  0  0  0  0  0  0  0  0  0  0
   57.5334   32.9193   41.5159 H   0  0  0  0  0  0  0  0  0  0  0  0
   58.0241   31.1913   41.5159 H   0  0  0  0  0  0  0  0  0  0  0  0
   58.4760   33.1840   43.8780 N   0  0  0  0  0  0  0  0  0  0  0  0
   58.7060   33.9560   43.2120 H   0  0  0  0  0  0  0  0  0  0  0  0
   58.8370   33.2910   45.1760 C   0  0  0  0  0  0  0  0  0  0  0  0
   59.6500   34.5740   45.8860 S   0  0  0  0  0  0  0  0  0  0  0  0
   59.6410   33.8980   47.4370 C   0  0  0  0  0  0  0  0  0  0  0  0
   60.2450   34.5570   48.6350 C   0  0  0  0  0  0  0  0  0  0  0  0
   59.8315   34.1059   49.5491 H   0  0  0  0  0  0  0  0  0  0  0  0
   61.3361   34.4182   48.6188 H   0  0  0  0  0  0  0  0  0  0  0  0
   60.0119   35.6319   48.6188 H   0  0  0  0  0  0  0  0  0  0  0  0
   58.9950   32.6500   47.4060 C   0  0  0  0  0  0  0  0  0  0  0  0
   58.8160   31.7680   48.6110 C   0  0  0  0  0  0  0  0  0  0  0  0
   58.9376   32.3673   49.5254 H   0  0  0  0  0  0  0  0  0  0  0  0
   57.8095   31.3244   48.5945 H   0  0  0  0  0  0  0  0  0  0  0  0
   59.5699   30.9672   48.5945 H   0  0  0  0  0  0  0  0  0  0  0  0
   58.5410   32.3220   46.1100 C   0  0  0  0  0  0  0  0  0  0  0  0
   57.8470   31.1850   45.6800 C   0  0  0  0  0  0  0  0  0  0  0  0
   57.4830   30.3090   46.5110 O   0  0  0  0  0  0  0  0  0  0  0  0
   57.8310   27.9320   45.0060 C   0  0  0  0  0  0  0  0  0  0  0  0
   56.8830   27.3100   45.8450 C   0  0  0  0  0  0  0  0  0  0  0  0
   55.5200   27.4430   45.6020 O   0  0  0  0  0  0  0  0  0  0  0  0
   57.3020   26.5700   46.9530 C   0  0  0  0  0  0  0  0  0  0  0  0
   56.5583   26.0670   47.5885 H   0  0  0  0  0  0  0  0  0  0  0  0
   58.6580   26.4660   47.2570 C   0  0  0  0  0  0  0  0  0  0  0  0
   58.9816   25.8782   48.1286 H   0  0  0  0  0  0  0  0  0  0  0  0
   59.6060   27.1060   46.4580 C   0  0  0  0  0  0  0  0  0  0  0  0
   60.6737   27.0313   46.7117 H   0  0  0  0  0  0  0  0  0  0  0  0
   59.2070   27.8450   45.3320 C   0  0  0  0  0  0  0  0  0  0  0  0
   60.2540   28.5270   44.4900 C   0  0  0  0  0  0  0  0  0  0  0  0
   60.9944   29.0093   45.1452 H   0  0  0  0  0  0  0  0  0  0  0  0
   60.7562   27.7822   43.8551 H   0  0  0  0  0  0  0  0  0  0  0  0
   59.7758   29.2874   43.8551 H   0  0  0  0  0  0  0  0  0  0  0  0
  1  2  1  0
  2  3  2  0
  3  4  1  0
  4  5  1  0
  5  6  1  0
  6  7  1  0
  6  8  1  0
  6  9  1  0
  5 10  2  0
 10 11  1  0
 10 12  1  0
 12 13  1  0
 13 14  1  0
 14 15  1  0
 15 16  1  0
 15 17  1  0
 15 18  1  0
 14 19  2  0
 19 20  1  0
 20 21  1  0
 20 22  1  0
 20 23  1  0
 19 24  1  0
 24 25  1  0
 25 26  2  0
  2 27  1  0
 27 28  2  0
 28 29  1  0
 28 30  1  0
 30 31  1  0
 30 32  2  0
 32 33  1  0
 32 34  1  0
 34 35  1  0
 34 36  2  0
 36 37  1  0
 37 38  1  0
 37 39  1  0
 37 40  1  0
 25  4  1  0
 36 27  1  0
 24 12  2  0
M  CHG  2  10   1  29  -1
M  END
>  <UniqueID>  (13) 
11

>  <SMILES>  (13) 
Cc1cccc([O-])c1/C=N\n1c(C)[nH+]c2sc(C)c(C)c2c1=O

>  <Energy>  (13) 
89.21191635666656

>  <Genealogy>  (13) 
Cc1cccc([O-])c1C=Nn1c(C)[nH+]c2sc(C)c(C)c2c1=O (protonated)
Cc1cccc([O-])c1/C=N\n1c(C)[nH+]c2sc(C)c(C)c2c1=O (cis-trans isomerization)
Cc1cccc([O-])c1/C=N\n1c(C)[nH+]c2sc(C)c(C)c2c1=O (3D coordinates assigned)
Cc1cccc([O-])c1/C=N\n1c(C)[nH+]c2sc(C)c(C)c2c1=O (optimized conformer: 89.21191635666656 kcal/mol)

>  <smiles>  (13) 
Cc1cccc(O)c1C=Nn1c(C)nc2sc(C)c(C)c2c1=O

>  <score_type>  (13) 
oracle

>  <origin>  (13) 
adg

>  <m_score__min__energy>  (13) 
-10.74

>  <m_primary>  (13) 
energy

$$$$
13:0
     RDKit          3D

 44 47  0  0  0  0  0  0  0  0999 V2000
   58.7100   30.1990   49.7760 C   0  0  0  0  0  0  0  0  0  0  0  0
   59.6970   29.9430   48.6330 C   0  0  0  0  0  0  0  0  0  0  0  0
   61.0410   30.6340   48.8830 C   0  0  0  0  0  0  0  0  0  0  0  0
   59.8450   28.4640   48.3630 C   0  0  0  0  0  0  0  0  0  0  0  0
   60.7630   27.6930   48.9720 N   0  0  0  0  0  0  0  0  0  0  0  0
   60.6690   26.5020   48.4620 O   0  0  0  0  0  0  0  0  0  0  0  0
   59.7520   26.4140   47.5410 N   0  0  0  0  0  0  0  0  0  0  0  0
   59.2070   27.6430   47.4390 C   0  0  0  0  0  0  0  0  0  0  0  0
   58.0870   27.9650   46.4910 C   0  0  0  0  0  0  0  0  0  0  0  0
   58.6130   28.3940   45.1780 N   0  0  0  0  0  0  0  0  0  0  0  0
   59.4710   29.6010   45.2650 C   0  0  0  0  0  0  0  0  0  0  0  0
   58.6370   30.8340   45.4030 C   0  0  0  0  0  0  0  0  0  0  0  0
   57.3420   30.9240   44.9430 C   0  0  0  0  0  0  0  0  0  0  0  0
   56.8470   32.1700   45.1170 N   0  0  0  0  0  0  0  0  0  0  0  0
   57.8510   32.8740   45.6790 C   0  0  0  0  0  0  0  0  0  0  0  0
   57.8410   34.2200   46.0370 C   0  0  0  0  0  0  0  0  0  0  0  0
   59.0160   34.7600   46.5950 C   0  0  0  0  0  0  0  0  0  0  0  0
   60.1610   33.9530   46.7770 C   0  0  0  0  0  0  0  0  0  0  0  0
   60.1440   32.5960   46.4040 C   0  0  0  0  0  0  0  0  0  0  0  0
   58.9660   32.0900   45.8600 C   0  0  0  0  0  0  0  0  0  0  0  0
   56.6140   29.7670   44.3270 C   0  0  2  0  0  0  0  0  0  0  0  0
   55.4620   29.4360   45.0610 O   0  0  0  0  0  0  0  0  0  0  0  0
   57.5490   28.5320   44.1440 C   0  0  0  0  0  0  0  0  0  0  0  0
   59.2228   30.0660   50.7400 H   0  0  0  0  0  0  0  0  0  0  0  0
   58.3247   31.2268   49.7044 H   0  0  0  0  0  0  0  0  0  0  0  0
   57.8737   29.4881   49.7044 H   0  0  0  0  0  0  0  0  0  0  0  0
   59.2830   30.3942   47.7192 H   0  0  0  0  0  0  0  0  0  0  0  0
   61.2122   30.7220   49.9660 H   0  0  0  0  0  0  0  0  0  0  0  0
   61.8487   30.0393   48.4313 H   0  0  0  0  0  0  0  0  0  0  0  0
   61.0273   31.6369   48.4313 H   0  0  0  0  0  0  0  0  0  0  0  0
   61.4430   27.9790   49.7110 H   0  0  0  0  0  0  0  0  0  0  0  0
   57.4630   27.0696   46.3537 H   0  0  0  0  0  0  0  0  0  0  0  0
   57.4923   28.7868   46.9164 H   0  0  0  0  0  0  0  0  0  0  0  0
   60.1315   29.5121   46.1402 H   0  0  0  0  0  0  0  0  0  0  0  0
   60.0665   29.6785   44.3434 H   0  0  0  0  0  0  0  0  0  0  0  0
   55.8960   32.5150   44.8590 H   0  0  0  0  0  0  0  0  0  0  0  0
   56.9450   34.8407   45.8888 H   0  0  0  0  0  0  0  0  0  0  0  0
   59.0423   35.8189   46.8915 H   0  0  0  0  0  0  0  0  0  0  0  0
   61.0722   34.3882   47.2133 H   0  0  0  0  0  0  0  0  0  0  0  0
   61.0298   31.9576   46.5374 H   0  0  0  0  0  0  0  0  0  0  0  0
   56.2879   30.0811   43.3245 H   0  0  0  0  0  0  0  0  0  0  0  0
   55.6010   29.7160   46.0010 H   0  0  0  0  0  0  0  0  0  0  0  0
   56.9269   27.6252   44.1702 H   0  0  0  0  0  0  0  0  0  0  0  0
   58.0671   28.6759   43.1844 H   0  0  0  0  0  0  0  0  0  0  0  0
  1  2  1  0
  2  3  1  0
  2  4  1  0
  4  5  2  0
  5  6  1  0
  6  7  1  0
  7  8  2  0
  8  9  1  0
  9 10  1  0
 10 11  1  0
 11 12  1  0
 12 13  2  0
 13 14  1  0
 14 15  1  0
 15 16  2  0
 16 17  1  0
 17 18  2  0
 18 19  1  0
 19 20  2  0
 13 21  1  0
 21 22  1  0
 21 23  1  0
  8  4  1  0
 23 10  1  0
 20 12  1  0
 20 15  1  0
  1 24  1  0
  1 25  1  0
  1 26  1  0
  2 27  1  0
  3 28  1  0
  3 29  1  0
  3 30  1  0
  5 31  1  0
  9 32  1  0
  9 33  1  0
 11 34  1  0
 11 35  1  0
 14 36  1  0
 16 37  1  0
 17 38  1  0
 18 39  1  0
 19 40  1  0
 21 41  1  6
 22 42  1  0
 23 43  1  0
 23 44  1  0
M  CHG  1   5   1
M  END
>  <UniqueID>  (14) 
12

>  <SMILES>  (14) 
CC(C)c1[nH+]onc1CN1Cc2c([nH]c3ccccc23)[C@H](O)C1

>  <Energy>  (14) 
121.78887284740898

>  <Genealogy>  (14) 
CC(C)c1[nH+]onc1CN1Cc2c([nH]c3ccccc23)C(O)C1 (protonated)
CC(C)c1[nH+]onc1CN1Cc2c([nH]c3ccccc23)[C@H](O)C1 (chirality)
CC(C)c1[nH+]onc1CN1Cc2c([nH]c3ccccc23)[C@H](O)C1 (3D coordinates assigned)
CC(C)c1[nH+]onc1CN1Cc2c([nH]c3ccccc23)[C@H](O)C1 (nonaromatic ring conformer: 121.78887284740898 kcal/mol)

>  <smiles>  (14) 
CC(C)c1nonc1CN1Cc2c([nH]c3ccccc23)C(O)C1

>  <score_type>  (14) 
oracle

>  <origin>  (14) 
adg

>  <m_score__min__energy>  (14) 
-7.3099999999999996

>  <m_primary>  (14) 
energy

$$$$
14:0
     RDKit          3D

 54 57  0  0  0  0  0  0  0  0999 V2000
   62.9040   33.8220   49.0530 C   0  0  0  0  0  0  0  0  0  0  0  0
   62.7790   32.5860   49.9110 C   0  0  0  0  0  0  0  0  0  0  0  0
   63.9340   31.9260   50.3940 C   0  0  0  0  0  0  0  0  0  0  0  0
   65.5610   32.4810   50.0070 Cl  0  0  0  0  0  0  0  0  0  0  0  0
   63.8090   30.7870   51.1960 C   0  0  0  0  0  0  0  0  0  0  0  0
   62.5490   30.2800   51.5070 C   0  0  0  0  0  0  0  0  0  0  0  0
   61.4030   30.8980   51.0110 C   0  0  0  0  0  0  0  0  0  0  0  0
   61.5010   32.0500   50.2120 C   0  0  0  0  0  0  0  0  0  0  0  0
   60.3100   32.6330   49.6540 N   0  0  0  0  0  0  0  0  0  0  0  0
   59.2650   31.8590   49.0470 C   0  0  0  0  0  0  0  0  0  0  0  0
   59.2500   30.6040   49.1720 O   0  0  0  0  0  0  0  0  0  0  0  0
   58.1360   32.5540   48.3420 C   0  0  0  0  0  0  0  0  0  0  0  0
   58.6110   33.2170   47.1140 N   0  0  0  0  0  0  0  0  0  0  0  0
   59.3810   34.4330   47.2170 C   0  0  0  0  0  0  0  0  0  0  0  0
   59.6720   34.9160   48.3460 O   0  0  0  0  0  0  0  0  0  0  0  0
   59.9130   35.0990   45.9830 C   0  0  0  0  0  0  0  0  0  0  0  0
   59.1210   34.7750   44.8410 O   0  0  0  0  0  0  0  0  0  0  0  0
   58.5360   33.5180   44.6760 C   0  0  0  0  0  0  0  0  0  0  0  0
   58.1680   33.0920   43.3970 C   0  0  0  0  0  0  0  0  0  0  0  0
   57.6130   31.8250   43.2140 C   0  0  0  0  0  0  0  0  0  0  0  0
   57.4210   30.9750   44.3090 C   0  0  0  0  0  0  0  0  0  0  0  0
   56.7190   29.3730   44.0750 S   0  0  0  0  0  0  0  0  0  0  0  0
   56.1340   29.2880   42.6920 O   0  0  0  0  0  0  0  0  0  0  0  0
   55.5970   29.1880   45.0580 O   0  0  0  0  0  0  0  0  0  0  0  0
   57.8900   28.0880   44.2930 N   0  0  0  0  0  0  0  0  0  0  0  0
   59.2490   28.5980   44.5560 C   0  0  0  0  0  0  0  0  0  0  0  0
   59.4830   28.9670   46.0400 C   0  0  0  0  0  0  0  0  0  0  0  0
   58.4240   28.5680   46.8880 O   0  0  0  0  0  0  0  0  0  0  0  0
   58.1030   27.2190   46.6420 C   0  0  0  0  0  0  0  0  0  0  0  0
   57.4430   27.0660   45.2620 C   0  0  0  0  0  0  0  0  0  0  0  0
   57.7790   31.4060   45.5950 C   0  0  0  0  0  0  0  0  0  0  0  0
   58.3120   32.6960   45.7950 C   0  0  0  0  0  0  0  0  0  0  0  0
   62.9937   34.7085   49.6980 H   0  0  0  0  0  0  0  0  0  0  0  0
   63.7983   33.7386   48.4180 H   0  0  0  0  0  0  0  0  0  0  0  0
   62.0111   33.9194   48.4180 H   0  0  0  0  0  0  0  0  0  0  0  0
   64.7101   30.2889   51.5832 H   0  0  0  0  0  0  0  0  0  0  0  0
   62.4588   29.3892   52.1460 H   0  0  0  0  0  0  0  0  0  0  0  0
   60.4130   30.4806   51.2468 H   0  0  0  0  0  0  0  0  0  0  0  0
   60.1780   33.6670   49.7240 H   0  0  0  0  0  0  0  0  0  0  0  0
   57.3668   31.8137   48.0770 H   0  0  0  0  0  0  0  0  0  0  0  0
   57.7188   33.3178   49.0147 H   0  0  0  0  0  0  0  0  0  0  0  0
   59.9018   36.1891   46.1301 H   0  0  0  0  0  0  0  0  0  0  0  0
   60.9389   34.7423   45.8087 H   0  0  0  0  0  0  0  0  0  0  0  0
   58.3161   33.7566   42.5331 H   0  0  0  0  0  0  0  0  0  0  0  0
   57.3254   31.4931   42.2055 H   0  0  0  0  0  0  0  0  0  0  0  0
   59.9751   27.8230   44.2694 H   0  0  0  0  0  0  0  0  0  0  0  0
   59.3735   29.5180   43.9661 H   0  0  0  0  0  0  0  0  0  0  0  0
   60.4069   28.4767   46.3805 H   0  0  0  0  0  0  0  0  0  0  0  0
   59.5513   30.0634   46.0969 H   0  0  0  0  0  0  0  0  0  0  0  0
   59.0229   26.6166   46.6722 H   0  0  0  0  0  0  0  0  0  0  0  0
   57.3988   26.8743   47.4135 H   0  0  0  0  0  0  0  0  0  0  0  0
   57.6915   26.0716   44.8627 H   0  0  0  0  0  0  0  0  0  0  0  0
   56.3591   27.1937   45.3991 H   0  0  0  0  0  0  0  0  0  0  0  0
   57.6429   30.7325   46.4540 H   0  0  0  0  0  0  0  0  0  0  0  0
  1  2  1  0
  2  3  2  0
  3  4  1  0
  3  5  1  0
  5  6  2  0
  6  7  1  0
  7  8  2  0
  8  9  1  0
  9 10  1  0
 10 11  2  0
 10 12  1  0
 12 13  1  0
 13 14  1  0
 14 15  2  0
 14 16  1  0
 16 17  1  0
 17 18  1  0
 18 19  2  0
 19 20  1  0
 20 21  2  0
 21 22  1  0
 22 23  2  0
 22 24  2  0
 22 25  1  0
 25 26  1  0
 26 27  1  0
 27 28  1  0
 28 29  1  0
 29 30  1  0
 21 31  1  0
 31 32  2  0
  8  2  1  0
 32 13  1  0
 32 18  1  0
 30 25  1  0
  1 33  1  0
  1 34  1  0
  1 35  1  0
  5 36  1  0
  6 37  1  0
  7 38  1  0
  9 39  1  0
 12 40  1  0
 12 41  1  0
 16 42  1  0
 16 43  1  0
 19 44  1  0
 20 45  1  0
 26 46  1  0
 26 47  1  0
 27 48  1  0
 27 49  1  0
 29 50  1  0
 29 51  1  0
 30 52  1  0
 30 53  1  0
 31 54  1  0
M  END
>  <UniqueID>  (15) 
13

>  <SMILES>  (15) 
Cc1c(Cl)cccc1NC(=O)CN1C(=O)COc2ccc(S(=O)(=O)N3CCOCC3)cc21

>  <Energy>  (15) 
77.28522855009162

>  <Genealogy>  (15) 
Cc1c(Cl)cccc1NC(=O)CN1C(=O)COc2ccc(S(=O)(=O)N3CCOCC3)cc21 (3D coordinates assigned)
Cc1c(Cl)cccc1NC(=O)CN1C(=O)COc2ccc(S(=O)(=O)N3CCOCC3)cc21 (nonaromatic ring conformer: 77.28522855009162 kcal/mol)

>  <smiles>  (15) 
Cc1c(Cl)cccc1NC(=O)CN1C(=O)COc2ccc(S(=O)(=O)N3CCOCC3)cc21

>  <score_type>  (15) 
oracle

>  <origin>  (15) 
adg

>  <m_score__min__energy>  (15) 
-9.0399999999999991

>  <m_primary>  (15) 
energy

$$$$
15:0
     RDKit          3D

 27 29  0  0  0  0  0  0  0  0999 V2000
   59.3250   35.1570   45.3960 C   0  0  0  0  0  0  0  0  0  0  0  0
   59.5520   35.2300   46.7690 C   0  0  0  0  0  0  0  0  0  0  0  0
   59.2640   34.1650   47.5640 N   0  0  0  0  0  0  0  0  0  0  0  0
   58.7510   33.0120   47.0560 C   0  0  0  0  0  0  0  0  0  0  0  0
   58.5010   32.8870   45.6740 C   0  0  0  0  0  0  0  0  0  0  0  0
   57.9540   31.6640   45.1210 N   0  0  0  0  0  0  0  0  0  0  0  0
   57.3920   31.5670   43.7800 C   0  0  0  0  0  0  0  0  0  0  0  0
   56.9590   30.1130   43.5960 C   0  0  2  0  0  0  0  0  0  0  0  0
   55.5100   29.8130   43.9550 C   0  0  0  0  0  0  0  0  0  0  0  0
   55.8730   29.1310   45.1960 N   0  0  0  0  0  0  0  0  0  0  0  0
   57.2870   29.3810   44.8800 C   0  0  2  0  0  0  0  0  0  0  0  0
   57.9870   30.3810   45.8090 C   0  0  0  0  0  0  0  0  0  0  0  0
   58.8000   33.9870   44.8490 C   0  0  0  0  0  0  0  0  0  0  0  0
   59.5582   36.0155   44.7490 H   0  0  0  0  0  0  0  0  0  0  0  0
   59.9643   36.1496   47.2099 H   0  0  0  0  0  0  0  0  0  0  0  0
   59.4420   34.2350   48.5920 H   0  0  0  0  0  0  0  0  0  0  0  0
   58.5294   32.1704   47.7288 H   0  0  0  0  0  0  0  0  0  0  0  0
   56.5252   32.2371   43.6817 H   0  0  0  0  0  0  0  0  0  0  0  0
   58.1277   31.8628   43.0176 H   0  0  0  0  0  0  0  0  0  0  0  0
   57.3370   29.8863   42.5882 H   0  0  0  0  0  0  0  0  0  0  0  0
   54.9039   30.7169   44.1150 H   0  0  0  0  0  0  0  0  0  0  0  0
   54.8843   29.2806   43.2236 H   0  0  0  0  0  0  0  0  0  0  0  0
   55.5490   29.7220   45.9980 H   0  0  0  0  0  0  0  0  0  0  0  0
   57.9457   28.5004   44.9051 H   0  0  0  0  0  0  0  0  0  0  0  0
   57.4533   30.4486   46.7685 H   0  0  0  0  0  0  0  0  0  0  0  0
   59.0189   30.0700   46.0293 H   0  0  0  0  0  0  0  0  0  0  0  0
   58.6184   33.9234   43.7660 H   0  0  0  0  0  0  0  0  0  0  0  0
  1  2  2  0
  2  3  1  0
  3  4  2  0
  4  5  1  0
  5  6  1  0
  6  7  1  0
  7  8  1  0
  8  9  1  0
  9 10  1  0
 10 11  1  0
 11 12  1  0
  5 13  2  0
 13  1  1  0
 12  6  1  0
 11  8  1  0
  1 14  1  0
  2 15  1  0
  3 16  1  0
  4 17  1  0
  7 18  1  0
  7 19  1  0
  8 20  1  6
  9 21  1  0
  9 22  1  0
 10 23  1  0
 11 24  1  6
 12 25  1  0
 12 26  1  0
 13 27  1  0
M  CHG  1   3   1
M  END
>  <UniqueID>  (16) 
14

>  <SMILES>  (16) 
c1c[nH+]cc(N2C[C@@H]3CN[C@@H]3C2)c1

>  <Energy>  (16) 
99.22364731485405

>  <Genealogy>  (16) 
c1c[nH+]cc(N2CC3CNC3C2)c1 (protonated)
c1c[nH+]cc(N2C[C@@H]3CN[C@@H]3C2)c1 (chirality)
c1c[nH+]cc(N2C[C@@H]3CN[C@@H]3C2)c1 (3D coordinates assigned)
c1c[nH+]cc(N2C[C@@H]3CN[C@@H]3C2)c1 (nonaromatic ring conformer: 99.22364731485405 kcal/mol)

>  <smiles>  (16) 
c1cncc(N2CC3CNC3C2)c1

>  <score_type>  (16) 
oracle

>  <origin>  (16) 
adg

>  <m_score__min__energy>  (16) 
-4.7400000000000002

>  <m_primary>  (16) 
energy

$$$$
16:0
     RDKit          3D

 55 58  0  0  0  0  0  0  0  0999 V2000
   67.1680   32.5430   50.8120 C   0  0  0  0  0  0  0  0  0  0  0  0
   65.8970   31.9480   51.0520 O   0  0  0  0  0  0  0  0  0  0  0  0
   64.7840   32.0920   50.2120 C   0  0  0  0  0  0  0  0  0  0  0  0
   63.7260   31.1870   50.3470 C   0  0  0  0  0  0  0  0  0  0  0  0
   62.5930   31.2900   49.5360 C   0  0  0  0  0  0  0  0  0  0  0  0
   62.5020   32.3020   48.5680 C   0  0  0  0  0  0  0  0  0  0  0  0
   61.2820   32.4090   47.7310 C   0  0  0  0  0  0  0  0  0  0  0  0
   61.0790   33.4680   46.9290 C   0  0  0  0  0  0  0  0  0  0  0  0
   59.8230   33.5770   46.1560 C   0  0  0  0  0  0  0  0  0  0  0  0
   59.4650   34.8000   45.5730 C   0  0  0  0  0  0  0  0  0  0  0  0
   58.2610   34.9210   44.8780 C   0  0  0  0  0  0  0  0  0  0  0  0
   57.4110   33.8220   44.7580 C   0  0  0  0  0  0  0  0  0  0  0  0
   57.7640   32.5930   45.3220 C   0  0  0  0  0  0  0  0  0  0  0  0
   58.9720   32.4530   46.0320 C   0  0  0  0  0  0  0  0  0  0  0  0
   59.4840   31.1230   46.5810 C   0  0  2  0  0  0  0  0  0  0  0  0
   58.4120   30.0160   46.7940 C   0  0  0  0  0  0  0  0  0  0  0  0
   57.8120   29.5050   45.5020 C   0  0  0  0  0  0  0  0  0  0  0  0
   58.6410   28.7580   44.4980 C   0  0  0  0  0  0  0  0  0  0  0  0
   56.6450   29.7500   45.2380 O   0  0  0  0  0  0  0  0  0  0  0  0
   60.2590   31.3970   47.8130 N   0  0  0  0  0  0  0  0  0  0  0  0
   59.7110   31.1350   49.1160 C   0  0  0  0  0  0  0  0  0  0  0  0
   59.0760   32.1560   49.8340 C   0  0  0  0  0  0  0  0  0  0  0  0
   58.5340   31.8960   51.0950 C   0  0  0  0  0  0  0  0  0  0  0  0
   58.6180   30.6160   51.6550 C   0  0  0  0  0  0  0  0  0  0  0  0
   58.0580   30.4040   52.9250 O   0  0  0  0  0  0  0  0  0  0  0  0
   56.6670   30.4900   53.2130 C   0  0  0  0  0  0  0  0  0  0  0  0
   59.2570   29.5900   50.9320 C   0  0  0  0  0  0  0  0  0  0  0  0
   59.7990   29.8500   49.6700 C   0  0  0  0  0  0  0  0  0  0  0  0
   63.5630   33.2140   48.4300 C   0  0  0  0  0  0  0  0  0  0  0  0
   64.6950   33.1100   49.2430 C   0  0  0  0  0  0  0  0  0  0  0  0
   67.6537   32.7704   51.7724 H   0  0  0  0  0  0  0  0  0  0  0  0
   67.7970   31.8457   50.2391 H   0  0  0  0  0  0  0  0  0  0  0  0
   67.0354   33.4726   50.2391 H   0  0  0  0  0  0  0  0  0  0  0  0
   63.7866   30.3865   51.0990 H   0  0  0  0  0  0  0  0  0  0  0  0
   61.7672   30.5735   49.6570 H   0  0  0  0  0  0  0  0  0  0  0  0
   61.8458   34.2525   46.8476 H   0  0  0  0  0  0  0  0  0  0  0  0
   60.1353   35.6675   45.6635 H   0  0  0  0  0  0  0  0  0  0  0  0
   57.9823   35.8837   44.4246 H   0  0  0  0  0  0  0  0  0  0  0  0
   56.4585   33.9229   44.2171 H   0  0  0  0  0  0  0  0  0  0  0  0
   57.0931   31.7284   45.2104 H   0  0  0  0  0  0  0  0  0  0  0  0
   60.1244   30.6830   45.8023 H   0  0  0  0  0  0  0  0  0  0  0  0
   58.8824   29.1711   47.3183 H   0  0  0  0  0  0  0  0  0  0  0  0
   57.5940   30.4635   47.3777 H   0  0  0  0  0  0  0  0  0  0  0  0
   59.3588   28.1112   45.0237 H   0  0  0  0  0  0  0  0  0  0  0  0
   57.9846   28.1405   43.8673 H   0  0  0  0  0  0  0  0  0  0  0  0
   59.1871   29.4749   43.8673 H   0  0  0  0  0  0  0  0  0  0  0  0
   59.0038   33.1658   49.4037 H   0  0  0  0  0  0  0  0  0  0  0  0
   58.0372   32.7038   51.6524 H   0  0  0  0  0  0  0  0  0  0  0  0
   56.5181   30.4992   54.3028 H   0  0  0  0  0  0  0  0  0  0  0  0
   56.2593   31.4151   52.7794 H   0  0  0  0  0  0  0  0  0  0  0  0
   56.1484   29.6222   52.7794 H   0  0  0  0  0  0  0  0  0  0  0  0
   59.3298   28.5802   51.3621 H   0  0  0  0  0  0  0  0  0  0  0  0
   60.2960   29.0442   49.1099 H   0  0  0  0  0  0  0  0  0  0  0  0
   63.5018   34.0142   47.6777 H   0  0  0  0  0  0  0  0  0  0  0  0
   65.5208   33.8271   49.1254 H   0  0  0  0  0  0  0  0  0  0  0  0
  1  2  1  0
  2  3  1  0
  3  4  2  0
  4  5  1  0
  5  6  2  0
  6  7  1  0
  7  8  2  0
  8  9  1  0
  9 10  2  0
 10 11  1  0
 11 12  2  0
 12 13  1  0
 13 14  2  0
 14 15  1  0
 15 16  1  0
 16 17  1  0
 17 18  1  0
 17 19  2  0
 15 20  1  0
 20 21  1  0
 21 22  2  0
 22 23  1  0
 23 24  2  0
 24 25  1  0
 25 26  1  0
 24 27  1  0
 27 28  2  0
  6 29  1  0
 29 30  2  0
 30  3  1  0
 20  7  1  0
 28 21  1  0
 14  9  1  0
  1 31  1  0
  1 32  1  0
  1 33  1  0
  4 34  1  0
  5 35  1  0
  8 36  1  0
 10 37  1  0
 11 38  1  0
 12 39  1  0
 13 40  1  0
 15 41  1  6
 16 42  1  0
 16 43  1  0
 18 44  1  0
 18 45  1  0
 18 46  1  0
 22 47  1  0
 23 48  1  0
 26 49  1  0
 26 50  1  0
 26 51  1  0
 27 52  1  0
 28 53  1  0
 29 54  1  0
 30 55  1  0
M  END
>  <UniqueID>  (17) 
15

>  <SMILES>  (17) 
COc1ccc(C2=Cc3ccccc3[C@H](CC(C)=O)N2c2ccc(OC)cc2)cc1

>  <Energy>  (17) 
77.6983386290475

>  <Genealogy>  (17) 
COc1ccc(C2=Cc3ccccc3[C@H](CC(C)=O)N2c2ccc(OC)cc2)cc1 (chirality)
COc1ccc(C2=Cc3ccccc3[C@H](CC(C)=O)N2c2ccc(OC)cc2)cc1 (3D coordinates assigned)
COc1ccc(C2=Cc3ccccc3[C@H](CC(C)=O)N2c2ccc(OC)cc2)cc1 (nonaromatic ring conformer: 77.6983386290475 kcal/mol)

>  <smiles>  (17) 
COc1ccc(C2=Cc3ccccc3C(CC(C)=O)N2c2ccc(OC)cc2)cc1

>  <score_type>  (17) 
oracle

>  <origin>  (17) 
adg

>  <m_score__min__energy>  (17) 
-8.0800000000000001

>  <m_primary>  (17) 
energy

$$$$
17:0
     RDKit          3D

 24 26  0  0  0  0  0  0  0  0999 V2000
   54.4390   26.7150   46.7430 H   0  0  0  0  0  0  0  0  0  0  0  0
   55.1190   26.3490   46.0380 N   0  0  0  0  0  0  0  0  0  0  0  0
   56.3510   26.7420   46.0190 C   0  0  0  0  0  0  0  0  0  0  0  0
   56.6470   28.0680   45.9430 N   0  0  0  0  0  0  0  0  0  0  0  0
   57.9340   28.5070   45.9220 C   0  0  0  0  0  0  0  0  0  0  0  0
   58.1890   29.9580   45.8390 C   0  0  0  0  0  0  0  0  0  0  0  0
   57.3600   30.7980   45.2440 O   0  0  0  0  0  0  0  0  0  0  0  0
   57.8720   32.0000   45.3440 C   0  0  0  0  0  0  0  0  0  0  0  0
   57.3430   33.1950   44.8630 C   0  0  0  0  0  0  0  0  0  0  0  0
   56.3841   33.2160   44.3243 H   0  0  0  0  0  0  0  0  0  0  0  0
   58.0760   34.3750   45.0890 C   0  0  0  0  0  0  0  0  0  0  0  0
   57.6893   35.3374   44.7225 H   0  0  0  0  0  0  0  0  0  0  0  0
   59.3060   34.3310   45.7840 C   0  0  0  0  0  0  0  0  0  0  0  0
   59.8707   35.2594   45.9547 H   0  0  0  0  0  0  0  0  0  0  0  0
   59.8130   33.1070   46.2590 C   0  0  0  0  0  0  0  0  0  0  0  0
   60.7683   33.0588   46.8021 H   0  0  0  0  0  0  0  0  0  0  0  0
   59.0620   31.9580   46.0170 C   0  0  0  0  0  0  0  0  0  0  0  0
   59.2940   30.6440   46.3510 C   0  0  0  0  0  0  0  0  0  0  0  0
   60.1535   30.2278   46.8968 H   0  0  0  0  0  0  0  0  0  0  0  0
   58.9770   27.5700   45.9790 C   0  0  0  0  0  0  0  0  0  0  0  0
   60.0274   27.8962   45.9626 H   0  0  0  0  0  0  0  0  0  0  0  0
   58.6520   26.2150   46.0570 C   0  0  0  0  0  0  0  0  0  0  0  0
   59.4510   25.4604   46.1040 H   0  0  0  0  0  0  0  0  0  0  0  0
   57.3520   25.8270   46.0750 N   0  0  0  0  0  0  0  0  0  0  0  0
  1  2  1  0
  2  3  2  0
  3  4  1  0
  4  5  2  0
  5  6  1  0
  6  7  1  0
  7  8  1  0
  8  9  2  0
  9 10  1  0
  9 11  1  0
 11 12  1  0
 11 13  2  0
 13 14  1  0
 13 15  1  0
 15 16  1  0
 15 17  2  0
 17 18  1  0
 18 19  1  0
  5 20  1  0
 20 21  1  0
 20 22  2  0
 22 23  1  0
 22 24  1  0
 24  3  1  0
 18  6  2  0
 17  8  1  0
M  CHG  1  24  -1
M  END
>  <UniqueID>  (18) 
16

>  <SMILES>  (18) 
[H]/N=c1\nc(-c2cc3ccccc3o2)cc[n-]1

>  <Energy>  (18) 
61.60312114978823

>  <Genealogy>  (18) 
N=c1nc(-c2cc3ccccc3o2)cc[n-]1 (protonated)
[H]/N=c1\nc(-c2cc3ccccc3o2)cc[n-]1 (cis-trans isomerization)
[H]/N=c1\nc(-c2cc3ccccc3o2)cc[n-]1 (3D coordinates assigned)
[H]/N=c1\nc(-c2cc3ccccc3o2)cc[n-]1 (optimized conformer: 61.60312114978823 kcal/mol)

>  <smiles>  (18) 
N=c1nc(-c2cc3ccccc3o2)cc[nH]1

>  <score_type>  (18) 
oracle

>  <origin>  (18) 
adg

>  <m_score__min__energy>  (18) 
-8.8000000000000007

>  <m_primary>  (18) 
energy

$$$$
18:0
     RDKit          3D

 31 32  0  0  0  0  0  0  0  0999 V2000
   57.3450   31.5210   42.6650 C   0  0  0  0  0  0  0  0  0  0  0  0
   57.4590   31.3360   44.1160 N   0  0  0  0  0  0  0  0  0  0  0  0
   56.9150   30.1480   44.7260 C   0  0  0  0  0  0  0  0  0  0  0  0
   55.6650   30.0340   44.8590 O   0  0  0  0  0  0  0  0  0  0  0  0
   57.7980   29.0860   45.2560 C   0  0  0  0  0  0  0  0  0  0  0  0
   59.1780   29.3400   45.3350 C   0  0  0  0  0  0  0  0  0  0  0  0
   60.0440   28.3920   45.8830 C   0  0  0  0  0  0  0  0  0  0  0  0
   59.5440   27.1830   46.3630 C   0  0  0  0  0  0  0  0  0  0  0  0
   58.1760   26.9120   46.2870 C   0  0  0  0  0  0  0  0  0  0  0  0
   57.2920   27.8500   45.7290 C   0  0  0  0  0  0  0  0  0  0  0  0
   55.9040   27.5070   45.6100 N   0  0  0  0  0  0  0  0  0  0  0  0
   57.9060   32.4270   44.9490 C   0  0  0  0  0  0  0  0  0  0  0  0
   58.4860   33.5690   44.3670 C   0  0  0  0  0  0  0  0  0  0  0  0
   58.9160   34.6330   45.1660 C   0  0  0  0  0  0  0  0  0  0  0  0
   58.7720   34.5690   46.5540 C   0  0  0  0  0  0  0  0  0  0  0  0
   58.1970   33.4410   47.1450 C   0  0  0  0  0  0  0  0  0  0  0  0
   57.7650   32.3750   46.3500 C   0  0  0  0  0  0  0  0  0  0  0  0
   56.7784   32.4404   42.4560 H   0  0  0  0  0  0  0  0  0  0  0  0
   58.3502   31.6018   42.2256 H   0  0  0  0  0  0  0  0  0  0  0  0
   56.8209   30.6595   42.2256 H   0  0  0  0  0  0  0  0  0  0  0  0
   59.5792   30.2939   44.9619 H   0  0  0  0  0  0  0  0  0  0  0  0
   61.1229   28.5997   45.9360 H   0  0  0  0  0  0  0  0  0  0  0  0
   60.2275   26.4414   46.8022 H   0  0  0  0  0  0  0  0  0  0  0  0
   57.7876   25.9557   46.6674 H   0  0  0  0  0  0  0  0  0  0  0  0
   55.1450   28.1700   45.8780 H   0  0  0  0  0  0  0  0  0  0  0  0
   55.6190   26.6070   45.1660 H   0  0  0  0  0  0  0  0  0  0  0  0
   58.6022   33.6254   43.2746 H   0  0  0  0  0  0  0  0  0  0  0  0
   59.3682   35.5214   44.7010 H   0  0  0  0  0  0  0  0  0  0  0  0
   59.1112   35.4064   47.1815 H   0  0  0  0  0  0  0  0  0  0  0  0
   58.0839   33.3915   48.2381 H   0  0  0  0  0  0  0  0  0  0  0  0
   57.3122   31.4902   46.8213 H   0  0  0  0  0  0  0  0  0  0  0  0
  1  2  1  0
  2  3  1  0
  3  4  2  0
  3  5  1  0
  5  6  2  0
  6  7  1  0
  7  8  2  0
  8  9  1  0
  9 10  2  0
 10 11  1  0
  2 12  1  0
 12 13  2  0
 13 14  1  0
 14 15  2  0
 15 16  1  0
 16 17  2  0
 10  5  1  0
 17 12  1  0
  1 18  1  0
  1 19  1  0
  1 20  1  0
  6 21  1  0
  7 22  1  0
  8 23  1  0
  9 24  1  0
 11 25  1  0
 11 26  1  0
 13 27  1  0
 14 28  1  0
 15 29  1  0
 16 30  1  0
 17 31  1  0
M  END
>  <UniqueID>  (19) 
17

>  <SMILES>  (19) 
CN(C(=O)c1ccccc1N)c1ccccc1

>  <Energy>  (19) 
43.61446239174071

>  <Genealogy>  (19) 
CN(C(=O)c1ccccc1N)c1ccccc1 (3D coordinates assigned)
CN(C(=O)c1ccccc1N)c1ccccc1 (optimized conformer: 43.61446239174071 kcal/mol)

>  <smiles>  (19) 
CN(C(=O)c1ccccc1N)c1ccccc1

>  <score_type>  (19) 
oracle

>  <origin>  (19) 
adg

>  <m_score__min__energy>  (19) 
-7.71

>  <m_primary>  (19) 
energy

$$$$
19:0
     RDKit          3D

 40 42  0  0  0  0  0  0  0  0999 V2000
   55.2840   26.7110   45.9980 O   0  0  0  0  0  0  0  0  0  0  0  0
   56.2770   27.4400   45.7370 C   0  0  0  0  0  0  0  0  0  0  0  0
   56.0560   28.7540   45.2120 N   0  0  0  0  0  0  0  0  0  0  0  0
   56.6030   29.2320   43.9480 C   0  0  0  0  0  0  0  0  0  0  0  0
   57.0590   30.6440   44.1090 C   0  0  0  0  0  0  0  0  0  0  0  0
   57.6310   31.4220   43.1230 C   0  0  0  0  0  0  0  0  0  0  0  0
   57.8600   32.6490   43.7100 C   0  0  0  0  0  0  0  0  0  0  0  0
   57.4110   32.5430   45.0100 C   0  0  0  0  0  0  0  0  0  0  0  0
   56.9370   31.3350   45.2180 O   0  0  0  0  0  0  0  0  0  0  0  0
   57.6370   26.9180   45.9750 C   0  0  0  0  0  0  0  0  0  0  0  0
   57.9120   25.5850   45.6300 C   0  0  0  0  0  0  0  0  0  0  0  0
   59.1900   25.0560   45.8070 C   0  0  0  0  0  0  0  0  0  0  0  0
   60.2090   25.8550   46.3220 C   0  0  0  0  0  0  0  0  0  0  0  0
   59.9550   27.1840   46.6670 C   0  0  0  0  0  0  0  0  0  0  0  0
   58.6670   27.7380   46.5040 C   0  0  0  0  0  0  0  0  0  0  0  0
   58.3880   29.0980   46.9020 N   0  0  0  0  0  0  0  0  0  0  0  0
   59.1120   29.8850   48.2710 S   0  0  0  0  0  0  0  0  0  0  0  0
   60.3620   29.1470   48.6610 O   0  0  0  0  0  0  0  0  0  0  0  0
   58.1470   29.8510   49.4250 O   0  0  0  0  0  0  0  0  0  0  0  0
   59.5340   31.5440   47.8590 C   0  0  0  0  0  0  0  0  0  0  0  0
   58.5480   32.5430   47.8720 C   0  0  0  0  0  0  0  0  0  0  0  0
   58.8820   33.8630   47.5500 C   0  0  0  0  0  0  0  0  0  0  0  0
   60.1990   34.1900   47.2120 C   0  0  0  0  0  0  0  0  0  0  0  0
   61.1840   33.1960   47.1950 C   0  0  0  0  0  0  0  0  0  0  0  0
   62.9850   33.6440   46.7430 Br  0  0  0  0  0  0  0  0  0  0  0  0
   60.8520   31.8750   47.5160 C   0  0  0  0  0  0  0  0  0  0  0  0
   57.4557   28.6018   43.6552 H   0  0  0  0  0  0  0  0  0  0  0  0
   55.8277   29.1822   43.1693 H   0  0  0  0  0  0  0  0  0  0  0  0
   57.8566   31.1261   42.0878 H   0  0  0  0  0  0  0  0  0  0  0  0
   58.3101   33.5341   43.2367 H   0  0  0  0  0  0  0  0  0  0  0  0
   57.4446   33.3477   45.7592 H   0  0  0  0  0  0  0  0  0  0  0  0
   57.1125   24.9526   45.2166 H   0  0  0  0  0  0  0  0  0  0  0  0
   59.3937   24.0085   45.5402 H   0  0  0  0  0  0  0  0  0  0  0  0
   61.2175   25.4371   46.4573 H   0  0  0  0  0  0  0  0  0  0  0  0
   60.7676   27.8061   47.0703 H   0  0  0  0  0  0  0  0  0  0  0  0
   57.6750   29.6590   46.3860 H   0  0  0  0  0  0  0  0  0  0  0  0
   57.5111   32.2877   48.1358 H   0  0  0  0  0  0  0  0  0  0  0  0
   58.1079   34.6444   47.5627 H   0  0  0  0  0  0  0  0  0  0  0  0
   60.4606   35.2282   46.9596 H   0  0  0  0  0  0  0  0  0  0  0  0
   61.6271   31.0947   47.4991 H   0  0  0  0  0  0  0  0  0  0  0  0
  1  2  2  0
  2  3  1  0
  3  4  1  0
  4  5  1  0
  5  6  2  0
  6  7  1  0
  7  8  2  0
  8  9  1  0
  2 10  1  0
 10 11  2  0
 11 12  1  0
 12 13  2  0
 13 14  1  0
 14 15  2  0
 15 16  1  0
 16 17  1  0
 17 18  2  0
 17 19  2  0
 17 20  1  0
 20 21  2  0
 21 22  1  0
 22 23  2  0
 23 24  1  0
 24 25  1  0
 24 26  2  0
  9  5  1  0
 15 10  1  0
 26 20  1  0
  4 27  1  0
  4 28  1  0
  6 29  1  0
  7 30  1  0
  8 31  1  0
 11 32  1  0
 12 33  1  0
 13 34  1  0
 14 35  1  0
 16 36  1  0
 21 37  1  0
 22 38  1  0
 23 39  1  0
 26 40  1  0
M  CHG  1   3  -1
M  END
>  <UniqueID>  (20) 
18

>  <SMILES>  (20) 
O=C([N-]Cc1ccco1)c1ccccc1NS(=O)(=O)c1cccc(Br)c1

>  <Energy>  (20) 
75.64190602364813

>  <Genealogy>  (20) 
O=C([N-]Cc1ccco1)c1ccccc1NS(=O)(=O)c1cccc(Br)c1 (protonated)
O=C([N-]Cc1ccco1)c1ccccc1NS(=O)(=O)c1cccc(Br)c1 (3D coordinates assigned)
O=C([N-]Cc1ccco1)c1ccccc1NS(=O)(=O)c1cccc(Br)c1 (optimized conformer: 75.64190602364813 kcal/mol)

>  <smiles>  (20) 
O=C(NCc1ccco1)c1ccccc1NS(=O)(=O)c1cccc(Br)c1

>  <score_type>  (20) 
oracle

>  <origin>  (20) 
adg

>  <m_score__min__energy>  (20) 
-11.35

>  <m_primary>  (20) 
energy

$$$$
20:0
     RDKit          3D

 49 53  0  0  0  0  0  0  0  0999 V2000
   53.9470   30.7610   51.6070 C   0  0  0  0  0  0  0  0  0  0  0  0
   55.1550   30.7290   52.5370 C   0  0  0  0  0  0  0  0  0  0  0  0
   56.3480   30.4420   51.8070 O   0  0  0  0  0  0  0  0  0  0  0  0
   57.3700   31.3610   51.5160 C   0  0  0  0  0  0  0  0  0  0  0  0
   57.6240   32.4950   52.3100 C   0  0  0  0  0  0  0  0  0  0  0  0
   58.6620   33.3650   51.9760 C   0  0  0  0  0  0  0  0  0  0  0  0
   59.4460   33.1290   50.8460 C   0  0  0  0  0  0  0  0  0  0  0  0
   59.1870   32.0190   50.0130 C   0  0  0  0  0  0  0  0  0  0  0  0
   60.0080   31.7070   48.8590 N   0  0  0  0  0  0  0  0  0  0  0  0
   59.2450   31.2770   47.6960 C   0  0  0  0  0  0  0  0  0  0  0  0
   59.0890   29.8840   47.3880 C   0  0  0  0  0  0  0  0  0  0  0  0
   58.5180   29.5210   46.1440 C   0  0  0  0  0  0  0  0  0  0  0  0
   58.0630   30.4840   45.3020 N   0  0  0  0  0  0  0  0  0  0  0  0
   58.1180   31.8020   45.5890 C   0  0  0  0  0  0  0  0  0  0  0  0
   57.5930   32.7190   44.6700 C   0  0  0  0  0  0  0  0  0  0  0  0
   57.6160   34.0830   44.9480 C   0  0  0  0  0  0  0  0  0  0  0  0
   58.1540   34.5400   46.1500 C   0  0  0  0  0  0  0  0  0  0  0  0
   58.6860   33.6350   47.0730 C   0  0  0  0  0  0  0  0  0  0  0  0
   58.6960   32.2440   46.8000 C   0  0  0  0  0  0  0  0  0  0  0  0
   58.4130   28.0960   45.7140 C   0  0  0  0  0  0  0  0  0  0  0  0
   57.8520   27.7660   44.4630 C   0  0  0  0  0  0  0  0  0  0  0  0
   57.7710   26.4350   44.0500 C   0  0  0  0  0  0  0  0  0  0  0  0
   58.2450   25.4150   44.8730 C   0  0  0  0  0  0  0  0  0  0  0  0
   58.8010   25.7230   46.1160 C   0  0  0  0  0  0  0  0  0  0  0  0
   58.8880   27.0590   46.5450 C   0  0  0  0  0  0  0  0  0  0  0  0
   59.4560   27.3860   47.8640 C   0  0  0  0  0  0  0  0  0  0  0  0
   59.8910   26.4740   48.6190 O   0  0  0  0  0  0  0  0  0  0  0  0
   59.4970   28.7830   48.3160 C   0  0  0  0  0  0  0  0  0  0  0  0
   59.8310   29.0100   49.5090 O   0  0  0  0  0  0  0  0  0  0  0  0
   58.1570   31.1320   50.3810 C   0  0  0  0  0  0  0  0  0  0  0  0
   53.0242   30.7854   52.2053 H   0  0  0  0  0  0  0  0  0  0  0  0
   53.9965   31.6581   50.9724 H   0  0  0  0  0  0  0  0  0  0  0  0
   53.9489   29.8625   50.9724 H   0  0  0  0  0  0  0  0  0  0  0  0
   55.2588   31.7081   53.0275 H   0  0  0  0  0  0  0  0  0  0  0  0
   55.0019   29.9397   53.2877 H   0  0  0  0  0  0  0  0  0  0  0  0
   57.0029   32.6956   53.1955 H   0  0  0  0  0  0  0  0  0  0  0  0
   58.8638   34.2428   52.6075 H   0  0  0  0  0  0  0  0  0  0  0  0
   60.2722   33.8131   50.6024 H   0  0  0  0  0  0  0  0  0  0  0  0
   60.6110   32.5290   48.6450 H   0  0  0  0  0  0  0  0  0  0  0  0
   60.7080   30.9660   49.0930 H   0  0  0  0  0  0  0  0  0  0  0  0
   57.1606   32.3601   43.7244 H   0  0  0  0  0  0  0  0  0  0  0  0
   57.2097   34.7999   44.2193 H   0  0  0  0  0  0  0  0  0  0  0  0
   58.1599   35.6171   46.3731 H   0  0  0  0  0  0  0  0  0  0  0  0
   59.1014   34.0062   48.0215 H   0  0  0  0  0  0  0  0  0  0  0  0
   57.4749   28.5644   43.8069 H   0  0  0  0  0  0  0  0  0  0  0  0
   57.3316   26.1904   43.0717 H   0  0  0  0  0  0  0  0  0  0  0  0
   58.1810   24.3675   44.5433 H   0  0  0  0  0  0  0  0  0  0  0  0
   59.1732   24.9155   46.7636 H   0  0  0  0  0  0  0  0  0  0  0  0
   57.9670   30.2412   49.7642 H   0  0  0  0  0  0  0  0  0  0  0  0
  1  2  1  0
  2  3  1  0
  3  4  1  0
  4  5  2  0
  5  6  1  0
  6  7  2  0
  7  8  1  0
  8  9  1  0
  9 10  1  0
 10 11  2  0
 11 12  1  0
 12 13  2  0
 13 14  1  0
 14 15  2  0
 15 16  1  0
 16 17  2  0
 17 18  1  0
 18 19  2  0
 12 20  1  0
 20 21  2  0
 21 22  1  0
 22 23  2  0
 23 24  1  0
 24 25  2  0
 25 26  1  0
 26 27  2  0
 26 28  1  0
 28 29  2  0
  8 30  2  0
 30  4  1  0
 19 10  1  0
 25 20  1  0
 28 11  1  0
 19 14  1  0
  1 31  1  0
  1 32  1  0
  1 33  1  0
  2 34  1  0
  2 35  1  0
  5 36  1  0
  6 37  1  0
  7 38  1  0
  9 39  1  0
  9 40  1  0
 15 41  1  0
 16 42  1  0
 17 43  1  0
 18 44  1  0
 21 45  1  0
 22 46  1  0
 23 47  1  0
 24 48  1  0
 30 49  1  0
M  CHG  1   9   1
M  END
>  <UniqueID>  (21) 
19

>  <SMILES>  (21) 
CCOc1cccc([NH2+]c2c3c(nc4ccccc24)-c2ccccc2C(=O)C3=O)c1

>  <Energy>  (21) 
76.05717547690946

>  <Genealogy>  (21) 
CCOc1cccc([NH2+]c2c3c(nc4ccccc24)-c2ccccc2C(=O)C3=O)c1 (protonated)
CCOc1cccc([NH2+]c2c3c(nc4ccccc24)-c2ccccc2C(=O)C3=O)c1 (3D coordinates assigned)
CCOc1cccc([NH2+]c2c3c(nc4ccccc24)-c2ccccc2C(=O)C3=O)c1 (nonaromatic ring conformer: 76.05717547690946 kcal/mol)

>  <smiles>  (21) 
CCOc1cccc(Nc2c3c(nc4ccccc24)-c2ccccc2C(=O)C3=O)c1

>  <score_type>  (21) 
oracle

>  <origin>  (21) 
adg

>  <m_score__min__energy>  (21) 
-7.4199999999999999

>  <m_primary>  (21) 
energy

$$$$
21:0
     RDKit          3D

 51 54  0  0  0  0  0  0  0  0999 V2000
   57.8250   28.6060   47.3800 O   0  0  0  0  0  0  0  0  0  0  0  0
   57.3940   27.9260   46.4110 C   0  0  0  0  0  0  0  0  0  0  0  0
   56.4480   28.5270   45.5170 N   0  0  0  0  0  0  0  0  0  0  0  0
   56.7510   29.4480   44.4590 C   0  0  0  0  0  0  0  0  0  0  0  0
   55.9610   29.5280   43.2980 C   0  0  0  0  0  0  0  0  0  0  0  0
   56.2800   30.4450   42.2910 C   0  0  0  0  0  0  0  0  0  0  0  0
   57.3760   31.3000   42.4430 C   0  0  0  0  0  0  0  0  0  0  0  0
   57.7740   32.4520   41.1810 Cl  0  0  0  0  0  0  0  0  0  0  0  0
   58.1490   31.2420   43.6080 C   0  0  0  0  0  0  0  0  0  0  0  0
   57.8320   30.3250   44.6140 C   0  0  0  0  0  0  0  0  0  0  0  0
   57.9380   26.5670   46.1740 C   0  0  0  0  0  0  0  0  0  0  0  0
   57.0570   25.5360   45.8010 C   0  0  0  0  0  0  0  0  0  0  0  0
   57.5380   24.2550   45.5220 C   0  0  0  0  0  0  0  0  0  0  0  0
   56.4270   22.9880   45.0380 Cl  0  0  0  0  0  0  0  0  0  0  0  0
   58.9030   23.9860   45.6180 C   0  0  0  0  0  0  0  0  0  0  0  0
   59.7920   24.9960   45.9900 C   0  0  0  0  0  0  0  0  0  0  0  0
   59.3270   26.2970   46.2590 C   0  0  0  0  0  0  0  0  0  0  0  0
   60.2500   27.3230   46.6760 N   0  0  0  0  0  0  0  0  0  0  0  0
   60.4360   27.7190   48.0470 C   0  0  0  0  0  0  0  0  0  0  0  0
   60.5380   26.7190   49.0270 C   0  0  0  0  0  0  0  0  0  0  0  0
   60.7740   27.0540   50.3610 C   0  0  0  0  0  0  0  0  0  0  0  0
   60.8990   28.3920   50.7350 C   0  0  0  0  0  0  0  0  0  0  0  0
   60.7730   29.4010   49.7770 C   0  0  0  0  0  0  0  0  0  0  0  0
   60.5260   29.0810   48.4310 C   0  0  0  0  0  0  0  0  0  0  0  0
   60.3090   30.1730   47.4600 C   0  0  0  0  0  0  0  0  0  0  0  0
   61.1560   30.3600   46.5450 O   0  0  0  0  0  0  0  0  0  0  0  0
   59.1330   30.9960   47.5440 N   0  0  0  0  0  0  0  0  0  0  0  0
   58.9850   32.2670   46.8850 C   0  0  0  0  0  0  0  0  0  0  0  0
   60.1330   32.9970   46.5370 C   0  0  0  0  0  0  0  0  0  0  0  0
   60.0200   34.2160   45.8590 C   0  0  0  0  0  0  0  0  0  0  0  0
   58.7600   34.7080   45.5100 C   0  0  0  0  0  0  0  0  0  0  0  0
   57.6120   33.9820   45.8340 C   0  0  0  0  0  0  0  0  0  0  0  0
   57.7210   32.7650   46.5140 C   0  0  0  0  0  0  0  0  0  0  0  0
   55.0893   28.8672   43.1815 H   0  0  0  0  0  0  0  0  0  0  0  0
   55.6679   30.4936   41.3783 H   0  0  0  0  0  0  0  0  0  0  0  0
   59.0071   31.9189   43.7322 H   0  0  0  0  0  0  0  0  0  0  0  0
   58.4353   30.2918   45.5332 H   0  0  0  0  0  0  0  0  0  0  0  0
   55.9787   25.7407   45.7283 H   0  0  0  0  0  0  0  0  0  0  0  0
   59.2800   22.9758   45.4001 H   0  0  0  0  0  0  0  0  0  0  0  0
   60.8659   24.7730   46.0737 H   0  0  0  0  0  0  0  0  0  0  0  0
   60.6840   27.9210   45.9380 H   0  0  0  0  0  0  0  0  0  0  0  0
   60.4310   25.6623   48.7409 H   0  0  0  0  0  0  0  0  0  0  0  0
   60.8616   26.2616   51.1189 H   0  0  0  0  0  0  0  0  0  0  0  0
   61.0969   28.6529   51.7851 H   0  0  0  0  0  0  0  0  0  0  0  0
   60.8679   30.4546   50.0787 H   0  0  0  0  0  0  0  0  0  0  0  0
   58.3320   30.6560   48.1210 H   0  0  0  0  0  0  0  0  0  0  0  0
   61.1280   32.6080   46.7991 H   0  0  0  0  0  0  0  0  0  0  0  0
   60.9239   34.7871   45.6007 H   0  0  0  0  0  0  0  0  0  0  0  0
   58.6721   35.6677   44.9797 H   0  0  0  0  0  0  0  0  0  0  0  0
   56.6207   34.3679   45.5540 H   0  0  0  0  0  0  0  0  0  0  0  0
   56.8142   32.1933   46.7606 H   0  0  0  0  0  0  0  0  0  0  0  0
  1  2  2  0
  2  3  1  0
  3  4  1  0
  4  5  2  0
  5  6  1  0
  6  7  2  0
  7  8  1  0
  7  9  1  0
  9 10  2  0
  2 11  1  0
 11 12  2  0
 12 13  1  0
 13 14  1  0
 13 15  2  0
 15 16  1  0
 16 17  2  0
 17 18  1  0
 18 19  1  0
 19 20  2  0
 20 21  1  0
 21 22  2  0
 22 23  1  0
 23 24  2  0
 24 25  1  0
 25 26  2  0
 25 27  1  0
 27 28  1  0
 28 29  2  0
 29 30  1  0
 30 31  2  0
 31 32  1  0
 32 33  2  0
 10  4  1  0
 17 11  1  0
 24 19  1  0
 33 28  1  0
  5 34  1  0
  6 35  1  0
  9 36  1  0
 10 37  1  0
 12 38  1  0
 15 39  1  0
 16 40  1  0
 18 41  1  0
 20 42  1  0
 21 43  1  0
 22 44  1  0
 23 45  1  0
 27 46  1  0
 29 47  1  0
 30 48  1  0
 31 49  1  0
 32 50  1  0
 33 51  1  0
M  CHG  1   3  -1
M  END
>  <UniqueID>  (22) 
20

>  <SMILES>  (22) 
O=C([N-]c1ccc(Cl)cc1)c1cc(Cl)ccc1Nc1ccccc1C(=O)Nc1ccccc1

>  <Energy>  (22) 
76.75316221597338

>  <Genealogy>  (22) 
O=C([N-]c1ccc(Cl)cc1)c1cc(Cl)ccc1Nc1ccccc1C(=O)Nc1ccccc1 (protonated)
O=C([N-]c1ccc(Cl)cc1)c1cc(Cl)ccc1Nc1ccccc1C(=O)Nc1ccccc1 (3D coordinates assigned)
O=C([N-]c1ccc(Cl)cc1)c1cc(Cl)ccc1Nc1ccccc1C(=O)Nc1ccccc1 (optimized conformer: 76.75316221597338 kcal/mol)

>  <smiles>  (22) 
O=C(Nc1ccccc1)c1ccccc1Nc1ccc(Cl)cc1C(=O)Nc1ccc(Cl)cc1

>  <score_type>  (22) 
oracle

>  <origin>  (22) 
adg

>  <m_score__min__energy>  (22) 
-10.77

>  <m_primary>  (22) 
energy

$$$$
22:0
     RDKit          3D

 50 54  0  0  0  0  0  0  0  0999 V2000
   57.3870   32.3400   41.4160 Cl  0  0  0  0  0  0  0  0  0  0  0  0
   57.5890   31.6110   43.0040 C   0  0  0  0  0  0  0  0  0  0  0  0
   57.1230   30.3110   43.2210 C   0  0  0  0  0  0  0  0  0  0  0  0
   57.2660   29.7140   44.4760 C   0  0  0  0  0  0  0  0  0  0  0  0
   57.8770   30.4090   45.5230 C   0  0  0  0  0  0  0  0  0  0  0  0
   58.3500   31.7230   45.3250 C   0  0  0  0  0  0  0  0  0  0  0  0
   58.9620   32.4690   46.3570 C   0  0  0  0  0  0  0  0  0  0  0  0
   59.0830   31.9230   47.7270 C   0  0  0  0  0  0  0  0  0  0  0  0
   60.1210   31.0450   48.0530 C   0  0  0  0  0  0  0  0  0  0  0  0
   60.2760   30.6100   49.3710 C   0  0  0  0  0  0  0  0  0  0  0  0
   59.3920   31.0470   50.3630 C   0  0  0  0  0  0  0  0  0  0  0  0
   58.3460   31.9190   50.0510 C   0  0  0  0  0  0  0  0  0  0  0  0
   57.5320   32.3910   51.0940 O   0  0  0  0  0  0  0  0  0  0  0  0
   57.9230   32.4780   52.4350 C   0  0  0  0  0  0  0  0  0  0  0  0
   57.7920   31.3520   53.2570 C   0  0  0  0  0  0  0  0  0  0  0  0
   58.2410   31.3860   54.5810 C   0  0  0  0  0  0  0  0  0  0  0  0
   58.7880   32.5640   55.0980 C   0  0  0  0  0  0  0  0  0  0  0  0
   58.8800   33.7080   54.2960 C   0  0  0  0  0  0  0  0  0  0  0  0
   59.6350   35.3170   55.0000 Br  0  0  0  0  0  0  0  0  0  0  0  0
   58.4390   33.6700   52.9680 C   0  0  0  0  0  0  0  0  0  0  0  0
   58.1900   32.3480   48.7210 C   0  0  0  0  0  0  0  0  0  0  0  0
   59.3950   33.7870   46.0750 C   0  0  0  0  0  0  0  0  0  0  0  0
   60.0150   34.6840   47.1220 C   0  0  0  0  0  0  0  0  0  0  0  0
   61.3320   34.1400   47.6220 C   0  0  0  0  0  0  0  0  0  0  0  0
   61.6280   34.1570   48.9960 C   0  0  0  0  0  0  0  0  0  0  0  0
   62.8560   33.6720   49.4580 C   0  0  0  0  0  0  0  0  0  0  0  0
   63.7830   33.1380   48.5570 C   0  0  0  0  0  0  0  0  0  0  0  0
   63.4860   33.0960   47.1920 C   0  0  0  0  0  0  0  0  0  0  0  0
   62.2630   33.5890   46.7260 C   0  0  0  0  0  0  0  0  0  0  0  0
   59.2180   34.2910   44.8260 N   0  0  0  0  0  0  0  0  0  0  0  0
   58.6460   33.5850   43.8520 N   0  0  0  0  0  0  0  0  0  0  0  0
   58.2010   32.3180   44.0510 C   0  0  0  0  0  0  0  0  0  0  0  0
   56.6424   29.7566   42.4014 H   0  0  0  0  0  0  0  0  0  0  0  0
   56.8956   28.6914   44.6408 H   0  0  0  0  0  0  0  0  0  0  0  0
   57.9897   29.9291   46.5063 H   0  0  0  0  0  0  0  0  0  0  0  0
   60.8143   30.6975   47.2729 H   0  0  0  0  0  0  0  0  0  0  0  0
   61.0948   29.9224   49.6295 H   0  0  0  0  0  0  0  0  0  0  0  0
   59.5217   30.7007   51.3990 H   0  0  0  0  0  0  0  0  0  0  0  0
   57.3331   30.4350   52.8588 H   0  0  0  0  0  0  0  0  0  0  0  0
   58.1640   30.4891   55.2132 H   0  0  0  0  0  0  0  0  0  0  0  0
   59.1470   32.5923   56.1374 H   0  0  0  0  0  0  0  0  0  0  0  0
   58.4967   34.5731   52.3427 H   0  0  0  0  0  0  0  0  0  0  0  0
   57.3613   33.0220   48.4584 H   0  0  0  0  0  0  0  0  0  0  0  0
   60.1847   35.6782   46.6830 H   0  0  0  0  0  0  0  0  0  0  0  0
   59.3234   34.7398   47.9756 H   0  0  0  0  0  0  0  0  0  0  0  0
   60.8914   34.5531   49.7105 H   0  0  0  0  0  0  0  0  0  0  0  0
   63.0930   33.7106   50.5315 H   0  0  0  0  0  0  0  0  0  0  0  0
   64.7456   32.7512   48.9227 H   0  0  0  0  0  0  0  0  0  0  0  0
   64.2147   32.6749   46.4837 H   0  0  0  0  0  0  0  0  0  0  0  0
   62.0289   33.5450   45.6521 H   0  0  0  0  0  0  0  0  0  0  0  0
  1  2  1  0
  2  3  2  0
  3  4  1  0
  4  5  2  0
  5  6  1  0
  6  7  2  0
  7  8  1  0
  8  9  2  0
  9 10  1  0
 10 11  2  0
 11 12  1  0
 12 13  1  0
 13 14  1  0
 14 15  2  0
 15 16  1  0
 16 17  2  0
 17 18  1  0
 18 19  1  0
 18 20  2  0
 12 21  2  0
  7 22  1  0
 22 23  1  0
 23 24  1  0
 24 25  2  0
 25 26  1  0
 26 27  2  0
 27 28  1  0
 28 29  2  0
 22 30  2  0
 30 31  1  0
 31 32  2  0
 32  2  1  0
 32  6  1  0
 21  8  1  0
 29 24  1  0
 20 14  1  0
  3 33  1  0
  4 34  1  0
  5 35  1  0
  9 36  1  0
 10 37  1  0
 11 38  1  0
 15 39  1  0
 16 40  1  0
 17 41  1  0
 20 42  1  0
 21 43  1  0
 23 44  1  0
 23 45  1  0
 25 46  1  0
 26 47  1  0
 27 48  1  0
 28 49  1  0
 29 50  1  0
M  END
>  <UniqueID>  (23) 
21

>  <SMILES>  (23) 
Clc1cccc2c(-c3cccc(Oc4cccc(Br)c4)c3)c(Cc3ccccc3)nnc12

>  <Energy>  (23) 
73.17944277203235

>  <Genealogy>  (23) 
Clc1cccc2c(-c3cccc(Oc4cccc(Br)c4)c3)c(Cc3ccccc3)nnc12 (3D coordinates assigned)
Clc1cccc2c(-c3cccc(Oc4cccc(Br)c4)c3)c(Cc3ccccc3)nnc12 (optimized conformer: 73.17944277203235 kcal/mol)

>  <smiles>  (23) 
Clc1cccc2c(-c3cccc(Oc4cccc(Br)c4)c3)c(Cc3ccccc3)nnc12

>  <score_type>  (23) 
oracle

>  <origin>  (23) 
adg

>  <m_score__min__energy>  (23) 
-10.619999999999999

>  <m_primary>  (23) 
energy

$$$$
23:0
     RDKit          3D

 17 18  0  0  0  0  0  0  0  0999 V2000
   56.3880   30.6070   44.4870 O   0  0  0  0  0  0  0  0  0  0  0  0
   57.1540   31.5640   44.7770 C   0  0  0  0  0  0  0  0  0  0  0  0
   57.4030   31.8360   46.0560 O   0  0  0  0  0  0  0  0  0  0  0  0
   58.2010   32.8310   46.4350 C   0  0  0  0  0  0  0  0  0  0  0  0
   58.4240   33.0680   47.7950 C   0  0  0  0  0  0  0  0  0  0  0  0
   59.2640   34.1140   48.1950 C   0  0  0  0  0  0  0  0  0  0  0  0
   59.8810   34.9260   47.2380 C   0  0  0  0  0  0  0  0  0  0  0  0
   59.6640   34.6970   45.8750 C   0  0  0  0  0  0  0  0  0  0  0  0
   58.8240   33.6500   45.4680 C   0  0  0  0  0  0  0  0  0  0  0  0
   58.5810   33.3890   44.1160 C   0  0  0  0  0  0  0  0  0  0  0  0
   57.7370   32.3350   43.7610 C   0  0  0  0  0  0  0  0  0  0  0  0
   57.3990   31.9680   41.9140 Br  0  0  0  0  0  0  0  0  0  0  0  0
   57.9393   32.4324   48.5507 H   0  0  0  0  0  0  0  0  0  0  0  0
   59.4393   34.2978   49.2653 H   0  0  0  0  0  0  0  0  0  0  0  0
   60.5390   35.7474   47.5580 H   0  0  0  0  0  0  0  0  0  0  0  0
   60.1510   35.3366   45.1242 H   0  0  0  0  0  0  0  0  0  0  0  0
   59.0510   34.0090   43.3384 H   0  0  0  0  0  0  0  0  0  0  0  0
  1  2  2  0
  2  3  1  0
  3  4  1  0
  4  5  2  0
  5  6  1  0
  6  7  2  0
  7  8  1  0
  8  9  2  0
  9 10  1  0
 10 11  2  0
 11 12  1  0
 11  2  1  0
  9  4  1  0
  5 13  1  0
  6 14  1  0
  7 15  1  0
  8 16  1  0
 10 17  1  0
M  END
>  <UniqueID>  (24) 
22

>  <SMILES>  (24) 
O=c1oc2ccccc2cc1Br

>  <Energy>  (24) 
22.2158984497055

>  <Genealogy>  (24) 
O=c1oc2ccccc2cc1Br (3D coordinates assigned)
O=c1oc2ccccc2cc1Br (optimized conformer: 22.2158984497055 kcal/mol)

>  <smiles>  (24) 
O=c1oc2ccccc2cc1Br

>  <score_type>  (24) 
oracle

>  <origin>  (24) 
adg

>  <m_score__min__energy>  (24) 
-6.1900000000000004

>  <m_primary>  (24) 
energy

$$$$
24:0
     RDKit          3D

 32 34  0  0  0  0  0  0  0  0999 V2000
   63.3970   33.5500   48.3860 C   0  0  0  0  0  0  0  0  0  0  0  0
   62.0330   33.9560   48.4300 O   0  0  0  0  0  0  0  0  0  0  0  0
   61.0680   33.5990   47.4760 C   0  0  0  0  0  0  0  0  0  0  0  0
   60.5310   34.6040   46.6700 C   0  0  0  0  0  0  0  0  0  0  0  0
   59.5760   34.3200   45.6860 C   0  0  0  0  0  0  0  0  0  0  0  0
   59.1750   35.3880   44.8790 O   0  0  0  0  0  0  0  0  0  0  0  0
   59.0890   32.9880   45.5430 C   0  0  0  0  0  0  0  0  0  0  0  0
   58.0460   32.6000   44.6680 C   0  0  0  0  0  0  0  0  0  0  0  0
   57.4050   33.4380   43.9820 O   0  0  0  0  0  0  0  0  0  0  0  0
   57.6790   31.2570   44.5780 C   0  0  0  0  0  0  0  0  0  0  0  0
   58.3260   30.3070   45.3800 C   0  0  0  0  0  0  0  0  0  0  0  0
   57.9760   28.8650   45.3250 C   0  0  0  0  0  0  0  0  0  0  0  0
   58.9220   27.8870   44.9590 C   0  0  0  0  0  0  0  0  0  0  0  0
   58.5670   26.5350   44.9260 C   0  0  0  0  0  0  0  0  0  0  0  0
   57.2700   26.1400   45.2650 C   0  0  0  0  0  0  0  0  0  0  0  0
   56.9240   24.7940   45.2300 O   0  0  0  0  0  0  0  0  0  0  0  0
   56.3250   27.1000   45.6430 C   0  0  0  0  0  0  0  0  0  0  0  0
   55.0350   26.7120   45.9860 O   0  0  0  0  0  0  0  0  0  0  0  0
   56.6770   28.4540   45.6780 C   0  0  0  0  0  0  0  0  0  0  0  0
   59.2640   30.7050   46.2330 O   0  0  0  0  0  0  0  0  0  0  0  0
   59.6560   31.9700   46.3540 C   0  0  0  0  0  0  0  0  0  0  0  0
   60.6340   32.2770   47.3030 C   0  0  0  0  0  0  0  0  0  0  0  0
   63.7790   33.4363   49.4113 H   0  0  0  0  0  0  0  0  0  0  0  0
   63.4767   32.5892   47.8564 H   0  0  0  0  0  0  0  0  0  0  0  0
   63.9891   34.3108   47.8564 H   0  0  0  0  0  0  0  0  0  0  0  0
   60.8654   35.6424   46.8109 H   0  0  0  0  0  0  0  0  0  0  0  0
   58.4230   35.3530   44.2070 H   0  0  0  0  0  0  0  0  0  0  0  0
   56.8865   30.9455   43.8817 H   0  0  0  0  0  0  0  0  0  0  0  0
   59.9468   28.1892   44.6974 H   0  0  0  0  0  0  0  0  0  0  0  0
   59.3110   25.7798   44.6323 H   0  0  0  0  0  0  0  0  0  0  0  0
   55.9322   29.2034   45.9840 H   0  0  0  0  0  0  0  0  0  0  0  0
   61.0670   31.4754   47.9194 H   0  0  0  0  0  0  0  0  0  0  0  0
  1  2  1  0
  2  3  1  0
  3  4  2  0
  4  5  1  0
  5  6  1  0
  5  7  2  0
  7  8  1  0
  8  9  2  0
  8 10  1  0
 10 11  2  0
 11 12  1  0
 12 13  2  0
 13 14  1  0
 14 15  2  0
 15 16  1  0
 15 17  1  0
 17 18  1  0
 17 19  2  0
 11 20  1  0
 20 21  1  0
 21 22  2  0
 22  3  1  0
 21  7  1  0
 19 12  1  0
  1 23  1  0
  1 24  1  0
  1 25  1  0
  4 26  1  0
  6 27  1  0
 10 28  1  0
 13 29  1  0
 14 30  1  0
 19 31  1  0
 22 32  1  0
M  CHG  2  16  -1  18  -1
M  END
>  <UniqueID>  (25) 
23

>  <SMILES>  (25) 
COc1cc(O)c2c(=O)cc(-c3ccc([O-])c([O-])c3)oc2c1

>  <Energy>  (25) 
49.59001479985464

>  <Genealogy>  (25) 
COc1cc(O)c2c(=O)cc(-c3ccc([O-])c([O-])c3)oc2c1 (protonated)
COc1cc(O)c2c(=O)cc(-c3ccc([O-])c([O-])c3)oc2c1 (3D coordinates assigned)
COc1cc(O)c2c(=O)cc(-c3ccc([O-])c([O-])c3)oc2c1 (optimized conformer: 49.59001479985464 kcal/mol)

>  <smiles>  (25) 
COc1cc(O)c2c(=O)cc(-c3ccc(O)c(O)c3)oc2c1

>  <score_type>  (25) 
oracle

>  <origin>  (25) 
adg

>  <m_score__min__energy>  (25) 
-13.92

>  <m_primary>  (25) 
energy

$$$$
25:0
     RDKit          3D

 51 53  0  0  0  0  0  0  0  0999 V2000
   55.0690   28.5070   53.8810 C   0  0  0  0  0  0  0  0  0  0  0  0
   55.4430   29.9820   54.0340 C   0  0  0  0  0  0  0  0  0  0  0  0
   54.7610   30.8100   53.0210 N   0  0  0  0  0  0  0  0  0  0  0  0
   55.5420   31.5520   52.0210 C   0  0  0  0  0  0  0  0  0  0  0  0
   56.8830   30.9190   51.8200 C   0  0  0  0  0  0  0  0  0  0  0  0
   56.9750   29.6620   51.7460 O   0  0  0  0  0  0  0  0  0  0  0  0
   58.0550   31.7460   51.7740 N   0  0  0  0  0  0  0  0  0  0  0  0
   58.6510   32.3020   50.5930 C   0  0  0  0  0  0  0  0  0  0  0  0
   59.3020   33.5360   50.6880 C   0  0  0  0  0  0  0  0  0  0  0  0
   59.9020   34.1070   49.5640 C   0  0  0  0  0  0  0  0  0  0  0  0
   59.8370   33.4620   48.3240 C   0  0  0  0  0  0  0  0  0  0  0  0
   60.6350   34.2200   46.9510 Cl  0  0  0  0  0  0  0  0  0  0  0  0
   59.1470   32.2370   48.2050 C   0  0  0  0  0  0  0  0  0  0  0  0
   59.0340   31.3980   46.6490 S   0  0  0  0  0  0  0  0  0  0  0  0
   59.0270   32.4320   45.5530 O   0  0  0  0  0  0  0  0  0  0  0  0
   57.7460   30.6260   46.5760 O   0  0  0  0  0  0  0  0  0  0  0  0
   60.4090   30.3300   46.4490 N   0  0  0  0  0  0  0  0  0  0  0  0
   60.8700   29.7540   47.7280 C   0  0  0  0  0  0  0  0  0  0  0  0
   60.0400   28.5300   48.1480 C   0  0  0  0  0  0  0  0  0  0  0  0
   60.0190   27.5600   47.1210 O   0  0  0  0  0  0  0  0  0  0  0  0
   59.3840   28.0950   45.9780 C   0  0  0  0  0  0  0  0  0  0  0  0
   60.1700   29.2940   45.4240 C   0  0  0  0  0  0  0  0  0  0  0  0
   58.5570   31.6660   49.3430 C   0  0  0  0  0  0  0  0  0  0  0  0
   53.3200   30.8570   52.9640 C   0  0  0  0  0  0  0  0  0  0  0  0
   52.6530   30.7950   54.0320 O   0  0  0  0  0  0  0  0  0  0  0  0
   52.6020   30.9850   51.6830 C   0  0  0  0  0  0  0  0  0  0  0  0
   52.4270   29.9750   50.7530 C   0  0  0  0  0  0  0  0  0  0  0  0
   51.6570   30.5100   49.7460 C   0  0  0  0  0  0  0  0  0  0  0  0
   51.4010   31.8090   50.1210 C   0  0  0  0  0  0  0  0  0  0  0  0
   50.6440   32.7120   49.3830 O   0  0  0  0  0  0  0  0  0  0  0  0
   51.9650   32.1130   51.3050 N   0  0  0  0  0  0  0  0  0  0  0  0
   54.9538   28.0528   54.8762 H   0  0  0  0  0  0  0  0  0  0  0  0
   54.1215   28.4244   53.3284 H   0  0  0  0  0  0  0  0  0  0  0  0
   55.8627   27.9829   53.3284 H   0  0  0  0  0  0  0  0  0  0  0  0
   55.1482   30.3254   55.0366 H   0  0  0  0  0  0  0  0  0  0  0  0
   56.5294   30.0835   53.8949 H   0  0  0  0  0  0  0  0  0  0  0  0
   54.9967   31.5535   51.0657 H   0  0  0  0  0  0  0  0  0  0  0  0
   55.6875   32.5817   52.3794 H   0  0  0  0  0  0  0  0  0  0  0  0
   59.3416   34.0601   51.6543 H   0  0  0  0  0  0  0  0  0  0  0  0
   60.4284   35.0687   49.6537 H   0  0  0  0  0  0  0  0  0  0  0  0
   61.9213   29.4487   47.6203 H   0  0  0  0  0  0  0  0  0  0  0  0
   60.7534   30.5233   48.5056 H   0  0  0  0  0  0  0  0  0  0  0  0
   60.4827   28.0876   49.0526 H   0  0  0  0  0  0  0  0  0  0  0  0
   59.0081   28.8556   48.3458 H   0  0  0  0  0  0  0  0  0  0  0  0
   59.3214   27.3165   45.2034 H   0  0  0  0  0  0  0  0  0  0  0  0
   58.3776   28.4360   46.2626 H   0  0  0  0  0  0  0  0  0  0  0  0
   61.1405   28.9376   45.0484 H   0  0  0  0  0  0  0  0  0  0  0  0
   59.5701   29.7474   44.6211 H   0  0  0  0  0  0  0  0  0  0  0  0
   58.0161   30.7121   49.2561 H   0  0  0  0  0  0  0  0  0  0  0  0
   52.8237   28.9505   50.8079 H   0  0  0  0  0  0  0  0  0  0  0  0
   51.3165   30.0040   48.8306 H   0  0  0  0  0  0  0  0  0  0  0  0
  1  2  1  0
  2  3  1  0
  3  4  1  0
  4  5  1  0
  5  6  2  0
  5  7  1  0
  7  8  1  0
  8  9  2  0
  9 10  1  0
 10 11  2  0
 11 12  1  0
 11 13  1  0
 13 14  1  0
 14 15  2  0
 14 16  2  0
 14 17  1  0
 17 18  1  0
 18 19  1  0
 19 20  1  0
 20 21  1  0
 21 22  1  0
 13 23  2  0
  3 24  1  0
 24 25  2  0
 24 26  1  0
 26 27  2  0
 27 28  1  0
 28 29  2  0
 29 30  1  0
 29 31  1  0
 23  8  1  0
 31 26  1  0
 22 17  1  0
  1 32  1  0
  1 33  1  0
  1 34  1  0
  2 35  1  0
  2 36  1  0
  4 37  1  0
  4 38  1  0
  9 39  1  0
 10 40  1  0
 18 41  1  0
 18 42  1  0
 19 43  1  0
 19 44  1  0
 21 45  1  0
 21 46  1  0
 22 47  1  0
 22 48  1  0
 23 49  1  0
 27 50  1  0
 28 51  1  0
M  CHG  3   7  -1  30  -1  31  -1
M  END
>  <UniqueID>  (26) 
24

>  <SMILES>  (26) 
CCN(CC(=O)[N-]c1ccc(Cl)c(S(=O)(=O)N2CCOCC2)c1)C(=O)c1ccc([O-])[n-]1

>  <Energy>  (26) 
85.25257327672745

>  <Genealogy>  (26) 
CCN(CC(=O)[N-]c1ccc(Cl)c(S(=O)(=O)N2CCOCC2)c1)C(=O)c1ccc([O-])[n-]1 (protonated)
CCN(CC(=O)[N-]c1ccc(Cl)c(S(=O)(=O)N2CCOCC2)c1)C(=O)c1ccc([O-])[n-]1 (3D coordinates assigned)
CCN(CC(=O)[N-]c1ccc(Cl)c(S(=O)(=O)N2CCOCC2)c1)C(=O)c1ccc([O-])[n-]1 (nonaromatic ring conformer: 85.25257327672745 kcal/mol)

>  <smiles>  (26) 
CCN(CC(=O)Nc1ccc(Cl)c(S(=O)(=O)N2CCOCC2)c1)C(=O)c1ccc(O)[nH]1

>  <score_type>  (26) 
oracle

>  <origin>  (26) 
adg

>  <m_score__min__energy>  (26) 
-15.42

>  <m_primary>  (26) 
energy

$$$$
26:0
     RDKit          3D

 45 47  0  0  0  0  0  0  0  0999 V2000
   57.0100   29.3170   43.8880 C   0  0  0  0  0  0  0  0  0  0  0  0
   57.4740   28.1440   44.6470 N   0  0  0  0  0  0  0  0  0  0  0  0
   57.3850   28.4160   46.1000 C   0  0  0  0  0  0  0  0  0  0  0  0
   58.2570   27.4770   46.9500 C   0  0  0  0  0  0  0  0  0  0  0  0
   59.7580   27.8280   46.9650 C   0  0  0  0  0  0  0  0  0  0  0  0
   60.1000   28.8710   45.9810 N   0  0  0  0  0  0  0  0  0  0  0  0
   60.4250   30.2010   46.4390 C   0  0  0  0  0  0  0  0  0  0  0  0
   61.5580   30.4060   47.1640 N   0  0  0  0  0  0  0  0  0  0  0  0
   61.8930   31.6360   47.6270 C   0  0  0  0  0  0  0  0  0  0  0  0
   63.0650   31.8060   48.3710 C   0  0  0  0  0  0  0  0  0  0  0  0
   63.4120   33.0720   48.8530 C   0  0  0  0  0  0  0  0  0  0  0  0
   62.5880   34.1700   48.5930 C   0  0  0  0  0  0  0  0  0  0  0  0
   61.4140   34.0100   47.8500 C   0  0  0  0  0  0  0  0  0  0  0  0
   61.0570   32.7400   47.3600 C   0  0  0  0  0  0  0  0  0  0  0  0
   59.8890   32.5140   46.6050 C   0  0  0  0  0  0  0  0  0  0  0  0
   58.9900   33.5850   46.2830 N   0  0  0  0  0  0  0  0  0  0  0  0
   57.8160   33.8190   47.1200 C   0  0  0  0  0  0  0  0  0  0  0  0
   59.3770   34.5820   45.2870 C   0  0  0  0  0  0  0  0  0  0  0  0
   59.6030   31.2570   46.1650 N   0  0  0  0  0  0  0  0  0  0  0  0
   59.9810   28.6080   44.5330 C   0  0  0  0  0  0  0  0  0  0  0  0
   58.8000   27.6830   44.1630 C   0  0  0  0  0  0  0  0  0  0  0  0
   56.6978   30.1063   44.5876 H   0  0  0  0  0  0  0  0  0  0  0  0
   57.8279   29.6909   43.2546 H   0  0  0  0  0  0  0  0  0  0  0  0
   56.1576   29.0302   43.2546 H   0  0  0  0  0  0  0  0  0  0  0  0
   57.7079   29.4517   46.2816 H   0  0  0  0  0  0  0  0  0  0  0  0
   56.3397   28.2488   46.3989 H   0  0  0  0  0  0  0  0  0  0  0  0
   57.8872   27.5101   47.9855 H   0  0  0  0  0  0  0  0  0  0  0  0
   58.1761   26.4798   46.4927 H   0  0  0  0  0  0  0  0  0  0  0  0
   60.0269   28.1876   47.9692 H   0  0  0  0  0  0  0  0  0  0  0  0
   60.3181   26.9192   46.6996 H   0  0  0  0  0  0  0  0  0  0  0  0
   63.7147   30.9427   48.5773 H   0  0  0  0  0  0  0  0  0  0  0  0
   64.3346   33.2035   49.4374 H   0  0  0  0  0  0  0  0  0  0  0  0
   62.8638   35.1643   48.9742 H   0  0  0  0  0  0  0  0  0  0  0  0
   60.7689   34.8779   47.6484 H   0  0  0  0  0  0  0  0  0  0  0  0
   58.1041   33.7616   48.1800 H   0  0  0  0  0  0  0  0  0  0  0  0
   57.4055   34.8166   46.9051 H   0  0  0  0  0  0  0  0  0  0  0  0
   57.0543   33.0550   46.9051 H   0  0  0  0  0  0  0  0  0  0  0  0
   59.7299   35.4910   45.7961 H   0  0  0  0  0  0  0  0  0  0  0  0
   60.1835   34.1777   44.6576 H   0  0  0  0  0  0  0  0  0  0  0  0
   58.5089   34.8277   44.6576 H   0  0  0  0  0  0  0  0  0  0  0  0
   58.7420   31.1190   45.5920 H   0  0  0  0  0  0  0  0  0  0  0  0
   59.8441   29.5692   44.0159 H   0  0  0  0  0  0  0  0  0  0  0  0
   60.9018   28.0916   44.2241 H   0  0  0  0  0  0  0  0  0  0  0  0
   58.7563   27.6054   43.0666 H   0  0  0  0  0  0  0  0  0  0  0  0
   58.9933   26.7200   44.6583 H   0  0  0  0  0  0  0  0  0  0  0  0
  1  2  1  0
  2  3  1  0
  3  4  1  0
  4  5  1  0
  5  6  1  0
  6  7  1  0
  7  8  2  0
  8  9  1  0
  9 10  2  0
 10 11  1  0
 11 12  2  0
 12 13  1  0
 13 14  2  0
 14 15  1  0
 15 16  1  0
 16 17  1  0
 16 18  1  0
 15 19  2  0
  6 20  1  0
 20 21  1  0
 21  2  1  0
 19  7  1  0
 14  9  1  0
  1 22  1  0
  1 23  1  0
  1 24  1  0
  3 25  1  0
  3 26  1  0
  4 27  1  0
  4 28  1  0
  5 29  1  0
  5 30  1  0
 10 31  1  0
 11 32  1  0
 12 33  1  0
 13 34  1  0
 17 35  1  0
 17 36  1  0
 17 37  1  0
 18 38  1  0
 18 39  1  0
 18 40  1  0
 19 41  1  0
 20 42  1  0
 20 43  1  0
 21 44  1  0
 21 45  1  0
M  CHG  1  19   1
M  END
>  <UniqueID>  (27) 
25

>  <SMILES>  (27) 
CN1CCCN(c2nc3ccccc3c(N(C)C)[nH+]2)CC1

>  <Energy>  (27) 
67.2190700093956

>  <Genealogy>  (27) 
CN1CCCN(c2nc3ccccc3c(N(C)C)[nH+]2)CC1 (protonated)
CN1CCCN(c2nc3ccccc3c(N(C)C)[nH+]2)CC1 (3D coordinates assigned)
CN1CCCN(c2nc3ccccc3c(N(C)C)[nH+]2)CC1 (nonaromatic ring conformer: 67.2190700093956 kcal/mol)

>  <smiles>  (27) 
CN1CCCN(c2nc(N(C)C)c3ccccc3n2)CC1

>  <score_type>  (27) 
oracle

>  <origin>  (27) 
adg

>  <m_score__min__energy>  (27) 
-2.9700000000000002

>  <m_primary>  (27) 
energy

$$$$
27:0
     RDKit          3D

 61 66  0  0  0  0  0  0  0  0999 V2000
   58.1360   32.5880   43.2400 O   0  0  0  0  0  0  0  0  0  0  0  0
   57.4220   32.7680   44.2630 C   0  0  0  0  0  0  0  0  0  0  0  0
   57.3390   34.1340   44.8710 C   0  0  0  0  0  0  0  0  0  0  0  0
   57.9310   34.1480   46.1690 O   0  0  0  0  0  0  0  0  0  0  0  0
   59.2180   33.6800   46.4790 C   0  0  0  0  0  0  0  0  0  0  0  0
   60.3840   34.4210   46.1980 C   0  0  0  0  0  0  0  0  0  0  0  0
   61.6410   33.9110   46.5370 C   0  0  0  0  0  0  0  0  0  0  0  0
   61.7500   32.6600   47.1520 C   0  0  0  0  0  0  0  0  0  0  0  0
   63.3280   32.0240   47.5800 Cl  0  0  0  0  0  0  0  0  0  0  0  0
   60.5980   31.9180   47.4290 C   0  0  0  0  0  0  0  0  0  0  0  0
   59.3400   32.4260   47.0920 C   0  0  0  0  0  0  0  0  0  0  0  0
   56.7170   31.6790   44.8810 N   0  0  0  0  0  0  0  0  0  0  0  0
   56.8970   30.4130   44.6430 C   0  0  0  0  0  0  0  0  0  0  0  0
   56.6640   29.4280   45.5550 N   0  0  0  0  0  0  0  0  0  0  0  0
   56.9960   28.3170   44.8730 C   0  0  0  0  0  0  0  0  0  0  0  0
   56.9520   27.0000   45.3210 C   0  0  0  0  0  0  0  0  0  0  0  0
   57.3660   25.9750   44.4320 C   0  0  0  0  0  0  0  0  0  0  0  0
   57.3140   24.5060   44.8410 C   0  0  2  0  0  0  0  0  0  0  0  0
   57.8570   23.6520   43.8620 O   0  0  0  0  0  0  0  0  0  0  0  0
   55.9030   24.0690   45.1870 C   0  0  0  0  0  0  0  0  0  0  0  0
   54.7690   24.0670   44.3700 C   0  0  0  0  0  0  0  0  0  0  0  0
   53.5470   23.6370   44.9160 C   0  0  0  0  0  0  0  0  0  0  0  0
   53.4730   23.2230   46.2610 C   0  0  0  0  0  0  0  0  0  0  0  0
   54.6200   23.2360   47.0710 C   0  0  0  0  0  0  0  0  0  0  0  0
   55.8190   23.6640   46.5030 C   0  0  0  0  0  0  0  0  0  0  0  0
   57.1270   23.8090   47.0850 C   0  0  0  0  0  0  0  0  0  0  0  0
   57.4300   23.5610   48.2820 O   0  0  0  0  0  0  0  0  0  0  0  0
   58.0390   24.3070   46.1080 N   0  0  0  0  0  0  0  0  0  0  0  0
   59.4610   24.5730   46.3320 C   0  0  0  0  0  0  0  0  0  0  0  0
   59.6750   26.0240   46.6630 C   0  0  0  0  0  0  0  0  0  0  0  0
   59.2600   26.5320   47.9070 C   0  0  0  0  0  0  0  0  0  0  0  0
   59.4300   27.8880   48.2060 C   0  0  0  0  0  0  0  0  0  0  0  0
   60.0080   28.7450   47.2650 C   0  0  0  0  0  0  0  0  0  0  0  0
   60.4170   28.2490   46.0230 C   0  0  0  0  0  0  0  0  0  0  0  0
   60.2510   26.8940   45.7210 C   0  0  0  0  0  0  0  0  0  0  0  0
   57.7760   26.3270   43.1130 C   0  0  0  0  0  0  0  0  0  0  0  0
   57.8050   27.6690   42.6970 C   0  0  0  0  0  0  0  0  0  0  0  0
   57.4090   28.6350   43.6140 C   0  0  0  0  0  0  0  0  0  0  0  0
   57.3510   29.9620   43.4480 N   0  0  0  0  0  0  0  0  0  0  0  0
   57.8695   34.8490   44.2250 H   0  0  0  0  0  0  0  0  0  0  0  0
   56.2795   34.4147   44.9638 H   0  0  0  0  0  0  0  0  0  0  0  0
   60.3046   35.4038   45.7104 H   0  0  0  0  0  0  0  0  0  0  0  0
   62.5469   34.4957   46.3192 H   0  0  0  0  0  0  0  0  0  0  0  0
   60.6815   30.9335   47.9126 H   0  0  0  0  0  0  0  0  0  0  0  0
   58.4377   31.8359   47.3101 H   0  0  0  0  0  0  0  0  0  0  0  0
   56.6055   26.7604   46.3371 H   0  0  0  0  0  0  0  0  0  0  0  0
   57.3250   23.7680   43.0310 H   0  0  0  0  0  0  0  0  0  0  0  0
   54.8314   24.3950   43.3219 H   0  0  0  0  0  0  0  0  0  0  0  0
   52.6430   23.6236   44.2895 H   0  0  0  0  0  0  0  0  0  0  0  0
   52.5120   22.8880   46.6784 H   0  0  0  0  0  0  0  0  0  0  0  0
   54.5738   22.9178   48.1229 H   0  0  0  0  0  0  0  0  0  0  0  0
   59.8187   23.9536   47.1677 H   0  0  0  0  0  0  0  0  0  0  0  0
   60.0191   24.3290   45.4161 H   0  0  0  0  0  0  0  0  0  0  0  0
   58.8002   25.8609   48.6474 H   0  0  0  0  0  0  0  0  0  0  0  0
   59.1086   28.2801   49.1822 H   0  0  0  0  0  0  0  0  0  0  0  0
   60.1413   29.8109   47.5017 H   0  0  0  0  0  0  0  0  0  0  0  0
   60.8697   28.9255   45.2831 H   0  0  0  0  0  0  0  0  0  0  0  0
   60.5723   26.5073   44.7426 H   0  0  0  0  0  0  0  0  0  0  0  0
   58.0744   25.5357   42.4096 H   0  0  0  0  0  0  0  0  0  0  0  0
   58.1293   27.9446   41.6827 H   0  0  0  0  0  0  0  0  0  0  0  0
   57.6000   30.5180   42.5990 H   0  0  0  0  0  0  0  0  0  0  0  0
  1  2  2  0
  2  3  1  0
  3  4  1  0
  4  5  1  0
  5  6  2  0
  6  7  1  0
  7  8  2  0
  8  9  1  0
  8 10  1  0
 10 11  2  0
  2 12  1  0
 12 13  2  3
 13 14  1  0
 14 15  1  0
 15 16  2  0
 16 17  1  0
 17 18  1  0
 18 19  1  6
 18 20  1  0
 20 21  2  0
 21 22  1  0
 22 23  2  0
 23 24  1  0
 24 25  2  0
 25 26  1  0
 26 27  2  0
 26 28  1  0
 28 29  1  0
 29 30  1  0
 30 31  2  0
 31 32  1  0
 32 33  2  0
 33 34  1  0
 34 35  2  0
 17 36  2  0
 36 37  1  0
 37 38  2  0
 38 39  1  0
 11  5  1  0
 39 13  1  0
 38 15  1  0
 28 18  1  0
 35 30  1  0
 25 20  1  0
  3 40  1  0
  3 41  1  0
  6 42  1  0
  7 43  1  0
 10 44  1  0
 11 45  1  0
 16 46  1  0
 19 47  1  0
 21 48  1  0
 22 49  1  0
 23 50  1  0
 24 51  1  0
 29 52  1  0
 29 53  1  0
 31 54  1  0
 32 55  1  0
 33 56  1  0
 34 57  1  0
 35 58  1  0
 36 59  1  0
 37 60  1  0
 39 61  1  0
M  CHG  1  14  -1
M  END
>  <UniqueID>  (28) 
26

>  <SMILES>  (28) 
O=C(COc1ccc(Cl)cc1)N=c1[n-]c2cc([C@]3(O)c4ccccc4C(=O)N3Cc3ccccc3)ccc2[nH]1

>  <Energy>  (28) 
129.0504507610441

>  <Genealogy>  (28) 
O=C(COc1ccc(Cl)cc1)N=c1[n-]c2cc(C3(O)c4ccccc4C(=O)N3Cc3ccccc3)ccc2[nH]1 (protonated)
O=C(COc1ccc(Cl)cc1)N=c1[n-]c2cc([C@]3(O)c4ccccc4C(=O)N3Cc3ccccc3)ccc2[nH]1 (chirality)
O=C(COc1ccc(Cl)cc1)N=c1[n-]c2cc([C@]3(O)c4ccccc4C(=O)N3Cc3ccccc3)ccc2[nH]1 (3D coordinates assigned)
O=C(COc1ccc(Cl)cc1)N=c1[n-]c2cc([C@]3(O)c4ccccc4C(=O)N3Cc3ccccc3)ccc2[nH]1 (nonaromatic ring conformer: 129.0504507610441 kcal/mol)

>  <smiles>  (28) 
O=C(COc1ccc(Cl)cc1)N=c1[nH]c2ccc(C3(O)c4ccccc4C(=O)N3Cc3ccccc3)cc2[nH]1

>  <score_type>  (28) 
oracle

>  <origin>  (28) 
adg

>  <m_score__min__energy>  (28) 
-11.16

>  <m_primary>  (28) 
energy

$$$$
28:0
     RDKit          3D

 34 36  0  0  0  0  0  0  0  0999 V2000
   55.1520   29.8190   44.8760 O   0  0  0  0  0  0  0  0  0  0  0  0
   56.2890   29.2800   44.8250 C   0  0  0  0  0  0  0  0  0  0  0  0
   56.5140   27.9950   45.4220 N   0  0  0  0  0  0  0  0  0  0  0  0
   57.7630   27.5340   45.8730 N   0  0  0  0  0  0  0  0  0  0  0  0
   58.8830   27.2880   45.1710 C   0  0  0  0  0  0  0  0  0  0  0  0
   59.8920   26.9580   45.9990 N   0  0  0  0  0  0  0  0  0  0  0  0
   59.4160   27.0040   47.2380 N   0  0  0  0  0  0  0  0  0  0  0  0
   58.1220   27.3650   47.1530 C   0  0  0  0  0  0  0  0  0  0  0  0
   57.4280   30.0100   44.1560 C   0  0  1  0  0  0  0  0  0  0  0  0
   56.9120   30.7710   42.8980 C   0  0  0  0  0  0  0  0  0  0  0  0
   57.7890   31.9890   42.5440 C   0  0  0  0  0  0  0  0  0  0  0  0
   57.8750   33.0200   43.7000 C   0  0  0  0  0  0  0  0  0  0  0  0
   57.6490   32.3680   45.0800 C   0  0  2  0  0  0  0  0  0  0  0  0
   58.3200   33.0630   46.2590 C   0  0  0  0  0  0  0  0  0  0  0  0
   58.5750   31.9550   47.2920 C   0  0  0  0  0  0  0  0  0  0  0  0
   58.2960   30.6150   46.5970 C   0  0  0  0  0  0  0  0  0  0  0  0
   58.2120   30.9580   45.1110 C   0  0  1  0  0  0  0  0  0  0  0  0
   58.9635   27.3479   44.0756 H   0  0  0  0  0  0  0  0  0  0  0  0
   57.4522   27.5022   48.0147 H   0  0  0  0  0  0  0  0  0  0  0  0
   58.1545   29.2448   43.8452 H   0  0  0  0  0  0  0  0  0  0  0  0
   56.9086   30.0784   42.0434 H   0  0  0  0  0  0  0  0  0  0  0  0
   55.9007   31.1411   43.1225 H   0  0  0  0  0  0  0  0  0  0  0  0
   58.8044   31.6359   42.3109 H   0  0  0  0  0  0  0  0  0  0  0  0
   57.3263   32.4929   41.6826 H   0  0  0  0  0  0  0  0  0  0  0  0
   58.8719   33.4848   43.6867 H   0  0  0  0  0  0  0  0  0  0  0  0
   57.0828   33.7674   43.5457 H   0  0  0  0  0  0  0  0  0  0  0  0
   56.5565   32.4250   45.1947 H   0  0  0  0  0  0  0  0  0  0  0  0
   59.2687   33.5233   45.9457 H   0  0  0  0  0  0  0  0  0  0  0  0
   57.6947   33.8697   46.6692 H   0  0  0  0  0  0  0  0  0  0  0  0
   59.6197   31.9919   47.6344 H   0  0  0  0  0  0  0  0  0  0  0  0
   57.9253   32.0825   48.1704 H   0  0  0  0  0  0  0  0  0  0  0  0
   59.1132   29.9031   46.7850 H   0  0  0  0  0  0  0  0  0  0  0  0
   57.3759   30.1386   46.9664 H   0  0  0  0  0  0  0  0  0  0  0  0
   59.2225   30.8405   44.6925 H   0  0  0  0  0  0  0  0  0  0  0  0
  1  2  2  0
  2  3  1  0
  3  4  1  0
  4  5  1  0
  5  6  2  0
  6  7  1  0
  7  8  2  0
  2  9  1  0
  9 10  1  0
 10 11  1  0
 11 12  1  0
 12 13  1  0
 13 14  1  0
 14 15  1  0
 15 16  1  0
 16 17  1  0
  8  4  1  0
 17  9  1  0
 17 13  1  0
  5 18  1  0
  8 19  1  0
  9 20  1  6
 10 21  1  0
 10 22  1  0
 11 23  1  0
 11 24  1  0
 12 25  1  0
 12 26  1  0
 13 27  1  1
 14 28  1  0
 14 29  1  0
 15 30  1  0
 15 31  1  0
 16 32  1  0
 16 33  1  0
 17 34  1  6
M  CHG  1   3  -1
M  END
>  <UniqueID>  (29) 
27

>  <SMILES>  (29) 
O=C([N-]n1cnnc1)[C@H]1CCC[C@@H]2CCCC21

>  <Energy>  (29) 
82.18295721379542

>  <Genealogy>  (29) 
O=C([N-]n1cnnc1)C1CCCC2CCCC21 (protonated)
O=C([N-]n1cnnc1)[C@H]1CCC[C@@H]2CCCC21 (chirality)
O=C([N-]n1cnnc1)[C@H]1CCC[C@@H]2CCCC21 (3D coordinates assigned)
O=C([N-]n1cnnc1)[C@H]1CCC[C@@H]2CCCC21 (nonaromatic ring conformer: 82.18295721379542 kcal/mol)

>  <smiles>  (29) 
O=C(Nn1cnnc1)C1CCCC2CCCC21

>  <score_type>  (29) 
oracle

>  <origin>  (29) 
adg

>  <m_score__min__energy>  (29) 
-8.75

>  <m_primary>  (29) 
energy

$$$$
29:0
     RDKit          3D

 31 32  0  0  0  0  0  0  0  0999 V2000
   58.8388   34.9655   46.9083 H   0  0  0  0  0  0  0  0  0  0  0  0
   58.5250   34.1130   46.2880 C   0  0  0  0  0  0  0  0  0  0  0  0
   58.1910   32.8980   46.8900 C   0  0  0  0  0  0  0  0  0  0  0  0
   58.2393   32.7954   47.9841 H   0  0  0  0  0  0  0  0  0  0  0  0
   57.7950   31.8110   46.1030 C   0  0  0  0  0  0  0  0  0  0  0  0
   57.5236   30.8581   46.5808 H   0  0  0  0  0  0  0  0  0  0  0  0
   57.7430   31.9330   44.7040 C   0  0  0  0  0  0  0  0  0  0  0  0
   57.2770   30.7800   43.8600 C   0  0  0  0  0  0  0  0  0  0  0  0
   58.1389   30.3369   43.3396 H   0  0  0  0  0  0  0  0  0  0  0  0
   56.5447   31.1424   43.1235 H   0  0  0  0  0  0  0  0  0  0  0  0
   56.6340   29.7440   44.7260 C   0  0  0  0  0  0  0  0  0  0  0  0
   55.3810   29.7430   44.8680 O   0  0  0  0  0  0  0  0  0  0  0  0
   57.4530   28.7380   45.3420 N   0  0  0  0  0  0  0  0  0  0  0  0
   57.1840   27.4760   45.5460 C   0  0  0  0  0  0  0  0  0  0  0  0
   58.1700   26.4670   45.4950 C   0  0  0  0  0  0  0  0  0  0  0  0
   59.2158   26.7281   45.2755 H   0  0  0  0  0  0  0  0  0  0  0  0
   57.8120   25.1310   45.7250 C   0  0  0  0  0  0  0  0  0  0  0  0
   58.8440   24.0450   45.6340 C   0  0  0  0  0  0  0  0  0  0  0  0
   59.1394   23.7341   46.6470 H   0  0  0  0  0  0  0  0  0  0  0  0
   58.4234   23.1838   45.0942 H   0  0  0  0  0  0  0  0  0  0  0  0
   59.7255   24.4212   45.0942 H   0  0  0  0  0  0  0  0  0  0  0  0
   56.4720   24.8100   45.9600 C   0  0  0  0  0  0  0  0  0  0  0  0
   56.1729   23.7644   46.1254 H   0  0  0  0  0  0  0  0  0  0  0  0
   55.5170   25.8270   45.9830 C   0  0  0  0  0  0  0  0  0  0  0  0
   54.4611   25.5826   46.1710 H   0  0  0  0  0  0  0  0  0  0  0  0
   55.8860   27.1190   45.7740 N   0  0  0  0  0  0  0  0  0  0  0  0
   55.1430   27.8550   45.7960 H   0  0  0  0  0  0  0  0  0  0  0  0
   58.0660   33.1630   44.1080 C   0  0  0  0  0  0  0  0  0  0  0  0
   58.0080   33.2741   43.0152 H   0  0  0  0  0  0  0  0  0  0  0  0
   58.4610   34.2470   44.8980 C   0  0  0  0  0  0  0  0  0  0  0  0
   58.7215   35.2056   44.4255 H   0  0  0  0  0  0  0  0  0  0  0  0
  1  2  1  0
  2  3  2  0
  3  4  1  0
  3  5  1  0
  5  6  1  0
  5  7  2  0
  7  8  1  0
  8  9  1  0
  8 10  1  0
  8 11  1  0
 11 12  2  0
 11 13  1  0
 13 14  2  0
 14 15  1  0
 15 16  1  0
 15 17  2  0
 17 18  1  0
 18 19  1  0
 18 20  1  0
 18 21  1  0
 17 22  1  0
 22 23  1  0
 22 24  2  0
 24 25  1  0
 24 26  1  0
 26 27  1  0
  7 28  1  0
 28 29  1  0
 28 30  2  0
 30 31  1  0
 30  2  1  0
 26 14  1  0
M  END
>  <UniqueID>  (30) 
28

>  <SMILES>  (30) 
Cc1cc[nH]/c(=N/C(=O)Cc2ccccc2)c1

>  <Energy>  (30) 
36.377744492923924

>  <Genealogy>  (30) 
Cc1cc[nH]/c(=N/C(=O)Cc2ccccc2)c1 (cis-trans isomerization)
Cc1cc[nH]/c(=N/C(=O)Cc2ccccc2)c1 (3D coordinates assigned)
Cc1cc[nH]/c(=N/C(=O)Cc2ccccc2)c1 (optimized conformer: 36.377744492923924 kcal/mol)

>  <smiles>  (30) 
Cc1cc[nH]c(=NC(=O)Cc2ccccc2)c1

>  <score_type>  (30) 
oracle

>  <origin>  (30) 
adg

>  <m_score__min__energy>  (30) 
-6.9000000000000004

>  <m_primary>  (30) 
energy

$$$$
30:0
     RDKit          3D

 25 27  0  0  0  0  0  0  0  0999 V2000
   60.4640   26.0720   45.9970 O   0  0  0  0  0  0  0  0  0  0  0  0
   59.2210   26.2100   45.8290 C   0  0  0  0  0  0  0  0  0  0  0  0
   58.3450   25.0180   45.7970 C   0  0  0  0  0  0  0  0  0  0  0  0
   58.8990   23.7260   45.8230 C   0  0  0  0  0  0  0  0  0  0  0  0
   58.0750   22.6010   45.7900 C   0  0  0  0  0  0  0  0  0  0  0  0
   56.6900   22.7530   45.7300 C   0  0  0  0  0  0  0  0  0  0  0  0
   56.1190   24.0280   45.7060 C   0  0  0  0  0  0  0  0  0  0  0  0
   54.7340   24.1360   45.6340 O   0  0  0  0  0  0  0  0  0  0  0  0
   56.9420   25.1770   45.7440 C   0  0  0  0  0  0  0  0  0  0  0  0
   56.3670   26.5470   45.7560 C   0  0  0  0  0  0  0  0  0  0  0  0
   55.1550   26.7070   46.0600 O   0  0  0  0  0  0  0  0  0  0  0  0
   57.2420   27.7300   45.5220 C   0  0  0  0  0  0  0  0  0  0  0  0
   56.7270   29.0250   45.2410 C   0  0  0  0  0  0  0  0  0  0  0  0
   55.3800   29.2640   44.9570 O   0  0  0  0  0  0  0  0  0  0  0  0
   57.5910   30.1240   45.2030 C   0  0  0  0  0  0  0  0  0  0  0  0
   58.9620   29.9560   45.3730 C   0  0  0  0  0  0  0  0  0  0  0  0
   59.4900   28.6830   45.5710 C   0  0  0  0  0  0  0  0  0  0  0  0
   58.6440   27.5630   45.6410 C   0  0  0  0  0  0  0  0  0  0  0  0
   59.9909   23.6014   45.8697 H   0  0  0  0  0  0  0  0  0  0  0  0
   58.5175   21.5942   45.8113 H   0  0  0  0  0  0  0  0  0  0  0  0
   56.0432   21.8637   45.7014 H   0  0  0  0  0  0  0  0  0  0  0  0
   54.7660   28.5820   44.5340 H   0  0  0  0  0  0  0  0  0  0  0  0
   57.1826   31.1318   45.0370 H   0  0  0  0  0  0  0  0  0  0  0  0
   59.6294   30.8301   45.3509 H   0  0  0  0  0  0  0  0  0  0  0  0
   60.5775   28.5529   45.6734 H   0  0  0  0  0  0  0  0  0  0  0  0
  1  2  2  0
  2  3  1  0
  3  4  2  0
  4  5  1  0
  5  6  2  0
  6  7  1  0
  7  8  1  0
  7  9  2  0
  9 10  1  0
 10 11  2  0
 10 12  1  0
 12 13  2  0
 13 14  1  0
 13 15  1  0
 15 16  2  0
 16 17  1  0
 17 18  2  0
 18  2  1  0
  9  3  1  0
 18 12  1  0
  4 19  1  0
  5 20  1  0
  6 21  1  0
 14 22  1  0
 15 23  1  0
 16 24  1  0
 17 25  1  0
M  CHG  1   8  -1
M  END
>  <UniqueID>  (31) 
29

>  <SMILES>  (31) 
O=C1c2cccc([O-])c2C(=O)c2c(O)cccc21

>  <Energy>  (31) 
40.57693208039352

>  <Genealogy>  (31) 
O=C1c2cccc([O-])c2C(=O)c2c(O)cccc21 (protonated)
O=C1c2cccc([O-])c2C(=O)c2c(O)cccc21 (3D coordinates assigned)
O=C1c2cccc([O-])c2C(=O)c2c(O)cccc21 (nonaromatic ring conformer: 40.57693208039352 kcal/mol)

>  <smiles>  (31) 
O=C1c2cccc(O)c2C(=O)c2c(O)cccc21

>  <score_type>  (31) 
oracle

>  <origin>  (31) 
adg

>  <m_score__min__energy>  (31) 
-9.25

>  <m_primary>  (31) 
energy

$$$$
31:0
     RDKit          3D

 43 45  0  0  0  0  0  0  0  0999 V2000
   51.3020   24.0210   44.7610 C   0  0  0  0  0  0  0  0  0  0  0  0
   52.3960   23.1730   44.8580 O   0  0  0  0  0  0  0  0  0  0  0  0
   52.4000   22.4160   46.0060 C   0  0  0  0  0  0  0  0  0  0  0  0
   53.5870   22.6260   46.8930 C   0  0  0  0  0  0  0  0  0  0  0  0
   54.3840   23.7800   46.4650 N   0  0  0  0  0  0  0  0  0  0  0  0
   55.7440   23.7790   46.8140 C   0  0  0  0  0  0  0  0  0  0  0  0
   56.1430   22.7550   47.4790 O   0  0  0  0  0  0  0  0  0  0  0  0
   56.7080   24.8070   46.4960 C   0  0  0  0  0  0  0  0  0  0  0  0
   58.0660   24.4860   46.5800 C   0  0  0  0  0  0  0  0  0  0  0  0
   59.0160   25.3920   46.3000 N   0  0  0  0  0  0  0  0  0  0  0  0
   58.7500   26.6380   45.9290 C   0  0  0  0  0  0  0  0  0  0  0  0
   59.7380   27.4780   45.6670 N   0  0  0  0  0  0  0  0  0  0  0  0
   59.4540   28.7440   45.2910 C   0  0  0  0  0  0  0  0  0  0  0  0
   58.1400   29.1900   45.1690 C   0  0  0  0  0  0  0  0  0  0  0  0
   57.9130   30.5720   44.7570 C   0  0  0  0  0  0  0  0  0  0  0  0
   57.7960   31.6150   45.6520 C   0  0  0  0  0  0  0  0  0  0  0  0
   57.5810   32.8910   45.1330 C   0  0  0  0  0  0  0  0  0  0  0  0
   57.4880   33.1080   43.7990 N   0  0  0  0  0  0  0  0  0  0  0  0
   57.5990   32.1080   42.9050 C   0  0  0  0  0  0  0  0  0  0  0  0
   57.5010   32.3220   41.4360 C   0  0  0  0  0  0  0  0  0  0  0  0
   57.8120   30.8420   43.3990 C   0  0  0  0  0  0  0  0  0  0  0  0
   57.1170   28.3080   45.4440 C   0  0  0  0  0  0  0  0  0  0  0  0
   57.4280   27.0140   45.8280 C   0  0  0  0  0  0  0  0  0  0  0  0
   56.4230   26.0900   46.1150 C   0  0  0  0  0  0  0  0  0  0  0  0
   55.2580   26.4790   46.0090 O   0  0  0  0  0  0  0  0  0  0  0  0
   50.9556   24.2895   45.7699 H   0  0  0  0  0  0  0  0  0  0  0  0
   51.5918   24.9327   44.2181 H   0  0  0  0  0  0  0  0  0  0  0  0
   50.4913   23.5130   44.2181 H   0  0  0  0  0  0  0  0  0  0  0  0
   51.4953   22.6622   46.5812 H   0  0  0  0  0  0  0  0  0  0  0  0
   52.4370   21.3650   45.6834 H   0  0  0  0  0  0  0  0  0  0  0  0
   53.2378   22.7954   47.9223 H   0  0  0  0  0  0  0  0  0  0  0  0
   54.2218   21.7295   46.8358 H   0  0  0  0  0  0  0  0  0  0  0  0
   53.9600   24.5560   45.9300 H   0  0  0  0  0  0  0  0  0  0  0  0
   58.3620   23.4704   46.8817 H   0  0  0  0  0  0  0  0  0  0  0  0
   60.0140   25.0970   46.3790 H   0  0  0  0  0  0  0  0  0  0  0  0
   60.2794   29.4387   45.0762 H   0  0  0  0  0  0  0  0  0  0  0  0
   57.8697   31.4461   46.7365 H   0  0  0  0  0  0  0  0  0  0  0  0
   57.4846   33.7420   45.8233 H   0  0  0  0  0  0  0  0  0  0  0  0
   57.0505   33.3058   41.2380 H   0  0  0  0  0  0  0  0  0  0  0  0
   58.5066   32.2832   40.9919 H   0  0  0  0  0  0  0  0  0  0  0  0
   56.8734   31.5353   40.9919 H   0  0  0  0  0  0  0  0  0  0  0  0
   57.9063   30.0081   42.6878 H   0  0  0  0  0  0  0  0  0  0  0  0
   56.0678   28.6275   45.3596 H   0  0  0  0  0  0  0  0  0  0  0  0
  1  2  1  0
  2  3  1  0
  3  4  1  0
  4  5  1  0
  5  6  1  0
  6  7  2  0
  6  8  1  0
  8  9  2  0
  9 10  1  0
 10 11  1  0
 11 12  2  0
 12 13  1  0
 13 14  2  0
 14 15  1  0
 15 16  2  0
 16 17  1  0
 17 18  2  0
 18 19  1  0
 19 20  1  0
 19 21  2  0
 14 22  1  0
 22 23  2  0
 23 24  1  0
 24 25  2  0
 24  8  1  0
 23 11  1  0
 21 15  1  0
  1 26  1  0
  1 27  1  0
  1 28  1  0
  3 29  1  0
  3 30  1  0
  4 31  1  0
  4 32  1  0
  5 33  1  0
  9 34  1  0
 10 35  1  0
 13 36  1  0
 16 37  1  0
 17 38  1  0
 20 39  1  0
 20 40  1  0
 20 41  1  0
 21 42  1  0
 22 43  1  0
M  END
>  <smiles>  (32) 
COCCNC(=O)c1c[nH]c2ncc(-c3ccnc(C)c3)cc2c1=O

>  <score_type>  (32) 
oracle

>  <origin>  (32) 
adg

>  <m_score__min__energy>  (32) 
-7.8499999999999996

>  <m_primary>  (32) 
energy

$$$$
32:0
     RDKit          3D

 35 36  0  0  0  0  0  0  0  0999 V2000
   59.5350   28.5450   47.3580 C   0  0  0  0  0  0  0  0  0  0  0  0
   59.9550   27.9510   46.0140 C   0  0  0  0  0  0  0  0  0  0  0  0
   59.9570   28.9980   44.8910 C   0  0  0  0  0  0  0  0  0  0  0  0
   58.6420   29.7190   44.8040 C   0  0  0  0  0  0  0  0  0  0  0  0
   57.4420   29.0040   44.6890 C   0  0  0  0  0  0  0  0  0  0  0  0
   56.2440   29.7170   44.6310 C   0  0  0  0  0  0  0  0  0  0  0  0
   55.1490   29.1080   44.5190 O   0  0  0  0  0  0  0  0  0  0  0  0
   56.2610   31.0730   44.7050 N   0  0  0  0  0  0  0  0  0  0  0  0
   57.4290   31.7520   44.8370 C   0  0  0  0  0  0  0  0  0  0  0  0
   57.4110   33.5360   44.9880 S   0  0  0  0  0  0  0  0  0  0  0  0
   58.2980   33.5690   46.5860 C   0  0  0  0  0  0  0  0  0  0  0  0
   59.7020   34.0820   46.4100 C   0  0  0  0  0  0  0  0  0  0  0  0
   59.8590   35.2590   45.9850 O   0  0  0  0  0  0  0  0  0  0  0  0
   60.8930   33.2930   46.8130 C   0  0  0  0  0  0  0  0  0  0  0  0
   60.7300   31.9640   47.2460 C   0  0  0  0  0  0  0  0  0  0  0  0
   61.8430   31.1820   47.5720 C   0  0  0  0  0  0  0  0  0  0  0  0
   63.1280   31.7210   47.4810 C   0  0  0  0  0  0  0  0  0  0  0  0
   63.3010   33.0460   47.0780 C   0  0  0  0  0  0  0  0  0  0  0  0
   62.1920   33.8340   46.7550 C   0  0  0  0  0  0  0  0  0  0  0  0
   58.6080   31.0770   44.8800 N   0  0  0  0  0  0  0  0  0  0  0  0
   59.9608   27.9428   48.1741 H   0  0  0  0  0  0  0  0  0  0  0  0
   59.9043   29.5784   47.4336 H   0  0  0  0  0  0  0  0  0  0  0  0
   58.4376   28.5413   47.4336 H   0  0  0  0  0  0  0  0  0  0  0  0
   60.9686   27.5351   46.1120 H   0  0  0  0  0  0  0  0  0  0  0  0
   59.2259   27.1718   45.7472 H   0  0  0  0  0  0  0  0  0  0  0  0
   60.7534   29.7308   45.0877 H   0  0  0  0  0  0  0  0  0  0  0  0
   60.1279   28.4783   43.9367 H   0  0  0  0  0  0  0  0  0  0  0  0
   57.4446   27.9049   44.6454 H   0  0  0  0  0  0  0  0  0  0  0  0
   57.7590   34.2268   47.2837 H   0  0  0  0  0  0  0  0  0  0  0  0
   58.3453   32.5443   46.9832 H   0  0  0  0  0  0  0  0  0  0  0  0
   59.7197   31.5369   47.3287 H   0  0  0  0  0  0  0  0  0  0  0  0
   61.7059   30.1412   47.9005 H   0  0  0  0  0  0  0  0  0  0  0  0
   64.0033   31.1017   47.7268 H   0  0  0  0  0  0  0  0  0  0  0  0
   64.3132   33.4718   47.0143 H   0  0  0  0  0  0  0  0  0  0  0  0
   62.3350   34.8823   46.4539 H   0  0  0  0  0  0  0  0  0  0  0  0
  1  2  1  0
  2  3  1  0
  3  4  1  0
  4  5  2  0
  5  6  1  0
  6  7  2  0
  6  8  1  0
  8  9  1  0
  9 10  1  0
 10 11  1  0
 11 12  1  0
 12 13  2  0
 12 14  1  0
 14 15  2  0
 15 16  1  0
 16 17  2  0
 17 18  1  0
 18 19  2  0
  9 20  2  0
 20  4  1  0
 19 14  1  0
  1 21  1  0
  1 22  1  0
  1 23  1  0
  2 24  1  0
  2 25  1  0
  3 26  1  0
  3 27  1  0
  5 28  1  0
 11 29  1  0
 11 30  1  0
 15 31  1  0
 16 32  1  0
 17 33  1  0
 18 34  1  0
 19 35  1  0
M  CHG  1   8  -1
M  END
>  <UniqueID>  (33) 
30

>  <SMILES>  (33) 
CCCc1cc(=O)[n-]c(SCC(=O)c2ccccc2)n1

>  <Energy>  (33) 
26.618944445915634

>  <Genealogy>  (33) 
CCCc1cc(=O)[n-]c(SCC(=O)c2ccccc2)n1 (protonated)
CCCc1cc(=O)[n-]c(SCC(=O)c2ccccc2)n1 (3D coordinates assigned)
CCCc1cc(=O)[n-]c(SCC(=O)c2ccccc2)n1 (optimized conformer: 26.618944445915634 kcal/mol)

>  <smiles>  (33) 
CCCc1cc(=O)[nH]c(SCC(=O)c2ccccc2)n1

>  <score_type>  (33) 
oracle

>  <origin>  (33) 
adg

>  <m_score__min__energy>  (33) 
-8.9000000000000004

>  <m_primary>  (33) 
energy

$$$$
33:0
     RDKit          3D

 53 56  0  0  0  0  0  0  0  0999 V2000
   55.7837   28.4180   44.1056 H   0  0  0  0  0  0  0  0  0  0  0  0
   56.5150   29.1540   44.4710 C   0  0  0  0  0  0  0  0  0  0  0  0
   56.1940   30.4740   44.4940 N   0  0  0  0  0  0  0  0  0  0  0  0
   57.0540   31.4270   44.9440 C   0  0  0  0  0  0  0  0  0  0  0  0
   56.6560   32.6680   44.9260 N   0  0  0  0  0  0  0  0  0  0  0  0
   57.3910   33.8640   45.2390 C   0  0  0  0  0  0  0  0  0  0  0  0
   57.0700   34.9670   44.7170 O   0  0  0  0  0  0  0  0  0  0  0  0
   58.5920   33.7870   46.1040 C   0  0  0  0  0  0  0  0  0  0  0  0
   59.8790   33.9130   45.5540 C   0  0  0  0  0  0  0  0  0  0  0  0
   59.9959   34.0729   44.4720 H   0  0  0  0  0  0  0  0  0  0  0  0
   61.0120   33.8370   46.3690 C   0  0  0  0  0  0  0  0  0  0  0  0
   62.0123   33.9373   45.9225 H   0  0  0  0  0  0  0  0  0  0  0  0
   60.8850   33.6340   47.7510 C   0  0  0  0  0  0  0  0  0  0  0  0
   62.0930   33.5540   48.6130 C   0  0  0  0  0  0  0  0  0  0  0  0
   63.2550   32.9100   48.1540 C   0  0  0  0  0  0  0  0  0  0  0  0
   63.2748   32.4518   47.1542 H   0  0  0  0  0  0  0  0  0  0  0  0
   64.3830   32.8550   48.9730 C   0  0  0  0  0  0  0  0  0  0  0  0
   65.2957   32.3523   48.6204 H   0  0  0  0  0  0  0  0  0  0  0  0
   64.3520   33.4380   50.2390 C   0  0  0  0  0  0  0  0  0  0  0  0
   65.7630   33.3760   51.2790 Cl  0  0  0  0  0  0  0  0  0  0  0  0
   63.1840   34.0700   50.6700 C   0  0  0  0  0  0  0  0  0  0  0  0
   63.1474   34.5313   51.6679 H   0  0  0  0  0  0  0  0  0  0  0  0
   62.0890   34.1180   49.8600 N   0  0  0  0  0  0  0  0  0  0  0  0
   61.2290   34.5830   50.2260 H   0  0  0  0  0  0  0  0  0  0  0  0
   59.5990   33.5110   48.3040 C   0  0  0  0  0  0  0  0  0  0  0  0
   59.4843   33.3550   49.3868 H   0  0  0  0  0  0  0  0  0  0  0  0
   58.4640   33.5850   47.4910 C   0  0  0  0  0  0  0  0  0  0  0  0
   57.4641   33.4847   47.9384 H   0  0  0  0  0  0  0  0  0  0  0  0
   58.3400   31.0330   45.3720 C   0  0  0  0  0  0  0  0  0  0  0  0
   59.0594   31.7896   45.7186 H   0  0  0  0  0  0  0  0  0  0  0  0
   58.7010   29.6810   45.3560 C   0  0  0  0  0  0  0  0  0  0  0  0
   59.9900   29.3340   45.7930 O   0  0  0  0  0  0  0  0  0  0  0  0
   60.4010   29.2070   47.1570 C   0  0  0  0  0  0  0  0  0  0  0  0
   61.4888   29.3519   47.2331 H   0  0  0  0  0  0  0  0  0  0  0  0
   59.7250   30.2890   48.0300 C   0  0  0  0  0  0  0  0  0  0  0  0
   58.8303   30.6538   47.5042 H   0  0  0  0  0  0  0  0  0  0  0  0
   60.4640   31.0877   48.1911 H   0  0  0  0  0  0  0  0  0  0  0  0
   59.3000   29.7710   49.4190 C   0  0  0  0  0  0  0  0  0  0  0  0
   58.3160   29.2877   49.3285 H   0  0  0  0  0  0  0  0  0  0  0  0
   59.2680   30.6341   50.1001 H   0  0  0  0  0  0  0  0  0  0  0  0
   60.2560   28.7950   49.9800 N   0  0  0  0  0  0  0  0  0  0  0  0
   61.5210   29.4330   50.3820 C   0  0  0  0  0  0  0  0  0  0  0  0
   61.5832   29.4644   51.4798 H   0  0  0  0  0  0  0  0  0  0  0  0
   62.3668   28.8537   49.9832 H   0  0  0  0  0  0  0  0  0  0  0  0
   61.5579   30.4575   49.9832 H   0  0  0  0  0  0  0  0  0  0  0  0
   60.4730   27.6050   49.1150 C   0  0  0  0  0  0  0  0  0  0  0  0
   59.8997   26.7646   49.5334 H   0  0  0  0  0  0  0  0  0  0  0  0
   61.5565   27.4155   49.1021 H   0  0  0  0  0  0  0  0  0  0  0  0
   60.0390   27.8050   47.6490 C   0  0  0  0  0  0  0  0  0  0  0  0
   58.9502   27.6674   47.5742 H   0  0  0  0  0  0  0  0  0  0  0  0
   60.5643   27.0677   47.0242 H   0  0  0  0  0  0  0  0  0  0  0  0
   57.7680   28.7300   44.9090 C   0  0  0  0  0  0  0  0  0  0  0  0
   58.0245   27.6603   44.9049 H   0  0  0  0  0  0  0  0  0  0  0  0
  1  2  1  0
  2  3  1  0
  3  4  1  0
  4  5  2  0
  5  6  1  0
  6  7  2  0
  6  8  1  0
  8  9  2  0
  9 10  1  0
  9 11  1  0
 11 12  1  0
 11 13  2  0
 13 14  1  0
 14 15  2  0
 15 16  1  0
 15 17  1  0
 17 18  1  0
 17 19  2  0
 19 20  1  0
 19 21  1  0
 21 22  1  0
 21 23  2  0
 23 24  1  0
 13 25  1  0
 25 26  1  0
 25 27  2  0
 27 28  1  0
  4 29  1  0
 29 30  1  0
 29 31  2  0
 31 32  1  0
 32 33  1  0
 33 34  1  0
 33 35  1  0
 35 36  1  0
 35 37  1  0
 35 38  1  0
 38 39  1  0
 38 40  1  0
 38 41  1  0
 41 42  1  0
 42 43  1  0
 42 44  1  0
 42 45  1  0
 41 46  1  0
 46 47  1  0
 46 48  1  0
 46 49  1  0
 49 50  1  0
 49 51  1  0
 31 52  1  0
 52 53  1  0
 52  2  2  0
 27  8  1  0
 49 33  1  0
 23 14  1  0
M  CHG  2   3  -1  23   1
M  END
>  <UniqueID>  (34) 
31

>  <SMILES>  (34) 
CN1CCC(Oc2cc[n-]/c(=N/C(=O)c3ccc(-c4ccc(Cl)c[nH+]4)cc3)c2)CC1

>  <Energy>  (34) 
79.17077977835085

>  <Genealogy>  (34) 
CN1CCC(Oc2cc[n-]c(=NC(=O)c3ccc(-c4ccc(Cl)c[nH+]4)cc3)c2)CC1 (protonated)
CN1CCC(Oc2cc[n-]/c(=N/C(=O)c3ccc(-c4ccc(Cl)c[nH+]4)cc3)c2)CC1 (cis-trans isomerization)
CN1CCC(Oc2cc[n-]/c(=N/C(=O)c3ccc(-c4ccc(Cl)c[nH+]4)cc3)c2)CC1 (3D coordinates assigned)
CN1CCC(Oc2cc[n-]/c(=N/C(=O)c3ccc(-c4ccc(Cl)c[nH+]4)cc3)c2)CC1 (nonaromatic ring conformer: 79.17077977835085 kcal/mol)

>  <smiles>  (34) 
CN1CCC(Oc2cc[nH]c(=NC(=O)c3ccc(-c4ccc(Cl)cn4)cc3)c2)CC1

>  <score_type>  (34) 
oracle

>  <origin>  (34) 
adg

>  <m_score__min__energy>  (34) 
-8.5500000000000007

>  <m_primary>  (34) 
energy

$$$$
34:0
     RDKit          3D

 50 52  0  0  0  0  0  0  0  0999 V2000
   57.4070   25.1960   43.7610 C   0  0  0  0  0  0  0  0  0  0  0  0
   57.0470   25.0720   45.1320 O   0  0  0  0  0  0  0  0  0  0  0  0
   56.7160   26.1710   45.9280 C   0  0  0  0  0  0  0  0  0  0  0  0
   55.5120   26.3910   46.2380 O   0  0  0  0  0  0  0  0  0  0  0  0
   57.7810   27.0540   46.4510 C   0  0  0  0  0  0  0  0  0  0  0  0
   58.6050   26.5620   47.4780 C   0  0  0  0  0  0  0  0  0  0  0  0
   59.6640   27.3250   47.9710 C   0  0  0  0  0  0  0  0  0  0  0  0
   59.9160   28.5910   47.4440 C   0  0  0  0  0  0  0  0  0  0  0  0
   59.0990   29.1050   46.4380 C   0  0  0  0  0  0  0  0  0  0  0  0
   58.0140   28.3600   45.9440 C   0  0  0  0  0  0  0  0  0  0  0  0
   56.9470   29.1270   44.7540 S   0  0  0  0  0  0  0  0  0  0  0  0
   57.3390   28.6750   43.3760 O   0  0  0  0  0  0  0  0  0  0  0  0
   55.5170   28.7460   45.0150 O   0  0  0  0  0  0  0  0  0  0  0  0
   57.0950   30.8580   44.8360 N   0  0  0  0  0  0  0  0  0  0  0  0
   58.0600   31.3580   43.8500 C   0  0  0  0  0  0  0  0  0  0  0  0
   57.7550   32.8110   43.4650 C   0  0  0  0  0  0  0  0  0  0  0  0
   58.1930   33.7560   44.5410 C   0  0  0  0  0  0  0  0  0  0  0  0
   59.3260   34.3030   44.4730 O   0  0  0  0  0  0  0  0  0  0  0  0
   57.3520   33.9720   45.6780 N   0  0  0  0  0  0  0  0  0  0  0  0
   57.4880   33.2170   46.9180 C   0  0  0  0  0  0  0  0  0  0  0  0
   58.8980   33.3380   47.4340 C   0  0  0  0  0  0  0  0  0  0  0  0
   59.2860   34.4540   48.1910 C   0  0  0  0  0  0  0  0  0  0  0  0
   60.6110   34.5970   48.6140 C   0  0  0  0  0  0  0  0  0  0  0  0
   61.5680   33.6270   48.2800 C   0  0  0  0  0  0  0  0  0  0  0  0
   62.9030   33.7650   48.6920 C   0  0  0  0  0  0  0  0  0  0  0  0
   63.8490   32.7910   48.3520 C   0  0  0  0  0  0  0  0  0  0  0  0
   63.4700   31.6760   47.5990 C   0  0  0  0  0  0  0  0  0  0  0  0
   62.1450   31.5290   47.1790 C   0  0  0  0  0  0  0  0  0  0  0  0
   61.1840   32.4990   47.5160 C   0  0  0  0  0  0  0  0  0  0  0  0
   59.8510   32.3630   47.0990 C   0  0  0  0  0  0  0  0  0  0  0  0
   58.4446   25.5534   43.6852 H   0  0  0  0  0  0  0  0  0  0  0  0
   57.3199   24.2161   43.2689 H   0  0  0  0  0  0  0  0  0  0  0  0
   56.7349   25.9144   43.2689 H   0  0  0  0  0  0  0  0  0  0  0  0
   58.4127   25.5637   47.8980 H   0  0  0  0  0  0  0  0  0  0  0  0
   60.3002   26.9277   48.7756 H   0  0  0  0  0  0  0  0  0  0  0  0
   60.7608   29.1852   47.8226 H   0  0  0  0  0  0  0  0  0  0  0  0
   59.3055   30.1040   46.0265 H   0  0  0  0  0  0  0  0  0  0  0  0
   59.0716   31.3049   44.2787 H   0  0  0  0  0  0  0  0  0  0  0  0
   57.9895   30.7353   42.9459 H   0  0  0  0  0  0  0  0  0  0  0  0
   58.2869   33.0553   42.5336 H   0  0  0  0  0  0  0  0  0  0  0  0
   56.6686   32.9160   43.3281 H   0  0  0  0  0  0  0  0  0  0  0  0
   56.7888   33.6160   47.6676 H   0  0  0  0  0  0  0  0  0  0  0  0
   57.2597   32.1581   46.7267 H   0  0  0  0  0  0  0  0  0  0  0  0
   58.5429   35.2214   48.4534 H   0  0  0  0  0  0  0  0  0  0  0  0
   60.9041   35.4733   49.2108 H   0  0  0  0  0  0  0  0  0  0  0  0
   63.2065   34.6412   49.2838 H   0  0  0  0  0  0  0  0  0  0  0  0
   64.8935   32.9033   48.6782 H   0  0  0  0  0  0  0  0  0  0  0  0
   64.2166   30.9121   47.3362 H   0  0  0  0  0  0  0  0  0  0  0  0
   61.8529   30.6518   46.5830 H   0  0  0  0  0  0  0  0  0  0  0  0
   59.5508   31.4867   46.5057 H   0  0  0  0  0  0  0  0  0  0  0  0
  1  2  1  0
  2  3  1  0
  3  4  2  0
  3  5  1  0
  5  6  2  0
  6  7  1  0
  7  8  2  0
  8  9  1  0
  9 10  2  0
 10 11  1  0
 11 12  2  0
 11 13  2  0
 11 14  1  0
 14 15  1  0
 15 16  1  0
 16 17  1  0
 17 18  2  0
 17 19  1  0
 19 20  1  0
 20 21  1  0
 21 22  2  0
 22 23  1  0
 23 24  2  0
 24 25  1  0
 25 26  2  0
 26 27  1  0
 27 28  2  0
 28 29  1  0
 29 30  2  0
 10  5  1  0
 30 21  1  0
 29 24  1  0
  1 31  1  0
  1 32  1  0
  1 33  1  0
  6 34  1  0
  7 35  1  0
  8 36  1  0
  9 37  1  0
 15 38  1  0
 15 39  1  0
 16 40  1  0
 16 41  1  0
 20 42  1  0
 20 43  1  0
 22 44  1  0
 23 45  1  0
 25 46  1  0
 26 47  1  0
 27 48  1  0
 28 49  1  0
 30 50  1  0
M  CHG  2  14  -1  19  -1
M  END
>  <UniqueID>  (35) 
32

>  <SMILES>  (35) 
COC(=O)c1ccccc1S(=O)(=O)[N-]CCC(=O)[N-]Cc1ccc2ccccc2c1

>  <Energy>  (35) 
52.72818422183398

>  <Genealogy>  (35) 
COC(=O)c1ccccc1S(=O)(=O)[N-]CCC(=O)[N-]Cc1ccc2ccccc2c1 (protonated)
COC(=O)c1ccccc1S(=O)(=O)[N-]CCC(=O)[N-]Cc1ccc2ccccc2c1 (3D coordinates assigned)
COC(=O)c1ccccc1S(=O)(=O)[N-]CCC(=O)[N-]Cc1ccc2ccccc2c1 (optimized conformer: 52.72818422183398 kcal/mol)

>  <smiles>  (35) 
COC(=O)c1ccccc1S(=O)(=O)NCCC(=O)NCc1ccc2ccccc2c1

>  <score_type>  (35) 
oracle

>  <origin>  (35) 
adg

>  <m_score__min__energy>  (35) 
-13.08

>  <m_primary>  (35) 
energy

$$$$
35:0
     RDKit          3D

 43 45  0  0  0  0  0  0  0  0999 V2000
   59.5690   35.7960   45.1740 O   0  0  0  0  0  0  0  0  0  0  0  0
   59.4630   34.8170   45.9590 C   0  0  0  0  0  0  0  0  0  0  0  0
   60.0400   34.9150   47.2690 N   0  0  0  0  0  0  0  0  0  0  0  0
   61.1880   34.1900   47.7390 C   0  0  0  0  0  0  0  0  0  0  0  0
   62.1150   33.7080   46.8050 C   0  0  0  0  0  0  0  0  0  0  0  0
   63.2410   32.9980   47.2300 C   0  0  0  0  0  0  0  0  0  0  0  0
   63.4430   32.7530   48.5910 C   0  0  0  0  0  0  0  0  0  0  0  0
   64.5370   32.0650   49.0020 F   0  0  0  0  0  0  0  0  0  0  0  0
   62.5100   33.2070   49.5290 C   0  0  0  0  0  0  0  0  0  0  0  0
   61.3820   33.9150   49.1060 C   0  0  0  0  0  0  0  0  0  0  0  0
   58.7210   33.6130   45.5250 C   0  0  0  0  0  0  0  0  0  0  0  0
   58.4010   32.6010   46.4440 C   0  0  0  0  0  0  0  0  0  0  0  0
   57.7730   31.4300   46.0130 C   0  0  0  0  0  0  0  0  0  0  0  0
   57.4670   31.2510   44.6590 C   0  0  0  0  0  0  0  0  0  0  0  0
   56.7790   29.7270   44.0990 S   0  0  0  0  0  0  0  0  0  0  0  0
   56.4040   29.8610   42.6500 O   0  0  0  0  0  0  0  0  0  0  0  0
   55.5220   29.4370   44.8740 O   0  0  0  0  0  0  0  0  0  0  0  0
   57.8950   28.3930   44.2900 N   0  0  0  0  0  0  0  0  0  0  0  0
   59.2970   28.8360   44.4930 C   0  0  0  0  0  0  0  0  0  0  0  0
   59.9730   28.2050   45.7150 C   0  0  0  0  0  0  0  0  0  0  0  0
   59.0590   28.3210   46.9290 C   0  0  0  0  0  0  0  0  0  0  0  0
   57.7230   27.6010   46.6960 C   0  0  0  0  0  0  0  0  0  0  0  0
   57.3980   27.3470   45.2080 C   0  0  0  0  0  0  0  0  0  0  0  0
   57.7290   32.2840   43.7490 C   0  0  0  0  0  0  0  0  0  0  0  0
   58.3500   33.4600   44.1800 C   0  0  0  0  0  0  0  0  0  0  0  0
   61.9554   33.8895   45.7319 H   0  0  0  0  0  0  0  0  0  0  0  0
   63.9697   32.6313   46.4920 H   0  0  0  0  0  0  0  0  0  0  0  0
   62.6642   33.0067   50.5996 H   0  0  0  0  0  0  0  0  0  0  0  0
   60.6425   34.2589   49.8442 H   0  0  0  0  0  0  0  0  0  0  0  0
   58.6460   32.7308   47.5085 H   0  0  0  0  0  0  0  0  0  0  0  0
   57.5180   30.6455   46.7406 H   0  0  0  0  0  0  0  0  0  0  0  0
   59.8784   28.5688   43.5982 H   0  0  0  0  0  0  0  0  0  0  0  0
   59.2684   29.9218   44.6670 H   0  0  0  0  0  0  0  0  0  0  0  0
   60.1769   27.1434   45.5117 H   0  0  0  0  0  0  0  0  0  0  0  0
   60.9168   28.7316   45.9198 H   0  0  0  0  0  0  0  0  0  0  0  0
   59.5606   27.8717   47.7988 H   0  0  0  0  0  0  0  0  0  0  0  0
   58.8515   29.3868   47.1052 H   0  0  0  0  0  0  0  0  0  0  0  0
   57.7582   26.6307   47.2130 H   0  0  0  0  0  0  0  0  0  0  0  0
   56.9337   28.2603   47.0863 H   0  0  0  0  0  0  0  0  0  0  0  0
   57.8508   26.3882   44.9153 H   0  0  0  0  0  0  0  0  0  0  0  0
   56.3015   27.3462   45.1207 H   0  0  0  0  0  0  0  0  0  0  0  0
   57.4452   32.1692   42.6925 H   0  0  0  0  0  0  0  0  0  0  0  0
   58.5488   34.2691   43.4618 H   0  0  0  0  0  0  0  0  0  0  0  0
  1  2  2  0
  2  3  1  0
  3  4  1  0
  4  5  2  0
  5  6  1  0
  6  7  2  0
  7  8  1  0
  7  9  1  0
  9 10  2  0
  2 11  1  0
 11 12  2  0
 12 13  1  0
 13 14  2  0
 14 15  1  0
 15 16  2  0
 15 17  2  0
 15 18  1  0
 18 19  1  0
 19 20  1  0
 20 21  1  0
 21 22  1  0
 22 23  1  0
 14 24  1  0
 24 25  2  0
 10  4  1  0
 25 11  1  0
 23 18  1  0
  5 26  1  0
  6 27  1  0
  9 28  1  0
 10 29  1  0
 12 30  1  0
 13 31  1  0
 19 32  1  0
 19 33  1  0
 20 34  1  0
 20 35  1  0
 21 36  1  0
 21 37  1  0
 22 38  1  0
 22 39  1  0
 23 40  1  0
 23 41  1  0
 24 42  1  0
 25 43  1  0
M  CHG  1   3  -1
M  END
>  <UniqueID>  (36) 
33

>  <SMILES>  (36) 
O=C([N-]c1ccc(F)cc1)c1ccc(S(=O)(=O)N2CCCCC2)cc1

>  <Energy>  (36) 
56.97599205577307

>  <Genealogy>  (36) 
O=C([N-]c1ccc(F)cc1)c1ccc(S(=O)(=O)N2CCCCC2)cc1 (protonated)
O=C([N-]c1ccc(F)cc1)c1ccc(S(=O)(=O)N2CCCCC2)cc1 (3D coordinates assigned)
O=C([N-]c1ccc(F)cc1)c1ccc(S(=O)(=O)N2CCCCC2)cc1 (nonaromatic ring conformer: 56.97599205577307 kcal/mol)

>  <smiles>  (36) 
O=C(Nc1ccc(F)cc1)c1ccc(S(=O)(=O)N2CCCCC2)cc1

>  <score_type>  (36) 
oracle

>  <origin>  (36) 
adg

>  <m_score__min__energy>  (36) 
-10.050000000000001

>  <m_primary>  (36) 
energy

$$$$
36:0
     RDKit          3D

 52 54  0  0  0  0  0  0  0  0999 V2000
   55.4810   30.2770   52.6550 C   0  0  0  0  0  0  0  0  0  0  0  0
   56.7120   30.0340   51.9850 O   0  0  0  0  0  0  0  0  0  0  0  0
   57.5570   31.0380   51.4890 C   0  0  0  0  0  0  0  0  0  0  0  0
   57.7540   32.2610   52.1570 C   0  0  0  0  0  0  0  0  0  0  0  0
   58.6040   33.2300   51.6150 C   0  0  0  0  0  0  0  0  0  0  0  0
   59.2850   32.9870   50.4190 C   0  0  0  0  0  0  0  0  0  0  0  0
   60.1310   33.9860   49.9100 O   0  0  0  0  0  0  0  0  0  0  0  0
   60.9930   33.8350   48.8150 C   0  0  0  0  0  0  0  0  0  0  0  0
   62.3180   33.4540   49.0610 C   0  0  0  0  0  0  0  0  0  0  0  0
   63.2150   33.2880   48.0040 C   0  0  0  0  0  0  0  0  0  0  0  0
   62.7900   33.4820   46.6900 C   0  0  0  0  0  0  0  0  0  0  0  0
   61.4640   33.8360   46.4280 C   0  0  0  0  0  0  0  0  0  0  0  0
   60.5540   34.0200   47.4850 C   0  0  0  0  0  0  0  0  0  0  0  0
   59.1650   34.2770   47.2290 N   0  0  0  0  0  0  0  0  0  0  0  0
   58.4680   34.0190   46.0050 C   0  0  0  0  0  0  0  0  0  0  0  0
   58.8010   34.6030   44.9390 O   0  0  0  0  0  0  0  0  0  0  0  0
   57.3260   33.0500   46.0000 C   0  0  0  0  0  0  0  0  0  0  0  0
   57.4170   32.1230   44.7880 C   0  0  0  0  0  0  0  0  0  0  0  0
   56.3420   31.1350   44.8360 N   0  0  0  0  0  0  0  0  0  0  0  0
   56.5090   29.7190   44.6990 C   0  0  0  0  0  0  0  0  0  0  0  0
   55.5080   28.9730   44.8610 O   0  0  0  0  0  0  0  0  0  0  0  0
   57.8520   29.0910   44.4430 C   0  0  0  0  0  0  0  0  0  0  0  0
   58.7320   29.1920   45.6640 C   0  0  0  0  0  0  0  0  0  0  0  0
   59.8220   30.0790   45.6910 C   0  0  0  0  0  0  0  0  0  0  0  0
   60.6470   30.1510   46.8170 C   0  0  0  0  0  0  0  0  0  0  0  0
   60.3970   29.3320   47.9220 C   0  0  0  0  0  0  0  0  0  0  0  0
   59.3190   28.4430   47.9040 C   0  0  0  0  0  0  0  0  0  0  0  0
   58.4920   28.3680   46.7800 C   0  0  0  0  0  0  0  0  0  0  0  0
   59.0780   31.7720   49.7440 C   0  0  0  0  0  0  0  0  0  0  0  0
   58.2230   30.8060   50.2800 C   0  0  0  0  0  0  0  0  0  0  0  0
   55.6429   30.2450   53.7425 H   0  0  0  0  0  0  0  0  0  0  0  0
   55.0980   31.2681   52.3703 H   0  0  0  0  0  0  0  0  0  0  0  0
   54.7501   29.5058   52.3703 H   0  0  0  0  0  0  0  0  0  0  0  0
   57.2376   32.4552   53.1086 H   0  0  0  0  0  0  0  0  0  0  0  0
   58.7377   34.1907   52.1338 H   0  0  0  0  0  0  0  0  0  0  0  0
   62.6545   33.2843   50.0944 H   0  0  0  0  0  0  0  0  0  0  0  0
   64.2579   33.0039   48.2079 H   0  0  0  0  0  0  0  0  0  0  0  0
   63.4995   33.3562   45.8589 H   0  0  0  0  0  0  0  0  0  0  0  0
   61.1295   33.9717   45.3889 H   0  0  0  0  0  0  0  0  0  0  0  0
   57.3581   32.4477   46.9199 H   0  0  0  0  0  0  0  0  0  0  0  0
   56.3820   33.6123   45.9482 H   0  0  0  0  0  0  0  0  0  0  0  0
   57.3255   32.7171   43.8667 H   0  0  0  0  0  0  0  0  0  0  0  0
   58.3868   31.6040   44.8010 H   0  0  0  0  0  0  0  0  0  0  0  0
   57.7113   28.0306   44.1866 H   0  0  0  0  0  0  0  0  0  0  0  0
   58.3382   29.6244   43.6129 H   0  0  0  0  0  0  0  0  0  0  0  0
   60.0270   30.7202   44.8210 H   0  0  0  0  0  0  0  0  0  0  0  0
   61.4939   30.8528   46.8337 H   0  0  0  0  0  0  0  0  0  0  0  0
   61.0492   29.3874   48.8061 H   0  0  0  0  0  0  0  0  0  0  0  0
   59.1212   27.8016   48.7755 H   0  0  0  0  0  0  0  0  0  0  0  0
   57.6491   27.6614   46.7672 H   0  0  0  0  0  0  0  0  0  0  0  0
   59.5911   31.5809   48.7900 H   0  0  0  0  0  0  0  0  0  0  0  0
   58.0719   29.8553   49.7476 H   0  0  0  0  0  0  0  0  0  0  0  0
  1  2  1  0
  2  3  1  0
  3  4  2  0
  4  5  1  0
  5  6  2  0
  6  7  1  0
  7  8  1  0
  8  9  2  0
  9 10  1  0
 10 11  2  0
 11 12  1  0
 12 13  2  0
 13 14  1  0
 14 15  1  0
 15 16  2  0
 15 17  1  0
 17 18  1  0
 18 19  1  0
 19 20  1  0
 20 21  2  0
 20 22  1  0
 22 23  1  0
 23 24  2  0
 24 25  1  0
 25 26  2  0
 26 27  1  0
 27 28  2  0
  6 29  1  0
 29 30  2  0
 30  3  1  0
 13  8  1  0
 28 23  1  0
  1 31  1  0
  1 32  1  0
  1 33  1  0
  4 34  1  0
  5 35  1  0
  9 36  1  0
 10 37  1  0
 11 38  1  0
 12 39  1  0
 17 40  1  0
 17 41  1  0
 18 42  1  0
 18 43  1  0
 22 44  1  0
 22 45  1  0
 24 46  1  0
 25 47  1  0
 26 48  1  0
 27 49  1  0
 28 50  1  0
 29 51  1  0
 30 52  1  0
M  CHG  2  14  -1  19  -1
M  END
>  <UniqueID>  (37) 
34

>  <SMILES>  (37) 
COc1ccc(Oc2ccccc2[N-]C(=O)CC[N-]C(=O)Cc2ccccc2)cc1

>  <Energy>  (37) 
55.58167163878866

>  <Genealogy>  (37) 
COc1ccc(Oc2ccccc2[N-]C(=O)CC[N-]C(=O)Cc2ccccc2)cc1 (protonated)
COc1ccc(Oc2ccccc2[N-]C(=O)CC[N-]C(=O)Cc2ccccc2)cc1 (3D coordinates assigned)
COc1ccc(Oc2ccccc2[N-]C(=O)CC[N-]C(=O)Cc2ccccc2)cc1 (optimized conformer: 55.58167163878866 kcal/mol)

>  <smiles>  (37) 
COc1ccc(Oc2ccccc2NC(=O)CCNC(=O)Cc2ccccc2)cc1

>  <score_type>  (37) 
oracle

>  <origin>  (37) 
adg

>  <m_score__min__energy>  (37) 
-12.449999999999999

>  <m_primary>  (37) 
energy

$$$$
37:0
     RDKit          3D

 50 53  0  0  0  0  0  0  0  0999 V2000
   60.8286   27.7731   46.1891 H   0  0  0  0  0  0  0  0  0  0  0  0
   59.7690   27.4890   46.1080 C   0  0  0  0  0  0  0  0  0  0  0  0
   59.4230   26.1640   45.8430 C   0  0  0  0  0  0  0  0  0  0  0  0
   60.2143   25.4139   45.6974 H   0  0  0  0  0  0  0  0  0  0  0  0
   58.0750   25.7770   45.7600 C   0  0  0  0  0  0  0  0  0  0  0  0
   57.7570   24.3280   45.4670 C   0  0  0  0  0  0  0  0  0  0  0  0
   56.9024   24.0142   46.0845 H   0  0  0  0  0  0  0  0  0  0  0  0
   58.6422   23.7182   45.7007 H   0  0  0  0  0  0  0  0  0  0  0  0
   57.4050   24.1370   43.9870 C   0  0  0  0  0  0  0  0  0  0  0  0
   58.0634   23.3675   43.5577 H   0  0  0  0  0  0  0  0  0  0  0  0
   57.5429   25.0973   43.4686 H   0  0  0  0  0  0  0  0  0  0  0  0
   55.9520   23.7000   43.8190 C   0  0  0  0  0  0  0  0  0  0  0  0
   55.4937   23.5622   44.8094 H   0  0  0  0  0  0  0  0  0  0  0  0
   55.3990   24.4716   43.2633 H   0  0  0  0  0  0  0  0  0  0  0  0
   55.9163   22.7514   43.2633 H   0  0  0  0  0  0  0  0  0  0  0  0
   57.0640   26.7440   45.9920 C   0  0  0  0  0  0  0  0  0  0  0  0
   55.6680   26.4040   45.9790 N   0  0  0  0  0  0  0  0  0  0  0  0
   55.1320   26.3440   46.8740 H   0  0  0  0  0  0  0  0  0  0  0  0
   55.1540   26.1730   45.1030 H   0  0  0  0  0  0  0  0  0  0  0  0
   57.4290   28.0760   46.2510 C   0  0  0  0  0  0  0  0  0  0  0  0
   56.6476   28.8268   46.4402 H   0  0  0  0  0  0  0  0  0  0  0  0
   58.7730   28.4580   46.2710 C   0  0  0  0  0  0  0  0  0  0  0  0
   59.1160   29.8130   46.5870 N   0  0  0  0  0  0  0  0  0  0  0  0
   58.8180   30.9210   45.9540 C   0  0  0  0  0  0  0  0  0  0  0  0
   58.3650   30.9670   44.6010 C   0  0  0  0  0  0  0  0  0  0  0  0
   58.3180   32.2130   43.9390 C   0  0  0  0  0  0  0  0  0  0  0  0
   58.5820   33.3630   44.6170 N   0  0  0  0  0  0  0  0  0  0  0  0
   58.5460   34.2740   44.1030 H   0  0  0  0  0  0  0  0  0  0  0  0
   58.8550   33.3650   45.9500 C   0  0  0  0  0  0  0  0  0  0  0  0
   59.0470   34.5840   46.6230 C   0  0  0  0  0  0  0  0  0  0  0  0
   58.9527   35.5329   46.0746 H   0  0  0  0  0  0  0  0  0  0  0  0
   59.3570   34.5960   47.9850 C   0  0  0  0  0  0  0  0  0  0  0  0
   59.5013   35.5537   48.5065 H   0  0  0  0  0  0  0  0  0  0  0  0
   59.4840   33.3970   48.6850 C   0  0  0  0  0  0  0  0  0  0  0  0
   59.7289   33.4110   49.7573 H   0  0  0  0  0  0  0  0  0  0  0  0
   59.3010   32.1780   48.0280 C   0  0  0  0  0  0  0  0  0  0  0  0
   59.4114   31.2364   48.5859 H   0  0  0  0  0  0  0  0  0  0  0  0
   58.9750   32.1430   46.6520 C   0  0  0  0  0  0  0  0  0  0  0  0
   58.0390   32.2780   42.4530 C   0  0  0  0  0  0  0  0  0  0  0  0
   57.6476   33.2793   42.2202 H   0  0  0  0  0  0  0  0  0  0  0  0
   58.9904   32.0601   41.9458 H   0  0  0  0  0  0  0  0  0  0  0  0
   57.0190   31.2300   41.9460 C   0  0  0  0  0  0  0  0  0  0  0  0
   56.1211   31.7617   41.5981 H   0  0  0  0  0  0  0  0  0  0  0  0
   57.5158   30.6658   41.1430 H   0  0  0  0  0  0  0  0  0  0  0  0
   56.5930   30.2080   43.0070 C   0  0  0  0  0  0  0  0  0  0  0  0
   55.8262   30.6609   43.6526 H   0  0  0  0  0  0  0  0  0  0  0  0
   56.1958   29.3203   42.4930 H   0  0  0  0  0  0  0  0  0  0  0  0
   57.7780   29.7740   43.8710 C   0  0  0  0  0  0  0  0  0  0  0  0
   57.4371   29.0307   44.6067 H   0  0  0  0  0  0  0  0  0  0  0  0
   58.5513   29.3367   43.2224 H   0  0  0  0  0  0  0  0  0  0  0  0
  1  2  1  0
  2  3  2  0
  3  4  1  0
  3  5  1  0
  5  6  1  0
  6  7  1  0
  6  8  1  0
  6  9  1  0
  9 10  1  0
  9 11  1  0
  9 12  1  0
 12 13  1  0
 12 14  1  0
 12 15  1  0
  5 16  2  0
 16 17  1  0
 17 18  1  0
 17 19  1  0
 16 20  1  0
 20 21  1  0
 20 22  2  0
 22 23  1  0
 23 24  2  0
 24 25  1  0
 25 26  2  0
 26 27  1  0
 27 28  1  0
 27 29  1  0
 29 30  2  0
 30 31  1  0
 30 32  1  0
 32 33  1  0
 32 34  2  0
 34 35  1  0
 34 36  1  0
 36 37  1  0
 36 38  2  0
 26 39  1  0
 39 40  1  0
 39 41  1  0
 39 42  1  0
 42 43  1  0
 42 44  1  0
 42 45  1  0
 45 46  1  0
 45 47  1  0
 45 48  1  0
 48 49  1  0
 48 50  1  0
 22  2  1  0
 38 24  1  0
 48 25  1  0
 38 29  1  0
M  END
>  <UniqueID>  (38) 
35

>  <SMILES>  (38) 
CCCc1ccc(/N=c2\c3c([nH]c4ccccc24)CCCC3)cc1N

>  <Energy>  (38) 
76.9229874562963

>  <Genealogy>  (38) 
CCCc1ccc(/N=c2\c3c([nH]c4ccccc24)CCCC3)cc1N (cis-trans isomerization)
CCCc1ccc(/N=c2\c3c([nH]c4ccccc24)CCCC3)cc1N (3D coordinates assigned)
CCCc1ccc(/N=c2\c3c([nH]c4ccccc24)CCCC3)cc1N (nonaromatic ring conformer: 76.9229874562963 kcal/mol)

>  <smiles>  (38) 
CCCc1ccc(N=c2c3c([nH]c4ccccc24)CCCC3)cc1N

>  <score_type>  (38) 
oracle

>  <origin>  (38) 
adg

>  <m_score__min__energy>  (38) 
-9.0199999999999996

>  <m_primary>  (38) 
energy

$$$$
38:0
     RDKit          3D

 22 23  0  0  0  0  0  0  0  0999 V2000
   54.3729   24.4211   46.0515 H   0  0  0  0  0  0  0  0  0  0  0  0
   55.2890   24.9950   45.8480 C   0  0  0  0  0  0  0  0  0  0  0  0
   55.3510   26.3460   45.9950 N   0  0  0  0  0  0  0  0  0  0  0  0
   56.5740   26.8310   45.6910 C   0  0  0  0  0  0  0  0  0  0  0  0
   56.8420   28.1020   45.7570 N   0  0  0  0  0  0  0  0  0  0  0  0
   56.3870   29.1530   44.8900 C   0  0  0  0  0  0  0  0  0  0  0  0
   55.1480   29.3400   44.7710 O   0  0  0  0  0  0  0  0  0  0  0  0
   57.3130   30.0210   44.2210 N   0  0  0  0  0  0  0  0  0  0  0  0
   57.8990   31.2210   44.7460 C   0  0  0  0  0  0  0  0  0  0  0  0
   58.5360   31.2550   46.0000 C   0  0  0  0  0  0  0  0  0  0  0  0
   58.6122   30.3370   46.6012 H   0  0  0  0  0  0  0  0  0  0  0  0
   59.0730   32.4530   46.4850 C   0  0  0  0  0  0  0  0  0  0  0  0
   59.5794   32.4722   47.4613 H   0  0  0  0  0  0  0  0  0  0  0  0
   58.9670   33.6250   45.7310 C   0  0  0  0  0  0  0  0  0  0  0  0
   59.6980   35.2590   46.3950 Br  0  0  0  0  0  0  0  0  0  0  0  0
   58.3140   33.6020   44.4950 C   0  0  0  0  0  0  0  0  0  0  0  0
   58.2233   34.5254   43.9042 H   0  0  0  0  0  0  0  0  0  0  0  0
   57.7760   32.4060   44.0090 C   0  0  0  0  0  0  0  0  0  0  0  0
   57.2527   32.3957   43.0415 H   0  0  0  0  0  0  0  0  0  0  0  0
   57.6240   25.5950   45.2220 S   0  0  0  0  0  0  0  0  0  0  0  0
   56.4670   24.3920   45.4220 C   0  0  0  0  0  0  0  0  0  0  0  0
   56.6159   23.3163   45.2466 H   0  0  0  0  0  0  0  0  0  0  0  0
  1  2  1  0
  2  3  1  0
  3  4  1  0
  4  5  2  0
  5  6  1  0
  6  7  2  0
  6  8  1  0
  8  9  1  0
  9 10  2  0
 10 11  1  0
 10 12  1  0
 12 13  1  0
 12 14  2  0
 14 15  1  0
 14 16  1  0
 16 17  1  0
 16 18  2  0
 18 19  1  0
  4 20  1  0
 20 21  1  0
 21 22  1  0
 21  2  2  0
 18  9  1  0
M  CHG  2   3  -1   8  -1
M  END
>  <UniqueID>  (39) 
36

>  <SMILES>  (39) 
O=C(/N=c1/[n-]ccs1)[N-]c1ccc(Br)cc1

>  <Energy>  (39) 
59.60425827286343

>  <Genealogy>  (39) 
O=C(N=c1[n-]ccs1)[N-]c1ccc(Br)cc1 (protonated)
O=C(/N=c1/[n-]ccs1)[N-]c1ccc(Br)cc1 (cis-trans isomerization)
O=C(/N=c1/[n-]ccs1)[N-]c1ccc(Br)cc1 (3D coordinates assigned)
O=C(/N=c1/[n-]ccs1)[N-]c1ccc(Br)cc1 (optimized conformer: 59.60425827286343 kcal/mol)

>  <smiles>  (39) 
O=C(N=c1[nH]ccs1)Nc1ccc(Br)cc1

>  <score_type>  (39) 
oracle

>  <origin>  (39) 
adg

>  <m_score__min__energy>  (39) 
-9.4100000000000001

>  <m_primary>  (39) 
energy

$$$$
39:0
     RDKit          3D

 60 63  0  0  0  0  0  0  0  0999 V2000
   66.0910   33.3920   50.8450 C   0  0  0  0  0  0  0  0  0  0  0  0
   65.0040   32.5310   50.2210 C   0  0  0  0  0  0  0  0  0  0  0  0
   64.7870   32.9410   48.8740 O   0  0  0  0  0  0  0  0  0  0  0  0
   63.5250   33.2600   48.3410 C   0  0  0  0  0  0  0  0  0  0  0  0
   62.3630   33.3320   49.1330 C   0  0  0  0  0  0  0  0  0  0  0  0
   61.1340   33.6620   48.5540 C   0  0  0  0  0  0  0  0  0  0  0  0
   61.0460   33.9220   47.1800 C   0  0  0  0  0  0  0  0  0  0  0  0
   59.5220   34.4440   46.4740 S   0  0  0  0  0  0  0  0  0  0  0  0
   59.7130   35.7740   45.8040 O   0  0  0  0  0  0  0  0  0  0  0  0
   58.4690   34.5910   47.5330 O   0  0  0  0  0  0  0  0  0  0  0  0
   59.0420   33.2720   45.2940 N   0  0  0  0  0  0  0  0  0  0  0  0
   58.8060   31.9020   45.6270 C   0  0  0  0  0  0  0  0  0  0  0  0
   59.1020   31.4040   46.9190 C   0  0  0  0  0  0  0  0  0  0  0  0
   58.9150   30.0480   47.2210 C   0  0  0  0  0  0  0  0  0  0  0  0
   58.4460   29.2080   46.2130 C   0  0  0  0  0  0  0  0  0  0  0  0
   58.1440   29.6830   44.9490 C   0  0  0  0  0  0  0  0  0  0  0  0
   58.3020   31.0350   44.6370 C   0  0  0  0  0  0  0  0  0  0  0  0
   57.6860   28.5770   44.0370 C   0  0  0  0  0  0  0  0  0  0  0  0
   57.7650   27.4040   44.9740 C   0  0  0  0  0  0  0  0  0  0  0  0
   57.4790   26.0670   44.6920 C   0  0  0  0  0  0  0  0  0  0  0  0
   57.6330   25.1130   45.7200 C   0  0  0  0  0  0  0  0  0  0  0  0
   57.3420   23.4060   45.4110 S   0  0  0  0  0  0  0  0  0  0  0  0
   57.7590   22.5800   46.5940 O   0  0  0  0  0  0  0  0  0  0  0  0
   58.1550   22.9880   44.2220 O   0  0  0  0  0  0  0  0  0  0  0  0
   55.6580   23.1340   45.0640 N   0  0  0  0  0  0  0  0  0  0  0  0
   54.7700   23.8620   45.9780 C   0  0  1  0  0  0  0  0  0  0  0  0
   53.5440   24.4010   45.2240 C   0  0  0  0  0  0  0  0  0  0  0  0
   54.3550   22.9350   47.1390 C   0  0  0  0  0  0  0  0  0  0  0  0
   55.3230   22.9580   48.3260 C   0  0  0  0  0  0  0  0  0  0  0  0
   58.0530   25.5190   47.0090 C   0  0  0  0  0  0  0  0  0  0  0  0
   58.3470   26.8660   47.2700 C   0  0  0  0  0  0  0  0  0  0  0  0
   58.1990   27.7850   46.2330 C   0  0  0  0  0  0  0  0  0  0  0  0
   62.2000   33.8500   46.3910 C   0  0  0  0  0  0  0  0  0  0  0  0
   63.4300   33.5180   46.9690 C   0  0  0  0  0  0  0  0  0  0  0  0
   66.0195   33.3354   51.9412 H   0  0  0  0  0  0  0  0  0  0  0  0
   67.0776   33.0277   50.5226 H   0  0  0  0  0  0  0  0  0  0  0  0
   65.9623   34.4358   50.5226 H   0  0  0  0  0  0  0  0  0  0  0  0
   65.3171   31.4766   50.2373 H   0  0  0  0  0  0  0  0  0  0  0  0
   64.0718   32.6460   50.7936 H   0  0  0  0  0  0  0  0  0  0  0  0
   62.4225   33.1277   50.2122 H   0  0  0  0  0  0  0  0  0  0  0  0
   60.2315   33.7178   49.1803 H   0  0  0  0  0  0  0  0  0  0  0  0
   59.4821   32.0873   47.6927 H   0  0  0  0  0  0  0  0  0  0  0  0
   59.1325   29.6577   48.2262 H   0  0  0  0  0  0  0  0  0  0  0  0
   58.0385   31.4153   43.6391 H   0  0  0  0  0  0  0  0  0  0  0  0
   56.6591   28.7436   43.6795 H   0  0  0  0  0  0  0  0  0  0  0  0
   58.2745   28.4687   43.1140 H   0  0  0  0  0  0  0  0  0  0  0  0
   57.1409   25.7639   43.6901 H   0  0  0  0  0  0  0  0  0  0  0  0
   55.3053   24.7272   46.3962 H   0  0  0  0  0  0  0  0  0  0  0  0
   52.7857   24.7344   45.9478 H   0  0  0  0  0  0  0  0  0  0  0  0
   53.8459   25.2494   44.5923 H   0  0  0  0  0  0  0  0  0  0  0  0
   53.1229   23.6050   44.5923 H   0  0  0  0  0  0  0  0  0  0  0  0
   53.3625   23.2484   47.4950 H   0  0  0  0  0  0  0  0  0  0  0  0
   54.3565   21.9081   46.7447 H   0  0  0  0  0  0  0  0  0  0  0  0
   54.7513   22.9444   49.2657 H   0  0  0  0  0  0  0  0  0  0  0  0
   55.9777   22.0752   48.2824 H   0  0  0  0  0  0  0  0  0  0  0  0
   55.9351   23.8709   48.2824 H   0  0  0  0  0  0  0  0  0  0  0  0
   58.1497   24.7734   47.8119 H   0  0  0  0  0  0  0  0  0  0  0  0
   58.6851   27.1877   48.2661 H   0  0  0  0  0  0  0  0  0  0  0  0
   62.1395   34.0553   45.3120 H   0  0  0  0  0  0  0  0  0  0  0  0
   64.3302   33.4593   46.3395 H   0  0  0  0  0  0  0  0  0  0  0  0
  1  2  1  0
  2  3  1  0
  3  4  1  0
  4  5  2  0
  5  6  1  0
  6  7  2  0
  7  8  1  0
  8  9  2  0
  8 10  2  0
  8 11  1  0
 11 12  1  0
 12 13  2  0
 13 14  1  0
 14 15  2  0
 15 16  1  0
 16 17  2  0
 16 18  1  0
 18 19  1  0
 19 20  2  0
 20 21  1  0
 21 22  1  0
 22 23  2  0
 22 24  2  0
 22 25  1  0
 25 26  1  0
 26 27  1  0
 26 28  1  0
 28 29  1  0
 21 30  2  0
 30 31  1  0
 31 32  2  0
  7 33  1  0
 33 34  2  0
 34  4  1  0
 17 12  1  0
 32 19  1  0
 32 15  1  0
  1 35  1  0
  1 36  1  0
  1 37  1  0
  2 38  1  0
  2 39  1  0
  5 40  1  0
  6 41  1  0
 13 42  1  0
 14 43  1  0
 17 44  1  0
 18 45  1  0
 18 46  1  0
 20 47  1  0
 26 48  1  1
 27 49  1  0
 27 50  1  0
 27 51  1  0
 28 52  1  0
 28 53  1  0
 29 54  1  0
 29 55  1  0
 29 56  1  0
 30 57  1  0
 31 58  1  0
 33 59  1  0
 34 60  1  0
M  CHG  2  11  -1  25  -1
M  END
>  <UniqueID>  (40) 
37

>  <SMILES>  (40) 
CCOc1ccc(S(=O)(=O)[N-]c2ccc3c(c2)Cc2cc(S(=O)(=O)[N-][C@@H](C)CC)ccc2-3)cc1

>  <Energy>  (40) 
84.00061072142105

>  <Genealogy>  (40) 
CCOc1ccc(S(=O)(=O)[N-]c2ccc3c(c2)Cc2cc(S(=O)(=O)[N-]C(C)CC)ccc2-3)cc1 (protonated)
CCOc1ccc(S(=O)(=O)[N-]c2ccc3c(c2)Cc2cc(S(=O)(=O)[N-][C@@H](C)CC)ccc2-3)cc1 (chirality)
CCOc1ccc(S(=O)(=O)[N-]c2ccc3c(c2)Cc2cc(S(=O)(=O)[N-][C@@H](C)CC)ccc2-3)cc1 (3D coordinates assigned)
CCOc1ccc(S(=O)(=O)[N-]c2ccc3c(c2)Cc2cc(S(=O)(=O)[N-][C@@H](C)CC)ccc2-3)cc1 (nonaromatic ring conformer: 84.00061072142105 kcal/mol)

>  <smiles>  (40) 
CCOc1ccc(S(=O)(=O)Nc2ccc3c(c2)Cc2cc(S(=O)(=O)NC(C)CC)ccc2-3)cc1

>  <score_type>  (40) 
oracle

>  <origin>  (40) 
adg

>  <m_score__min__energy>  (40) 
-11.43

>  <m_primary>  (40) 
energy

$$$$
40:0
     RDKit          3D

 56 58  0  0  1  0  0  0  0  0999 V2000
   56.8240   21.3400   43.0460 C   0  0  0  0  0  0  0  0  0  0  0  0
   55.8470   22.3090   43.4020 O   0  0  0  0  0  0  0  0  0  0  0  0
   56.1710   23.4410   44.1360 C   0  0  0  0  0  0  0  0  0  0  0  0
   57.4200   23.9780   44.0250 C   0  0  0  0  0  0  0  0  0  0  0  0
   57.7740   25.1140   44.7510 C   0  0  0  0  0  0  0  0  0  0  0  0
   56.8930   25.7490   45.6080 C   0  0  0  0  0  0  0  0  0  0  0  0
   57.2580   26.8650   46.3120 O   0  0  0  0  0  0  0  0  0  0  0  0
   58.4020   27.5810   45.9920 C   0  0  0  0  0  0  0  0  0  0  0  0
   59.5040   27.6150   46.8770 C   0  0  0  0  0  0  0  0  0  0  0  0
   59.3690   26.9250   48.0270 O   0  0  0  0  0  0  0  0  0  0  0  0
   60.3630   26.6240   48.9360 C   0  0  0  0  0  0  0  0  0  0  0  0
   60.7320   27.8030   49.8000 C   0  0  0  0  0  0  0  0  0  0  0  0
   60.6180   28.9910   49.0340 O   0  0  0  0  0  0  0  0  0  0  0  0
   60.5440   28.3340   46.4630 N   0  0  0  0  0  0  0  0  0  0  0  0
   60.5880   29.0010   45.2850 C   0  0  0  0  0  0  0  0  0  0  0  0
   59.5620   28.9880   44.4290 N   0  0  0  0  0  0  0  0  0  0  0  0
   58.4620   28.2730   44.7880 C   0  0  0  0  0  0  0  0  0  0  0  0
   57.4920   28.2950   43.9400 N   0  0  0  0  0  0  0  0  0  0  0  0
   56.5220   29.6770   43.7250 S   0  0  0  0  0  0  0  0  0  0  0  0
   55.1450   29.3660   44.2930 O   0  0  0  0  0  0  0  0  0  0  0  0
   56.2990   29.8470   42.2430 O   0  0  0  0  0  0  0  0  0  0  0  0
   57.1720   31.1280   44.4330 C   0  0  0  0  0  0  0  0  0  0  0  0
   57.4430   32.2420   43.6640 C   0  0  0  0  0  0  0  0  0  0  0  0
   57.9530   33.3580   44.2720 C   0  0  0  0  0  0  0  0  0  0  0  0
   58.1910   33.3560   45.6500 C   0  0  0  0  0  0  0  0  0  0  0  0
   58.7390   34.5920   46.2270 C   0  0  0  0  0  0  0  0  0  0  0  0
   59.5480   35.3920   45.2390 C   0  0  0  0  0  0  0  0  0  0  0  0
   59.5880   34.1980   47.4360 C   0  0  0  0  0  0  0  0  0  0  0  0
   57.9070   32.2170   46.3950 C   0  0  0  0  0  0  0  0  0  0  0  0
   57.4000   31.1250   45.7610 N   0  0  0  0  0  0  0  0  0  0  0  0
   55.6290   25.1840   45.7020 C   0  0  0  0  0  0  0  0  0  0  0  0
   55.2760   24.0450   44.9740 C   0  0  0  0  0  0  0  0  0  0  0  0
   57.2605   20.9071   43.9582 H   0  0  0  0  0  0  0  0  0  0  0  0
   56.3514   20.5438   42.4521 H   0  0  0  0  0  0  0  0  0  0  0  0
   57.6163   21.8192   42.4521 H   0  0  0  0  0  0  0  0  0  0  0  0
   58.1560   23.5094   43.3551 H   0  0  0  0  0  0  0  0  0  0  0  0
   58.7901   25.5201   44.6385 H   0  0  0  0  0  0  0  0  0  0  0  0
   60.0125   25.8075   49.5845 H   0  0  0  0  0  0  0  0  0  0  0  0
   61.2587   26.3331   48.3675 H   0  0  0  0  0  0  0  0  0  0  0  0
   60.0524   27.8544   50.6634 H   0  0  0  0  0  0  0  0  0  0  0  0
   61.7654   27.6908   50.1598 H   0  0  0  0  0  0  0  0  0  0  0  0
   59.7680   29.0080   48.5430 H   0  0  0  0  0  0  0  0  0  0  0  0
   61.3710   28.4210   47.0620 H   0  0  0  0  0  0  0  0  0  0  0  0
   61.4935   29.5692   45.0257 H   0  0  0  0  0  0  0  0  0  0  0  0
   57.2524   32.2333   42.5807 H   0  0  0  0  0  0  0  0  0  0  0  0
   58.1754   34.2558   43.6766 H   0  0  0  0  0  0  0  0  0  0  0  0
   57.9076   35.2480   46.5245 H   0  0  0  0  0  0  0  0  0  0  0  0
   60.2284   36.0648   45.7816 H   0  0  0  0  0  0  0  0  0  0  0  0
   60.1346   34.7090   44.6071 H   0  0  0  0  0  0  0  0  0  0  0  0
   58.8716   35.9862   44.6071 H   0  0  0  0  0  0  0  0  0  0  0  0
   59.0477   34.4487   48.3608 H   0  0  0  0  0  0  0  0  0  0  0  0
   59.7855   33.1162   47.4085 H   0  0  0  0  0  0  0  0  0  0  0  0
   60.5416   34.7456   47.4085 H   0  0  0  0  0  0  0  0  0  0  0  0
   58.0893   32.1989   47.4796 H   0  0  0  0  0  0  0  0  0  0  0  0
   54.8848   25.6454   46.3678 H   0  0  0  0  0  0  0  0  0  0  0  0
   54.2632   23.6283   45.0767 H   0  0  0  0  0  0  0  0  0  0  0  0
  1  2  1  0
  2  3  1  0
  3  4  2  0
  4  5  1  0
  5  6  2  0
  6  7  1  0
  7  8  1  0
  8  9  2  0
  9 10  1  0
 10 11  1  0
 11 12  1  0
 12 13  1  0
  9 14  1  0
 14 15  1  0
 15 16  2  0
 16 17  1  0
 17 18  2  0
 18 19  1  0
 19 20  2  0
 19 21  2  0
 19 22  1  0
 22 23  2  0
 23 24  1  0
 24 25  2  0
 25 26  1  0
 26 27  1  0
 26 28  1  0
 25 29  1  0
 29 30  2  0
  6 31  1  0
 31 32  2  0
 32  3  1  0
 17  8  1  0
 30 22  1  0
  1 33  1  0
  1 34  1  0
  1 35  1  0
  4 36  1  0
  5 37  1  0
 11 38  1  0
 11 39  1  0
 12 40  1  0
 12 41  1  0
 13 42  1  0
 14 43  1  0
 15 44  1  0
 23 45  1  0
 24 46  1  0
 26 47  1  0
 27 48  1  0
 27 49  1  0
 27 50  1  0
 28 51  1  0
 28 52  1  0
 28 53  1  0
 29 54  1  0
 31 55  1  0
 32 56  1  0
M  END
>  <smiles>  (41) 
COc1ccc(Oc2c(OCCO)[nH]cnc2=NS(=O)(=O)c2ccc(C(C)C)cn2)cc1

>  <score_type>  (41) 
oracle

>  <origin>  (41) 
adg

>  <m_score__min__energy>  (41) 
-8.9700000000000006

>  <m_primary>  (41) 
energy

$$$$
41:0
     RDKit          3D

 66 68  0  0  0  0  0  0  0  0999 V2000
   57.7130   31.3730   51.2990 C   0  0  0  0  0  0  0  0  0  0  0  0
   58.1880   30.5340   50.2480 O   0  0  0  0  0  0  0  0  0  0  0  0
   59.1360   30.9210   49.2870 C   0  0  0  0  0  0  0  0  0  0  0  0
   59.1500   32.2170   48.7300 C   0  0  0  0  0  0  0  0  0  0  0  0
   60.1020   32.5670   47.7600 C   0  0  0  0  0  0  0  0  0  0  0  0
   60.1160   33.9580   47.1790 C   0  0  0  0  0  0  0  0  0  0  0  0
   58.6970   34.5310   47.0990 C   0  0  0  0  0  0  0  0  0  0  0  0
   58.1290   34.3030   45.7480 N   0  0  0  0  0  0  0  0  0  0  0  0
   59.2060   34.3080   44.7360 C   0  0  0  0  0  0  0  0  0  0  0  0
   57.3670   33.0330   45.7050 C   0  0  0  0  0  0  0  0  0  0  0  0
   57.6250   32.2610   44.3990 C   0  0  0  0  0  0  0  0  0  0  0  0
   58.5300   31.0400   44.6170 C   0  0  0  0  0  0  0  0  0  0  0  0
   57.7500   29.8600   45.0250 N   0  0  0  0  0  0  0  0  0  0  0  0
   57.7240   29.4340   46.4270 C   0  0  0  0  0  0  0  0  0  0  0  0
   58.5800   28.1800   46.6080 C   0  0  0  0  0  0  0  0  0  0  0  0
   58.0740   26.8860   45.9760 C   0  0  0  0  0  0  0  0  0  0  0  0
   57.9930   25.7830   46.8480 C   0  0  0  0  0  0  0  0  0  0  0  0
   57.6170   24.5080   46.3940 C   0  0  0  0  0  0  0  0  0  0  0  0
   57.5250   23.4050   47.2590 O   0  0  0  0  0  0  0  0  0  0  0  0
   56.3130   22.9170   47.8250 C   0  0  0  0  0  0  0  0  0  0  0  0
   57.3170   24.3170   45.0430 C   0  0  0  0  0  0  0  0  0  0  0  0
   56.9270   23.0340   44.6240 O   0  0  0  0  0  0  0  0  0  0  0  0
   56.4280   22.7220   43.3250 C   0  0  0  0  0  0  0  0  0  0  0  0
   57.4060   25.4010   44.1540 C   0  0  0  0  0  0  0  0  0  0  0  0
   57.7990   26.6840   44.5890 C   0  0  0  0  0  0  0  0  0  0  0  0
   57.7960   27.7890   43.5500 C   0  0  0  0  0  0  0  0  0  0  0  0
   57.1170   29.0310   44.0370 C   0  0  0  0  0  0  0  0  0  0  0  0
   55.9930   29.3500   43.5600 O   0  0  0  0  0  0  0  0  0  0  0  0
   61.0640   31.6280   47.3660 C   0  0  0  0  0  0  0  0  0  0  0  0
   61.0590   30.3440   47.9150 C   0  0  0  0  0  0  0  0  0  0  0  0
   60.0990   29.9840   48.8670 C   0  0  0  0  0  0  0  0  0  0  0  0
   60.1190   28.6900   49.3870 O   0  0  0  0  0  0  0  0  0  0  0  0
   57.9674   30.9236   52.2703 H   0  0  0  0  0  0  0  0  0  0  0  0
   58.1842   32.3637   51.2187 H   0  0  0  0  0  0  0  0  0  0  0  0
   56.6210   31.4787   51.2187 H   0  0  0  0  0  0  0  0  0  0  0  0
   58.4083   32.9598   49.0588 H   0  0  0  0  0  0  0  0  0  0  0  0
   60.7318   34.6088   47.8172 H   0  0  0  0  0  0  0  0  0  0  0  0
   60.5338   33.9103   46.1626 H   0  0  0  0  0  0  0  0  0  0  0  0
   58.0622   34.0358   47.8485 H   0  0  0  0  0  0  0  0  0  0  0  0
   58.7347   35.6127   47.2951 H   0  0  0  0  0  0  0  0  0  0  0  0
   60.1834   34.3125   45.2407 H   0  0  0  0  0  0  0  0  0  0  0  0
   59.1223   33.4095   44.1070 H   0  0  0  0  0  0  0  0  0  0  0  0
   59.1140   35.2057   44.1070 H   0  0  0  0  0  0  0  0  0  0  0  0
   57.6704   32.4058   46.5562 H   0  0  0  0  0  0  0  0  0  0  0  0
   56.2948   33.2734   45.7563 H   0  0  0  0  0  0  0  0  0  0  0  0
   56.6614   31.9199   43.9927 H   0  0  0  0  0  0  0  0  0  0  0  0
   58.1358   32.9399   43.7003 H   0  0  0  0  0  0  0  0  0  0  0  0
   59.0577   30.8134   43.6788 H   0  0  0  0  0  0  0  0  0  0  0  0
   59.2446   31.2772   45.4190 H   0  0  0  0  0  0  0  0  0  0  0  0
   58.1212   30.2409   47.0604 H   0  0  0  0  0  0  0  0  0  0  0  0
   56.6871   29.2086   46.7169 H   0  0  0  0  0  0  0  0  0  0  0  0
   59.5702   28.3917   46.1782 H   0  0  0  0  0  0  0  0  0  0  0  0
   58.5696   27.9866   47.6908 H   0  0  0  0  0  0  0  0  0  0  0  0
   58.2305   25.9237   47.9128 H   0  0  0  0  0  0  0  0  0  0  0  0
   56.3833   22.9453   48.9224 H   0  0  0  0  0  0  0  0  0  0  0  0
   55.4742   23.5475   47.4949 H   0  0  0  0  0  0  0  0  0  0  0  0
   56.1451   21.8812   47.4949 H   0  0  0  0  0  0  0  0  0  0  0  0
   55.4987   22.1410   43.4190 H   0  0  0  0  0  0  0  0  0  0  0  0
   56.2240   23.6537   42.7770 H   0  0  0  0  0  0  0  0  0  0  0  0
   57.1763   22.1307   42.7770 H   0  0  0  0  0  0  0  0  0  0  0  0
   57.1632   25.2455   43.0925 H   0  0  0  0  0  0  0  0  0  0  0  0
   58.8370   28.0338   43.2922 H   0  0  0  0  0  0  0  0  0  0  0  0
   57.2382   27.4239   42.6750 H   0  0  0  0  0  0  0  0  0  0  0  0
   61.8258   31.9030   46.6217 H   0  0  0  0  0  0  0  0  0  0  0  0
   61.8148   29.6108   47.5969 H   0  0  0  0  0  0  0  0  0  0  0  0
   59.4710   28.3860   50.1010 H   0  0  0  0  0  0  0  0  0  0  0  0
  1  2  1  0
  2  3  1  0
  3  4  2  0
  4  5  1  0
  5  6  1  0
  6  7  1  0
  7  8  1  0
  8  9  1  0
  8 10  1  0
 10 11  1  0
 11 12  1  0
 12 13  1  0
 13 14  1  0
 14 15  1  0
 15 16  1  0
 16 17  2  0
 17 18  1  0
 18 19  1  0
 19 20  1  0
 18 21  2  0
 21 22  1  0
 22 23  1  0
 21 24  1  0
 24 25  2  0
 25 26  1  0
 26 27  1  0
 27 28  2  0
  5 29  2  0
 29 30  1  0
 30 31  2  0
 31 32  1  0
 31  3  1  0
 27 13  1  0
 25 16  1  0
  1 33  1  0
  1 34  1  0
  1 35  1  0
  4 36  1  0
  6 37  1  0
  6 38  1  0
  7 39  1  0
  7 40  1  0
  9 41  1  0
  9 42  1  0
  9 43  1  0
 10 44  1  0
 10 45  1  0
 11 46  1  0
 11 47  1  0
 12 48  1  0
 12 49  1  0
 14 50  1  0
 14 51  1  0
 15 52  1  0
 15 53  1  0
 17 54  1  0
 20 55  1  0
 20 56  1  0
 20 57  1  0
 23 58  1  0
 23 59  1  0
 23 60  1  0
 24 61  1  0
 26 62  1  0
 26 63  1  0
 29 64  1  0
 30 65  1  0
 32 66  1  0
M  END
>  <UniqueID>  (42) 
38

>  <SMILES>  (42) 
COc1cc(CCN(C)CCCN2CCc3cc(OC)c(OC)cc3CC2=O)ccc1O

>  <Energy>  (42) 
69.30593615422592

>  <Genealogy>  (42) 
COc1cc(CCN(C)CCCN2CCc3cc(OC)c(OC)cc3CC2=O)ccc1O (3D coordinates assigned)
COc1cc(CCN(C)CCCN2CCc3cc(OC)c(OC)cc3CC2=O)ccc1O (nonaromatic ring conformer: 69.30593615422592 kcal/mol)

>  <smiles>  (42) 
COc1cc(CCN(C)CCCN2CCc3cc(OC)c(OC)cc3CC2=O)ccc1O

>  <score_type>  (42) 
oracle

>  <origin>  (42) 
adg

>  <m_score__min__energy>  (42) 
-6.54

>  <m_primary>  (42) 
energy

$$$$
42:0
     RDKit          3D

 40 41  0  0  0  0  0  0  0  0999 V2000
   66.9100   31.8980   50.7700 C   0  0  0  0  0  0  0  0  0  0  0  0
   65.6350   31.2020   50.8610 N   0  0  0  0  0  0  0  0  0  0  0  0
   64.4550   31.5940   50.1530 C   0  0  0  0  0  0  0  0  0  0  0  0
   63.3430   31.1380   50.5310 O   0  0  0  0  0  0  0  0  0  0  0  0
   64.5320   32.4610   49.0080 N   0  0  0  0  0  0  0  0  0  0  0  0
   63.3940   33.1180   48.4240 C   0  0  0  0  0  0  0  0  0  0  0  0
   62.3880   33.6250   49.2600 C   0  0  0  0  0  0  0  0  0  0  0  0
   61.2620   34.2520   48.7180 C   0  0  0  0  0  0  0  0  0  0  0  0
   61.1140   34.3580   47.3260 C   0  0  0  0  0  0  0  0  0  0  0  0
   59.9220   35.0660   46.7430 C   0  0  0  0  0  0  0  0  0  0  0  0
   58.9430   34.0660   46.1910 C   0  0  0  0  0  0  0  0  0  0  0  0
   58.3670   34.2610   44.9260 C   0  0  0  0  0  0  0  0  0  0  0  0
   57.4870   33.3130   44.3980 C   0  0  0  0  0  0  0  0  0  0  0  0
   57.1740   32.1540   45.1190 C   0  0  0  0  0  0  0  0  0  0  0  0
   56.2650   31.2110   44.5340 N   0  0  0  0  0  0  0  0  0  0  0  0
   56.6360   29.5670   44.1190 S   0  0  0  0  0  0  0  0  0  0  0  0
   58.3360   29.2080   44.5000 C   0  0  0  0  0  0  0  0  0  0  0  0
   56.3630   29.3320   42.6590 O   0  0  0  0  0  0  0  0  0  0  0  0
   55.7570   28.6560   44.9270 O   0  0  0  0  0  0  0  0  0  0  0  0
   57.7610   31.9500   46.3800 C   0  0  0  0  0  0  0  0  0  0  0  0
   58.6420   32.8990   46.9090 C   0  0  0  0  0  0  0  0  0  0  0  0
   62.1120   33.8410   46.4870 C   0  0  0  0  0  0  0  0  0  0  0  0
   63.2380   33.2170   47.0300 C   0  0  0  0  0  0  0  0  0  0  0  0
   67.2881   32.1044   51.7821 H   0  0  0  0  0  0  0  0  0  0  0  0
   67.6331   31.2695   50.2295 H   0  0  0  0  0  0  0  0  0  0  0  0
   66.7724   32.8461   50.2295 H   0  0  0  0  0  0  0  0  0  0  0  0
   65.4470   32.5470   48.5120 H   0  0  0  0  0  0  0  0  0  0  0  0
   62.4859   33.5284   50.3514 H   0  0  0  0  0  0  0  0  0  0  0  0
   60.4896   34.6635   49.3844 H   0  0  0  0  0  0  0  0  0  0  0  0
   59.4315   35.6592   47.5288 H   0  0  0  0  0  0  0  0  0  0  0  0
   60.2586   35.7257   45.9296 H   0  0  0  0  0  0  0  0  0  0  0  0
   58.6096   35.1646   44.3475 H   0  0  0  0  0  0  0  0  0  0  0  0
   57.0365   33.4783   43.4082 H   0  0  0  0  0  0  0  0  0  0  0  0
   58.4691   29.1799   45.5916 H   0  0  0  0  0  0  0  0  0  0  0  0
   58.6095   28.2323   44.0720 H   0  0  0  0  0  0  0  0  0  0  0  0
   58.9807   29.9898   44.0720 H   0  0  0  0  0  0  0  0  0  0  0  0
   57.5266   31.0407   46.9528 H   0  0  0  0  0  0  0  0  0  0  0  0
   59.1015   32.7292   47.8939 H   0  0  0  0  0  0  0  0  0  0  0  0
   62.0076   33.9273   45.3954 H   0  0  0  0  0  0  0  0  0  0  0  0
   64.0072   32.8006   46.3629 H   0  0  0  0  0  0  0  0  0  0  0  0
  1  2  1  0
  2  3  1  0
  3  4  2  0
  3  5  1  0
  5  6  1  0
  6  7  2  0
  7  8  1  0
  8  9  2  0
  9 10  1  0
 10 11  1  0
 11 12  2  0
 12 13  1  0
 13 14  2  0
 14 15  1  0
 15 16  1  0
 16 17  1  0
 16 18  2  0
 16 19  2  0
 14 20  1  0
 20 21  2  0
  9 22  1  0
 22 23  2  0
 23  6  1  0
 21 11  1  0
  1 24  1  0
  1 25  1  0
  1 26  1  0
  5 27  1  0
  7 28  1  0
  8 29  1  0
 10 30  1  0
 10 31  1  0
 12 32  1  0
 13 33  1  0
 17 34  1  0
 17 35  1  0
 17 36  1  0
 20 37  1  0
 21 38  1  0
 22 39  1  0
 23 40  1  0
M  CHG  2   2  -1  15  -1
M  END
>  <UniqueID>  (43) 
39

>  <SMILES>  (43) 
C[N-]C(=O)Nc1ccc(Cc2ccc([N-]S(C)(=O)=O)cc2)cc1

>  <Energy>  (43) 
38.52037372449724

>  <Genealogy>  (43) 
C[N-]C(=O)Nc1ccc(Cc2ccc([N-]S(C)(=O)=O)cc2)cc1 (protonated)
C[N-]C(=O)Nc1ccc(Cc2ccc([N-]S(C)(=O)=O)cc2)cc1 (3D coordinates assigned)
C[N-]C(=O)Nc1ccc(Cc2ccc([N-]S(C)(=O)=O)cc2)cc1 (optimized conformer: 38.52037372449724 kcal/mol)

>  <smiles>  (43) 
CNC(=O)Nc1ccc(Cc2ccc(NS(C)(=O)=O)cc2)cc1

>  <score_type>  (43) 
oracle

>  <origin>  (43) 
adg

>  <m_score__min__energy>  (43) 
-10.42

>  <m_primary>  (43) 
energy

$$$$
43:0
     RDKit          3D

 56 58  0  0  0  0  0  0  0  0999 V2000
   62.8300   33.4940   46.7200 C   0  0  0  0  0  0  0  0  0  0  0  0
   61.5010   33.3930   46.7350 C   0  0  0  0  0  0  0  0  0  0  0  0
   60.7180   32.9690   47.9260 C   0  0  0  0  0  0  0  0  0  0  0  0
   60.4050   33.8800   48.9550 C   0  0  0  0  0  0  0  0  0  0  0  0
   59.6490   33.4790   50.0560 C   0  0  0  0  0  0  0  0  0  0  0  0
   59.1740   32.1680   50.1460 C   0  0  0  0  0  0  0  0  0  0  0  0
   58.1740   31.6760   51.5080 S   0  0  0  0  0  0  0  0  0  0  0  0
   59.2140   31.3210   52.9060 C   0  0  0  0  0  0  0  0  0  0  0  0
   57.3840   30.4500   51.1450 O   0  0  0  0  0  0  0  0  0  0  0  0
   57.2160   32.7800   51.8590 O   0  0  0  0  0  0  0  0  0  0  0  0
   59.4580   31.2590   49.1210 C   0  0  0  0  0  0  0  0  0  0  0  0
   60.2510   31.6390   48.0230 C   0  0  0  0  0  0  0  0  0  0  0  0
   60.5230   30.7120   46.9540 N   0  0  0  0  0  0  0  0  0  0  0  0
   59.9860   29.5380   46.7680 C   0  0  0  0  0  0  0  0  0  0  0  0
   60.7470   28.4200   46.8460 N   0  0  0  0  0  0  0  0  0  0  0  0
   60.2180   27.1950   46.6390 C   0  0  0  0  0  0  0  0  0  0  0  0
   60.9670   26.1850   46.7420 O   0  0  0  0  0  0  0  0  0  0  0  0
   58.8940   27.0610   46.3270 N   0  0  0  0  0  0  0  0  0  0  0  0
   58.3130   25.7190   46.0860 C   0  0  0  0  0  0  0  0  0  0  0  0
   57.0490   25.7560   45.1930 C   0  0  1  0  0  0  0  0  0  0  0  0
   57.1610   24.8440   43.9640 C   0  0  0  0  0  0  0  0  0  0  0  0
   55.7970   25.4700   45.9790 C   0  0  0  0  0  0  0  0  0  0  0  0
   55.7320   24.4780   46.7520 O   0  0  0  0  0  0  0  0  0  0  0  0
   54.7160   26.3370   45.8900 O   0  0  0  0  0  0  0  0  0  0  0  0
   58.1090   28.1870   46.2620 C   0  0  0  0  0  0  0  0  0  0  0  0
   56.8740   28.0740   46.0220 O   0  0  0  0  0  0  0  0  0  0  0  0
   58.6540   29.4320   46.4600 N   0  0  0  0  0  0  0  0  0  0  0  0
   57.8080   30.6440   46.3870 C   0  0  0  0  0  0  0  0  0  0  0  0
   57.6840   31.1160   44.9620 C   0  0  0  0  0  0  0  0  0  0  0  0
   58.2690   32.3290   44.5650 C   0  0  0  0  0  0  0  0  0  0  0  0
   58.1820   32.7530   43.2360 C   0  0  0  0  0  0  0  0  0  0  0  0
   57.5100   31.9690   42.2920 C   0  0  0  0  0  0  0  0  0  0  0  0
   57.4040   32.5030   40.6240 Cl  0  0  0  0  0  0  0  0  0  0  0  0
   56.9270   30.7600   42.6790 C   0  0  0  0  0  0  0  0  0  0  0  0
   57.0120   30.3330   44.0070 C   0  0  0  0  0  0  0  0  0  0  0  0
   63.3469   33.8141   45.8033 H   0  0  0  0  0  0  0  0  0  0  0  0
   63.4098   33.2572   47.6243 H   0  0  0  0  0  0  0  0  0  0  0  0
   60.9520   33.6373   45.8136 H   0  0  0  0  0  0  0  0  0  0  0  0
   60.7610   34.9187   48.8888 H   0  0  0  0  0  0  0  0  0  0  0  0
   59.4255   34.1983   50.8576 H   0  0  0  0  0  0  0  0  0  0  0  0
   58.6568   31.5112   53.8352 H   0  0  0  0  0  0  0  0  0  0  0  0
   59.5241   30.2661   52.8738 H   0  0  0  0  0  0  0  0  0  0  0  0
   60.1044   31.9661   52.8738 H   0  0  0  0  0  0  0  0  0  0  0  0
   59.0569   30.2361   49.1743 H   0  0  0  0  0  0  0  0  0  0  0  0
   59.0713   25.0925   45.5936 H   0  0  0  0  0  0  0  0  0  0  0  0
   58.0129   25.3113   47.0626 H   0  0  0  0  0  0  0  0  0  0  0  0
   56.9751   26.7858   44.8133 H   0  0  0  0  0  0  0  0  0  0  0  0
   57.2890   23.8017   44.2913 H   0  0  0  0  0  0  0  0  0  0  0  0
   56.2457   24.9288   43.3598 H   0  0  0  0  0  0  0  0  0  0  0  0
   58.0286   25.1478   43.3598 H   0  0  0  0  0  0  0  0  0  0  0  0
   56.8072   30.4110   46.7795 H   0  0  0  0  0  0  0  0  0  0  0  0
   58.2745   31.4400   46.9860 H   0  0  0  0  0  0  0  0  0  0  0  0
   58.7985   32.9488   45.3036 H   0  0  0  0  0  0  0  0  0  0  0  0
   58.6426   33.7045   42.9318 H   0  0  0  0  0  0  0  0  0  0  0  0
   56.3998   30.1426   41.9368 H   0  0  0  0  0  0  0  0  0  0  0  0
   56.5511   29.3801   44.3064 H   0  0  0  0  0  0  0  0  0  0  0  0
  1  2  2  0
  2  3  1  0
  3  4  2  0
  4  5  1  0
  5  6  2  0
  6  7  1  0
  7  8  1  0
  7  9  2  0
  7 10  2  0
  6 11  1  0
 11 12  2  0
 12 13  1  0
 13 14  2  3
 14 15  1  0
 15 16  1  0
 16 17  2  0
 16 18  1  0
 18 19  1  0
 19 20  1  0
 20 21  1  0
 20 22  1  0
 22 23  2  0
 22 24  1  0
 18 25  1  0
 25 26  2  0
 25 27  1  0
 27 28  1  0
 28 29  1  0
 29 30  2  0
 30 31  1  0
 31 32  2  0
 32 33  1  0
 32 34  1  0
 34 35  2  0
 12  3  1  0
 27 14  1  0
 35 29  1  0
  1 36  1  0
  1 37  1  0
  2 38  1  0
  4 39  1  0
  5 40  1  0
  8 41  1  0
  8 42  1  0
  8 43  1  0
 11 44  1  0
 19 45  1  0
 19 46  1  0
 20 47  1  6
 21 48  1  0
 21 49  1  0
 21 50  1  0
 28 51  1  0
 28 52  1  0
 30 53  1  0
 31 54  1  0
 34 55  1  0
 35 56  1  0
M  CHG  2  15  -1  24  -1
M  END
>  <UniqueID>  (44) 
40

>  <SMILES>  (44) 
C=Cc1ccc(S(C)(=O)=O)cc1N=c1[n-]c(=O)n(C[C@@H](C)C(=O)[O-])c(=O)n1Cc1ccc(Cl)cc1

>  <Energy>  (44) 
68.2288862710142

>  <Genealogy>  (44) 
C=Cc1ccc(S(C)(=O)=O)cc1N=c1[n-]c(=O)n(CC(C)C(=O)[O-])c(=O)n1Cc1ccc(Cl)cc1 (protonated)
C=Cc1ccc(S(C)(=O)=O)cc1N=c1[n-]c(=O)n(C[C@@H](C)C(=O)[O-])c(=O)n1Cc1ccc(Cl)cc1 (chirality)
C=Cc1ccc(S(C)(=O)=O)cc1N=c1[n-]c(=O)n(C[C@@H](C)C(=O)[O-])c(=O)n1Cc1ccc(Cl)cc1 (3D coordinates assigned)
C=Cc1ccc(S(C)(=O)=O)cc1N=c1[n-]c(=O)n(C[C@@H](C)C(=O)[O-])c(=O)n1Cc1ccc(Cl)cc1 (optimized conformer: 68.2288862710142 kcal/mol)

>  <smiles>  (44) 
C=Cc1ccc(S(C)(=O)=O)cc1N=c1[nH]c(=O)n(CC(C)C(=O)O)c(=O)n1Cc1ccc(Cl)cc1

>  <score_type>  (44) 
oracle

>  <origin>  (44) 
adg

>  <m_score__min__energy>  (44) 
-14.07

>  <m_primary>  (44) 
energy

$$$$
44:0
     RDKit          3D

 54 57  0  0  0  0  0  0  0  0999 V2000
   57.8166   32.6466   42.5594 H   0  0  0  0  0  0  0  0  0  0  0  0
   57.4120   31.7950   43.1260 C   0  0  0  0  0  0  0  0  0  0  0  0
   56.8170   30.7600   42.4760 N   0  0  0  0  0  0  0  0  0  0  0  0
   56.3020   29.6960   43.1520 C   0  0  0  0  0  0  0  0  0  0  0  0
   55.8230   28.8700   42.6059 H   0  0  0  0  0  0  0  0  0  0  0  0
   56.3880   29.6640   44.5440 C   0  0  0  0  0  0  0  0  0  0  0  0
   55.8960   28.6550   45.2010 N   0  0  0  0  0  0  0  0  0  0  0  0
   56.6540   27.4680   45.6020 C   0  0  0  0  0  0  0  0  0  0  0  0
   55.9740   26.6041   45.6375 H   0  0  0  0  0  0  0  0  0  0  0  0
   57.0962   27.6573   46.5912 H   0  0  0  0  0  0  0  0  0  0  0  0
   57.7830   27.1710   44.6200 C   0  0  0  0  0  0  0  0  0  0  0  0
   57.4976   27.5250   43.6184 H   0  0  0  0  0  0  0  0  0  0  0  0
   57.9639   26.0863   44.5939 H   0  0  0  0  0  0  0  0  0  0  0  0
   58.9740   27.8350   45.0340 O   0  0  0  0  0  0  0  0  0  0  0  0
   59.2940   28.1310   46.3670 C   0  0  0  0  0  0  0  0  0  0  0  0
   60.0070   27.1830   47.1060 C   0  0  0  0  0  0  0  0  0  0  0  0
   60.2953   26.2305   46.6373 H   0  0  0  0  0  0  0  0  0  0  0  0
   60.3570   27.4350   48.4360 C   0  0  0  0  0  0  0  0  0  0  0  0
   60.9372   26.6902   49.0005 H   0  0  0  0  0  0  0  0  0  0  0  0
   59.9710   28.6340   49.0530 C   0  0  0  0  0  0  0  0  0  0  0  0
   60.3800   28.9270   50.4670 C   0  0  0  0  0  0  0  0  0  0  0  0
   59.6856   28.4296   51.1601 H   0  0  0  0  0  0  0  0  0  0  0  0
   61.4001   28.5530   50.6386 H   0  0  0  0  0  0  0  0  0  0  0  0
   60.3540   30.0132   50.6386 H   0  0  0  0  0  0  0  0  0  0  0  0
   59.2590   29.5890   48.3150 C   0  0  0  0  0  0  0  0  0  0  0  0
   58.9647   30.5379   48.7871 H   0  0  0  0  0  0  0  0  0  0  0  0
   58.9210   29.3410   46.9810 C   0  0  0  0  0  0  0  0  0  0  0  0
   58.3609   30.0953   46.4089 H   0  0  0  0  0  0  0  0  0  0  0  0
   56.9940   30.6950   45.1920 N   0  0  0  0  0  0  0  0  0  0  0  0
   57.5060   31.7680   44.5280 C   0  0  0  0  0  0  0  0  0  0  0  0
   58.1740   32.8290   45.3100 C   0  0  0  0  0  0  0  0  0  0  0  0
   58.2650   32.6750   46.6580 N   0  0  0  0  0  0  0  0  0  0  0  0
   58.8500   33.5980   47.4680 C   0  0  0  0  0  0  0  0  0  0  0  0
   58.9210   33.4110   48.7520 N   0  0  0  0  0  0  0  0  0  0  0  0
   59.9600   32.6330   49.4290 C   0  0  0  0  0  0  0  0  0  0  0  0
   60.1066   33.0290   50.4447 H   0  0  0  0  0  0  0  0  0  0  0  0
   59.6452   31.5801   49.4780 H   0  0  0  0  0  0  0  0  0  0  0  0
   61.2550   32.7230   48.6690 C   0  0  0  0  0  0  0  0  0  0  0  0
   61.6680   31.6560   47.8560 C   0  0  0  0  0  0  0  0  0  0  0  0
   61.0349   30.7611   47.7640 H   0  0  0  0  0  0  0  0  0  0  0  0
   62.8810   31.7250   47.1620 C   0  0  0  0  0  0  0  0  0  0  0  0
   63.1921   30.8920   46.5145 H   0  0  0  0  0  0  0  0  0  0  0  0
   63.6960   32.8500   47.2910 C   0  0  0  0  0  0  0  0  0  0  0  0
   64.6492   32.9042   46.7447 H   0  0  0  0  0  0  0  0  0  0  0  0
   63.3010   33.9090   48.1150 C   0  0  0  0  0  0  0  0  0  0  0  0
   63.9478   34.7923   48.2217 H   0  0  0  0  0  0  0  0  0  0  0  0
   62.0860   33.8470   48.8030 C   0  0  0  0  0  0  0  0  0  0  0  0
   61.7798   34.6812   49.4514 H   0  0  0  0  0  0  0  0  0  0  0  0
   59.3770   34.7660   46.9090 C   0  0  0  0  0  0  0  0  0  0  0  0
   59.8476   35.5257   47.5504 H   0  0  0  0  0  0  0  0  0  0  0  0
   59.3000   34.9580   45.5310 C   0  0  0  0  0  0  0  0  0  0  0  0
   59.7169   35.8705   45.0799 H   0  0  0  0  0  0  0  0  0  0  0  0
   58.6950   33.9950   44.7220 C   0  0  0  0  0  0  0  0  0  0  0  0
   58.6264   34.1468   43.6347 H   0  0  0  0  0  0  0  0  0  0  0  0
  1  2  1  0
  2  3  1  0
  3  4  2  0
  4  5  1  0
  4  6  1  0
  6  7  2  0
  7  8  1  0
  8  9  1  0
  8 10  1  0
  8 11  1  0
 11 12  1  0
 11 13  1  0
 11 14  1  0
 14 15  1  0
 15 16  2  0
 16 17  1  0
 16 18  1  0
 18 19  1  0
 18 20  2  0
 20 21  1  0
 21 22  1  0
 21 23  1  0
 21 24  1  0
 20 25  1  0
 25 26  1  0
 25 27  2  0
 27 28  1  0
  6 29  1  0
 29 30  1  0
 30 31  1  0
 31 32  1  0
 32 33  1  0
 33 34  2  0
 34 35  1  0
 35 36  1  0
 35 37  1  0
 35 38  1  0
 38 39  2  0
 39 40  1  0
 39 41  1  0
 41 42  1  0
 41 43  2  0
 43 44  1  0
 43 45  1  0
 45 46  1  0
 45 47  2  0
 47 48  1  0
 33 49  1  0
 49 50  1  0
 49 51  2  0
 51 52  1  0
 51 53  1  0
 53 54  1  0
 30  2  2  0
 53 31  2  0
 27 15  1  0
 47 38  1  0
M  CHG  2  29  -1  32  -1
M  END
>  <UniqueID>  (45) 
41

>  <SMILES>  (45) 
Cc1ccc(OCC/N=c2/cncc(-c3ccc/c(=N/Cc4ccccc4)[n-]3)[n-]2)cc1

>  <Energy>  (45) 
55.87728436238784

>  <Genealogy>  (45) 
Cc1ccc(OCCN=c2cncc(-c3cccc(=NCc4ccccc4)[n-]3)[n-]2)cc1 (protonated)
Cc1ccc(OCC/N=c2/cncc(-c3ccc/c(=N/Cc4ccccc4)[n-]3)[n-]2)cc1 (cis-trans isomerization)
Cc1ccc(OCC/N=c2/cncc(-c3ccc/c(=N/Cc4ccccc4)[n-]3)[n-]2)cc1 (3D coordinates assigned)
Cc1ccc(OCC/N=c2/cncc(-c3ccc/c(=N/Cc4ccccc4)[n-]3)[n-]2)cc1 (optimized conformer: 55.87728436238784 kcal/mol)

>  <smiles>  (45) 
Cc1ccc(OCCN=c2cncc(-c3cccc(=NCc4ccccc4)[nH]3)[nH]2)cc1

>  <score_type>  (45) 
oracle

>  <origin>  (45) 
adg

>  <m_score__min__energy>  (45) 
-12.359999999999999

>  <m_primary>  (45) 
energy

$$$$
45:0
     RDKit          3D

 48 51  0  0  0  0  0  0  0  0999 V2000
   55.5330   30.4670   44.5520 O   0  0  0  0  0  0  0  0  0  0  0  0
   56.6990   30.7440   44.1630 C   0  0  0  0  0  0  0  0  0  0  0  0
   57.2430   30.0310   43.0460 N   0  0  0  0  0  0  0  0  0  0  0  0
   57.0140   28.6130   42.7900 C   0  0  0  0  0  0  0  0  0  0  0  0
   58.1820   27.7970   43.3370 C   0  0  0  0  0  0  0  0  0  0  0  0
   58.0200   27.5710   44.8110 C   0  0  0  0  0  0  0  0  0  0  0  0
   57.0570   26.7750   45.4290 C   0  0  0  0  0  0  0  0  0  0  0  0
   57.1490   26.8870   46.7740 N   0  0  0  0  0  0  0  0  0  0  0  0
   58.1510   27.7520   47.0110 C   0  0  0  0  0  0  0  0  0  0  0  0
   58.6080   28.2020   48.2520 C   0  0  0  0  0  0  0  0  0  0  0  0
   59.6640   29.1320   48.2700 C   0  0  0  0  0  0  0  0  0  0  0  0
   60.2310   29.5960   47.0590 C   0  0  0  0  0  0  0  0  0  0  0  0
   61.5450   30.7620   47.1000 Cl  0  0  0  0  0  0  0  0  0  0  0  0
   59.7450   29.1280   45.8210 C   0  0  0  0  0  0  0  0  0  0  0  0
   58.7030   28.1990   45.8370 C   0  0  0  0  0  0  0  0  0  0  0  0
   57.4520   31.8070   44.8520 C   0  0  0  0  0  0  0  0  0  0  0  0
   57.8710   32.9490   44.1560 C   0  0  0  0  0  0  0  0  0  0  0  0
   58.5810   33.9560   44.8140 C   0  0  0  0  0  0  0  0  0  0  0  0
   58.8980   33.8270   46.1760 C   0  0  0  0  0  0  0  0  0  0  0  0
   59.6370   34.9240   46.8930 C   0  0  0  0  0  0  0  0  0  0  0  0
   60.8610   34.3770   47.5770 C   0  0  0  0  0  0  0  0  0  0  0  0
   60.8730   34.2140   48.9760 C   0  0  0  0  0  0  0  0  0  0  0  0
   62.0070   33.7010   49.6120 C   0  0  0  0  0  0  0  0  0  0  0  0
   63.1350   33.3440   48.8600 C   0  0  0  0  0  0  0  0  0  0  0  0
   63.1240   33.4860   47.4680 C   0  0  0  0  0  0  0  0  0  0  0  0
   64.2100   33.1240   46.7410 F   0  0  0  0  0  0  0  0  0  0  0  0
   61.9900   33.9940   46.8260 C   0  0  0  0  0  0  0  0  0  0  0  0
   58.4890   32.6770   46.8710 C   0  0  0  0  0  0  0  0  0  0  0  0
   57.7800   31.6670   46.2100 C   0  0  0  0  0  0  0  0  0  0  0  0
   56.0838   28.2975   43.2851 H   0  0  0  0  0  0  0  0  0  0  0  0
   56.9296   28.4473   41.7058 H   0  0  0  0  0  0  0  0  0  0  0  0
   58.2165   26.8249   42.8233 H   0  0  0  0  0  0  0  0  0  0  0  0
   59.1160   28.3513   43.1625 H   0  0  0  0  0  0  0  0  0  0  0  0
   56.3268   26.1458   44.8989 H   0  0  0  0  0  0  0  0  0  0  0  0
   56.5490   26.4060   47.4820 H   0  0  0  0  0  0  0  0  0  0  0  0
   58.1559   27.8402   49.1873 H   0  0  0  0  0  0  0  0  0  0  0  0
   60.0512   29.5007   49.2313 H   0  0  0  0  0  0  0  0  0  0  0  0
   60.1734   29.4837   44.8723 H   0  0  0  0  0  0  0  0  0  0  0  0
   57.6395   33.0529   43.0857 H   0  0  0  0  0  0  0  0  0  0  0  0
   58.8935   34.8549   44.2624 H   0  0  0  0  0  0  0  0  0  0  0  0
   59.9414   35.6907   46.1653 H   0  0  0  0  0  0  0  0  0  0  0  0
   58.9724   35.3630   47.6517 H   0  0  0  0  0  0  0  0  0  0  0  0
   59.9887   34.4908   49.5688 H   0  0  0  0  0  0  0  0  0  0  0  0
   62.0144   33.5771   50.7050 H   0  0  0  0  0  0  0  0  0  0  0  0
   64.0300   32.9517   49.3650 H   0  0  0  0  0  0  0  0  0  0  0  0
   61.9795   34.0949   45.7307 H   0  0  0  0  0  0  0  0  0  0  0  0
   58.7269   32.5695   47.9396 H   0  0  0  0  0  0  0  0  0  0  0  0
   57.4789   30.7609   46.7562 H   0  0  0  0  0  0  0  0  0  0  0  0
  1  2  2  0
  2  3  1  0
  3  4  1  0
  4  5  1  0
  5  6  1  0
  6  7  2  0
  7  8  1  0
  8  9  1  0
  9 10  2  0
 10 11  1  0
 11 12  2  0
 12 13  1  0
 12 14  1  0
 14 15  2  0
  2 16  1  0
 16 17  2  0
 17 18  1  0
 18 19  2  0
 19 20  1  0
 20 21  1  0
 21 22  2  0
 22 23  1  0
 23 24  2  0
 24 25  1  0
 25 26  1  0
 25 27  2  0
 19 28  1  0
 28 29  2  0
 15  6  1  0
 29 16  1  0
 15  9  1  0
 27 21  1  0
  4 30  1  0
  4 31  1  0
  5 32  1  0
  5 33  1  0
  7 34  1  0
  8 35  1  0
 10 36  1  0
 11 37  1  0
 14 38  1  0
 17 39  1  0
 18 40  1  0
 20 41  1  0
 20 42  1  0
 22 43  1  0
 23 44  1  0
 24 45  1  0
 27 46  1  0
 28 47  1  0
 29 48  1  0
M  CHG  1   3  -1
M  END
>  <UniqueID>  (46) 
42

>  <SMILES>  (46) 
O=C([N-]CCc1c[nH]c2ccc(Cl)cc12)c1ccc(Cc2cccc(F)c2)cc1

>  <Energy>  (46) 
84.36918655376532

>  <Genealogy>  (46) 
O=C([N-]CCc1c[nH]c2ccc(Cl)cc12)c1ccc(Cc2cccc(F)c2)cc1 (protonated)
O=C([N-]CCc1c[nH]c2ccc(Cl)cc12)c1ccc(Cc2cccc(F)c2)cc1 (3D coordinates assigned)
O=C([N-]CCc1c[nH]c2ccc(Cl)cc12)c1ccc(Cc2cccc(F)c2)cc1 (optimized conformer: 84.36918655376532 kcal/mol)

>  <smiles>  (46) 
O=C(NCCc1c[nH]c2ccc(Cl)cc12)c1ccc(Cc2cccc(F)c2)cc1

>  <score_type>  (46) 
oracle

>  <origin>  (46) 
adg

>  <m_score__min__energy>  (46) 
-10.609999999999999

>  <m_primary>  (46) 
energy

$$$$
46:0
     RDKit          3D

 49 52  0  0  1  0  0  0  0  0999 V2000
   56.0140   29.7450   44.9340 O   0  0  0  0  0  0  0  0  0  0  0  0
   56.8850   29.9430   44.0230 C   0  0  0  0  0  0  0  0  0  0  0  0
   56.9110   31.2310   43.3420 C   0  0  0  0  0  0  0  0  0  0  0  0
   57.9020   32.0960   43.4180 C   0  0  0  0  0  0  0  0  0  0  0  0
   58.2140   32.8850   44.6040 C   0  0  0  0  0  0  0  0  0  0  0  0
   57.7790   32.4640   45.8680 C   0  0  0  0  0  0  0  0  0  0  0  0
   58.0590   33.1850   47.0090 C   0  0  0  0  0  0  0  0  0  0  0  0
   58.7820   34.3560   46.9610 C   0  0  0  0  0  0  0  0  0  0  0  0
   59.0320   35.0300   48.1080 F   0  0  0  0  0  0  0  0  0  0  0  0
   59.2210   34.7910   45.7240 C   0  0  0  0  0  0  0  0  0  0  0  0
   59.9350   35.9460   45.6680 F   0  0  0  0  0  0  0  0  0  0  0  0
   58.9320   34.0540   44.5830 C   0  0  0  0  0  0  0  0  0  0  0  0
   57.7740   28.8750   43.7400 N   0  0  0  0  0  0  0  0  0  0  0  0
   57.7770   27.6000   44.3910 C   0  0  0  0  0  0  0  0  0  0  0  0
   58.9870   27.4240   45.2380 C   0  0  0  0  0  0  0  0  0  0  0  0
   58.6690   27.6850   46.9950 S   0  0  0  0  0  0  0  0  0  0  0  0
   59.4260   29.1810   47.5940 C   0  0  0  0  0  0  0  0  0  0  0  0
   58.9300   29.9050   48.6100 N   0  0  0  0  0  0  0  0  0  0  0  0
   59.6900   30.9680   48.8380 C   0  0  0  0  0  0  0  0  0  0  0  0
   59.5700   32.0440   49.8190 C   0  0  0  0  0  0  0  0  0  0  0  0
   60.0370   33.0070   50.1820 N   0  0  0  0  0  0  0  0  0  0  0  0
   59.7110   33.8410   51.1450 C   0  0  0  0  0  0  0  0  0  0  0  0
   58.5670   33.4290   51.8310 C   0  0  0  0  0  0  0  0  0  0  0  0
   58.0800   31.9020   51.0290 S   0  0  0  0  0  0  0  0  0  0  0  0
   60.7200   30.9220   47.9250 C   0  0  0  0  0  0  0  0  0  0  0  0
   61.7940   31.9010   47.8180 C   0  0  0  0  0  0  0  0  0  0  0  0
   61.6550   32.8570   46.8120 C   0  0  0  0  0  0  0  0  0  0  0  0
   62.6420   33.8120   46.6600 C   0  0  0  0  0  0  0  0  0  0  0  0
   63.7130   33.8280   47.4560 N   0  0  0  0  0  0  0  0  0  0  0  0
   63.8480   32.9030   48.4300 C   0  0  0  0  0  0  0  0  0  0  0  0
   62.8960   31.9180   48.6360 C   0  0  0  0  0  0  0  0  0  0  0  0
   60.5290   29.8210   47.1830 N   0  0  0  0  0  0  0  0  0  0  0  0
   56.0433   31.4997   42.7216 H   0  0  0  0  0  0  0  0  0  0  0  0
   58.5352   32.2318   42.5289 H   0  0  0  0  0  0  0  0  0  0  0  0
   57.1986   31.5333   45.9518 H   0  0  0  0  0  0  0  0  0  0  0  0
   57.6966   32.8165   47.9800 H   0  0  0  0  0  0  0  0  0  0  0  0
   59.2969   34.4259   43.6142 H   0  0  0  0  0  0  0  0  0  0  0  0
   58.4860   29.0560   42.9860 H   0  0  0  0  0  0  0  0  0  0  0  0
   56.8818   27.5203   45.0253 H   0  0  0  0  0  0  0  0  0  0  0  0
   57.7797   26.8175   43.6179 H   0  0  0  0  0  0  0  0  0  0  0  0
   59.3649   26.4003   45.0994 H   0  0  0  0  0  0  0  0  0  0  0  0
   59.7198   28.1812   44.9225 H   0  0  0  0  0  0  0  0  0  0  0  0
   60.2737   34.7559   51.3822 H   0  0  0  0  0  0  0  0  0  0  0  0
   58.0737   33.9306   52.6766 H   0  0  0  0  0  0  0  0  0  0  0  0
   60.7754   32.8508   46.1515 H   0  0  0  0  0  0  0  0  0  0  0  0
   62.5433   34.5713   45.8702 H   0  0  0  0  0  0  0  0  0  0  0  0
   64.7372   32.9322   49.0769 H   0  0  0  0  0  0  0  0  0  0  0  0
   63.0198   31.1701   49.4331 H   0  0  0  0  0  0  0  0  0  0  0  0
   61.1570   29.5210   46.4080 H   0  0  0  0  0  0  0  0  0  0  0  0
  1  2  2  0
  2  3  1  0
  3  4  2  0
  4  5  1  0
  5  6  2  0
  6  7  1  0
  7  8  2  0
  8  9  1  0
  8 10  1  0
 10 11  1  0
 10 12  2  0
  2 13  1  0
 13 14  1  0
 14 15  1  0
 15 16  1  0
 16 17  1  0
 17 18  2  0
 18 19  1  0
 19 20  1  0
 20 21  2  0
 21 22  1  0
 22 23  2  0
 23 24  1  0
 19 25  2  0
 25 26  1  0
 26 27  2  0
 27 28  1  0
 28 29  2  0
 29 30  1  0
 30 31  2  0
 25 32  1  0
 12  5  1  0
 32 17  1  0
 24 20  1  0
 31 26  1  0
  3 33  1  0
  4 34  1  0
  6 35  1  0
  7 36  1  0
 12 37  1  0
 13 38  1  0
 14 39  1  0
 14 40  1  0
 15 41  1  0
 15 42  1  0
 22 43  1  0
 23 44  1  0
 27 45  1  0
 28 46  1  0
 30 47  1  0
 31 48  1  0
 32 49  1  0
M  END
>  <smiles>  (47) 
O=C(C=Cc1ccc(F)c(F)c1)NCCSc1nc(-c2nccs2)c(-c2ccncc2)[nH]1

>  <score_type>  (47) 
oracle

>  <origin>  (47) 
adg

>  <m_score__min__energy>  (47) 
-9.0999999999999996

>  <m_primary>  (47) 
energy

$$$$
47:0
     RDKit          3D

 42 44  0  0  0  0  0  0  0  0999 V2000
   59.9150   34.7860   45.6340 C   0  0  0  0  0  0  0  0  0  0  0  0
   60.3830   34.5950   46.9650 O   0  0  0  0  0  0  0  0  0  0  0  0
   61.5250   33.8530   47.3120 C   0  0  0  0  0  0  0  0  0  0  0  0
   62.6900   33.8720   46.5170 C   0  0  0  0  0  0  0  0  0  0  0  0
   63.8060   33.1160   46.8810 C   0  0  0  0  0  0  0  0  0  0  0  0
   63.7800   32.3410   48.0400 C   0  0  0  0  0  0  0  0  0  0  0  0
   62.6350   32.3170   48.8390 C   0  0  0  0  0  0  0  0  0  0  0  0
   61.4980   33.0600   48.4770 C   0  0  0  0  0  0  0  0  0  0  0  0
   60.2980   33.0390   49.3440 C   0  0  0  0  0  0  0  0  0  0  0  0
   60.3110   33.4680   50.6190 N   0  0  0  0  0  0  0  0  0  0  0  0
   59.0740   33.1810   51.0710 C   0  0  0  0  0  0  0  0  0  0  0  0
   58.5390   33.5460   52.7400 S   0  0  0  0  0  0  0  0  0  0  0  0
   57.6180   31.9860   52.9410 C   0  0  0  0  0  0  0  0  0  0  0  0
   56.4020   32.0660   52.2870 F   0  0  0  0  0  0  0  0  0  0  0  0
   57.4080   31.7290   54.2830 F   0  0  0  0  0  0  0  0  0  0  0  0
   58.3560   30.9550   52.3940 F   0  0  0  0  0  0  0  0  0  0  0  0
   58.2740   32.5990   50.1570 N   0  0  0  0  0  0  0  0  0  0  0  0
   59.0460   32.5120   49.0580 C   0  0  0  0  0  0  0  0  0  0  0  0
   58.5490   31.9840   47.7690 C   0  0  0  0  0  0  0  0  0  0  0  0
   57.8530   32.8310   46.8930 C   0  0  0  0  0  0  0  0  0  0  0  0
   57.3860   32.3500   45.6650 C   0  0  0  0  0  0  0  0  0  0  0  0
   57.6180   31.0200   45.2950 C   0  0  0  0  0  0  0  0  0  0  0  0
   57.0450   30.4190   43.7420 S   0  0  0  0  0  0  0  0  0  0  0  0
   57.4640   31.5860   42.4680 C   0  0  0  0  0  0  0  0  0  0  0  0
   55.5540   30.2370   43.7860 O   0  0  0  0  0  0  0  0  0  0  0  0
   57.6850   29.0930   43.4420 O   0  0  0  0  0  0  0  0  0  0  0  0
   58.3380   30.1800   46.1520 C   0  0  0  0  0  0  0  0  0  0  0  0
   58.8060   30.6580   47.3800 C   0  0  0  0  0  0  0  0  0  0  0  0
   58.8968   35.2015   45.6594 H   0  0  0  0  0  0  0  0  0  0  0  0
   60.5827   35.4836   45.1071 H   0  0  0  0  0  0  0  0  0  0  0  0
   59.9039   33.8205   45.1071 H   0  0  0  0  0  0  0  0  0  0  0  0
   62.7195   34.4861   45.6048 H   0  0  0  0  0  0  0  0  0  0  0  0
   64.7082   33.1318   46.2518 H   0  0  0  0  0  0  0  0  0  0  0  0
   64.6618   31.7483   48.3250 H   0  0  0  0  0  0  0  0  0  0  0  0
   62.6227   31.7125   49.7579 H   0  0  0  0  0  0  0  0  0  0  0  0
   57.6735   33.8794   47.1735 H   0  0  0  0  0  0  0  0  0  0  0  0
   56.8347   33.0191   44.9880 H   0  0  0  0  0  0  0  0  0  0  0  0
   57.8016   32.5262   42.9286 H   0  0  0  0  0  0  0  0  0  0  0  0
   58.2702   31.1735   41.8436 H   0  0  0  0  0  0  0  0  0  0  0  0
   56.5795   31.7805   41.8436 H   0  0  0  0  0  0  0  0  0  0  0  0
   58.5368   29.1387   45.8582 H   0  0  0  0  0  0  0  0  0  0  0  0
   59.3777   29.9934   48.0444 H   0  0  0  0  0  0  0  0  0  0  0  0
  1  2  1  0
  2  3  1  0
  3  4  2  0
  4  5  1  0
  5  6  2  0
  6  7  1  0
  7  8  2  0
  8  9  1  0
  9 10  1  0
 10 11  1  0
 11 12  1  0
 12 13  1  0
 13 14  1  0
 13 15  1  0
 13 16  1  0
 11 17  2  0
 17 18  1  0
 18 19  1  0
 19 20  2  0
 20 21  1  0
 21 22  2  0
 22 23  1  0
 23 24  1  0
 23 25  2  0
 23 26  2  0
 22 27  1  0
 27 28  2  0
  8  3  1  0
 18  9  2  0
 28 19  1  0
  1 29  1  0
  1 30  1  0
  1 31  1  0
  4 32  1  0
  5 33  1  0
  6 34  1  0
  7 35  1  0
 20 36  1  0
 21 37  1  0
 24 38  1  0
 24 39  1  0
 24 40  1  0
 27 41  1  0
 28 42  1  0
M  CHG  1  10  -1
M  END
>  <UniqueID>  (48) 
43

>  <SMILES>  (48) 
COc1ccccc1-c1[n-]c(SC(F)(F)F)nc1-c1ccc(S(C)(=O)=O)cc1

>  <Energy>  (48) 
73.47560062747205

>  <Genealogy>  (48) 
COc1ccccc1-c1[n-]c(SC(F)(F)F)nc1-c1ccc(S(C)(=O)=O)cc1 (protonated)
COc1ccccc1-c1[n-]c(SC(F)(F)F)nc1-c1ccc(S(C)(=O)=O)cc1 (3D coordinates assigned)
COc1ccccc1-c1[n-]c(SC(F)(F)F)nc1-c1ccc(S(C)(=O)=O)cc1 (optimized conformer: 73.47560062747205 kcal/mol)

>  <smiles>  (48) 
COc1ccccc1-c1[nH]c(SC(F)(F)F)nc1-c1ccc(S(C)(=O)=O)cc1

>  <score_type>  (48) 
oracle

>  <origin>  (48) 
adg

>  <m_score__min__energy>  (48) 
-8.1300000000000008

>  <m_primary>  (48) 
energy

$$$$
48:0
     RDKit          3D

 27 28  0  0  0  0  0  0  0  0999 V2000
   56.0800   29.5870   42.7760 O   0  0  0  0  0  0  0  0  0  0  0  0
   56.2340   29.2920   43.9790 N   0  0  0  0  0  0  0  0  0  0  0  0
   55.1480   29.3490   44.8200 O   0  0  0  0  0  0  0  0  0  0  0  0
   57.5580   29.1440   44.5170 C   0  0  0  0  0  0  0  0  0  0  0  0
   58.0650   27.8510   44.7390 C   0  0  0  0  0  0  0  0  0  0  0  0
   59.3590   27.6670   45.2240 C   0  0  0  0  0  0  0  0  0  0  0  0
   60.1660   28.7700   45.4990 C   0  0  0  0  0  0  0  0  0  0  0  0
   59.6740   30.0610   45.3030 C   0  0  0  0  0  0  0  0  0  0  0  0
   58.3700   30.2660   44.8240 C   0  0  0  0  0  0  0  0  0  0  0  0
   57.7800   31.9300   44.6780 S   0  0  0  0  0  0  0  0  0  0  0  0
   56.2900   31.9660   44.8790 O   0  0  0  0  0  0  0  0  0  0  0  0
   58.0790   32.4370   43.2940 O   0  0  0  0  0  0  0  0  0  0  0  0
   58.5380   32.9600   45.8900 C   0  0  0  0  0  0  0  0  0  0  0  0
   59.1340   34.1710   45.5100 C   0  0  0  0  0  0  0  0  0  0  0  0
   59.7380   34.9900   46.4690 C   0  0  0  0  0  0  0  0  0  0  0  0
   59.7540   34.5990   47.8120 C   0  0  0  0  0  0  0  0  0  0  0  0
   59.1700   33.3890   48.1940 C   0  0  0  0  0  0  0  0  0  0  0  0
   58.5640   32.5690   47.2370 C   0  0  0  0  0  0  0  0  0  0  0  0
   57.4336   26.9754   44.5276 H   0  0  0  0  0  0  0  0  0  0  0  0
   59.7438   26.6500   45.3899 H   0  0  0  0  0  0  0  0  0  0  0  0
   61.1908   28.6226   45.8706 H   0  0  0  0  0  0  0  0  0  0  0  0
   60.3143   30.9272   45.5260 H   0  0  0  0  0  0  0  0  0  0  0  0
   59.1264   34.4778   44.4537 H   0  0  0  0  0  0  0  0  0  0  0  0
   60.2004   35.9414   46.1674 H   0  0  0  0  0  0  0  0  0  0  0  0
   60.2265   35.2444   48.5672 H   0  0  0  0  0  0  0  0  0  0  0  0
   59.1868   33.0805   49.2497 H   0  0  0  0  0  0  0  0  0  0  0  0
   58.1069   31.6157   47.5409 H   0  0  0  0  0  0  0  0  0  0  0  0
  1  2  2  0
  2  3  1  0
  2  4  1  0
  4  5  2  0
  5  6  1  0
  6  7  2  0
  7  8  1  0
  8  9  2  0
  9 10  1  0
 10 11  2  0
 10 12  2  0
 10 13  1  0
 13 14  2  0
 14 15  1  0
 15 16  2  0
 16 17  1  0
 17 18  2  0
  9  4  1  0
 18 13  1  0
  5 19  1  0
  6 20  1  0
  7 21  1  0
  8 22  1  0
 14 23  1  0
 15 24  1  0
 16 25  1  0
 17 26  1  0
 18 27  1  0
M  CHG  2   2   1   3  -1
M  END
>  <UniqueID>  (49) 
44

>  <SMILES>  (49) 
O=[N+]([O-])c1ccccc1S(=O)(=O)c1ccccc1

>  <Energy>  (49) 
36.34408777584308

>  <Genealogy>  (49) 
O=[N+]([O-])c1ccccc1S(=O)(=O)c1ccccc1 (3D coordinates assigned)
O=[N+]([O-])c1ccccc1S(=O)(=O)c1ccccc1 (optimized conformer: 36.34408777584308 kcal/mol)

>  <smiles>  (49) 
O=[N+]([O-])c1ccccc1S(=O)(=O)c1ccccc1

>  <score_type>  (49) 
oracle

>  <origin>  (49) 
adg

>  <m_score__min__energy>  (49) 
-7.9400000000000004

>  <m_primary>  (49) 
energy

$$$$
49:0
     RDKit          3D

 36 38  0  0  0  0  0  0  0  0999 V2000
   56.6060   26.2130   45.7260 C   0  0  0  0  0  0  0  0  0  0  0  0
   55.9230   27.4570   45.6000 O   0  0  0  0  0  0  0  0  0  0  0  0
   56.5490   28.6790   45.3100 C   0  0  0  0  0  0  0  0  0  0  0  0
   56.0480   29.5710   44.3430 C   0  0  0  0  0  0  0  0  0  0  0  0
   56.7070   30.7780   44.0910 C   0  0  0  0  0  0  0  0  0  0  0  0
   57.8680   31.1160   44.7950 C   0  0  0  0  0  0  0  0  0  0  0  0
   58.5040   32.3680   44.5100 N   0  0  0  0  0  0  0  0  0  0  0  0
   58.3660   33.8030   45.4740 S   0  0  0  0  0  0  0  0  0  0  0  0
   58.4350   35.0070   44.5760 O   0  0  0  0  0  0  0  0  0  0  0  0
   57.0410   33.7950   46.1820 O   0  0  0  0  0  0  0  0  0  0  0  0
   59.6520   33.8490   46.6740 C   0  0  0  0  0  0  0  0  0  0  0  0
   59.3860   34.3540   47.9720 C   0  0  0  0  0  0  0  0  0  0  0  0
   60.3980   34.3880   48.9510 C   0  0  0  0  0  0  0  0  0  0  0  0
   61.6580   33.9100   48.5910 C   0  0  0  0  0  0  0  0  0  0  0  0
   61.9180   33.4260   47.3400 C   0  0  0  0  0  0  0  0  0  0  0  0
   60.9440   33.3790   46.3490 C   0  0  0  0  0  0  0  0  0  0  0  0
   63.1730   33.0450   47.2740 O   0  0  0  0  0  0  0  0  0  0  0  0
   63.6800   33.2910   48.4700 C   0  0  0  0  0  0  0  0  0  0  0  0
   64.8780   33.0460   48.7760 O   0  0  0  0  0  0  0  0  0  0  0  0
   62.7780   33.8310   49.3280 N   0  0  0  0  0  0  0  0  0  0  0  0
   62.9700   34.2270   50.7210 C   0  0  0  0  0  0  0  0  0  0  0  0
   58.3720   30.2230   45.7580 C   0  0  0  0  0  0  0  0  0  0  0  0
   57.7130   29.0150   46.0120 C   0  0  0  0  0  0  0  0  0  0  0  0
   58.2120   28.1660   46.9450 F   0  0  0  0  0  0  0  0  0  0  0  0
   56.7376   25.9733   46.7915 H   0  0  0  0  0  0  0  0  0  0  0  0
   56.0166   25.4204   45.2419 H   0  0  0  0  0  0  0  0  0  0  0  0
   57.5911   26.2849   45.2419 H   0  0  0  0  0  0  0  0  0  0  0  0
   55.1352   29.3176   43.7839 H   0  0  0  0  0  0  0  0  0  0  0  0
   56.3092   31.4682   43.3324 H   0  0  0  0  0  0  0  0  0  0  0  0
   58.3791   34.7230   48.2168 H   0  0  0  0  0  0  0  0  0  0  0  0
   60.2022   34.7768   49.9612 H   0  0  0  0  0  0  0  0  0  0  0  0
   61.1717   32.9891   45.3459 H   0  0  0  0  0  0  0  0  0  0  0  0
   62.5868   33.4366   51.3831 H   0  0  0  0  0  0  0  0  0  0  0  0
   64.0421   34.3795   50.9144 H   0  0  0  0  0  0  0  0  0  0  0  0
   62.4257   35.1632   50.9144 H   0  0  0  0  0  0  0  0  0  0  0  0
   59.2874   30.4752   46.3133 H   0  0  0  0  0  0  0  0  0  0  0  0
  1  2  1  0
  2  3  1  0
  3  4  2  0
  4  5  1  0
  5  6  2  0
  6  7  1  0
  7  8  1  0
  8  9  2  0
  8 10  2  0
  8 11  1  0
 11 12  2  0
 12 13  1  0
 13 14  2  0
 14 15  1  0
 15 16  2  0
 15 17  1  0
 17 18  1  0
 18 19  2  0
 18 20  1  0
 20 21  1  0
  6 22  1  0
 22 23  2  0
 23 24  1  0
 23  3  1  0
 16 11  1  0
 20 14  1  0
  1 25  1  0
  1 26  1  0
  1 27  1  0
  4 28  1  0
  5 29  1  0
 12 30  1  0
 13 31  1  0
 16 32  1  0
 21 33  1  0
 21 34  1  0
 21 35  1  0
 22 36  1  0
M  CHG  1   7  -1
M  END
>  <UniqueID>  (50) 
45

>  <SMILES>  (50) 
COc1ccc([N-]S(=O)(=O)c2ccc3c(c2)oc(=O)n3C)cc1F

>  <Energy>  (50) 
81.91149907623576

>  <Genealogy>  (50) 
COc1ccc([N-]S(=O)(=O)c2ccc3c(c2)oc(=O)n3C)cc1F (protonated)
COc1ccc([N-]S(=O)(=O)c2ccc3c(c2)oc(=O)n3C)cc1F (3D coordinates assigned)
COc1ccc([N-]S(=O)(=O)c2ccc3c(c2)oc(=O)n3C)cc1F (optimized conformer: 81.91149907623576 kcal/mol)

>  <smiles>  (50) 
COc1ccc(NS(=O)(=O)c2ccc3c(c2)oc(=O)n3C)cc1F

>  <score_type>  (50) 
oracle

>  <origin>  (50) 
adg

>  <m_score__min__energy>  (50) 
-8.8100000000000005

>  <m_primary>  (50) 
energy

$$$$
50:0
     RDKit          3D

 43 45  0  0  0  0  0  0  0  0999 V2000
   57.6800   22.3650   44.1440 C   0  0  0  0  0  0  0  0  0  0  0  0
   56.8420   23.6190   44.3510 C   0  0  0  0  0  0  0  0  0  0  0  0
   57.0120   24.2290   46.0200 S   0  0  0  0  0  0  0  0  0  0  0  0
   57.2900   23.0780   46.9450 O   0  0  0  0  0  0  0  0  0  0  0  0
   55.7400   24.9020   46.4520 O   0  0  0  0  0  0  0  0  0  0  0  0
   58.3230   25.3600   46.1030 N   0  0  0  0  0  0  0  0  0  0  0  0
   59.5740   25.0190   46.3920 N   0  0  0  0  0  0  0  0  0  0  0  0
   60.3390   26.1360   46.3380 C   0  0  0  0  0  0  0  0  0  0  0  0
   59.5290   27.1990   45.9990 C   0  0  0  0  0  0  0  0  0  0  0  0
   59.7990   28.5500   45.8070 C   0  0  0  0  0  0  0  0  0  0  0  0
   58.7230   29.3840   45.4480 C   0  0  0  0  0  0  0  0  0  0  0  0
   57.4200   28.8510   45.2800 C   0  0  0  0  0  0  0  0  0  0  0  0
   56.3210   29.7380   44.8570 C   0  0  0  0  0  0  0  0  0  0  0  0
   55.1450   29.2900   44.8440 O   0  0  0  0  0  0  0  0  0  0  0  0
   56.5420   31.1150   44.5170 N   0  0  0  0  0  0  0  0  0  0  0  0
   57.8120   31.6950   44.0740 C   0  0  1  0  0  0  0  0  0  0  0  0
   57.6550   32.2330   42.6530 C   0  0  0  0  0  0  0  0  0  0  0  0
   58.2600   32.8000   45.0090 C   0  0  0  0  0  0  0  0  0  0  0  0
   58.8760   33.9530   44.4910 C   0  0  0  0  0  0  0  0  0  0  0  0
   59.3270   34.9590   45.3500 C   0  0  0  0  0  0  0  0  0  0  0  0
   59.1560   34.8320   46.7310 C   0  0  0  0  0  0  0  0  0  0  0  0
   58.5290   33.6980   47.2550 C   0  0  0  0  0  0  0  0  0  0  0  0
   58.0790   32.6880   46.4000 C   0  0  0  0  0  0  0  0  0  0  0  0
   57.1840   27.4760   45.5040 C   0  0  0  0  0  0  0  0  0  0  0  0
   58.2750   26.6810   45.8580 C   0  0  0  0  0  0  0  0  0  0  0  0
   57.9602   21.9457   45.1216 H   0  0  0  0  0  0  0  0  0  0  0  0
   57.0959   21.6226   43.5804 H   0  0  0  0  0  0  0  0  0  0  0  0
   58.5894   22.6206   43.5804 H   0  0  0  0  0  0  0  0  0  0  0  0
   57.1762   24.3959   43.6476 H   0  0  0  0  0  0  0  0  0  0  0  0
   55.7855   23.3695   44.1735 H   0  0  0  0  0  0  0  0  0  0  0  0
   61.4207   26.1862   46.5314 H   0  0  0  0  0  0  0  0  0  0  0  0
   60.8154   28.9518   45.9310 H   0  0  0  0  0  0  0  0  0  0  0  0
   58.8950   30.4598   45.2964 H   0  0  0  0  0  0  0  0  0  0  0  0
   58.5833   30.9108   44.0863 H   0  0  0  0  0  0  0  0  0  0  0  0
   57.3470   33.2883   42.6924 H   0  0  0  0  0  0  0  0  0  0  0  0
   58.6146   32.1507   42.1216 H   0  0  0  0  0  0  0  0  0  0  0  0
   56.8903   31.6475   42.1216 H   0  0  0  0  0  0  0  0  0  0  0  0
   59.0036   34.0638   43.4041 H   0  0  0  0  0  0  0  0  0  0  0  0
   59.8178   35.8530   44.9379 H   0  0  0  0  0  0  0  0  0  0  0  0
   59.5145   35.6238   47.4052 H   0  0  0  0  0  0  0  0  0  0  0  0
   58.3895   33.6003   48.3417 H   0  0  0  0  0  0  0  0  0  0  0  0
   57.5805   31.8005   46.8169 H   0  0  0  0  0  0  0  0  0  0  0  0
   56.1760   27.0474   45.4029 H   0  0  0  0  0  0  0  0  0  0  0  0
  1  2  1  0
  2  3  1  0
  3  4  2  0
  3  5  2  0
  3  6  1  0
  6  7  1  0
  7  8  2  0
  8  9  1  0
  9 10  2  0
 10 11  1  0
 11 12  2  0
 12 13  1  0
 13 14  2  0
 13 15  1  0
 15 16  1  0
 16 17  1  0
 16 18  1  0
 18 19  2  0
 19 20  1  0
 20 21  2  0
 21 22  1  0
 22 23  2  0
 12 24  1  0
 24 25  2  0
 25  6  1  0
 25  9  1  0
 23 18  1  0
  1 26  1  0
  1 27  1  0
  1 28  1  0
  2 29  1  0
  2 30  1  0
  8 31  1  0
 10 32  1  0
 11 33  1  0
 16 34  1  6
 17 35  1  0
 17 36  1  0
 17 37  1  0
 19 38  1  0
 20 39  1  0
 21 40  1  0
 22 41  1  0
 23 42  1  0
 24 43  1  0
M  CHG  1  15  -1
M  END
>  <UniqueID>  (51) 
46

>  <SMILES>  (51) 
CCS(=O)(=O)n1ncc2ccc(C(=O)[N-][C@@H](C)c3ccccc3)cc21

>  <Energy>  (51) 
76.29282284297155

>  <Genealogy>  (51) 
CCS(=O)(=O)n1ncc2ccc(C(=O)[N-]C(C)c3ccccc3)cc21 (protonated)
CCS(=O)(=O)n1ncc2ccc(C(=O)[N-][C@@H](C)c3ccccc3)cc21 (chirality)
CCS(=O)(=O)n1ncc2ccc(C(=O)[N-][C@@H](C)c3ccccc3)cc21 (3D coordinates assigned)
CCS(=O)(=O)n1ncc2ccc(C(=O)[N-][C@@H](C)c3ccccc3)cc21 (optimized conformer: 76.29282284297155 kcal/mol)

>  <smiles>  (51) 
CCS(=O)(=O)n1ncc2ccc(C(=O)NC(C)c3ccccc3)cc21

>  <score_type>  (51) 
oracle

>  <origin>  (51) 
adg

>  <m_score__min__energy>  (51) 
-11.26

>  <m_primary>  (51) 
energy

$$$$
51:0
     RDKit          3D

 43 45  0  0  0  0  0  0  0  0999 V2000
   55.1410   29.3850   44.5270 O   0  0  0  0  0  0  0  0  0  0  0  0
   56.2780   29.9050   44.6820 C   0  0  0  0  0  0  0  0  0  0  0  0
   56.4350   31.3050   44.4090 N   0  0  0  0  0  0  0  0  0  0  0  0
   57.3180   32.2020   45.0970 C   0  0  0  0  0  0  0  0  0  0  0  0
   57.7550   33.4020   44.5100 C   0  0  0  0  0  0  0  0  0  0  0  0
   58.6050   34.2610   45.2120 C   0  0  0  0  0  0  0  0  0  0  0  0
   59.0360   33.9320   46.5070 C   0  0  0  0  0  0  0  0  0  0  0  0
   59.9350   34.8770   47.2770 C   0  0  0  0  0  0  0  0  0  0  0  0
   61.2660   34.3120   47.5970 N   0  0  0  0  0  0  0  0  0  0  0  0
   61.9110   33.6470   46.4500 C   0  0  0  0  0  0  0  0  0  0  0  0
   63.4120   33.4280   46.7310 C   0  0  0  0  0  0  0  0  0  0  0  0
   63.7440   33.4720   48.2320 C   0  0  0  0  0  0  0  0  0  0  0  0
   62.6400   32.8080   49.0620 C   0  0  0  0  0  0  0  0  0  0  0  0
   61.2560   33.4400   48.7930 C   0  0  0  0  0  0  0  0  0  0  0  0
   58.6350   32.7110   47.0720 C   0  0  0  0  0  0  0  0  0  0  0  0
   57.7850   31.8510   46.3690 C   0  0  0  0  0  0  0  0  0  0  0  0
   57.4200   29.0520   45.0890 C   0  0  0  0  0  0  0  0  0  0  0  0
   57.2390   27.9850   45.9890 C   0  0  0  0  0  0  0  0  0  0  0  0
   58.3210   27.1820   46.3620 C   0  0  0  0  0  0  0  0  0  0  0  0
   59.5960   27.4430   45.8520 C   0  0  0  0  0  0  0  0  0  0  0  0
   61.0710   26.3440   46.3620 Br  0  0  0  0  0  0  0  0  0  0  0  0
   59.7900   28.5130   44.9730 C   0  0  0  0  0  0  0  0  0  0  0  0
   58.7100   29.3160   44.5960 C   0  0  0  0  0  0  0  0  0  0  0  0
   57.4266   33.6661   43.4939 H   0  0  0  0  0  0  0  0  0  0  0  0
   58.9383   35.2005   44.7471 H   0  0  0  0  0  0  0  0  0  0  0  0
   60.0803   35.7853   46.6738 H   0  0  0  0  0  0  0  0  0  0  0  0
   59.4363   35.0819   48.2358 H   0  0  0  0  0  0  0  0  0  0  0  0
   61.4287   32.6736   46.2770 H   0  0  0  0  0  0  0  0  0  0  0  0
   61.8035   34.2850   45.5604 H   0  0  0  0  0  0  0  0  0  0  0  0
   63.7053   32.4451   46.3337 H   0  0  0  0  0  0  0  0  0  0  0  0
   63.9654   34.2437   46.2428 H   0  0  0  0  0  0  0  0  0  0  0  0
   64.6920   32.9418   48.4058 H   0  0  0  0  0  0  0  0  0  0  0  0
   63.8270   34.5246   48.5403 H   0  0  0  0  0  0  0  0  0  0  0  0
   62.5980   31.7388   48.8070 H   0  0  0  0  0  0  0  0  0  0  0  0
   62.8797   32.9536   50.1257 H   0  0  0  0  0  0  0  0  0  0  0  0
   60.5222   32.6351   48.6392 H   0  0  0  0  0  0  0  0  0  0  0  0
   60.9915   34.0598   49.6624 H   0  0  0  0  0  0  0  0  0  0  0  0
   58.9915   32.4289   48.0737 H   0  0  0  0  0  0  0  0  0  0  0  0
   57.4819   30.8937   46.8181 H   0  0  0  0  0  0  0  0  0  0  0  0
   56.2398   27.7816   46.4015 H   0  0  0  0  0  0  0  0  0  0  0  0
   58.1687   26.3437   47.0577 H   0  0  0  0  0  0  0  0  0  0  0  0
   60.7947   28.7232   44.5774 H   0  0  0  0  0  0  0  0  0  0  0  0
   58.8703   30.1601   43.9091 H   0  0  0  0  0  0  0  0  0  0  0  0
  1  2  2  0
  2  3  1  0
  3  4  1  0
  4  5  2  0
  5  6  1  0
  6  7  2  0
  7  8  1  0
  8  9  1  0
  9 10  1  0
 10 11  1  0
 11 12  1  0
 12 13  1  0
 13 14  1  0
  7 15  1  0
 15 16  2  0
  2 17  1  0
 17 18  2  0
 18 19  1  0
 19 20  2  0
 20 21  1  0
 20 22  1  0
 22 23  2  0
 16  4  1  0
 23 17  1  0
 14  9  1  0
  5 24  1  0
  6 25  1  0
  8 26  1  0
  8 27  1  0
 10 28  1  0
 10 29  1  0
 11 30  1  0
 11 31  1  0
 12 32  1  0
 12 33  1  0
 13 34  1  0
 13 35  1  0
 14 36  1  0
 14 37  1  0
 15 38  1  0
 16 39  1  0
 18 40  1  0
 19 41  1  0
 22 42  1  0
 23 43  1  0
M  CHG  1   3  -1
M  END
>  <UniqueID>  (52) 
47

>  <SMILES>  (52) 
O=C([N-]c1ccc(CN2CCCCC2)cc1)c1ccc(Br)cc1

>  <Energy>  (52) 
57.67285224964388

>  <Genealogy>  (52) 
O=C([N-]c1ccc(CN2CCCCC2)cc1)c1ccc(Br)cc1 (protonated)
O=C([N-]c1ccc(CN2CCCCC2)cc1)c1ccc(Br)cc1 (3D coordinates assigned)
O=C([N-]c1ccc(CN2CCCCC2)cc1)c1ccc(Br)cc1 (nonaromatic ring conformer: 57.67285224964388 kcal/mol)

>  <smiles>  (52) 
O=C(Nc1ccc(CN2CCCCC2)cc1)c1ccc(Br)cc1

>  <score_type>  (52) 
oracle

>  <origin>  (52) 
adg

>  <m_score__min__energy>  (52) 
-10.199999999999999

>  <m_primary>  (52) 
energy

$$$$
52:0
     RDKit          3D

 31 33  0  0  0  0  0  0  0  0999 V2000
   57.0750   28.8820   43.2730 O   0  0  0  0  0  0  0  0  0  0  0  0
   56.8020   29.4100   44.6520 S   0  0  0  0  0  0  0  0  0  0  0  0
   55.3150   29.4580   44.8710 O   0  0  0  0  0  0  0  0  0  0  0  0
   57.5130   28.3360   45.8200 N   0  0  0  0  0  0  0  0  0  0  0  0
   57.7420   27.0620   45.6660 C   0  0  0  0  0  0  0  0  0  0  0  0
   58.3190   26.2670   46.6800 C   0  0  0  0  0  0  0  0  0  0  0  0
   58.5350   24.9460   46.4520 N   0  0  0  0  0  0  0  0  0  0  0  0
   58.2080   24.3700   45.2680 C   0  0  0  0  0  0  0  0  0  0  0  0
   58.5310   22.5090   44.9930 Br  0  0  0  0  0  0  0  0  0  0  0  0
   57.6360   25.1470   44.2620 C   0  0  0  0  0  0  0  0  0  0  0  0
   57.4160   26.4710   44.4820 N   0  0  0  0  0  0  0  0  0  0  0  0
   57.5070   31.0180   44.7950 C   0  0  0  0  0  0  0  0  0  0  0  0
   57.6550   31.8170   43.6530 C   0  0  0  0  0  0  0  0  0  0  0  0
   58.2200   33.0910   43.7500 C   0  0  0  0  0  0  0  0  0  0  0  0
   58.6410   33.5820   44.9940 C   0  0  0  0  0  0  0  0  0  0  0  0
   59.2120   34.8590   45.1050 C   0  0  0  0  0  0  0  0  0  0  0  0
   59.6270   35.3370   46.3520 C   0  0  0  0  0  0  0  0  0  0  0  0
   59.4760   34.5470   47.4930 C   0  0  0  0  0  0  0  0  0  0  0  0
   58.9090   33.2720   47.3980 C   0  0  0  0  0  0  0  0  0  0  0  0
   58.4880   32.7800   46.1520 C   0  0  0  0  0  0  0  0  0  0  0  0
   57.9190   31.5020   46.0430 C   0  0  0  0  0  0  0  0  0  0  0  0
   58.5915   26.7143   47.6473 H   0  0  0  0  0  0  0  0  0  0  0  0
   57.3646   24.6928   43.2976 H   0  0  0  0  0  0  0  0  0  0  0  0
   56.9870   27.0400   43.7170 H   0  0  0  0  0  0  0  0  0  0  0  0
   57.3243   31.4387   42.6745 H   0  0  0  0  0  0  0  0  0  0  0  0
   58.3349   33.7104   42.8482 H   0  0  0  0  0  0  0  0  0  0  0  0
   59.3335   35.4855   44.2091 H   0  0  0  0  0  0  0  0  0  0  0  0
   60.0739   36.3388   46.4341 H   0  0  0  0  0  0  0  0  0  0  0  0
   59.8043   34.9289   48.4709 H   0  0  0  0  0  0  0  0  0  0  0  0
   58.7927   32.6539   48.3004 H   0  0  0  0  0  0  0  0  0  0  0  0
   57.7961   30.8782   46.9407 H   0  0  0  0  0  0  0  0  0  0  0  0
  1  2  2  0
  2  3  2  0
  2  4  1  0
  4  5  2  3
  5  6  1  0
  6  7  2  0
  7  8  1  0
  8  9  1  0
  8 10  2  0
 10 11  1  0
  2 12  1  0
 12 13  2  0
 13 14  1  0
 14 15  2  0
 15 16  1  0
 16 17  2  0
 17 18  1  0
 18 19  2  0
 19 20  1  0
 20 21  2  0
 11  5  1  0
 21 12  1  0
 20 15  1  0
  6 22  1  0
 10 23  1  0
 11 24  1  0
 13 25  1  0
 14 26  1  0
 16 27  1  0
 17 28  1  0
 18 29  1  0
 19 30  1  0
 21 31  1  0
M  END
>  <UniqueID>  (53) 
48

>  <SMILES>  (53) 
O=S(=O)(N=c1cnc(Br)c[nH]1)c1ccc2ccccc2c1

>  <Energy>  (53) 
43.42195455013024

>  <Genealogy>  (53) 
O=S(=O)(N=c1cnc(Br)c[nH]1)c1ccc2ccccc2c1 (3D coordinates assigned)
O=S(=O)(N=c1cnc(Br)c[nH]1)c1ccc2ccccc2c1 (optimized conformer: 43.42195455013024 kcal/mol)

>  <smiles>  (53) 
O=S(=O)(N=c1cnc(Br)c[nH]1)c1ccc2ccccc2c1

>  <score_type>  (53) 
oracle

>  <origin>  (53) 
adg

>  <m_score__min__energy>  (53) 
-8.7699999999999996

>  <m_primary>  (53) 
energy

$$$$
53:0
     RDKit          3D

 40 41  0  0  0  0  0  0  0  0999 V2000
   57.3950   28.9660   43.7930 C   0  0  0  0  0  0  0  0  0  0  0  0
   56.1120   29.7860   43.8760 C   0  0  0  0  0  0  0  0  0  0  0  0
   56.3580   31.0470   44.4960 O   0  0  0  0  0  0  0  0  0  0  0  0
   57.3760   31.9200   44.0920 C   0  0  0  0  0  0  0  0  0  0  0  0
   57.5240   32.1990   42.8700 O   0  0  0  0  0  0  0  0  0  0  0  0
   58.2820   32.5110   45.1030 C   0  0  0  0  0  0  0  0  0  0  0  0
   58.8000   31.7180   46.1400 C   0  0  0  0  0  0  0  0  0  0  0  0
   59.6550   32.2740   47.0970 C   0  0  0  0  0  0  0  0  0  0  0  0
   59.9970   33.6310   47.0440 C   0  0  0  0  0  0  0  0  0  0  0  0
   60.8990   34.1730   48.0250 N   0  0  0  0  0  0  0  0  0  0  0  0
   62.2940   33.8380   48.1100 C   0  0  0  0  0  0  0  0  0  0  0  0
   63.1790   33.6440   46.7400 S   0  0  0  0  0  0  0  0  0  0  0  0
   62.9710   33.8340   49.3760 N   0  0  0  0  0  0  0  0  0  0  0  0
   62.2800   33.9760   50.6570 C   0  0  0  0  0  0  0  0  0  0  0  0
   61.0710   33.0810   50.7130 C   0  0  0  0  0  0  0  0  0  0  0  0
   61.1800   31.7210   50.3710 C   0  0  0  0  0  0  0  0  0  0  0  0
   60.0550   30.8920   50.4060 C   0  0  0  0  0  0  0  0  0  0  0  0
   58.8110   31.4140   50.7710 C   0  0  0  0  0  0  0  0  0  0  0  0
   58.6900   32.7670   51.0980 C   0  0  0  0  0  0  0  0  0  0  0  0
   59.8120   33.6000   51.0640 C   0  0  0  0  0  0  0  0  0  0  0  0
   59.4980   34.4210   45.9940 C   0  0  0  0  0  0  0  0  0  0  0  0
   58.6430   33.8680   45.0370 C   0  0  0  0  0  0  0  0  0  0  0  0
   57.7511   28.7384   44.8086 H   0  0  0  0  0  0  0  0  0  0  0  0
   57.1960   28.0272   43.2553 H   0  0  0  0  0  0  0  0  0  0  0  0
   58.1634   29.5408   43.2553 H   0  0  0  0  0  0  0  0  0  0  0  0
   55.7238   29.9527   42.8604 H   0  0  0  0  0  0  0  0  0  0  0  0
   55.3775   29.2328   44.4796 H   0  0  0  0  0  0  0  0  0  0  0  0
   58.5316   30.6529   46.1999 H   0  0  0  0  0  0  0  0  0  0  0  0
   60.0624   31.6399   47.8983 H   0  0  0  0  0  0  0  0  0  0  0  0
   60.5250   34.8900   48.6830 H   0  0  0  0  0  0  0  0  0  0  0  0
   64.0010   33.6570   49.3960 H   0  0  0  0  0  0  0  0  0  0  0  0
   62.9685   33.7037   51.4705 H   0  0  0  0  0  0  0  0  0  0  0  0
   61.9518   35.0201   50.7673 H   0  0  0  0  0  0  0  0  0  0  0  0
   62.1553   31.3077   50.0745 H   0  0  0  0  0  0  0  0  0  0  0  0
   60.1490   29.8273   50.1459 H   0  0  0  0  0  0  0  0  0  0  0  0
   57.9272   30.7597   50.8008 H   0  0  0  0  0  0  0  0  0  0  0  0
   57.7100   33.1774   51.3827 H   0  0  0  0  0  0  0  0  0  0  0  0
   59.7097   34.6666   51.3130 H   0  0  0  0  0  0  0  0  0  0  0  0
   59.7823   35.4814   45.9252 H   0  0  0  0  0  0  0  0  0  0  0  0
   58.2497   34.4990   44.2263 H   0  0  0  0  0  0  0  0  0  0  0  0
  1  2  1  0
  2  3  1  0
  3  4  1  0
  4  5  2  0
  4  6  1  0
  6  7  2  0
  7  8  1  0
  8  9  2  0
  9 10  1  0
 10 11  1  0
 11 12  2  0
 11 13  1  0
 13 14  1  0
 14 15  1  0
 15 16  2  0
 16 17  1  0
 17 18  2  0
 18 19  1  0
 19 20  2  0
  9 21  1  0
 21 22  2  0
 22  6  1  0
 20 15  1  0
  1 23  1  0
  1 24  1  0
  1 25  1  0
  2 26  1  0
  2 27  1  0
  7 28  1  0
  8 29  1  0
 10 30  1  0
 13 31  1  0
 14 32  1  0
 14 33  1  0
 16 34  1  0
 17 35  1  0
 18 36  1  0
 19 37  1  0
 20 38  1  0
 21 39  1  0
 22 40  1  0
M  END
>  <UniqueID>  (54) 
49

>  <SMILES>  (54) 
CCOC(=O)c1ccc(NC(=S)NCc2ccccc2)cc1

>  <Energy>  (54) 
39.73367457872781

>  <Genealogy>  (54) 
CCOC(=O)c1ccc(NC(=S)NCc2ccccc2)cc1 (3D coordinates assigned)
CCOC(=O)c1ccc(NC(=S)NCc2ccccc2)cc1 (optimized conformer: 39.73367457872781 kcal/mol)

>  <smiles>  (54) 
CCOC(=O)c1ccc(NC(=S)NCc2ccccc2)cc1

>  <score_type>  (54) 
oracle

>  <origin>  (54) 
adg

>  <m_score__min__energy>  (54) 
-6.3399999999999999

>  <m_primary>  (54) 
energy

$$$$
54:0
     RDKit          3D

 56 59  0  0  0  0  0  0  0  0999 V2000
   60.4830   30.5530   46.5550 O   0  0  0  0  0  0  0  0  0  0  0  0
   59.8070   30.7040   47.6080 C   0  0  0  0  0  0  0  0  0  0  0  0
   58.8420   31.7670   47.6900 N   0  0  0  0  0  0  0  0  0  0  0  0
   58.8190   32.8740   46.7720 C   0  0  0  0  0  0  0  0  0  0  0  0
   58.1120   32.7640   45.5620 C   0  0  0  0  0  0  0  0  0  0  0  0
   58.1410   33.8000   44.6270 C   0  0  0  0  0  0  0  0  0  0  0  0
   58.8770   34.9560   44.8850 C   0  0  0  0  0  0  0  0  0  0  0  0
   59.5860   35.0800   46.0810 C   0  0  0  0  0  0  0  0  0  0  0  0
   59.5740   34.0440   47.0320 C   0  0  0  0  0  0  0  0  0  0  0  0
   60.2920   34.2290   48.3160 C   0  0  0  0  0  0  0  0  0  0  0  0
   59.6840   34.7630   49.2840 O   0  0  0  0  0  0  0  0  0  0  0  0
   61.7100   33.8250   48.4870 C   0  0  0  0  0  0  0  0  0  0  0  0
   62.4230   33.2210   47.4340 C   0  0  0  0  0  0  0  0  0  0  0  0
   63.7550   32.8360   47.6120 C   0  0  0  0  0  0  0  0  0  0  0  0
   64.3870   33.0390   48.8410 C   0  0  0  0  0  0  0  0  0  0  0  0
   63.6880   33.6290   49.8960 C   0  0  0  0  0  0  0  0  0  0  0  0
   62.3530   34.0160   49.7240 C   0  0  0  0  0  0  0  0  0  0  0  0
   59.9930   29.7700   48.7430 C   0  0  0  0  0  0  0  0  0  0  0  0
   60.5460   30.3190   50.0450 C   0  0  0  0  0  0  0  0  0  0  0  0
   59.5240   31.1700   50.7620 C   0  0  0  0  0  0  0  0  0  0  0  0
   58.2010   30.7140   50.9050 C   0  0  0  0  0  0  0  0  0  0  0  0
   57.2490   31.5010   51.5620 C   0  0  0  0  0  0  0  0  0  0  0  0
   57.6080   32.7490   52.0750 C   0  0  0  0  0  0  0  0  0  0  0  0
   58.9180   33.2120   51.9360 C   0  0  0  0  0  0  0  0  0  0  0  0
   59.8740   32.4280   51.2830 C   0  0  0  0  0  0  0  0  0  0  0  0
   59.6630   28.5190   48.5630 N   0  0  0  0  0  0  0  0  0  0  0  0
   59.7480   27.6740   47.4010 C   0  0  0  0  0  0  0  0  0  0  0  0
   60.4570   26.6300   47.4020 O   0  0  0  0  0  0  0  0  0  0  0  0
   58.9410   28.0020   46.2010 C   0  0  0  0  0  0  0  0  0  0  0  0
   57.7740   28.7850   46.3150 C   0  0  0  0  0  0  0  0  0  0  0  0
   57.0230   29.1080   45.1810 C   0  0  0  0  0  0  0  0  0  0  0  0
   57.4170   28.6450   43.9240 C   0  0  0  0  0  0  0  0  0  0  0  0
   58.5670   27.8610   43.7980 C   0  0  0  0  0  0  0  0  0  0  0  0
   59.3270   27.5410   44.9280 C   0  0  0  0  0  0  0  0  0  0  0  0
   58.0760   31.6940   48.3960 H   0  0  0  0  0  0  0  0  0  0  0  0
   57.5312   31.8541   45.3503 H   0  0  0  0  0  0  0  0  0  0  0  0
   57.5820   33.7043   43.6845 H   0  0  0  0  0  0  0  0  0  0  0  0
   58.8989   35.7704   44.1458 H   0  0  0  0  0  0  0  0  0  0  0  0
   60.1596   35.9969   46.2816 H   0  0  0  0  0  0  0  0  0  0  0  0
   61.9292   33.0511   46.4658 H   0  0  0  0  0  0  0  0  0  0  0  0
   64.3072   32.3717   46.7816 H   0  0  0  0  0  0  0  0  0  0  0  0
   65.4350   32.7342   48.9777 H   0  0  0  0  0  0  0  0  0  0  0  0
   64.1864   33.7900   50.8633 H   0  0  0  0  0  0  0  0  0  0  0  0
   61.8038   34.4720   50.5609 H   0  0  0  0  0  0  0  0  0  0  0  0
   60.8318   29.4789   50.6951 H   0  0  0  0  0  0  0  0  0  0  0  0
   61.4187   30.9472   49.8132 H   0  0  0  0  0  0  0  0  0  0  0  0
   57.9134   29.7333   50.4981 H   0  0  0  0  0  0  0  0  0  0  0  0
   56.2173   31.1364   51.6745 H   0  0  0  0  0  0  0  0  0  0  0  0
   56.8581   33.3681   52.5892 H   0  0  0  0  0  0  0  0  0  0  0  0
   59.1984   34.1955   52.3410 H   0  0  0  0  0  0  0  0  0  0  0  0
   60.9047   32.7972   51.1764 H   0  0  0  0  0  0  0  0  0  0  0  0
   57.4521   29.1444   47.3035 H   0  0  0  0  0  0  0  0  0  0  0  0
   56.1198   29.7282   45.2792 H   0  0  0  0  0  0  0  0  0  0  0  0
   56.8226   28.8972   43.0335 H   0  0  0  0  0  0  0  0  0  0  0  0
   58.8754   27.4946   42.8077 H   0  0  0  0  0  0  0  0  0  0  0  0
   60.2322   26.9251   44.8212 H   0  0  0  0  0  0  0  0  0  0  0  0
  1  2  2  0
  2  3  1  0
  3  4  1  0
  4  5  2  0
  5  6  1  0
  6  7  2  0
  7  8  1  0
  8  9  2  0
  9 10  1  0
 10 11  2  0
 10 12  1  0
 12 13  2  0
 13 14  1  0
 14 15  2  0
 15 16  1  0
 16 17  2  0
  2 18  1  0
 18 19  1  0
 19 20  1  0
 20 21  2  0
 21 22  1  0
 22 23  2  0
 23 24  1  0
 24 25  2  0
 18 26  2  3
 26 27  1  0
 27 28  2  0
 27 29  1  0
 29 30  2  0
 30 31  1  0
 31 32  2  0
 32 33  1  0
 33 34  2  0
  9  4  1  0
 17 12  1  0
 25 20  1  0
 34 29  1  0
  3 35  1  0
  5 36  1  0
  6 37  1  0
  7 38  1  0
  8 39  1  0
 13 40  1  0
 14 41  1  0
 15 42  1  0
 16 43  1  0
 17 44  1  0
 19 45  1  0
 19 46  1  0
 21 47  1  0
 22 48  1  0
 23 49  1  0
 24 50  1  0
 25 51  1  0
 30 52  1  0
 31 53  1  0
 32 54  1  0
 33 55  1  0
 34 56  1  0
M  END
>  <UniqueID>  (55) 
50

>  <SMILES>  (55) 
O=C(Nc1ccccc1C(=O)c1ccccc1)C(Cc1ccccc1)=NC(=O)c1ccccc1

>  <Energy>  (55) 
78.87616266085273

>  <Genealogy>  (55) 
O=C(Nc1ccccc1C(=O)c1ccccc1)C(Cc1ccccc1)=NC(=O)c1ccccc1 (3D coordinates assigned)
O=C(Nc1ccccc1C(=O)c1ccccc1)C(Cc1ccccc1)=NC(=O)c1ccccc1 (optimized conformer: 78.87616266085273 kcal/mol)

>  <smiles>  (55) 
O=C(Nc1ccccc1C(=O)c1ccccc1)C(Cc1ccccc1)=NC(=O)c1ccccc1

>  <score_type>  (55) 
oracle

>  <origin>  (55) 
adg

>  <m_score__min__energy>  (55) 
-9.6099999999999994

>  <m_primary>  (55) 
energy

$$$$
55:0
     RDKit          3D

 46 48  0  0  0  0  0  0  0  0999 V2000
   58.8540   29.3260   45.1740 C   0  0  0  0  0  0  0  0  0  0  0  0
   57.4200   29.2510   45.6490 C   0  0  0  0  0  0  0  0  0  0  0  0
   56.6730   30.3750   45.2270 O   0  0  0  0  0  0  0  0  0  0  0  0
   57.0840   31.0990   44.1290 C   0  0  0  0  0  0  0  0  0  0  0  0
   57.8020   32.2850   44.2300 C   0  0  0  0  0  0  0  0  0  0  0  0
   58.2100   32.8250   45.4470 N   0  0  0  0  0  0  0  0  0  0  0  0
   59.6350   33.1440   45.7450 C   0  0  0  0  0  0  0  0  0  0  0  0
   60.0870   32.1820   46.7880 C   0  0  0  0  0  0  0  0  0  0  0  0
   59.2520   32.2690   47.9380 N   0  0  0  0  0  0  0  0  0  0  0  0
   60.0560   32.4360   49.1070 C   0  0  0  0  0  0  0  0  0  0  0  0
   59.2530   32.6480   50.3470 C   0  0  0  0  0  0  0  0  0  0  0  0
   59.5250   33.7250   51.1820 C   0  0  0  0  0  0  0  0  0  0  0  0
   58.8040   33.9530   52.3390 C   0  0  0  0  0  0  0  0  0  0  0  0
   57.7740   33.1040   52.7040 C   0  0  0  0  0  0  0  0  0  0  0  0
   57.4920   32.0270   51.8810 C   0  0  0  0  0  0  0  0  0  0  0  0
   56.1960   30.9240   52.3020 Cl  0  0  0  0  0  0  0  0  0  0  0  0
   58.2280   31.8130   50.7220 C   0  0  0  0  0  0  0  0  0  0  0  0
   58.2130   33.2100   47.8500 C   0  0  0  0  0  0  0  0  0  0  0  0
   57.3520   33.1160   46.5850 C   0  0  0  0  0  0  0  0  0  0  0  0
   58.1200   32.8690   43.0560 N   0  0  0  0  0  0  0  0  0  0  0  0
   57.7700   32.3430   41.8590 C   0  0  0  0  0  0  0  0  0  0  0  0
   57.0770   31.1990   41.7310 N   0  0  0  0  0  0  0  0  0  0  0  0
   56.7310   30.5690   42.8860 C   0  0  0  0  0  0  0  0  0  0  0  0
   56.0730   29.4760   42.7590 N   0  0  0  0  0  0  0  0  0  0  0  0
   59.5269   29.3612   46.0435 H   0  0  0  0  0  0  0  0  0  0  0  0
   59.0859   28.4388   44.5665 H   0  0  0  0  0  0  0  0  0  0  0  0
   58.9921   30.2326   44.5665 H   0  0  0  0  0  0  0  0  0  0  0  0
   56.9561   28.3406   45.2417 H   0  0  0  0  0  0  0  0  0  0  0  0
   57.4221   29.2322   46.7488 H   0  0  0  0  0  0  0  0  0  0  0  0
   60.2454   33.0311   44.8369 H   0  0  0  0  0  0  0  0  0  0  0  0
   59.7403   34.1814   46.0954 H   0  0  0  0  0  0  0  0  0  0  0  0
   60.0411   31.1603   46.3831 H   0  0  0  0  0  0  0  0  0  0  0  0
   61.1195   32.4278   47.0770 H   0  0  0  0  0  0  0  0  0  0  0  0
   60.6722   31.5345   49.2393 H   0  0  0  0  0  0  0  0  0  0  0  0
   60.6691   33.3368   48.9564 H   0  0  0  0  0  0  0  0  0  0  0  0
   60.3378   34.4162   50.9144 H   0  0  0  0  0  0  0  0  0  0  0  0
   59.0509   34.8161   52.9746 H   0  0  0  0  0  0  0  0  0  0  0  0
   57.1952   33.2800   53.6227 H   0  0  0  0  0  0  0  0  0  0  0  0
   57.9829   30.9497   50.0859 H   0  0  0  0  0  0  0  0  0  0  0  0
   57.5548   33.0725   48.7205 H   0  0  0  0  0  0  0  0  0  0  0  0
   58.6974   34.1970   47.8167 H   0  0  0  0  0  0  0  0  0  0  0  0
   56.6106   32.3119   46.7027 H   0  0  0  0  0  0  0  0  0  0  0  0
   56.8286   34.0694   46.4208 H   0  0  0  0  0  0  0  0  0  0  0  0
   58.6630   33.7680   42.9900 H   0  0  0  0  0  0  0  0  0  0  0  0
   58.0677   32.8787   40.9456 H   0  0  0  0  0  0  0  0  0  0  0  0
   55.8870   28.8010   43.5090 H   0  0  0  0  0  0  0  0  0  0  0  0
  1  2  1  0
  2  3  1  0
  3  4  1  0
  4  5  2  0
  5  6  1  0
  6  7  1  0
  7  8  1  0
  8  9  1  0
  9 10  1  0
 10 11  1  0
 11 12  2  0
 12 13  1  0
 13 14  2  0
 14 15  1  0
 15 16  1  0
 15 17  2  0
  9 18  1  0
 18 19  1  0
  5 20  1  0
 20 21  1  0
 21 22  2  0
 22 23  1  0
 23 24  2  3
 23  4  1  0
 19  6  1  0
 17 11  1  0
  1 25  1  0
  1 26  1  0
  1 27  1  0
  2 28  1  0
  2 29  1  0
  7 30  1  0
  7 31  1  0
  8 32  1  0
  8 33  1  0
 10 34  1  0
 10 35  1  0
 12 36  1  0
 13 37  1  0
 14 38  1  0
 17 39  1  0
 18 40  1  0
 18 41  1  0
 19 42  1  0
 19 43  1  0
 20 44  1  0
 21 45  1  0
 24 46  1  0
M  END
>  <smiles>  (56) 
CCOc1c(N2CCN(Cc3cccc(Cl)c3)CC2)[nH]cnc1=N

>  <score_type>  (56) 
oracle

>  <origin>  (56) 
adg

>  <m_score__min__energy>  (56) 
-7.3899999999999997

>  <m_primary>  (56) 
energy

$$$$
56:0
     RDKit          3D

 44 47  0  0  0  0  0  0  0  0999 V2000
   53.9680   26.7060   46.0810 H   0  0  0  0  0  0  0  0  0  0  0  0
   54.7950   26.2220   45.6640 N   0  0  0  0  0  0  0  0  0  0  0  0
   55.8870   26.0410   46.3380 C   0  0  0  0  0  0  0  0  0  0  0  0
   56.0240   24.9200   47.0970 N   0  0  0  0  0  0  0  0  0  0  0  0
   57.1400   24.6710   47.8260 C   0  0  0  0  0  0  0  0  0  0  0  0
   57.2093   23.7514   48.4256 H   0  0  0  0  0  0  0  0  0  0  0  0
   58.2000   25.5770   47.8180 C   0  0  0  0  0  0  0  0  0  0  0  0
   59.1041   25.3747   48.4111 H   0  0  0  0  0  0  0  0  0  0  0  0
   58.1080   26.7510   47.0480 C   0  0  0  0  0  0  0  0  0  0  0  0
   59.1500   27.7000   47.0120 C   0  0  0  0  0  0  0  0  0  0  0  0
   60.2390   27.5090   47.7010 N   0  0  0  0  0  0  0  0  0  0  0  0
   60.8030   28.4520   48.6720 C   0  0  0  0  0  0  0  0  0  0  0  0
   61.7458   28.0572   49.0785 H   0  0  0  0  0  0  0  0  0  0  0  0
   59.8140   28.6310   49.8420 C   0  0  0  0  0  0  0  0  0  0  0  0
   59.2172   27.7134   49.9510 H   0  0  0  0  0  0  0  0  0  0  0  0
   60.3899   28.8299   50.7578 H   0  0  0  0  0  0  0  0  0  0  0  0
   58.8700   29.8160   49.5940 C   0  0  0  0  0  0  0  0  0  0  0  0
   58.3121   29.6359   48.6633 H   0  0  0  0  0  0  0  0  0  0  0  0
   58.1929   29.8952   50.4573 H   0  0  0  0  0  0  0  0  0  0  0  0
   59.6020   31.0970   49.4710 N   0  0  0  0  0  0  0  0  0  0  0  0
   59.6440   31.5550   50.4110 H   0  0  0  0  0  0  0  0  0  0  0  0
   59.0560   31.7300   48.8410 H   0  0  0  0  0  0  0  0  0  0  0  0
   60.9810   30.9740   48.9500 C   0  0  0  0  0  0  0  0  0  0  0  0
   61.2458   31.9032   48.4243 H   0  0  0  0  0  0  0  0  0  0  0  0
   61.6510   30.7938   49.8036 H   0  0  0  0  0  0  0  0  0  0  0  0
   61.1270   29.7970   47.9780 C   0  0  0  0  0  0  0  0  0  0  0  0
   60.4357   29.9408   47.1345 H   0  0  0  0  0  0  0  0  0  0  0  0
   62.1686   29.7643   47.6258 H   0  0  0  0  0  0  0  0  0  0  0  0
   59.0110   28.8200   46.2500 N   0  0  0  0  0  0  0  0  0  0  0  0
   57.9030   29.0790   45.5050 C   0  0  0  0  0  0  0  0  0  0  0  0
   57.8440   30.3300   44.7070 C   0  0  0  0  0  0  0  0  0  0  0  0
   57.3960   30.3280   43.3710 C   0  0  0  0  0  0  0  0  0  0  0  0
   57.0741   29.3856   42.9039 H   0  0  0  0  0  0  0  0  0  0  0  0
   57.3580   31.5170   42.6350 C   0  0  0  0  0  0  0  0  0  0  0  0
   57.0011   31.5072   41.5945 H   0  0  0  0  0  0  0  0  0  0  0  0
   57.7720   32.7160   43.2180 C   0  0  0  0  0  0  0  0  0  0  0  0
   57.7381   33.6502   42.6382 H   0  0  0  0  0  0  0  0  0  0  0  0
   58.2290   32.7290   44.5370 C   0  0  0  0  0  0  0  0  0  0  0  0
   58.5582   33.6735   44.9947 H   0  0  0  0  0  0  0  0  0  0  0  0
   58.2690   31.5440   45.2770 C   0  0  0  0  0  0  0  0  0  0  0  0
   58.6359   31.5607   46.3139 H   0  0  0  0  0  0  0  0  0  0  0  0
   56.8370   28.1650   45.5250 C   0  0  0  0  0  0  0  0  0  0  0  0
   55.9275   28.3673   44.9403 H   0  0  0  0  0  0  0  0  0  0  0  0
   56.9330   26.9910   46.2930 C   0  0  0  0  0  0  0  0  0  0  0  0
  1  2  1  0
  2  3  2  0
  3  4  1  0
  4  5  1  0
  5  6  1  0
  5  7  2  0
  7  8  1  0
  7  9  1  0
  9 10  1  0
 10 11  2  0
 11 12  1  0
 12 13  1  0
 12 14  1  0
 14 15  1  0
 14 16  1  0
 14 17  1  0
 17 18  1  0
 17 19  1  0
 17 20  1  0
 20 21  1  0
 20 22  1  0
 20 23  1  0
 23 24  1  0
 23 25  1  0
 23 26  1  0
 26 27  1  0
 26 28  1  0
 10 29  1  0
 29 30  1  0
 30 31  1  0
 31 32  2  0
 32 33  1  0
 32 34  1  0
 34 35  1  0
 34 36  2  0
 36 37  1  0
 36 38  1  0
 38 39  1  0
 38 40  2  0
 40 41  1  0
 30 42  2  0
 42 43  1  0
 42 44  1  0
 44  3  1  0
 44  9  2  0
 26 12  1  0
 40 31  1  0
M  CHG  3   4  -1  20   1  29  -1
M  END
>  <UniqueID>  (57) 
51

>  <SMILES>  (57) 
[H]/N=c1\[n-]ccc2/c(=N/C3CC[NH2+]CC3)[n-]c(-c3ccccc3)cc12

>  <Energy>  (57) 
63.46027879511209

>  <Genealogy>  (57) 
N=c1[n-]ccc2c(=NC3CC[NH2+]CC3)[n-]c(-c3ccccc3)cc12 (protonated)
[H]/N=c1\[n-]ccc2/c(=N/C3CC[NH2+]CC3)[n-]c(-c3ccccc3)cc12 (cis-trans isomerization)
[H]/N=c1\[n-]ccc2/c(=N/C3CC[NH2+]CC3)[n-]c(-c3ccccc3)cc12 (3D coordinates assigned)
[H]/N=c1\[n-]ccc2/c(=N/C3CC[NH2+]CC3)[n-]c(-c3ccccc3)cc12 (nonaromatic ring conformer: 63.46027879511209 kcal/mol)

>  <smiles>  (57) 
N=c1[nH]ccc2c(=NC3CCNCC3)[nH]c(-c3ccccc3)cc12

>  <score_type>  (57) 
oracle

>  <origin>  (57) 
adg

>  <m_score__min__energy>  (57) 
-8.7799999999999994

>  <m_primary>  (57) 
energy

$$$$
57:0
     RDKit          3D

 38 40  0  0  0  0  0  0  0  0999 V2000
   54.6398   30.8789   43.7684 H   0  0  0  0  0  0  0  0  0  0  0  0
   55.5410   30.3140   44.0490 C   0  0  0  0  0  0  0  0  0  0  0  0
   55.5230   29.3310   44.9880 N   0  0  0  0  0  0  0  0  0  0  0  0
   56.7470   28.7790   45.1490 C   0  0  0  0  0  0  0  0  0  0  0  0
   57.0210   27.8390   46.0040 N   0  0  0  0  0  0  0  0  0  0  0  0
   58.3210   27.5370   46.5320 C   0  0  0  0  0  0  0  0  0  0  0  0
   58.7100   26.3390   46.5220 O   0  0  0  0  0  0  0  0  0  0  0  0
   59.1940   28.5730   47.1310 C   0  0  0  0  0  0  0  0  0  0  0  0
   59.0920   28.9010   48.4940 C   0  0  0  0  0  0  0  0  0  0  0  0
   58.3536   28.3869   49.1269 H   0  0  0  0  0  0  0  0  0  0  0  0
   59.9240   29.8770   49.0490 C   0  0  0  0  0  0  0  0  0  0  0  0
   59.8294   30.1316   50.1149 H   0  0  0  0  0  0  0  0  0  0  0  0
   60.8770   30.5340   48.2610 C   0  0  0  0  0  0  0  0  0  0  0  0
   61.7020   31.5340   48.8720 N   0  0  0  0  0  0  0  0  0  0  0  0
   61.6500   33.2280   48.5150 S   0  0  0  0  0  0  0  0  0  0  0  0
   62.9110   33.6220   47.8000 O   0  0  0  0  0  0  0  0  0  0  0  0
   61.5590   34.0010   49.8010 O   0  0  0  0  0  0  0  0  0  0  0  0
   60.2730   33.5720   47.4730 C   0  0  0  0  0  0  0  0  0  0  0  0
   58.9800   33.1720   47.8400 C   0  0  0  0  0  0  0  0  0  0  0  0
   58.8176   32.6512   48.7952 H   0  0  0  0  0  0  0  0  0  0  0  0
   57.8970   33.4330   46.9960 C   0  0  0  0  0  0  0  0  0  0  0  0
   56.8845   33.1209   47.2917 H   0  0  0  0  0  0  0  0  0  0  0  0
   58.0960   34.0920   45.7720 C   0  0  0  0  0  0  0  0  0  0  0  0
   56.9260   34.3990   44.8850 C   0  0  0  0  0  0  0  0  0  0  0  0
   56.0468   34.6297   45.5045 H   0  0  0  0  0  0  0  0  0  0  0  0
   57.1645   35.2650   44.2500 H   0  0  0  0  0  0  0  0  0  0  0  0
   56.7086   33.5275   44.2500 H   0  0  0  0  0  0  0  0  0  0  0  0
   59.3870   34.5130   45.4190 C   0  0  0  0  0  0  0  0  0  0  0  0
   59.5476   35.0539   44.4748 H   0  0  0  0  0  0  0  0  0  0  0  0
   60.4700   34.2480   46.2620 C   0  0  0  0  0  0  0  0  0  0  0  0
   61.4809   34.5716   45.9733 H   0  0  0  0  0  0  0  0  0  0  0  0
   60.9940   30.1940   46.9020 C   0  0  0  0  0  0  0  0  0  0  0  0
   61.7422   30.6992   46.2736 H   0  0  0  0  0  0  0  0  0  0  0  0
   60.1640   29.2170   46.3460 C   0  0  0  0  0  0  0  0  0  0  0  0
   60.2714   28.9501   45.2843 H   0  0  0  0  0  0  0  0  0  0  0  0
   57.8960   29.4950   44.1590 S   0  0  0  0  0  0  0  0  0  0  0  0
   56.7830   30.5530   43.4690 C   0  0  0  0  0  0  0  0  0  0  0  0
   57.0000   31.3030   42.6942 H   0  0  0  0  0  0  0  0  0  0  0  0
  1  2  1  0
  2  3  1  0
  3  4  1  0
  4  5  2  0
  5  6  1  0
  6  7  2  0
  6  8  1  0
  8  9  2  0
  9 10  1  0
  9 11  1  0
 11 12  1  0
 11 13  2  0
 13 14  1  0
 14 15  1  0
 15 16  2  0
 15 17  2  0
 15 18  1  0
 18 19  2  0
 19 20  1  0
 19 21  1  0
 21 22  1  0
 21 23  2  0
 23 24  1  0
 24 25  1  0
 24 26  1  0
 24 27  1  0
 23 28  1  0
 28 29  1  0
 28 30  2  0
 30 31  1  0
 13 32  1  0
 32 33  1  0
 32 34  2  0
 34 35  1  0
  4 36  1  0
 36 37  1  0
 37 38  1  0
 37  2  2  0
 34  8  1  0
 30 18  1  0
M  CHG  2   3  -1  14  -1
M  END
>  <UniqueID>  (58) 
52

>  <SMILES>  (58) 
Cc1ccc(S(=O)(=O)[N-]c2ccc(C(=O)/N=c3\[n-]ccs3)cc2)cc1

>  <Energy>  (58) 
80.36051099027333

>  <Genealogy>  (58) 
Cc1ccc(S(=O)(=O)[N-]c2ccc(C(=O)N=c3[n-]ccs3)cc2)cc1 (protonated)
Cc1ccc(S(=O)(=O)[N-]c2ccc(C(=O)/N=c3\[n-]ccs3)cc2)cc1 (cis-trans isomerization)
Cc1ccc(S(=O)(=O)[N-]c2ccc(C(=O)/N=c3\[n-]ccs3)cc2)cc1 (3D coordinates assigned)
Cc1ccc(S(=O)(=O)[N-]c2ccc(C(=O)/N=c3\[n-]ccs3)cc2)cc1 (optimized conformer: 80.36051099027333 kcal/mol)

>  <smiles>  (58) 
Cc1ccc(S(=O)(=O)Nc2ccc(C(=O)N=c3[nH]ccs3)cc2)cc1

>  <score_type>  (58) 
oracle

>  <origin>  (58) 
adg

>  <m_score__min__energy>  (58) 
-11.5

>  <m_primary>  (58) 
energy

$$$$
58:0
     RDKit          3D

 62 65  0  0  0  0  0  0  0  0999 V2000
   57.4240   31.9340   42.1750 C   0  0  0  0  0  0  0  0  0  0  0  0
   58.2890   31.6710   43.2740 O   0  0  0  0  0  0  0  0  0  0  0  0
   58.3930   32.4790   44.4180 C   0  0  0  0  0  0  0  0  0  0  0  0
   58.8800   33.8000   44.3470 C   0  0  0  0  0  0  0  0  0  0  0  0
   58.9440   34.5940   45.4940 C   0  0  0  0  0  0  0  0  0  0  0  0
   58.5290   34.0830   46.7230 C   0  0  0  0  0  0  0  0  0  0  0  0
   58.0520   32.7740   46.8090 C   0  0  0  0  0  0  0  0  0  0  0  0
   57.9770   31.9630   45.6620 C   0  0  0  0  0  0  0  0  0  0  0  0
   57.4590   30.5780   45.7790 C   0  0  0  0  0  0  0  0  0  0  0  0
   56.7980   30.0780   44.8320 O   0  0  0  0  0  0  0  0  0  0  0  0
   57.7530   29.7610   46.9220 N   0  0  0  0  0  0  0  0  0  0  0  0
   58.2860   28.4290   46.8800 C   0  0  0  0  0  0  0  0  0  0  0  0
   57.4560   27.3330   46.5850 C   0  0  0  0  0  0  0  0  0  0  0  0
   57.9680   26.0310   46.5820 C   0  0  0  0  0  0  0  0  0  0  0  0
   56.9140   24.6660   46.2050 S   0  0  0  0  0  0  0  0  0  0  0  0
   57.1260   23.5780   47.2230 O   0  0  0  0  0  0  0  0  0  0  0  0
   55.4810   25.1100   46.2920 O   0  0  0  0  0  0  0  0  0  0  0  0
   57.2210   24.0330   44.6040 N   0  0  0  0  0  0  0  0  0  0  0  0
   57.8960   22.7180   44.6530 C   0  0  0  0  0  0  0  0  0  0  0  0
   56.9220   21.5560   44.3720 C   0  0  0  0  0  0  0  0  0  0  0  0
   56.2440   21.6560   43.1260 O   0  0  0  0  0  0  0  0  0  0  0  0
   56.0820   22.9900   42.6690 C   0  0  0  0  0  0  0  0  0  0  0  0
   55.9800   24.0160   43.8070 C   0  0  0  0  0  0  0  0  0  0  0  0
   59.3190   25.8220   46.8750 C   0  0  0  0  0  0  0  0  0  0  0  0
   60.1570   26.9060   47.1470 C   0  0  0  0  0  0  0  0  0  0  0  0
   59.6530   28.2150   47.1400 C   0  0  0  0  0  0  0  0  0  0  0  0
   60.5280   29.3180   47.4430 N   0  0  0  0  0  0  0  0  0  0  0  0
   60.9010   29.6130   48.8300 C   0  0  0  0  0  0  0  0  0  0  0  0
   61.1340   31.1180   48.9920 C   0  0  0  0  0  0  0  0  0  0  0  0
   62.1830   31.6260   48.0750 N   0  0  0  0  0  0  0  0  0  0  0  0
   62.0330   33.0770   47.8780 C   0  0  0  0  0  0  0  0  0  0  0  0
   62.2740   30.9120   46.7740 C   0  0  0  0  0  0  0  0  0  0  0  0
   60.9650   30.2200   46.3720 C   0  0  0  0  0  0  0  0  0  0  0  0
   56.4349   32.2347   42.5507 H   0  0  0  0  0  0  0  0  0  0  0  0
   57.8455   32.7446   41.5624 H   0  0  0  0  0  0  0  0  0  0  0  0
   57.3230   31.0260   41.5624 H   0  0  0  0  0  0  0  0  0  0  0  0
   59.2120   34.2083   43.3811 H   0  0  0  0  0  0  0  0  0  0  0  0
   59.3226   35.6247   45.4277 H   0  0  0  0  0  0  0  0  0  0  0  0
   58.5775   34.7112   47.6247 H   0  0  0  0  0  0  0  0  0  0  0  0
   57.7320   32.3731   47.7821 H   0  0  0  0  0  0  0  0  0  0  0  0
   56.3937   27.5009   46.3543 H   0  0  0  0  0  0  0  0  0  0  0  0
   58.6956   22.7013   43.8978 H   0  0  0  0  0  0  0  0  0  0  0  0
   58.3018   22.5827   45.6664 H   0  0  0  0  0  0  0  0  0  0  0  0
   57.4937   20.6163   44.3799 H   0  0  0  0  0  0  0  0  0  0  0  0
   56.1516   21.5907   45.1564 H   0  0  0  0  0  0  0  0  0  0  0  0
   56.9464   23.2508   42.0407 H   0  0  0  0  0  0  0  0  0  0  0  0
   55.1353   23.0293   42.1103 H   0  0  0  0  0  0  0  0  0  0  0  0
   55.8117   25.0152   43.3788 H   0  0  0  0  0  0  0  0  0  0  0  0
   55.1418   23.7365   44.4622 H   0  0  0  0  0  0  0  0  0  0  0  0
   59.7239   24.7993   46.8914 H   0  0  0  0  0  0  0  0  0  0  0  0
   61.2203   26.7317   47.3684 H   0  0  0  0  0  0  0  0  0  0  0  0
   60.0911   29.2938   49.5024 H   0  0  0  0  0  0  0  0  0  0  0  0
   61.8248   29.0718   49.0822 H   0  0  0  0  0  0  0  0  0  0  0  0
   60.1928   31.6466   48.7806 H   0  0  0  0  0  0  0  0  0  0  0  0
   61.4721   31.2976   50.0232 H   0  0  0  0  0  0  0  0  0  0  0  0
   61.9814   33.5765   48.8567 H   0  0  0  0  0  0  0  0  0  0  0  0
   62.8962   33.4618   47.3150 H   0  0  0  0  0  0  0  0  0  0  0  0
   61.1094   33.2771   47.3150 H   0  0  0  0  0  0  0  0  0  0  0  0
   62.5387   31.6402   45.9932 H   0  0  0  0  0  0  0  0  0  0  0  0
   63.0380   30.1282   46.8838 H   0  0  0  0  0  0  0  0  0  0  0  0
   60.1896   30.9802   46.1962 H   0  0  0  0  0  0  0  0  0  0  0  0
   61.1302   29.6381   45.4532 H   0  0  0  0  0  0  0  0  0  0  0  0
  1  2  1  0
  2  3  1  0
  3  4  2  0
  4  5  1  0
  5  6  2  0
  6  7  1  0
  7  8  2  0
  8  9  1  0
  9 10  2  0
  9 11  1  0
 11 12  1  0
 12 13  2  0
 13 14  1  0
 14 15  1  0
 15 16  2  0
 15 17  2  0
 15 18  1  0
 18 19  1  0
 19 20  1  0
 20 21  1  0
 21 22  1  0
 22 23  1  0
 14 24  2  0
 24 25  1  0
 25 26  2  0
 26 27  1  0
 27 28  1  0
 28 29  1  0
 29 30  1  0
 30 31  1  0
 30 32  1  0
 32 33  1  0
  8  3  1  0
 26 12  1  0
 33 27  1  0
 23 18  1  0
  1 34  1  0
  1 35  1  0
  1 36  1  0
  4 37  1  0
  5 38  1  0
  6 39  1  0
  7 40  1  0
 13 41  1  0
 19 42  1  0
 19 43  1  0
 20 44  1  0
 20 45  1  0
 22 46  1  0
 22 47  1  0
 23 48  1  0
 23 49  1  0
 24 50  1  0
 25 51  1  0
 28 52  1  0
 28 53  1  0
 29 54  1  0
 29 55  1  0
 31 56  1  0
 31 57  1  0
 31 58  1  0
 32 59  1  0
 32 60  1  0
 33 61  1  0
 33 62  1  0
M  CHG  1  11  -1
M  END
>  <UniqueID>  (59) 
53

>  <SMILES>  (59) 
COc1ccccc1C(=O)[N-]c1cc(S(=O)(=O)N2CCOCC2)ccc1N1CCN(C)CC1

>  <Energy>  (59) 
93.28616436522285

>  <Genealogy>  (59) 
COc1ccccc1C(=O)[N-]c1cc(S(=O)(=O)N2CCOCC2)ccc1N1CCN(C)CC1 (protonated)
COc1ccccc1C(=O)[N-]c1cc(S(=O)(=O)N2CCOCC2)ccc1N1CCN(C)CC1 (3D coordinates assigned)
COc1ccccc1C(=O)[N-]c1cc(S(=O)(=O)N2CCOCC2)ccc1N1CCN(C)CC1 (nonaromatic ring conformer: 93.28616436522285 kcal/mol)

>  <smiles>  (59) 
COc1ccccc1C(=O)Nc1cc(S(=O)(=O)N2CCOCC2)ccc1N1CCN(C)CC1

>  <score_type>  (59) 
oracle

>  <origin>  (59) 
adg

>  <m_score__min__energy>  (59) 
-11.23

>  <m_primary>  (59) 
energy

$$$$
59:0
     RDKit          3D

 39 39  0  0  0  0  0  0  0  0999 V2000
   60.3330   27.0450   48.3780 C   0  0  0  0  0  0  0  0  0  0  0  0
   60.1110   28.5230   48.0850 C   0  0  0  0  0  0  0  0  0  0  0  0
   59.4820   28.6780   46.7470 N   0  0  0  0  0  0  0  0  0  0  0  0
   60.1200   27.8060   45.7350 C   0  0  0  0  0  0  0  0  0  0  0  0
   61.0460   28.6140   44.8280 C   0  0  0  0  0  0  0  0  0  0  0  0
   58.0240   28.4370   46.7950 C   0  0  0  0  0  0  0  0  0  0  0  0
   57.3260   29.1530   45.6620 C   0  0  0  0  0  0  0  0  0  0  0  0
   57.8920   30.3320   45.1490 C   0  0  0  0  0  0  0  0  0  0  0  0
   57.2550   31.0450   44.1200 C   0  0  0  0  0  0  0  0  0  0  0  0
   57.8380   32.2570   43.6040 N   0  0  0  0  0  0  0  0  0  0  0  0
   58.1510   32.3490   42.1740 C   0  0  0  0  0  0  0  0  0  0  0  0
   58.2310   33.3130   44.5100 C   0  0  0  0  0  0  0  0  0  0  0  0
   57.4180   33.6440   45.7260 C   0  0  0  0  0  0  0  0  0  0  0  0
   59.2720   33.9860   44.2800 O   0  0  0  0  0  0  0  0  0  0  0  0
   56.0470   30.5610   43.5970 C   0  0  0  0  0  0  0  0  0  0  0  0
   55.4800   29.3880   44.0990 C   0  0  0  0  0  0  0  0  0  0  0  0
   56.1110   28.6830   45.1280 C   0  0  0  0  0  0  0  0  0  0  0  0
   55.5210   27.5200   45.6110 O   0  0  0  0  0  0  0  0  0  0  0  0
   60.3568   26.8865   49.4663 H   0  0  0  0  0  0  0  0  0  0  0  0
   59.5131   26.4571   47.9397 H   0  0  0  0  0  0  0  0  0  0  0  0
   61.2894   26.7239   47.9397 H   0  0  0  0  0  0  0  0  0  0  0  0
   59.4501   28.9529   48.8521 H   0  0  0  0  0  0  0  0  0  0  0  0
   61.0783   29.0466   48.0964 H   0  0  0  0  0  0  0  0  0  0  0  0
   60.7056   27.0282   46.2470 H   0  0  0  0  0  0  0  0  0  0  0  0
   59.3329   27.3489   45.1174 H   0  0  0  0  0  0  0  0  0  0  0  0
   61.7323   29.2129   45.4447 H   0  0  0  0  0  0  0  0  0  0  0  0
   61.6268   27.9288   44.1930 H   0  0  0  0  0  0  0  0  0  0  0  0
   60.4458   29.2823   44.1930 H   0  0  0  0  0  0  0  0  0  0  0  0
   57.8337   27.3568   46.7110 H   0  0  0  0  0  0  0  0  0  0  0  0
   57.6337   28.8206   47.7492 H   0  0  0  0  0  0  0  0  0  0  0  0
   58.8444   30.7008   45.5576 H   0  0  0  0  0  0  0  0  0  0  0  0
   59.1993   32.6571   42.0472 H   0  0  0  0  0  0  0  0  0  0  0  0
   57.9975   31.3677   41.7012 H   0  0  0  0  0  0  0  0  0  0  0  0
   57.4909   33.0911   41.7012 H   0  0  0  0  0  0  0  0  0  0  0  0
   57.9980   33.4078   46.6303 H   0  0  0  0  0  0  0  0  0  0  0  0
   57.1685   34.7153   45.7198 H   0  0  0  0  0  0  0  0  0  0  0  0
   56.4911   33.0516   45.7198 H   0  0  0  0  0  0  0  0  0  0  0  0
   55.5434   31.1086   42.7867 H   0  0  0  0  0  0  0  0  0  0  0  0
   54.5319   29.0168   43.6826 H   0  0  0  0  0  0  0  0  0  0  0  0
  1  2  1  0
  2  3  1  0
  3  4  1  0
  4  5  1  0
  3  6  1  0
  6  7  1  0
  7  8  2  0
  8  9  1  0
  9 10  1  0
 10 11  1  0
 10 12  1  0
 12 13  1  0
 12 14  2  0
  9 15  2  0
 15 16  1  0
 16 17  2  0
 17 18  1  0
 17  7  1  0
  1 19  1  0
  1 20  1  0
  1 21  1  0
  2 22  1  0
  2 23  1  0
  4 24  1  0
  4 25  1  0
  5 26  1  0
  5 27  1  0
  5 28  1  0
  6 29  1  0
  6 30  1  0
  8 31  1  0
 11 32  1  0
 11 33  1  0
 11 34  1  0
 13 35  1  0
 13 36  1  0
 13 37  1  0
 15 38  1  0
 16 39  1  0
M  CHG  1  18  -1
M  END
>  <UniqueID>  (60) 
54

>  <SMILES>  (60) 
CCN(CC)Cc1cc(N(C)C(C)=O)ccc1[O-]

>  <Energy>  (60) 
40.18417333994085

>  <Genealogy>  (60) 
CCN(CC)Cc1cc(N(C)C(C)=O)ccc1[O-] (protonated)
CCN(CC)Cc1cc(N(C)C(C)=O)ccc1[O-] (3D coordinates assigned)
CCN(CC)Cc1cc(N(C)C(C)=O)ccc1[O-] (optimized conformer: 40.18417333994085 kcal/mol)

>  <smiles>  (60) 
CCN(CC)Cc1cc(N(C)C(C)=O)ccc1O

>  <score_type>  (60) 
oracle

>  <origin>  (60) 
adg

>  <m_score__min__energy>  (60) 
-9.2899999999999991

>  <m_primary>  (60) 
energy

$$$$
60:0
     RDKit          3D

 50 50  0  0  0  0  0  0  0  0999 V2000
   59.3750   30.8050   46.5340 N   0  0  0  0  0  0  0  0  0  0  0  0
   60.5250   29.9060   46.6380 C   0  0  0  0  0  0  0  0  0  0  0  0
   60.6920   29.0290   45.3850 C   0  0  0  0  0  0  0  0  0  0  0  0
   59.3840   28.8750   44.5930 C   0  0  0  0  0  0  0  0  0  0  0  0
   58.2390   28.4100   45.4970 C   0  0  0  0  0  0  0  0  0  0  0  0
   57.2590   29.4950   45.6480 N   0  0  0  0  0  0  0  0  0  0  0  0
   56.0700   29.3130   44.7970 C   0  0  0  0  0  0  0  0  0  0  0  0
   55.8510   30.4410   43.7660 C   0  0  0  0  0  0  0  0  0  0  0  0
   57.0080   30.5690   42.7650 C   0  0  0  0  0  0  0  0  0  0  0  0
   57.7660   31.8850   42.9600 C   0  0  0  0  0  0  0  0  0  0  0  0
   58.3550   31.9340   44.2920 N   0  0  0  0  0  0  0  0  0  0  0  0
   57.8690   32.7770   45.3430 C   0  0  0  0  0  0  0  0  0  0  0  0
   57.5310   32.2850   46.4540 O   0  0  0  0  0  0  0  0  0  0  0  0
   57.8020   34.2590   45.1300 C   0  0  0  0  0  0  0  0  0  0  0  0
   59.1800   34.9170   45.2760 C   0  0  0  0  0  0  0  0  0  0  0  0
   59.9130   34.4230   46.5010 C   0  0  0  0  0  0  0  0  0  0  0  0
   61.1940   33.8610   46.3840 C   0  0  0  0  0  0  0  0  0  0  0  0
   61.8970   33.4670   47.5250 C   0  0  0  0  0  0  0  0  0  0  0  0
   61.3310   33.6400   48.7900 C   0  0  0  0  0  0  0  0  0  0  0  0
   60.0540   34.1930   48.9160 C   0  0  0  0  0  0  0  0  0  0  0  0
   59.3450   34.5810   47.7760 C   0  0  0  0  0  0  0  0  0  0  0  0
   59.6200   31.7530   46.8990 H   0  0  0  0  0  0  0  0  0  0  0  0
   59.0540   30.8750   45.5420 H   0  0  0  0  0  0  0  0  0  0  0  0
   58.5940   30.4220   47.1150 H   0  0  0  0  0  0  0  0  0  0  0  0
   61.4351   30.5090   46.7722 H   0  0  0  0  0  0  0  0  0  0  0  0
   60.3562   29.2396   47.4967 H   0  0  0  0  0  0  0  0  0  0  0  0
   61.4477   29.4889   44.7312 H   0  0  0  0  0  0  0  0  0  0  0  0
   60.9997   28.0269   45.7183 H   0  0  0  0  0  0  0  0  0  0  0  0
   59.1180   29.8451   44.1479 H   0  0  0  0  0  0  0  0  0  0  0  0
   59.5386   28.1177   43.8104 H   0  0  0  0  0  0  0  0  0  0  0  0
   57.7492   27.5342   45.0464 H   0  0  0  0  0  0  0  0  0  0  0  0
   58.6400   28.1395   46.4849 H   0  0  0  0  0  0  0  0  0  0  0  0
   57.7170   30.4110   45.4410 H   0  0  0  0  0  0  0  0  0  0  0  0
   56.1779   28.3637   44.2519 H   0  0  0  0  0  0  0  0  0  0  0  0
   55.1974   29.3231   45.4667 H   0  0  0  0  0  0  0  0  0  0  0  0
   54.9261   30.2320   43.2084 H   0  0  0  0  0  0  0  0  0  0  0  0
   55.7892   31.3883   44.3216 H   0  0  0  0  0  0  0  0  0  0  0  0
   57.7034   29.7293   42.9112 H   0  0  0  0  0  0  0  0  0  0  0  0
   56.5911   30.5547   41.7472 H   0  0  0  0  0  0  0  0  0  0  0  0
   58.5642   31.9596   42.2068 H   0  0  0  0  0  0  0  0  0  0  0  0
   57.0635   32.7239   42.8471 H   0  0  0  0  0  0  0  0  0  0  0  0
   57.4182   34.4566   44.1182 H   0  0  0  0  0  0  0  0  0  0  0  0
   57.1362   34.6852   45.8949 H   0  0  0  0  0  0  0  0  0  0  0  0
   59.7810   34.6853   44.3843 H   0  0  0  0  0  0  0  0  0  0  0  0
   59.0304   36.0016   45.3824 H   0  0  0  0  0  0  0  0  0  0  0  0
   61.6461   33.7303   45.3897 H   0  0  0  0  0  0  0  0  0  0  0  0
   62.8973   33.0201   47.4271 H   0  0  0  0  0  0  0  0  0  0  0  0
   61.8911   33.3406   49.6881 H   0  0  0  0  0  0  0  0  0  0  0  0
   59.6068   34.3229   49.9126 H   0  0  0  0  0  0  0  0  0  0  0  0
   58.3380   35.0119   47.8775 H   0  0  0  0  0  0  0  0  0  0  0  0
  1  2  1  0
  2  3  1  0
  3  4  1  0
  4  5  1  0
  5  6  1  0
  6  7  1  0
  7  8  1  0
  8  9  1  0
  9 10  1  0
 10 11  1  0
 11 12  1  0
 12 13  2  0
 12 14  1  0
 14 15  1  0
 15 16  1  0
 16 17  2  0
 17 18  1  0
 18 19  2  0
 19 20  1  0
 20 21  2  0
 21 16  1  0
  1 22  1  0
  1 23  1  0
  1 24  1  0
  2 25  1  0
  2 26  1  0
  3 27  1  0
  3 28  1  0
  4 29  1  0
  4 30  1  0
  5 31  1  0
  5 32  1  0
  6 33  1  0
  7 34  1  0
  7 35  1  0
  8 36  1  0
  8 37  1  0
  9 38  1  0
  9 39  1  0
 10 40  1  0
 10 41  1  0
 14 42  1  0
 14 43  1  0
 15 44  1  0
 15 45  1  0
 17 46  1  0
 18 47  1  0
 19 48  1  0
 20 49  1  0
 21 50  1  0
M  CHG  2   1   1  11  -1
M  END
>  <UniqueID>  (61) 
55

>  <SMILES>  (61) 
[NH3+]CCCCNCCCC[N-]C(=O)CCc1ccccc1

>  <Energy>  (61) 
27.774159467803482

>  <Genealogy>  (61) 
[NH3+]CCCCNCCCC[N-]C(=O)CCc1ccccc1 (protonated)
[NH3+]CCCCNCCCC[N-]C(=O)CCc1ccccc1 (3D coordinates assigned)
[NH3+]CCCCNCCCC[N-]C(=O)CCc1ccccc1 (optimized conformer: 27.774159467803482 kcal/mol)

>  <smiles>  (61) 
NCCCCNCCCCNC(=O)CCc1ccccc1

>  <score_type>  (61) 
oracle

>  <origin>  (61) 
adg

>  <m_score__min__energy>  (61) 
-5

>  <m_primary>  (61) 
energy

$$$$
61:0
     RDKit          3D

 44 46  0  0  0  0  0  0  0  0999 V2000
   59.3874   31.1745   44.6647 H   0  0  0  0  0  0  0  0  0  0  0  0
   58.7010   30.8820   45.4730 C   0  0  0  0  0  0  0  0  0  0  0  0
   58.0410   29.7680   45.3840 N   0  0  0  0  0  0  0  0  0  0  0  0
   58.5400   28.4510   45.6850 C   0  0  0  0  0  0  0  0  0  0  0  0
   59.9160   28.2280   45.9060 C   0  0  0  0  0  0  0  0  0  0  0  0
   60.6255   29.0630   45.8092 H   0  0  0  0  0  0  0  0  0  0  0  0
   60.3850   26.9590   46.2460 C   0  0  0  0  0  0  0  0  0  0  0  0
   61.4614   26.7957   46.4030 H   0  0  0  0  0  0  0  0  0  0  0  0
   59.4940   25.8990   46.3870 C   0  0  0  0  0  0  0  0  0  0  0  0
   59.8678   24.8994   46.6535 H   0  0  0  0  0  0  0  0  0  0  0  0
   58.1280   26.1020   46.1910 C   0  0  0  0  0  0  0  0  0  0  0  0
   57.4303   25.2604   46.3131 H   0  0  0  0  0  0  0  0  0  0  0  0
   57.6310   27.3740   45.8380 C   0  0  0  0  0  0  0  0  0  0  0  0
   56.1670   27.5380   45.6260 C   0  0  0  0  0  0  0  0  0  0  0  0
   55.7150   28.5960   45.1130 O   0  0  0  0  0  0  0  0  0  0  0  0
   55.2690   26.5480   46.0040 O   0  0  0  0  0  0  0  0  0  0  0  0
   58.5400   31.7570   46.6440 C   0  0  0  0  0  0  0  0  0  0  0  0
   58.5830   31.2950   47.9090 N   0  0  0  0  0  0  0  0  0  0  0  0
   58.5120   32.4160   48.6630 C   0  0  0  0  0  0  0  0  0  0  0  0
   58.5320   32.4130   50.1400 C   0  0  0  0  0  0  0  0  0  0  0  0
   59.2160   33.4150   50.8490 C   0  0  0  0  0  0  0  0  0  0  0  0
   59.7450   34.2086   50.3010 H   0  0  0  0  0  0  0  0  0  0  0  0
   59.2280   33.4090   52.2470 C   0  0  0  0  0  0  0  0  0  0  0  0
   59.7591   34.2024   52.7934 H   0  0  0  0  0  0  0  0  0  0  0  0
   58.5660   32.3960   52.9560 C   0  0  0  0  0  0  0  0  0  0  0  0
   58.5480   32.4150   54.4570 C   0  0  0  0  0  0  0  0  0  0  0  0
   59.2568   31.6669   54.8417 H   0  0  0  0  0  0  0  0  0  0  0  0
   58.8390   33.4137   54.8146 H   0  0  0  0  0  0  0  0  0  0  0  0
   57.5350   32.1783   54.8146 H   0  0  0  0  0  0  0  0  0  0  0  0
   57.8680   31.4050   52.2510 C   0  0  0  0  0  0  0  0  0  0  0  0
   57.3269   30.6204   52.8002 H   0  0  0  0  0  0  0  0  0  0  0  0
   57.8570   31.4100   50.8530 C   0  0  0  0  0  0  0  0  0  0  0  0
   57.3157   30.6225   50.3081 H   0  0  0  0  0  0  0  0  0  0  0  0
   58.4290   33.5110   47.9380 O   0  0  0  0  0  0  0  0  0  0  0  0
   58.4320   33.1360   46.6850 C   0  0  0  0  0  0  0  0  0  0  0  0
   58.3260   34.0460   45.5800 N   0  0  0  0  0  0  0  0  0  0  0  0
   57.0470   34.2580   44.8990 C   0  0  0  0  0  0  0  0  0  0  0  0
   56.2510   34.3899   45.6466 H   0  0  0  0  0  0  0  0  0  0  0  0
   57.1115   35.1577   44.2694 H   0  0  0  0  0  0  0  0  0  0  0  0
   56.8178   33.3856   44.2694 H   0  0  0  0  0  0  0  0  0  0  0  0
   59.4520   34.9290   45.2870 C   0  0  0  0  0  0  0  0  0  0  0  0
   59.8984   35.2790   46.2295 H   0  0  0  0  0  0  0  0  0  0  0  0
   60.2070   34.3797   44.7054 H   0  0  0  0  0  0  0  0  0  0  0  0
   59.0986   35.7932   44.7054 H   0  0  0  0  0  0  0  0  0  0  0  0
  1  2  1  0
  2  3  2  0
  3  4  1  0
  4  5  2  0
  5  6  1  0
  5  7  1  0
  7  8  1  0
  7  9  2  0
  9 10  1  0
  9 11  1  0
 11 12  1  0
 11 13  2  0
 13 14  1  0
 14 15  2  0
 14 16  1  0
  2 17  1  0
 17 18  1  0
 18 19  2  0
 19 20  1  0
 20 21  2  0
 21 22  1  0
 21 23  1  0
 23 24  1  0
 23 25  2  0
 25 26  1  0
 26 27  1  0
 26 28  1  0
 26 29  1  0
 25 30  1  0
 30 31  1  0
 30 32  2  0
 32 33  1  0
 19 34  1  0
 34 35  1  0
 35 36  1  0
 36 37  1  0
 37 38  1  0
 37 39  1  0
 37 40  1  0
 36 41  1  0
 41 42  1  0
 41 43  1  0
 41 44  1  0
 13  4  1  0
 35 17  2  0
 32 20  1  0
M  CHG  1  16  -1
M  END
>  <UniqueID>  (62) 
56

>  <SMILES>  (62) 
Cc1ccc(-c2nc(/C=N/c3ccccc3C(=O)[O-])c(N(C)C)o2)cc1

>  <Energy>  (62) 
83.30345538217387

>  <Genealogy>  (62) 
Cc1ccc(-c2nc(C=Nc3ccccc3C(=O)[O-])c(N(C)C)o2)cc1 (protonated)
Cc1ccc(-c2nc(/C=N/c3ccccc3C(=O)[O-])c(N(C)C)o2)cc1 (cis-trans isomerization)
Cc1ccc(-c2nc(/C=N/c3ccccc3C(=O)[O-])c(N(C)C)o2)cc1 (3D coordinates assigned)
Cc1ccc(-c2nc(/C=N/c3ccccc3C(=O)[O-])c(N(C)C)o2)cc1 (optimized conformer: 83.30345538217387 kcal/mol)

>  <smiles>  (62) 
Cc1ccc(-c2nc(C=Nc3ccccc3C(=O)O)c(N(C)C)o2)cc1

>  <score_type>  (62) 
oracle

>  <origin>  (62) 
adg

>  <m_score__min__energy>  (62) 
-10.32

>  <m_primary>  (62) 
energy

$$$$
62:0
     RDKit          3D

 54 57  0  0  0  0  0  0  0  0999 V2000
   56.6940   22.8440   48.9670 H   0  0  0  0  0  0  0  0  0  0  0  0
   56.1640   23.1440   48.1190 N   0  0  0  0  0  0  0  0  0  0  0  0
   56.4400   24.2480   47.5030 C   0  0  0  0  0  0  0  0  0  0  0  0
   55.5230   24.8160   46.6710 N   0  0  0  0  0  0  0  0  0  0  0  0
   55.7770   25.9730   46.0110 C   0  0  0  0  0  0  0  0  0  0  0  0
   55.0128   26.4085   45.3505 H   0  0  0  0  0  0  0  0  0  0  0  0
   57.0110   26.6130   46.1700 C   0  0  0  0  0  0  0  0  0  0  0  0
   57.2810   27.8580   45.5060 C   0  0  0  0  0  0  0  0  0  0  0  0
   57.4870   28.9270   44.9870 C   0  0  0  0  0  0  0  0  0  0  0  0
   57.7140   30.2450   44.4320 C   0  0  0  0  0  0  0  0  0  0  0  0
   58.5130   31.1870   45.1170 C   0  0  0  0  0  0  0  0  0  0  0  0
   59.1550   30.8710   46.4200 C   0  0  0  0  0  0  0  0  0  0  0  0
   58.8290   31.6480   47.5470 C   0  0  0  0  0  0  0  0  0  0  0  0
   58.0558   32.4259   47.4636 H   0  0  0  0  0  0  0  0  0  0  0  0
   59.4760   31.4450   48.7760 C   0  0  0  0  0  0  0  0  0  0  0  0
   59.1940   32.3380   49.9250 C   0  0  0  0  0  0  0  0  0  0  0  0
   58.1120   32.2260   50.5600 O   0  0  0  0  0  0  0  0  0  0  0  0
   60.1630   33.3140   50.3310 N   0  0  0  0  0  0  0  0  0  0  0  0
   61.5060   33.4190   49.8370 C   0  0  0  0  0  0  0  0  0  0  0  0
   61.7770   33.6050   48.4680 C   0  0  0  0  0  0  0  0  0  0  0  0
   60.9463   33.7030   47.7537 H   0  0  0  0  0  0  0  0  0  0  0  0
   63.1050   33.6660   48.0100 C   0  0  0  0  0  0  0  0  0  0  0  0
   63.3960   33.7960   46.5420 C   0  0  0  0  0  0  0  0  0  0  0  0
   64.3924   34.2411   46.4037 H   0  0  0  0  0  0  0  0  0  0  0  0
   63.3707   32.8010   46.0737 H   0  0  0  0  0  0  0  0  0  0  0  0
   62.6380   34.4411   46.0737 H   0  0  0  0  0  0  0  0  0  0  0  0
   64.1580   33.5120   48.9240 C   0  0  0  0  0  0  0  0  0  0  0  0
   65.1992   33.5510   48.5713 H   0  0  0  0  0  0  0  0  0  0  0  0
   63.8900   33.3090   50.2820 C   0  0  0  0  0  0  0  0  0  0  0  0
   64.7203   33.1933   50.9942 H   0  0  0  0  0  0  0  0  0  0  0  0
   62.5700   33.2530   50.7350 C   0  0  0  0  0  0  0  0  0  0  0  0
   62.3250   33.0370   52.0540 F   0  0  0  0  0  0  0  0  0  0  0  0
   60.4150   30.4080   48.8880 C   0  0  0  0  0  0  0  0  0  0  0  0
   60.9167   30.2273   49.8501 H   0  0  0  0  0  0  0  0  0  0  0  0
   60.7170   29.6040   47.7870 C   0  0  0  0  0  0  0  0  0  0  0  0
   61.4391   28.7814   47.8965 H   0  0  0  0  0  0  0  0  0  0  0  0
   60.1100   29.8330   46.5420 C   0  0  0  0  0  0  0  0  0  0  0  0
   60.4950   28.9690   45.3690 C   0  0  0  0  0  0  0  0  0  0  0  0
   60.9173   28.0214   45.7346 H   0  0  0  0  0  0  0  0  0  0  0  0
   59.6040   28.7619   44.7581 H   0  0  0  0  0  0  0  0  0  0  0  0
   61.2448   29.4930   44.7581 H   0  0  0  0  0  0  0  0  0  0  0  0
   58.6970   32.4220   44.5770 N   0  0  0  0  0  0  0  0  0  0  0  0
   58.1340   32.7680   43.3920 C   0  0  0  0  0  0  0  0  0  0  0  0
   58.3001   33.7734   42.9777 H   0  0  0  0  0  0  0  0  0  0  0  0
   57.3660   31.8750   42.7170 N   0  0  0  0  0  0  0  0  0  0  0  0
   57.1370   30.6250   43.2040 C   0  0  0  0  0  0  0  0  0  0  0  0
   56.2870   29.6800   42.4070 C   0  0  0  0  0  0  0  0  0  0  0  0
   55.7108   29.0394   43.0909 H   0  0  0  0  0  0  0  0  0  0  0  0
   55.5957   30.2545   41.7729 H   0  0  0  0  0  0  0  0  0  0  0  0
   56.9312   29.0532   41.7729 H   0  0  0  0  0  0  0  0  0  0  0  0
   57.9670   26.0500   47.0190 C   0  0  0  0  0  0  0  0  0  0  0  0
   58.9398   26.5440   47.1589 H   0  0  0  0  0  0  0  0  0  0  0  0
   57.6840   24.8590   47.6890 C   0  0  0  0  0  0  0  0  0  0  0  0
   58.4316   24.4056   48.3564 H   0  0  0  0  0  0  0  0  0  0  0  0
  1  2  1  0
  2  3  2  0
  3  4  1  0
  4  5  1  0
  5  6  1  0
  5  7  2  0
  7  8  1  0
  8  9  3  0
  9 10  1  0
 10 11  1  0
 11 12  1  0
 12 13  2  0
 13 14  1  0
 13 15  1  0
 15 16  1  0
 16 17  2  0
 16 18  1  0
 18 19  1  0
 19 20  2  0
 20 21  1  0
 20 22  1  0
 22 23  1  0
 23 24  1  0
 23 25  1  0
 23 26  1  0
 22 27  2  0
 27 28  1  0
 27 29  1  0
 29 30  1  0
 29 31  2  0
 31 32  1  0
 15 33  2  0
 33 34  1  0
 33 35  1  0
 35 36  1  0
 35 37  2  0
 37 38  1  0
 38 39  1  0
 38 40  1  0
 38 41  1  0
 11 42  2  0
 42 43  1  0
 43 44  1  0
 43 45  2  0
 45 46  1  0
 46 47  1  0
 47 48  1  0
 47 49  1  0
 47 50  1  0
  7 51  1  0
 51 52  1  0
 51 53  2  0
 53 54  1  0
 53  3  1  0
 46 10  2  0
 37 12  1  0
 31 19  1  0
M  CHG  2   4  -1  18  -1
M  END
>  <UniqueID>  (63) 
57

>  <SMILES>  (63) 
[H]/N=c1/ccc(C#Cc2c(C)ncnc2-c2cc(C(=O)[N-]c3cc(C)ccc3F)ccc2C)c[n-]1

>  <Energy>  (63) 
65.85737137184188

>  <Genealogy>  (63) 
Cc1ccc(F)c([N-]C(=O)c2ccc(C)c(-c3ncnc(C)c3C#Cc3ccc(=N)[n-]c3)c2)c1 (protonated)
[H]/N=c1/ccc(C#Cc2c(C)ncnc2-c2cc(C(=O)[N-]c3cc(C)ccc3F)ccc2C)c[n-]1 (cis-trans isomerization)
[H]/N=c1/ccc(C#Cc2c(C)ncnc2-c2cc(C(=O)[N-]c3cc(C)ccc3F)ccc2C)c[n-]1 (3D coordinates assigned)
[H]/N=c1/ccc(C#Cc2c(C)ncnc2-c2cc(C(=O)[N-]c3cc(C)ccc3F)ccc2C)c[n-]1 (optimized conformer: 65.85737137184188 kcal/mol)

>  <smiles>  (63) 
Cc1ccc(F)c(NC(=O)c2ccc(C)c(-c3ncnc(C)c3C#Cc3ccc(=N)[nH]c3)c2)c1

>  <score_type>  (63) 
oracle

>  <origin>  (63) 
adg

>  <m_score__min__energy>  (63) 
-12.07

>  <m_primary>  (63) 
energy

$$$$
63:0
     RDKit          3D

 39 41  0  0  0  0  0  0  0  0999 V2000
   56.4470   28.9760   51.6270 H   0  0  0  0  0  0  0  0  0  0  0  0
   57.3670   29.3310   51.8650 O   0  0  0  0  0  0  0  0  0  0  0  0
   57.8880   30.4690   51.2550 C   0  0  0  0  0  0  0  0  0  0  0  0
   58.5230   30.3580   50.0140 C   0  0  0  0  0  0  0  0  0  0  0  0
   58.6071   29.3753   49.5269 H   0  0  0  0  0  0  0  0  0  0  0  0
   59.0510   31.4920   49.3910 C   0  0  0  0  0  0  0  0  0  0  0  0
   59.5325   31.4019   48.4061 H   0  0  0  0  0  0  0  0  0  0  0  0
   58.9690   32.7490   50.0190 C   0  0  0  0  0  0  0  0  0  0  0  0
   59.4740   33.9390   49.3910 N   0  0  0  0  0  0  0  0  0  0  0  0
   60.4680   34.0300   48.5490 C   0  0  0  0  0  0  0  0  0  0  0  0
   61.8620   33.6980   48.9300 C   0  0  0  0  0  0  0  0  0  0  0  0
   62.7520   33.1680   47.9820 C   0  0  0  0  0  0  0  0  0  0  0  0
   62.4127   32.9936   46.9503 H   0  0  0  0  0  0  0  0  0  0  0  0
   64.0670   32.8610   48.3430 C   0  0  0  0  0  0  0  0  0  0  0  0
   64.7575   32.4410   47.5968 H   0  0  0  0  0  0  0  0  0  0  0  0
   64.5060   33.0870   49.6510 C   0  0  0  0  0  0  0  0  0  0  0  0
   66.1570   32.6990   50.1030 Cl  0  0  0  0  0  0  0  0  0  0  0  0
   63.6290   33.6240   50.5980 C   0  0  0  0  0  0  0  0  0  0  0  0
   63.9747   33.8043   51.6266 H   0  0  0  0  0  0  0  0  0  0  0  0
   62.3140   33.9320   50.2400 C   0  0  0  0  0  0  0  0  0  0  0  0
   61.6292   34.3597   50.9871 H   0  0  0  0  0  0  0  0  0  0  0  0
   60.1900   34.5830   47.1770 C   0  0  0  0  0  0  0  0  0  0  0  0
   59.6877   35.5566   47.2764 H   0  0  0  0  0  0  0  0  0  0  0  0
   61.1456   34.6955   46.6438 H   0  0  0  0  0  0  0  0  0  0  0  0
   59.3070   33.6510   46.3890 C   0  0  0  0  0  0  0  0  0  0  0  0
   59.5850   32.2740   46.3520 C   0  0  0  0  0  0  0  0  0  0  0  0
   60.4441   31.8744   46.9108 H   0  0  0  0  0  0  0  0  0  0  0  0
   58.7760   31.4090   45.6090 C   0  0  0  0  0  0  0  0  0  0  0  0
   59.0009   30.3325   45.5835 H   0  0  0  0  0  0  0  0  0  0  0  0
   57.6810   31.9110   44.8980 C   0  0  0  0  0  0  0  0  0  0  0  0
   56.6670   30.8250   43.9640 Cl  0  0  0  0  0  0  0  0  0  0  0  0
   57.3950   33.2790   44.9320 C   0  0  0  0  0  0  0  0  0  0  0  0
   56.5337   33.6740   44.3733 H   0  0  0  0  0  0  0  0  0  0  0  0
   58.2020   34.1460   45.6750 C   0  0  0  0  0  0  0  0  0  0  0  0
   57.9709   35.2211   45.7009 H   0  0  0  0  0  0  0  0  0  0  0  0
   58.3040   32.8600   51.2450 C   0  0  0  0  0  0  0  0  0  0  0  0
   58.1966   33.8455   51.7216 H   0  0  0  0  0  0  0  0  0  0  0  0
   57.7750   31.7250   51.8680 C   0  0  0  0  0  0  0  0  0  0  0  0
   57.2695   31.8178   52.8405 H   0  0  0  0  0  0  0  0  0  0  0  0
  1  2  1  0
  2  3  1  0
  3  4  2  0
  4  5  1  0
  4  6  1  0
  6  7  1  0
  6  8  2  0
  8  9  1  0
  9 10  2  0
 10 11  1  0
 11 12  2  0
 12 13  1  0
 12 14  1  0
 14 15  1  0
 14 16  2  0
 16 17  1  0
 16 18  1  0
 18 19  1  0
 18 20  2  0
 20 21  1  0
 10 22  1  0
 22 23  1  0
 22 24  1  0
 22 25  1  0
 25 26  2  0
 26 27  1  0
 26 28  1  0
 28 29  1  0
 28 30  2  0
 30 31  1  0
 30 32  1  0
 32 33  1  0
 32 34  2  0
 34 35  1  0
  8 36  1  0
 36 37  1  0
 36 38  2  0
 38 39  1  0
 38  3  1  0
 20 11  1  0
 34 25  1  0
M  END
>  <UniqueID>  (64) 
58

>  <SMILES>  (64) 
Oc1ccc(/N=C(/Cc2ccc(Cl)cc2)c2ccc(Cl)cc2)cc1

>  <Energy>  (64) 
51.09527813778021

>  <Genealogy>  (64) 
Oc1ccc(/N=C(/Cc2ccc(Cl)cc2)c2ccc(Cl)cc2)cc1 (cis-trans isomerization)
Oc1ccc(/N=C(/Cc2ccc(Cl)cc2)c2ccc(Cl)cc2)cc1 (3D coordinates assigned)
Oc1ccc(/N=C(/Cc2ccc(Cl)cc2)c2ccc(Cl)cc2)cc1 (optimized conformer: 51.09527813778021 kcal/mol)

>  <smiles>  (64) 
Oc1ccc(N=C(Cc2ccc(Cl)cc2)c2ccc(Cl)cc2)cc1

>  <score_type>  (64) 
oracle

>  <origin>  (64) 
adg

>  <m_score__min__energy>  (64) 
-8.0500000000000007

>  <m_primary>  (64) 
energy

$$$$
64:0
     RDKit          3D

 39 42  0  0  0  0  0  0  0  0999 V2000
   60.4680   28.9750   49.8210 C   0  0  0  0  0  0  0  0  0  0  0  0
   60.7110   30.2200   49.0200 C   0  0  0  0  0  0  0  0  0  0  0  0
   61.9670   30.8320   49.0290 C   0  0  0  0  0  0  0  0  0  0  0  0
   62.1890   31.9690   48.2510 C   0  0  0  0  0  0  0  0  0  0  0  0
   61.1920   32.4890   47.4670 N   0  0  0  0  0  0  0  0  0  0  0  0
   61.4070   33.6080   46.7020 C   0  0  0  0  0  0  0  0  0  0  0  0
   62.5260   34.1910   46.7040 O   0  0  0  0  0  0  0  0  0  0  0  0
   60.4110   34.1050   45.9300 N   0  0  0  0  0  0  0  0  0  0  0  0
   59.1970   33.5100   45.9000 C   0  0  0  0  0  0  0  0  0  0  0  0
   57.9000   34.1930   44.8710 S   0  0  0  0  0  0  0  0  0  0  0  0
   58.1120   32.9360   43.5710 C   0  0  0  0  0  0  0  0  0  0  0  0
   57.8500   31.5780   44.1420 C   0  0  0  0  0  0  0  0  0  0  0  0
   56.5480   31.0640   44.1960 C   0  0  0  0  0  0  0  0  0  0  0  0
   56.3290   29.7790   44.7010 C   0  0  0  0  0  0  0  0  0  0  0  0
   55.1530   29.3260   44.7510 O   0  0  0  0  0  0  0  0  0  0  0  0
   57.4200   29.0080   45.1420 C   0  0  0  0  0  0  0  0  0  0  0  0
   57.2560   27.7080   45.6570 C   0  0  0  0  0  0  0  0  0  0  0  0
   58.3700   26.9760   46.0800 C   0  0  0  0  0  0  0  0  0  0  0  0
   59.6510   27.5280   45.9930 C   0  0  0  0  0  0  0  0  0  0  0  0
   59.8270   28.8170   45.4820 C   0  0  0  0  0  0  0  0  0  0  0  0
   58.7200   29.5600   45.0570 C   0  0  0  0  0  0  0  0  0  0  0  0
   58.8950   30.8140   44.5600 N   0  0  0  0  0  0  0  0  0  0  0  0
   58.9680   32.4000   46.6460 N   0  0  0  0  0  0  0  0  0  0  0  0
   59.9540   31.8870   47.4310 C   0  0  0  0  0  0  0  0  0  0  0  0
   59.7040   30.7420   48.2030 C   0  0  0  0  0  0  0  0  0  0  0  0
   60.5147   29.2142   50.8937 H   0  0  0  0  0  0  0  0  0  0  0  0
   59.4741   28.5710   49.5783 H   0  0  0  0  0  0  0  0  0  0  0  0
   61.2371   28.2269   49.5783 H   0  0  0  0  0  0  0  0  0  0  0  0
   62.7779   30.4191   49.6471 H   0  0  0  0  0  0  0  0  0  0  0  0
   63.1762   32.4540   48.2671 H   0  0  0  0  0  0  0  0  0  0  0  0
   57.4040   33.1323   42.7524 H   0  0  0  0  0  0  0  0  0  0  0  0
   59.1409   32.9786   43.1844 H   0  0  0  0  0  0  0  0  0  0  0  0
   55.7006   31.6696   43.8422 H   0  0  0  0  0  0  0  0  0  0  0  0
   56.2505   27.2675   45.7267 H   0  0  0  0  0  0  0  0  0  0  0  0
   58.2374   25.9611   46.4830 H   0  0  0  0  0  0  0  0  0  0  0  0
   60.5228   26.9466   46.3275 H   0  0  0  0  0  0  0  0  0  0  0  0
   60.8368   29.2478   45.4139 H   0  0  0  0  0  0  0  0  0  0  0  0
   58.0240   31.9500   46.6130 H   0  0  0  0  0  0  0  0  0  0  0  0
   58.7177   30.2563   48.1653 H   0  0  0  0  0  0  0  0  0  0  0  0
  1  2  1  0
  2  3  1  0
  3  4  2  0
  4  5  1  0
  5  6  1  0
  6  7  2  0
  6  8  1  0
  8  9  2  0
  9 10  1  0
 10 11  1  0
 11 12  1  0
 12 13  2  0
 13 14  1  0
 14 15  2  0
 14 16  1  0
 16 17  2  0
 17 18  1  0
 18 19  2  0
 19 20  1  0
 20 21  2  0
 21 22  1  0
  9 23  1  0
 23 24  2  0
 24 25  1  0
 25  2  2  0
 24  5  1  0
 22 12  1  0
 21 16  1  0
  1 26  1  0
  1 27  1  0
  1 28  1  0
  3 29  1  0
  4 30  1  0
 11 31  1  0
 11 32  1  0
 13 33  1  0
 17 34  1  0
 18 35  1  0
 19 36  1  0
 20 37  1  0
 23 38  1  0
 25 39  1  0
M  CHG  2  22  -1  23   1
M  END
>  <UniqueID>  (65) 
59

>  <SMILES>  (65) 
Cc1ccn2c(=O)nc(SCc3cc(=O)c4ccccc4[n-]3)[nH+]c2c1

>  <Energy>  (65) 
47.65271532063132

>  <Genealogy>  (65) 
Cc1ccn2c(=O)nc(SCc3cc(=O)c4ccccc4[n-]3)[nH+]c2c1 (protonated)
Cc1ccn2c(=O)nc(SCc3cc(=O)c4ccccc4[n-]3)[nH+]c2c1 (3D coordinates assigned)
Cc1ccn2c(=O)nc(SCc3cc(=O)c4ccccc4[n-]3)[nH+]c2c1 (optimized conformer: 47.65271532063132 kcal/mol)

>  <smiles>  (65) 
Cc1ccn2c(=O)nc(SCc3cc(=O)c4ccccc4[nH]3)nc2c1

>  <score_type>  (65) 
oracle

>  <origin>  (65) 
adg

>  <m_score__min__energy>  (65) 
-8.7100000000000009

>  <m_primary>  (65) 
energy

$$$$
65:0
     RDKit          3D

 57 61  0  0  0  0  0  0  0  0999 V2000
   57.6030   32.3460   41.3200 C   0  0  0  0  0  0  0  0  0  0  0  0
   58.5000   32.1430   42.4070 O   0  0  0  0  0  0  0  0  0  0  0  0
   58.3000   32.6330   43.7080 C   0  0  0  0  0  0  0  0  0  0  0  0
   58.8380   33.8670   44.1260 C   0  0  0  0  0  0  0  0  0  0  0  0
   58.6450   34.3150   45.4340 C   0  0  0  0  0  0  0  0  0  0  0  0
   57.9190   33.5400   46.3410 C   0  0  0  0  0  0  0  0  0  0  0  0
   57.3780   32.3170   45.9390 C   0  0  0  0  0  0  0  0  0  0  0  0
   57.5540   31.8610   44.6240 C   0  0  0  0  0  0  0  0  0  0  0  0
   56.9310   30.2700   44.1590 S   0  0  0  0  0  0  0  0  0  0  0  0
   56.1980   30.3770   42.8500 O   0  0  0  0  0  0  0  0  0  0  0  0
   55.9750   29.7720   45.2120 O   0  0  0  0  0  0  0  0  0  0  0  0
   58.2370   29.1440   44.0000 N   0  0  0  0  0  0  0  0  0  0  0  0
   58.5750   28.2650   45.0730 C   0  0  0  0  0  0  0  0  0  0  0  0
   58.2490   26.8970   45.0170 C   0  0  0  0  0  0  0  0  0  0  0  0
   58.4520   26.0550   46.1430 C   0  0  0  0  0  0  0  0  0  0  0  0
   58.0450   24.6300   46.1060 C   0  0  0  0  0  0  0  0  0  0  0  0
   58.5560   23.6340   45.2690 C   0  0  0  0  0  0  0  0  0  0  0  0
   57.9540   22.3830   45.4560 C   0  0  0  0  0  0  0  0  0  0  0  0
   56.9680   22.3760   46.4320 C   0  0  0  0  0  0  0  0  0  0  0  0
   56.8430   23.9280   47.0600 S   0  0  0  0  0  0  0  0  0  0  0  0
   59.0140   26.6000   47.3220 C   0  0  0  0  0  0  0  0  0  0  0  0
   59.3320   27.9590   47.3410 C   0  0  0  0  0  0  0  0  0  0  0  0
   59.7890   28.7740   48.3620 C   0  0  0  0  0  0  0  0  0  0  0  0
   60.1680   28.3660   49.7540 C   0  0  0  0  0  0  0  0  0  0  0  0
   59.8500   30.0580   47.8130 C   0  0  0  0  0  0  0  0  0  0  0  0
   60.1820   31.3250   48.5470 C   0  0  0  0  0  0  0  0  0  0  0  0
   61.3480   32.0160   47.8880 C   0  0  0  0  0  0  0  0  0  0  0  0
   61.1290   33.1230   47.0480 C   0  0  0  0  0  0  0  0  0  0  0  0
   62.2130   33.8010   46.4790 C   0  0  0  0  0  0  0  0  0  0  0  0
   63.5190   33.3790   46.7420 C   0  0  0  0  0  0  0  0  0  0  0  0
   63.7450   32.2770   47.5720 C   0  0  0  0  0  0  0  0  0  0  0  0
   62.6650   31.5960   48.1440 C   0  0  0  0  0  0  0  0  0  0  0  0
   59.4340   30.0420   46.5250 N   0  0  0  0  0  0  0  0  0  0  0  0
   59.1260   28.7620   46.2500 C   0  0  0  0  0  0  0  0  0  0  0  0
   56.5998   32.5730   41.7099 H   0  0  0  0  0  0  0  0  0  0  0  0
   57.9564   33.1869   40.7051 H   0  0  0  0  0  0  0  0  0  0  0  0
   57.5599   31.4349   40.7051 H   0  0  0  0  0  0  0  0  0  0  0  0
   59.4134   34.4807   43.4173 H   0  0  0  0  0  0  0  0  0  0  0  0
   59.0657   35.2807   45.7510 H   0  0  0  0  0  0  0  0  0  0  0  0
   57.7733   33.8931   47.3725 H   0  0  0  0  0  0  0  0  0  0  0  0
   56.8105   31.7075   46.6577 H   0  0  0  0  0  0  0  0  0  0  0  0
   57.8322   26.4749   44.0906 H   0  0  0  0  0  0  0  0  0  0  0  0
   59.3542   23.8151   44.5341 H   0  0  0  0  0  0  0  0  0  0  0  0
   58.2370   21.4885   44.8818 H   0  0  0  0  0  0  0  0  0  0  0  0
   56.3716   21.5048   46.7408 H   0  0  0  0  0  0  0  0  0  0  0  0
   59.1960   25.9672   48.2031 H   0  0  0  0  0  0  0  0  0  0  0  0
   59.6054   28.9717   50.4796 H   0  0  0  0  0  0  0  0  0  0  0  0
   59.9303   27.3022   49.9018 H   0  0  0  0  0  0  0  0  0  0  0  0
   61.2464   28.5247   49.9018 H   0  0  0  0  0  0  0  0  0  0  0  0
   59.3082   31.9930   48.5330 H   0  0  0  0  0  0  0  0  0  0  0  0
   60.4495   31.0796   49.5854 H   0  0  0  0  0  0  0  0  0  0  0  0
   60.1022   33.4568   46.8377 H   0  0  0  0  0  0  0  0  0  0  0  0
   62.0368   34.6670   45.8240 H   0  0  0  0  0  0  0  0  0  0  0  0
   64.3699   33.9144   46.2956 H   0  0  0  0  0  0  0  0  0  0  0  0
   64.7737   31.9448   47.7757 H   0  0  0  0  0  0  0  0  0  0  0  0
   62.8469   30.7291   48.7962 H   0  0  0  0  0  0  0  0  0  0  0  0
   59.3360   30.8620   45.8870 H   0  0  0  0  0  0  0  0  0  0  0  0
  1  2  1  0
  2  3  1  0
  3  4  2  0
  4  5  1  0
  5  6  2  0
  6  7  1  0
  7  8  2  0
  8  9  1  0
  9 10  2  0
  9 11  2  0
  9 12  1  0
 12 13  1  0
 13 14  2  0
 14 15  1  0
 15 16  1  0
 16 17  2  0
 17 18  1  0
 18 19  2  0
 19 20  1  0
 15 21  2  0
 21 22  1  0
 22 23  1  0
 23 24  1  0
 23 25  2  0
 25 26  1  0
 26 27  1  0
 27 28  2  0
 28 29  1  0
 29 30  2  0
 30 31  1  0
 31 32  2  0
 25 33  1  0
 33 34  1  0
  8  3  1  0
 34 13  1  0
 20 16  1  0
 34 22  2  0
 32 27  1  0
  1 35  1  0
  1 36  1  0
  1 37  1  0
  4 38  1  0
  5 39  1  0
  6 40  1  0
  7 41  1  0
 14 42  1  0
 17 43  1  0
 18 44  1  0
 19 45  1  0
 21 46  1  0
 24 47  1  0
 24 48  1  0
 24 49  1  0
 26 50  1  0
 26 51  1  0
 28 52  1  0
 29 53  1  0
 30 54  1  0
 31 55  1  0
 32 56  1  0
 33 57  1  0
M  CHG  1  12  -1
M  END
>  <UniqueID>  (66) 
60

>  <SMILES>  (66) 
COc1ccccc1S(=O)(=O)[N-]c1cc(-c2cccs2)cc2c(C)c(Cc3ccccc3)[nH]c12

>  <Energy>  (66) 
125.27122196081453

>  <Genealogy>  (66) 
COc1ccccc1S(=O)(=O)[N-]c1cc(-c2cccs2)cc2c(C)c(Cc3ccccc3)[nH]c12 (protonated)
COc1ccccc1S(=O)(=O)[N-]c1cc(-c2cccs2)cc2c(C)c(Cc3ccccc3)[nH]c12 (3D coordinates assigned)
COc1ccccc1S(=O)(=O)[N-]c1cc(-c2cccs2)cc2c(C)c(Cc3ccccc3)[nH]c12 (optimized conformer: 125.27122196081453 kcal/mol)

>  <smiles>  (66) 
COc1ccccc1S(=O)(=O)Nc1cc(-c2cccs2)cc2c(C)c(Cc3ccccc3)[nH]c12

>  <score_type>  (66) 
oracle

>  <origin>  (66) 
adg

>  <m_score__min__energy>  (66) 
-10.949999999999999

>  <m_primary>  (66) 
energy

$$$$
66:0
     RDKit          3D

 32 34  0  0  0  0  0  0  0  0999 V2000
   57.3980   31.2400   45.8290 F   0  0  0  0  0  0  0  0  0  0  0  0
   57.9940   32.4570   45.9130 C   0  0  0  0  0  0  0  0  0  0  0  0
   57.8490   33.3570   44.8560 C   0  0  0  0  0  0  0  0  0  0  0  0
   58.4820   34.6010   44.9010 C   0  0  0  0  0  0  0  0  0  0  0  0
   59.2680   34.9450   46.0030 C   0  0  0  0  0  0  0  0  0  0  0  0
   59.4200   34.0520   47.0700 C   0  0  0  0  0  0  0  0  0  0  0  0
   60.3870   34.5560   48.4520 Cl  0  0  0  0  0  0  0  0  0  0  0  0
   58.7740   32.7970   47.0340 C   0  0  0  0  0  0  0  0  0  0  0  0
   58.9000   31.8510   48.1610 C   0  0  0  0  0  0  0  0  0  0  0  0
   58.3390   32.0470   49.3690 N   0  0  0  0  0  0  0  0  0  0  0  0
   58.6940   30.9440   50.0630 C   0  0  0  0  0  0  0  0  0  0  0  0
   59.4150   30.1070   49.3510 O   0  0  0  0  0  0  0  0  0  0  0  0
   59.5560   30.6350   48.1610 C   0  0  0  0  0  0  0  0  0  0  0  0
   60.3040   29.9910   47.0360 C   0  0  0  0  0  0  0  0  0  0  0  0
   61.4640   30.7580   46.7310 O   0  0  0  0  0  0  0  0  0  0  0  0
   62.2840   31.3680   47.6890 C   0  0  0  0  0  0  0  0  0  0  0  0
   63.1740   32.3610   47.2670 C   0  0  0  0  0  0  0  0  0  0  0  0
   63.9980   32.9900   48.2000 C   0  0  0  0  0  0  0  0  0  0  0  0
   63.9290   32.6240   49.5440 C   0  0  0  0  0  0  0  0  0  0  0  0
   65.0490   33.4750   50.8360 Br  0  0  0  0  0  0  0  0  0  0  0  0
   63.0310   31.6270   49.9350 C   0  0  0  0  0  0  0  0  0  0  0  0
   62.2330   31.0230   49.0110 N   0  0  0  0  0  0  0  0  0  0  0  0
   57.2344   33.0856   43.9850 H   0  0  0  0  0  0  0  0  0  0  0  0
   58.3615   35.3099   44.0686 H   0  0  0  0  0  0  0  0  0  0  0  0
   59.7704   35.9231   46.0326 H   0  0  0  0  0  0  0  0  0  0  0  0
   58.4104   30.7655   51.1107 H   0  0  0  0  0  0  0  0  0  0  0  0
   60.6045   28.9748   47.3309 H   0  0  0  0  0  0  0  0  0  0  0  0
   59.6560   29.9412   46.1485 H   0  0  0  0  0  0  0  0  0  0  0  0
   63.2238   32.6443   46.2053 H   0  0  0  0  0  0  0  0  0  0  0  0
   64.7003   33.7725   47.8768 H   0  0  0  0  0  0  0  0  0  0  0  0
   62.9685   31.3292   50.9921 H   0  0  0  0  0  0  0  0  0  0  0  0
   61.5790   30.2800   49.3440 H   0  0  0  0  0  0  0  0  0  0  0  0
  1  2  1  0
  2  3  2  0
  3  4  1  0
  4  5  2  0
  5  6  1  0
  6  7  1  0
  6  8  2  0
  8  9  1  0
  9 10  1  0
 10 11  2  0
 11 12  1  0
 12 13  1  0
 13 14  1  0
 14 15  1  0
 15 16  1  0
 16 17  2  0
 17 18  1  0
 18 19  2  0
 19 20  1  0
 19 21  1  0
 21 22  2  0
  8  2  1  0
 13  9  2  0
 22 16  1  0
  3 23  1  0
  4 24  1  0
  5 25  1  0
 11 26  1  0
 14 27  1  0
 14 28  1  0
 17 29  1  0
 18 30  1  0
 21 31  1  0
 22 32  1  0
M  CHG  1  22   1
M  END
>  <UniqueID>  (67) 
61

>  <SMILES>  (67) 
Fc1cccc(Cl)c1-c1ncoc1COc1ccc(Br)c[nH+]1

>  <Energy>  (67) 
69.42684599789058

>  <Genealogy>  (67) 
Fc1cccc(Cl)c1-c1ncoc1COc1ccc(Br)c[nH+]1 (protonated)
Fc1cccc(Cl)c1-c1ncoc1COc1ccc(Br)c[nH+]1 (3D coordinates assigned)
Fc1cccc(Cl)c1-c1ncoc1COc1ccc(Br)c[nH+]1 (optimized conformer: 69.42684599789058 kcal/mol)

>  <smiles>  (67) 
Fc1cccc(Cl)c1-c1ncoc1COc1ccc(Br)cn1

>  <score_type>  (67) 
oracle

>  <origin>  (67) 
adg

>  <m_score__min__energy>  (67) 
-5.4199999999999999

>  <m_primary>  (67) 
energy

$$$$
67:0
     RDKit          3D

 45 47  0  0  0  0  0  0  0  0999 V2000
   61.3030   33.8490   46.6590 C   0  0  0  0  0  0  0  0  0  0  0  0
   60.3280   33.3890   47.7120 C   0  0  0  0  0  0  0  0  0  0  0  0
   60.6750   33.5430   49.0660 C   0  0  0  0  0  0  0  0  0  0  0  0
   59.8120   33.1160   50.0760 C   0  0  0  0  0  0  0  0  0  0  0  0
   58.5870   32.5360   49.7480 C   0  0  0  0  0  0  0  0  0  0  0  0
   58.2170   32.3890   48.4100 C   0  0  0  0  0  0  0  0  0  0  0  0
   59.0720   32.8160   47.3770 C   0  0  0  0  0  0  0  0  0  0  0  0
   58.6200   32.6700   45.9700 C   0  0  0  0  0  0  0  0  0  0  0  0
   57.8890   31.5820   45.6060 N   0  0  0  0  0  0  0  0  0  0  0  0
   57.4630   31.4050   44.3280 C   0  0  0  0  0  0  0  0  0  0  0  0
   56.5960   30.2290   43.9990 C   0  0  0  0  0  0  0  0  0  0  0  0
   56.2580   29.5130   45.2350 N   0  0  0  0  0  0  0  0  0  0  0  0
   56.8720   28.1760   45.2980 C   0  0  0  0  0  0  0  0  0  0  0  0
   58.3840   28.1690   44.9930 C   0  0  0  0  0  0  0  0  0  0  0  0
   59.1960   28.7970   46.0970 C   0  0  0  0  0  0  0  0  0  0  0  0
   60.3260   29.5740   45.7890 C   0  0  0  0  0  0  0  0  0  0  0  0
   61.0970   30.1320   46.8140 C   0  0  0  0  0  0  0  0  0  0  0  0
   60.7500   29.9170   48.1500 C   0  0  0  0  0  0  0  0  0  0  0  0
   59.6290   29.1430   48.4640 C   0  0  0  0  0  0  0  0  0  0  0  0
   58.8540   28.5840   47.4440 C   0  0  0  0  0  0  0  0  0  0  0  0
   57.7690   32.3690   43.3630 C   0  0  0  0  0  0  0  0  0  0  0  0
   58.5270   33.4740   43.7440 C   0  0  0  0  0  0  0  0  0  0  0  0
   58.9410   33.6080   45.0320 N   0  0  0  0  0  0  0  0  0  0  0  0
   62.1956   34.2701   47.1447 H   0  0  0  0  0  0  0  0  0  0  0  0
   61.5958   32.9940   46.0318 H   0  0  0  0  0  0  0  0  0  0  0  0
   60.8293   34.6186   46.0318 H   0  0  0  0  0  0  0  0  0  0  0  0
   61.6372   34.0051   49.3319 H   0  0  0  0  0  0  0  0  0  0  0  0
   60.0981   33.2370   51.1312 H   0  0  0  0  0  0  0  0  0  0  0  0
   57.9109   32.1936   50.5452 H   0  0  0  0  0  0  0  0  0  0  0  0
   57.2468   31.9346   48.1605 H   0  0  0  0  0  0  0  0  0  0  0  0
   55.6731   30.5778   43.5126 H   0  0  0  0  0  0  0  0  0  0  0  0
   57.1349   29.5536   43.3182 H   0  0  0  0  0  0  0  0  0  0  0  0
   56.5500   30.0820   46.0630 H   0  0  0  0  0  0  0  0  0  0  0  0
   56.7207   27.7725   46.3101 H   0  0  0  0  0  0  0  0  0  0  0  0
   56.3866   27.5643   44.5233 H   0  0  0  0  0  0  0  0  0  0  0  0
   58.7129   27.1276   44.8611 H   0  0  0  0  0  0  0  0  0  0  0  0
   58.5447   28.7612   44.0801 H   0  0  0  0  0  0  0  0  0  0  0  0
   60.6049   29.7438   44.7386 H   0  0  0  0  0  0  0  0  0  0  0  0
   61.9788   30.7417   46.5675 H   0  0  0  0  0  0  0  0  0  0  0  0
   61.3583   30.3564   48.9543 H   0  0  0  0  0  0  0  0  0  0  0  0
   59.3563   28.9735   49.5161 H   0  0  0  0  0  0  0  0  0  0  0  0
   57.9732   27.9751   47.6960 H   0  0  0  0  0  0  0  0  0  0  0  0
   57.4191   32.2576   42.3261 H   0  0  0  0  0  0  0  0  0  0  0  0
   58.7913   34.2404   43.0005 H   0  0  0  0  0  0  0  0  0  0  0  0
   59.4880   34.4580   45.2950 H   0  0  0  0  0  0  0  0  0  0  0  0
  1  2  1  0
  2  3  2  0
  3  4  1  0
  4  5  2  0
  5  6  1  0
  6  7  2  0
  7  8  1  0
  8  9  2  0
  9 10  1  0
 10 11  1  0
 11 12  1  0
 12 13  1  0
 13 14  1  0
 14 15  1  0
 15 16  2  0
 16 17  1  0
 17 18  2  0
 18 19  1  0
 19 20  2  0
 10 21  2  0
 21 22  1  0
 22 23  2  0
  7  2  1  0
 23  8  1  0
 20 15  1  0
  1 24  1  0
  1 25  1  0
  1 26  1  0
  3 27  1  0
  4 28  1  0
  5 29  1  0
  6 30  1  0
 11 31  1  0
 11 32  1  0
 12 33  1  0
 13 34  1  0
 13 35  1  0
 14 36  1  0
 14 37  1  0
 16 38  1  0
 17 39  1  0
 18 40  1  0
 19 41  1  0
 20 42  1  0
 21 43  1  0
 22 44  1  0
 23 45  1  0
M  CHG  1  23   1
M  END
>  <UniqueID>  (68) 
62

>  <SMILES>  (68) 
Cc1ccccc1-c1nc(CNCCc2ccccc2)cc[nH+]1

>  <Energy>  (68) 
49.26688723772787

>  <Genealogy>  (68) 
Cc1ccccc1-c1nc(CNCCc2ccccc2)cc[nH+]1 (protonated)
Cc1ccccc1-c1nc(CNCCc2ccccc2)cc[nH+]1 (3D coordinates assigned)
Cc1ccccc1-c1nc(CNCCc2ccccc2)cc[nH+]1 (optimized conformer: 49.26688723772787 kcal/mol)

>  <smiles>  (68) 
Cc1ccccc1-c1nccc(CNCCc2ccccc2)n1

>  <score_type>  (68) 
oracle

>  <origin>  (68) 
adg

>  <m_score__min__energy>  (68) 
-6.7800000000000002

>  <m_primary>  (68) 
energy

$$$$
68:0
     RDKit          3D

 51 55  0  0  0  0  0  0  0  0999 V2000
   56.8800   26.7940   45.8530 C   0  0  0  0  0  0  0  0  0  0  0  0
   56.0800   27.9020   45.4570 O   0  0  0  0  0  0  0  0  0  0  0  0
   56.5850   29.0800   44.8850 C   0  0  0  0  0  0  0  0  0  0  0  0
   56.2980   29.3420   43.5400 C   0  0  0  0  0  0  0  0  0  0  0  0
   56.7760   30.4990   42.9200 C   0  0  0  0  0  0  0  0  0  0  0  0
   57.5540   31.4170   43.6450 C   0  0  0  0  0  0  0  0  0  0  0  0
   58.0580   32.5940   43.0690 C   0  0  0  0  0  0  0  0  0  0  0  0
   57.8290   32.8780   41.8620 O   0  0  0  0  0  0  0  0  0  0  0  0
   58.8250   33.4630   43.8470 C   0  0  0  0  0  0  0  0  0  0  0  0
   59.0750   33.1420   45.1890 C   0  0  0  0  0  0  0  0  0  0  0  0
   59.9000   34.0580   46.0590 C   0  0  1  0  0  0  0  0  0  0  0  0
   59.2400   34.3240   47.4150 C   0  0  0  0  0  0  0  0  0  0  0  0
   60.3950   34.5060   48.3900 C   0  0  0  0  0  0  0  0  0  0  0  0
   61.5430   33.8740   47.7610 N   0  0  0  0  0  0  0  0  0  0  0  0
   62.8560   33.8920   48.3490 C   0  0  0  0  0  0  0  0  0  0  0  0
   63.8040   34.4520   47.7340 O   0  0  0  0  0  0  0  0  0  0  0  0
   63.1290   33.2560   49.6540 C   0  0  0  0  0  0  0  0  0  0  0  0
   62.3930   33.6060   50.7940 C   0  0  0  0  0  0  0  0  0  0  0  0
   62.6660   33.0230   51.9910 N   0  0  0  0  0  0  0  0  0  0  0  0
   63.6580   32.1030   52.1290 C   0  0  0  0  0  0  0  0  0  0  0  0
   64.4420   31.7290   51.0240 C   0  0  0  0  0  0  0  0  0  0  0  0
   65.4990   30.7580   51.1620 N   0  0  0  0  0  0  0  0  0  0  0  0
   65.4190   29.4960   51.6280 C   0  0  0  0  0  0  0  0  0  0  0  0
   66.6230   28.8930   51.6080 N   0  0  0  0  0  0  0  0  0  0  0  0
   67.4890   29.7690   51.1230 N   0  0  0  0  0  0  0  0  0  0  0  0
   66.8050   30.8980   50.8570 C   0  0  0  0  0  0  0  0  0  0  0  0
   64.1680   32.3240   49.7830 C   0  0  0  0  0  0  0  0  0  0  0  0
   61.2750   33.4730   46.3870 C   0  0  0  0  0  0  0  0  0  0  0  0
   58.5810   32.0170   45.7060 O   0  0  0  0  0  0  0  0  0  0  0  0
   57.8460   31.1600   45.0030 C   0  0  0  0  0  0  0  0  0  0  0  0
   57.3640   29.9990   45.6160 C   0  0  0  0  0  0  0  0  0  0  0  0
   56.9172   26.7425   46.9512 H   0  0  0  0  0  0  0  0  0  0  0  0
   56.4425   25.8657   45.4570 H   0  0  0  0  0  0  0  0  0  0  0  0
   57.8988   26.9172   45.4570 H   0  0  0  0  0  0  0  0  0  0  0  0
   55.6892   28.6288   42.9649 H   0  0  0  0  0  0  0  0  0  0  0  0
   56.5428   30.6916   41.8624 H   0  0  0  0  0  0  0  0  0  0  0  0
   59.2288   34.3892   43.4122 H   0  0  0  0  0  0  0  0  0  0  0  0
   59.9894   34.9808   45.4670 H   0  0  0  0  0  0  0  0  0  0  0  0
   58.6236   35.2341   47.3725 H   0  0  0  0  0  0  0  0  0  0  0  0
   58.5722   33.5034   47.7161 H   0  0  0  0  0  0  0  0  0  0  0  0
   60.5901   35.5754   48.5583 H   0  0  0  0  0  0  0  0  0  0  0  0
   60.1727   34.0606   49.3709 H   0  0  0  0  0  0  0  0  0  0  0  0
   61.5912   34.3555   50.7198 H   0  0  0  0  0  0  0  0  0  0  0  0
   62.1040   33.2940   52.8290 H   0  0  0  0  0  0  0  0  0  0  0  0
   63.8482   31.6483   53.1124 H   0  0  0  0  0  0  0  0  0  0  0  0
   64.4913   29.0205   51.9789 H   0  0  0  0  0  0  0  0  0  0  0  0
   67.2529   31.8143   50.4449 H   0  0  0  0  0  0  0  0  0  0  0  0
   64.7735   32.0569   48.9043 H   0  0  0  0  0  0  0  0  0  0  0  0
   62.0395   33.8817   45.7099 H   0  0  0  0  0  0  0  0  0  0  0  0
   61.2960   32.3798   46.2664 H   0  0  0  0  0  0  0  0  0  0  0  0
   57.5940   29.8023   46.6736 H   0  0  0  0  0  0  0  0  0  0  0  0
  1  2  1  0
  2  3  1  0
  3  4  2  0
  4  5  1  0
  5  6  2  0
  6  7  1  0
  7  8  2  0
  7  9  1  0
  9 10  2  0
 10 11  1  0
 11 12  1  0
 12 13  1  0
 13 14  1  0
 14 15  1  0
 15 16  2  0
 15 17  1  0
 17 18  2  0
 18 19  1  0
 19 20  2  0
 20 21  1  0
 21 22  1  0
 22 23  1  0
 23 24  2  0
 24 25  1  0
 25 26  2  0
 21 27  2  0
 14 28  1  0
 10 29  1  0
 29 30  1  0
 30 31  2  0
 31  3  1  0
 30  6  1  0
 28 11  1  0
 27 17  1  0
 26 22  1  0
  1 32  1  0
  1 33  1  0
  1 34  1  0
  4 35  1  0
  5 36  1  0
  9 37  1  0
 11 38  1  6
 12 39  1  0
 12 40  1  0
 13 41  1  0
 13 42  1  0
 18 43  1  0
 19 44  1  0
 20 45  1  0
 23 46  1  0
 26 47  1  0
 27 48  1  0
 28 49  1  0
 28 50  1  0
 31 51  1  0
M  CHG  1  19   1
M  END
>  <UniqueID>  (69) 
63

>  <SMILES>  (69) 
COc1ccc2c(=O)cc([C@H]3CCN(C(=O)c4c[nH+]cc(-n5cnnc5)c4)C3)oc2c1

>  <Energy>  (69) 
103.38541064228501

>  <Genealogy>  (69) 
COc1ccc2c(=O)cc(C3CCN(C(=O)c4c[nH+]cc(-n5cnnc5)c4)C3)oc2c1 (protonated)
COc1ccc2c(=O)cc([C@H]3CCN(C(=O)c4c[nH+]cc(-n5cnnc5)c4)C3)oc2c1 (chirality)
COc1ccc2c(=O)cc([C@H]3CCN(C(=O)c4c[nH+]cc(-n5cnnc5)c4)C3)oc2c1 (3D coordinates assigned)
COc1ccc2c(=O)cc([C@H]3CCN(C(=O)c4c[nH+]cc(-n5cnnc5)c4)C3)oc2c1 (nonaromatic ring conformer: 103.38541064228501 kcal/mol)

>  <smiles>  (69) 
COc1ccc2c(=O)cc(C3CCN(C(=O)c4cncc(-n5cnnc5)c4)C3)oc2c1

>  <score_type>  (69) 
oracle

>  <origin>  (69) 
adg

>  <m_score__min__energy>  (69) 
-7.4299999999999997

>  <m_primary>  (69) 
energy

$$$$
69:0
     RDKit          3D

 57 61  0  0  0  0  0  0  0  0999 V2000
   55.9790   28.8710   45.2620 O   0  0  0  0  0  0  0  0  0  0  0  0
   56.3890   27.6800   45.2490 C   0  0  0  0  0  0  0  0  0  0  0  0
   57.6280   27.3460   44.4660 C   0  0  0  0  0  0  0  0  0  0  0  0
   59.0920   27.2720   45.5530 S   0  0  0  0  0  0  0  0  0  0  0  0
   59.0640   29.0170   45.9580 C   0  0  0  0  0  0  0  0  0  0  0  0
   59.1480   29.4060   47.2560 N   0  0  0  0  0  0  0  0  0  0  0  0
   59.1180   30.7180   47.6200 C   0  0  0  0  0  0  0  0  0  0  0  0
   59.0020   31.6850   46.6120 C   0  0  0  0  0  0  0  0  0  0  0  0
   58.9170   31.2730   45.2800 C   0  0  0  0  0  0  0  0  0  0  0  0
   58.9490   29.9500   44.9760 N   0  0  0  0  0  0  0  0  0  0  0  0
   58.9780   33.3760   47.0220 S   0  0  0  0  0  0  0  0  0  0  0  0
   57.5700   33.9010   47.0280 O   0  0  0  0  0  0  0  0  0  0  0  0
   59.8150   34.1500   46.0410 O   0  0  0  0  0  0  0  0  0  0  0  0
   59.6600   33.4860   48.6060 N   0  0  0  0  0  0  0  0  0  0  0  0
   60.5860   34.5900   48.8970 C   0  0  0  0  0  0  0  0  0  0  0  0
   61.9400   34.0660   49.3310 C   0  0  0  0  0  0  0  0  0  0  0  0
   62.2470   34.0040   50.7040 C   0  0  0  0  0  0  0  0  0  0  0  0
   63.4780   33.5090   51.1390 C   0  0  0  0  0  0  0  0  0  0  0  0
   64.4150   33.0540   50.2120 C   0  0  0  0  0  0  0  0  0  0  0  0
   64.1200   33.0880   48.8470 C   0  0  0  0  0  0  0  0  0  0  0  0
   62.8890   33.5840   48.3980 C   0  0  0  0  0  0  0  0  0  0  0  0
   62.5860   33.5700   46.6630 Cl  0  0  0  0  0  0  0  0  0  0  0  0
   59.4190   32.4040   49.5330 C   0  0  0  0  0  0  0  0  0  0  0  0
   59.4070   32.6590   50.9200 C   0  0  0  0  0  0  0  0  0  0  0  0
   59.1880   31.6330   51.8360 C   0  0  0  0  0  0  0  0  0  0  0  0
   58.9660   30.3340   51.3900 C   0  0  0  0  0  0  0  0  0  0  0  0
   58.9510   30.0580   50.0240 C   0  0  0  0  0  0  0  0  0  0  0  0
   59.1670   31.0770   49.0720 C   0  0  0  0  0  0  0  0  0  0  0  0
   55.6770   26.6990   46.0150 N   0  0  0  0  0  0  0  0  0  0  0  0
   56.2490   25.4830   46.5870 C   0  0  0  0  0  0  0  0  0  0  0  0
   56.5030   24.4550   45.5160 C   0  0  0  0  0  0  0  0  0  0  0  0
   55.5110   24.1560   44.5660 C   0  0  0  0  0  0  0  0  0  0  0  0
   55.7580   23.2120   43.5650 C   0  0  0  0  0  0  0  0  0  0  0  0
   56.9970   22.5680   43.4970 C   0  0  0  0  0  0  0  0  0  0  0  0
   57.9920   22.8700   44.4300 C   0  0  0  0  0  0  0  0  0  0  0  0
   57.7500   23.8120   45.4340 C   0  0  0  0  0  0  0  0  0  0  0  0
   57.4926   26.3692   43.9787 H   0  0  0  0  0  0  0  0  0  0  0  0
   57.7897   28.1335   43.7152 H   0  0  0  0  0  0  0  0  0  0  0  0
   58.8242   32.0199   44.4778 H   0  0  0  0  0  0  0  0  0  0  0  0
   58.8820   29.6510   43.9770 H   0  0  0  0  0  0  0  0  0  0  0  0
   60.7110   35.2022   47.9917 H   0  0  0  0  0  0  0  0  0  0  0  0
   60.1655   35.1922   49.7158 H   0  0  0  0  0  0  0  0  0  0  0  0
   61.5084   34.3496   51.4423 H   0  0  0  0  0  0  0  0  0  0  0  0
   63.7088   33.4779   52.2141 H   0  0  0  0  0  0  0  0  0  0  0  0
   65.3862   32.6684   50.5555 H   0  0  0  0  0  0  0  0  0  0  0  0
   64.8596   32.7227   48.1193 H   0  0  0  0  0  0  0  0  0  0  0  0
   59.5731   33.6837   51.2838 H   0  0  0  0  0  0  0  0  0  0  0  0
   59.1906   31.8502   52.9143 H   0  0  0  0  0  0  0  0  0  0  0  0
   58.8022   29.5241   52.1161 H   0  0  0  0  0  0  0  0  0  0  0  0
   58.7677   29.0286   49.6822 H   0  0  0  0  0  0  0  0  0  0  0  0
   57.1997   25.7302   47.0821 H   0  0  0  0  0  0  0  0  0  0  0  0
   55.5356   25.0661   47.3131 H   0  0  0  0  0  0  0  0  0  0  0  0
   54.5376   24.6663   44.6104 H   0  0  0  0  0  0  0  0  0  0  0  0
   54.9755   22.9753   42.8290 H   0  0  0  0  0  0  0  0  0  0  0  0
   57.1883   21.8241   42.7095 H   0  0  0  0  0  0  0  0  0  0  0  0
   58.9679   22.3655   44.3744 H   0  0  0  0  0  0  0  0  0  0  0  0
   58.5386   24.0509   46.1627 H   0  0  0  0  0  0  0  0  0  0  0  0
  1  2  2  0
  2  3  1  0
  3  4  1  0
  4  5  1  0
  5  6  2  0
  6  7  1  0
  7  8  2  0
  8  9  1  0
  9 10  2  0
  8 11  1  0
 11 12  2  0
 11 13  2  0
 11 14  1  0
 14 15  1  0
 15 16  1  0
 16 17  2  0
 17 18  1  0
 18 19  2  0
 19 20  1  0
 20 21  2  0
 21 22  1  0
 14 23  1  0
 23 24  2  0
 24 25  1  0
 25 26  2  0
 26 27  1  0
 27 28  2  0
  2 29  1  0
 29 30  1  0
 30 31  1  0
 31 32  2  0
 32 33  1  0
 33 34  2  0
 34 35  1  0
 35 36  2  0
 10  5  1  0
 21 16  1  0
 28 23  1  0
 36 31  1  0
 28  7  1  0
  3 37  1  0
  3 38  1  0
  9 39  1  0
 10 40  1  0
 15 41  1  0
 15 42  1  0
 17 43  1  0
 18 44  1  0
 19 45  1  0
 20 46  1  0
 24 47  1  0
 25 48  1  0
 26 49  1  0
 27 50  1  0
 30 51  1  0
 30 52  1  0
 32 53  1  0
 33 54  1  0
 34 55  1  0
 35 56  1  0
 36 57  1  0
M  CHG  2  10   1  29  -1
M  END
>  <UniqueID>  (70) 
64

>  <SMILES>  (70) 
O=C(CSc1nc2c(c[nH+]1)S(=O)(=O)N(Cc1ccccc1Cl)c1ccccc1-2)[N-]Cc1ccccc1

>  <Energy>  (70) 
69.94397581255762

>  <Genealogy>  (70) 
O=C(CSc1nc2c(c[nH+]1)S(=O)(=O)N(Cc1ccccc1Cl)c1ccccc1-2)[N-]Cc1ccccc1 (protonated)
O=C(CSc1nc2c(c[nH+]1)S(=O)(=O)N(Cc1ccccc1Cl)c1ccccc1-2)[N-]Cc1ccccc1 (3D coordinates assigned)
O=C(CSc1nc2c(c[nH+]1)S(=O)(=O)N(Cc1ccccc1Cl)c1ccccc1-2)[N-]Cc1ccccc1 (nonaromatic ring conformer: 69.94397581255762 kcal/mol)

>  <smiles>  (70) 
O=C(CSc1ncc2c(n1)-c1ccccc1N(Cc1ccccc1Cl)S2(=O)=O)NCc1ccccc1

>  <score_type>  (70) 
oracle

>  <origin>  (70) 
adg

>  <m_score__min__energy>  (70) 
-11.880000000000001

>  <m_primary>  (70) 
energy

$$$$
70:0
     RDKit          3D

 35 37  0  0  0  0  0  0  0  0999 V2000
   59.5891   30.0131   44.2962 H   0  0  0  0  0  0  0  0  0  0  0  0
   59.0250   30.0470   45.2400 C   0  0  0  0  0  0  0  0  0  0  0  0
   59.3970   30.9090   46.1430 N   0  0  0  0  0  0  0  0  0  0  0  0
   59.3500   32.3420   46.0470 C   0  0  0  0  0  0  0  0  0  0  0  0
   60.2880   33.1560   46.7090 C   0  0  0  0  0  0  0  0  0  0  0  0
   61.0681   32.6976   47.3345 H   0  0  0  0  0  0  0  0  0  0  0  0
   60.2300   34.5470   46.5730 C   0  0  0  0  0  0  0  0  0  0  0  0
   60.9522   35.1815   47.1076 H   0  0  0  0  0  0  0  0  0  0  0  0
   59.2560   35.1320   45.7590 C   0  0  0  0  0  0  0  0  0  0  0  0
   59.2061   36.2264   45.6602 H   0  0  0  0  0  0  0  0  0  0  0  0
   58.3460   34.3260   45.0710 C   0  0  0  0  0  0  0  0  0  0  0  0
   57.5864   34.7861   44.4220 H   0  0  0  0  0  0  0  0  0  0  0  0
   58.3990   32.9340   45.2060 C   0  0  0  0  0  0  0  0  0  0  0  0
   57.6910   32.3023   44.6495 H   0  0  0  0  0  0  0  0  0  0  0  0
   57.8940   29.1130   45.4040 C   0  0  0  0  0  0  0  0  0  0  0  0
   56.5780   29.2380   44.9730 C   0  0  0  0  0  0  0  0  0  0  0  0
   55.9620   30.4020   44.2650 C   0  0  0  0  0  0  0  0  0  0  0  0
   55.5812   31.1215   45.0048 H   0  0  0  0  0  0  0  0  0  0  0  0
   56.7196   30.8905   43.6346 H   0  0  0  0  0  0  0  0  0  0  0  0
   55.1320   30.0503   43.6346 H   0  0  0  0  0  0  0  0  0  0  0  0
   55.9000   28.1030   45.2500 N   0  0  0  0  0  0  0  0  0  0  0  0
   56.7380   27.2520   45.8260 N   0  0  0  0  0  0  0  0  0  0  0  0
   56.3590   25.9250   46.2360 C   0  0  0  0  0  0  0  0  0  0  0  0
   55.2870   25.2490   45.6220 C   0  0  0  0  0  0  0  0  0  0  0  0
   54.7182   25.7414   44.8195 H   0  0  0  0  0  0  0  0  0  0  0  0
   54.9410   23.9560   46.0260 C   0  0  0  0  0  0  0  0  0  0  0  0
   54.0989   23.4371   45.5446 H   0  0  0  0  0  0  0  0  0  0  0  0
   55.6630   23.3220   47.0400 C   0  0  0  0  0  0  0  0  0  0  0  0
   55.3855   22.3071   47.3610 H   0  0  0  0  0  0  0  0  0  0  0  0
   56.7370   23.9770   47.6460 C   0  0  0  0  0  0  0  0  0  0  0  0
   57.3079   23.4754   48.4412 H   0  0  0  0  0  0  0  0  0  0  0  0
   57.0880   25.2690   47.2440 C   0  0  0  0  0  0  0  0  0  0  0  0
   57.9405   25.7762   47.7195 H   0  0  0  0  0  0  0  0  0  0  0  0
   57.9550   27.8320   45.9040 C   0  0  0  0  0  0  0  0  0  0  0  0
   58.9960   27.2680   46.3360 O   0  0  0  0  0  0  0  0  0  0  0  0
  1  2  1  0
  2  3  2  0
  3  4  1  0
  4  5  2  0
  5  6  1  0
  5  7  1  0
  7  8  1  0
  7  9  2  0
  9 10  1  0
  9 11  1  0
 11 12  1  0
 11 13  2  0
 13 14  1  0
  2 15  1  0
 15 16  2  0
 16 17  1  0
 17 18  1  0
 17 19  1  0
 17 20  1  0
 16 21  1  0
 21 22  1  0
 22 23  1  0
 23 24  2  0
 24 25  1  0
 24 26  1  0
 26 27  1  0
 26 28  2  0
 28 29  1  0
 28 30  1  0
 30 31  1  0
 30 32  2  0
 32 33  1  0
 22 34  1  0
 34 35  2  0
 13  4  1  0
 34 15  1  0
 32 23  1  0
M  CHG  1  21  -1
M  END
>  <UniqueID>  (71) 
65

>  <SMILES>  (71) 
Cc1[n-]n(-c2ccccc2)c(=O)c1/C=N\c1ccccc1

>  <Energy>  (71) 
84.30651330772653

>  <Genealogy>  (71) 
Cc1[n-]n(-c2ccccc2)c(=O)c1C=Nc1ccccc1 (protonated)
Cc1[n-]n(-c2ccccc2)c(=O)c1/C=N\c1ccccc1 (cis-trans isomerization)
Cc1[n-]n(-c2ccccc2)c(=O)c1/C=N\c1ccccc1 (3D coordinates assigned)
Cc1[n-]n(-c2ccccc2)c(=O)c1/C=N\c1ccccc1 (optimized conformer: 84.30651330772653 kcal/mol)

>  <smiles>  (71) 
Cc1[nH]n(-c2ccccc2)c(=O)c1C=Nc1ccccc1

>  <score_type>  (71) 
oracle

>  <origin>  (71) 
adg

>  <m_score__min__energy>  (71) 
-8.5099999999999998

>  <m_primary>  (71) 
energy

$$$$
71:0
     RDKit          3D

 40 43  0  0  0  0  0  0  0  0999 V2000
   56.9460   30.6330   43.4990 C   0  0  0  0  0  0  0  0  0  0  0  0
   56.8990   30.7650   44.9170 O   0  0  0  0  0  0  0  0  0  0  0  0
   57.5180   31.7970   45.6360 C   0  0  0  0  0  0  0  0  0  0  0  0
   57.1180   33.1150   45.3850 C   0  0  0  0  0  0  0  0  0  0  0  0
   57.7040   34.1790   46.0770 C   0  0  0  0  0  0  0  0  0  0  0  0
   58.6960   33.9350   47.0280 C   0  0  0  0  0  0  0  0  0  0  0  0
   59.1070   32.6210   47.2930 C   0  0  0  0  0  0  0  0  0  0  0  0
   60.1350   32.3680   48.2700 N   0  0  0  0  0  0  0  0  0  0  0  0
   59.7900   31.7550   49.4420 C   0  0  0  0  0  0  0  0  0  0  0  0
   58.5120   31.3890   49.7040 N   0  0  0  0  0  0  0  0  0  0  0  0
   58.1650   30.7830   50.8680 C   0  0  0  0  0  0  0  0  0  0  0  0
   56.9540   30.4830   51.0530 O   0  0  0  0  0  0  0  0  0  0  0  0
   59.1090   30.5020   51.8290 N   0  0  0  0  0  0  0  0  0  0  0  0
   58.7000   29.8660   53.0930 C   0  0  0  0  0  0  0  0  0  0  0  0
   60.4190   30.8780   51.6490 C   0  0  0  0  0  0  0  0  0  0  0  0
   61.2740   30.6660   52.5540 O   0  0  0  0  0  0  0  0  0  0  0  0
   60.8150   31.5040   50.4600 C   0  0  0  0  0  0  0  0  0  0  0  0
   62.0950   31.8900   50.2190 N   0  0  0  0  0  0  0  0  0  0  0  0
   62.4320   32.4960   49.0450 C   0  0  0  0  0  0  0  0  0  0  0  0
   63.7650   32.8790   48.8200 C   0  0  0  0  0  0  0  0  0  0  0  0
   64.1320   33.4920   47.6220 C   0  0  0  0  0  0  0  0  0  0  0  0
   63.1760   33.7280   46.6360 C   0  0  0  0  0  0  0  0  0  0  0  0
   61.8460   33.3560   46.8390 C   0  0  0  0  0  0  0  0  0  0  0  0
   61.4440   32.7400   48.0480 C   0  0  0  0  0  0  0  0  0  0  0  0
   58.5200   31.5540   46.5950 C   0  0  0  0  0  0  0  0  0  0  0  0
   57.3043   29.6268   43.2361 H   0  0  0  0  0  0  0  0  0  0  0  0
   55.9389   30.7839   43.0831 H   0  0  0  0  0  0  0  0  0  0  0  0
   57.6311   31.3864   43.0831 H   0  0  0  0  0  0  0  0  0  0  0  0
   56.3364   33.3149   44.6373 H   0  0  0  0  0  0  0  0  0  0  0  0
   57.3826   35.2107   45.8715 H   0  0  0  0  0  0  0  0  0  0  0  0
   59.1558   34.7744   47.5701 H   0  0  0  0  0  0  0  0  0  0  0  0
   59.0796   30.4562   53.9401 H   0  0  0  0  0  0  0  0  0  0  0  0
   57.6021   29.8192   53.1415 H   0  0  0  0  0  0  0  0  0  0  0  0
   59.1129   28.8476   53.1415 H   0  0  0  0  0  0  0  0  0  0  0  0
   62.8340   31.7190   50.9400 H   0  0  0  0  0  0  0  0  0  0  0  0
   64.5245   32.6941   49.5940 H   0  0  0  0  0  0  0  0  0  0  0  0
   65.1778   33.7896   47.4553 H   0  0  0  0  0  0  0  0  0  0  0  0
   63.4711   34.2102   45.6924 H   0  0  0  0  0  0  0  0  0  0  0  0
   61.1022   33.5437   46.0506 H   0  0  0  0  0  0  0  0  0  0  0  0
   58.8444   30.5228   46.7982 H   0  0  0  0  0  0  0  0  0  0  0  0
  1  2  1  0
  2  3  1  0
  3  4  2  0
  4  5  1  0
  5  6  2  0
  6  7  1  0
  7  8  1  0
  8  9  1  0
  9 10  2  0
 10 11  1  0
 11 12  2  0
 11 13  1  0
 13 14  1  0
 13 15  1  0
 15 16  2  0
 15 17  1  0
 17 18  2  0
 18 19  1  0
 19 20  2  0
 20 21  1  0
 21 22  2  0
 22 23  1  0
 23 24  2  0
  7 25  2  0
 25  3  1  0
 24  8  1  0
 17  9  1  0
 24 19  1  0
  1 26  1  0
  1 27  1  0
  1 28  1  0
  4 29  1  0
  5 30  1  0
  6 31  1  0
 14 32  1  0
 14 33  1  0
 14 34  1  0
 18 35  1  0
 20 36  1  0
 21 37  1  0
 22 38  1  0
 23 39  1  0
 25 40  1  0
M  CHG  1  18   1
M  END
>  <UniqueID>  (72) 
66

>  <SMILES>  (72) 
COc1cccc(-n2c3nc(=O)n(C)c(=O)c-3[nH+]c3ccccc32)c1

>  <Energy>  (72) 
65.67462520061356

>  <Genealogy>  (72) 
COc1cccc(-n2c3nc(=O)n(C)c(=O)c-3[nH+]c3ccccc32)c1 (protonated)
COc1cccc(-n2c3nc(=O)n(C)c(=O)c-3[nH+]c3ccccc32)c1 (3D coordinates assigned)
COc1cccc(-n2c3nc(=O)n(C)c(=O)c-3[nH+]c3ccccc32)c1 (optimized conformer: 65.67462520061356 kcal/mol)

>  <smiles>  (72) 
COc1cccc(-n2c3nc(=O)n(C)c(=O)c-3nc3ccccc32)c1

>  <score_type>  (72) 
oracle

>  <origin>  (72) 
adg

>  <m_score__min__energy>  (72) 
-6.0999999999999996

>  <m_primary>  (72) 
energy

$$$$
72:0
     RDKit          3D

 27 28  0  0  0  0  0  0  0  0999 V2000
   57.2410   29.7690   43.3700 N   0  0  0  0  0  0  0  0  0  0  0  0
   57.6360   30.9520   44.0760 C   0  0  0  0  0  0  0  0  0  0  0  0
   57.7750   30.9030   45.4720 C   0  0  0  0  0  0  0  0  0  0  0  0
   58.1590   32.0390   46.1880 C   0  0  0  0  0  0  0  0  0  0  0  0
   58.4190   33.2420   45.5180 C   0  0  0  0  0  0  0  0  0  0  0  0
   58.7940   34.4770   46.2930 C   0  0  0  0  0  0  0  0  0  0  0  0
   60.0830   34.2530   47.0360 C   0  0  0  0  0  0  0  0  0  0  0  0
   61.2380   33.8510   46.3450 C   0  0  0  0  0  0  0  0  0  0  0  0
   62.4270   33.6080   47.0420 C   0  0  0  0  0  0  0  0  0  0  0  0
   62.4670   33.7550   48.4300 C   0  0  0  0  0  0  0  0  0  0  0  0
   61.3190   34.1410   49.1260 C   0  0  0  0  0  0  0  0  0  0  0  0
   60.1280   34.3860   48.4340 C   0  0  0  0  0  0  0  0  0  0  0  0
   58.2710   33.3000   44.1240 C   0  0  0  0  0  0  0  0  0  0  0  0
   57.8860   32.1640   43.4000 C   0  0  0  0  0  0  0  0  0  0  0  0
   57.7100   32.3280   41.4980 Br  0  0  0  0  0  0  0  0  0  0  0  0
   56.3910   29.2380   43.6620 H   0  0  0  0  0  0  0  0  0  0  0  0
   57.7810   29.4050   42.5550 H   0  0  0  0  0  0  0  0  0  0  0  0
   57.5798   29.9617   46.0066 H   0  0  0  0  0  0  0  0  0  0  0  0
   58.2578   31.9892   47.2824 H   0  0  0  0  0  0  0  0  0  0  0  0
   58.9178   35.3194   45.5965 H   0  0  0  0  0  0  0  0  0  0  0  0
   57.9970   34.7021   47.0169 H   0  0  0  0  0  0  0  0  0  0  0  0
   61.2078   33.7268   45.2525 H   0  0  0  0  0  0  0  0  0  0  0  0
   63.3311   33.3009   46.4958 H   0  0  0  0  0  0  0  0  0  0  0  0
   63.4033   33.5667   48.9758 H   0  0  0  0  0  0  0  0  0  0  0  0
   61.3515   34.2525   50.2199 H   0  0  0  0  0  0  0  0  0  0  0  0
   59.2243   34.6836   48.9860 H   0  0  0  0  0  0  0  0  0  0  0  0
   58.4589   34.2458   43.5948 H   0  0  0  0  0  0  0  0  0  0  0  0
  1  2  1  0
  2  3  2  0
  3  4  1  0
  4  5  2  0
  5  6  1  0
  6  7  1  0
  7  8  2  0
  8  9  1  0
  9 10  2  0
 10 11  1  0
 11 12  2  0
  5 13  1  0
 13 14  2  0
 14 15  1  0
 14  2  1  0
 12  7  1  0
  1 16  1  0
  1 17  1  0
  3 18  1  0
  4 19  1  0
  6 20  1  0
  6 21  1  0
  8 22  1  0
  9 23  1  0
 10 24  1  0
 11 25  1  0
 12 26  1  0
 13 27  1  0
M  END
>  <UniqueID>  (73) 
67

>  <SMILES>  (73) 
Nc1ccc(Cc2ccccc2)cc1Br

>  <Energy>  (73) 
26.544569319459917

>  <Genealogy>  (73) 
Nc1ccc(Cc2ccccc2)cc1Br (3D coordinates assigned)
Nc1ccc(Cc2ccccc2)cc1Br (optimized conformer: 26.544569319459917 kcal/mol)

>  <smiles>  (73) 
Nc1ccc(Cc2ccccc2)cc1Br

>  <score_type>  (73) 
oracle

>  <origin>  (73) 
adg

>  <m_score__min__energy>  (73) 
-7.0199999999999996

>  <m_primary>  (73) 
energy

$$$$
73:0
     RDKit          3D

 36 37  0  0  0  0  0  0  0  0999 V2000
   57.0009   29.6628   42.3531 H   0  0  0  0  0  0  0  0  0  0  0  0
   57.0120   29.2460   43.3710 C   0  0  0  0  0  0  0  0  0  0  0  0
   56.1930   29.9090   44.3970 C   0  0  0  0  0  0  0  0  0  0  0  0
   55.1670   29.3390   44.8600 O   0  0  0  0  0  0  0  0  0  0  0  0
   56.5680   31.2070   44.8660 N   0  0  0  0  0  0  0  0  0  0  0  0
   57.6000   32.0130   44.2240 C   0  0  0  0  0  0  0  0  0  0  0  0
   58.4173   31.3580   43.8878 H   0  0  0  0  0  0  0  0  0  0  0  0
   57.1639   32.5378   43.3612 H   0  0  0  0  0  0  0  0  0  0  0  0
   58.1410   33.0260   45.1970 C   0  0  0  0  0  0  0  0  0  0  0  0
   58.0240   32.8290   46.5810 C   0  0  0  0  0  0  0  0  0  0  0  0
   57.4793   31.9553   46.9681 H   0  0  0  0  0  0  0  0  0  0  0  0
   58.5990   33.7420   47.4670 C   0  0  0  0  0  0  0  0  0  0  0  0
   58.5083   33.5943   48.5533 H   0  0  0  0  0  0  0  0  0  0  0  0
   59.2900   34.8440   46.9610 C   0  0  0  0  0  0  0  0  0  0  0  0
   59.7476   35.5687   47.6505 H   0  0  0  0  0  0  0  0  0  0  0  0
   59.3990   35.0240   45.6160 N   0  0  0  0  0  0  0  0  0  0  0  0
   59.9240   35.8510   45.2530 H   0  0  0  0  0  0  0  0  0  0  0  0
   58.8490   34.1460   44.7340 C   0  0  0  0  0  0  0  0  0  0  0  0
   58.9598   34.3148   43.6527 H   0  0  0  0  0  0  0  0  0  0  0  0
   57.7720   28.1640   43.6000 C   0  0  0  0  0  0  0  0  0  0  0  0
   57.9172   27.4562   42.7706 H   0  0  0  0  0  0  0  0  0  0  0  0
   58.4290   27.8560   44.8910 C   0  0  0  0  0  0  0  0  0  0  0  0
   57.8200   27.0150   45.8400 C   0  0  0  0  0  0  0  0  0  0  0  0
   56.8411   26.5636   45.6210 H   0  0  0  0  0  0  0  0  0  0  0  0
   58.4490   26.7490   47.0580 C   0  0  0  0  0  0  0  0  0  0  0  0
   57.9729   26.0750   47.7853 H   0  0  0  0  0  0  0  0  0  0  0  0
   59.6910   27.3410   47.3580 C   0  0  0  0  0  0  0  0  0  0  0  0
   60.3660   27.0980   48.5630 O   0  0  0  0  0  0  0  0  0  0  0  0
   60.6010   28.0820   49.5650 C   0  0  0  0  0  0  0  0  0  0  0  0
   60.4920   27.6255   50.5599 H   0  0  0  0  0  0  0  0  0  0  0  0
   61.6199   28.4817   49.4546 H   0  0  0  0  0  0  0  0  0  0  0  0
   59.8727   28.8989   49.4546 H   0  0  0  0  0  0  0  0  0  0  0  0
   60.2770   28.2070   46.4280 C   0  0  0  0  0  0  0  0  0  0  0  0
   61.2409   28.6841   46.6588 H   0  0  0  0  0  0  0  0  0  0  0  0
   59.6470   28.4710   45.2070 C   0  0  0  0  0  0  0  0  0  0  0  0
   60.1109   29.1655   44.4912 H   0  0  0  0  0  0  0  0  0  0  0  0
  1  2  1  0
  2  3  1  0
  3  4  2  0
  3  5  1  0
  5  6  1  0
  6  7  1  0
  6  8  1  0
  6  9  1  0
  9 10  2  0
 10 11  1  0
 10 12  1  0
 12 13  1  0
 12 14  2  0
 14 15  1  0
 14 16  1  0
 16 17  1  0
 16 18  2  0
 18 19  1  0
  2 20  2  0
 20 21  1  0
 20 22  1  0
 22 23  2  0
 23 24  1  0
 23 25  1  0
 25 26  1  0
 25 27  2  0
 27 28  1  0
 28 29  1  0
 29 30  1  0
 29 31  1  0
 29 32  1  0
 27 33  1  0
 33 34  1  0
 33 35  2  0
 35 36  1  0
 18  9  1  0
 35 22  1  0
M  CHG  2   5  -1  16   1
M  END
>  <UniqueID>  (74) 
68

>  <SMILES>  (74) 
COc1ccc(/C=C\C(=O)[N-]Cc2ccc[nH+]c2)cc1

>  <Energy>  (74) 
39.44379096864783

>  <Genealogy>  (74) 
COc1ccc(C=CC(=O)[N-]Cc2ccc[nH+]c2)cc1 (protonated)
COc1ccc(/C=C\C(=O)[N-]Cc2ccc[nH+]c2)cc1 (cis-trans isomerization)
COc1ccc(/C=C\C(=O)[N-]Cc2ccc[nH+]c2)cc1 (3D coordinates assigned)
COc1ccc(/C=C\C(=O)[N-]Cc2ccc[nH+]c2)cc1 (optimized conformer: 39.44379096864783 kcal/mol)

>  <smiles>  (74) 
COc1ccc(C=CC(=O)NCc2cccnc2)cc1

>  <score_type>  (74) 
oracle

>  <origin>  (74) 
adg

>  <m_score__min__energy>  (74) 
-7.8499999999999996

>  <m_primary>  (74) 
energy

$$$$
74:0
     RDKit          3D

 77 82  0  0  0  0  0  0  0  0999 V2000
   54.6300   19.5360   46.3680 C   0  0  0  0  0  0  0  0  0  0  0  0
   55.5330   19.6050   45.1430 C   0  0  0  0  0  0  0  0  0  0  0  0
   55.9830   21.0100   44.9020 C   0  0  0  0  0  0  0  0  0  0  0  0
   56.2930   21.4910   43.6700 N   0  0  0  0  0  0  0  0  0  0  0  0
   56.6120   22.7670   43.9450 C   0  0  0  0  0  0  0  0  0  0  0  0
   57.0200   23.7460   43.0520 C   0  0  0  0  0  0  0  0  0  0  0  0
   57.3170   25.0260   43.5620 C   0  0  0  0  0  0  0  0  0  0  0  0
   57.1700   25.3070   44.9570 C   0  0  0  0  0  0  0  0  0  0  0  0
   56.7550   24.2620   45.8450 C   0  0  0  0  0  0  0  0  0  0  0  0
   56.6100   24.4460   47.3320 C   0  0  0  0  0  0  0  0  0  0  0  0
   56.4860   23.0120   45.2770 C   0  0  0  0  0  0  0  0  0  0  0  0
   56.0920   21.9120   45.8620 O   0  0  0  0  0  0  0  0  0  0  0  0
   57.4790   26.6920   45.4140 C   0  0  0  0  0  0  0  0  0  0  0  0
   57.1620   27.0750   46.5720 O   0  0  0  0  0  0  0  0  0  0  0  0
   58.1400   27.6070   44.5150 N   0  0  0  0  0  0  0  0  0  0  0  0
   58.4010   28.9720   44.9040 C   0  0  0  0  0  0  0  0  0  0  0  0
   59.5380   29.2900   45.6650 C   0  0  0  0  0  0  0  0  0  0  0  0
   59.7960   30.6120   46.0330 C   0  0  0  0  0  0  0  0  0  0  0  0
   58.9170   31.6360   45.6500 C   0  0  0  0  0  0  0  0  0  0  0  0
   59.1690   33.0330   46.0610 C   0  0  0  0  0  0  0  0  0  0  0  0
   59.1570   34.0360   45.0780 C   0  0  0  0  0  0  0  0  0  0  0  0
   59.3780   35.3700   45.4260 C   0  0  0  0  0  0  0  0  0  0  0  0
   59.6040   35.7170   46.7580 C   0  0  0  0  0  0  0  0  0  0  0  0
   59.6070   34.7330   47.7480 C   0  0  0  0  0  0  0  0  0  0  0  0
   59.3880   33.3850   47.4180 C   0  0  0  0  0  0  0  0  0  0  0  0
   59.3440   32.3520   48.5240 C   0  0  0  0  0  0  0  0  0  0  0  0
   58.7220   32.9130   49.7420 N   0  0  0  0  0  0  0  0  0  0  0  0
   57.8280   31.9330   50.4100 C   0  0  0  0  0  0  0  0  0  0  0  0
   58.5480   31.1550   51.5210 C   0  0  0  0  0  0  0  0  0  0  0  0
   59.0910   32.0800   52.6510 C   0  0  0  0  0  0  0  0  0  0  0  0
   60.3430   31.5050   53.2340 N   0  0  0  0  0  0  0  0  0  0  0  0
   61.2990   32.5790   53.5810 C   0  0  0  0  0  0  0  0  0  0  0  0
   61.0200   30.5680   52.3110 C   0  0  0  0  0  0  0  0  0  0  0  0
   59.2750   33.5280   52.1030 C   0  0  0  0  0  0  0  0  0  0  0  0
   59.7410   33.5100   50.6430 C   0  0  0  0  0  0  0  0  0  0  0  0
   57.7920   31.3260   44.8730 C   0  0  0  0  0  0  0  0  0  0  0  0
   57.5360   30.0030   44.5030 C   0  0  0  0  0  0  0  0  0  0  0  0
   58.6960   27.0910   43.2600 C   0  0  0  0  0  0  0  0  0  0  0  0
   57.7140   26.1200   42.6030 C   0  0  0  0  0  0  0  0  0  0  0  0
   55.2442   19.5829   47.2794 H   0  0  0  0  0  0  0  0  0  0  0  0
   53.9285   20.3832   46.3546 H   0  0  0  0  0  0  0  0  0  0  0  0
   54.0653   18.5921   46.3546 H   0  0  0  0  0  0  0  0  0  0  0  0
   56.4134   18.9660   45.3059 H   0  0  0  0  0  0  0  0  0  0  0  0
   54.9686   19.2570   44.2653 H   0  0  0  0  0  0  0  0  0  0  0  0
   57.1093   23.5301   41.9771 H   0  0  0  0  0  0  0  0  0  0  0  0
   57.2088   23.6862   47.8556 H   0  0  0  0  0  0  0  0  0  0  0  0
   56.9631   25.4490   47.6135 H   0  0  0  0  0  0  0  0  0  0  0  0
   55.5522   24.3372   47.6135 H   0  0  0  0  0  0  0  0  0  0  0  0
   60.2298   28.4922   45.9731 H   0  0  0  0  0  0  0  0  0  0  0  0
   60.6915   30.8513   46.6252 H   0  0  0  0  0  0  0  0  0  0  0  0
   58.9723   33.7689   44.0270 H   0  0  0  0  0  0  0  0  0  0  0  0
   59.3739   36.1483   44.6487 H   0  0  0  0  0  0  0  0  0  0  0  0
   59.7803   36.7685   47.0288 H   0  0  0  0  0  0  0  0  0  0  0  0
   59.7825   35.0156   48.7965 H   0  0  0  0  0  0  0  0  0  0  0  0
   58.7566   31.4859   48.1853 H   0  0  0  0  0  0  0  0  0  0  0  0
   60.3736   32.0468   48.7625 H   0  0  0  0  0  0  0  0  0  0  0  0
   56.9765   32.4727   50.8501 H   0  0  0  0  0  0  0  0  0  0  0  0
   57.4943   31.2089   49.6522 H   0  0  0  0  0  0  0  0  0  0  0  0
   57.8406   30.4380   51.9632 H   0  0  0  0  0  0  0  0  0  0  0  0
   59.4109   30.6480   51.0646 H   0  0  0  0  0  0  0  0  0  0  0  0
   58.3642   32.1391   53.4745 H   0  0  0  0  0  0  0  0  0  0  0  0
   61.3742   32.6635   54.6752 H   0  0  0  0  0  0  0  0  0  0  0  0
   62.2877   32.3389   53.1629 H   0  0  0  0  0  0  0  0  0  0  0  0
   60.9460   33.5333   53.1629 H   0  0  0  0  0  0  0  0  0  0  0  0
   61.5668   29.8112   52.8927 H   0  0  0  0  0  0  0  0  0  0  0  0
   60.2703   30.0720   51.6770 H   0  0  0  0  0  0  0  0  0  0  0  0
   61.7263   31.1240   51.6770 H   0  0  0  0  0  0  0  0  0  0  0  0
   58.3150   34.0612   52.1672 H   0  0  0  0  0  0  0  0  0  0  0  0
   60.0405   34.0360   52.7080 H   0  0  0  0  0  0  0  0  0  0  0  0
   59.9391   34.5428   50.3205 H   0  0  0  0  0  0  0  0  0  0  0  0
   60.6503   32.8939   50.5837 H   0  0  0  0  0  0  0  0  0  0  0  0
   57.1087   32.1267   44.5536 H   0  0  0  0  0  0  0  0  0  0  0  0
   56.6510   29.7676   43.8936 H   0  0  0  0  0  0  0  0  0  0  0  0
   58.8881   27.9308   42.5760 H   0  0  0  0  0  0  0  0  0  0  0  0
   59.6340   26.5588   43.4767 H   0  0  0  0  0  0  0  0  0  0  0  0
   56.8142   26.6719   42.2936 H   0  0  0  0  0  0  0  0  0  0  0  0
   58.2027   25.6624   41.7302 H   0  0  0  0  0  0  0  0  0  0  0  0
  1  2  1  0
  2  3  1  0
  3  4  2  0
  4  5  1  0
  5  6  2  0
  6  7  1  0
  7  8  2  0
  8  9  1  0
  9 10  1  0
  9 11  2  0
 11 12  1  0
  8 13  1  0
 13 14  2  0
 13 15  1  0
 15 16  1  0
 16 17  2  0
 17 18  1  0
 18 19  2  0
 19 20  1  0
 20 21  2  0
 21 22  1  0
 22 23  2  0
 23 24  1  0
 24 25  2  0
 25 26  1  0
 26 27  1  0
 27 28  1  0
 28 29  1  0
 29 30  1  0
 30 31  1  0
 31 32  1  0
 31 33  1  0
 30 34  1  0
 34 35  1  0
 19 36  1  0
 36 37  2  0
 15 38  1  0
 38 39  1  0
 12  3  1  0
 37 16  1  0
 11  5  1  0
 25 20  1  0
 35 27  1  0
 39  7  1  0
  1 40  1  0
  1 41  1  0
  1 42  1  0
  2 43  1  0
  2 44  1  0
  6 45  1  0
 10 46  1  0
 10 47  1  0
 10 48  1  0
 17 49  1  0
 18 50  1  0
 21 51  1  0
 22 52  1  0
 23 53  1  0
 24 54  1  0
 26 55  1  0
 26 56  1  0
 28 57  1  0
 28 58  1  0
 29 59  1  0
 29 60  1  0
 30 61  1  0
 32 62  1  0
 32 63  1  0
 32 64  1  0
 33 65  1  0
 33 66  1  0
 33 67  1  0
 34 68  1  0
 34 69  1  0
 35 70  1  0
 35 71  1  0
 36 72  1  0
 37 73  1  0
 38 74  1  0
 38 75  1  0
 39 76  1  0
 39 77  1  0
M  END
>  <UniqueID>  (75) 
69

>  <SMILES>  (75) 
CCc1nc2cc3c(c(C)c2o1)C(=O)N(c1ccc(-c2ccccc2CN2CCC(N(C)C)CC2)cc1)CC3

>  <Energy>  (75) 
147.77336776215537

>  <Genealogy>  (75) 
CCc1nc2cc3c(c(C)c2o1)C(=O)N(c1ccc(-c2ccccc2CN2CCC(N(C)C)CC2)cc1)CC3 (3D coordinates assigned)
CCc1nc2cc3c(c(C)c2o1)C(=O)N(c1ccc(-c2ccccc2CN2CCC(N(C)C)CC2)cc1)CC3 (nonaromatic ring conformer: 147.77336776215537 kcal/mol)

>  <smiles>  (75) 
CCc1nc2cc3c(c(C)c2o1)C(=O)N(c1ccc(-c2ccccc2CN2CCC(N(C)C)CC2)cc1)CC3

>  <score_type>  (75) 
oracle

>  <origin>  (75) 
adg

>  <m_score__min__energy>  (75) 
-9.6199999999999992

>  <m_primary>  (75) 
energy

$$$$
75:0
     RDKit          3D

 40 43  0  0  0  0  0  0  0  0999 V2000
   59.1090   34.9150   45.2190 N   0  0  0  0  0  0  0  0  0  0  0  0
   58.6080   33.9660   46.1680 C   0  0  0  0  0  0  0  0  0  0  0  0
   58.5730   34.2810   47.4300 N   0  0  0  0  0  0  0  0  0  0  0  0
   58.1250   32.6410   45.7040 C   0  0  0  0  0  0  0  0  0  0  0  0
   57.2530   32.5380   44.5860 C   0  0  0  0  0  0  0  0  0  0  0  0
   56.7900   31.2820   44.1470 C   0  0  0  0  0  0  0  0  0  0  0  0
   57.2160   30.1570   44.8450 C   0  0  0  0  0  0  0  0  0  0  0  0
   56.9050   28.8760   44.6040 N   0  0  0  0  0  0  0  0  0  0  0  0
   57.5880   28.2100   45.5750 C   0  0  0  0  0  0  0  0  0  0  0  0
   57.5600   26.7320   45.7310 C   0  0  0  0  0  0  0  0  0  0  0  0
   58.7630   26.0090   45.6500 C   0  0  0  0  0  0  0  0  0  0  0  0
   58.7720   24.6210   45.7860 C   0  0  0  0  0  0  0  0  0  0  0  0
   57.5840   23.9310   46.0130 C   0  0  0  0  0  0  0  0  0  0  0  0
   56.3660   24.6230   46.1070 C   0  0  0  0  0  0  0  0  0  0  0  0
   55.1170   23.8660   46.3610 C   0  0  0  0  0  0  0  0  0  0  0  0
   54.8690   23.3100   47.6290 C   0  0  0  0  0  0  0  0  0  0  0  0
   53.6880   22.6030   47.8730 C   0  0  0  0  0  0  0  0  0  0  0  0
   52.7400   22.4500   46.8570 C   0  0  0  0  0  0  0  0  0  0  0  0
   52.9710   23.0060   45.5960 C   0  0  0  0  0  0  0  0  0  0  0  0
   52.0250   22.8600   44.5880 O   0  0  0  0  0  0  0  0  0  0  0  0
   54.1520   23.7130   45.3470 C   0  0  0  0  0  0  0  0  0  0  0  0
   56.3520   26.0270   45.9540 C   0  0  0  0  0  0  0  0  0  0  0  0
   55.1390   26.7070   46.0000 O   0  0  0  0  0  0  0  0  0  0  0  0
   58.3030   29.0220   46.4020 N   0  0  0  0  0  0  0  0  0  0  0  0
   58.0470   30.2440   45.9150 C   0  0  0  0  0  0  0  0  0  0  0  0
   58.5260   31.4640   46.3820 C   0  0  0  0  0  0  0  0  0  0  0  0
   59.2320   34.6590   44.2140 H   0  0  0  0  0  0  0  0  0  0  0  0
   59.4100   35.8680   45.5230 H   0  0  0  0  0  0  0  0  0  0  0  0
   58.8390   35.2330   47.7650 H   0  0  0  0  0  0  0  0  0  0  0  0
   58.3030   33.5740   48.1490 H   0  0  0  0  0  0  0  0  0  0  0  0
   56.9362   33.4493   44.0577 H   0  0  0  0  0  0  0  0  0  0  0  0
   56.1153   31.1942   43.2826 H   0  0  0  0  0  0  0  0  0  0  0  0
   59.7083   26.5443   45.4773 H   0  0  0  0  0  0  0  0  0  0  0  0
   59.7209   24.0694   45.7137 H   0  0  0  0  0  0  0  0  0  0  0  0
   57.5999   22.8363   46.1194 H   0  0  0  0  0  0  0  0  0  0  0  0
   55.6090   23.4323   48.4337 H   0  0  0  0  0  0  0  0  0  0  0  0
   53.5044   22.1664   48.8658 H   0  0  0  0  0  0  0  0  0  0  0  0
   51.8121   21.8918   47.0503 H   0  0  0  0  0  0  0  0  0  0  0  0
   54.3278   24.1518   44.3538 H   0  0  0  0  0  0  0  0  0  0  0  0
   59.1967   31.5129   47.2525 H   0  0  0  0  0  0  0  0  0  0  0  0
  1  2  1  0
  2  3  2  0
  2  4  1  0
  4  5  2  0
  5  6  1  0
  6  7  2  0
  7  8  1  0
  8  9  1  0
  9 10  1  0
 10 11  2  0
 11 12  1  0
 12 13  2  0
 13 14  1  0
 14 15  1  0
 15 16  2  0
 16 17  1  0
 17 18  2  0
 18 19  1  0
 19 20  1  0
 19 21  2  0
 14 22  2  0
 22 23  1  0
  9 24  2  0
 24 25  1  0
 25 26  2  0
 26  4  1  0
 25  7  1  0
 22 10  1  0
 21 15  1  0
  1 27  1  0
  1 28  1  0
  3 29  1  0
  3 30  1  0
  5 31  1  0
  6 32  1  0
 11 33  1  0
 12 34  1  0
 13 35  1  0
 16 36  1  0
 17 37  1  0
 18 38  1  0
 21 39  1  0
 26 40  1  0
M  CHG  4   3   1   8  -1  20  -1  23  -1
M  END
>  <UniqueID>  (76) 
70

>  <SMILES>  (76) 
NC(=[NH2+])c1ccc2[n-]c(-c3cccc(-c4cccc([O-])c4)c3[O-])nc2c1

>  <Energy>  (76) 
91.10228314335819

>  <Genealogy>  (76) 
NC(=[NH2+])c1ccc2[n-]c(-c3cccc(-c4cccc([O-])c4)c3[O-])nc2c1 (protonated)
NC(=[NH2+])c1ccc2[n-]c(-c3cccc(-c4cccc([O-])c4)c3[O-])nc2c1 (3D coordinates assigned)
NC(=[NH2+])c1ccc2[n-]c(-c3cccc(-c4cccc([O-])c4)c3[O-])nc2c1 (optimized conformer: 91.10228314335819 kcal/mol)

>  <smiles>  (76) 
N=C(N)c1ccc2[nH]c(-c3cccc(-c4cccc(O)c4)c3O)nc2c1

>  <score_type>  (76) 
oracle

>  <origin>  (76) 
adg

>  <m_score__min__energy>  (76) 
-12.720000000000001

>  <m_primary>  (76) 
energy

$$$$
76:0
     RDKit          3D

 56 58  0  0  0  0  0  0  0  0999 V2000
   57.4950   25.7660   47.0210 C   0  0  0  0  0  0  0  0  0  0  0  0
   56.7310   26.0970   45.8850 O   0  0  0  0  0  0  0  0  0  0  0  0
   57.3440   25.5640   44.7320 C   0  0  0  0  0  0  0  0  0  0  0  0
   58.0850   26.6620   43.9490 C   0  0  0  0  0  0  0  0  0  0  0  0
   58.2700   27.9700   44.6390 N   0  0  2  0  0  0  0  0  0  0  0  0
   57.7190   29.1540   43.9210 C   0  0  0  0  0  0  0  0  0  0  0  0
   56.5230   29.8010   44.5690 C   0  0  0  0  0  0  0  0  0  0  0  0
   55.6610   29.0990   45.1680 O   0  0  0  0  0  0  0  0  0  0  0  0
   56.4110   31.2260   44.5660 N   0  0  0  0  0  0  0  0  0  0  0  0
   57.4320   32.1090   44.0230 C   0  0  0  0  0  0  0  0  0  0  0  0
   58.0730   32.8800   45.1440 C   0  0  0  0  0  0  0  0  0  0  0  0
   57.6930   32.6330   46.4740 C   0  0  0  0  0  0  0  0  0  0  0  0
   58.3110   33.3200   47.5260 C   0  0  0  0  0  0  0  0  0  0  0  0
   59.3180   34.2710   47.2570 C   0  0  0  0  0  0  0  0  0  0  0  0
   59.9740   34.9800   48.2760 O   0  0  0  0  0  0  0  0  0  0  0  0
   61.1260   34.5090   48.9700 C   0  0  0  0  0  0  0  0  0  0  0  0
   59.6890   34.5210   45.9260 C   0  0  0  0  0  0  0  0  0  0  0  0
   59.0760   33.8290   44.8770 C   0  0  0  0  0  0  0  0  0  0  0  0
   59.8870   28.1800   45.3100 S   0  0  0  0  0  0  0  0  0  0  0  0
   60.7970   28.8150   44.2980 O   0  0  0  0  0  0  0  0  0  0  0  0
   60.4490   26.8400   45.6910 O   0  0  0  0  0  0  0  0  0  0  0  0
   59.8780   29.1940   46.7600 C   0  0  0  0  0  0  0  0  0  0  0  0
   60.7440   30.2980   46.8380 C   0  0  0  0  0  0  0  0  0  0  0  0
   60.7370   31.1300   47.9630 C   0  0  0  0  0  0  0  0  0  0  0  0
   59.8510   30.8750   49.0170 C   0  0  0  0  0  0  0  0  0  0  0  0
   59.7910   31.7170   50.1370 C   0  0  0  0  0  0  0  0  0  0  0  0
   58.9010   31.4270   51.1760 C   0  0  0  0  0  0  0  0  0  0  0  0
   58.0840   30.2910   51.0840 C   0  0  0  0  0  0  0  0  0  0  0  0
   57.2830   30.0130   52.0160 O   0  0  0  0  0  0  0  0  0  0  0  0
   58.1490   29.4840   49.9880 N   0  0  0  0  0  0  0  0  0  0  0  0
   58.9980   29.7470   48.9580 C   0  0  0  0  0  0  0  0  0  0  0  0
   59.0260   28.9040   47.8390 C   0  0  0  0  0  0  0  0  0  0  0  0
   56.9264   26.0124   47.9298 H   0  0  0  0  0  0  0  0  0  0  0  0
   57.7206   24.6894   47.0102 H   0  0  0  0  0  0  0  0  0  0  0  0
   58.4347   26.3377   47.0102 H   0  0  0  0  0  0  0  0  0  0  0  0
   58.0631   24.7876   45.0322 H   0  0  0  0  0  0  0  0  0  0  0  0
   56.5646   25.1350   44.0851 H   0  0  0  0  0  0  0  0  0  0  0  0
   59.0831   26.2748   43.6963 H   0  0  0  0  0  0  0  0  0  0  0  0
   57.4432   26.8813   43.0830 H   0  0  0  0  0  0  0  0  0  0  0  0
   57.6690   27.8760   45.4920 H   0  0  0  0  0  0  0  0  0  0  0  0
   58.5160   29.9087   43.8487 H   0  0  0  0  0  0  0  0  0  0  0  0
   57.3726   28.7836   42.9449 H   0  0  0  0  0  0  0  0  0  0  0  0
   58.1963   31.5113   43.5046 H   0  0  0  0  0  0  0  0  0  0  0  0
   56.9711   32.8099   43.3114 H   0  0  0  0  0  0  0  0  0  0  0  0
   56.9056   31.8958   46.6900 H   0  0  0  0  0  0  0  0  0  0  0  0
   58.0107   33.1178   48.5647 H   0  0  0  0  0  0  0  0  0  0  0  0
   60.9549   34.5790   50.0544 H   0  0  0  0  0  0  0  0  0  0  0  0
   61.3163   33.4609   48.6957 H   0  0  0  0  0  0  0  0  0  0  0  0
   61.9961   35.1236   48.6957 H   0  0  0  0  0  0  0  0  0  0  0  0
   60.4675   35.2666   45.7070 H   0  0  0  0  0  0  0  0  0  0  0  0
   59.3795   34.0277   43.8385 H   0  0  0  0  0  0  0  0  0  0  0  0
   61.4334   30.5099   46.0074 H   0  0  0  0  0  0  0  0  0  0  0  0
   61.4275   31.9844   48.0195 H   0  0  0  0  0  0  0  0  0  0  0  0
   60.4414   32.6020   50.1980 H   0  0  0  0  0  0  0  0  0  0  0  0
   58.8424   32.0835   52.0567 H   0  0  0  0  0  0  0  0  0  0  0  0
   58.3802   28.0142   47.8053 H   0  0  0  0  0  0  0  0  0  0  0  0
  1  2  1  0
  2  3  1  0
  3  4  1  0
  4  5  1  0
  5  6  1  0
  6  7  1  0
  7  8  2  0
  7  9  1  0
  9 10  1  0
 10 11  1  0
 11 12  2  0
 12 13  1  0
 13 14  2  0
 14 15  1  0
 15 16  1  0
 14 17  1  0
 17 18  2  0
  5 19  1  0
 19 20  2  0
 19 21  2  0
 19 22  1  0
 22 23  2  0
 23 24  1  0
 24 25  2  0
 25 26  1  0
 26 27  2  0
 27 28  1  0
 28 29  2  0
 28 30  1  0
 30 31  1  0
 31 32  2  0
 18 11  1  0
 32 22  1  0
 31 25  1  0
  1 33  1  0
  1 34  1  0
  1 35  1  0
  3 36  1  0
  3 37  1  0
  4 38  1  0
  4 39  1  0
  5 40  1  1
  6 41  1  0
  6 42  1  0
 10 43  1  0
 10 44  1  0
 12 45  1  0
 13 46  1  0
 16 47  1  0
 16 48  1  0
 16 49  1  0
 17 50  1  0
 18 51  1  0
 23 52  1  0
 24 53  1  0
 26 54  1  0
 27 55  1  0
 32 56  1  0
M  CHG  3   5   1   9  -1  30  -1
M  END
>  <UniqueID>  (77) 
71

>  <SMILES>  (77) 
COCC[N@H+](CC(=O)[N-]Cc1ccc(OC)cc1)S(=O)(=O)c1ccc2ccc(=O)[n-]c2c1

>  <Energy>  (77) 
63.90379681432006

>  <Genealogy>  (77) 
COCC[NH+](CC(=O)[N-]Cc1ccc(OC)cc1)S(=O)(=O)c1ccc2ccc(=O)[n-]c2c1 (protonated)
COCC[N@H+](CC(=O)[N-]Cc1ccc(OC)cc1)S(=O)(=O)c1ccc2ccc(=O)[n-]c2c1 (chirality)
COCC[N@H+](CC(=O)[N-]Cc1ccc(OC)cc1)S(=O)(=O)c1ccc2ccc(=O)[n-]c2c1 (3D coordinates assigned)
COCC[N@H+](CC(=O)[N-]Cc1ccc(OC)cc1)S(=O)(=O)c1ccc2ccc(=O)[n-]c2c1 (optimized conformer: 63.90379681432006 kcal/mol)

>  <smiles>  (77) 
COCCN(CC(=O)NCc1ccc(OC)cc1)S(=O)(=O)c1ccc2ccc(=O)[nH]c2c1

>  <score_type>  (77) 
oracle

>  <origin>  (77) 
adg

>  <m_score__min__energy>  (77) 
-10.380000000000001

>  <m_primary>  (77) 
energy

$$$$
77:0
     RDKit          3D

 32 33  0  0  1  0  0  0  0  0999 V2000
   55.4450   29.7110   43.5280 C   0  0  0  0  0  0  0  0  0  0  0  0
   55.5390   29.2570   44.8660 O   0  0  0  0  0  0  0  0  0  0  0  0
   56.7600   28.7470   45.2910 C   0  0  0  0  0  0  0  0  0  0  0  0
   57.0560   27.4330   45.2390 N   0  0  0  0  0  0  0  0  0  0  0  0
   58.2440   26.9480   45.6540 C   0  0  0  0  0  0  0  0  0  0  0  0
   58.4880   25.6890   45.5880 N   0  0  0  0  0  0  0  0  0  0  0  0
   59.1570   27.7980   46.1330 N   0  0  0  0  0  0  0  0  0  0  0  0
   58.8950   29.1080   46.1990 C   0  0  0  0  0  0  0  0  0  0  0  0
   59.7740   29.8890   46.6550 N   0  0  0  0  0  0  0  0  0  0  0  0
   59.7080   30.7910   47.7360 C   0  0  0  0  0  0  0  0  0  0  0  0
   59.7270   32.2240   47.3270 C   0  0  0  0  0  0  0  0  0  0  0  0
   60.8400   32.8140   46.7360 C   0  0  0  0  0  0  0  0  0  0  0  0
   60.8380   34.1530   46.3530 C   0  0  0  0  0  0  0  0  0  0  0  0
   59.7390   34.9560   46.5420 C   0  0  0  0  0  0  0  0  0  0  0  0
   58.6330   34.3870   47.1240 C   0  0  0  0  0  0  0  0  0  0  0  0
   58.6390   33.0720   47.4980 C   0  0  0  0  0  0  0  0  0  0  0  0
   57.6950   29.6260   45.7830 C   0  0  0  0  0  0  0  0  0  0  0  0
   57.4070   30.9820   45.8440 N   0  0  0  0  0  0  0  0  0  0  0  0
   56.9660   31.5900   44.8470 O   0  0  0  0  0  0  0  0  0  0  0  0
   55.2220   30.7881   43.5211 H   0  0  0  0  0  0  0  0  0  0  0  0
   56.3995   29.5309   43.0118 H   0  0  0  0  0  0  0  0  0  0  0  0
   54.6405   29.1667   43.0118 H   0  0  0  0  0  0  0  0  0  0  0  0
   56.3740   26.7540   44.8750 H   0  0  0  0  0  0  0  0  0  0  0  0
   58.7450   25.2040   44.7010 H   0  0  0  0  0  0  0  0  0  0  0  0
   60.0690   27.4220   46.4520 H   0  0  0  0  0  0  0  0  0  0  0  0
   58.7767   30.6009   48.2897 H   0  0  0  0  0  0  0  0  0  0  0  0
   60.6052   30.6214   48.3494 H   0  0  0  0  0  0  0  0  0  0  0  0
   61.7428   32.2085   46.5673 H   0  0  0  0  0  0  0  0  0  0  0  0
   61.7391   34.5786   45.8873 H   0  0  0  0  0  0  0  0  0  0  0  0
   59.7450   36.0134   46.2389 H   0  0  0  0  0  0  0  0  0  0  0  0
   57.7323   34.9959   47.2911 H   0  0  0  0  0  0  0  0  0  0  0  0
   57.7298   32.6611   47.9612 H   0  0  0  0  0  0  0  0  0  0  0  0
  1  2  1  0
  2  3  1  0
  3  4  1  0
  4  5  1  0
  5  6  2  3
  5  7  1  0
  7  8  1  0
  8  9  2  0
  9 10  1  0
 10 11  1  0
 11 12  2  0
 12 13  1  0
 13 14  2  0
 14 15  1  0
 15 16  2  0
  8 17  1  0
 17 18  1  0
 18 19  2  0
 17  3  2  0
 16 11  1  0
  1 20  1  0
  1 21  1  0
  1 22  1  0
  4 23  1  0
  6 24  1  0
  7 25  1  0
 10 26  1  0
 10 27  1  0
 12 28  1  0
 13 29  1  0
 14 30  1  0
 15 31  1  0
 16 32  1  0
M  END
>  <smiles>  (78) 
COc1[nH]c(=N)[nH]c(=NCc2ccccc2)c1N=O

>  <score_type>  (78) 
oracle

>  <origin>  (78) 
adg

>  <m_score__min__energy>  (78) 
-6.6200000000000001

>  <m_primary>  (78) 
energy

$$$$
78:0
     RDKit          3D

 33 35  0  0  0  0  0  0  0  0999 V2000
   57.0340   31.8180   42.5210 O   0  0  0  0  0  0  0  0  0  0  0  0
   57.2320   31.2760   43.9080 S   0  0  0  0  0  0  0  0  0  0  0  0
   55.9010   30.8460   44.4610 O   0  0  0  0  0  0  0  0  0  0  0  0
   58.2880   29.8990   43.8390 N   0  0  0  0  0  0  0  0  0  0  0  0
   58.0000   28.6330   44.4600 C   0  0  0  0  0  0  0  0  0  0  0  0
   57.6580   28.6020   45.8190 C   0  0  0  0  0  0  0  0  0  0  0  0
   57.3660   27.3910   46.4540 C   0  0  0  0  0  0  0  0  0  0  0  0
   57.4120   26.1790   45.7400 C   0  0  0  0  0  0  0  0  0  0  0  0
   57.1130   24.9180   46.3770 N   0  0  0  0  0  0  0  0  0  0  0  0
   57.8680   23.8030   46.4160 C   0  0  0  0  0  0  0  0  0  0  0  0
   57.2620   22.8220   47.1130 N   0  0  0  0  0  0  0  0  0  0  0  0
   56.1040   23.4060   47.4890 C   0  0  0  0  0  0  0  0  0  0  0  0
   56.0030   24.6750   47.0520 N   0  0  0  0  0  0  0  0  0  0  0  0
   57.7660   26.2120   44.3800 C   0  0  0  0  0  0  0  0  0  0  0  0
   58.0590   27.4230   43.7460 C   0  0  0  0  0  0  0  0  0  0  0  0
   57.9460   32.5340   44.9110 C   0  0  0  0  0  0  0  0  0  0  0  0
   57.8320   32.4800   46.3090 C   0  0  0  0  0  0  0  0  0  0  0  0
   58.4100   33.4780   47.0990 C   0  0  0  0  0  0  0  0  0  0  0  0
   59.1020   34.5340   46.5000 C   0  0  0  0  0  0  0  0  0  0  0  0
   59.2150   34.5940   45.1070 C   0  0  0  0  0  0  0  0  0  0  0  0
   58.6370   33.5990   44.3140 C   0  0  0  0  0  0  0  0  0  0  0  0
   59.2130   30.0380   43.3760 H   0  0  0  0  0  0  0  0  0  0  0  0
   57.6189   29.5402   46.3919 H   0  0  0  0  0  0  0  0  0  0  0  0
   57.0980   27.3855   47.5208 H   0  0  0  0  0  0  0  0  0  0  0  0
   58.8545   23.7057   45.9391 H   0  0  0  0  0  0  0  0  0  0  0  0
   55.3299   22.9012   48.0856 H   0  0  0  0  0  0  0  0  0  0  0  0
   57.8130   25.2737   43.8078 H   0  0  0  0  0  0  0  0  0  0  0  0
   58.3375   27.4294   42.6818 H   0  0  0  0  0  0  0  0  0  0  0  0
   57.2869   31.6509   46.7838 H   0  0  0  0  0  0  0  0  0  0  0  0
   58.3199   33.4320   48.1943 H   0  0  0  0  0  0  0  0  0  0  0  0
   59.5575   35.3175   47.1234 H   0  0  0  0  0  0  0  0  0  0  0  0
   59.7594   35.4253   44.6353 H   0  0  0  0  0  0  0  0  0  0  0  0
   58.7241   33.6510   43.2187 H   0  0  0  0  0  0  0  0  0  0  0  0
  1  2  2  0
  2  3  2  0
  2  4  1  0
  4  5  1  0
  5  6  2  0
  6  7  1  0
  7  8  2  0
  8  9  1  0
  9 10  1  0
 10 11  2  0
 11 12  1  0
 12 13  2  0
  8 14  1  0
 14 15  2  0
  2 16  1  0
 16 17  2  0
 17 18  1  0
 18 19  2  0
 19 20  1  0
 20 21  2  0
 15  5  1  0
 21 16  1  0
 13  9  1  0
  4 22  1  0
  6 23  1  0
  7 24  1  0
 10 25  1  0
 12 26  1  0
 14 27  1  0
 15 28  1  0
 17 29  1  0
 18 30  1  0
 19 31  1  0
 20 32  1  0
 21 33  1  0
M  END
>  <UniqueID>  (79) 
72

>  <SMILES>  (79) 
O=S(=O)(Nc1ccc(-n2cncn2)cc1)c1ccccc1

>  <Energy>  (79) 
73.46962398817168

>  <Genealogy>  (79) 
O=S(=O)(Nc1ccc(-n2cncn2)cc1)c1ccccc1 (3D coordinates assigned)
O=S(=O)(Nc1ccc(-n2cncn2)cc1)c1ccccc1 (optimized conformer: 73.46962398817168 kcal/mol)

>  <smiles>  (79) 
O=S(=O)(Nc1ccc(-n2cncn2)cc1)c1ccccc1

>  <score_type>  (79) 
oracle

>  <origin>  (79) 
adg

>  <m_score__min__energy>  (79) 
-8.0800000000000001

>  <m_primary>  (79) 
energy

$$$$
79:0
     RDKit          3D

 56 60  0  0  0  0  0  0  0  0999 V2000
   58.5290   25.5360   47.9060 O   0  0  0  0  0  0  0  0  0  0  0  0
   58.9100   26.6860   47.5530 C   0  0  0  0  0  0  0  0  0  0  0  0
   59.6510   27.5000   48.4190 O   0  0  0  0  0  0  0  0  0  0  0  0
   59.5590   28.8980   48.4940 C   0  0  0  0  0  0  0  0  0  0  0  0
   60.1930   29.6620   47.5070 C   0  0  0  0  0  0  0  0  0  0  0  0
   60.1320   31.0570   47.5420 C   0  0  0  0  0  0  0  0  0  0  0  0
   59.4250   31.7110   48.5620 C   0  0  0  0  0  0  0  0  0  0  0  0
   59.3730   33.1490   48.6090 N   0  0  0  0  0  0  0  0  0  0  0  0
   60.4710   33.9000   49.2430 C   0  0  0  0  0  0  0  0  0  0  0  0
   61.7680   33.6520   48.5160 C   0  0  0  0  0  0  0  0  0  0  0  0
   62.9030   33.1980   49.2110 C   0  0  0  0  0  0  0  0  0  0  0  0
   64.0860   32.9140   48.5220 C   0  0  0  0  0  0  0  0  0  0  0  0
   64.1510   33.0950   47.1370 C   0  0  0  0  0  0  0  0  0  0  0  0
   63.0350   33.5680   46.4410 C   0  0  0  0  0  0  0  0  0  0  0  0
   61.8490   33.8490   47.1270 C   0  0  0  0  0  0  0  0  0  0  0  0
   58.3240   33.8540   47.8560 C   0  0  0  0  0  0  0  0  0  0  0  0
   58.2930   33.4110   46.4090 C   0  0  0  0  0  0  0  0  0  0  0  0
   57.5400   32.2860   46.0510 C   0  0  0  0  0  0  0  0  0  0  0  0
   57.4110   31.9220   44.7080 C   0  0  0  0  0  0  0  0  0  0  0  0
   56.6220   30.8260   44.3280 C   0  0  0  0  0  0  0  0  0  0  0  0
   56.4920   30.4920   42.9770 C   0  0  0  0  0  0  0  0  0  0  0  0
   57.1480   31.2470   42.0010 C   0  0  0  0  0  0  0  0  0  0  0  0
   57.9350   32.3410   42.3690 C   0  0  0  0  0  0  0  0  0  0  0  0
   58.0710   32.6890   43.7230 C   0  0  0  0  0  0  0  0  0  0  0  0
   58.8220   33.7660   44.0910 N   0  0  0  0  0  0  0  0  0  0  0  0
   58.9400   34.1460   45.3950 C   0  0  0  0  0  0  0  0  0  0  0  0
   59.6240   35.1660   45.6810 O   0  0  0  0  0  0  0  0  0  0  0  0
   58.7590   30.9460   49.5310 C   0  0  0  0  0  0  0  0  0  0  0  0
   58.8230   29.5500   49.4990 C   0  0  0  0  0  0  0  0  0  0  0  0
   58.6280   27.1620   46.1950 C   0  0  0  0  0  0  0  0  0  0  0  0
   59.5650   27.4590   45.2250 C   0  0  0  0  0  0  0  0  0  0  0  0
   58.8410   27.8650   44.1230 C   0  0  0  0  0  0  0  0  0  0  0  0
   57.5120   27.7900   44.4900 C   0  0  0  0  0  0  0  0  0  0  0  0
   57.4180   27.3680   45.7310 O   0  0  0  0  0  0  0  0  0  0  0  0
   60.7434   29.1599   46.6977 H   0  0  0  0  0  0  0  0  0  0  0  0
   60.6413   31.6462   46.7652 H   0  0  0  0  0  0  0  0  0  0  0  0
   60.2390   34.9748   49.2133 H   0  0  0  0  0  0  0  0  0  0  0  0
   60.5770   33.5640   50.2850 H   0  0  0  0  0  0  0  0  0  0  0  0
   62.8599   33.0656   50.3022 H   0  0  0  0  0  0  0  0  0  0  0  0
   64.9666   32.5478   49.0701 H   0  0  0  0  0  0  0  0  0  0  0  0
   65.0803   32.8652   46.5953 H   0  0  0  0  0  0  0  0  0  0  0  0
   63.0895   33.7194   45.3528 H   0  0  0  0  0  0  0  0  0  0  0  0
   60.9748   34.2263   46.5762 H   0  0  0  0  0  0  0  0  0  0  0  0
   57.3480   33.6414   48.3167 H   0  0  0  0  0  0  0  0  0  0  0  0
   58.5415   34.9319   47.8843 H   0  0  0  0  0  0  0  0  0  0  0  0
   57.0477   31.6860   46.8305 H   0  0  0  0  0  0  0  0  0  0  0  0
   56.1053   30.2290   45.0939 H   0  0  0  0  0  0  0  0  0  0  0  0
   55.8719   29.6329   42.6813 H   0  0  0  0  0  0  0  0  0  0  0  0
   57.0443   30.9789   40.9392 H   0  0  0  0  0  0  0  0  0  0  0  0
   58.4495   32.9314   41.5965 H   0  0  0  0  0  0  0  0  0  0  0  0
   59.3090   34.3310   43.3570 H   0  0  0  0  0  0  0  0  0  0  0  0
   58.1823   31.4482   50.3217 H   0  0  0  0  0  0  0  0  0  0  0  0
   58.2957   28.9595   50.2627 H   0  0  0  0  0  0  0  0  0  0  0  0
   60.6591   27.3870   45.3126 H   0  0  0  0  0  0  0  0  0  0  0  0
   59.2414   28.1838   43.1493 H   0  0  0  0  0  0  0  0  0  0  0  0
   56.6607   28.0449   43.8417 H   0  0  0  0  0  0  0  0  0  0  0  0
  1  2  2  0
  2  3  1  0
  3  4  1  0
  4  5  2  0
  5  6  1  0
  6  7  2  0
  7  8  1  0
  8  9  1  0
  9 10  1  0
 10 11  2  0
 11 12  1  0
 12 13  2  0
 13 14  1  0
 14 15  2  0
  8 16  1  0
 16 17  1  0
 17 18  2  0
 18 19  1  0
 19 20  2  0
 20 21  1  0
 21 22  2  0
 22 23  1  0
 23 24  2  0
 24 25  1  0
 25 26  1  0
 26 27  2  0
  7 28  1  0
 28 29  2  0
  2 30  1  0
 30 31  2  0
 31 32  1  0
 32 33  2  0
 33 34  1  0
 29  4  1  0
 34 30  1  0
 15 10  1  0
 26 17  1  0
 24 19  1  0
  5 35  1  0
  6 36  1  0
  9 37  1  0
  9 38  1  0
 11 39  1  0
 12 40  1  0
 13 41  1  0
 14 42  1  0
 15 43  1  0
 16 44  1  0
 16 45  1  0
 18 46  1  0
 20 47  1  0
 21 48  1  0
 22 49  1  0
 23 50  1  0
 25 51  1  0
 28 52  1  0
 29 53  1  0
 31 54  1  0
 32 55  1  0
 33 56  1  0
M  END
>  <UniqueID>  (80) 
73

>  <SMILES>  (80) 
O=C(Oc1ccc(N(Cc2ccccc2)Cc2cc3ccccc3[nH]c2=O)cc1)c1ccco1

>  <Energy>  (80) 
96.55895724787668

>  <Genealogy>  (80) 
O=C(Oc1ccc(N(Cc2ccccc2)Cc2cc3ccccc3[nH]c2=O)cc1)c1ccco1 (3D coordinates assigned)
O=C(Oc1ccc(N(Cc2ccccc2)Cc2cc3ccccc3[nH]c2=O)cc1)c1ccco1 (optimized conformer: 96.55895724787668 kcal/mol)

>  <smiles>  (80) 
O=C(Oc1ccc(N(Cc2ccccc2)Cc2cc3ccccc3[nH]c2=O)cc1)c1ccco1

>  <score_type>  (80) 
oracle

>  <origin>  (80) 
adg

>  <m_score__min__energy>  (80) 
-9.5399999999999991

>  <m_primary>  (80) 
energy

$$$$
80:0
     RDKit          3D

 25 27  0  0  0  0  0  0  0  0999 V2000
   54.2310   26.7120   46.3980 H   0  0  0  0  0  0  0  0  0  0  0  0
   55.1440   26.4600   45.9570 N   0  0  0  0  0  0  0  0  0  0  0  0
   56.0100   27.3630   45.6320 C   0  0  0  0  0  0  0  0  0  0  0  0
   57.3500   27.0780   45.7080 N   0  0  0  0  0  0  0  0  0  0  0  0
   58.2920   28.0070   45.3740 C   0  0  0  0  0  0  0  0  0  0  0  0
   59.5200   27.7350   45.4500 O   0  0  0  0  0  0  0  0  0  0  0  0
   57.8520   29.2530   44.9510 C   0  0  0  0  0  0  0  0  0  0  0  0
   58.5630   30.3270   44.5800 N   0  0  0  0  0  0  0  0  0  0  0  0
   57.5830   31.2260   44.2820 C   0  0  0  0  0  0  0  0  0  0  0  0
   57.8820   32.6280   43.8600 C   0  0  0  0  0  0  0  0  0  0  0  0
   58.6666   32.6171   43.0891 H   0  0  0  0  0  0  0  0  0  0  0  0
   56.9678   33.0862   43.4548 H   0  0  0  0  0  0  0  0  0  0  0  0
   58.3550   33.4300   45.0410 C   0  0  0  0  0  0  0  0  0  0  0  0
   59.1720   34.5560   44.8590 C   0  0  0  0  0  0  0  0  0  0  0  0
   59.4477   34.8751   43.8431 H   0  0  0  0  0  0  0  0  0  0  0  0
   59.6240   35.2540   45.9350 N   0  0  0  0  0  0  0  0  0  0  0  0
   59.3130   34.8870   47.2070 C   0  0  0  0  0  0  0  0  0  0  0  0
   59.6905   35.4756   48.0562 H   0  0  0  0  0  0  0  0  0  0  0  0
   58.5150   33.7640   47.4370 C   0  0  0  0  0  0  0  0  0  0  0  0
   58.2644   33.4605   48.4642 H   0  0  0  0  0  0  0  0  0  0  0  0
   58.0390   33.0310   46.3480 C   0  0  0  0  0  0  0  0  0  0  0  0
   57.4158   32.1401   46.5152 H   0  0  0  0  0  0  0  0  0  0  0  0
   56.3140   30.7700   44.4650 N   0  0  0  0  0  0  0  0  0  0  0  0
   56.5300   29.5170   44.8820 C   0  0  0  0  0  0  0  0  0  0  0  0
   55.5900   28.5990   45.2150 N   0  0  0  0  0  0  0  0  0  0  0  0
  1  2  1  0
  2  3  2  0
  3  4  1  0
  4  5  1  0
  5  6  2  0
  5  7  1  0
  7  8  1  0
  8  9  2  0
  9 10  1  0
 10 11  1  0
 10 12  1  0
 10 13  1  0
 13 14  2  0
 14 15  1  0
 14 16  1  0
 16 17  2  0
 17 18  1  0
 17 19  1  0
 19 20  1  0
 19 21  2  0
 21 22  1  0
  9 23  1  0
 23 24  1  0
 24 25  1  0
 25  3  1  0
 24  7  2  0
 21 13  1  0
M  CHG  3   4  -1  23  -1  25  -1
M  END
>  <UniqueID>  (81) 
74

>  <SMILES>  (81) 
[H]/N=c1/[n-]c(=O)c2nc(Cc3cccnc3)[n-]c2[n-]1

>  <Energy>  (81) 
64.76952920198958

>  <Genealogy>  (81) 
N=c1[n-]c(=O)c2nc(Cc3cccnc3)[n-]c2[n-]1 (protonated)
[H]/N=c1/[n-]c(=O)c2nc(Cc3cccnc3)[n-]c2[n-]1 (cis-trans isomerization)
[H]/N=c1/[n-]c(=O)c2nc(Cc3cccnc3)[n-]c2[n-]1 (3D coordinates assigned)
[H]/N=c1/[n-]c(=O)c2nc(Cc3cccnc3)[n-]c2[n-]1 (optimized conformer: 64.76952920198958 kcal/mol)

>  <smiles>  (81) 
N=c1[nH]c(=O)c2nc(Cc3cccnc3)[nH]c2[nH]1

>  <score_type>  (81) 
oracle

>  <origin>  (81) 
adg

>  <m_score__min__energy>  (81) 
-13.279999999999999

>  <m_primary>  (81) 
energy

$$$$
81:0
     RDKit          3D

 23 24  0  0  0  0  0  0  0  0999 V2000
   56.4108   25.6269   46.9695 H   0  0  0  0  0  0  0  0  0  0  0  0
   56.0090   26.2790   46.1800 C   0  0  0  0  0  0  0  0  0  0  0  0
   54.7630   26.3240   46.0000 O   0  0  0  0  0  0  0  0  0  0  0  0
   56.9200   27.0530   45.3860 N   0  0  0  0  0  0  0  0  0  0  0  0
   56.9970   28.3500   45.3100 C   0  0  0  0  0  0  0  0  0  0  0  0
   55.9730   29.1030   44.8580 N   0  0  0  0  0  0  0  0  0  0  0  0
   56.2390   30.4080   44.8560 N   0  0  0  0  0  0  0  0  0  0  0  0
   57.4850   30.7130   45.2900 C   0  0  0  0  0  0  0  0  0  0  0  0
   57.9670   32.1050   45.4480 C   0  0  0  0  0  0  0  0  0  0  0  0
   58.1160   32.6060   46.7540 C   0  0  0  0  0  0  0  0  0  0  0  0
   57.8490   31.9727   47.6129 H   0  0  0  0  0  0  0  0  0  0  0  0
   58.5990   33.8980   46.9730 C   0  0  0  0  0  0  0  0  0  0  0  0
   58.7133   34.2753   47.9999 H   0  0  0  0  0  0  0  0  0  0  0  0
   58.9360   34.7090   45.8920 C   0  0  0  0  0  0  0  0  0  0  0  0
   59.3277   35.7219   46.0671 H   0  0  0  0  0  0  0  0  0  0  0  0
   58.7780   34.2400   44.5880 C   0  0  0  0  0  0  0  0  0  0  0  0
   59.0502   34.8860   43.7403 H   0  0  0  0  0  0  0  0  0  0  0  0
   58.2740   32.9490   44.3460 C   0  0  0  0  0  0  0  0  0  0  0  0
   58.0720   32.5150   42.9180 C   0  0  0  0  0  0  0  0  0  0  0  0
   57.6079   31.5179   42.9000 H   0  0  0  0  0  0  0  0  0  0  0  0
   57.4160   33.2341   42.4055 H   0  0  0  0  0  0  0  0  0  0  0  0
   59.0446   32.4761   42.4055 H   0  0  0  0  0  0  0  0  0  0  0  0
   58.3150   29.3130   45.7430 S   0  0  0  0  0  0  0  0  0  0  0  0
  1  2  1  0
  2  3  2  0
  2  4  1  0
  4  5  2  0
  5  6  1  0
  6  7  1  0
  7  8  2  0
  8  9  1  0
  9 10  2  0
 10 11  1  0
 10 12  1  0
 12 13  1  0
 12 14  2  0
 14 15  1  0
 14 16  1  0
 16 17  1  0
 16 18  2  0
 18 19  1  0
 19 20  1  0
 19 21  1  0
 19 22  1  0
  8 23  1  0
 23  5  1  0
 18  9  1  0
M  CHG  1   6  -1
M  END
>  <UniqueID>  (82) 
75

>  <SMILES>  (82) 
Cc1ccccc1-c1n[n-]/c(=N/C=O)s1

>  <Energy>  (82) 
66.74655544965067

>  <Genealogy>  (82) 
Cc1ccccc1-c1n[n-]c(=NC=O)s1 (protonated)
Cc1ccccc1-c1n[n-]/c(=N/C=O)s1 (cis-trans isomerization)
Cc1ccccc1-c1n[n-]/c(=N/C=O)s1 (3D coordinates assigned)
Cc1ccccc1-c1n[n-]/c(=N/C=O)s1 (optimized conformer: 66.74655544965067 kcal/mol)

>  <smiles>  (82) 
Cc1ccccc1-c1n[nH]c(=NC=O)s1

>  <score_type>  (82) 
oracle

>  <origin>  (82) 
adg

>  <m_score__min__energy>  (82) 
-8.8900000000000006

>  <m_primary>  (82) 
energy

$$$$
82:0
     RDKit          3D

 33 35  0  0  0  0  0  0  0  0999 V2000
   56.2820   24.4880   44.4550 C   0  0  0  0  0  0  0  0  0  0  0  0
   55.6010   25.1140   45.9770 S   0  0  0  0  0  0  0  0  0  0  0  0
   54.7160   24.0820   46.6200 O   0  0  0  0  0  0  0  0  0  0  0  0
   54.7760   26.3310   45.6700 O   0  0  0  0  0  0  0  0  0  0  0  0
   56.8760   25.5640   47.0630 N   0  0  0  0  0  0  0  0  0  0  0  0
   57.9930   26.4070   46.7460 C   0  0  0  0  0  0  0  0  0  0  0  0
   59.2580   25.8210   46.6410 C   0  0  0  0  0  0  0  0  0  0  0  0
   60.3750   26.6010   46.3400 C   0  0  0  0  0  0  0  0  0  0  0  0
   60.2390   27.9760   46.1400 C   0  0  0  0  0  0  0  0  0  0  0  0
   58.9770   28.5900   46.2360 C   0  0  0  0  0  0  0  0  0  0  0  0
   58.8310   30.0520   46.0220 C   0  0  0  0  0  0  0  0  0  0  0  0
   58.1240   30.6730   44.9910 C   0  0  0  0  0  0  0  0  0  0  0  0
   58.2710   32.0270   45.2030 C   0  0  0  0  0  0  0  0  0  0  0  0
   57.7580   33.0820   44.4500 C   0  0  0  0  0  0  0  0  0  0  0  0
   58.0500   34.3880   44.8730 C   0  0  0  0  0  0  0  0  0  0  0  0
   58.8350   34.6040   46.0220 C   0  0  0  0  0  0  0  0  0  0  0  0
   59.3250   33.5030   46.7400 C   0  0  0  0  0  0  0  0  0  0  0  0
   59.0200   32.2560   46.2950 N   0  0  0  0  0  0  0  0  0  0  0  0
   59.3740   31.0660   46.8110 C   0  0  0  0  0  0  0  0  0  0  0  0
   57.8560   27.7930   46.5410 C   0  0  0  0  0  0  0  0  0  0  0  0
   57.0747   23.7594   44.6803 H   0  0  0  0  0  0  0  0  0  0  0  0
   55.4881   23.9978   43.8724 H   0  0  0  0  0  0  0  0  0  0  0  0
   56.7038   25.3202   43.8724 H   0  0  0  0  0  0  0  0  0  0  0  0
   59.3734   24.7382   46.7967 H   0  0  0  0  0  0  0  0  0  0  0  0
   61.3663   26.1309   46.2600 H   0  0  0  0  0  0  0  0  0  0  0  0
   61.1253   28.5838   45.9056 H   0  0  0  0  0  0  0  0  0  0  0  0
   57.5660   30.1839   44.1789 H   0  0  0  0  0  0  0  0  0  0  0  0
   57.1455   32.8973   43.5552 H   0  0  0  0  0  0  0  0  0  0  0  0
   57.6639   35.2468   44.3044 H   0  0  0  0  0  0  0  0  0  0  0  0
   59.0621   35.6279   46.3538 H   0  0  0  0  0  0  0  0  0  0  0  0
   59.9405   33.6456   47.6404 H   0  0  0  0  0  0  0  0  0  0  0  0
   59.9913   30.9164   47.7091 H   0  0  0  0  0  0  0  0  0  0  0  0
   56.8627   28.2589   46.6198 H   0  0  0  0  0  0  0  0  0  0  0  0
  1  2  1  0
  2  3  2  0
  2  4  2  0
  2  5  1  0
  5  6  1  0
  6  7  2  0
  7  8  1  0
  8  9  2  0
  9 10  1  0
 10 11  1  0
 11 12  1  0
 12 13  2  0
 13 14  1  0
 14 15  2  0
 15 16  1  0
 16 17  2  0
 17 18  1  0
 18 19  1  0
 10 20  2  0
 20  6  1  0
 19 11  2  0
 18 13  1  0
  1 21  1  0
  1 22  1  0
  1 23  1  0
  7 24  1  0
  8 25  1  0
  9 26  1  0
 12 27  1  0
 14 28  1  0
 15 29  1  0
 16 30  1  0
 17 31  1  0
 19 32  1  0
 20 33  1  0
M  CHG  1   5  -1
M  END
>  <UniqueID>  (83) 
76

>  <SMILES>  (83) 
CS(=O)(=O)[N-]c1cccc(-c2cc3ccccn3c2)c1

>  <Energy>  (83) 
67.76775179482428

>  <Genealogy>  (83) 
CS(=O)(=O)[N-]c1cccc(-c2cc3ccccn3c2)c1 (protonated)
CS(=O)(=O)[N-]c1cccc(-c2cc3ccccn3c2)c1 (3D coordinates assigned)
CS(=O)(=O)[N-]c1cccc(-c2cc3ccccn3c2)c1 (optimized conformer: 67.76775179482428 kcal/mol)

>  <smiles>  (83) 
CS(=O)(=O)Nc1cccc(-c2cc3ccccn3c2)c1

>  <score_type>  (83) 
oracle

>  <origin>  (83) 
adg

>  <m_score__min__energy>  (83) 
-9.5999999999999996

>  <m_primary>  (83) 
energy

$$$$
83:0
     RDKit          3D

 38 40  0  0  0  0  0  0  0  0999 V2000
   56.6580   30.4920   44.8420 O   0  0  0  0  0  0  0  0  0  0  0  0
   57.7720   30.8420   45.3190 C   0  0  0  0  0  0  0  0  0  0  0  0
   58.7890   29.8610   45.5790 N   0  0  0  0  0  0  0  0  0  0  0  0
   58.5320   28.4480   45.6720 C   0  0  0  0  0  0  0  0  0  0  0  0
   57.2130   27.9980   45.8270 C   0  0  0  0  0  0  0  0  0  0  0  0
   56.9340   26.6310   45.8980 C   0  0  0  0  0  0  0  0  0  0  0  0
   57.9700   25.6870   45.8120 C   0  0  0  0  0  0  0  0  0  0  0  0
   57.6810   24.2360   45.8740 C   0  0  0  0  0  0  0  0  0  0  0  0
   57.7030   23.6570   46.9950 O   0  0  0  0  0  0  0  0  0  0  0  0
   57.3660   23.4760   44.6920 N   0  0  0  0  0  0  0  0  0  0  0  0
   57.8740   22.1110   44.5270 C   0  0  0  0  0  0  0  0  0  0  0  0
   56.7880   21.2310   43.9000 C   0  0  0  0  0  0  0  0  0  0  0  0
   56.2820   21.8200   42.7170 O   0  0  0  0  0  0  0  0  0  0  0  0
   55.6240   23.0350   43.0300 C   0  0  0  0  0  0  0  0  0  0  0  0
   56.6160   24.0650   43.5780 C   0  0  0  0  0  0  0  0  0  0  0  0
   59.2860   26.1360   45.6150 C   0  0  0  0  0  0  0  0  0  0  0  0
   59.5660   27.5050   45.5450 C   0  0  0  0  0  0  0  0  0  0  0  0
   58.0220   32.2720   45.5600 C   0  0  0  0  0  0  0  0  0  0  0  0
   57.7750   33.3140   44.6860 C   0  0  0  0  0  0  0  0  0  0  0  0
   58.1730   34.4560   45.3460 C   0  0  0  0  0  0  0  0  0  0  0  0
   58.6400   34.0450   46.5770 C   0  0  0  0  0  0  0  0  0  0  0  0
   58.5360   32.7400   46.6750 O   0  0  0  0  0  0  0  0  0  0  0  0
   59.7850   30.1750   45.6010 H   0  0  0  0  0  0  0  0  0  0  0  0
   56.3918   28.7269   45.8932 H   0  0  0  0  0  0  0  0  0  0  0  0
   55.8951   26.2916   46.0222 H   0  0  0  0  0  0  0  0  0  0  0  0
   58.7571   22.1258   43.8713 H   0  0  0  0  0  0  0  0  0  0  0  0
   58.1522   21.7033   45.5101 H   0  0  0  0  0  0  0  0  0  0  0  0
   57.2167   20.2474   43.6578 H   0  0  0  0  0  0  0  0  0  0  0  0
   55.9633   21.1237   44.6199 H   0  0  0  0  0  0  0  0  0  0  0  0
   55.1542   23.4356   42.1196 H   0  0  0  0  0  0  0  0  0  0  0  0
   54.8622   22.8358   43.7981 H   0  0  0  0  0  0  0  0  0  0  0  0
   57.3145   24.3613   42.7816 H   0  0  0  0  0  0  0  0  0  0  0  0
   56.0675   24.9502   43.9323 H   0  0  0  0  0  0  0  0  0  0  0  0
   60.1027   25.4059   45.5150 H   0  0  0  0  0  0  0  0  0  0  0  0
   60.6006   27.8448   45.3898 H   0  0  0  0  0  0  0  0  0  0  0  0
   57.3492   33.2457   43.6740 H   0  0  0  0  0  0  0  0  0  0  0  0
   58.1275   35.4878   44.9674 H   0  0  0  0  0  0  0  0  0  0  0  0
   59.0388   34.7094   47.3577 H   0  0  0  0  0  0  0  0  0  0  0  0
  1  2  2  0
  2  3  1  0
  3  4  1  0
  4  5  2  0
  5  6  1  0
  6  7  2  0
  7  8  1  0
  8  9  2  0
  8 10  1  0
 10 11  1  0
 11 12  1  0
 12 13  1  0
 13 14  1  0
 14 15  1  0
  7 16  1  0
 16 17  2  0
  2 18  1  0
 18 19  2  0
 19 20  1  0
 20 21  2  0
 21 22  1  0
 17  4  1  0
 22 18  1  0
 15 10  1  0
  3 23  1  0
  5 24  1  0
  6 25  1  0
 11 26  1  0
 11 27  1  0
 12 28  1  0
 12 29  1  0
 14 30  1  0
 14 31  1  0
 15 32  1  0
 15 33  1  0
 16 34  1  0
 17 35  1  0
 19 36  1  0
 20 37  1  0
 21 38  1  0
M  END
>  <UniqueID>  (84) 
77

>  <SMILES>  (84) 
O=C(Nc1ccc(C(=O)N2CCOCC2)cc1)c1ccco1

>  <Energy>  (84) 
74.99868612570499

>  <Genealogy>  (84) 
O=C(Nc1ccc(C(=O)N2CCOCC2)cc1)c1ccco1 (3D coordinates assigned)
O=C(Nc1ccc(C(=O)N2CCOCC2)cc1)c1ccco1 (nonaromatic ring conformer: 74.99868612570499 kcal/mol)

>  <smiles>  (84) 
O=C(Nc1ccc(C(=O)N2CCOCC2)cc1)c1ccco1

>  <score_type>  (84) 
oracle

>  <origin>  (84) 
adg

>  <m_score__min__energy>  (84) 
-7.5599999999999996

>  <m_primary>  (84) 
energy

$$$$
84:0
     RDKit          3D

 32 34  0  0  0  0  0  0  0  0999 V2000
   55.3560   26.2780   46.1400 O   0  0  0  0  0  0  0  0  0  0  0  0
   56.2600   27.1250   45.9170 C   0  0  0  0  0  0  0  0  0  0  0  0
   55.9080   28.3480   45.2450 N   0  0  0  0  0  0  0  0  0  0  0  0
   56.7320   29.1940   44.3710 C   0  0  0  0  0  0  0  0  0  0  0  0
   58.1650   29.3730   44.9170 C   0  0  0  0  0  0  0  0  0  0  0  0
   58.2410   30.8210   45.2300 C   0  0  0  0  0  0  0  0  0  0  0  0
   59.2890   31.4830   45.8740 C   0  0  0  0  0  0  0  0  0  0  0  0
   59.1730   32.8620   46.1090 C   0  0  0  0  0  0  0  0  0  0  0  0
   58.0210   33.5540   45.6950 C   0  0  0  0  0  0  0  0  0  0  0  0
   56.9820   32.8710   45.0450 C   0  0  0  0  0  0  0  0  0  0  0  0
   57.1150   31.4980   44.8260 C   0  0  0  0  0  0  0  0  0  0  0  0
   56.1250   30.6030   44.1840 C   0  0  0  0  0  0  0  0  0  0  0  0
   57.6300   26.8200   46.3560 C   0  0  0  0  0  0  0  0  0  0  0  0
   58.4170   25.9090   45.6340 C   0  0  0  0  0  0  0  0  0  0  0  0
   59.7230   25.6290   46.0450 C   0  0  0  0  0  0  0  0  0  0  0  0
   60.2610   26.2790   47.1590 C   0  0  0  0  0  0  0  0  0  0  0  0
   59.4970   27.2210   47.8560 C   0  0  0  0  0  0  0  0  0  0  0  0
   58.1900   27.5020   47.4480 C   0  0  0  0  0  0  0  0  0  0  0  0
   56.7616   28.6671   43.4059 H   0  0  0  0  0  0  0  0  0  0  0  0
   58.3189   28.7670   45.8220 H   0  0  0  0  0  0  0  0  0  0  0  0
   58.9375   29.0488   44.2041 H   0  0  0  0  0  0  0  0  0  0  0  0
   60.1880   30.9341   46.1909 H   0  0  0  0  0  0  0  0  0  0  0  0
   59.9848   33.4023   46.6180 H   0  0  0  0  0  0  0  0  0  0  0  0
   57.9341   34.6346   45.8814 H   0  0  0  0  0  0  0  0  0  0  0  0
   56.0799   33.4066   44.7142 H   0  0  0  0  0  0  0  0  0  0  0  0
   55.1469   30.6783   44.6817 H   0  0  0  0  0  0  0  0  0  0  0  0
   55.9446   30.8535   43.1282 H   0  0  0  0  0  0  0  0  0  0  0  0
   58.0046   25.4142   44.7423 H   0  0  0  0  0  0  0  0  0  0  0  0
   60.3281   24.8962   45.4911 H   0  0  0  0  0  0  0  0  0  0  0  0
   61.2854   26.0499   47.4878 H   0  0  0  0  0  0  0  0  0  0  0  0
   59.9251   27.7409   48.7257 H   0  0  0  0  0  0  0  0  0  0  0  0
   57.5988   28.2593   47.9837 H   0  0  0  0  0  0  0  0  0  0  0  0
  1  2  2  0
  2  3  1  0
  3  4  1  0
  4  5  1  0
  5  6  1  0
  6  7  2  0
  7  8  1  0
  8  9  2  0
  9 10  1  0
 10 11  2  0
 11 12  1  0
  2 13  1  0
 13 14  2  0
 14 15  1  0
 15 16  2  0
 16 17  1  0
 17 18  2  0
 12  4  1  0
 18 13  1  0
 11  6  1  0
  4 19  1  0
  5 20  1  0
  5 21  1  0
  7 22  1  0
  8 23  1  0
  9 24  1  0
 10 25  1  0
 12 26  1  0
 12 27  1  0
 14 28  1  0
 15 29  1  0
 16 30  1  0
 17 31  1  0
 18 32  1  0
M  CHG  1   3  -1
M  END
>  <UniqueID>  (85) 
78

>  <SMILES>  (85) 
O=C([N-]C1Cc2ccccc2C1)c1ccccc1

>  <Energy>  (85) 
47.44817746089871

>  <Genealogy>  (85) 
O=C([N-]C1Cc2ccccc2C1)c1ccccc1 (protonated)
O=C([N-]C1Cc2ccccc2C1)c1ccccc1 (3D coordinates assigned)
O=C([N-]C1Cc2ccccc2C1)c1ccccc1 (nonaromatic ring conformer: 47.44817746089871 kcal/mol)

>  <smiles>  (85) 
O=C(NC1Cc2ccccc2C1)c1ccccc1

>  <score_type>  (85) 
oracle

>  <origin>  (85) 
adg

>  <m_score__min__energy>  (85) 
-9.1400000000000006

>  <m_primary>  (85) 
energy

$$$$
85:0
     RDKit          3D

 42 44  0  0  0  0  0  0  0  0999 V2000
   61.7390   31.7430   47.4540 C   0  0  0  0  0  0  0  0  0  0  0  0
   60.3470   31.6830   47.1630 O   0  0  0  0  0  0  0  0  0  0  0  0
   59.6510   32.6220   46.3830 C   0  0  0  0  0  0  0  0  0  0  0  0
   60.0220   33.9830   46.3620 C   0  0  0  0  0  0  0  0  0  0  0  0
   59.2820   34.9070   45.6220 C   0  0  0  0  0  0  0  0  0  0  0  0
   58.1650   34.4910   44.8990 C   0  0  0  0  0  0  0  0  0  0  0  0
   57.7900   33.1470   44.9030 C   0  0  0  0  0  0  0  0  0  0  0  0
   58.5370   32.2000   45.6240 C   0  0  0  0  0  0  0  0  0  0  0  0
   58.1160   30.7830   45.5930 C   0  0  0  0  0  0  0  0  0  0  0  0
   56.9560   30.5000   45.1880 O   0  0  0  0  0  0  0  0  0  0  0  0
   59.0150   29.7400   46.0140 N   0  0  0  0  0  0  0  0  0  0  0  0
   58.6810   28.3430   46.0190 C   0  0  0  0  0  0  0  0  0  0  0  0
   58.7380   27.6280   47.2240 C   0  0  0  0  0  0  0  0  0  0  0  0
   58.4410   26.2630   47.2540 C   0  0  0  0  0  0  0  0  0  0  0  0
   58.1130   25.5810   46.0700 C   0  0  0  0  0  0  0  0  0  0  0  0
   57.7770   24.1830   46.0800 N   0  0  0  0  0  0  0  0  0  0  0  0
   57.3920   23.4310   44.9160 C   0  0  0  0  0  0  0  0  0  0  0  0
   58.0940   22.2600   44.5870 C   0  0  0  0  0  0  0  0  0  0  0  0
   57.7190   21.5000   43.4760 C   0  0  0  0  0  0  0  0  0  0  0  0
   56.6290   21.8930   42.6930 C   0  0  0  0  0  0  0  0  0  0  0  0
   55.9090   23.0430   43.0260 C   0  0  0  0  0  0  0  0  0  0  0  0
   56.2820   23.8060   44.1360 C   0  0  0  0  0  0  0  0  0  0  0  0
   58.0570   26.2940   44.8650 C   0  0  0  0  0  0  0  0  0  0  0  0
   58.3530   27.6600   44.8340 C   0  0  0  0  0  0  0  0  0  0  0  0
   61.8858   31.7493   48.5441 H   0  0  0  0  0  0  0  0  0  0  0  0
   62.2422   30.8657   47.0214 H   0  0  0  0  0  0  0  0  0  0  0  0
   62.1648   32.6603   47.0214 H   0  0  0  0  0  0  0  0  0  0  0  0
   60.9005   34.3185   46.9327 H   0  0  0  0  0  0  0  0  0  0  0  0
   59.5809   35.9655   45.6094 H   0  0  0  0  0  0  0  0  0  0  0  0
   57.5785   35.2232   44.3246 H   0  0  0  0  0  0  0  0  0  0  0  0
   56.9028   32.8263   44.3374 H   0  0  0  0  0  0  0  0  0  0  0  0
   59.9490   30.0100   46.3960 H   0  0  0  0  0  0  0  0  0  0  0  0
   59.0188   28.1459   48.1530 H   0  0  0  0  0  0  0  0  0  0  0  0
   58.4641   25.7192   48.2099 H   0  0  0  0  0  0  0  0  0  0  0  0
   57.8170   23.6790   46.9950 H   0  0  0  0  0  0  0  0  0  0  0  0
   58.9438   21.9393   45.2074 H   0  0  0  0  0  0  0  0  0  0  0  0
   58.2820   20.5912   43.2169 H   0  0  0  0  0  0  0  0  0  0  0  0
   56.3386   21.2969   41.8153 H   0  0  0  0  0  0  0  0  0  0  0  0
   55.0475   23.3483   42.4139 H   0  0  0  0  0  0  0  0  0  0  0  0
   55.7051   24.7042   44.4014 H   0  0  0  0  0  0  0  0  0  0  0  0
   57.7780   25.7749   43.9362 H   0  0  0  0  0  0  0  0  0  0  0  0
   58.3293   28.2034   43.8779 H   0  0  0  0  0  0  0  0  0  0  0  0
  1  2  1  0
  2  3  1  0
  3  4  2  0
  4  5  1  0
  5  6  2  0
  6  7  1  0
  7  8  2  0
  8  9  1  0
  9 10  2  0
  9 11  1  0
 11 12  1  0
 12 13  2  0
 13 14  1  0
 14 15  2  0
 15 16  1  0
 16 17  1  0
 17 18  2  0
 18 19  1  0
 19 20  2  0
 20 21  1  0
 21 22  2  0
 15 23  1  0
 23 24  2  0
  8  3  1  0
 24 12  1  0
 22 17  1  0
  1 25  1  0
  1 26  1  0
  1 27  1  0
  4 28  1  0
  5 29  1  0
  6 30  1  0
  7 31  1  0
 11 32  1  0
 13 33  1  0
 14 34  1  0
 16 35  1  0
 18 36  1  0
 19 37  1  0
 20 38  1  0
 21 39  1  0
 22 40  1  0
 23 41  1  0
 24 42  1  0
M  END
>  <UniqueID>  (86) 
79

>  <SMILES>  (86) 
COc1ccccc1C(=O)Nc1ccc(Nc2ccccc2)cc1

>  <Energy>  (86) 
58.31731982139827

>  <Genealogy>  (86) 
COc1ccccc1C(=O)Nc1ccc(Nc2ccccc2)cc1 (3D coordinates assigned)
COc1ccccc1C(=O)Nc1ccc(Nc2ccccc2)cc1 (optimized conformer: 58.31731982139827 kcal/mol)

>  <smiles>  (86) 
COc1ccccc1C(=O)Nc1ccc(Nc2ccccc2)cc1

>  <score_type>  (86) 
oracle

>  <origin>  (86) 
adg

>  <m_score__min__energy>  (86) 
-7.79

>  <m_primary>  (86) 
energy

$$$$
86:0
     RDKit          3D

 36 38  0  0  0  0  0  0  0  0999 V2000
   58.6375   26.9024   47.2397 H   0  0  0  0  0  0  0  0  0  0  0  0
   58.4060   27.8810   46.7940 C   0  0  0  0  0  0  0  0  0  0  0  0
   57.4050   27.9330   45.8960 C   0  0  0  0  0  0  0  0  0  0  0  0
   56.3720   26.9290   45.9540 C   0  0  0  0  0  0  0  0  0  0  0  0
   55.5430   26.1230   46.0000 N   0  0  0  0  0  0  0  0  0  0  0  0
   57.3140   28.9400   44.8200 C   0  0  0  0  0  0  0  0  0  0  0  0
   57.4890   30.2270   45.0030 O   0  0  0  0  0  0  0  0  0  0  0  0
   57.3020   30.7700   43.8190 C   0  0  0  0  0  0  0  0  0  0  0  0
   57.4510   32.2270   43.5300 C   0  0  0  0  0  0  0  0  0  0  0  0
   58.1442   32.3630   42.6868 H   0  0  0  0  0  0  0  0  0  0  0  0
   56.4680   32.6487   43.2734 H   0  0  0  0  0  0  0  0  0  0  0  0
   57.9930   32.9330   44.7400 C   0  0  0  0  0  0  0  0  0  0  0  0
   57.3860   32.7570   45.9950 C   0  0  0  0  0  0  0  0  0  0  0  0
   56.5296   32.0744   46.0981 H   0  0  0  0  0  0  0  0  0  0  0  0
   57.8660   33.4460   47.1140 C   0  0  0  0  0  0  0  0  0  0  0  0
   57.3917   33.2990   48.0955 H   0  0  0  0  0  0  0  0  0  0  0  0
   58.9480   34.3210   46.9850 C   0  0  0  0  0  0  0  0  0  0  0  0
   59.3278   34.8590   47.8661 H   0  0  0  0  0  0  0  0  0  0  0  0
   59.5480   34.5130   45.7370 C   0  0  0  0  0  0  0  0  0  0  0  0
   60.3966   35.2056   45.6363 H   0  0  0  0  0  0  0  0  0  0  0  0
   59.0710   33.8260   44.6170 C   0  0  0  0  0  0  0  0  0  0  0  0
   59.5414   33.9850   43.6354 H   0  0  0  0  0  0  0  0  0  0  0  0
   57.0040   29.8410   42.8880 N   0  0  0  0  0  0  0  0  0  0  0  0
   57.0070   28.6870   43.5320 N   0  0  0  0  0  0  0  0  0  0  0  0
   56.7800   27.7660   43.0970 H   0  0  0  0  0  0  0  0  0  0  0  0
   59.2190   29.0380   47.2280 C   0  0  0  0  0  0  0  0  0  0  0  0
   59.0160   29.6490   48.4800 C   0  0  0  0  0  0  0  0  0  0  0  0
   58.2216   29.2816   49.1464 H   0  0  0  0  0  0  0  0  0  0  0  0
   59.8200   30.7210   48.8800 C   0  0  0  0  0  0  0  0  0  0  0  0
   59.6451   31.2071   49.8511 H   0  0  0  0  0  0  0  0  0  0  0  0
   60.8460   31.1750   48.0460 C   0  0  0  0  0  0  0  0  0  0  0  0
   61.4741   32.0223   48.3584 H   0  0  0  0  0  0  0  0  0  0  0  0
   61.0740   30.5530   46.8160 C   0  0  0  0  0  0  0  0  0  0  0  0
   61.8869   30.9061   46.1645 H   0  0  0  0  0  0  0  0  0  0  0  0
   60.2710   29.4830   46.4120 C   0  0  0  0  0  0  0  0  0  0  0  0
   60.4643   28.9868   45.4495 H   0  0  0  0  0  0  0  0  0  0  0  0
  1  2  1  0
  2  3  2  0
  3  4  1  0
  4  5  3  0
  3  6  1  0
  6  7  1  0
  7  8  1  0
  8  9  1  0
  9 10  1  0
  9 11  1  0
  9 12  1  0
 12 13  2  0
 13 14  1  0
 13 15  1  0
 15 16  1  0
 15 17  2  0
 17 18  1  0
 17 19  1  0
 19 20  1  0
 19 21  2  0
 21 22  1  0
  8 23  2  0
 23 24  1  0
 24 25  1  0
  2 26  1  0
 26 27  2  0
 27 28  1  0
 27 29  1  0
 29 30  1  0
 29 31  2  0
 31 32  1  0
 31 33  1  0
 33 34  1  0
 33 35  2  0
 35 36  1  0
 24  6  2  0
 35 26  1  0
 21 12  1  0
M  CHG  1  24   1
M  END
>  <UniqueID>  (87) 
80

>  <SMILES>  (87) 
N#C/C(=C/c1ccccc1)c1[nH+]nc(Cc2ccccc2)o1

>  <Energy>  (87) 
79.3185319062723

>  <Genealogy>  (87) 
N#CC(=Cc1ccccc1)c1[nH+]nc(Cc2ccccc2)o1 (protonated)
N#C/C(=C/c1ccccc1)c1[nH+]nc(Cc2ccccc2)o1 (cis-trans isomerization)
N#C/C(=C/c1ccccc1)c1[nH+]nc(Cc2ccccc2)o1 (3D coordinates assigned)
N#C/C(=C/c1ccccc1)c1[nH+]nc(Cc2ccccc2)o1 (optimized conformer: 79.3185319062723 kcal/mol)

>  <smiles>  (87) 
N#CC(=Cc1ccccc1)c1nnc(Cc2ccccc2)o1

>  <score_type>  (87) 
oracle

>  <origin>  (87) 
adg

>  <m_score__min__energy>  (87) 
-6.5700000000000003

>  <m_primary>  (87) 
energy

$$$$
87:0
     RDKit          3D

 65 68  0  0  1  0  0  0  0  0999 V2000
   63.3940   33.8270   47.0740 C   0  0  0  0  0  0  0  0  0  0  0  0
   62.8230   33.1060   48.0170 C   0  0  0  0  0  0  0  0  0  0  0  0
   62.2790   31.7800   47.7630 C   0  0  0  0  0  0  0  0  0  0  0  0
   62.9480   31.0080   47.0040 O   0  0  0  0  0  0  0  0  0  0  0  0
   61.0490   31.3860   48.3510 N   0  0  0  0  0  0  0  0  0  0  0  0
   60.4520   30.1150   48.1560 C   0  0  0  0  0  0  0  0  0  0  0  0
   60.7430   29.0810   49.0170 C   0  0  0  0  0  0  0  0  0  0  0  0
   60.1310   27.8730   48.7750 C   0  0  0  0  0  0  0  0  0  0  0  0
   59.2500   27.6840   47.7070 C   0  0  0  0  0  0  0  0  0  0  0  0
   58.9530   28.7350   46.8310 C   0  0  0  0  0  0  0  0  0  0  0  0
   58.0790   28.4580   45.7640 N   0  0  0  0  0  0  0  0  0  0  0  0
   57.4960   27.1040   45.7160 C   0  0  0  0  0  0  0  0  0  0  0  0
   57.6460   29.3450   44.7610 C   0  0  0  0  0  0  0  0  0  0  0  0
   57.0350   28.9870   43.5850 C   0  0  0  0  0  0  0  0  0  0  0  0
   56.5980   29.9150   42.6420 C   0  0  0  0  0  0  0  0  0  0  0  0
   56.8030   31.2090   42.9340 N   0  0  0  0  0  0  0  0  0  0  0  0
   57.4030   31.5470   44.0870 C   0  0  0  0  0  0  0  0  0  0  0  0
   57.5700   32.8030   44.3130 N   0  0  0  0  0  0  0  0  0  0  0  0
   58.2780   33.2590   45.4530 C   0  0  0  0  0  0  0  0  0  0  0  0
   59.3790   34.0560   45.4270 C   0  0  0  0  0  0  0  0  0  0  0  0
   60.0120   34.4540   46.5840 C   0  0  0  0  0  0  0  0  0  0  0  0
   59.5490   34.0570   47.8510 C   0  0  0  0  0  0  0  0  0  0  0  0
   60.2360   34.4970   48.9220 O   0  0  0  0  0  0  0  0  0  0  0  0
   60.6050   33.9300   50.1180 C   0  0  0  0  0  0  0  0  0  0  0  0
   59.5130   33.4420   51.0130 C   0  0  0  0  0  0  0  0  0  0  0  0
   59.1880   32.0480   50.6830 N   0  0  0  0  0  0  0  0  0  0  0  0
   57.7650   31.9400   50.5860 C   0  0  0  0  0  0  0  0  0  0  0  0
   57.1940   31.0200   51.6420 C   0  0  0  0  0  0  0  0  0  0  0  0
   57.7490   29.7480   51.5360 O   0  0  0  0  0  0  0  0  0  0  0  0
   59.1210   29.7650   51.5970 C   0  0  0  0  0  0  0  0  0  0  0  0
   59.7310   31.1390   51.6470 C   0  0  0  0  0  0  0  0  0  0  0  0
   58.4360   33.2520   47.8390 C   0  0  0  0  0  0  0  0  0  0  0  0
   57.7940   32.8460   46.6870 C   0  0  0  0  0  0  0  0  0  0  0  0
   57.8290   30.6730   45.0060 N   0  0  0  0  0  0  0  0  0  0  0  0
   59.5660   29.9210   47.0840 C   0  0  0  0  0  0  0  0  0  0  0  0
   63.7921   34.8250   47.3098 H   0  0  0  0  0  0  0  0  0  0  0  0
   63.4728   33.4311   46.0507 H   0  0  0  0  0  0  0  0  0  0  0  0
   62.7548   33.5211   49.0334 H   0  0  0  0  0  0  0  0  0  0  0  0
   60.5410   32.0530   48.9650 H   0  0  0  0  0  0  0  0  0  0  0  0
   61.4348   29.2149   49.8617 H   0  0  0  0  0  0  0  0  0  0  0  0
   60.3424   27.0268   49.4452 H   0  0  0  0  0  0  0  0  0  0  0  0
   58.7849   26.6991   47.5529 H   0  0  0  0  0  0  0  0  0  0  0  0
   57.3377   26.7364   46.7406 H   0  0  0  0  0  0  0  0  0  0  0  0
   56.5328   27.1381   45.1858 H   0  0  0  0  0  0  0  0  0  0  0  0
   58.1827   26.4277   45.1858 H   0  0  0  0  0  0  0  0  0  0  0  0
   56.8833   27.9175   43.3774 H   0  0  0  0  0  0  0  0  0  0  0  0
   56.1102   29.6033   41.7066 H   0  0  0  0  0  0  0  0  0  0  0  0
   56.4940   31.9420   42.2580 H   0  0  0  0  0  0  0  0  0  0  0  0
   59.7746   34.3918   44.4571 H   0  0  0  0  0  0  0  0  0  0  0  0
   60.9012   35.0979   46.5151 H   0  0  0  0  0  0  0  0  0  0  0  0
   61.2534   33.0711   49.8899 H   0  0  0  0  0  0  0  0  0  0  0  0
   61.0859   34.7447   50.6792 H   0  0  0  0  0  0  0  0  0  0  0  0
   59.8443   33.5021   52.0602 H   0  0  0  0  0  0  0  0  0  0  0  0
   58.6193   34.0676   50.8717 H   0  0  0  0  0  0  0  0  0  0  0  0
   57.3236   32.9399   50.7096 H   0  0  0  0  0  0  0  0  0  0  0  0
   57.5225   31.5175   49.5997 H   0  0  0  0  0  0  0  0  0  0  0  0
   57.4176   31.4301   52.6379 H   0  0  0  0  0  0  0  0  0  0  0  0
   56.1062   30.9454   51.4965 H   0  0  0  0  0  0  0  0  0  0  0  0
   59.4306   29.2196   52.5007 H   0  0  0  0  0  0  0  0  0  0  0  0
   59.4791   29.2998   50.6668 H   0  0  0  0  0  0  0  0  0  0  0  0
   59.5629   31.5567   52.6506 H   0  0  0  0  0  0  0  0  0  0  0  0
   60.7995   31.0238   51.4123 H   0  0  0  0  0  0  0  0  0  0  0  0
   58.0330   32.9111   48.8041 H   0  0  0  0  0  0  0  0  0  0  0  0
   56.9056   32.2001   46.7459 H   0  0  0  0  0  0  0  0  0  0  0  0
   59.3581   30.7704   46.4167 H   0  0  0  0  0  0  0  0  0  0  0  0
  1  2  2  0
  2  3  1  0
  3  4  2  0
  3  5  1  0
  5  6  1  0
  6  7  2  0
  7  8  1  0
  8  9  2  0
  9 10  1  0
 10 11  1  0
 11 12  1  0
 11 13  1  0
 13 14  1  0
 14 15  2  0
 15 16  1  0
 16 17  1  0
 17 18  2  0
 18 19  1  0
 19 20  2  0
 20 21  1  0
 21 22  2  0
 22 23  1  0
 23 24  1  0
 24 25  1  0
 25 26  1  0
 26 27  1  0
 27 28  1  0
 28 29  1  0
 29 30  1  0
 30 31  1  0
 22 32  1  0
 32 33  2  0
 17 34  1  0
 10 35  2  0
 35  6  1  0
 34 13  2  0
 33 19  1  0
 31 26  1  0
  1 36  1  0
  1 37  1  0
  2 38  1  0
  5 39  1  0
  7 40  1  0
  8 41  1  0
  9 42  1  0
 12 43  1  0
 12 44  1  0
 12 45  1  0
 14 46  1  0
 15 47  1  0
 16 48  1  0
 20 49  1  0
 21 50  1  0
 24 51  1  0
 24 52  1  0
 25 53  1  0
 25 54  1  0
 27 55  1  0
 27 56  1  0
 28 57  1  0
 28 58  1  0
 30 59  1  0
 30 60  1  0
 31 61  1  0
 31 62  1  0
 32 63  1  0
 33 64  1  0
 35 65  1  0
M  END
>  <smiles>  (88) 
C=CC(=O)Nc1cccc(N(C)c2cc[nH]c(=Nc3ccc(OCCN4CCOCC4)cc3)n2)c1

>  <score_type>  (88) 
oracle

>  <origin>  (88) 
adg

>  <m_score__min__energy>  (88) 
-9.5999999999999996

>  <m_primary>  (88) 
energy

$$$$
88:0
     RDKit          3D

 53 56  0  0  0  0  0  0  0  0999 V2000
   57.4480   20.3070   46.2400 C   0  0  0  0  0  0  0  0  0  0  0  0
   57.4680   21.4810   47.0450 O   0  0  0  0  0  0  0  0  0  0  0  0
   57.3660   22.7870   46.5430 C   0  0  0  0  0  0  0  0  0  0  0  0
   57.7750   23.1290   45.2390 C   0  0  0  0  0  0  0  0  0  0  0  0
   57.6520   24.4460   44.7840 C   0  0  0  0  0  0  0  0  0  0  0  0
   57.1070   25.4380   45.6170 C   0  0  0  0  0  0  0  0  0  0  0  0
   56.9930   26.8040   45.1800 N   0  0  0  0  0  0  0  0  0  0  0  0
   58.1170   27.6790   44.9880 C   0  0  0  0  0  0  0  0  0  0  0  0
   59.2650   27.1900   44.7990 O   0  0  0  0  0  0  0  0  0  0  0  0
   57.9340   29.1500   44.9510 C   0  0  0  0  0  0  0  0  0  0  0  0
   56.8600   29.7090   44.2460 C   0  0  0  0  0  0  0  0  0  0  0  0
   56.7040   31.0920   44.1760 C   0  0  0  0  0  0  0  0  0  0  0  0
   57.6020   31.9460   44.8220 C   0  0  0  0  0  0  0  0  0  0  0  0
   58.6520   31.4020   45.6060 C   0  0  0  0  0  0  0  0  0  0  0  0
   58.8360   30.0040   45.6060 C   0  0  0  0  0  0  0  0  0  0  0  0
   59.4730   32.2580   46.4410 N   0  0  0  0  0  0  0  0  0  0  0  0
   60.0030   31.8100   47.7450 C   0  0  0  0  0  0  0  0  0  0  0  0
   61.3060   32.5110   48.0780 C   0  0  0  0  0  0  0  0  0  0  0  0
   62.4850   32.0680   47.4510 C   0  0  0  0  0  0  0  0  0  0  0  0
   63.7040   32.7010   47.6940 C   0  0  0  0  0  0  0  0  0  0  0  0
   63.7650   33.7900   48.5600 C   0  0  0  0  0  0  0  0  0  0  0  0
   62.6100   34.2450   49.1930 C   0  0  0  0  0  0  0  0  0  0  0  0
   61.3730   33.6100   48.9760 C   0  0  0  0  0  0  0  0  0  0  0  0
   60.1520   34.1660   49.6630 C   0  0  0  0  0  0  0  0  0  0  0  0
   59.6280   33.6710   46.0820 C   0  0  0  0  0  0  0  0  0  0  0  0
   58.2550   34.3170   45.9900 C   0  0  0  0  0  0  0  0  0  0  0  0
   57.4190   33.7150   44.4970 S   0  0  0  0  0  0  0  0  0  0  0  0
   56.7190   25.0970   46.9210 C   0  0  0  0  0  0  0  0  0  0  0  0
   56.8420   23.7810   47.3750 C   0  0  0  0  0  0  0  0  0  0  0  0
   57.4329   19.4183   46.8880 H   0  0  0  0  0  0  0  0  0  0  0  0
   56.5498   20.3131   45.6050 H   0  0  0  0  0  0  0  0  0  0  0  0
   58.3459   20.2825   45.6050 H   0  0  0  0  0  0  0  0  0  0  0  0
   58.1928   22.3572   44.5759 H   0  0  0  0  0  0  0  0  0  0  0  0
   57.9838   24.7067   43.7682 H   0  0  0  0  0  0  0  0  0  0  0  0
   56.0510   27.1440   44.8810 H   0  0  0  0  0  0  0  0  0  0  0  0
   56.1348   29.0515   43.7442 H   0  0  0  0  0  0  0  0  0  0  0  0
   55.8645   31.5163   43.6058 H   0  0  0  0  0  0  0  0  0  0  0  0
   59.7028   29.5741   46.1292 H   0  0  0  0  0  0  0  0  0  0  0  0
   59.2644   32.0345   48.5287 H   0  0  0  0  0  0  0  0  0  0  0  0
   60.1939   30.7281   47.6901 H   0  0  0  0  0  0  0  0  0  0  0  0
   62.4450   31.2123   46.7610 H   0  0  0  0  0  0  0  0  0  0  0  0
   64.6184   32.3395   47.2009 H   0  0  0  0  0  0  0  0  0  0  0  0
   64.7264   34.2917   48.7446 H   0  0  0  0  0  0  0  0  0  0  0  0
   62.6658   35.1103   49.8699 H   0  0  0  0  0  0  0  0  0  0  0  0
   60.2852   34.1054   50.7532 H   0  0  0  0  0  0  0  0  0  0  0  0
   60.0121   35.2166   49.3686 H   0  0  0  0  0  0  0  0  0  0  0  0
   59.2677   33.5818   49.3686 H   0  0  0  0  0  0  0  0  0  0  0  0
   60.2246   34.1828   46.8515 H   0  0  0  0  0  0  0  0  0  0  0  0
   60.1401   33.7517   45.1118 H   0  0  0  0  0  0  0  0  0  0  0  0
   57.6620   34.0512   46.8775 H   0  0  0  0  0  0  0  0  0  0  0  0
   58.3610   35.4108   45.9415 H   0  0  0  0  0  0  0  0  0  0  0  0
   56.3152   25.8705   47.5908 H   0  0  0  0  0  0  0  0  0  0  0  0
   56.5236   23.5249   48.3963 H   0  0  0  0  0  0  0  0  0  0  0  0
  1  2  1  0
  2  3  1  0
  3  4  2  0
  4  5  1  0
  5  6  2  0
  6  7  1  0
  7  8  1  0
  8  9  2  0
  8 10  1  0
 10 11  2  0
 11 12  1  0
 12 13  2  0
 13 14  1  0
 14 15  2  0
 14 16  1  0
 16 17  1  0
 17 18  1  0
 18 19  2  0
 19 20  1  0
 20 21  2  0
 21 22  1  0
 22 23  2  0
 23 24  1  0
 16 25  1  0
 25 26  1  0
 26 27  1  0
  6 28  1  0
 28 29  2  0
 29  3  1  0
 15 10  1  0
 23 18  1  0
 27 13  1  0
  1 30  1  0
  1 31  1  0
  1 32  1  0
  4 33  1  0
  5 34  1  0
  7 35  1  0
 11 36  1  0
 12 37  1  0
 15 38  1  0
 17 39  1  0
 17 40  1  0
 19 41  1  0
 20 42  1  0
 21 43  1  0
 22 44  1  0
 24 45  1  0
 24 46  1  0
 24 47  1  0
 25 48  1  0
 25 49  1  0
 26 50  1  0
 26 51  1  0
 28 52  1  0
 29 53  1  0
M  END
>  <UniqueID>  (89) 
81

>  <SMILES>  (89) 
COc1ccc(NC(=O)c2ccc3c(c2)N(Cc2ccccc2C)CCS3)cc1

>  <Energy>  (89) 
71.45822067433237

>  <Genealogy>  (89) 
COc1ccc(NC(=O)c2ccc3c(c2)N(Cc2ccccc2C)CCS3)cc1 (3D coordinates assigned)
COc1ccc(NC(=O)c2ccc3c(c2)N(Cc2ccccc2C)CCS3)cc1 (nonaromatic ring conformer: 71.45822067433237 kcal/mol)

>  <smiles>  (89) 
COc1ccc(NC(=O)c2ccc3c(c2)N(Cc2ccccc2C)CCS3)cc1

>  <score_type>  (89) 
oracle

>  <origin>  (89) 
adg

>  <m_score__min__energy>  (89) 
-8.9600000000000009

>  <m_primary>  (89) 
energy

$$$$
89:0
     RDKit          3D

 34 36  0  0  0  0  0  0  0  0999 V2000
   61.1907   34.7556   45.9206 H   0  0  0  0  0  0  0  0  0  0  0  0
   61.4370   33.8320   46.4650 C   0  0  0  0  0  0  0  0  0  0  0  0
   62.6020   33.7650   47.2310 C   0  0  0  0  0  0  0  0  0  0  0  0
   63.2722   34.6353   47.2894 H   0  0  0  0  0  0  0  0  0  0  0  0
   62.9180   32.5910   47.9250 C   0  0  0  0  0  0  0  0  0  0  0  0
   64.1170   32.5240   48.7180 C   0  0  0  0  0  0  0  0  0  0  0  0
   65.0810   32.4710   49.3560 N   0  0  0  0  0  0  0  0  0  0  0  0
   62.0640   31.4830   47.8490 C   0  0  0  0  0  0  0  0  0  0  0  0
   62.3150   30.5611   48.3941 H   0  0  0  0  0  0  0  0  0  0  0  0
   60.8860   31.5420   47.0790 C   0  0  0  0  0  0  0  0  0  0  0  0
   59.9790   30.3680   46.9980 C   0  0  0  0  0  0  0  0  0  0  0  0
   60.2460   29.2070   47.7460 C   0  0  0  0  0  0  0  0  0  0  0  0
   61.1327   29.1701   48.3959 H   0  0  0  0  0  0  0  0  0  0  0  0
   59.3970   28.1010   47.6720 C   0  0  0  0  0  0  0  0  0  0  0  0
   59.6183   27.2001   48.2631 H   0  0  0  0  0  0  0  0  0  0  0  0
   58.2630   28.1340   46.8470 C   0  0  0  0  0  0  0  0  0  0  0  0
   57.4020   27.0310   46.7660 C   0  0  0  0  0  0  0  0  0  0  0  0
   57.6057   26.1249   47.3555 H   0  0  0  0  0  0  0  0  0  0  0  0
   56.2720   27.0910   45.9230 C   0  0  0  0  0  0  0  0  0  0  0  0
   55.4260   26.1050   45.8080 N   0  0  0  0  0  0  0  0  0  0  0  0
   55.6980   24.6970   45.8680 C   0  0  0  0  0  0  0  0  0  0  0  0
   55.1520   24.0060   46.7680 O   0  0  0  0  0  0  0  0  0  0  0  0
   56.5180   24.0070   44.8210 C   0  0  0  0  0  0  0  0  0  0  0  0
   57.2732   23.3715   45.3066 H   0  0  0  0  0  0  0  0  0  0  0  0
   55.8631   23.3842   44.1938 H   0  0  0  0  0  0  0  0  0  0  0  0
   57.0197   24.7587   44.1938 H   0  0  0  0  0  0  0  0  0  0  0  0
   56.0240   28.2360   45.2290 N   0  0  0  0  0  0  0  0  0  0  0  0
   56.8400   29.3200   45.2900 C   0  0  0  0  0  0  0  0  0  0  0  0
   56.6017   30.2201   44.7043 H   0  0  0  0  0  0  0  0  0  0  0  0
   57.9840   29.2940   46.0970 C   0  0  0  0  0  0  0  0  0  0  0  0
   58.8390   30.4030   46.1730 C   0  0  0  0  0  0  0  0  0  0  0  0
   58.6175   31.3055   45.5845 H   0  0  0  0  0  0  0  0  0  0  0  0
   60.5830   32.7290   46.3880 C   0  0  0  0  0  0  0  0  0  0  0  0
   59.6667   32.7893   45.7824 H   0  0  0  0  0  0  0  0  0  0  0  0
  1  2  1  0
  2  3  2  0
  3  4  1  0
  3  5  1  0
  5  6  1  0
  6  7  3  0
  5  8  2  0
  8  9  1  0
  8 10  1  0
 10 11  1  0
 11 12  1  0
 12 13  1  0
 12 14  2  0
 14 15  1  0
 14 16  1  0
 16 17  2  0
 17 18  1  0
 17 19  1  0
 19 20  2  0
 20 21  1  0
 21 22  2  0
 21 23  1  0
 23 24  1  0
 23 25  1  0
 23 26  1  0
 19 27  1  0
 27 28  1  0
 28 29  1  0
 28 30  2  0
 30 31  1  0
 31 32  1  0
 10 33  2  0
 33 34  1  0
 33  2  1  0
 31 11  2  0
 30 16  1  0
M  CHG  1  27  -1
M  END
>  <UniqueID>  (90) 
82

>  <SMILES>  (90) 
CC(=O)/N=c1\cc2ccc(-c3cccc(C#N)c3)cc2c[n-]1

>  <Energy>  (90) 
52.80832911975411

>  <Genealogy>  (90) 
CC(=O)N=c1cc2ccc(-c3cccc(C#N)c3)cc2c[n-]1 (protonated)
CC(=O)/N=c1\cc2ccc(-c3cccc(C#N)c3)cc2c[n-]1 (cis-trans isomerization)
CC(=O)/N=c1\cc2ccc(-c3cccc(C#N)c3)cc2c[n-]1 (3D coordinates assigned)
CC(=O)/N=c1\cc2ccc(-c3cccc(C#N)c3)cc2c[n-]1 (optimized conformer: 52.80832911975411 kcal/mol)

>  <smiles>  (90) 
CC(=O)N=c1cc2ccc(-c3cccc(C#N)c3)cc2c[nH]1

>  <score_type>  (90) 
oracle

>  <origin>  (90) 
adg

>  <m_score__min__energy>  (90) 
-9.2799999999999994

>  <m_primary>  (90) 
energy

$$$$
90:0
     RDKit          3D

 44 47  0  0  1  0  0  0  0  0999 V2000
   59.6110   25.8720   46.0420 Br  0  0  0  0  0  0  0  0  0  0  0  0
   59.6630   27.5470   46.9570 C   0  0  0  0  0  0  0  0  0  0  0  0
   60.4940   28.5490   46.4850 C   0  0  0  0  0  0  0  0  0  0  0  0
   60.5230   29.7390   47.1440 C   0  0  0  0  0  0  0  0  0  0  0  0
   59.7280   29.9780   48.2950 C   0  0  0  0  0  0  0  0  0  0  0  0
   59.7350   31.2320   48.8270 N   0  0  0  0  0  0  0  0  0  0  0  0
   59.7670   32.3800   48.3740 C   0  0  0  0  0  0  0  0  0  0  0  0
   60.5140   33.3160   48.9900 N   0  0  0  0  0  0  0  0  0  0  0  0
   60.6270   34.5870   48.5850 C   0  0  0  0  0  0  0  0  0  0  0  0
   59.9400   34.9400   47.4840 N   0  0  0  0  0  0  0  0  0  0  0  0
   59.1820   34.0350   46.8420 C   0  0  0  0  0  0  0  0  0  0  0  0
   58.5050   34.4320   45.7330 C   0  0  0  0  0  0  0  0  0  0  0  0
   57.7550   33.5310   45.0970 N   0  0  0  0  0  0  0  0  0  0  0  0
   57.6000   32.2590   45.4440 C   0  0  0  0  0  0  0  0  0  0  0  0
   56.8500   31.4990   44.7410 N   0  0  0  0  0  0  0  0  0  0  0  0
   57.4490   30.6040   43.7820 C   0  0  0  0  0  0  0  0  0  0  0  0
   56.2460   30.0360   42.9950 C   0  0  0  0  0  0  0  0  0  0  0  0
   55.1990   29.7160   44.0310 C   0  0  0  0  0  0  0  0  0  0  0  0
   55.7610   29.0800   45.1730 N   0  0  0  0  0  0  0  0  0  0  0  0
   57.0260   28.4260   44.9340 C   0  0  0  0  0  0  0  0  0  0  0  0
   58.0760   29.3900   44.4300 C   0  0  0  0  0  0  0  0  0  0  0  0
   58.2880   31.8210   46.5860 C   0  0  0  0  0  0  0  0  0  0  0  0
   59.0640   32.7160   47.2600 C   0  0  0  0  0  0  0  0  0  0  0  0
   58.8870   28.9340   48.7550 C   0  0  0  0  0  0  0  0  0  0  0  0
   58.8710   27.7210   48.0660 C   0  0  0  0  0  0  0  0  0  0  0  0
   61.1187   28.3860   45.5944 H   0  0  0  0  0  0  0  0  0  0  0  0
   61.1815   30.5387   46.7740 H   0  0  0  0  0  0  0  0  0  0  0  0
   61.0660   33.0650   49.8600 H   0  0  0  0  0  0  0  0  0  0  0  0
   61.2534   35.3099   49.1282 H   0  0  0  0  0  0  0  0  0  0  0  0
   58.5736   35.4680   45.3697 H   0  0  0  0  0  0  0  0  0  0  0  0
   57.2450   33.8560   44.2500 H   0  0  0  0  0  0  0  0  0  0  0  0
   58.2153   31.1446   43.2072 H   0  0  0  0  0  0  0  0  0  0  0  0
   55.8658   30.7831   42.2828 H   0  0  0  0  0  0  0  0  0  0  0  0
   56.5251   29.1472   42.4101 H   0  0  0  0  0  0  0  0  0  0  0  0
   54.7139   30.6512   44.3473 H   0  0  0  0  0  0  0  0  0  0  0  0
   54.4715   29.0256   43.5792 H   0  0  0  0  0  0  0  0  0  0  0  0
   55.8760   29.7200   45.9820 H   0  0  0  0  0  0  0  0  0  0  0  0
   57.3776   27.9782   45.8752 H   0  0  0  0  0  0  0  0  0  0  0  0
   56.8709   27.6584   44.1615 H   0  0  0  0  0  0  0  0  0  0  0  0
   58.6965   29.7175   45.2772 H   0  0  0  0  0  0  0  0  0  0  0  0
   58.6857   28.8722   43.6749 H   0  0  0  0  0  0  0  0  0  0  0  0
   58.2029   30.7794   46.9292 H   0  0  0  0  0  0  0  0  0  0  0  0
   58.2551   29.0783   49.6438 H   0  0  0  0  0  0  0  0  0  0  0  0
   58.2228   26.9021   48.4115 H   0  0  0  0  0  0  0  0  0  0  0  0
  1  2  1  0
  2  3  2  0
  3  4  1  0
  4  5  2  0
  5  6  1  0
  6  7  2  0
  7  8  1  0
  8  9  1  0
  9 10  2  0
 10 11  1  0
 11 12  2  0
 12 13  1  0
 13 14  1  0
 14 15  2  0
 15 16  1  0
 16 17  1  0
 17 18  1  0
 18 19  1  0
 19 20  1  0
 20 21  1  0
 14 22  1  0
 22 23  2  0
  5 24  1  0
 24 25  2  0
 25  2  1  0
 23  7  1  0
 23 11  1  0
 21 16  1  0
  3 26  1  0
  4 27  1  0
  8 28  1  0
  9 29  1  0
 12 30  1  0
 13 31  1  0
 16 32  1  0
 17 33  1  0
 17 34  1  0
 18 35  1  0
 18 36  1  0
 19 37  1  0
 20 38  1  0
 20 39  1  0
 21 40  1  0
 21 41  1  0
 22 42  1  0
 24 43  1  0
 25 44  1  0
M  END
>  <smiles>  (91) 
Brc1ccc(N=c2[nH]cnc3c[nH]c(=NC4CCNCC4)cc23)cc1

>  <score_type>  (91) 
oracle

>  <origin>  (91) 
adg

>  <m_score__min__energy>  (91) 
-8.5500000000000007

>  <m_primary>  (91) 
energy

$$$$
91:0
     RDKit          3D

 39 40  0  0  0  0  0  0  0  0999 V2000
   61.2870   34.2390   48.9150 C   0  0  0  0  0  0  0  0  0  0  0  0
   60.3960   34.8210   47.9700 O   0  0  0  0  0  0  0  0  0  0  0  0
   59.4540   34.0990   47.2210 C   0  0  0  0  0  0  0  0  0  0  0  0
   58.6970   33.0490   47.7700 C   0  0  0  0  0  0  0  0  0  0  0  0
   57.7710   32.3610   46.9810 C   0  0  0  0  0  0  0  0  0  0  0  0
   57.5810   32.7070   45.6380 C   0  0  0  0  0  0  0  0  0  0  0  0
   56.6360   31.9830   44.8950 O   0  0  0  0  0  0  0  0  0  0  0  0
   56.9290   30.9030   44.0070 C   0  0  0  0  0  0  0  0  0  0  0  0
   55.8730   29.8360   44.1000 C   0  0  0  0  0  0  0  0  0  0  0  0
   55.0490   29.7050   43.1570 O   0  0  0  0  0  0  0  0  0  0  0  0
   55.7550   28.9800   45.2440 N   0  0  0  0  0  0  0  0  0  0  0  0
   56.6140   27.8380   45.5390 C   0  0  0  0  0  0  0  0  0  0  0  0
   58.0310   28.0900   45.0180 C   0  0  0  0  0  0  0  0  0  0  0  0
   58.8470   28.8270   46.0430 C   0  0  0  0  0  0  0  0  0  0  0  0
   59.9350   29.6250   45.6460 C   0  0  0  0  0  0  0  0  0  0  0  0
   60.7120   30.2840   46.6040 C   0  0  0  0  0  0  0  0  0  0  0  0
   60.4160   30.1420   47.9630 C   0  0  0  0  0  0  0  0  0  0  0  0
   59.3460   29.3390   48.3660 C   0  0  0  0  0  0  0  0  0  0  0  0
   58.5660   28.6800   47.4110 C   0  0  0  0  0  0  0  0  0  0  0  0
   58.3420   33.7560   45.0880 C   0  0  0  0  0  0  0  0  0  0  0  0
   59.2680   34.4440   45.8770 C   0  0  0  0  0  0  0  0  0  0  0  0
   60.9400   34.4656   49.9339 H   0  0  0  0  0  0  0  0  0  0  0  0
   61.3136   33.1488   48.7707 H   0  0  0  0  0  0  0  0  0  0  0  0
   62.2960   34.6527   48.7707 H   0  0  0  0  0  0  0  0  0  0  0  0
   58.8341   32.7679   48.8246 H   0  0  0  0  0  0  0  0  0  0  0  0
   57.1857   31.5395   47.4197 H   0  0  0  0  0  0  0  0  0  0  0  0
   56.9675   31.2839   42.9758 H   0  0  0  0  0  0  0  0  0  0  0  0
   57.8984   30.4664   44.2894 H   0  0  0  0  0  0  0  0  0  0  0  0
   56.6499   27.6826   46.6274 H   0  0  0  0  0  0  0  0  0  0  0  0
   56.2045   26.9451   45.0440 H   0  0  0  0  0  0  0  0  0  0  0  0
   58.5122   27.1257   44.7977 H   0  0  0  0  0  0  0  0  0  0  0  0
   57.9704   28.7015   44.1057 H   0  0  0  0  0  0  0  0  0  0  0  0
   60.1757   29.7312   44.5779 H   0  0  0  0  0  0  0  0  0  0  0  0
   61.5564   30.9143   46.2882 H   0  0  0  0  0  0  0  0  0  0  0  0
   61.0261   30.6629   48.7156 H   0  0  0  0  0  0  0  0  0  0  0  0
   59.1170   29.2252   49.4359 H   0  0  0  0  0  0  0  0  0  0  0  0
   57.7285   28.0435   47.7326 H   0  0  0  0  0  0  0  0  0  0  0  0
   58.2072   34.0354   44.0326 H   0  0  0  0  0  0  0  0  0  0  0  0
   59.8558   35.2637   45.4381 H   0  0  0  0  0  0  0  0  0  0  0  0
  1  2  1  0
  2  3  1  0
  3  4  2  0
  4  5  1  0
  5  6  2  0
  6  7  1  0
  7  8  1  0
  8  9  1  0
  9 10  2  0
  9 11  1  0
 11 12  1  0
 12 13  1  0
 13 14  1  0
 14 15  2  0
 15 16  1  0
 16 17  2  0
 17 18  1  0
 18 19  2  0
  6 20  1  0
 20 21  2  0
 21  3  1  0
 19 14  1  0
  1 22  1  0
  1 23  1  0
  1 24  1  0
  4 25  1  0
  5 26  1  0
  8 27  1  0
  8 28  1  0
 12 29  1  0
 12 30  1  0
 13 31  1  0
 13 32  1  0
 15 33  1  0
 16 34  1  0
 17 35  1  0
 18 36  1  0
 19 37  1  0
 20 38  1  0
 21 39  1  0
M  CHG  1  11  -1
M  END
>  <UniqueID>  (92) 
83

>  <SMILES>  (92) 
COc1ccc(OCC(=O)[N-]CCc2ccccc2)cc1

>  <Energy>  (92) 
34.29852957446217

>  <Genealogy>  (92) 
COc1ccc(OCC(=O)[N-]CCc2ccccc2)cc1 (protonated)
COc1ccc(OCC(=O)[N-]CCc2ccccc2)cc1 (3D coordinates assigned)
COc1ccc(OCC(=O)[N-]CCc2ccccc2)cc1 (optimized conformer: 34.29852957446217 kcal/mol)

>  <smiles>  (92) 
COc1ccc(OCC(=O)NCCc2ccccc2)cc1

>  <score_type>  (92) 
oracle

>  <origin>  (92) 
adg

>  <m_score__min__energy>  (92) 
-8.9399999999999995

>  <m_primary>  (92) 
energy

$$$$
92:0
     RDKit          3D

 35 37  0  0  0  0  0  0  0  0999 V2000
   65.3727   33.4800   50.7928 H   0  0  0  0  0  0  0  0  0  0  0  0
   64.4660   33.4860   50.1700 C   0  0  0  0  0  0  0  0  0  0  0  0
   64.4420   32.7800   48.9650 C   0  0  0  0  0  0  0  0  0  0  0  0
   65.3299   32.2174   48.6406 H   0  0  0  0  0  0  0  0  0  0  0  0
   63.2910   32.7870   48.1700 C   0  0  0  0  0  0  0  0  0  0  0  0
   63.2777   32.2295   47.2218 H   0  0  0  0  0  0  0  0  0  0  0  0
   62.1490   33.5040   48.5770 C   0  0  0  0  0  0  0  0  0  0  0  0
   60.9240   33.5130   47.7350 C   0  0  0  0  0  0  0  0  0  0  0  0
   59.6780   33.1650   48.2840 C   0  0  0  0  0  0  0  0  0  0  0  0
   59.6083   32.8828   49.3449 H   0  0  0  0  0  0  0  0  0  0  0  0
   58.5260   33.1750   47.4910 C   0  0  0  0  0  0  0  0  0  0  0  0
   57.5570   32.9030   47.9349 H   0  0  0  0  0  0  0  0  0  0  0  0
   58.5940   33.5290   46.1330 C   0  0  0  0  0  0  0  0  0  0  0  0
   57.3720   33.5410   45.2940 C   0  0  0  0  0  0  0  0  0  0  0  0
   56.9200   34.6390   44.8660 O   0  0  0  0  0  0  0  0  0  0  0  0
   56.6560   32.3180   45.0550 N   0  0  0  0  0  0  0  0  0  0  0  0
   57.1320   31.1350   44.7760 C   0  0  0  0  0  0  0  0  0  0  0  0
   56.5480   30.4190   43.7230 C   0  0  0  0  0  0  0  0  0  0  0  0
   55.7121   30.8547   43.1561 H   0  0  0  0  0  0  0  0  0  0  0  0
   57.0300   29.1520   43.3960 C   0  0  0  0  0  0  0  0  0  0  0  0
   56.5812   28.5891   42.5643 H   0  0  0  0  0  0  0  0  0  0  0  0
   58.0810   28.6010   44.1250 C   0  0  0  0  0  0  0  0  0  0  0  0
   58.4750   27.6067   43.8679 H   0  0  0  0  0  0  0  0  0  0  0  0
   58.6290   29.3250   45.1860 C   0  0  0  0  0  0  0  0  0  0  0  0
   60.0470   28.5620   46.2180 Br  0  0  0  0  0  0  0  0  0  0  0  0
   58.1490   30.5620   45.4970 N   0  0  0  0  0  0  0  0  0  0  0  0
   58.5590   31.0330   46.3300 H   0  0  0  0  0  0  0  0  0  0  0  0
   59.8410   33.8770   45.5850 C   0  0  0  0  0  0  0  0  0  0  0  0
   59.9109   34.1580   44.5238 H   0  0  0  0  0  0  0  0  0  0  0  0
   60.9930   33.8690   46.3770 C   0  0  0  0  0  0  0  0  0  0  0  0
   61.9615   34.1436   45.9337 H   0  0  0  0  0  0  0  0  0  0  0  0
   62.1860   34.2100   49.7940 C   0  0  0  0  0  0  0  0  0  0  0  0
   61.3018   34.7739   50.1259 H   0  0  0  0  0  0  0  0  0  0  0  0
   63.3400   34.1990   50.5840 C   0  0  0  0  0  0  0  0  0  0  0  0
   63.3602   34.7536   51.5338 H   0  0  0  0  0  0  0  0  0  0  0  0
  1  2  1  0
  2  3  2  0
  3  4  1  0
  3  5  1  0
  5  6  1  0
  5  7  2  0
  7  8  1  0
  8  9  2  0
  9 10  1  0
  9 11  1  0
 11 12  1  0
 11 13  2  0
 13 14  1  0
 14 15  2  0
 14 16  1  0
 16 17  2  0
 17 18  1  0
 18 19  1  0
 18 20  2  0
 20 21  1  0
 20 22  1  0
 22 23  1  0
 22 24  2  0
 24 25  1  0
 24 26  1  0
 26 27  1  0
 13 28  1  0
 28 29  1  0
 28 30  2  0
 30 31  1  0
  7 32  1  0
 32 33  1  0
 32 34  2  0
 34 35  1  0
 34  2  1  0
 30  8  1  0
 26 17  1  0
M  END
>  <UniqueID>  (93) 
84

>  <SMILES>  (93) 
O=C(/N=c1/cccc(Br)[nH]1)c1ccc(-c2ccccc2)cc1

>  <Energy>  (93) 
51.537409996597525

>  <Genealogy>  (93) 
O=C(/N=c1/cccc(Br)[nH]1)c1ccc(-c2ccccc2)cc1 (cis-trans isomerization)
O=C(/N=c1/cccc(Br)[nH]1)c1ccc(-c2ccccc2)cc1 (3D coordinates assigned)
O=C(/N=c1/cccc(Br)[nH]1)c1ccc(-c2ccccc2)cc1 (optimized conformer: 51.537409996597525 kcal/mol)

>  <smiles>  (93) 
O=C(N=c1cccc(Br)[nH]1)c1ccc(-c2ccccc2)cc1

>  <score_type>  (93) 
oracle

>  <origin>  (93) 
adg

>  <m_score__min__energy>  (93) 
-7.9199999999999999

>  <m_primary>  (93) 
energy

$$$$
93:0
     RDKit          3D

 45 48  0  0  0  0  0  0  0  0999 V2000
   57.2663   29.4857   46.5305 H   0  0  0  0  0  0  0  0  0  0  0  0
   57.7970   30.2840   45.9910 C   0  0  0  0  0  0  0  0  0  0  0  0
   57.3210   30.6660   44.7890 C   0  0  0  0  0  0  0  0  0  0  0  0
   57.8030   31.8720   44.1520 C   0  0  0  0  0  0  0  0  0  0  0  0
   58.1900   32.8350   43.6410 N   0  0  0  0  0  0  0  0  0  0  0  0
   56.2950   29.8690   44.0760 C   0  0  0  0  0  0  0  0  0  0  0  0
   55.2740   29.4760   44.7040 O   0  0  0  0  0  0  0  0  0  0  0  0
   56.4390   29.5090   42.6990 N   0  0  0  0  0  0  0  0  0  0  0  0
   57.3350   29.6460   42.1840 H   0  0  0  0  0  0  0  0  0  0  0  0
   55.6660   29.0030   42.2110 H   0  0  0  0  0  0  0  0  0  0  0  0
   58.9970   30.8810   46.6260 C   0  0  0  0  0  0  0  0  0  0  0  0
   60.2420   30.2230   46.6320 C   0  0  0  0  0  0  0  0  0  0  0  0
   60.4040   28.8980   46.0920 N   0  0  0  0  0  0  0  0  0  0  0  0
   60.1350   28.6220   44.6750 C   0  0  0  0  0  0  0  0  0  0  0  0
   61.0779   28.3510   44.1775 H   0  0  0  0  0  0  0  0  0  0  0  0
   59.7014   29.5255   44.2215 H   0  0  0  0  0  0  0  0  0  0  0  0
   59.1500   27.4880   44.5140 C   0  0  0  0  0  0  0  0  0  0  0  0
   58.6330   27.2160   43.2370 C   0  0  0  0  0  0  0  0  0  0  0  0
   58.9283   27.8428   42.3827 H   0  0  0  0  0  0  0  0  0  0  0  0
   57.7450   26.1530   43.0450 C   0  0  0  0  0  0  0  0  0  0  0  0
   57.3409   25.9488   42.0425 H   0  0  0  0  0  0  0  0  0  0  0  0
   57.3710   25.3510   44.1240 C   0  0  0  0  0  0  0  0  0  0  0  0
   56.6692   24.5179   43.9709 H   0  0  0  0  0  0  0  0  0  0  0  0
   57.8850   25.6030   45.3970 C   0  0  0  0  0  0  0  0  0  0  0  0
   57.5792   24.9719   46.2445 H   0  0  0  0  0  0  0  0  0  0  0  0
   58.7900   26.6570   45.6030 C   0  0  0  0  0  0  0  0  0  0  0  0
   59.2840   26.9370   47.0030 C   0  0  0  0  0  0  0  0  0  0  0  0
   59.4726   25.9810   47.5134 H   0  0  0  0  0  0  0  0  0  0  0  0
   58.5134   27.5175   47.5314 H   0  0  0  0  0  0  0  0  0  0  0  0
   60.5730   27.7540   46.9880 C   0  0  0  0  0  0  0  0  0  0  0  0
   61.4029   27.1262   46.6314 H   0  0  0  0  0  0  0  0  0  0  0  0
   60.7985   28.1093   48.0043 H   0  0  0  0  0  0  0  0  0  0  0  0
   61.3170   30.8430   47.1800 N   0  0  0  0  0  0  0  0  0  0  0  0
   61.2240   32.0690   47.7510 C   0  0  0  0  0  0  0  0  0  0  0  0
   62.3720   32.6520   48.3000 C   0  0  0  0  0  0  0  0  0  0  0  0
   63.3359   32.1237   48.2569 H   0  0  0  0  0  0  0  0  0  0  0  0
   62.2860   33.9050   48.9010 C   0  0  0  0  0  0  0  0  0  0  0  0
   63.1826   34.3720   49.3346 H   0  0  0  0  0  0  0  0  0  0  0  0
   61.0620   34.5640   48.9510 C   0  0  0  0  0  0  0  0  0  0  0  0
   60.9851   35.5535   49.4252 H   0  0  0  0  0  0  0  0  0  0  0  0
   59.9310   33.9610   48.3950 C   0  0  0  0  0  0  0  0  0  0  0  0
   58.9628   34.4817   48.4336 H   0  0  0  0  0  0  0  0  0  0  0  0
   60.0140   32.7260   47.8010 N   0  0  0  0  0  0  0  0  0  0  0  0
   58.9020   32.1390   47.2450 C   0  0  0  0  0  0  0  0  0  0  0  0
   57.7850   32.7300   47.2730 O   0  0  0  0  0  0  0  0  0  0  0  0
  1  2  1  0
  2  3  2  0
  3  4  1  0
  4  5  3  0
  3  6  1  0
  6  7  2  0
  6  8  1  0
  8  9  1  0
  8 10  1  0
  2 11  1  0
 11 12  2  0
 12 13  1  0
 13 14  1  0
 14 15  1  0
 14 16  1  0
 14 17  1  0
 17 18  2  0
 18 19  1  0
 18 20  1  0
 20 21  1  0
 20 22  2  0
 22 23  1  0
 22 24  1  0
 24 25  1  0
 24 26  2  0
 26 27  1  0
 27 28  1  0
 27 29  1  0
 27 30  1  0
 30 31  1  0
 30 32  1  0
 12 33  1  0
 33 34  2  0
 34 35  1  0
 35 36  1  0
 35 37  2  0
 37 38  1  0
 37 39  1  0
 39 40  1  0
 39 41  2  0
 41 42  1  0
 41 43  1  0
 43 44  1  0
 44 45  2  0
 44 11  1  0
 30 13  1  0
 43 34  1  0
 26 17  1  0
M  END
>  <UniqueID>  (94) 
85

>  <SMILES>  (94) 
N#C/C(=C\c1c(N2CCc3ccccc3C2)nc2ccccn2c1=O)C(N)=O

>  <Energy>  (94) 
68.37253228445257

>  <Genealogy>  (94) 
N#C/C(=C\c1c(N2CCc3ccccc3C2)nc2ccccn2c1=O)C(N)=O (cis-trans isomerization)
N#C/C(=C\c1c(N2CCc3ccccc3C2)nc2ccccn2c1=O)C(N)=O (3D coordinates assigned)
N#C/C(=C\c1c(N2CCc3ccccc3C2)nc2ccccn2c1=O)C(N)=O (nonaromatic ring conformer: 68.37253228445257 kcal/mol)

>  <smiles>  (94) 
N#CC(=Cc1c(N2CCc3ccccc3C2)nc2ccccn2c1=O)C(N)=O

>  <score_type>  (94) 
oracle

>  <origin>  (94) 
adg

>  <m_score__min__energy>  (94) 
-8.6899999999999995

>  <m_primary>  (94) 
energy

$$$$
