0:0
     RDKit          3D

 39 41  0  0  0  0  0  0  0  0999 V2000
   60.5450   33.9500   52.7680 H   0  0  0  0  0  0  0  0  0  0  0  0
   59.6470   34.0330   52.3050 O   0  0  0  0  0  0  0  0  0  0  0  0
   58.8310   32.9200   52.1220 C   0  0  0  0  0  0  0  0  0  0  0  0
   57.9050   32.6040   53.0650 N   0  0  0  0  0  0  0  0  0  0  0  0
   57.1180   31.5050   52.9360 C   0  0  0  0  0  0  0  0  0  0  0  0
   56.2650   31.2360   53.8220 O   0  0  0  0  0  0  0  0  0  0  0  0
   57.2540   30.6940   51.8570 N   0  0  0  0  0  0  0  0  0  0  0  0
   58.1610   30.9670   50.8840 C   0  0  0  0  0  0  0  0  0  0  0  0
   58.2610   30.1890   49.8980 O   0  0  0  0  0  0  0  0  0  0  0  0
   58.9690   32.1120   50.9790 C   0  0  0  0  0  0  0  0  0  0  0  0
   59.9800   32.4060   49.9370 C   0  0  0  0  0  0  0  0  0  0  0  0
   60.9198   32.8885   50.2436 H   0  0  0  0  0  0  0  0  0  0  0  0
   59.8080   32.1130   48.6330 C   0  0  0  0  0  0  0  0  0  0  0  0
   59.2540   32.9500   47.6770 C   0  0  0  0  0  0  0  0  0  0  0  0
   58.8971   33.9788   47.8326 H   0  0  0  0  0  0  0  0  0  0  0  0
   59.2370   32.2430   46.4930 C   0  0  0  0  0  0  0  0  0  0  0  0
   58.6530   32.7630   45.2140 C   0  0  0  0  0  0  0  0  0  0  0  0
   57.8493   33.4786   45.4421 H   0  0  0  0  0  0  0  0  0  0  0  0
   59.4378   33.2668   44.6307 H   0  0  0  0  0  0  0  0  0  0  0  0
   58.2433   31.9252   44.6307 H   0  0  0  0  0  0  0  0  0  0  0  0
   59.7450   30.9980   46.6710 N   0  0  0  0  0  0  0  0  0  0  0  0
   59.8220   29.9570   45.6330 C   0  0  0  0  0  0  0  0  0  0  0  0
   59.9136   30.4359   44.6470 H   0  0  0  0  0  0  0  0  0  0  0  0
   60.6987   29.3230   45.8314 H   0  0  0  0  0  0  0  0  0  0  0  0
   58.5850   29.0950   45.6520 C   0  0  0  0  0  0  0  0  0  0  0  0
   58.6550   27.7570   46.0760 C   0  0  0  0  0  0  0  0  0  0  0  0
   59.6165   27.3379   46.4074 H   0  0  0  0  0  0  0  0  0  0  0  0
   57.5100   26.9560   46.0790 C   0  0  0  0  0  0  0  0  0  0  0  0
   57.5734   25.9089   46.4100 H   0  0  0  0  0  0  0  0  0  0  0  0
   56.2840   27.4830   45.6620 C   0  0  0  0  0  0  0  0  0  0  0  0
   55.1490   26.6810   45.6680 O   0  0  0  0  0  0  0  0  0  0  0  0
   56.2030   28.8160   45.2410 C   0  0  0  0  0  0  0  0  0  0  0  0
   54.9870   29.3440   44.8270 O   0  0  0  0  0  0  0  0  0  0  0  0
   57.3490   29.6180   45.2370 C   0  0  0  0  0  0  0  0  0  0  0  0
   57.2820   30.6651   44.9067 H   0  0  0  0  0  0  0  0  0  0  0  0
   60.0940   30.9070   47.9840 C   0  0  0  0  0  0  0  0  0  0  0  0
   60.6340   29.8170   48.5560 C   0  0  0  0  0  0  0  0  0  0  0  0
   60.8197   28.9150   47.9544 H   0  0  0  0  0  0  0  0  0  0  0  0
   60.8902   29.8270   49.6257 H   0  0  0  0  0  0  0  0  0  0  0  0
  1  2  1  0
  2  3  1  0
  3  4  1  0
  4  5  1  0
  5  6  2  0
  5  7  1  0
  7  8  1  0
  8  9  2  0
  8 10  1  0
 10 11  1  0
 11 12  1  0
 11 13  2  0
 13 14  1  0
 14 15  1  0
 14 16  2  0
 16 17  1  0
 17 18  1  0
 17 19  1  0
 17 20  1  0
 16 21  1  0
 21 22  1  0
 22 23  1  0
 22 24  1  0
 22 25  1  0
 25 26  2  0
 26 27  1  0
 26 28  1  0
 28 29  1  0
 28 30  2  0
 30 31  1  0
 30 32  1  0
 32 33  1  0
 32 34  2  0
 34 35  1  0
 21 36  1  0
 36 37  2  0
 37 38  1  0
 37 39  1  0
 10  3  2  0
 36 13  1  0
 34 25  1  0
M  CHG  4   4  -1   7  -1  31  -1  33  -1
M  END
>  <UniqueID>  (1) 
1

>  <SMILES>  (1) 
C=c1/c(=C/c2c(O)[n-]c(=O)[n-]c2=O)cc(C)n1Cc1ccc([O-])c([O-])c1

>  <Energy>  (1) 
79.57769607822704

>  <Genealogy>  (1) 
C=c1c(=Cc2c(O)[n-]c(=O)[n-]c2=O)cc(C)n1Cc1ccc([O-])c([O-])c1 (protonated)
C=c1/c(=C/c2c(O)[n-]c(=O)[n-]c2=O)cc(C)n1Cc1ccc([O-])c([O-])c1 (cis-trans isomerization)
C=c1/c(=C/c2c(O)[n-]c(=O)[n-]c2=O)cc(C)n1Cc1ccc([O-])c([O-])c1 (3D coordinates assigned)
C=c1/c(=C/c2c(O)[n-]c(=O)[n-]c2=O)cc(C)n1Cc1ccc([O-])c([O-])c1 (optimized conformer: 79.57769607822704 kcal/mol)

>  <smiles>  (1) 
C=c1c(=Cc2c(O)[nH]c(=O)[nH]c2=O)cc(C)n1Cc1ccc(O)c(O)c1

>  <score_type>  (1) 
oracle

>  <origin>  (1) 
adg

>  <m_score__min__energy>  (1) 
-17.719999999999999

>  <m_primary>  (1) 
energy

$$$$
1:0
     RDKit          3D

 59 61  0  0  0  0  0  0  0  0999 V2000
   59.1060   22.7720   45.1110 C   0  0  0  0  0  0  0  0  0  0  0  0
   59.6400   23.9430   45.7220 O   0  0  0  0  0  0  0  0  0  0  0  0
   58.8770   25.0540   46.1110 C   0  0  0  0  0  0  0  0  0  0  0  0
   57.4930   25.1380   45.8750 C   0  0  0  0  0  0  0  0  0  0  0  0
   56.7690   26.2760   46.2770 C   0  0  0  0  0  0  0  0  0  0  0  0
   55.3890   26.4070   46.0600 O   0  0  0  0  0  0  0  0  0  0  0  0
   54.5400   25.3560   45.6110 C   0  0  0  0  0  0  0  0  0  0  0  0
   57.4400   27.3230   46.9180 C   0  0  0  0  0  0  0  0  0  0  0  0
   58.8190   27.2490   47.1750 C   0  0  0  0  0  0  0  0  0  0  0  0
   59.5060   28.3680   47.8610 C   0  0  0  0  0  0  0  0  0  0  0  0
   60.6790   28.6760   47.5150 O   0  0  0  0  0  0  0  0  0  0  0  0
   58.8470   29.1200   48.8940 N   0  0  0  0  0  0  0  0  0  0  0  0
   59.5050   30.1950   49.6370 C   0  0  0  0  0  0  0  0  0  0  0  0
   60.2220   31.1640   48.6770 C   0  0  2  0  0  0  0  0  0  0  0  0
   61.7450   31.1030   48.8540 C   0  0  0  0  0  0  0  0  0  0  0  0
   62.4250   32.0710   47.8910 C   0  0  0  0  0  0  0  0  0  0  0  0
   61.9200   33.5050   48.1000 C   0  0  0  0  0  0  0  0  0  0  0  0
   60.4450   33.6040   48.0900 N   0  0  0  0  0  0  0  0  0  0  0  0
   59.8110   34.0170   46.8200 C   0  0  0  0  0  0  0  0  0  0  0  0
   59.0250   32.9200   46.1480 C   0  0  0  0  0  0  0  0  0  0  0  0
   57.7040   33.1450   45.7300 C   0  0  0  0  0  0  0  0  0  0  0  0
   56.9770   32.1300   45.1010 C   0  0  0  0  0  0  0  0  0  0  0  0
   57.5590   30.8720   44.8930 C   0  0  0  0  0  0  0  0  0  0  0  0
   56.6510   29.5890   44.1000 S   0  0  0  0  0  0  0  0  0  0  0  0
   55.1530   29.3460   44.9230 N   0  0  0  0  0  0  0  0  0  0  0  0
   56.3790   29.9620   42.6690 O   0  0  0  0  0  0  0  0  0  0  0  0
   57.4510   28.3170   44.1210 O   0  0  0  0  0  0  0  0  0  0  0  0
   58.8640   30.6320   45.3420 C   0  0  0  0  0  0  0  0  0  0  0  0
   59.5900   31.6460   45.9710 C   0  0  0  0  0  0  0  0  0  0  0  0
   59.7210   32.6050   48.9040 C   0  0  0  0  0  0  0  0  0  0  0  0
   59.5290   26.1100   46.7570 C   0  0  0  0  0  0  0  0  0  0  0  0
   58.7840   22.0659   45.8906 H   0  0  0  0  0  0  0  0  0  0  0  0
   58.2436   23.0456   44.4853 H   0  0  0  0  0  0  0  0  0  0  0  0
   59.8780   22.3003   44.4853 H   0  0  0  0  0  0  0  0  0  0  0  0
   56.9730   24.3088   45.3729 H   0  0  0  0  0  0  0  0  0  0  0  0
   54.1158   24.8309   46.4795 H   0  0  0  0  0  0  0  0  0  0  0  0
   53.7254   25.7769   45.0033 H   0  0  0  0  0  0  0  0  0  0  0  0
   55.1228   24.6482   45.0033 H   0  0  0  0  0  0  0  0  0  0  0  0
   56.8791   28.2179   47.2255 H   0  0  0  0  0  0  0  0  0  0  0  0
   57.8220   28.9940   49.0470 H   0  0  0  0  0  0  0  0  0  0  0  0
   58.7498   30.7504   50.2125 H   0  0  0  0  0  0  0  0  0  0  0  0
   60.2511   29.7514   50.3126 H   0  0  0  0  0  0  0  0  0  0  0  0
   59.9867   30.8552   47.6478 H   0  0  0  0  0  0  0  0  0  0  0  0
   62.0022   31.3776   49.8876 H   0  0  0  0  0  0  0  0  0  0  0  0
   62.0911   30.0809   48.6405 H   0  0  0  0  0  0  0  0  0  0  0  0
   63.5113   32.0442   48.0622 H   0  0  0  0  0  0  0  0  0  0  0  0
   62.1879   31.7638   46.8617 H   0  0  0  0  0  0  0  0  0  0  0  0
   62.2894   33.8691   49.0701 H   0  0  0  0  0  0  0  0  0  0  0  0
   62.2967   34.1122   47.2637 H   0  0  0  0  0  0  0  0  0  0  0  0
   59.1290   34.8544   47.0290 H   0  0  0  0  0  0  0  0  0  0  0  0
   60.6228   34.2970   46.1326 H   0  0  0  0  0  0  0  0  0  0  0  0
   57.2376   34.1269   45.8985 H   0  0  0  0  0  0  0  0  0  0  0  0
   55.9457   32.3191   44.7685 H   0  0  0  0  0  0  0  0  0  0  0  0
   55.3180   28.6090   45.6450 H   0  0  0  0  0  0  0  0  0  0  0  0
   59.3189   29.6408   45.1986 H   0  0  0  0  0  0  0  0  0  0  0  0
   60.6103   31.4458   46.3300 H   0  0  0  0  0  0  0  0  0  0  0  0
   59.8513   32.8579   49.9666 H   0  0  0  0  0  0  0  0  0  0  0  0
   58.6642   32.6372   48.6004 H   0  0  0  0  0  0  0  0  0  0  0  0
   60.6119   26.0481   46.9403 H   0  0  0  0  0  0  0  0  0  0  0  0
  1  2  1  0
  2  3  1  0
  3  4  2  0
  4  5  1  0
  5  6  1  0
  6  7  1  0
  5  8  2  0
  8  9  1  0
  9 10  1  0
 10 11  2  0
 10 12  1  0
 12 13  1  0
 13 14  1  0
 14 15  1  0
 15 16  1  0
 16 17  1  0
 17 18  1  0
 18 19  1  0
 19 20  1  0
 20 21  2  0
 21 22  1  0
 22 23  2  0
 23 24  1  0
 24 25  1  0
 24 26  2  0
 24 27  2  0
 23 28  1  0
 28 29  2  0
 18 30  1  0
  9 31  2  0
 31  3  1  0
 30 14  1  0
 29 20  1  0
  1 32  1  0
  1 33  1  0
  1 34  1  0
  4 35  1  0
  7 36  1  0
  7 37  1  0
  7 38  1  0
  8 39  1  0
 12 40  1  0
 13 41  1  0
 13 42  1  0
 14 43  1  6
 15 44  1  0
 15 45  1  0
 16 46  1  0
 16 47  1  0
 17 48  1  0
 17 49  1  0
 19 50  1  0
 19 51  1  0
 21 52  1  0
 22 53  1  0
 25 54  1  0
 28 55  1  0
 29 56  1  0
 30 57  1  0
 30 58  1  0
 31 59  1  0
M  CHG  1  25  -1
M  END
>  <UniqueID>  (2) 
2

>  <SMILES>  (2) 
COc1cc(OC)cc(C(=O)NC[C@@H]2CCCN(Cc3ccc(S([NH-])(=O)=O)cc3)C2)c1

>  <Energy>  (2) 
63.08513705840583

>  <Genealogy>  (2) 
COc1cc(OC)cc(C(=O)NCC2CCCN(Cc3ccc(S([NH-])(=O)=O)cc3)C2)c1 (protonated)
COc1cc(OC)cc(C(=O)NC[C@@H]2CCCN(Cc3ccc(S([NH-])(=O)=O)cc3)C2)c1 (chirality)
COc1cc(OC)cc(C(=O)NC[C@@H]2CCCN(Cc3ccc(S([NH-])(=O)=O)cc3)C2)c1 (3D coordinates assigned)
COc1cc(OC)cc(C(=O)NC[C@@H]2CCCN(Cc3ccc(S([NH-])(=O)=O)cc3)C2)c1 (nonaromatic ring conformer: 63.08513705840583 kcal/mol)

>  <smiles>  (2) 
COc1cc(OC)cc(C(=O)NCC2CCCN(Cc3ccc(S(N)(=O)=O)cc3)C2)c1

>  <score_type>  (2) 
oracle

>  <origin>  (2) 
adg

>  <m_score__min__energy>  (2) 
-11.619999999999999

>  <m_primary>  (2) 
energy

$$$$
2:0
     RDKit          3D

 31 33  0  0  1  0  0  0  0  0999 V2000
   63.6950   33.0840   47.2650 Br  0  0  0  0  0  0  0  0  0  0  0  0
   61.8870   33.6900   47.4960 C   0  0  0  0  0  0  0  0  0  0  0  0
   61.3440   33.8740   48.7610 C   0  0  0  0  0  0  0  0  0  0  0  0
   60.0350   34.3120   48.9300 C   0  0  0  0  0  0  0  0  0  0  0  0
   59.2620   34.5700   47.8190 C   0  0  0  0  0  0  0  0  0  0  0  0
   59.7740   34.3970   46.5290 C   0  0  0  0  0  0  0  0  0  0  0  0
   58.8870   34.6940   45.4010 C   0  0  0  0  0  0  0  0  0  0  0  0
   57.7730   33.7020   45.2290 C   0  0  0  0  0  0  0  0  0  0  0  0
   57.7960   32.6510   46.2180 N   0  0  0  0  0  0  0  0  0  0  0  0
   58.1970   31.4880   45.8390 C   0  0  0  0  0  0  0  0  0  0  0  0
   59.4190   31.0130   46.2160 N   0  0  0  0  0  0  0  0  0  0  0  0
   59.8530   29.7990   45.8270 C   0  0  0  0  0  0  0  0  0  0  0  0
   59.0910   29.0270   45.0570 N   0  0  0  0  0  0  0  0  0  0  0  0
   57.8660   29.4100   44.6330 C   0  0  0  0  0  0  0  0  0  0  0  0
   56.9380   28.8240   43.8720 N   0  0  0  0  0  0  0  0  0  0  0  0
   55.9100   29.7060   43.7960 C   0  0  0  0  0  0  0  0  0  0  0  0
   56.2020   30.8180   44.4990 N   0  0  0  0  0  0  0  0  0  0  0  0
   57.4360   30.6550   45.0380 C   0  0  0  0  0  0  0  0  0  0  0  0
   61.0700   33.9620   46.4180 C   0  0  0  0  0  0  0  0  0  0  0  0
   61.9621   33.6690   49.6475 H   0  0  0  0  0  0  0  0  0  0  0  0
   59.6212   34.4510   49.9397 H   0  0  0  0  0  0  0  0  0  0  0  0
   58.2264   34.9173   47.9486 H   0  0  0  0  0  0  0  0  0  0  0  0
   58.4445   35.6884   45.5602 H   0  0  0  0  0  0  0  0  0  0  0  0
   59.5011   34.6477   44.4895 H   0  0  0  0  0  0  0  0  0  0  0  0
   56.8139   34.2351   45.3063 H   0  0  0  0  0  0  0  0  0  0  0  0
   57.9021   33.2297   44.2440 H   0  0  0  0  0  0  0  0  0  0  0  0
   60.0540   31.5820   46.8200 H   0  0  0  0  0  0  0  0  0  0  0  0
   60.8434   29.4437   46.1478 H   0  0  0  0  0  0  0  0  0  0  0  0
   56.9800   27.8680   43.4150 H   0  0  0  0  0  0  0  0  0  0  0  0
   54.9749   29.5380   43.2416 H   0  0  0  0  0  0  0  0  0  0  0  0
   61.4831   33.8215   45.4082 H   0  0  0  0  0  0  0  0  0  0  0  0
  1  2  1  0
  2  3  2  0
  3  4  1  0
  4  5  2  0
  5  6  1  0
  6  7  1  0
  7  8  1  0
  8  9  1  0
  9 10  2  0
 10 11  1  0
 11 12  1  0
 12 13  2  0
 13 14  1  0
 14 15  1  0
 15 16  1  0
 16 17  2  0
 17 18  1  0
  6 19  2  0
 19  2  1  0
 18 10  1  0
 18 14  2  0
  3 20  1  0
  4 21  1  0
  5 22  1  0
  7 23  1  0
  7 24  1  0
  8 25  1  0
  8 26  1  0
 11 27  1  0
 12 28  1  0
 15 29  1  0
 16 30  1  0
 19 31  1  0
M  END
>  <smiles>  (3) 
Brc1cccc(CCN=c2[nH]cnc3[nH]cnc23)c1

>  <score_type>  (3) 
oracle

>  <origin>  (3) 
adg

>  <m_score__min__energy>  (3) 
-7.2999999999999998

>  <m_primary>  (3) 
energy

$$$$
3:0
     RDKit          3D

 44 46  0  0  0  0  0  0  0  0999 V2000
   57.8588   20.5035   43.0575 H   0  0  0  0  0  0  0  0  0  0  0  0
   57.0990   21.2110   43.4210 C   0  0  0  0  0  0  0  0  0  0  0  0
   56.5220   21.0310   44.6820 C   0  0  0  0  0  0  0  0  0  0  0  0
   56.8291   20.1821   45.3105 H   0  0  0  0  0  0  0  0  0  0  0  0
   55.5550   21.9290   45.1450 C   0  0  0  0  0  0  0  0  0  0  0  0
   55.1117   21.7908   46.1422 H   0  0  0  0  0  0  0  0  0  0  0  0
   55.1480   23.0060   44.3420 C   0  0  0  0  0  0  0  0  0  0  0  0
   54.1400   23.9920   44.8540 C   0  0  0  0  0  0  0  0  0  0  0  0
   53.1842   23.4788   45.0358 H   0  0  0  0  0  0  0  0  0  0  0  0
   53.9924   24.7871   44.1083 H   0  0  0  0  0  0  0  0  0  0  0  0
   54.6220   24.5750   46.0970 N   0  0  0  0  0  0  0  0  0  0  0  0
   55.6980   25.5160   46.1460 C   0  0  0  0  0  0  0  0  0  0  0  0
   55.4640   26.7450   45.9860 O   0  0  0  0  0  0  0  0  0  0  0  0
   57.0840   25.0320   46.3490 C   0  0  0  0  0  0  0  0  0  0  0  0
   57.2390   23.8270   47.1360 C   0  0  0  0  0  0  0  0  0  0  0  0
   57.3640   22.8630   47.7650 N   0  0  0  0  0  0  0  0  0  0  0  0
   58.1710   25.6450   45.8140 C   0  0  0  0  0  0  0  0  0  0  0  0
   58.0670   26.9260   45.0780 C   0  0  0  0  0  0  0  0  0  0  0  0
   57.8810   27.0770   43.7070 C   0  0  0  0  0  0  0  0  0  0  0  0
   57.7557   26.2472   42.9958 H   0  0  0  0  0  0  0  0  0  0  0  0
   57.8760   28.3870   43.3720 N   0  0  0  0  0  0  0  0  0  0  0  0
   57.7550   28.7860   42.4150 H   0  0  0  0  0  0  0  0  0  0  0  0
   58.0730   29.0650   44.5160 C   0  0  0  0  0  0  0  0  0  0  0  0
   58.1670   30.4480   44.6690 C   0  0  0  0  0  0  0  0  0  0  0  0
   58.0559   31.1222   43.8069 H   0  0  0  0  0  0  0  0  0  0  0  0
   58.4100   30.9590   45.9690 C   0  0  0  0  0  0  0  0  0  0  0  0
   58.5160   32.3350   46.2210 O   0  0  0  0  0  0  0  0  0  0  0  0
   57.9750   33.3490   45.3810 C   0  0  0  0  0  0  0  0  0  0  0  0
   57.5476   34.1501   46.0019 H   0  0  0  0  0  0  0  0  0  0  0  0
   58.7721   33.7630   44.7460 H   0  0  0  0  0  0  0  0  0  0  0  0
   57.1873   32.9174   44.7460 H   0  0  0  0  0  0  0  0  0  0  0  0
   58.5560   30.0660   47.0550 C   0  0  0  0  0  0  0  0  0  0  0  0
   58.7467   30.4642   48.0625 H   0  0  0  0  0  0  0  0  0  0  0  0
   58.4610   28.6770   46.8660 C   0  0  0  0  0  0  0  0  0  0  0  0
   58.5863   27.9803   47.7080 H   0  0  0  0  0  0  0  0  0  0  0  0
   58.2030   28.2090   45.5780 C   0  0  0  0  0  0  0  0  0  0  0  0
   59.5530   25.0650   45.9910 C   0  0  0  0  0  0  0  0  0  0  0  0
   59.7766   24.9712   47.0639 H   0  0  0  0  0  0  0  0  0  0  0  0
   59.5973   24.0724   45.5190 H   0  0  0  0  0  0  0  0  0  0  0  0
   60.2924   25.7287   45.5190 H   0  0  0  0  0  0  0  0  0  0  0  0
   55.7430   23.1900   43.0820 C   0  0  0  0  0  0  0  0  0  0  0  0
   55.4473   24.0442   42.4552 H   0  0  0  0  0  0  0  0  0  0  0  0
   56.7100   22.2900   42.6230 C   0  0  0  0  0  0  0  0  0  0  0  0
   57.1653   22.4318   41.6317 H   0  0  0  0  0  0  0  0  0  0  0  0
  1  2  1  0
  2  3  2  0
  3  4  1  0
  3  5  1  0
  5  6  1  0
  5  7  2  0
  7  8  1  0
  8  9  1  0
  8 10  1  0
  8 11  1  0
 11 12  1  0
 12 13  2  0
 12 14  1  0
 14 15  1  0
 15 16  3  0
 14 17  2  0
 17 18  1  0
 18 19  2  0
 19 20  1  0
 19 21  1  0
 21 22  1  0
 21 23  1  0
 23 24  2  0
 24 25  1  0
 24 26  1  0
 26 27  1  0
 27 28  1  0
 28 29  1  0
 28 30  1  0
 28 31  1  0
 26 32  2  0
 32 33  1  0
 32 34  1  0
 34 35  1  0
 34 36  2  0
 17 37  1  0
 37 38  1  0
 37 39  1  0
 37 40  1  0
  7 41  1  0
 41 42  1  0
 41 43  2  0
 43 44  1  0
 43  2  1  0
 36 18  1  0
 36 23  1  0
M  CHG  1  11  -1
M  END
>  <UniqueID>  (4) 
3

>  <SMILES>  (4) 
COc1ccc2c(/C(C)=C(/C#N)C(=O)[N-]Cc3ccccc3)c[nH]c2c1

>  <Energy>  (4) 
84.50963135274256

>  <Genealogy>  (4) 
COc1ccc2c(C(C)=C(C#N)C(=O)[N-]Cc3ccccc3)c[nH]c2c1 (protonated)
COc1ccc2c(/C(C)=C(/C#N)C(=O)[N-]Cc3ccccc3)c[nH]c2c1 (cis-trans isomerization)
COc1ccc2c(/C(C)=C(/C#N)C(=O)[N-]Cc3ccccc3)c[nH]c2c1 (3D coordinates assigned)
COc1ccc2c(/C(C)=C(/C#N)C(=O)[N-]Cc3ccccc3)c[nH]c2c1 (optimized conformer: 84.50963135274256 kcal/mol)

>  <smiles>  (4) 
COc1ccc2c(C(C)=C(C#N)C(=O)NCc3ccccc3)c[nH]c2c1

>  <score_type>  (4) 
oracle

>  <origin>  (4) 
adg

>  <m_score__min__energy>  (4) 
-9.6300000000000008

>  <m_primary>  (4) 
energy

$$$$
4:0
     RDKit          3D

 38 39  0  0  0  0  0  0  0  0999 V2000
   59.0370   34.5490   45.8880 C   0  0  0  0  0  0  0  0  0  0  0  0
   57.8130   33.7120   45.7400 C   0  0  0  0  0  0  0  0  0  0  0  0
   57.2180   33.2900   46.7680 O   0  0  0  0  0  0  0  0  0  0  0  0
   57.3610   33.3720   44.4600 O   0  0  0  0  0  0  0  0  0  0  0  0
   57.8960   32.2870   43.7040 C   0  0  0  0  0  0  0  0  0  0  0  0
   57.3930   30.9820   44.2380 C   0  0  0  0  0  0  0  0  0  0  0  0
   56.2930   30.9460   44.8530 O   0  0  0  0  0  0  0  0  0  0  0  0
   58.1310   29.7730   44.0140 N   0  0  0  0  0  0  0  0  0  0  0  0
   58.0060   28.6320   44.8760 C   0  0  0  0  0  0  0  0  0  0  0  0
   59.1390   28.1050   45.5070 C   0  0  0  0  0  0  0  0  0  0  0  0
   59.0230   26.9900   46.3410 C   0  0  0  0  0  0  0  0  0  0  0  0
   57.7740   26.4010   46.5560 C   0  0  0  0  0  0  0  0  0  0  0  0
   56.6290   26.9240   45.9450 C   0  0  0  0  0  0  0  0  0  0  0  0
   55.3550   26.3290   46.2380 N   0  0  0  0  0  0  0  0  0  0  0  0
   54.7810   25.1650   45.6230 C   0  0  0  0  0  0  0  0  0  0  0  0
   53.5400   24.9830   45.7220 O   0  0  0  0  0  0  0  0  0  0  0  0
   55.5890   24.1530   44.9110 C   0  0  0  0  0  0  0  0  0  0  0  0
   55.1180   23.4780   43.8530 C   0  0  0  0  0  0  0  0  0  0  0  0
   55.9060   22.4880   43.2530 O   0  0  0  0  0  0  0  0  0  0  0  0
   57.0930   21.9960   43.8770 C   0  0  0  0  0  0  0  0  0  0  0  0
   57.8250   23.1470   44.5670 C   0  0  0  0  0  0  0  0  0  0  0  0
   56.8990   23.9060   45.3470 O   0  0  0  0  0  0  0  0  0  0  0  0
   56.7470   28.0590   45.1220 C   0  0  0  0  0  0  0  0  0  0  0  0
   59.2531   34.6968   46.9564 H   0  0  0  0  0  0  0  0  0  0  0  0
   59.8877   34.0426   45.4084 H   0  0  0  0  0  0  0  0  0  0  0  0
   58.8737   35.5254   45.4084 H   0  0  0  0  0  0  0  0  0  0  0  0
   57.5889   32.3912   42.6529 H   0  0  0  0  0  0  0  0  0  0  0  0
   58.9932   32.3051   43.7804 H   0  0  0  0  0  0  0  0  0  0  0  0
   58.7420   29.7050   43.1690 H   0  0  0  0  0  0  0  0  0  0  0  0
   60.1229   28.5698   45.3459 H   0  0  0  0  0  0  0  0  0  0  0  0
   59.9169   26.5748   46.8295 H   0  0  0  0  0  0  0  0  0  0  0  0
   57.6905   25.5204   47.2099 H   0  0  0  0  0  0  0  0  0  0  0  0
   54.1161   23.7009   43.4575 H   0  0  0  0  0  0  0  0  0  0  0  0
   56.8251   21.2331   44.6229 H   0  0  0  0  0  0  0  0  0  0  0  0
   57.7490   21.5512   43.1142 H   0  0  0  0  0  0  0  0  0  0  0  0
   58.6093   22.7411   45.2228 H   0  0  0  0  0  0  0  0  0  0  0  0
   58.2808   23.7978   43.8063 H   0  0  0  0  0  0  0  0  0  0  0  0
   55.8476   28.5007   44.6682 H   0  0  0  0  0  0  0  0  0  0  0  0
  1  2  1  0
  2  3  2  0
  2  4  1  0
  4  5  1  0
  5  6  1  0
  6  7  2  0
  6  8  1  0
  8  9  1  0
  9 10  2  0
 10 11  1  0
 11 12  2  0
 12 13  1  0
 13 14  1  0
 14 15  1  0
 15 16  2  0
 15 17  1  0
 17 18  2  0
 18 19  1  0
 19 20  1  0
 20 21  1  0
 21 22  1  0
 13 23  2  0
 23  9  1  0
 22 17  1  0
  1 24  1  0
  1 25  1  0
  1 26  1  0
  5 27  1  0
  5 28  1  0
  8 29  1  0
 10 30  1  0
 11 31  1  0
 12 32  1  0
 18 33  1  0
 20 34  1  0
 20 35  1  0
 21 36  1  0
 21 37  1  0
 23 38  1  0
M  CHG  1  14  -1
M  END
>  <UniqueID>  (5) 
4

>  <SMILES>  (5) 
CC(=O)OCC(=O)Nc1cccc([N-]C(=O)C2=COCCO2)c1

>  <Energy>  (5) 
40.85788392259601

>  <Genealogy>  (5) 
CC(=O)OCC(=O)Nc1cccc([N-]C(=O)C2=COCCO2)c1 (protonated)
CC(=O)OCC(=O)Nc1cccc([N-]C(=O)C2=COCCO2)c1 (3D coordinates assigned)
CC(=O)OCC(=O)Nc1cccc([N-]C(=O)C2=COCCO2)c1 (nonaromatic ring conformer: 40.85788392259601 kcal/mol)

>  <smiles>  (5) 
CC(=O)OCC(=O)Nc1cccc(NC(=O)C2=COCCO2)c1

>  <score_type>  (5) 
oracle

>  <origin>  (5) 
adg

>  <m_score__min__energy>  (5) 
-9.7300000000000004

>  <m_primary>  (5) 
energy

$$$$
5:0
     RDKit          3D

 56 59  0  0  0  0  0  0  0  0999 V2000
   55.2807   25.8484   45.4767 H   0  0  0  0  0  0  0  0  0  0  0  0
   56.2010   26.3730   45.7730 C   0  0  0  0  0  0  0  0  0  0  0  0
   56.2900   27.7220   45.6280 N   0  0  0  0  0  0  0  0  0  0  0  0
   57.4090   28.4150   45.9820 C   0  0  0  0  0  0  0  0  0  0  0  0
   57.4830   29.7070   45.8340 N   0  0  0  0  0  0  0  0  0  0  0  0
   58.5470   30.5700   46.2600 C   0  0  0  0  0  0  0  0  0  0  0  0
   59.5020   30.7930   45.4710 O   0  0  0  0  0  0  0  0  0  0  0  0
   58.5410   31.1710   47.5610 N   0  0  0  0  0  0  0  0  0  0  0  0
   59.3630   30.5000   48.9310 S   0  0  0  0  0  0  0  0  0  0  0  0
   60.8350   30.4300   48.6460 O   0  0  0  0  0  0  0  0  0  0  0  0
   58.8340   29.1120   49.1450 O   0  0  0  0  0  0  0  0  0  0  0  0
   59.0700   31.4840   50.3790 C   0  0  0  0  0  0  0  0  0  0  0  0
   57.7490   31.5940   50.8490 C   0  0  0  0  0  0  0  0  0  0  0  0
   56.9289   31.1364   50.2763 H   0  0  0  0  0  0  0  0  0  0  0  0
   57.4660   32.2760   52.0320 C   0  0  0  0  0  0  0  0  0  0  0  0
   56.1870   32.3610   52.4740 F   0  0  0  0  0  0  0  0  0  0  0  0
   58.4970   32.8570   52.7650 C   0  0  0  0  0  0  0  0  0  0  0  0
   58.2733   33.3849   53.7038 H   0  0  0  0  0  0  0  0  0  0  0  0
   59.8140   32.7710   52.3110 C   0  0  0  0  0  0  0  0  0  0  0  0
   60.6221   33.2311   52.8985 H   0  0  0  0  0  0  0  0  0  0  0  0
   60.1210   32.1030   51.1110 C   0  0  0  0  0  0  0  0  0  0  0  0
   61.5370   32.0850   50.6760 C   0  0  0  0  0  0  0  0  0  0  0  0
   62.2390   31.0610   50.8970 O   0  0  0  0  0  0  0  0  0  0  0  0
   62.1240   33.2400   50.0630 N   0  0  0  0  0  0  0  0  0  0  0  0
   61.7310   33.8520   48.7910 C   0  0  2  0  0  0  0  0  0  0  0  0
   62.4475   34.6581   48.5747 H   0  0  0  0  0  0  0  0  0  0  0  0
   60.3440   34.5380   48.8710 C   0  0  0  0  0  0  0  0  0  0  0  0
   60.0073   34.5287   49.9182 H   0  0  0  0  0  0  0  0  0  0  0  0
   60.4590   35.5628   48.4882 H   0  0  0  0  0  0  0  0  0  0  0  0
   59.2790   33.8360   48.0050 C   0  0  0  0  0  0  0  0  0  0  0  0
   59.0726   32.8468   48.4397 H   0  0  0  0  0  0  0  0  0  0  0  0
   58.3881   34.4812   47.9989 H   0  0  0  0  0  0  0  0  0  0  0  0
   59.6980   33.6510   46.5880 N   0  0  1  0  0  0  0  0  0  0  0  0
   59.2070   32.7890   46.2490 H   0  0  0  0  0  0  0  0  0  0  0  0
   59.2450   34.7620   45.7720 C   0  0  0  0  0  0  0  0  0  0  0  0
   59.7990   35.8510   45.8480 O   0  0  0  0  0  0  0  0  0  0  0  0
   58.0420   34.6130   44.8780 C   0  0  0  0  0  0  0  0  0  0  0  0
   58.0277   35.6564   44.5299 H   0  0  0  0  0  0  0  0  0  0  0  0
   57.8980   33.2540   44.2100 C   0  0  0  0  0  0  0  0  0  0  0  0
   57.4785   33.1817   43.1957 H   0  0  0  0  0  0  0  0  0  0  0  0
   58.5812   32.4211   43.9873 H   0  0  0  0  0  0  0  0  0  0  0  0
   57.0010   33.6220   45.3770 C   0  0  0  0  0  0  0  0  0  0  0  0
   55.9315   33.8165   45.2084 H   0  0  0  0  0  0  0  0  0  0  0  0
   56.7651   33.1663   46.3500 H   0  0  0  0  0  0  0  0  0  0  0  0
   61.1550   33.4250   46.3910 C   0  0  0  0  0  0  0  0  0  0  0  0
   61.2941   32.7263   45.5528 H   0  0  0  0  0  0  0  0  0  0  0  0
   61.6210   34.3998   46.1843 H   0  0  0  0  0  0  0  0  0  0  0  0
   61.8290   32.8390   47.6380 C   0  0  0  0  0  0  0  0  0  0  0  0
   61.3230   31.9054   47.9249 H   0  0  0  0  0  0  0  0  0  0  0  0
   62.8866   32.6282   47.4211 H   0  0  0  0  0  0  0  0  0  0  0  0
   58.5100   27.7230   46.5030 C   0  0  0  0  0  0  0  0  0  0  0  0
   59.4237   28.2662   46.7859 H   0  0  0  0  0  0  0  0  0  0  0  0
   58.4370   26.3370   46.6600 C   0  0  0  0  0  0  0  0  0  0  0  0
   59.2952   25.7841   47.0697 H   0  0  0  0  0  0  0  0  0  0  0  0
   57.2750   25.6530   46.2970 C   0  0  0  0  0  0  0  0  0  0  0  0
   57.1720   23.9120   46.4890 Cl  0  0  0  0  0  0  0  0  0  0  0  0
  1  2  1  0
  2  3  1  0
  3  4  1  0
  4  5  2  0
  5  6  1  0
  6  7  2  0
  6  8  1  0
  8  9  1  0
  9 10  2  0
  9 11  2  0
  9 12  1  0
 12 13  2  0
 13 14  1  0
 13 15  1  0
 15 16  1  0
 15 17  2  0
 17 18  1  0
 17 19  1  0
 19 20  1  0
 19 21  2  0
 21 22  1  0
 22 23  2  0
 22 24  1  0
 24 25  1  0
 25 26  1  6
 25 27  1  0
 27 28  1  0
 27 29  1  0
 27 30  1  0
 30 31  1  0
 30 32  1  0
 30 33  1  0
 33 34  1  6
 33 35  1  0
 35 36  2  0
 35 37  1  0
 37 38  1  0
 37 39  1  0
 39 40  1  0
 39 41  1  0
 39 42  1  0
 42 43  1  0
 42 44  1  0
 33 45  1  0
 45 46  1  0
 45 47  1  0
 45 48  1  0
 48 49  1  0
 48 50  1  0
  4 51  1  0
 51 52  1  0
 51 53  2  0
 53 54  1  0
 53 55  1  0
 55 56  1  0
 55  2  2  0
 21 12  1  0
 48 25  1  0
 42 37  1  0
M  CHG  4   3  -1   8  -1  24  -1  33   1
M  END
>  <UniqueID>  (6) 
5

>  <SMILES>  (6) 
O=C(/N=c1/ccc(Cl)c[n-]1)[N-]S(=O)(=O)c1cc(F)ccc1C(=O)[N-]C1CC[NH+](C(=O)C2CC2)CC1

>  <Energy>  (6) 
342.6443886609471

>  <Genealogy>  (6) 
O=C(N=c1ccc(Cl)c[n-]1)[N-]S(=O)(=O)c1cc(F)ccc1C(=O)[N-]C1CC[NH+](C(=O)C2CC2)CC1 (protonated)
O=C(/N=c1/ccc(Cl)c[n-]1)[N-]S(=O)(=O)c1cc(F)ccc1C(=O)[N-]C1CC[NH+](C(=O)C2CC2)CC1 (cis-trans isomerization)
O=C(/N=c1/ccc(Cl)c[n-]1)[N-]S(=O)(=O)c1cc(F)ccc1C(=O)[N-]C1CC[NH+](C(=O)C2CC2)CC1 (3D coordinates assigned)
O=C(/N=c1/ccc(Cl)c[n-]1)[N-]S(=O)(=O)c1cc(F)ccc1C(=O)[N-]C1CC[NH+](C(=O)C2CC2)CC1 (nonaromatic ring conformer: 342.6443886609471 kcal/mol)

>  <smiles>  (6) 
O=C(N=c1ccc(Cl)c[nH]1)NS(=O)(=O)c1cc(F)ccc1C(=O)NC1CCN(C(=O)C2CC2)CC1

>  <score_type>  (6) 
oracle

>  <origin>  (6) 
adg

>  <m_score__min__energy>  (6) 
-11.4

>  <m_primary>  (6) 
energy

$$$$
6:0
     RDKit          3D

 70 74  0  0  0  0  0  0  0  0999 V2000
   50.9060   33.1010   52.7870 C   0  0  0  0  0  0  0  0  0  0  0  0
   50.5300   32.1530   51.7510 N   0  0  0  0  0  0  0  0  0  0  0  0
   51.3220   31.9250   50.5810 C   0  0  0  0  0  0  0  0  0  0  0  0
   51.3930   32.8020   49.6780 O   0  0  0  0  0  0  0  0  0  0  0  0
   52.1030   30.6510   50.4580 C   0  0  0  0  0  0  0  0  0  0  0  0
   52.6060   30.1260   51.8120 C   0  0  0  0  0  0  0  0  0  0  0  0
   54.0250   30.5390   52.1290 C   0  0  0  0  0  0  0  0  0  0  0  0
   54.3630   31.7460   52.0030 O   0  0  0  0  0  0  0  0  0  0  0  0
   55.0540   29.5620   52.3460 N   0  0  0  0  0  0  0  0  0  0  0  0
   56.0890   29.6770   53.1230 C   0  0  0  0  0  0  0  0  0  0  0  0
   55.9650   29.7930   54.4630 N   0  0  0  0  0  0  0  0  0  0  0  0
   57.1730   29.8750   55.0800 C   0  0  0  0  0  0  0  0  0  0  0  0
   58.2670   29.8200   54.2250 C   0  0  0  0  0  0  0  0  0  0  0  0
   59.7050   29.8390   54.6380 C   0  0  0  0  0  0  0  0  0  0  0  0
   60.4610   30.8790   53.8560 C   0  0  0  0  0  0  0  0  0  0  0  0
   60.5770   32.1880   54.3410 C   0  0  0  0  0  0  0  0  0  0  0  0
   61.2930   33.1410   53.6170 C   0  0  0  0  0  0  0  0  0  0  0  0
   61.9030   32.7950   52.4090 C   0  0  0  0  0  0  0  0  0  0  0  0
   61.8070   31.4840   51.9020 C   0  0  0  0  0  0  0  0  0  0  0  0
   62.4940   31.1510   50.6150 C   0  0  0  0  0  0  0  0  0  0  0  0
   63.7310   30.8960   50.6530 O   0  0  0  0  0  0  0  0  0  0  0  0
   61.8220   31.1020   49.3270 N   0  0  1  0  0  0  0  0  0  0  0  0
   60.4880   30.4470   49.4310 C   0  0  0  0  0  0  0  0  0  0  0  0
   59.4220   31.0820   48.5210 C   0  0  0  0  0  0  0  0  0  0  0  0
   60.0110   31.3980   47.1380 C   0  0  1  0  0  0  0  0  0  0  0  0
   58.9670   31.9540   46.2460 N   0  0  0  0  0  0  0  0  0  0  0  0
   58.5550   33.3350   46.3260 C   0  0  0  0  0  0  0  0  0  0  0  0
   58.8080   34.0340   47.3440 O   0  0  0  0  0  0  0  0  0  0  0  0
   57.8290   33.8950   45.2740 O   0  0  0  0  0  0  0  0  0  0  0  0
   57.7310   33.2390   44.0120 C   0  0  0  0  0  0  0  0  0  0  0  0
   57.6160   31.7490   44.1910 C   0  0  0  0  0  0  0  0  0  0  0  0
   56.9340   30.9730   43.2430 C   0  0  0  0  0  0  0  0  0  0  0  0
   56.8400   29.5900   43.4060 C   0  0  0  0  0  0  0  0  0  0  0  0
   57.4240   28.9750   44.5130 C   0  0  0  0  0  0  0  0  0  0  0  0
   58.1250   29.7360   45.4530 C   0  0  0  0  0  0  0  0  0  0  0  0
   58.2580   31.1310   45.2870 C   0  0  0  0  0  0  0  0  0  0  0  0
   61.2660   32.3120   47.2210 C   0  0  0  0  0  0  0  0  0  0  0  0
   61.8210   32.4200   48.6520 C   0  0  0  0  0  0  0  0  0  0  0  0
   61.0880   30.5300   52.6510 C   0  0  0  0  0  0  0  0  0  0  0  0
   57.7100   29.6330   52.6470 S   0  0  0  0  0  0  0  0  0  0  0  0
   50.7283   32.6531   53.7758 H   0  0  0  0  0  0  0  0  0  0  0  0
   51.9720   33.3525   52.6845 H   0  0  0  0  0  0  0  0  0  0  0  0
   50.3022   34.0147   52.6845 H   0  0  0  0  0  0  0  0  0  0  0  0
   51.4572   29.8858   50.0026 H   0  0  0  0  0  0  0  0  0  0  0  0
   52.9859   30.8631   49.8371 H   0  0  0  0  0  0  0  0  0  0  0  0
   51.9459   30.5127   52.6024 H   0  0  0  0  0  0  0  0  0  0  0  0
   52.5930   29.0274   51.7583 H   0  0  0  0  0  0  0  0  0  0  0  0
   57.2766   29.9769   56.1704 H   0  0  0  0  0  0  0  0  0  0  0  0
   59.7711   30.0730   55.7108 H   0  0  0  0  0  0  0  0  0  0  0  0
   60.1468   28.8515   54.4390 H   0  0  0  0  0  0  0  0  0  0  0  0
   60.1027   32.4646   55.2942 H   0  0  0  0  0  0  0  0  0  0  0  0
   61.3777   34.1691   53.9988 H   0  0  0  0  0  0  0  0  0  0  0  0
   62.4651   33.5552   51.8468 H   0  0  0  0  0  0  0  0  0  0  0  0
   62.4060   30.4830   48.7130 H   0  0  0  0  0  0  0  0  0  0  0  0
   60.1444   30.5195   50.4734 H   0  0  0  0  0  0  0  0  0  0  0  0
   60.6126   29.4037   49.1055 H   0  0  0  0  0  0  0  0  0  0  0  0
   59.0615   32.0135   48.9819 H   0  0  0  0  0  0  0  0  0  0  0  0
   58.5910   30.3717   48.3988 H   0  0  0  0  0  0  0  0  0  0  0  0
   60.3618   30.4524   46.6990 H   0  0  0  0  0  0  0  0  0  0  0  0
   56.8407   33.6082   43.4819 H   0  0  0  0  0  0  0  0  0  0  0  0
   58.6398   33.4550   43.4311 H   0  0  0  0  0  0  0  0  0  0  0  0
   56.4720   31.4552   42.3689 H   0  0  0  0  0  0  0  0  0  0  0  0
   56.3045   28.9843   42.6602 H   0  0  0  0  0  0  0  0  0  0  0  0
   57.3327   27.8870   44.6470 H   0  0  0  0  0  0  0  0  0  0  0  0
   58.5758   29.2443   46.3276 H   0  0  0  0  0  0  0  0  0  0  0  0
   60.9933   33.3186   46.8712 H   0  0  0  0  0  0  0  0  0  0  0  0
   62.0487   31.8640   46.5912 H   0  0  0  0  0  0  0  0  0  0  0  0
   61.1951   33.1175   49.2279 H   0  0  0  0  0  0  0  0  0  0  0  0
   62.8576   32.7839   48.5970 H   0  0  0  0  0  0  0  0  0  0  0  0
   61.0177   29.4953   52.2843 H   0  0  0  0  0  0  0  0  0  0  0  0
  1  2  1  0
  2  3  1  0
  3  4  2  0
  3  5  1  0
  5  6  1  0
  6  7  1  0
  7  8  2  0
  7  9  1  0
  9 10  2  3
 10 11  1  0
 11 12  1  0
 12 13  2  0
 13 14  1  0
 14 15  1  0
 15 16  2  0
 16 17  1  0
 17 18  2  0
 18 19  1  0
 19 20  1  0
 20 21  2  0
 20 22  1  0
 22 23  1  0
 23 24  1  0
 24 25  1  0
 25 26  1  0
 26 27  1  0
 27 28  2  0
 27 29  1  0
 29 30  1  0
 30 31  1  0
 31 32  2  0
 32 33  1  0
 33 34  2  0
 34 35  1  0
 35 36  2  0
 25 37  1  0
 37 38  1  0
 19 39  2  0
 13 40  1  0
 40 10  1  0
 39 15  1  0
 38 22  1  0
 36 26  1  0
 36 31  1  0
  1 41  1  0
  1 42  1  0
  1 43  1  0
  5 44  1  0
  5 45  1  0
  6 46  1  0
  6 47  1  0
 12 48  1  0
 14 49  1  0
 14 50  1  0
 16 51  1  0
 17 52  1  0
 18 53  1  0
 22 54  1  6
 23 55  1  0
 23 56  1  0
 24 57  1  0
 24 58  1  0
 25 59  1  6
 30 60  1  0
 30 61  1  0
 32 62  1  0
 33 63  1  0
 34 64  1  0
 35 65  1  0
 37 66  1  0
 37 67  1  0
 38 68  1  0
 38 69  1  0
 39 70  1  0
M  CHG  3   2  -1  11  -1  22   1
M  END
>  <UniqueID>  (7) 
6

>  <SMILES>  (7) 
C[N-]C(=O)CCC(=O)N=c1[n-]cc(Cc2cccc(C(=O)[NH+]3CCC(N4C(=O)OCc5ccccc54)CC3)c2)s1

>  <Energy>  (7) 
124.96937472565857

>  <Genealogy>  (7) 
C[N-]C(=O)CCC(=O)N=c1[n-]cc(Cc2cccc(C(=O)[NH+]3CCC(N4C(=O)OCc5ccccc54)CC3)c2)s1 (protonated)
C[N-]C(=O)CCC(=O)N=c1[n-]cc(Cc2cccc(C(=O)[NH+]3CCC(N4C(=O)OCc5ccccc54)CC3)c2)s1 (3D coordinates assigned)
C[N-]C(=O)CCC(=O)N=c1[n-]cc(Cc2cccc(C(=O)[NH+]3CCC(N4C(=O)OCc5ccccc54)CC3)c2)s1 (nonaromatic ring conformer: 124.96937472565857 kcal/mol)

>  <smiles>  (7) 
CNC(=O)CCC(=O)N=c1[nH]cc(Cc2cccc(C(=O)N3CCC(N4C(=O)OCc5ccccc54)CC3)c2)s1

>  <score_type>  (7) 
oracle

>  <origin>  (7) 
adg

>  <m_score__min__energy>  (7) 
-12.82

>  <m_primary>  (7) 
energy

$$$$
7:0
     RDKit          3D

 48 51  0  0  0  0  0  0  0  0999 V2000
   59.6940   29.8950   47.1060 C   0  0  0  0  0  0  0  0  0  0  0  0
   58.9590   30.8070   46.4500 C   0  0  0  0  0  0  0  0  0  0  0  0
   58.2360   30.6330   45.2570 C   0  0  0  0  0  0  0  0  0  0  0  0
   57.9660   29.5260   44.5370 C   0  0  0  0  0  0  0  0  0  0  0  0
   57.4100   28.2690   45.0720 C   0  0  0  0  0  0  0  0  0  0  0  0
   56.0270   28.1240   45.2460 C   0  0  0  0  0  0  0  0  0  0  0  0
   55.1560   29.1400   44.8700 O   0  0  0  0  0  0  0  0  0  0  0  0
   55.5250   26.9790   45.7780 N   0  0  0  0  0  0  0  0  0  0  0  0
   56.3460   25.9670   46.1630 C   0  0  0  0  0  0  0  0  0  0  0  0
   55.8590   24.9150   46.6490 O   0  0  0  0  0  0  0  0  0  0  0  0
   57.6910   26.0940   46.0290 N   0  0  0  0  0  0  0  0  0  0  0  0
   58.2410   27.2190   45.5030 C   0  0  0  0  0  0  0  0  0  0  0  0
   59.4940   27.3110   45.4140 O   0  0  0  0  0  0  0  0  0  0  0  0
   57.7810   31.8910   44.8930 C   0  0  0  0  0  0  0  0  0  0  0  0
   58.1840   32.7650   45.8810 C   0  0  0  0  0  0  0  0  0  0  0  0
   57.9120   34.2380   45.8880 C   0  0  0  0  0  0  0  0  0  0  0  0
   58.9010   32.1110   46.8180 N   0  0  0  0  0  0  0  0  0  0  0  0
   59.5090   32.7110   47.9730 C   0  0  0  0  0  0  0  0  0  0  0  0
   58.9450   32.4990   49.2380 C   0  0  0  0  0  0  0  0  0  0  0  0
   59.5160   33.0750   50.3900 C   0  0  0  0  0  0  0  0  0  0  0  0
   58.9310   32.8540   51.6940 N   0  0  0  0  0  0  0  0  0  0  0  0
   57.6750   32.1490   51.9150 C   0  0  0  0  0  0  0  0  0  0  0  0
   57.5430   31.9950   53.4240 C   0  0  0  0  0  0  0  0  0  0  0  0
   58.4850   33.0350   54.0240 C   0  0  1  0  0  0  0  0  0  0  0  0
   59.0800   32.5470   55.1970 O   0  0  0  0  0  0  0  0  0  0  0  0
   59.5280   33.3080   52.9420 C   0  0  0  0  0  0  0  0  0  0  0  0
   60.6680   33.8710   50.2430 C   0  0  0  0  0  0  0  0  0  0  0  0
   61.2350   34.0800   48.9830 C   0  0  0  0  0  0  0  0  0  0  0  0
   60.6620   33.5030   47.8470 C   0  0  0  0  0  0  0  0  0  0  0  0
   61.4170   33.7600   46.2800 Cl  0  0  0  0  0  0  0  0  0  0  0  0
   60.2109   30.1715   48.0368 H   0  0  0  0  0  0  0  0  0  0  0  0
   59.7793   28.8712   46.7127 H   0  0  0  0  0  0  0  0  0  0  0  0
   58.1784   29.5632   43.4584 H   0  0  0  0  0  0  0  0  0  0  0  0
   57.2079   32.1439   43.9888 H   0  0  0  0  0  0  0  0  0  0  0  0
   57.8463   34.5938   46.9268 H   0  0  0  0  0  0  0  0  0  0  0  0
   58.7282   34.7640   45.3712 H   0  0  0  0  0  0  0  0  0  0  0  0
   56.9618   34.4379   45.3712 H   0  0  0  0  0  0  0  0  0  0  0  0
   58.0444   31.8745   49.3329 H   0  0  0  0  0  0  0  0  0  0  0  0
   56.8330   32.7328   51.5148 H   0  0  0  0  0  0  0  0  0  0  0  0
   57.6646   31.1734   51.4070 H   0  0  0  0  0  0  0  0  0  0  0  0
   56.5071   32.1864   53.7408 H   0  0  0  0  0  0  0  0  0  0  0  0
   57.7961   30.9766   53.7539 H   0  0  0  0  0  0  0  0  0  0  0  0
   57.9552   33.9553   54.3111 H   0  0  0  0  0  0  0  0  0  0  0  0
   59.1120   33.3080   55.8330 H   0  0  0  0  0  0  0  0  0  0  0  0
   59.7539   34.3833   52.8900 H   0  0  0  0  0  0  0  0  0  0  0  0
   60.4748   32.7885   53.1512 H   0  0  0  0  0  0  0  0  0  0  0  0
   61.1266   34.3333   51.1295 H   0  0  0  0  0  0  0  0  0  0  0  0
   62.1370   34.7019   48.8851 H   0  0  0  0  0  0  0  0  0  0  0  0
  1  2  2  0
  2  3  1  0
  3  4  2  3
  4  5  1  0
  5  6  2  0
  6  7  1  0
  6  8  1  0
  8  9  1  0
  9 10  2  0
  9 11  1  0
 11 12  1  0
 12 13  2  0
  3 14  1  0
 14 15  2  0
 15 16  1  0
 15 17  1  0
 17 18  1  0
 18 19  2  0
 19 20  1  0
 20 21  1  0
 21 22  1  0
 22 23  1  0
 23 24  1  0
 24 25  1  0
 24 26  1  0
 20 27  2  0
 27 28  1  0
 28 29  2  0
 29 30  1  0
 17  2  1  0
 29 18  1  0
 12  5  1  0
 26 21  1  0
  1 31  1  0
  1 32  1  0
  4 33  1  0
 14 34  1  0
 16 35  1  0
 16 36  1  0
 16 37  1  0
 19 38  1  0
 22 39  1  0
 22 40  1  0
 23 41  1  0
 23 42  1  0
 24 43  1  1
 25 44  1  0
 26 45  1  0
 26 46  1  0
 27 47  1  0
 28 48  1  0
M  CHG  3   7  -1   8  -1  11  -1
M  END
>  <UniqueID>  (8) 
7

>  <SMILES>  (8) 
C=c1c(=Cc2c([O-])[n-]c(=O)[n-]c2=O)cc(C)n1-c1cc(N2CC[C@@H](O)C2)ccc1Cl

>  <Energy>  (8) 
102.65055984699733

>  <Genealogy>  (8) 
C=c1c(=Cc2c([O-])[n-]c(=O)[n-]c2=O)cc(C)n1-c1cc(N2CCC(O)C2)ccc1Cl (protonated)
C=c1c(=Cc2c([O-])[n-]c(=O)[n-]c2=O)cc(C)n1-c1cc(N2CC[C@@H](O)C2)ccc1Cl (chirality)
C=c1c(=Cc2c([O-])[n-]c(=O)[n-]c2=O)cc(C)n1-c1cc(N2CC[C@@H](O)C2)ccc1Cl (3D coordinates assigned)
C=c1c(=Cc2c([O-])[n-]c(=O)[n-]c2=O)cc(C)n1-c1cc(N2CC[C@@H](O)C2)ccc1Cl (nonaromatic ring conformer: 102.65055984699733 kcal/mol)

>  <smiles>  (8) 
C=c1c(=Cc2c(O)[nH]c(=O)[nH]c2=O)cc(C)n1-c1cc(N2CCC(O)C2)ccc1Cl

>  <score_type>  (8) 
oracle

>  <origin>  (8) 
adg

>  <m_score__min__energy>  (8) 
-15.880000000000001

>  <m_primary>  (8) 
energy

$$$$
8:0
     RDKit          3D

 64 67  0  0  0  0  0  0  0  0999 V2000
   55.0940   24.0230   44.8770 C   0  0  0  0  0  0  0  0  0  0  0  0
   54.1010   24.9120   45.6230 C   0  0  0  0  0  0  0  0  0  0  0  0
   54.6900   26.1780   45.9150 O   0  0  0  0  0  0  0  0  0  0  0  0
   56.0350   26.3410   46.2650 C   0  0  0  0  0  0  0  0  0  0  0  0
   56.5620   25.6150   47.1510 O   0  0  0  0  0  0  0  0  0  0  0  0
   56.8210   27.4400   45.6250 C   0  0  0  0  0  0  0  0  0  0  0  0
   55.9420   28.5410   45.2420 N   0  0  0  0  0  0  0  0  0  0  0  0
   56.3870   29.7700   44.6520 C   0  0  0  0  0  0  0  0  0  0  0  0
   55.9350   30.1010   43.5240 O   0  0  0  0  0  0  0  0  0  0  0  0
   57.3900   30.6330   45.3060 C   0  0  0  0  0  0  0  0  0  0  0  0
   57.6590   31.9060   44.7900 C   0  0  0  0  0  0  0  0  0  0  0  0
   58.6320   32.7110   45.3820 C   0  0  0  0  0  0  0  0  0  0  0  0
   59.3480   32.2620   46.5010 C   0  0  0  0  0  0  0  0  0  0  0  0
   60.3630   33.1070   47.0580 N   0  0  0  0  0  0  0  0  0  0  0  0
   60.1570   33.8350   48.2990 C   0  0  0  0  0  0  0  0  0  0  0  0
   61.5490   34.1130   48.8530 C   0  0  0  0  0  0  0  0  0  0  0  0
   62.5170   33.8320   47.7060 C   0  0  0  0  0  0  0  0  0  0  0  0
   61.7700   32.8990   46.7650 C   0  0  0  0  0  0  0  0  0  0  0  0
   59.0590   30.9930   47.0510 C   0  0  0  0  0  0  0  0  0  0  0  0
   59.9310   30.3320   48.4510 S   0  0  0  0  0  0  0  0  0  0  0  0
   60.3490   28.9160   48.1660 O   0  0  0  0  0  0  0  0  0  0  0  0
   61.1910   31.1360   48.6260 O   0  0  0  0  0  0  0  0  0  0  0  0
   59.0040   30.4300   49.9440 N   0  0  0  0  0  0  0  0  0  0  0  0
   59.8200   30.0440   51.1100 C   0  0  0  0  0  0  0  0  0  0  0  0
   58.9650   29.9170   52.3890 C   0  0  0  0  0  0  0  0  0  0  0  0
   57.6990   30.8070   52.3760 C   0  0  0  0  0  0  0  0  0  0  0  0
   57.9650   32.0820   51.5620 C   0  0  0  0  0  0  0  0  0  0  0  0
   58.4000   31.7760   50.1110 C   0  0  0  0  0  0  0  0  0  0  0  0
   56.6290   30.0980   51.7830 O   0  0  0  0  0  0  0  0  0  0  0  0
   55.6410   29.9940   52.7600 C   0  0  0  0  0  0  0  0  0  0  0  0
   56.2690   30.4240   54.0490 C   0  0  0  0  0  0  0  0  0  0  0  0
   57.3840   31.1790   53.7010 O   0  0  0  0  0  0  0  0  0  0  0  0
   58.0670   30.1990   46.4530 C   0  0  0  0  0  0  0  0  0  0  0  0
   55.7098   23.4717   45.6029 H   0  0  0  0  0  0  0  0  0  0  0  0
   54.5446   23.3094   44.2454 H   0  0  0  0  0  0  0  0  0  0  0  0
   55.7428   24.6477   44.2454 H   0  0  0  0  0  0  0  0  0  0  0  0
   53.2086   25.0628   44.9978 H   0  0  0  0  0  0  0  0  0  0  0  0
   53.8220   24.4216   46.5673 H   0  0  0  0  0  0  0  0  0  0  0  0
   57.5739   27.8088   46.3372 H   0  0  0  0  0  0  0  0  0  0  0  0
   57.3128   27.0470   44.7230 H   0  0  0  0  0  0  0  0  0  0  0  0
   57.1016   32.2725   43.9154 H   0  0  0  0  0  0  0  0  0  0  0  0
   58.8399   33.7082   44.9669 H   0  0  0  0  0  0  0  0  0  0  0  0
   59.6260   34.7788   48.1059 H   0  0  0  0  0  0  0  0  0  0  0  0
   59.5459   33.2591   49.0096 H   0  0  0  0  0  0  0  0  0  0  0  0
   61.6307   35.1616   49.1750 H   0  0  0  0  0  0  0  0  0  0  0  0
   61.7681   33.4867   49.7303 H   0  0  0  0  0  0  0  0  0  0  0  0
   62.7836   34.7662   47.1900 H   0  0  0  0  0  0  0  0  0  0  0  0
   63.4562   33.3852   48.0641 H   0  0  0  0  0  0  0  0  0  0  0  0
   61.9873   33.1534   45.7171 H   0  0  0  0  0  0  0  0  0  0  0  0
   62.0678   31.8495   46.9055 H   0  0  0  0  0  0  0  0  0  0  0  0
   58.2300   29.7310   49.8480 H   0  0  0  0  0  0  0  0  0  0  0  0
   60.2998   29.0757   50.9044 H   0  0  0  0  0  0  0  0  0  0  0  0
   60.5720   30.8292   51.2771 H   0  0  0  0  0  0  0  0  0  0  0  0
   58.6520   28.8679   52.4959 H   0  0  0  0  0  0  0  0  0  0  0  0
   59.5888   30.2539   53.2300 H   0  0  0  0  0  0  0  0  0  0  0  0
   57.0437   32.6824   51.5352 H   0  0  0  0  0  0  0  0  0  0  0  0
   58.7871   32.6257   52.0504 H   0  0  0  0  0  0  0  0  0  0  0  0
   57.5152   31.8434   49.4609 H   0  0  0  0  0  0  0  0  0  0  0  0
   59.1723   32.5121   49.8432 H   0  0  0  0  0  0  0  0  0  0  0  0
   54.7927   30.6495   52.5136 H   0  0  0  0  0  0  0  0  0  0  0  0
   55.2572   28.9654   52.8288 H   0  0  0  0  0  0  0  0  0  0  0  0
   55.5631   31.0324   54.6335 H   0  0  0  0  0  0  0  0  0  0  0  0
   56.5466   29.5591   54.6693 H   0  0  0  0  0  0  0  0  0  0  0  0
   57.8179   29.2216   46.8919 H   0  0  0  0  0  0  0  0  0  0  0  0
  1  2  1  0
  2  3  1  0
  3  4  1  0
  4  5  2  0
  4  6  1  0
  6  7  1  0
  7  8  1  0
  8  9  2  0
  8 10  1  0
 10 11  2  0
 11 12  1  0
 12 13  2  0
 13 14  1  0
 14 15  1  0
 15 16  1  0
 16 17  1  0
 17 18  1  0
 13 19  1  0
 19 20  1  0
 20 21  2  0
 20 22  2  0
 20 23  1  0
 23 24  1  0
 24 25  1  0
 25 26  1  0
 26 27  1  0
 27 28  1  0
 26 29  1  0
 29 30  1  0
 30 31  1  0
 31 32  1  0
 19 33  2  0
 33 10  1  0
 18 14  1  0
 28 23  1  0
 32 26  1  0
  1 34  1  0
  1 35  1  0
  1 36  1  0
  2 37  1  0
  2 38  1  0
  6 39  1  0
  6 40  1  0
 11 41  1  0
 12 42  1  0
 15 43  1  0
 15 44  1  0
 16 45  1  0
 16 46  1  0
 17 47  1  0
 17 48  1  0
 18 49  1  0
 18 50  1  0
 23 51  1  0
 24 52  1  0
 24 53  1  0
 25 54  1  0
 25 55  1  0
 27 56  1  0
 27 57  1  0
 28 58  1  0
 28 59  1  0
 30 60  1  0
 30 61  1  0
 31 62  1  0
 31 63  1  0
 33 64  1  0
M  CHG  2   7  -1  23   1
M  END
>  <UniqueID>  (9) 
8

>  <SMILES>  (9) 
CCOC(=O)C[N-]C(=O)c1ccc(N2CCCC2)c(S(=O)(=O)[NH+]2CCC3(CC2)OCCO3)c1

>  <Energy>  (9) 
73.81976838188967

>  <Genealogy>  (9) 
CCOC(=O)C[N-]C(=O)c1ccc(N2CCCC2)c(S(=O)(=O)[NH+]2CCC3(CC2)OCCO3)c1 (protonated)
CCOC(=O)C[N-]C(=O)c1ccc(N2CCCC2)c(S(=O)(=O)[NH+]2CCC3(CC2)OCCO3)c1 (3D coordinates assigned)
CCOC(=O)C[N-]C(=O)c1ccc(N2CCCC2)c(S(=O)(=O)[NH+]2CCC3(CC2)OCCO3)c1 (nonaromatic ring conformer: 73.81976838188967 kcal/mol)

>  <smiles>  (9) 
CCOC(=O)CNC(=O)c1ccc(N2CCCC2)c(S(=O)(=O)N2CCC3(CC2)OCCO3)c1

>  <score_type>  (9) 
oracle

>  <origin>  (9) 
adg

>  <m_score__min__energy>  (9) 
-9.8599999999999994

>  <m_primary>  (9) 
energy

$$$$
9:0
     RDKit          3D

 44 47  0  0  0  0  0  0  0  0999 V2000
   59.3430   30.0960   44.9830 C   0  0  0  0  0  0  0  0  0  0  0  0
   59.2110   29.7890   46.2830 C   0  0  0  0  0  0  0  0  0  0  0  0
   58.3230   28.8570   46.8290 C   0  0  0  0  0  0  0  0  0  0  0  0
   57.4590   28.0640   46.1680 C   0  0  0  0  0  0  0  0  0  0  0  0
   57.2870   26.6230   46.4630 C   0  0  0  0  0  0  0  0  0  0  0  0
   56.0340   25.9950   46.3660 C   0  0  0  0  0  0  0  0  0  0  0  0
   54.9040   26.7130   45.9900 O   0  0  0  0  0  0  0  0  0  0  0  0
   55.9200   24.6670   46.6220 N   0  0  0  0  0  0  0  0  0  0  0  0
   57.0040   23.9210   46.9550 C   0  0  0  0  0  0  0  0  0  0  0  0
   56.8740   22.6920   47.1910 O   0  0  0  0  0  0  0  0  0  0  0  0
   58.2310   24.4990   47.0260 N   0  0  0  0  0  0  0  0  0  0  0  0
   58.3980   25.8240   46.7810 C   0  0  0  0  0  0  0  0  0  0  0  0
   59.5520   26.3260   46.8540 O   0  0  0  0  0  0  0  0  0  0  0  0
   58.5300   28.8800   48.2020 C   0  0  0  0  0  0  0  0  0  0  0  0
   59.5220   29.8090   48.4380 C   0  0  0  0  0  0  0  0  0  0  0  0
   60.0680   30.1270   49.7980 C   0  0  0  0  0  0  0  0  0  0  0  0
   59.9210   30.3790   47.2770 N   0  0  0  0  0  0  0  0  0  0  0  0
   60.9510   31.3750   47.1320 C   0  0  0  0  0  0  0  0  0  0  0  0
   62.2730   31.0470   47.4680 C   0  0  0  0  0  0  0  0  0  0  0  0
   63.2840   32.0060   47.3860 C   0  0  0  0  0  0  0  0  0  0  0  0
   62.9840   33.3040   46.9730 C   0  0  0  0  0  0  0  0  0  0  0  0
   61.6730   33.6470   46.6350 C   0  0  0  0  0  0  0  0  0  0  0  0
   60.6470   32.6890   46.6990 C   0  0  0  0  0  0  0  0  0  0  0  0
   59.2700   33.0840   46.3210 C   0  0  0  0  0  0  0  0  0  0  0  0
   58.9900   33.4420   44.9940 C   0  0  0  0  0  0  0  0  0  0  0  0
   57.7010   33.8380   44.6310 C   0  0  0  0  0  0  0  0  0  0  0  0
   56.6960   33.8580   45.5970 C   0  0  0  0  0  0  0  0  0  0  0  0
   56.9720   33.4850   46.8750 N   0  0  0  0  0  0  0  0  0  0  0  0
   58.2170   33.0950   47.2570 C   0  0  0  0  0  0  0  0  0  0  0  0
   58.4090   32.7280   48.4470 O   0  0  0  0  0  0  0  0  0  0  0  0
   60.0795   30.8499   44.6679 H   0  0  0  0  0  0  0  0  0  0  0  0
   58.7147   29.5937   44.2327 H   0  0  0  0  0  0  0  0  0  0  0  0
   56.8495   28.5092   45.3678 H   0  0  0  0  0  0  0  0  0  0  0  0
   58.0047   28.2747   48.9554 H   0  0  0  0  0  0  0  0  0  0  0  0
   59.3888   29.7314   50.5675 H   0  0  0  0  0  0  0  0  0  0  0  0
   61.0599   29.6653   49.9120 H   0  0  0  0  0  0  0  0  0  0  0  0
   60.1559   31.2175   49.9120 H   0  0  0  0  0  0  0  0  0  0  0  0
   62.5148   30.0261   47.7987 H   0  0  0  0  0  0  0  0  0  0  0  0
   64.3183   31.7378   47.6474 H   0  0  0  0  0  0  0  0  0  0  0  0
   63.7816   34.0591   46.9134 H   0  0  0  0  0  0  0  0  0  0  0  0
   61.4420   34.6742   46.3165 H   0  0  0  0  0  0  0  0  0  0  0  0
   59.7878   33.4107   44.2373 H   0  0  0  0  0  0  0  0  0  0  0  0
   57.4809   34.1311   43.5938 H   0  0  0  0  0  0  0  0  0  0  0  0
   55.6787   34.1759   45.3250 H   0  0  0  0  0  0  0  0  0  0  0  0
  1  2  2  0
  2  3  1  0
  3  4  2  3
  4  5  1  0
  5  6  2  0
  6  7  1  0
  6  8  1  0
  8  9  1  0
  9 10  2  0
  9 11  1  0
 11 12  1  0
 12 13  2  0
  3 14  1  0
 14 15  2  0
 15 16  1  0
 15 17  1  0
 17 18  1  0
 18 19  2  0
 19 20  1  0
 20 21  2  0
 21 22  1  0
 22 23  2  0
 23 24  1  0
 24 25  2  0
 25 26  1  0
 26 27  2  0
 27 28  1  0
 28 29  1  0
 29 30  2  0
 17  2  1  0
 23 18  1  0
 29 24  1  0
 12  5  1  0
  1 31  1  0
  1 32  1  0
  4 33  1  0
 14 34  1  0
 16 35  1  0
 16 36  1  0
 16 37  1  0
 19 38  1  0
 20 39  1  0
 21 40  1  0
 22 41  1  0
 25 42  1  0
 26 43  1  0
 27 44  1  0
M  CHG  4   7  -1   8  -1  11  -1  28  -1
M  END
>  <UniqueID>  (10) 
9

>  <SMILES>  (10) 
C=c1c(=Cc2c([O-])[n-]c(=O)[n-]c2=O)cc(C)n1-c1ccccc1-c1ccc[n-]c1=O

>  <Energy>  (10) 
101.47332029903019

>  <Genealogy>  (10) 
C=c1c(=Cc2c([O-])[n-]c(=O)[n-]c2=O)cc(C)n1-c1ccccc1-c1ccc[n-]c1=O (protonated)
C=c1c(=Cc2c([O-])[n-]c(=O)[n-]c2=O)cc(C)n1-c1ccccc1-c1ccc[n-]c1=O (3D coordinates assigned)
C=c1c(=Cc2c([O-])[n-]c(=O)[n-]c2=O)cc(C)n1-c1ccccc1-c1ccc[n-]c1=O (optimized conformer: 101.47332029903019 kcal/mol)

>  <smiles>  (10) 
C=c1c(=Cc2c(O)[nH]c(=O)[nH]c2=O)cc(C)n1-c1ccccc1-c1ccc[nH]c1=O

>  <score_type>  (10) 
oracle

>  <origin>  (10) 
adg

>  <m_score__min__energy>  (10) 
-16.920000000000002

>  <m_primary>  (10) 
energy

$$$$
10:0
     RDKit          3D

 42 44  0  0  0  0  0  0  0  0999 V2000
   58.3523   27.5205   48.7495 H   0  0  0  0  0  0  0  0  0  0  0  0
   58.8650   28.1290   47.9900 C   0  0  0  0  0  0  0  0  0  0  0  0
   59.4590   29.0032   48.2949 H   0  0  0  0  0  0  0  0  0  0  0  0
   58.7650   27.8020   46.6800 C   0  0  0  0  0  0  0  0  0  0  0  0
   59.4400   28.6080   45.7140 C   0  0  0  0  0  0  0  0  0  0  0  0
   60.3580   29.7090   46.0890 C   0  0  0  0  0  0  0  0  0  0  0  0
   61.5380   29.7030   45.6530 O   0  0  0  0  0  0  0  0  0  0  0  0
   59.9350   30.7770   46.9430 N   0  0  0  0  0  0  0  0  0  0  0  0
   59.4620   32.0680   46.4560 C   0  0  0  0  0  0  0  0  0  0  0  0
   59.7922   32.8614   47.1427 H   0  0  0  0  0  0  0  0  0  0  0  0
   59.8744   32.2529   45.4531 H   0  0  0  0  0  0  0  0  0  0  0  0
   57.9380   32.0620   46.3830 C   0  0  0  0  0  0  0  0  0  0  0  0
   57.5399   31.4215   47.1838 H   0  0  0  0  0  0  0  0  0  0  0  0
   57.5724   33.0924   46.5038 H   0  0  0  0  0  0  0  0  0  0  0  0
   57.4760   31.5360   45.0540 C   0  0  0  0  0  0  0  0  0  0  0  0
   56.6510   30.4540   45.0090 N   0  0  0  0  0  0  0  0  0  0  0  0
   56.2320   29.9210   43.8290 C   0  0  0  0  0  0  0  0  0  0  0  0
   55.5591   29.0508   43.8274 H   0  0  0  0  0  0  0  0  0  0  0  0
   56.6550   30.4770   42.6210 C   0  0  0  0  0  0  0  0  0  0  0  0
   56.3173   30.0511   41.6647 H   0  0  0  0  0  0  0  0  0  0  0  0
   57.5110   31.5790   42.6390 C   0  0  0  0  0  0  0  0  0  0  0  0
   57.8543   32.0255   41.6941 H   0  0  0  0  0  0  0  0  0  0  0  0
   57.9310   32.1140   43.8590 C   0  0  0  0  0  0  0  0  0  0  0  0
   58.6107   32.9786   43.8828 H   0  0  0  0  0  0  0  0  0  0  0  0
   59.2570   28.3730   44.3480 C   0  0  0  0  0  0  0  0  0  0  0  0
   59.7795   29.0034   43.6134 H   0  0  0  0  0  0  0  0  0  0  0  0
   58.4250   27.3550   43.9080 C   0  0  0  0  0  0  0  0  0  0  0  0
   58.2120   27.0830   42.1880 Cl  0  0  0  0  0  0  0  0  0  0  0  0
   57.7850   26.5290   44.8270 C   0  0  0  0  0  0  0  0  0  0  0  0
   57.1390   25.7174   44.4611 H   0  0  0  0  0  0  0  0  0  0  0  0
   57.9460   26.7090   46.2220 C   0  0  0  0  0  0  0  0  0  0  0  0
   57.3690   25.8180   47.0770 C   0  0  0  0  0  0  0  0  0  0  0  0
   57.7510   25.7811   48.1079 H   0  0  0  0  0  0  0  0  0  0  0  0
   56.2650   24.8950   46.7210 C   0  0  0  0  0  0  0  0  0  0  0  0
   55.1550   25.3660   46.0030 C   0  0  0  0  0  0  0  0  0  0  0  0
   55.0550   26.7090   45.6560 O   0  0  0  0  0  0  0  0  0  0  0  0
   54.1630   24.5100   45.6490 N   0  0  0  0  0  0  0  0  0  0  0  0
   54.2290   23.1900   45.9650 C   0  0  0  0  0  0  0  0  0  0  0  0
   53.2950   22.4170   45.6300 O   0  0  0  0  0  0  0  0  0  0  0  0
   55.3040   22.7050   46.6360 N   0  0  0  0  0  0  0  0  0  0  0  0
   56.3220   23.5200   47.0120 C   0  0  0  0  0  0  0  0  0  0  0  0
   57.3170   23.0300   47.6110 O   0  0  0  0  0  0  0  0  0  0  0  0
  1  2  1  0
  2  3  1  0
  2  4  2  0
  4  5  1  0
  5  6  1  0
  6  7  2  0
  6  8  1  0
  8  9  1  0
  9 10  1  0
  9 11  1  0
  9 12  1  0
 12 13  1  0
 12 14  1  0
 12 15  1  0
 15 16  2  0
 16 17  1  0
 17 18  1  0
 17 19  2  0
 19 20  1  0
 19 21  1  0
 21 22  1  0
 21 23  2  0
 23 24  1  0
  5 25  2  0
 25 26  1  0
 25 27  1  0
 27 28  1  0
 27 29  2  0
 29 30  1  0
 29 31  1  0
 31 32  2  0
 32 33  1  0
 32 34  1  0
 34 35  2  0
 35 36  1  0
 35 37  1  0
 37 38  1  0
 38 39  2  0
 38 40  1  0
 40 41  1  0
 41 42  2  0
 31  4  1  0
 41 34  1  0
 23 15  1  0
M  CHG  4   8  -1  36  -1  37  -1  40  -1
M  END
>  <UniqueID>  (11) 
10

>  <SMILES>  (11) 
C=c1c(C(=O)[N-]CCc2ccccn2)cc(Cl)c/c1=C\c1c([O-])[n-]c(=O)[n-]c1=O

>  <Energy>  (11) 
70.644230246607

>  <Genealogy>  (11) 
C=c1c(C(=O)[N-]CCc2ccccn2)cc(Cl)cc1=Cc1c([O-])[n-]c(=O)[n-]c1=O (protonated)
C=c1c(C(=O)[N-]CCc2ccccn2)cc(Cl)c/c1=C\c1c([O-])[n-]c(=O)[n-]c1=O (cis-trans isomerization)
C=c1c(C(=O)[N-]CCc2ccccn2)cc(Cl)c/c1=C\c1c([O-])[n-]c(=O)[n-]c1=O (3D coordinates assigned)
C=c1c(C(=O)[N-]CCc2ccccn2)cc(Cl)c/c1=C\c1c([O-])[n-]c(=O)[n-]c1=O (optimized conformer: 70.644230246607 kcal/mol)

>  <smiles>  (11) 
C=c1c(C(=O)NCCc2ccccn2)cc(Cl)cc1=Cc1c(O)[nH]c(=O)[nH]c1=O

>  <score_type>  (11) 
oracle

>  <origin>  (11) 
adg

>  <m_score__min__energy>  (11) 
-17.27

>  <m_primary>  (11) 
energy

$$$$
11:0
     RDKit          3D

 45 46  0  0  0  0  0  0  0  0999 V2000
   60.3260   28.6830   48.7190 C   0  0  0  0  0  0  0  0  0  0  0  0
   59.6140   29.6820   47.7970 C   0  0  0  0  0  0  0  0  0  0  0  0
   59.1690   30.9080   48.6060 C   0  0  0  0  0  0  0  0  0  0  0  0
   60.5190   30.1240   46.6230 C   0  0  0  0  0  0  0  0  0  0  0  0
   60.3210   29.3150   45.3290 C   0  0  0  0  0  0  0  0  0  0  0  0
   59.1940   28.3020   45.4270 C   0  0  0  0  0  0  0  0  0  0  0  0
   57.8600   28.6340   45.0900 C   0  0  0  0  0  0  0  0  0  0  0  0
   57.5140   29.9480   44.6180 N   0  0  0  0  0  0  0  0  0  0  0  0
   56.5880   30.0780   43.4870 C   0  0  0  0  0  0  0  0  0  0  0  0
   57.0600   31.1390   42.4750 C   0  0  0  0  0  0  0  0  0  0  0  0
   58.1140   32.4680   43.1750 S   0  0  0  0  0  0  0  0  0  0  0  0
   57.4060   32.4220   44.8500 C   0  0  0  0  0  0  0  0  0  0  0  0
   57.7450   31.0880   45.5180 C   0  0  0  0  0  0  0  0  0  0  0  0
   56.8800   27.6950   45.2120 N   0  0  0  0  0  0  0  0  0  0  0  0
   57.1550   26.4430   45.6600 C   0  0  0  0  0  0  0  0  0  0  0  0
   55.8680   25.2550   45.8060 S   0  0  0  0  0  0  0  0  0  0  0  0
   56.0230   24.0170   44.5370 C   0  0  0  0  0  0  0  0  0  0  0  0
   54.5380   25.9410   45.6640 O   0  0  0  0  0  0  0  0  0  0  0  0
   55.9530   24.5900   47.1490 O   0  0  0  0  0  0  0  0  0  0  0  0
   58.4240   26.1040   45.9910 N   0  0  0  0  0  0  0  0  0  0  0  0
   59.4420   26.9940   45.8870 C   0  0  0  0  0  0  0  0  0  0  0  0
   60.6040   26.6310   46.2080 O   0  0  0  0  0  0  0  0  0  0  0  0
   60.1345   28.9517   49.7683 H   0  0  0  0  0  0  0  0  0  0  0  0
   59.9455   27.6693   48.5248 H   0  0  0  0  0  0  0  0  0  0  0  0
   61.4083   28.7119   48.5248 H   0  0  0  0  0  0  0  0  0  0  0  0
   58.7340   29.1794   47.3693 H   0  0  0  0  0  0  0  0  0  0  0  0
   59.2492   30.6870   49.6806 H   0  0  0  0  0  0  0  0  0  0  0  0
   59.8137   31.7643   48.3586 H   0  0  0  0  0  0  0  0  0  0  0  0
   58.1252   31.1514   48.3586 H   0  0  0  0  0  0  0  0  0  0  0  0
   60.3069   31.1809   46.4040 H   0  0  0  0  0  0  0  0  0  0  0  0
   61.5569   29.9530   46.9447 H   0  0  0  0  0  0  0  0  0  0  0  0
   60.0936   30.0138   44.5105 H   0  0  0  0  0  0  0  0  0  0  0  0
   61.2503   28.7555   45.1463 H   0  0  0  0  0  0  0  0  0  0  0  0
   56.5137   29.1071   42.9753 H   0  0  0  0  0  0  0  0  0  0  0  0
   55.6114   30.3950   43.8817 H   0  0  0  0  0  0  0  0  0  0  0  0
   57.6340   30.6278   41.6881 H   0  0  0  0  0  0  0  0  0  0  0  0
   56.1505   31.6334   42.1029 H   0  0  0  0  0  0  0  0  0  0  0  0
   57.8245   33.2461   45.4464 H   0  0  0  0  0  0  0  0  0  0  0  0
   56.3131   32.5295   44.7861 H   0  0  0  0  0  0  0  0  0  0  0  0
   58.8043   31.0980   45.8142 H   0  0  0  0  0  0  0  0  0  0  0  0
   57.0889   30.9692   46.3929 H   0  0  0  0  0  0  0  0  0  0  0  0
   55.8990   27.9360   44.9440 H   0  0  0  0  0  0  0  0  0  0  0  0
   56.1468   23.0281   45.0026 H   0  0  0  0  0  0  0  0  0  0  0  0
   55.1178   24.0172   43.9120 H   0  0  0  0  0  0  0  0  0  0  0  0
   56.9002   24.2404   43.9120 H   0  0  0  0  0  0  0  0  0  0  0  0
  1  2  1  0
  2  3  1  0
  2  4  1  0
  4  5  1  0
  5  6  1  0
  6  7  2  0
  7  8  1  0
  8  9  1  0
  9 10  1  0
 10 11  1  0
 11 12  1  0
 12 13  1  0
  7 14  1  0
 14 15  1  0
 15 16  1  0
 16 17  1  0
 16 18  2  0
 16 19  2  0
 15 20  2  0
 20 21  1  0
 21 22  2  0
 21  6  1  0
 13  8  1  0
  1 23  1  0
  1 24  1  0
  1 25  1  0
  2 26  1  0
  3 27  1  0
  3 28  1  0
  3 29  1  0
  4 30  1  0
  4 31  1  0
  5 32  1  0
  5 33  1  0
  9 34  1  0
  9 35  1  0
 10 36  1  0
 10 37  1  0
 12 38  1  0
 12 39  1  0
 13 40  1  0
 13 41  1  0
 14 42  1  0
 17 43  1  0
 17 44  1  0
 17 45  1  0
M  END
>  <UniqueID>  (12) 
11

>  <SMILES>  (12) 
CC(C)CCc1c(N2CCSCC2)[nH]c(S(C)(=O)=O)nc1=O

>  <Energy>  (12) 
41.27978943670792

>  <Genealogy>  (12) 
CC(C)CCc1c(N2CCSCC2)[nH]c(S(C)(=O)=O)nc1=O (3D coordinates assigned)
CC(C)CCc1c(N2CCSCC2)[nH]c(S(C)(=O)=O)nc1=O (nonaromatic ring conformer: 41.27978943670792 kcal/mol)

>  <smiles>  (12) 
CC(C)CCc1c(N2CCSCC2)[nH]c(S(C)(=O)=O)nc1=O

>  <score_type>  (12) 
oracle

>  <origin>  (12) 
adg

>  <m_score__min__energy>  (12) 
-7.5499999999999998

>  <m_primary>  (12) 
energy

$$$$
12:0
     RDKit          3D

 38 40  0  0  0  0  0  0  0  0999 V2000
   60.6560   31.9020   46.7450 C   0  0  0  0  0  0  0  0  0  0  0  0
   60.0710   33.2090   47.0340 N   0  0  0  0  0  0  0  0  0  0  0  0
   59.2960   33.9660   46.2340 C   0  0  0  0  0  0  0  0  0  0  0  0
   58.9140   33.5920   44.5220 S   0  0  0  0  0  0  0  0  0  0  0  0
   57.3550   32.7470   44.9350 C   0  0  0  0  0  0  0  0  0  0  0  0
   57.6580   31.3850   45.4660 C   0  0  0  0  0  0  0  0  0  0  0  0
   57.8020   31.2200   46.7080 O   0  0  0  0  0  0  0  0  0  0  0  0
   57.7790   30.2750   44.5640 N   0  0  0  0  0  0  0  0  0  0  0  0
   57.9190   28.9150   45.0050 C   0  0  0  0  0  0  0  0  0  0  0  0
   59.1950   28.3400   45.0360 C   0  0  0  0  0  0  0  0  0  0  0  0
   59.3640   27.0210   45.4520 C   0  0  0  0  0  0  0  0  0  0  0  0
   58.2590   26.2580   45.8300 C   0  0  0  0  0  0  0  0  0  0  0  0
   56.9610   26.7990   45.7830 C   0  0  0  0  0  0  0  0  0  0  0  0
   55.8020   25.9560   46.1760 C   0  0  0  0  0  0  0  0  0  0  0  0
   54.6260   26.3380   45.9330 O   0  0  0  0  0  0  0  0  0  0  0  0
   55.9850   24.7330   46.8090 O   0  0  0  0  0  0  0  0  0  0  0  0
   56.7940   28.1360   45.3490 C   0  0  0  0  0  0  0  0  0  0  0  0
   55.5220   28.6850   45.2260 O   0  0  0  0  0  0  0  0  0  0  0  0
   58.8070   35.0370   46.8860 N   0  0  0  0  0  0  0  0  0  0  0  0
   59.2560   34.9650   48.1320 N   0  0  0  0  0  0  0  0  0  0  0  0
   60.0190   33.8580   48.2150 C   0  0  0  0  0  0  0  0  0  0  0  0
   60.6390   33.3660   49.4890 C   0  0  0  0  0  0  0  0  0  0  0  0
   59.9140   32.2040   50.1540 C   0  0  0  0  0  0  0  0  0  0  0  0
   59.7910   33.6040   50.7290 C   0  0  0  0  0  0  0  0  0  0  0  0
   60.8867   31.3867   47.6891 H   0  0  0  0  0  0  0  0  0  0  0  0
   59.9411   31.3007   46.1642 H   0  0  0  0  0  0  0  0  0  0  0  0
   61.5807   32.0345   46.1642 H   0  0  0  0  0  0  0  0  0  0  0  0
   56.8136   33.3266   45.6972 H   0  0  0  0  0  0  0  0  0  0  0  0
   56.7322   32.6606   44.0324 H   0  0  0  0  0  0  0  0  0  0  0  0
   57.9140   30.4790   43.5470 H   0  0  0  0  0  0  0  0  0  0  0  0
   60.0695   28.9331   44.7301 H   0  0  0  0  0  0  0  0  0  0  0  0
   60.3713   26.5802   45.4824 H   0  0  0  0  0  0  0  0  0  0  0  0
   58.4041   25.2215   46.1687 H   0  0  0  0  0  0  0  0  0  0  0  0
   61.6810   33.5667   49.1991 H   0  0  0  0  0  0  0  0  0  0  0  0
   59.0519   31.7363   49.6560 H   0  0  0  0  0  0  0  0  0  0  0  0
   60.2163   31.2238   50.5514 H   0  0  0  0  0  0  0  0  0  0  0  0
   58.8395   34.1500   50.6477 H   0  0  0  0  0  0  0  0  0  0  0  0
   59.9672   34.0571   51.7157 H   0  0  0  0  0  0  0  0  0  0  0  0
  1  2  1  0
  2  3  1  0
  3  4  1  0
  4  5  1  0
  5  6  1  0
  6  7  2  0
  6  8  1  0
  8  9  1  0
  9 10  2  0
 10 11  1  0
 11 12  2  0
 12 13  1  0
 13 14  1  0
 14 15  2  0
 14 16  1  0
 13 17  2  0
 17 18  1  0
  3 19  2  0
 19 20  1  0
 20 21  2  0
 21 22  1  0
 22 23  1  0
 23 24  1  0
 21  2  1  0
 24 22  1  0
 17  9  1  0
  1 25  1  0
  1 26  1  0
  1 27  1  0
  5 28  1  0
  5 29  1  0
  8 30  1  0
 10 31  1  0
 11 32  1  0
 12 33  1  0
 22 34  1  0
 23 35  1  0
 23 36  1  0
 24 37  1  0
 24 38  1  0
M  CHG  2  16  -1  18  -1
M  END
>  <UniqueID>  (13) 
12

>  <SMILES>  (13) 
Cn1c(SCC(=O)Nc2cccc(C(=O)[O-])c2[O-])nnc1C1CC1

>  <Energy>  (13) 
338.651006507248

>  <Genealogy>  (13) 
Cn1c(SCC(=O)Nc2cccc(C(=O)[O-])c2[O-])nnc1C1CC1 (protonated)
Cn1c(SCC(=O)Nc2cccc(C(=O)[O-])c2[O-])nnc1C1CC1 (3D coordinates assigned)
Cn1c(SCC(=O)Nc2cccc(C(=O)[O-])c2[O-])nnc1C1CC1 (nonaromatic ring conformer: 338.651006507248 kcal/mol)

>  <smiles>  (13) 
Cn1c(SCC(=O)Nc2cccc(C(=O)O)c2O)nnc1C1CC1

>  <score_type>  (13) 
oracle

>  <origin>  (13) 
adg

>  <m_score__min__energy>  (13) 
-14.960000000000001

>  <m_primary>  (13) 
energy

$$$$
13:0
     RDKit          3D

 65 68  0  0  0  0  0  0  0  0999 V2000
   60.9260   31.6240   48.7570 C   0  0  0  0  0  0  0  0  0  0  0  0
   59.6010   31.2010   49.4240 C   0  0  1  0  0  0  0  0  0  0  0  0
   58.5580   32.3520   49.3130 C   0  0  0  0  0  0  0  0  0  0  0  0
   58.8610   33.3210   48.2010 C   0  0  0  0  0  0  0  0  0  0  0  0
   59.5250   34.5400   48.3240 C   0  0  0  0  0  0  0  0  0  0  0  0
   59.5930   35.1640   47.1260 N   0  0  0  0  0  0  0  0  0  0  0  0
   58.9770   34.3520   46.2490 C   0  0  0  0  0  0  0  0  0  0  0  0
   58.7950   34.5690   44.8840 C   0  0  0  0  0  0  0  0  0  0  0  0
   58.1170   33.5830   44.1460 C   0  0  0  0  0  0  0  0  0  0  0  0
   57.6480   32.4110   44.7810 C   0  0  0  0  0  0  0  0  0  0  0  0
   57.8480   32.2170   46.1600 C   0  0  0  0  0  0  0  0  0  0  0  0
   58.5170   33.2160   46.8670 C   0  0  0  0  0  0  0  0  0  0  0  0
   59.0860   29.9870   48.7600 N   0  0  0  0  0  0  0  0  0  0  0  0
   59.3540   29.6510   47.3840 C   0  0  0  0  0  0  0  0  0  0  0  0
   60.0870   30.3980   46.6810 O   0  0  0  0  0  0  0  0  0  0  0  0
   58.7980   28.4180   46.7840 C   0  0  0  0  0  0  0  0  0  0  0  0
   59.6250   27.3190   46.4970 C   0  0  0  0  0  0  0  0  0  0  0  0
   59.0880   26.1590   45.9320 C   0  0  0  0  0  0  0  0  0  0  0  0
   57.7180   26.0790   45.6490 C   0  0  0  0  0  0  0  0  0  0  0  0
   57.1670   24.8550   45.0360 C   0  0  0  0  0  0  0  0  0  0  0  0
   57.0940   24.8050   43.6340 C   0  0  0  0  0  0  0  0  0  0  0  0
   56.6200   23.6660   42.9880 C   0  0  0  0  0  0  0  0  0  0  0  0
   56.2090   22.5630   43.7320 C   0  0  0  0  0  0  0  0  0  0  0  0
   56.2690   22.5940   45.1260 C   0  0  0  0  0  0  0  0  0  0  0  0
   56.7420   23.7350   45.8070 C   0  0  0  0  0  0  0  0  0  0  0  0
   56.7590   23.7240   47.2990 C   0  0  0  0  0  0  0  0  0  0  0  0
   57.3630   22.6390   48.0040 N   0  0  0  0  0  0  0  0  0  0  0  0
   56.2320   24.6560   47.9620 O   0  0  0  0  0  0  0  0  0  0  0  0
   56.8860   27.1740   45.9340 C   0  0  0  0  0  0  0  0  0  0  0  0
   55.5230   27.1160   45.6580 O   0  0  0  0  0  0  0  0  0  0  0  0
   57.4230   28.3310   46.5080 C   0  0  0  0  0  0  0  0  0  0  0  0
   59.9070   30.8910   50.8780 C   0  0  0  0  0  0  0  0  0  0  0  0
   60.4350   29.7850   51.1800 O   0  0  0  0  0  0  0  0  0  0  0  0
   59.6450   31.8600   51.9000 N   0  0  0  0  0  0  0  0  0  0  0  0
   58.5940   31.7130   52.9030 C   0  0  0  0  0  0  0  0  0  0  0  0
   57.2060   31.9060   52.2800 C   0  0  0  0  0  0  0  0  0  0  0  0
   56.5330   30.5670   51.9490 C   0  0  0  0  0  0  0  0  0  0  0  0
   57.4310   29.7300   51.2730 O   0  0  0  0  0  0  0  0  0  0  0  0
   61.6682   31.8609   49.5336 H   0  0  0  0  0  0  0  0  0  0  0  0
   61.3005   30.8008   48.1309 H   0  0  0  0  0  0  0  0  0  0  0  0
   60.7542   32.5120   48.1309 H   0  0  0  0  0  0  0  0  0  0  0  0
   57.5673   31.9099   49.1313 H   0  0  0  0  0  0  0  0  0  0  0  0
   58.5916   32.9161   50.2567 H   0  0  0  0  0  0  0  0  0  0  0  0
   59.9360   34.9386   49.2633 H   0  0  0  0  0  0  0  0  0  0  0  0
   60.0350   36.0890   46.9280 H   0  0  0  0  0  0  0  0  0  0  0  0
   59.1700   35.4827   44.3997 H   0  0  0  0  0  0  0  0  0  0  0  0
   57.9506   33.7247   43.0679 H   0  0  0  0  0  0  0  0  0  0  0  0
   57.1225   31.6445   44.1926 H   0  0  0  0  0  0  0  0  0  0  0  0
   57.4887   31.3076   46.6639 H   0  0  0  0  0  0  0  0  0  0  0  0
   58.5810   29.2820   49.3440 H   0  0  0  0  0  0  0  0  0  0  0  0
   60.7012   27.3719   46.7183 H   0  0  0  0  0  0  0  0  0  0  0  0
   59.7439   25.3047   45.7084 H   0  0  0  0  0  0  0  0  0  0  0  0
   57.4144   25.6741   43.0406 H   0  0  0  0  0  0  0  0  0  0  0  0
   56.5702   23.6376   41.8895 H   0  0  0  0  0  0  0  0  0  0  0  0
   55.8358   21.6642   43.2193 H   0  0  0  0  0  0  0  0  0  0  0  0
   55.9426   21.7156   45.7021 H   0  0  0  0  0  0  0  0  0  0  0  0
   57.6960   22.7570   48.9880 H   0  0  0  0  0  0  0  0  0  0  0  0
   56.7639   29.1792   46.7451 H   0  0  0  0  0  0  0  0  0  0  0  0
   58.6542   30.7060   53.3416 H   0  0  0  0  0  0  0  0  0  0  0  0
   58.7396   32.4809   53.6770 H   0  0  0  0  0  0  0  0  0  0  0  0
   56.5714   32.4564   52.9902 H   0  0  0  0  0  0  0  0  0  0  0  0
   57.3299   32.4652   51.3409 H   0  0  0  0  0  0  0  0  0  0  0  0
   56.2139   30.0799   52.8822 H   0  0  0  0  0  0  0  0  0  0  0  0
   55.6602   30.7524   51.3057 H   0  0  0  0  0  0  0  0  0  0  0  0
   58.3300   29.9020   51.6620 H   0  0  0  0  0  0  0  0  0  0  0  0
  1  2  1  0
  2  3  1  0
  3  4  1  0
  4  5  2  0
  5  6  1  0
  6  7  1  0
  7  8  2  0
  8  9  1  0
  9 10  2  0
 10 11  1  0
 11 12  2  0
  2 13  1  6
 13 14  1  0
 14 15  2  0
 14 16  1  0
 16 17  2  0
 17 18  1  0
 18 19  2  0
 19 20  1  0
 20 21  2  0
 21 22  1  0
 22 23  2  0
 23 24  1  0
 24 25  2  0
 25 26  1  0
 26 27  1  0
 26 28  2  0
 19 29  1  0
 29 30  1  0
 29 31  2  0
  2 32  1  0
 32 33  2  0
 32 34  1  0
 34 35  1  0
 35 36  1  0
 36 37  1  0
 37 38  1  0
 12  4  1  0
 31 16  1  0
 12  7  1  0
 25 20  1  0
  1 39  1  0
  1 40  1  0
  1 41  1  0
  3 42  1  0
  3 43  1  0
  5 44  1  0
  6 45  1  0
  8 46  1  0
  9 47  1  0
 10 48  1  0
 11 49  1  0
 13 50  1  0
 17 51  1  0
 18 52  1  0
 21 53  1  0
 22 54  1  0
 23 55  1  0
 24 56  1  0
 27 57  1  0
 31 58  1  0
 35 59  1  0
 35 60  1  0
 36 61  1  0
 36 62  1  0
 37 63  1  0
 37 64  1  0
 38 65  1  0
M  CHG  3  27  -1  30  -1  34  -1
M  END
>  <UniqueID>  (14) 
13

>  <SMILES>  (14) 
C[C@@](Cc1c[nH]c2ccccc12)(NC(=O)c1ccc(-c2ccccc2C([NH-])=O)c([O-])c1)C(=O)[N-]CCCO

>  <Energy>  (14) 
106.83071871295857

>  <Genealogy>  (14) 
CC(Cc1c[nH]c2ccccc12)(NC(=O)c1ccc(-c2ccccc2C([NH-])=O)c([O-])c1)C(=O)[N-]CCCO (protonated)
C[C@@](Cc1c[nH]c2ccccc12)(NC(=O)c1ccc(-c2ccccc2C([NH-])=O)c([O-])c1)C(=O)[N-]CCCO (chirality)
C[C@@](Cc1c[nH]c2ccccc12)(NC(=O)c1ccc(-c2ccccc2C([NH-])=O)c([O-])c1)C(=O)[N-]CCCO (3D coordinates assigned)
C[C@@](Cc1c[nH]c2ccccc12)(NC(=O)c1ccc(-c2ccccc2C([NH-])=O)c([O-])c1)C(=O)[N-]CCCO (optimized conformer: 106.83071871295857 kcal/mol)

>  <smiles>  (14) 
CC(Cc1c[nH]c2ccccc12)(NC(=O)c1ccc(-c2ccccc2C(N)=O)c(O)c1)C(=O)NCCCO

>  <score_type>  (14) 
oracle

>  <origin>  (14) 
adg

>  <m_score__min__energy>  (14) 
-15.42

>  <m_primary>  (14) 
energy

$$$$
14:0
     RDKit          3D

 54 57  0  0  0  0  0  0  0  0999 V2000
   54.0580   26.3260   46.3750 H   0  0  0  0  0  0  0  0  0  0  0  0
   53.9150   25.4700   45.8500 O   0  0  0  0  0  0  0  0  0  0  0  0
   54.8340   24.4200   45.8750 C   0  0  0  0  0  0  0  0  0  0  0  0
   54.4520   23.1710   45.3780 C   0  0  0  0  0  0  0  0  0  0  0  0
   53.4356   23.0242   44.9838 H   0  0  0  0  0  0  0  0  0  0  0  0
   55.3570   22.1110   45.3810 C   0  0  0  0  0  0  0  0  0  0  0  0
   55.0605   21.1267   44.9895 H   0  0  0  0  0  0  0  0  0  0  0  0
   56.6420   22.3100   45.8850 C   0  0  0  0  0  0  0  0  0  0  0  0
   57.3655   21.4814   45.8913 H   0  0  0  0  0  0  0  0  0  0  0  0
   56.9990   23.5280   46.3680 N   0  0  0  0  0  0  0  0  0  0  0  0
   56.1390   24.5880   46.3790 C   0  0  0  0  0  0  0  0  0  0  0  0
   56.5030   25.7420   46.8610 N   0  0  0  0  0  0  0  0  0  0  0  0
   56.6900   26.9620   46.1240 C   0  0  0  0  0  0  0  0  0  0  0  0
   55.7030   27.5570   45.6110 O   0  0  0  0  0  0  0  0  0  0  0  0
   58.0560   27.5220   45.9730 C   0  0  0  0  0  0  0  0  0  0  0  0
   59.1630   26.6650   46.1000 C   0  0  0  0  0  0  0  0  0  0  0  0
   59.0042   25.6048   46.3464 H   0  0  0  0  0  0  0  0  0  0  0  0
   60.4620   27.1440   45.9170 C   0  0  0  0  0  0  0  0  0  0  0  0
   61.3191   26.4618   46.0167 H   0  0  0  0  0  0  0  0  0  0  0  0
   60.6720   28.4870   45.6080 C   0  0  0  0  0  0  0  0  0  0  0  0
   61.6938   28.8591   45.4420 H   0  0  0  0  0  0  0  0  0  0  0  0
   59.5880   29.3600   45.5090 C   0  0  0  0  0  0  0  0  0  0  0  0
   59.7618   30.4192   45.2685 H   0  0  0  0  0  0  0  0  0  0  0  0
   58.2740   28.8980   45.7140 C   0  0  0  0  0  0  0  0  0  0  0  0
   57.1550   29.8010   45.6590 N   0  0  0  0  0  0  0  0  0  0  0  0
   57.0470   30.9880   44.8600 C   0  0  0  0  0  0  0  0  0  0  0  0
   56.3310   30.9890   43.8210 O   0  0  0  0  0  0  0  0  0  0  0  0
   57.8280   32.1940   45.2180 C   0  0  0  0  0  0  0  0  0  0  0  0
   57.5940   33.4170   44.5650 C   0  0  0  0  0  0  0  0  0  0  0  0
   56.8351   33.4766   43.7710 H   0  0  0  0  0  0  0  0  0  0  0  0
   58.3200   34.5570   44.9190 C   0  0  0  0  0  0  0  0  0  0  0  0
   58.1242   35.5114   44.4084 H   0  0  0  0  0  0  0  0  0  0  0  0
   59.2920   34.4900   45.9170 C   0  0  0  0  0  0  0  0  0  0  0  0
   59.8609   35.3909   46.1903 H   0  0  0  0  0  0  0  0  0  0  0  0
   59.5450   33.2800   46.5710 C   0  0  0  0  0  0  0  0  0  0  0  0
   60.7470   33.1940   47.8560 S   0  0  0  0  0  0  0  0  0  0  0  0
   61.0190   34.5890   48.3460 O   0  0  0  0  0  0  0  0  0  0  0  0
   62.0230   32.6030   47.3220 O   0  0  0  0  0  0  0  0  0  0  0  0
   60.1660   32.2090   49.1800 N   0  0  0  0  0  0  0  0  0  0  0  0
   58.7880   32.6020   49.5290 C   0  0  0  0  0  0  0  0  0  0  0  0
   58.8080   33.5759   50.0400 H   0  0  0  0  0  0  0  0  0  0  0  0
   58.1933   32.6694   48.6060 H   0  0  0  0  0  0  0  0  0  0  0  0
   58.1460   31.5550   50.4590 C   0  0  0  0  0  0  0  0  0  0  0  0
   58.6551   31.6092   51.4326 H   0  0  0  0  0  0  0  0  0  0  0  0
   57.0760   31.8064   50.5030 H   0  0  0  0  0  0  0  0  0  0  0  0
   58.2120   30.2070   50.0040 O   0  0  0  0  0  0  0  0  0  0  0  0
   58.9390   30.0500   48.8020 C   0  0  0  0  0  0  0  0  0  0  0  0
   59.1104   28.9777   48.6264 H   0  0  0  0  0  0  0  0  0  0  0  0
   58.3512   30.4940   47.9851 H   0  0  0  0  0  0  0  0  0  0  0  0
   60.2940   30.7670   48.8610 C   0  0  0  0  0  0  0  0  0  0  0  0
   60.9115   30.2889   49.6357 H   0  0  0  0  0  0  0  0  0  0  0  0
   60.7553   30.6871   47.8656 H   0  0  0  0  0  0  0  0  0  0  0  0
   58.8070   32.1370   46.2270 C   0  0  0  0  0  0  0  0  0  0  0  0
   58.9955   31.1882   46.7508 H   0  0  0  0  0  0  0  0  0  0  0  0
  1  2  1  0
  2  3  1  0
  3  4  2  0
  4  5  1  0
  4  6  1  0
  6  7  1  0
  6  8  2  0
  8  9  1  0
  8 10  1  0
 10 11  1  0
 11 12  2  0
 12 13  1  0
 13 14  2  0
 13 15  1  0
 15 16  2  0
 16 17  1  0
 16 18  1  0
 18 19  1  0
 18 20  2  0
 20 21  1  0
 20 22  1  0
 22 23  1  0
 22 24  2  0
 24 25  1  0
 25 26  1  0
 26 27  2  0
 26 28  1  0
 28 29  2  0
 29 30  1  0
 29 31  1  0
 31 32  1  0
 31 33  2  0
 33 34  1  0
 33 35  1  0
 35 36  1  0
 36 37  2  0
 36 38  2  0
 36 39  1  0
 39 40  1  0
 40 41  1  0
 40 42  1  0
 40 43  1  0
 43 44  1  0
 43 45  1  0
 43 46  1  0
 46 47  1  0
 47 48  1  0
 47 49  1  0
 47 50  1  0
 50 51  1  0
 50 52  1  0
 35 53  2  0
 53 54  1  0
 11  3  1  0
 24 15  1  0
 53 28  1  0
 50 39  1  0
M  CHG  2  10  -1  25  -1
M  END
>  <UniqueID>  (15) 
14

>  <SMILES>  (15) 
O=C([N-]c1ccccc1C(=O)/N=c1\[n-]cccc1O)c1cccc(S(=O)(=O)N2CCOCC2)c1

>  <Energy>  (15) 
82.39063521321722

>  <Genealogy>  (15) 
O=C([N-]c1ccccc1C(=O)N=c1[n-]cccc1O)c1cccc(S(=O)(=O)N2CCOCC2)c1 (protonated)
O=C([N-]c1ccccc1C(=O)/N=c1\[n-]cccc1O)c1cccc(S(=O)(=O)N2CCOCC2)c1 (cis-trans isomerization)
O=C([N-]c1ccccc1C(=O)/N=c1\[n-]cccc1O)c1cccc(S(=O)(=O)N2CCOCC2)c1 (3D coordinates assigned)
O=C([N-]c1ccccc1C(=O)/N=c1\[n-]cccc1O)c1cccc(S(=O)(=O)N2CCOCC2)c1 (nonaromatic ring conformer: 82.39063521321722 kcal/mol)

>  <smiles>  (15) 
O=C(Nc1ccccc1C(=O)N=c1[nH]cccc1O)c1cccc(S(=O)(=O)N2CCOCC2)c1

>  <score_type>  (15) 
oracle

>  <origin>  (15) 
adg

>  <m_score__min__energy>  (15) 
-14.640000000000001

>  <m_primary>  (15) 
energy

$$$$
15:0
     RDKit          3D

 41 44  0  0  0  0  0  0  0  0999 V2000
   60.0120   30.6680   47.9020 H   0  0  0  0  0  0  0  0  0  0  0  0
   59.3000   31.3790   48.0180 O   0  0  0  0  0  0  0  0  0  0  0  0
   59.3030   32.5630   47.2810 C   0  0  0  0  0  0  0  0  0  0  0  0
   58.0840   33.0650   46.8080 C   0  0  0  0  0  0  0  0  0  0  0  0
   57.1514   32.5186   47.0121 H   0  0  0  0  0  0  0  0  0  0  0  0
   58.0460   34.2550   46.0790 C   0  0  0  0  0  0  0  0  0  0  0  0
   57.0858   34.6408   45.7060 H   0  0  0  0  0  0  0  0  0  0  0  0
   59.2270   34.9560   45.8230 C   0  0  0  0  0  0  0  0  0  0  0  0
   59.1943   35.9010   45.2610 H   0  0  0  0  0  0  0  0  0  0  0  0
   60.4490   34.4580   46.2800 C   0  0  0  0  0  0  0  0  0  0  0  0
   61.3767   35.0118   46.0733 H   0  0  0  0  0  0  0  0  0  0  0  0
   60.5010   33.2510   47.0040 C   0  0  0  0  0  0  0  0  0  0  0  0
   61.7440   32.7580   47.5230 N   0  0  0  0  0  0  0  0  0  0  0  0
   62.3100   31.4790   47.2210 C   0  0  0  0  0  0  0  0  0  0  0  0
   63.5330   31.3990   46.9220 O   0  0  0  0  0  0  0  0  0  0  0  0
   61.5130   30.2980   47.3180 N   0  0  0  0  0  0  0  0  0  0  0  0
   61.1640   29.6410   46.2860 N   0  0  0  0  0  0  0  0  0  0  0  0
   59.7920   29.3220   46.0290 C   0  0  0  0  0  0  0  0  0  0  0  0
   59.0260   30.1930   45.2190 C   0  0  0  0  0  0  0  0  0  0  0  0
   59.4885   31.1037   44.8107 H   0  0  0  0  0  0  0  0  0  0  0  0
   57.6790   29.9070   44.9300 C   0  0  0  0  0  0  0  0  0  0  0  0
   57.0798   30.5814   44.3006 H   0  0  0  0  0  0  0  0  0  0  0  0
   57.1260   28.7450   45.4640 C   0  0  0  0  0  0  0  0  0  0  0  0
   55.8810   28.2790   45.2470 N   0  0  0  0  0  0  0  0  0  0  0  0
   55.8440   27.1110   45.9320 C   0  0  0  0  0  0  0  0  0  0  0  0
   54.7330   26.2770   45.9480 O   0  0  0  0  0  0  0  0  0  0  0  0
   57.0350   26.8510   46.5950 C   0  0  0  0  0  0  0  0  0  0  0  0
   57.3910   25.6080   47.2990 C   0  0  0  0  0  0  0  0  0  0  0  0
   57.7002   25.6991   48.3507 H   0  0  0  0  0  0  0  0  0  0  0  0
   57.3720   24.3700   46.7710 C   0  0  0  0  0  0  0  0  0  0  0  0
   57.3960   23.2780   47.5600 N   0  0  0  0  0  0  0  0  0  0  0  0
   57.3310   22.2470   46.6970 C   0  0  0  0  0  0  0  0  0  0  0  0
   57.3170   21.0450   47.0710 O   0  0  0  0  0  0  0  0  0  0  0  0
   57.2870   22.6050   45.4000 N   0  0  0  0  0  0  0  0  0  0  0  0
   57.3250   23.9500   45.4360 C   0  0  0  0  0  0  0  0  0  0  0  0
   57.4050   24.6760   44.3180 C   0  0  0  0  0  0  0  0  0  0  0  0
   57.4345   25.7741   44.3762 H   0  0  0  0  0  0  0  0  0  0  0  0
   57.4414   24.1759   43.3389 H   0  0  0  0  0  0  0  0  0  0  0  0
   57.8600   27.9010   46.2580 C   0  0  0  0  0  0  0  0  0  0  0  0
   59.2000   28.1490   46.5530 C   0  0  0  0  0  0  0  0  0  0  0  0
   59.7804   27.4522   47.1756 H   0  0  0  0  0  0  0  0  0  0  0  0
  1  2  1  0
  2  3  1  0
  3  4  2  0
  4  5  1  0
  4  6  1  0
  6  7  1  0
  6  8  2  0
  8  9  1  0
  8 10  1  0
 10 11  1  0
 10 12  2  0
 12 13  1  0
 13 14  1  0
 14 15  2  0
 14 16  1  0
 16 17  2  0
 17 18  1  0
 18 19  2  0
 19 20  1  0
 19 21  1  0
 21 22  1  0
 21 23  2  0
 23 24  1  0
 24 25  1  0
 25 26  1  0
 25 27  2  0
 27 28  1  0
 28 29  1  0
 28 30  2  3
 30 31  1  0
 31 32  1  0
 32 33  2  0
 32 34  1  0
 34 35  1  0
 35 36  2  0
 36 37  1  0
 36 38  1  0
 27 39  1  0
 39 40  2  0
 40 41  1  0
 12  3  1  0
 40 18  1  0
 39 23  1  0
 35 30  1  0
M  CHG  5  13  -1  24  -1  26  -1  31  -1  34  -1
M  END
>  <UniqueID>  (16) 
15

>  <SMILES>  (16) 
C=c1[n-]c(=O)[n-]c1=Cc1c([O-])[n-]c2ccc(/N=N/C(=O)[N-]c3ccccc3O)cc12

>  <Energy>  (16) 
119.53888911574663

>  <Genealogy>  (16) 
C=c1[n-]c(=O)[n-]c1=Cc1c([O-])[n-]c2ccc(N=NC(=O)[N-]c3ccccc3O)cc12 (protonated)
C=c1[n-]c(=O)[n-]c1=Cc1c([O-])[n-]c2ccc(/N=N/C(=O)[N-]c3ccccc3O)cc12 (cis-trans isomerization)
C=c1[n-]c(=O)[n-]c1=Cc1c([O-])[n-]c2ccc(/N=N/C(=O)[N-]c3ccccc3O)cc12 (3D coordinates assigned)
C=c1[n-]c(=O)[n-]c1=Cc1c([O-])[n-]c2ccc(/N=N/C(=O)[N-]c3ccccc3O)cc12 (optimized conformer: 119.53888911574663 kcal/mol)

>  <smiles>  (16) 
C=c1[nH]c(=O)[nH]c1=Cc1c(O)[nH]c2ccc(N=NC(=O)Nc3ccccc3O)cc12

>  <score_type>  (16) 
oracle

>  <origin>  (16) 
adg

>  <m_score__min__energy>  (16) 
-16.600000000000001

>  <m_primary>  (16) 
energy

$$$$
16:0
     RDKit          3D

 37 39  0  0  0  0  0  0  0  0999 V2000
   65.6250   33.0760   49.7220 C   0  0  0  0  0  0  0  0  0  0  0  0
   64.2230   32.6780   49.3950 C   0  0  0  0  0  0  0  0  0  0  0  0
   63.4510   32.3080   50.3220 O   0  0  0  0  0  0  0  0  0  0  0  0
   63.7910   32.6450   48.0260 N   0  0  0  0  0  0  0  0  0  0  0  0
   62.4290   32.4280   47.6210 C   0  0  0  0  0  0  0  0  0  0  0  0
   61.7300   33.3820   46.8630 C   0  0  0  0  0  0  0  0  0  0  0  0
   60.4120   33.1420   46.4640 C   0  0  0  0  0  0  0  0  0  0  0  0
   59.7770   31.9350   46.8060 C   0  0  0  0  0  0  0  0  0  0  0  0
   58.4300   31.6420   46.4080 N   0  0  0  0  0  0  0  0  0  0  0  0
   57.9810   30.5510   45.1360 S   0  0  0  0  0  0  0  0  0  0  0  0
   58.8850   30.7730   43.9570 O   0  0  0  0  0  0  0  0  0  0  0  0
   56.5620   30.8300   44.7260 O   0  0  0  0  0  0  0  0  0  0  0  0
   58.0940   28.8880   45.7050 C   0  0  0  0  0  0  0  0  0  0  0  0
   59.3280   28.3620   46.1150 C   0  0  0  0  0  0  0  0  0  0  0  0
   59.4110   27.0520   46.5920 C   0  0  0  0  0  0  0  0  0  0  0  0
   58.2630   26.2550   46.6620 C   0  0  0  0  0  0  0  0  0  0  0  0
   58.3440   24.9830   47.1330 N   0  0  0  0  0  0  0  0  0  0  0  0
   57.2410   24.1960   47.2120 C   0  0  0  0  0  0  0  0  0  0  0  0
   57.3390   23.0210   47.6510 O   0  0  0  0  0  0  0  0  0  0  0  0
   56.0320   24.6730   46.8190 N   0  0  0  0  0  0  0  0  0  0  0  0
   55.8930   25.9370   46.3400 C   0  0  0  0  0  0  0  0  0  0  0  0
   54.7520   26.3420   45.9890 O   0  0  0  0  0  0  0  0  0  0  0  0
   57.0180   26.7740   46.2470 C   0  0  0  0  0  0  0  0  0  0  0  0
   56.9410   28.0930   45.7650 C   0  0  0  0  0  0  0  0  0  0  0  0
   60.4800   30.9790   47.5460 C   0  0  0  0  0  0  0  0  0  0  0  0
   61.7990   31.2180   47.9420 C   0  0  0  0  0  0  0  0  0  0  0  0
   65.7507   33.1117   50.8142 H   0  0  0  0  0  0  0  0  0  0  0  0
   66.3237   32.3407   49.2963 H   0  0  0  0  0  0  0  0  0  0  0  0
   65.8331   34.0687   49.2963 H   0  0  0  0  0  0  0  0  0  0  0  0
   64.5240   32.6970   47.2820 H   0  0  0  0  0  0  0  0  0  0  0  0
   62.2231   34.3242   46.5816 H   0  0  0  0  0  0  0  0  0  0  0  0
   59.8695   33.9003   45.8803 H   0  0  0  0  0  0  0  0  0  0  0  0
   60.2338   28.9837   46.0606 H   0  0  0  0  0  0  0  0  0  0  0  0
   60.3813   26.6457   46.9135 H   0  0  0  0  0  0  0  0  0  0  0  0
   55.9745   28.5014   45.4346 H   0  0  0  0  0  0  0  0  0  0  0  0
   59.9913   30.0319   47.8184 H   0  0  0  0  0  0  0  0  0  0  0  0
   62.3464   30.4510   48.5096 H   0  0  0  0  0  0  0  0  0  0  0  0
  1  2  1  0
  2  3  2  0
  2  4  1  0
  4  5  1  0
  5  6  2  0
  6  7  1  0
  7  8  2  0
  8  9  1  0
  9 10  1  0
 10 11  2  0
 10 12  2  0
 10 13  1  0
 13 14  2  0
 14 15  1  0
 15 16  2  0
 16 17  1  0
 17 18  1  0
 18 19  2  0
 18 20  1  0
 20 21  1  0
 21 22  2  0
 21 23  1  0
 23 24  2  0
  8 25  1  0
 25 26  2  0
 26  5  1  0
 24 13  1  0
 23 16  1  0
  1 27  1  0
  1 28  1  0
  1 29  1  0
  4 30  1  0
  6 31  1  0
  7 32  1  0
 14 33  1  0
 15 34  1  0
 24 35  1  0
 25 36  1  0
 26 37  1  0
M  CHG  3   9  -1  17  -1  20  -1
M  END
>  <UniqueID>  (17) 
16

>  <SMILES>  (17) 
CC(=O)Nc1ccc([N-]S(=O)(=O)c2ccc3[n-]c(=O)[n-]c(=O)c3c2)cc1

>  <Energy>  (17) 
49.02410839155523

>  <Genealogy>  (17) 
CC(=O)Nc1ccc([N-]S(=O)(=O)c2ccc3[n-]c(=O)[n-]c(=O)c3c2)cc1 (protonated)
CC(=O)Nc1ccc([N-]S(=O)(=O)c2ccc3[n-]c(=O)[n-]c(=O)c3c2)cc1 (3D coordinates assigned)
CC(=O)Nc1ccc([N-]S(=O)(=O)c2ccc3[n-]c(=O)[n-]c(=O)c3c2)cc1 (optimized conformer: 49.02410839155523 kcal/mol)

>  <smiles>  (17) 
CC(=O)Nc1ccc(NS(=O)(=O)c2ccc3[nH]c(=O)[nH]c(=O)c3c2)cc1

>  <score_type>  (17) 
oracle

>  <origin>  (17) 
adg

>  <m_score__min__energy>  (17) 
-13.33

>  <m_primary>  (17) 
energy

$$$$
17:0
     RDKit          3D

 35 36  0  0  0  0  0  0  0  0999 V2000
   61.7670   33.8230   46.8740 C   0  0  0  0  0  0  0  0  0  0  0  0
   60.4350   33.3530   46.3700 C   0  0  0  0  0  0  0  0  0  0  0  0
   59.9220   32.1120   46.7770 C   0  0  0  0  0  0  0  0  0  0  0  0
   58.6940   31.6600   46.2840 C   0  0  0  0  0  0  0  0  0  0  0  0
   57.9730   32.4350   45.3630 C   0  0  0  0  0  0  0  0  0  0  0  0
   56.6330   31.9640   44.8640 C   0  0  0  0  0  0  0  0  0  0  0  0
   56.8230   30.8200   43.4530 S   0  0  0  0  0  0  0  0  0  0  0  0
   57.1150   29.3770   44.4710 C   0  0  0  0  0  0  0  0  0  0  0  0
   58.3720   29.0910   44.8970 N   0  0  0  0  0  0  0  0  0  0  0  0
   58.6160   28.0160   45.6890 C   0  0  0  0  0  0  0  0  0  0  0  0
   59.7950   27.7830   46.0720 O   0  0  0  0  0  0  0  0  0  0  0  0
   57.5580   27.1800   46.0770 C   0  0  0  0  0  0  0  0  0  0  0  0
   57.7910   26.0320   46.9210 C   0  0  0  0  0  0  0  0  0  0  0  0
   57.9770   25.1130   47.5990 N   0  0  0  0  0  0  0  0  0  0  0  0
   56.2670   27.4880   45.6220 C   0  0  0  0  0  0  0  0  0  0  0  0
   55.1550   26.6680   45.9910 N   0  0  0  0  0  0  0  0  0  0  0  0
   55.1120   24.9590   45.7090 S   0  0  0  0  0  0  0  0  0  0  0  0
   53.4930   24.4780   45.1520 C   0  0  0  0  0  0  0  0  0  0  0  0
   56.1200   24.6130   44.6490 O   0  0  0  0  0  0  0  0  0  0  0  0
   55.4630   24.2280   46.9740 O   0  0  0  0  0  0  0  0  0  0  0  0
   56.0780   28.5780   44.8300 N   0  0  0  0  0  0  0  0  0  0  0  0
   58.4950   33.6690   44.9430 C   0  0  0  0  0  0  0  0  0  0  0  0
   59.7210   34.1220   45.4390 C   0  0  0  0  0  0  0  0  0  0  0  0
   61.7640   33.8219   47.9740 H   0  0  0  0  0  0  0  0  0  0  0  0
   62.5559   33.1489   46.5088 H   0  0  0  0  0  0  0  0  0  0  0  0
   61.9581   34.8429   46.5088 H   0  0  0  0  0  0  0  0  0  0  0  0
   60.4885   31.4918   47.4872 H   0  0  0  0  0  0  0  0  0  0  0  0
   58.2916   30.6928   46.6196 H   0  0  0  0  0  0  0  0  0  0  0  0
   56.1080   31.4449   45.6794 H   0  0  0  0  0  0  0  0  0  0  0  0
   56.0570   32.8394   44.5294 H   0  0  0  0  0  0  0  0  0  0  0  0
   52.8478   24.2863   46.0221 H   0  0  0  0  0  0  0  0  0  0  0  0
   53.0591   25.2860   44.5447 H   0  0  0  0  0  0  0  0  0  0  0  0
   53.5707   23.5641   44.5447 H   0  0  0  0  0  0  0  0  0  0  0  0
   57.9366   34.2821   44.2203 H   0  0  0  0  0  0  0  0  0  0  0  0
   60.1275   35.0855   45.0978 H   0  0  0  0  0  0  0  0  0  0  0  0
  1  2  1  0
  2  3  2  0
  3  4  1  0
  4  5  2  0
  5  6  1  0
  6  7  1  0
  7  8  1  0
  8  9  2  0
  9 10  1  0
 10 11  2  0
 10 12  1  0
 12 13  1  0
 13 14  3  0
 12 15  2  0
 15 16  1  0
 16 17  1  0
 17 18  1  0
 17 19  2  0
 17 20  2  0
 15 21  1  0
  5 22  1  0
 22 23  2  0
 23  2  1  0
 21  8  1  0
  1 24  1  0
  1 25  1  0
  1 26  1  0
  3 27  1  0
  4 28  1  0
  6 29  1  0
  6 30  1  0
 18 31  1  0
 18 32  1  0
 18 33  1  0
 22 34  1  0
 23 35  1  0
M  CHG  2  16  -1  21  -1
M  END
>  <UniqueID>  (18) 
17

>  <SMILES>  (18) 
Cc1ccc(CSc2nc(=O)c(C#N)c([N-]S(C)(=O)=O)[n-]2)cc1

>  <Energy>  (18) 
27.930387028743556

>  <Genealogy>  (18) 
Cc1ccc(CSc2nc(=O)c(C#N)c([N-]S(C)(=O)=O)[n-]2)cc1 (protonated)
Cc1ccc(CSc2nc(=O)c(C#N)c([N-]S(C)(=O)=O)[n-]2)cc1 (3D coordinates assigned)
Cc1ccc(CSc2nc(=O)c(C#N)c([N-]S(C)(=O)=O)[n-]2)cc1 (optimized conformer: 27.930387028743556 kcal/mol)

>  <smiles>  (18) 
Cc1ccc(CSc2nc(=O)c(C#N)c(NS(C)(=O)=O)[nH]2)cc1

>  <score_type>  (18) 
oracle

>  <origin>  (18) 
adg

>  <m_score__min__energy>  (18) 
-12.01

>  <m_primary>  (18) 
energy

$$$$
18:0
     RDKit          3D

 56 58  0  0  0  0  0  0  0  0999 V2000
   59.4830   34.5660   46.0800 C   0  0  0  0  0  0  0  0  0  0  0  0
   58.6660   34.3720   45.0400 C   0  0  0  0  0  0  0  0  0  0  0  0
   57.1920   34.1370   45.2240 C   0  0  0  0  0  0  0  0  0  0  0  0
   56.8230   32.7690   44.8540 N   0  0  0  0  0  0  0  0  0  0  0  0
   57.4140   31.6020   44.9360 C   0  0  0  0  0  0  0  0  0  0  0  0
   58.1540   31.3930   46.0560 N   0  0  0  0  0  0  0  0  0  0  0  0
   58.6530   30.1800   46.3820 C   0  0  0  0  0  0  0  0  0  0  0  0
   59.3970   30.0220   47.5570 C   0  0  0  0  0  0  0  0  0  0  0  0
   59.8850   28.7570   47.9290 C   0  0  0  0  0  0  0  0  0  0  0  0
   60.6740   28.6080   49.1740 C   0  0  0  0  0  0  0  0  0  0  0  0
   60.6750   27.4980   49.7730 O   0  0  0  0  0  0  0  0  0  0  0  0
   61.4160   29.7110   49.7210 N   0  0  0  0  0  0  0  0  0  0  0  0
   62.1740   29.6070   50.9680 C   0  0  0  0  0  0  0  0  0  0  0  0
   62.5700   30.9930   51.4950 C   0  0  0  0  0  0  0  0  0  0  0  0
   62.8880   31.9430   50.3660 C   0  0  0  0  0  0  0  0  0  0  0  0
   64.2270   32.1590   50.0000 C   0  0  0  0  0  0  0  0  0  0  0  0
   64.5480   33.0600   48.9830 C   0  0  0  0  0  0  0  0  0  0  0  0
   63.5350   33.7590   48.3250 C   0  0  0  0  0  0  0  0  0  0  0  0
   62.2000   33.5630   48.6840 C   0  0  0  0  0  0  0  0  0  0  0  0
   61.8620   32.6580   49.7100 C   0  0  0  0  0  0  0  0  0  0  0  0
   60.5300   32.4480   50.1020 O   0  0  0  0  0  0  0  0  0  0  0  0
   59.3980   33.0360   49.4680 C   0  0  0  0  0  0  0  0  0  0  0  0
   59.5910   27.6480   47.1130 C   0  0  0  0  0  0  0  0  0  0  0  0
   58.8470   27.8070   45.9400 C   0  0  0  0  0  0  0  0  0  0  0  0
   58.3780   29.0780   45.5650 C   0  0  0  0  0  0  0  0  0  0  0  0
   57.6660   29.2980   44.3750 C   0  0  0  0  0  0  0  0  0  0  0  0
   57.4240   28.3190   43.6110 O   0  0  0  0  0  0  0  0  0  0  0  0
   57.2600   30.5680   44.0230 N   0  0  0  0  0  0  0  0  0  0  0  0
   56.9040   30.7880   42.6070 C   0  0  0  0  0  0  0  0  0  0  0  0
   57.6610   31.9500   42.0270 C   0  0  0  0  0  0  0  0  0  0  0  0
   57.4180   32.3790   40.7880 C   0  0  0  0  0  0  0  0  0  0  0  0
   60.5568   34.7353   45.9118 H   0  0  0  0  0  0  0  0  0  0  0  0
   59.0815   34.5564   47.1041 H   0  0  0  0  0  0  0  0  0  0  0  0
   59.0830   34.3846   44.0222 H   0  0  0  0  0  0  0  0  0  0  0  0
   56.9308   34.3061   46.2791 H   0  0  0  0  0  0  0  0  0  0  0  0
   56.6445   34.8336   44.5721 H   0  0  0  0  0  0  0  0  0  0  0  0
   59.6016   30.8947   48.1946 H   0  0  0  0  0  0  0  0  0  0  0  0
   61.3860   30.6450   49.2550 H   0  0  0  0  0  0  0  0  0  0  0  0
   61.5551   29.0997   51.7227 H   0  0  0  0  0  0  0  0  0  0  0  0
   63.0922   29.0345   50.7703 H   0  0  0  0  0  0  0  0  0  0  0  0
   61.7362   31.4034   52.0836 H   0  0  0  0  0  0  0  0  0  0  0  0
   63.4704   30.8818   52.1170 H   0  0  0  0  0  0  0  0  0  0  0  0
   65.0291   31.6138   50.5190 H   0  0  0  0  0  0  0  0  0  0  0  0
   65.5991   33.2189   48.7004 H   0  0  0  0  0  0  0  0  0  0  0  0
   63.7889   34.4661   47.5216 H   0  0  0  0  0  0  0  0  0  0  0  0
   61.4068   34.1187   48.1625 H   0  0  0  0  0  0  0  0  0  0  0  0
   58.6970   33.4001   50.2335 H   0  0  0  0  0  0  0  0  0  0  0  0
   59.7254   33.8780   48.8404 H   0  0  0  0  0  0  0  0  0  0  0  0
   58.8974   32.2839   48.8404 H   0  0  0  0  0  0  0  0  0  0  0  0
   59.9495   26.6486   47.4006 H   0  0  0  0  0  0  0  0  0  0  0  0
   58.6277   26.9339   45.3079 H   0  0  0  0  0  0  0  0  0  0  0  0
   57.1441   29.8813   42.0323 H   0  0  0  0  0  0  0  0  0  0  0  0
   55.8285   31.0116   42.5504 H   0  0  0  0  0  0  0  0  0  0  0  0
   58.4273   32.4543   42.6341 H   0  0  0  0  0  0  0  0  0  0  0  0
   57.9820   33.2309   40.3804 H   0  0  0  0  0  0  0  0  0  0  0  0
   56.6536   31.8810   40.1735 H   0  0  0  0  0  0  0  0  0  0  0  0
  1  2  2  0
  2  3  1  0
  3  4  1  0
  4  5  2  3
  5  6  1  0
  6  7  1  0
  7  8  2  0
  8  9  1  0
  9 10  1  0
 10 11  2  0
 10 12  1  0
 12 13  1  0
 13 14  1  0
 14 15  1  0
 15 16  2  0
 16 17  1  0
 17 18  2  0
 18 19  1  0
 19 20  2  0
 20 21  1  0
 21 22  1  0
  9 23  2  0
 23 24  1  0
 24 25  2  0
 25 26  1  0
 26 27  2  0
 26 28  1  0
 28 29  1  0
 29 30  1  0
 30 31  2  0
 28  5  1  0
 25  7  1  0
 20 15  1  0
  1 32  1  0
  1 33  1  0
  2 34  1  0
  3 35  1  0
  3 36  1  0
  8 37  1  0
 12 38  1  0
 13 39  1  0
 13 40  1  0
 14 41  1  0
 14 42  1  0
 16 43  1  0
 17 44  1  0
 18 45  1  0
 19 46  1  0
 22 47  1  0
 22 48  1  0
 22 49  1  0
 23 50  1  0
 24 51  1  0
 29 52  1  0
 29 53  1  0
 30 54  1  0
 31 55  1  0
 31 56  1  0
M  CHG  1   6  -1
M  END
>  <UniqueID>  (19) 
18

>  <SMILES>  (19) 
C=CCN=c1[n-]c2cc(C(=O)NCCc3ccccc3OC)ccc2c(=O)n1CC=C

>  <Energy>  (19) 
77.31816768173519

>  <Genealogy>  (19) 
C=CCN=c1[n-]c2cc(C(=O)NCCc3ccccc3OC)ccc2c(=O)n1CC=C (protonated)
C=CCN=c1[n-]c2cc(C(=O)NCCc3ccccc3OC)ccc2c(=O)n1CC=C (3D coordinates assigned)
C=CCN=c1[n-]c2cc(C(=O)NCCc3ccccc3OC)ccc2c(=O)n1CC=C (optimized conformer: 77.31816768173519 kcal/mol)

>  <smiles>  (19) 
C=CCN=c1[nH]c2cc(C(=O)NCCc3ccccc3OC)ccc2c(=O)n1CC=C

>  <score_type>  (19) 
oracle

>  <origin>  (19) 
adg

>  <m_score__min__energy>  (19) 
-10.24

>  <m_primary>  (19) 
energy

$$$$
19:0
     RDKit          3D

 41 43  0  0  0  0  0  0  0  0999 V2000
   59.1840   30.2600   47.0150 C   0  0  0  0  0  0  0  0  0  0  0  0
   58.4690   31.0510   46.1990 C   0  0  0  0  0  0  0  0  0  0  0  0
   57.9180   30.6810   44.9680 C   0  0  0  0  0  0  0  0  0  0  0  0
   57.9440   29.4650   44.3900 C   0  0  0  0  0  0  0  0  0  0  0  0
   57.3990   28.2450   45.0270 C   0  0  0  0  0  0  0  0  0  0  0  0
   56.0190   28.1280   45.2520 C   0  0  0  0  0  0  0  0  0  0  0  0
   55.1480   29.1330   44.8510 O   0  0  0  0  0  0  0  0  0  0  0  0
   55.5220   27.0180   45.8590 N   0  0  0  0  0  0  0  0  0  0  0  0
   56.3420   26.0170   46.2690 C   0  0  0  0  0  0  0  0  0  0  0  0
   55.8580   24.9970   46.8240 O   0  0  0  0  0  0  0  0  0  0  0  0
   57.6820   26.1180   46.0870 N   0  0  0  0  0  0  0  0  0  0  0  0
   58.2300   27.2070   45.4870 C   0  0  0  0  0  0  0  0  0  0  0  0
   59.4820   27.2810   45.3670 O   0  0  0  0  0  0  0  0  0  0  0  0
   57.2950   31.8130   44.4630 C   0  0  0  0  0  0  0  0  0  0  0  0
   57.4960   32.8200   45.3850 C   0  0  0  0  0  0  0  0  0  0  0  0
   56.9810   34.2200   45.2380 C   0  0  0  0  0  0  0  0  0  0  0  0
   58.1920   32.3580   46.4510 N   0  0  0  0  0  0  0  0  0  0  0  0
   58.6180   33.1550   47.6100 C   0  0  0  0  0  0  0  0  0  0  0  0
   59.5420   34.2900   47.1620 C   0  0  0  0  0  0  0  0  0  0  0  0
   60.9770   33.9550   47.4670 C   0  0  0  0  0  0  0  0  0  0  0  0
   61.9060   33.8010   46.4240 C   0  0  0  0  0  0  0  0  0  0  0  0
   63.2460   33.5230   46.7110 C   0  0  0  0  0  0  0  0  0  0  0  0
   63.6690   33.4060   48.0380 C   0  0  0  0  0  0  0  0  0  0  0  0
   62.7530   33.5710   49.0810 C   0  0  0  0  0  0  0  0  0  0  0  0
   61.4120   33.8500   48.7980 C   0  0  0  0  0  0  0  0  0  0  0  0
   59.5716   30.6567   47.9649 H   0  0  0  0  0  0  0  0  0  0  0  0
   59.3821   29.2152   46.7336 H   0  0  0  0  0  0  0  0  0  0  0  0
   58.3945   29.3734   43.3907 H   0  0  0  0  0  0  0  0  0  0  0  0
   56.7472   31.8925   43.5124 H   0  0  0  0  0  0  0  0  0  0  0  0
   56.8199   34.6579   46.2341 H   0  0  0  0  0  0  0  0  0  0  0  0
   57.7155   34.8248   44.6860 H   0  0  0  0  0  0  0  0  0  0  0  0
   56.0297   34.2047   44.6860 H   0  0  0  0  0  0  0  0  0  0  0  0
   57.7319   33.5813   48.1029 H   0  0  0  0  0  0  0  0  0  0  0  0
   59.1624   32.5053   48.3110 H   0  0  0  0  0  0  0  0  0  0  0  0
   59.4286   34.4424   46.0785 H   0  0  0  0  0  0  0  0  0  0  0  0
   59.2681   35.2063   47.7054 H   0  0  0  0  0  0  0  0  0  0  0  0
   61.5781   33.8994   45.3786 H   0  0  0  0  0  0  0  0  0  0  0  0
   63.9683   33.3962   45.8912 H   0  0  0  0  0  0  0  0  0  0  0  0
   64.7229   33.1840   48.2617 H   0  0  0  0  0  0  0  0  0  0  0  0
   63.0871   33.4813   50.1252 H   0  0  0  0  0  0  0  0  0  0  0  0
   60.6954   33.9877   49.6211 H   0  0  0  0  0  0  0  0  0  0  0  0
  1  2  2  0
  2  3  1  0
  3  4  2  3
  4  5  1  0
  5  6  2  0
  6  7  1  0
  6  8  1  0
  8  9  1  0
  9 10  2  0
  9 11  1  0
 11 12  1  0
 12 13  2  0
  3 14  1  0
 14 15  2  0
 15 16  1  0
 15 17  1  0
 17 18  1  0
 18 19  1  0
 19 20  1  0
 20 21  2  0
 21 22  1  0
 22 23  2  0
 23 24  1  0
 24 25  2  0
 17  2  1  0
 25 20  1  0
 12  5  1  0
  1 26  1  0
  1 27  1  0
  4 28  1  0
 14 29  1  0
 16 30  1  0
 16 31  1  0
 16 32  1  0
 18 33  1  0
 18 34  1  0
 19 35  1  0
 19 36  1  0
 21 37  1  0
 22 38  1  0
 23 39  1  0
 24 40  1  0
 25 41  1  0
M  CHG  3   7  -1   8  -1  11  -1
M  END
>  <UniqueID>  (20) 
19

>  <SMILES>  (20) 
C=c1c(=Cc2c([O-])[n-]c(=O)[n-]c2=O)cc(C)n1CCc1ccccc1

>  <Energy>  (20) 
78.69291836879458

>  <Genealogy>  (20) 
C=c1c(=Cc2c([O-])[n-]c(=O)[n-]c2=O)cc(C)n1CCc1ccccc1 (protonated)
C=c1c(=Cc2c([O-])[n-]c(=O)[n-]c2=O)cc(C)n1CCc1ccccc1 (3D coordinates assigned)
C=c1c(=Cc2c([O-])[n-]c(=O)[n-]c2=O)cc(C)n1CCc1ccccc1 (optimized conformer: 78.69291836879458 kcal/mol)

>  <smiles>  (20) 
C=c1c(=Cc2c(O)[nH]c(=O)[nH]c2=O)cc(C)n1CCc1ccccc1

>  <score_type>  (20) 
oracle

>  <origin>  (20) 
adg

>  <m_score__min__energy>  (20) 
-16.07

>  <m_primary>  (20) 
energy

$$$$
20:0
     RDKit          3D

 55 58  0  0  0  0  0  0  0  0999 V2000
   60.5997   30.2553   44.6953 H   0  0  0  0  0  0  0  0  0  0  0  0
   59.9180   29.4280   44.9420 C   0  0  0  0  0  0  0  0  0  0  0  0
   59.5649   28.7514   44.1498 H   0  0  0  0  0  0  0  0  0  0  0  0
   59.5170   29.2440   46.2100 C   0  0  0  0  0  0  0  0  0  0  0  0
   58.6560   28.2420   46.6810 C   0  0  0  0  0  0  0  0  0  0  0  0
   58.0510   27.2870   45.9420 C   0  0  0  0  0  0  0  0  0  0  0  0
   58.0467   27.4246   44.8507 H   0  0  0  0  0  0  0  0  0  0  0  0
   57.3930   26.0710   46.4720 C   0  0  0  0  0  0  0  0  0  0  0  0
   58.0150   24.9950   46.9890 N   0  0  0  0  0  0  0  0  0  0  0  0
   57.0000   24.1580   47.2930 C   0  0  0  0  0  0  0  0  0  0  0  0
   57.1880   23.0260   47.8090 O   0  0  0  0  0  0  0  0  0  0  0  0
   55.7710   24.6280   46.9960 N   0  0  0  0  0  0  0  0  0  0  0  0
   56.0380   25.8360   46.4760 C   0  0  0  0  0  0  0  0  0  0  0  0
   55.0600   26.7080   46.0130 O   0  0  0  0  0  0  0  0  0  0  0  0
   58.5430   28.4480   48.0530 C   0  0  0  0  0  0  0  0  0  0  0  0
   57.9494   27.8492   48.7595 H   0  0  0  0  0  0  0  0  0  0  0  0
   59.3190   29.5480   48.3560 C   0  0  0  0  0  0  0  0  0  0  0  0
   59.4880   30.1260   49.7280 C   0  0  0  0  0  0  0  0  0  0  0  0
   59.2629   29.3560   50.4806 H   0  0  0  0  0  0  0  0  0  0  0  0
   60.5247   30.4711   49.8553 H   0  0  0  0  0  0  0  0  0  0  0  0
   58.8006   30.9752   49.8553 H   0  0  0  0  0  0  0  0  0  0  0  0
   59.9180   30.0220   47.2440 N   0  0  0  0  0  0  0  0  0  0  0  0
   60.7670   31.1790   47.1850 C   0  0  0  0  0  0  0  0  0  0  0  0
   62.1570   31.0280   47.2750 C   0  0  0  0  0  0  0  0  0  0  0  0
   62.5953   30.0216   47.3467 H   0  0  0  0  0  0  0  0  0  0  0  0
   62.9880   32.1500   47.2740 C   0  0  0  0  0  0  0  0  0  0  0  0
   64.0793   32.0265   47.3354 H   0  0  0  0  0  0  0  0  0  0  0  0
   62.4330   33.4290   47.1950 C   0  0  0  0  0  0  0  0  0  0  0  0
   63.0886   34.3123   47.1950 H   0  0  0  0  0  0  0  0  0  0  0  0
   61.0480   33.5900   47.1160 C   0  0  0  0  0  0  0  0  0  0  0  0
   60.6165   34.6000   47.0559 H   0  0  0  0  0  0  0  0  0  0  0  0
   60.2020   32.4650   47.1130 C   0  0  0  0  0  0  0  0  0  0  0  0
   58.8040   32.5740   47.0420 O   0  0  0  0  0  0  0  0  0  0  0  0
   58.0820   33.7820   46.8020 C   0  0  0  0  0  0  0  0  0  0  0  0
   57.6178   34.1189   47.7406 H   0  0  0  0  0  0  0  0  0  0  0  0
   58.7802   34.5457   46.4289 H   0  0  0  0  0  0  0  0  0  0  0  0
   56.9930   33.5550   45.7560 C   0  0  0  0  0  0  0  0  0  0  0  0
   56.3569   32.7119   46.0633 H   0  0  0  0  0  0  0  0  0  0  0  0
   56.3742   34.4596   45.6623 H   0  0  0  0  0  0  0  0  0  0  0  0
   57.6000   33.2620   44.5140 O   0  0  0  0  0  0  0  0  0  0  0  0
   57.5430   31.8740   44.2510 C   0  0  1  0  0  0  0  0  0  0  0  0
   58.4164   31.3644   44.6840 H   0  0  0  0  0  0  0  0  0  0  0  0
   56.3640   31.3370   44.8280 O   0  0  0  0  0  0  0  0  0  0  0  0
   56.3940   29.9180   44.7800 C   0  0  0  0  0  0  0  0  0  0  0  0
   55.4060   29.5372   45.0779 H   0  0  0  0  0  0  0  0  0  0  0  0
   57.1887   29.5845   45.4636 H   0  0  0  0  0  0  0  0  0  0  0  0
   56.7320   29.3630   43.3770 C   0  0  0  0  0  0  0  0  0  0  0  0
   56.0151   28.5686   43.1220 H   0  0  0  0  0  0  0  0  0  0  0  0
   57.7574   28.9651   43.3949 H   0  0  0  0  0  0  0  0  0  0  0  0
   56.6550   30.4640   42.3200 C   0  0  0  0  0  0  0  0  0  0  0  0
   55.6104   30.7930   42.2171 H   0  0  0  0  0  0  0  0  0  0  0  0
   57.0254   30.0631   41.3650 H   0  0  0  0  0  0  0  0  0  0  0  0
   57.5250   31.6660   42.7210 C   0  0  0  0  0  0  0  0  0  0  0  0
   57.1235   32.5717   42.2430 H   0  0  0  0  0  0  0  0  0  0  0  0
   58.5553   31.4687   42.3900 H   0  0  0  0  0  0  0  0  0  0  0  0
  1  2  1  0
  2  3  1  0
  2  4  2  0
  4  5  1  0
  5  6  2  0
  6  7  1  0
  6  8  1  0
  8  9  1  0
  9 10  1  0
 10 11  2  0
 10 12  1  0
 12 13  1  0
 13 14  1  0
  5 15  1  0
 15 16  1  0
 15 17  2  0
 17 18  1  0
 18 19  1  0
 18 20  1  0
 18 21  1  0
 17 22  1  0
 22 23  1  0
 23 24  2  0
 24 25  1  0
 24 26  1  0
 26 27  1  0
 26 28  2  0
 28 29  1  0
 28 30  1  0
 30 31  1  0
 30 32  2  0
 32 33  1  0
 33 34  1  0
 34 35  1  0
 34 36  1  0
 34 37  1  0
 37 38  1  0
 37 39  1  0
 37 40  1  0
 40 41  1  0
 41 42  1  1
 41 43  1  0
 43 44  1  0
 44 45  1  0
 44 46  1  0
 44 47  1  0
 47 48  1  0
 47 49  1  0
 47 50  1  0
 50 51  1  0
 50 52  1  0
 50 53  1  0
 53 54  1  0
 53 55  1  0
 22  4  1  0
 32 23  1  0
 53 41  1  0
 13  8  2  0
M  CHG  3   9  -1  12  -1  14  -1
M  END
>  <UniqueID>  (21) 
20

>  <SMILES>  (21) 
C=c1/c(=C/c2[n-]c(=O)[n-]c2[O-])cc(C)n1-c1ccccc1OCCO[C@@H]1CCCCO1

>  <Energy>  (21) 
130.839818704502

>  <Genealogy>  (21) 
C=c1c(=Cc2[n-]c(=O)[n-]c2[O-])cc(C)n1-c1ccccc1OCCOC1CCCCO1 (protonated)
C=c1c(=Cc2[n-]c(=O)[n-]c2[O-])cc(C)n1-c1ccccc1OCCO[C@@H]1CCCCO1 (chirality)
C=c1/c(=C/c2[n-]c(=O)[n-]c2[O-])cc(C)n1-c1ccccc1OCCO[C@@H]1CCCCO1 (cis-trans isomerization)
C=c1/c(=C/c2[n-]c(=O)[n-]c2[O-])cc(C)n1-c1ccccc1OCCO[C@@H]1CCCCO1 (3D coordinates assigned)
C=c1/c(=C/c2[n-]c(=O)[n-]c2[O-])cc(C)n1-c1ccccc1OCCO[C@@H]1CCCCO1 (nonaromatic ring conformer: 130.839818704502 kcal/mol)

>  <smiles>  (21) 
C=c1c(=Cc2[nH]c(=O)[nH]c2O)cc(C)n1-c1ccccc1OCCOC1CCCCO1

>  <score_type>  (21) 
oracle

>  <origin>  (21) 
adg

>  <m_score__min__energy>  (21) 
-17.530000000000001

>  <m_primary>  (21) 
energy

$$$$
21:0
     RDKit          3D

 48 50  0  0  0  0  0  0  0  0999 V2000
   59.6809   31.1766   46.7043 H   0  0  0  0  0  0  0  0  0  0  0  0
   59.2100   30.1900   46.8260 C   0  0  0  0  0  0  0  0  0  0  0  0
   59.4797   29.5536   47.6817 H   0  0  0  0  0  0  0  0  0  0  0  0
   58.3050   29.7620   45.9290 C   0  0  0  0  0  0  0  0  0  0  0  0
   57.6350   28.5350   45.9660 C   0  0  0  0  0  0  0  0  0  0  0  0
   57.7180   27.5860   46.9190 C   0  0  0  0  0  0  0  0  0  0  0  0
   58.1830   27.8596   47.8776 H   0  0  0  0  0  0  0  0  0  0  0  0
   57.2260   26.2040   46.7610 C   0  0  0  0  0  0  0  0  0  0  0  0
   55.9550   25.8370   46.3800 C   0  0  0  0  0  0  0  0  0  0  0  0
   54.9430   26.7060   45.9920 O   0  0  0  0  0  0  0  0  0  0  0  0
   55.8100   24.4990   46.4340 N   0  0  0  0  0  0  0  0  0  0  0  0
   57.0180   24.0880   46.8750 C   0  0  0  0  0  0  0  0  0  0  0  0
   57.2940   22.8760   47.0800 O   0  0  0  0  0  0  0  0  0  0  0  0
   57.8960   25.0860   47.0920 N   0  0  0  0  0  0  0  0  0  0  0  0
   58.8580   25.0040   47.4900 H   0  0  0  0  0  0  0  0  0  0  0  0
   56.8030   28.5130   44.8570 C   0  0  0  0  0  0  0  0  0  0  0  0
   56.1175   27.7031   44.5668 H   0  0  0  0  0  0  0  0  0  0  0  0
   57.0010   29.7030   44.1880 C   0  0  0  0  0  0  0  0  0  0  0  0
   56.2640   30.0990   42.9430 C   0  0  0  0  0  0  0  0  0  0  0  0
   55.3256   30.6032   43.2171 H   0  0  0  0  0  0  0  0  0  0  0  0
   56.8881   30.7833   42.3494 H   0  0  0  0  0  0  0  0  0  0  0  0
   56.0379   29.2009   42.3494 H   0  0  0  0  0  0  0  0  0  0  0  0
   57.9110   30.4690   44.8340 N   0  0  0  0  0  0  0  0  0  0  0  0
   58.3010   31.8380   44.4520 C   0  0  0  0  0  0  0  0  0  0  0  0
   59.3987   31.8992   44.4155 H   0  0  0  0  0  0  0  0  0  0  0  0
   57.8618   32.0585   43.4679 H   0  0  0  0  0  0  0  0  0  0  0  0
   57.7770   32.8770   45.4550 C   0  0  0  0  0  0  0  0  0  0  0  0
   57.4022   33.7491   44.8992 H   0  0  0  0  0  0  0  0  0  0  0  0
   56.9767   32.4058   46.0444 H   0  0  0  0  0  0  0  0  0  0  0  0
   58.8490   33.3330   46.4090 C   0  0  0  0  0  0  0  0  0  0  0  0
   58.5560   33.5080   47.7680 C   0  0  0  0  0  0  0  0  0  0  0  0
   57.5276   33.3599   48.1291 H   0  0  0  0  0  0  0  0  0  0  0  0
   59.5610   33.8690   48.6660 C   0  0  0  0  0  0  0  0  0  0  0  0
   59.3198   34.0052   49.7305 H   0  0  0  0  0  0  0  0  0  0  0  0
   60.8820   34.0600   48.2180 C   0  0  0  0  0  0  0  0  0  0  0  0
   61.9210   34.4170   49.0930 O   0  0  0  0  0  0  0  0  0  0  0  0
   62.4790   33.5520   50.0770 C   0  0  0  0  0  0  0  0  0  0  0  0
   62.2342   33.9315   51.0800 H   0  0  0  0  0  0  0  0  0  0  0  0
   62.0622   32.5413   49.9555 H   0  0  0  0  0  0  0  0  0  0  0  0
   63.5716   33.5150   49.9555 H   0  0  0  0  0  0  0  0  0  0  0  0
   61.1840   33.8860   46.8580 C   0  0  0  0  0  0  0  0  0  0  0  0
   62.5120   34.0760   46.4420 O   0  0  0  0  0  0  0  0  0  0  0  0
   63.5900   33.2030   46.7600 C   0  0  0  0  0  0  0  0  0  0  0  0
   63.6877   33.1239   47.8528 H   0  0  0  0  0  0  0  0  0  0  0  0
   63.3925   32.2072   46.3365 H   0  0  0  0  0  0  0  0  0  0  0  0
   64.5230   33.6031   46.3365 H   0  0  0  0  0  0  0  0  0  0  0  0
   60.1630   33.5220   45.9580 C   0  0  0  0  0  0  0  0  0  0  0  0
   60.3988   33.3849   44.8923 H   0  0  0  0  0  0  0  0  0  0  0  0
  1  2  1  0
  2  3  1  0
  2  4  2  0
  4  5  1  0
  5  6  2  0
  6  7  1  0
  6  8  1  0
  8  9  2  0
  9 10  1  0
  9 11  1  0
 11 12  1  0
 12 13  2  0
 12 14  1  0
 14 15  1  0
  5 16  1  0
 16 17  1  0
 16 18  2  0
 18 19  1  0
 19 20  1  0
 19 21  1  0
 19 22  1  0
 18 23  1  0
 23 24  1  0
 24 25  1  0
 24 26  1  0
 24 27  1  0
 27 28  1  0
 27 29  1  0
 27 30  1  0
 30 31  2  0
 31 32  1  0
 31 33  1  0
 33 34  1  0
 33 35  2  0
 35 36  1  0
 36 37  1  0
 37 38  1  0
 37 39  1  0
 37 40  1  0
 35 41  1  0
 41 42  1  0
 42 43  1  0
 43 44  1  0
 43 45  1  0
 43 46  1  0
 41 47  2  0
 47 48  1  0
 23  4  1  0
 47 30  1  0
 14  8  1  0
M  CHG  2  10  -1  11  -1
M  END
>  <UniqueID>  (22) 
21

>  <SMILES>  (22) 
C=c1/c(=C/c2[nH]c(=O)[n-]c2[O-])cc(C)n1CCc1ccc(OC)c(OC)c1

>  <Energy>  (22) 
109.23581933962429

>  <Genealogy>  (22) 
C=c1c(=Cc2[nH]c(=O)[n-]c2[O-])cc(C)n1CCc1ccc(OC)c(OC)c1 (protonated)
C=c1/c(=C/c2[nH]c(=O)[n-]c2[O-])cc(C)n1CCc1ccc(OC)c(OC)c1 (cis-trans isomerization)
C=c1/c(=C/c2[nH]c(=O)[n-]c2[O-])cc(C)n1CCc1ccc(OC)c(OC)c1 (3D coordinates assigned)
C=c1/c(=C/c2[nH]c(=O)[n-]c2[O-])cc(C)n1CCc1ccc(OC)c(OC)c1 (optimized conformer: 109.23581933962429 kcal/mol)

>  <smiles>  (22) 
C=c1c(=Cc2[nH]c(=O)[nH]c2O)cc(C)n1CCc1ccc(OC)c(OC)c1

>  <score_type>  (22) 
oracle

>  <origin>  (22) 
adg

>  <m_score__min__energy>  (22) 
-13.550000000000001

>  <m_primary>  (22) 
energy

$$$$
22:0
     RDKit          3D

 20 20  0  0  0  0  0  0  0  0999 V2000
   57.3460   24.7670   46.4070 C   0  0  0  0  0  0  0  0  0  0  0  0
   57.4990   26.0030   45.9300 C   0  0  0  0  0  0  0  0  0  0  0  0
   58.6840   26.5280   45.5660 N   0  0  0  0  0  0  0  0  0  0  0  0
   58.4430   27.7870   45.1370 C   0  0  0  0  0  0  0  0  0  0  0  0
   59.4170   28.5910   44.7010 C   0  0  0  0  0  0  0  0  0  0  0  0
   57.0750   28.0780   45.2270 C   0  0  0  0  0  0  0  0  0  0  0  0
   56.3460   29.3170   44.8760 C   0  0  0  0  0  0  0  0  0  0  0  0
   55.1540   29.2690   44.4670 O   0  0  0  0  0  0  0  0  0  0  0  0
   56.9900   30.5510   45.0020 O   0  0  0  0  0  0  0  0  0  0  0  0
   57.3920   31.3270   43.8800 C   0  0  0  0  0  0  0  0  0  0  0  0
   56.4950   26.9280   45.7350 C   0  0  0  0  0  0  0  0  0  0  0  0
   55.1430   26.7350   46.0000 O   0  0  0  0  0  0  0  0  0  0  0  0
   56.3452   24.4046   46.6846 H   0  0  0  0  0  0  0  0  0  0  0  0
   58.2206   24.1100   46.5228 H   0  0  0  0  0  0  0  0  0  0  0  0
   59.6130   26.0500   45.6080 H   0  0  0  0  0  0  0  0  0  0  0  0
   59.1784   29.6093   44.3603 H   0  0  0  0  0  0  0  0  0  0  0  0
   60.4575   28.2346   44.6828 H   0  0  0  0  0  0  0  0  0  0  0  0
   57.8720   32.2535   44.2280 H   0  0  0  0  0  0  0  0  0  0  0  0
   58.1050   30.7507   43.2721 H   0  0  0  0  0  0  0  0  0  0  0  0
   56.5100   31.5770   43.2721 H   0  0  0  0  0  0  0  0  0  0  0  0
  1  2  2  0
  2  3  1  0
  3  4  1  0
  4  5  2  0
  4  6  1  0
  6  7  1  0
  7  8  2  0
  7  9  1  0
  9 10  1  0
  6 11  2  0
 11 12  1  0
 11  2  1  0
  1 13  1  0
  1 14  1  0
  3 15  1  0
  5 16  1  0
  5 17  1  0
 10 18  1  0
 10 19  1  0
 10 20  1  0
M  CHG  1  12  -1
M  END
>  <UniqueID>  (23) 
22

>  <SMILES>  (23) 
C=c1[nH]c(=C)c(C(=O)OC)c1[O-]

>  <Energy>  (23) 
45.71866397782232

>  <Genealogy>  (23) 
C=c1[nH]c(=C)c(C(=O)OC)c1[O-] (protonated)
C=c1[nH]c(=C)c(C(=O)OC)c1[O-] (3D coordinates assigned)
C=c1[nH]c(=C)c(C(=O)OC)c1[O-] (optimized conformer: 45.71866397782232 kcal/mol)

>  <smiles>  (23) 
C=c1[nH]c(=C)c(C(=O)OC)c1O

>  <score_type>  (23) 
oracle

>  <origin>  (23) 
adg

>  <m_score__min__energy>  (23) 
-8.75

>  <m_primary>  (23) 
energy

$$$$
23:0
     RDKit          3D

 38 40  0  0  0  0  0  0  0  0999 V2000
   57.1680   32.8220   45.5680 H   0  0  0  0  0  0  0  0  0  0  0  0
   57.2010   33.5810   46.2850 N   0  0  0  0  0  0  0  0  0  0  0  0
   58.7930   34.2510   46.2380 S   0  0  0  0  0  0  0  0  0  0  0  0
   59.0590   34.8060   44.8670 O   0  0  0  0  0  0  0  0  0  0  0  0
   58.9000   35.3670   47.2400 O   0  0  0  0  0  0  0  0  0  0  0  0
   59.9670   32.9970   46.6220 C   0  0  0  0  0  0  0  0  0  0  0  0
   61.2060   33.3290   47.1870 C   0  0  0  0  0  0  0  0  0  0  0  0
   61.4514   34.3813   47.3930 H   0  0  0  0  0  0  0  0  0  0  0  0
   62.1300   32.3250   47.4890 C   0  0  0  0  0  0  0  0  0  0  0  0
   63.0952   32.5870   47.9471 H   0  0  0  0  0  0  0  0  0  0  0  0
   61.8300   30.9880   47.2100 C   0  0  0  0  0  0  0  0  0  0  0  0
   62.5544   30.2002   47.4642 H   0  0  0  0  0  0  0  0  0  0  0  0
   60.6130   30.6470   46.6090 C   0  0  0  0  0  0  0  0  0  0  0  0
   60.3340   29.2600   46.3510 N   0  0  0  0  0  0  0  0  0  0  0  0
   59.1610   28.7280   46.1500 C   0  0  0  0  0  0  0  0  0  0  0  0
   58.1790   29.4270   45.4900 N   0  0  0  0  0  0  0  0  0  0  0  0
   56.9370   28.9150   45.2500 C   0  0  0  0  0  0  0  0  0  0  0  0
   55.8960   29.7490   44.5620 C   0  0  0  0  0  0  0  0  0  0  0  0
   54.9423   29.6569   45.1024 H   0  0  0  0  0  0  0  0  0  0  0  0
   55.7798   29.3933   43.5276 H   0  0  0  0  0  0  0  0  0  0  0  0
   56.2900   31.1090   44.5390 O   0  0  0  0  0  0  0  0  0  0  0  0
   57.2370   31.3250   43.5160 C   0  0  0  0  0  0  0  0  0  0  0  0
   58.2164   31.5484   43.9642 H   0  0  0  0  0  0  0  0  0  0  0  0
   57.3162   30.4219   42.8930 H   0  0  0  0  0  0  0  0  0  0  0  0
   56.9168   32.1732   42.8930 H   0  0  0  0  0  0  0  0  0  0  0  0
   56.6680   27.6290   45.7120 C   0  0  0  0  0  0  0  0  0  0  0  0
   55.5240   26.9340   45.6200 N   0  0  0  0  0  0  0  0  0  0  0  0
   55.8510   25.7710   46.2370 C   0  0  0  0  0  0  0  0  0  0  0  0
   55.0330   24.8240   46.3670 O   0  0  0  0  0  0  0  0  0  0  0  0
   57.1220   25.7040   46.7070 N   0  0  0  0  0  0  0  0  0  0  0  0
   57.6190   26.9010   46.3570 C   0  0  0  0  0  0  0  0  0  0  0  0
   58.9050   27.4030   46.5890 C   0  0  0  0  0  0  0  0  0  0  0  0
   59.9370   26.5980   47.3310 C   0  0  0  0  0  0  0  0  0  0  0  0
   59.7852   26.7164   48.4140 H   0  0  0  0  0  0  0  0  0  0  0  0
   59.8377   25.5363   47.0607 H   0  0  0  0  0  0  0  0  0  0  0  0
   60.9426   26.9527   47.0607 H   0  0  0  0  0  0  0  0  0  0  0  0
   59.6690   31.6570   46.3440 C   0  0  0  0  0  0  0  0  0  0  0  0
   58.6910   31.3922   45.9158 H   0  0  0  0  0  0  0  0  0  0  0  0
  1  2  1  0
  2  3  1  0
  3  4  2  0
  3  5  2  0
  3  6  1  0
  6  7  2  0
  7  8  1  0
  7  9  1  0
  9 10  1  0
  9 11  2  0
 11 12  1  0
 11 13  1  0
 13 14  1  0
 14 15  2  0
 15 16  1  0
 16 17  1  0
 17 18  1  0
 18 19  1  0
 18 20  1  0
 18 21  1  0
 21 22  1  0
 22 23  1  0
 22 24  1  0
 22 25  1  0
 17 26  2  0
 26 27  1  0
 27 28  1  0
 28 29  2  0
 28 30  1  0
 30 31  1  0
 31 32  2  0
 32 33  1  0
 33 34  1  0
 33 35  1  0
 33 36  1  0
 13 37  2  0
 37 38  1  0
 37  6  1  0
 32 15  1  0
 31 26  1  0
M  CHG  4   2  -1  16  -1  27  -1  30  -1
M  END
>  <UniqueID>  (24) 
23

>  <SMILES>  (24) 
COCc1[n-]/c(=N\c2cccc(S([NH-])(=O)=O)c2)c(C)c2[n-]c(=O)[n-]c12

>  <Energy>  (24) 
82.82785741501311

>  <Genealogy>  (24) 
COCc1[n-]c(=Nc2cccc(S([NH-])(=O)=O)c2)c(C)c2[n-]c(=O)[n-]c12 (protonated)
COCc1[n-]/c(=N\c2cccc(S([NH-])(=O)=O)c2)c(C)c2[n-]c(=O)[n-]c12 (cis-trans isomerization)
COCc1[n-]/c(=N\c2cccc(S([NH-])(=O)=O)c2)c(C)c2[n-]c(=O)[n-]c12 (3D coordinates assigned)
COCc1[n-]/c(=N\c2cccc(S([NH-])(=O)=O)c2)c(C)c2[n-]c(=O)[n-]c12 (optimized conformer: 82.82785741501311 kcal/mol)

>  <smiles>  (24) 
COCc1[nH]c(=Nc2cccc(S(N)(=O)=O)c2)c(C)c2[nH]c(=O)[nH]c12

>  <score_type>  (24) 
oracle

>  <origin>  (24) 
adg

>  <m_score__min__energy>  (24) 
-14.75

>  <m_primary>  (24) 
energy

$$$$
24:0
     RDKit          3D

 53 56  0  0  0  0  0  0  0  0999 V2000
   56.1670   30.7354   42.1857 H   0  0  0  0  0  0  0  0  0  0  0  0
   56.6210   30.6040   43.1790 C   0  0  0  0  0  0  0  0  0  0  0  0
   57.1610   31.6720   43.8240 N   0  0  0  0  0  0  0  0  0  0  0  0
   57.7590   31.5580   45.0390 C   0  0  0  0  0  0  0  0  0  0  0  0
   58.2140   32.6370   45.6180 N   0  0  0  0  0  0  0  0  0  0  0  0
   57.8680   33.1420   46.9520 C   0  0  0  0  0  0  0  0  0  0  0  0
   57.0474   32.5354   47.3628 H   0  0  0  0  0  0  0  0  0  0  0  0
   57.5643   34.1949   46.8560 H   0  0  0  0  0  0  0  0  0  0  0  0
   59.0500   33.0710   47.8910 C   0  0  0  0  0  0  0  0  0  0  0  0
   58.8600   32.7310   49.2360 C   0  0  0  0  0  0  0  0  0  0  0  0
   57.8435   32.5580   49.6192 H   0  0  0  0  0  0  0  0  0  0  0  0
   59.9540   32.6110   50.0910 C   0  0  0  0  0  0  0  0  0  0  0  0
   59.7965   32.3505   51.1480 H   0  0  0  0  0  0  0  0  0  0  0  0
   61.2500   32.8200   49.6120 C   0  0  0  0  0  0  0  0  0  0  0  0
   62.1053   32.7074   50.2945 H   0  0  0  0  0  0  0  0  0  0  0  0
   61.4770   33.1740   48.2630 C   0  0  0  0  0  0  0  0  0  0  0  0
   62.8290   33.3610   47.7520 N   0  0  0  0  0  0  0  0  0  0  0  0
   63.9990   33.0770   48.5970 C   0  0  0  0  0  0  0  0  0  0  0  0
   63.7117   33.1467   49.6565 H   0  0  0  0  0  0  0  0  0  0  0  0
   64.3683   32.0631   48.3832 H   0  0  0  0  0  0  0  0  0  0  0  0
   64.7920   33.8087   48.3832 H   0  0  0  0  0  0  0  0  0  0  0  0
   63.0540   33.8570   46.3860 C   0  0  0  0  0  0  0  0  0  0  0  0
   63.5081   34.8580   46.4295 H   0  0  0  0  0  0  0  0  0  0  0  0
   63.7290   33.1710   45.8534 H   0  0  0  0  0  0  0  0  0  0  0  0
   62.0932   33.9131   45.8534 H   0  0  0  0  0  0  0  0  0  0  0  0
   60.3510   33.3200   47.4210 C   0  0  0  0  0  0  0  0  0  0  0  0
   60.4959   33.6348   46.3770 H   0  0  0  0  0  0  0  0  0  0  0  0
   57.8430   30.2890   45.6410 C   0  0  0  0  0  0  0  0  0  0  0  0
   58.3782   30.1693   46.5945 H   0  0  0  0  0  0  0  0  0  0  0  0
   57.2470   29.1760   45.0300 C   0  0  0  0  0  0  0  0  0  0  0  0
   57.2110   27.8840   45.7580 C   0  0  0  0  0  0  0  0  0  0  0  0
   56.1360   27.0560   45.6530 N   0  0  0  0  0  0  0  0  0  0  0  0
   56.2970   25.9190   46.3540 C   0  0  0  0  0  0  0  0  0  0  0  0
   55.3930   24.9900   46.3720 N   0  0  0  0  0  0  0  0  0  0  0  0
   55.6390   23.5950   46.7160 C   0  0  0  0  0  0  0  0  0  0  0  0
   56.3088   23.5410   47.5869 H   0  0  0  0  0  0  0  0  0  0  0  0
   54.6900   23.0969   46.9638 H   0  0  0  0  0  0  0  0  0  0  0  0
   56.2820   22.9160   45.5410 C   0  0  0  0  0  0  0  0  0  0  0  0
   55.9970   23.3350   44.2350 C   0  0  0  0  0  0  0  0  0  0  0  0
   55.3387   24.1998   44.0652 H   0  0  0  0  0  0  0  0  0  0  0  0
   56.5500   22.6530   43.1490 C   0  0  0  0  0  0  0  0  0  0  0  0
   56.3407   22.9833   42.1208 H   0  0  0  0  0  0  0  0  0  0  0  0
   57.3710   21.5480   43.3810 C   0  0  0  0  0  0  0  0  0  0  0  0
   57.8119   21.0044   42.5324 H   0  0  0  0  0  0  0  0  0  0  0  0
   57.6270   21.1420   44.6530 N   0  0  0  0  0  0  0  0  0  0  0  0
   58.2360   20.3080   44.8100 H   0  0  0  0  0  0  0  0  0  0  0  0
   57.1000   21.7920   45.7270 C   0  0  0  0  0  0  0  0  0  0  0  0
   57.3166   21.4343   46.7444 H   0  0  0  0  0  0  0  0  0  0  0  0
   57.7820   25.8800   47.1470 S   0  0  0  0  0  0  0  0  0  0  0  0
   58.2440   27.3930   46.5630 C   0  0  0  0  0  0  0  0  0  0  0  0
   59.1935   27.9051   46.7780 H   0  0  0  0  0  0  0  0  0  0  0  0
   56.6410   29.3400   43.7740 C   0  0  0  0  0  0  0  0  0  0  0  0
   56.1853   28.4795   43.2622 H   0  0  0  0  0  0  0  0  0  0  0  0
  1  2  1  0
  2  3  1  0
  3  4  1  0
  4  5  2  0
  5  6  1  0
  6  7  1  0
  6  8  1  0
  6  9  1  0
  9 10  2  0
 10 11  1  0
 10 12  1  0
 12 13  1  0
 12 14  2  0
 14 15  1  0
 14 16  1  0
 16 17  1  0
 17 18  1  0
 18 19  1  0
 18 20  1  0
 18 21  1  0
 17 22  1  0
 22 23  1  0
 22 24  1  0
 22 25  1  0
 16 26  2  0
 26 27  1  0
  4 28  1  0
 28 29  1  0
 28 30  2  0
 30 31  1  0
 31 32  1  0
 32 33  1  0
 33 34  2  0
 34 35  1  0
 35 36  1  0
 35 37  1  0
 35 38  1  0
 38 39  2  0
 39 40  1  0
 39 41  1  0
 41 42  1  0
 41 43  2  0
 43 44  1  0
 43 45  1  0
 45 46  1  0
 45 47  2  0
 47 48  1  0
 33 49  1  0
 49 50  1  0
 50 51  1  0
 30 52  1  0
 52 53  1  0
 52  2  2  0
 26  9  1  0
 50 31  2  0
 47 38  1  0
M  CHG  3   3  -1  32  -1  45   1
M  END
>  <UniqueID>  (25) 
24

>  <SMILES>  (25) 
CN(C)c1cccc(C/N=c2\cc(-c3cs/c(=N\Cc4ccc[nH+]c4)[n-]3)cc[n-]2)c1

>  <Energy>  (25) 
89.04594012403805

>  <Genealogy>  (25) 
CN(C)c1cccc(CN=c2cc(-c3csc(=NCc4ccc[nH+]c4)[n-]3)cc[n-]2)c1 (protonated)
CN(C)c1cccc(C/N=c2\cc(-c3cs/c(=N\Cc4ccc[nH+]c4)[n-]3)cc[n-]2)c1 (cis-trans isomerization)
CN(C)c1cccc(C/N=c2\cc(-c3cs/c(=N\Cc4ccc[nH+]c4)[n-]3)cc[n-]2)c1 (3D coordinates assigned)
CN(C)c1cccc(C/N=c2\cc(-c3cs/c(=N\Cc4ccc[nH+]c4)[n-]3)cc[n-]2)c1 (optimized conformer: 89.04594012403805 kcal/mol)

>  <smiles>  (25) 
CN(C)c1cccc(CN=c2cc(-c3csc(=NCc4cccnc4)[nH]3)cc[nH]2)c1

>  <score_type>  (25) 
oracle

>  <origin>  (25) 
adg

>  <m_score__min__energy>  (25) 
-11.140000000000001

>  <m_primary>  (25) 
energy

$$$$
25:0
     RDKit          3D

 37 38  0  0  0  0  0  0  0  0999 V2000
   56.9850   30.9450   42.5320 C   0  0  0  0  0  0  0  0  0  0  0  0
   56.4380   29.6950   43.2120 C   0  0  0  0  0  0  0  0  0  0  0  0
   57.3500   29.2530   44.3120 C   0  0  0  0  0  0  0  0  0  0  0  0
   57.3270   28.0190   44.8620 N   0  0  0  0  0  0  0  0  0  0  0  0
   58.2050   27.8910   45.8940 C   0  0  0  0  0  0  0  0  0  0  0  0
   58.3220   26.6260   46.6920 C   0  0  0  0  0  0  0  0  0  0  0  0
   58.3720   25.3990   45.7820 C   0  0  0  0  0  0  0  0  0  0  0  0
   57.1810   25.3560   44.9360 N   0  0  0  0  0  0  0  0  0  0  0  0
   55.7480   25.3390   45.9200 S   0  0  0  0  0  0  0  0  0  0  0  0
   56.1170   24.8960   47.3080 O   0  0  0  0  0  0  0  0  0  0  0  0
   55.1480   26.7150   45.9900 O   0  0  0  0  0  0  0  0  0  0  0  0
   54.5500   24.2000   45.2430 C   0  0  0  0  0  0  0  0  0  0  0  0
   55.2450   23.0850   44.5120 C   0  0  0  0  0  0  0  0  0  0  0  0
   55.6190   23.2390   43.1690 C   0  0  0  0  0  0  0  0  0  0  0  0
   56.3000   22.2060   42.5220 C   0  0  0  0  0  0  0  0  0  0  0  0
   56.6030   21.0630   43.1930 N   0  0  0  0  0  0  0  0  0  0  0  0
   56.2600   20.8900   44.4980 C   0  0  0  0  0  0  0  0  0  0  0  0
   55.5800   21.8990   45.1830 C   0  0  0  0  0  0  0  0  0  0  0  0
   58.9270   29.0460   46.1920 C   0  0  0  0  0  0  0  0  0  0  0  0
   58.4430   30.2480   45.1160 S   0  0  0  0  0  0  0  0  0  0  0  0
   57.3020   31.6694   43.2967 H   0  0  0  0  0  0  0  0  0  0  0  0
   57.8466   30.6737   41.9043 H   0  0  0  0  0  0  0  0  0  0  0  0
   56.2010   31.3938   41.9043 H   0  0  0  0  0  0  0  0  0  0  0  0
   55.4458   29.9166   43.6320 H   0  0  0  0  0  0  0  0  0  0  0  0
   56.3641   28.8892   42.4669 H   0  0  0  0  0  0  0  0  0  0  0  0
   56.6930   27.2530   44.5400 H   0  0  0  0  0  0  0  0  0  0  0  0
   59.2429   26.6648   47.2924 H   0  0  0  0  0  0  0  0  0  0  0  0
   57.4380   26.5415   47.3411 H   0  0  0  0  0  0  0  0  0  0  0  0
   59.2684   25.4527   45.1468 H   0  0  0  0  0  0  0  0  0  0  0  0
   58.4081   24.4908   46.4016 H   0  0  0  0  0  0  0  0  0  0  0  0
   53.9481   23.7777   46.0612 H   0  0  0  0  0  0  0  0  0  0  0  0
   53.9013   24.7403   44.5379 H   0  0  0  0  0  0  0  0  0  0  0  0
   55.3776   24.1667   42.6295 H   0  0  0  0  0  0  0  0  0  0  0  0
   56.5919   22.3171   41.4673 H   0  0  0  0  0  0  0  0  0  0  0  0
   56.5187   19.9538   45.0144 H   0  0  0  0  0  0  0  0  0  0  0  0
   55.3090   21.7652   46.2407 H   0  0  0  0  0  0  0  0  0  0  0  0
   59.6787   29.1531   46.9879 H   0  0  0  0  0  0  0  0  0  0  0  0
  1  2  1  0
  2  3  1  0
  3  4  2  0
  4  5  1  0
  5  6  1  0
  6  7  1  0
  7  8  1  0
  8  9  1  0
  9 10  2  0
  9 11  2  0
  9 12  1  0
 12 13  1  0
 13 14  2  0
 14 15  1  0
 15 16  2  0
 16 17  1  0
 17 18  2  0
  5 19  2  0
 19 20  1  0
 20  3  1  0
 18 13  1  0
  1 21  1  0
  1 22  1  0
  1 23  1  0
  2 24  1  0
  2 25  1  0
  4 26  1  0
  6 27  1  0
  6 28  1  0
  7 29  1  0
  7 30  1  0
 12 31  1  0
 12 32  1  0
 14 33  1  0
 15 34  1  0
 17 35  1  0
 18 36  1  0
 19 37  1  0
M  CHG  2   4   1   8  -1
M  END
>  <UniqueID>  (26) 
25

>  <SMILES>  (26) 
CCc1[nH+]c(CC[N-]S(=O)(=O)Cc2ccncc2)cs1

>  <Energy>  (26) 
51.36581125789329

>  <Genealogy>  (26) 
CCc1[nH+]c(CC[N-]S(=O)(=O)Cc2ccncc2)cs1 (protonated)
CCc1[nH+]c(CC[N-]S(=O)(=O)Cc2ccncc2)cs1 (3D coordinates assigned)
CCc1[nH+]c(CC[N-]S(=O)(=O)Cc2ccncc2)cs1 (optimized conformer: 51.36581125789329 kcal/mol)

>  <smiles>  (26) 
CCc1nc(CCNS(=O)(=O)Cc2ccncc2)cs1

>  <score_type>  (26) 
oracle

>  <origin>  (26) 
adg

>  <m_score__min__energy>  (26) 
-6.75

>  <m_primary>  (26) 
energy

$$$$
26:0
     RDKit          3D

 55 58  0  0  0  0  0  0  0  0999 V2000
   56.1088   26.9960   45.6159 H   0  0  0  0  0  0  0  0  0  0  0  0
   56.7320   27.8610   45.3450 C   0  0  0  0  0  0  0  0  0  0  0  0
   56.1690   29.3550   44.8420 S   0  0  0  0  0  0  0  0  0  0  0  0
   57.7000   30.0110   44.6600 C   0  0  0  0  0  0  0  0  0  0  0  0
   57.8600   31.2390   44.2490 N   0  0  0  0  0  0  0  0  0  0  0  0
   58.2720   32.3910   44.9890 C   0  0  0  0  0  0  0  0  0  0  0  0
   58.5330   33.6050   44.3420 C   0  0  0  0  0  0  0  0  0  0  0  0
   58.3679   33.7001   43.2586 H   0  0  0  0  0  0  0  0  0  0  0  0
   59.0040   34.6950   45.0780 C   0  0  0  0  0  0  0  0  0  0  0  0
   59.1896   35.6602   44.5841 H   0  0  0  0  0  0  0  0  0  0  0  0
   59.2370   34.5470   46.4480 C   0  0  0  0  0  0  0  0  0  0  0  0
   59.6065   35.3997   47.0365 H   0  0  0  0  0  0  0  0  0  0  0  0
   59.0080   33.3500   47.0570 N   0  0  0  0  0  0  0  0  0  0  0  0
   59.1970   33.2510   48.0800 H   0  0  0  0  0  0  0  0  0  0  0  0
   58.5440   32.2770   46.3580 C   0  0  0  0  0  0  0  0  0  0  0  0
   58.3823   31.3173   46.8707 H   0  0  0  0  0  0  0  0  0  0  0  0
   58.6780   29.0980   44.9590 N   0  0  0  0  0  0  0  0  0  0  0  0
   60.1260   29.3320   44.8640 C   0  0  0  0  0  0  0  0  0  0  0  0
   60.5534   29.4011   45.8752 H   0  0  0  0  0  0  0  0  0  0  0  0
   60.5974   28.4984   44.3228 H   0  0  0  0  0  0  0  0  0  0  0  0
   60.3108   30.2717   44.3228 H   0  0  0  0  0  0  0  0  0  0  0  0
   58.1240   27.9000   45.3620 C   0  0  0  0  0  0  0  0  0  0  0  0
   58.9220   26.6780   45.7440 C   0  0  0  0  0  0  0  0  0  0  0  0
   58.6179   25.8353   45.1058 H   0  0  0  0  0  0  0  0  0  0  0  0
   59.9907   26.8988   45.6056 H   0  0  0  0  0  0  0  0  0  0  0  0
   58.6890   26.3130   47.1870 C   0  0  0  0  0  0  0  0  0  0  0  0
   57.7570   25.5180   47.4810 O   0  0  0  0  0  0  0  0  0  0  0  0
   59.5250   26.8140   48.2380 N   0  0  0  0  0  0  0  0  0  0  0  0
   59.7130   28.1890   48.5980 C   0  0  0  0  0  0  0  0  0  0  0  0
   58.7480   29.1680   48.2980 C   0  0  0  0  0  0  0  0  0  0  0  0
   57.8433   28.8918   47.7366 H   0  0  0  0  0  0  0  0  0  0  0  0
   58.9350   30.4910   48.7110 C   0  0  0  0  0  0  0  0  0  0  0  0
   58.1837   31.2545   48.4608 H   0  0  0  0  0  0  0  0  0  0  0  0
   60.0770   30.8480   49.4430 C   0  0  0  0  0  0  0  0  0  0  0  0
   60.3110   32.5040   49.9980 S   0  0  0  0  0  0  0  0  0  0  0  0
   58.9800   33.1770   50.2010 O   0  0  0  0  0  0  0  0  0  0  0  0
   61.0410   32.4680   51.3130 O   0  0  0  0  0  0  0  0  0  0  0  0
   61.2500   33.3930   48.8220 N   0  0  0  0  0  0  0  0  0  0  0  0
   62.3110   34.1920   49.4760 C   0  0  0  0  0  0  0  0  0  0  0  0
   62.3360   35.1913   49.0169 H   0  0  0  0  0  0  0  0  0  0  0  0
   62.0770   34.2509   50.5492 H   0  0  0  0  0  0  0  0  0  0  0  0
   63.7010   33.5430   49.3290 C   0  0  0  0  0  0  0  0  0  0  0  0
   64.4429   34.1944   49.8140 H   0  0  0  0  0  0  0  0  0  0  0  0
   63.6472   32.5506   49.8004 H   0  0  0  0  0  0  0  0  0  0  0  0
   64.0920   33.3440   47.9760 O   0  0  0  0  0  0  0  0  0  0  0  0
   63.0060   33.0680   47.1000 C   0  0  0  0  0  0  0  0  0  0  0  0
   62.7035   34.0087   46.6167 H   0  0  0  0  0  0  0  0  0  0  0  0
   63.3611   32.3171   46.3789 H   0  0  0  0  0  0  0  0  0  0  0  0
   61.7770   32.4670   47.8000 C   0  0  0  0  0  0  0  0  0  0  0  0
   60.9947   32.2731   47.0514 H   0  0  0  0  0  0  0  0  0  0  0  0
   62.0756   31.5304   48.2936 H   0  0  0  0  0  0  0  0  0  0  0  0
   61.0310   29.8700   49.7540 C   0  0  0  0  0  0  0  0  0  0  0  0
   61.9306   30.1441   50.3245 H   0  0  0  0  0  0  0  0  0  0  0  0
   60.8440   28.5470   49.3420 C   0  0  0  0  0  0  0  0  0  0  0  0
   61.5902   27.7824   49.6040 H   0  0  0  0  0  0  0  0  0  0  0  0
  1  2  1  0
  2  3  1  0
  3  4  1  0
  4  5  2  0
  5  6  1  0
  6  7  2  0
  7  8  1  0
  7  9  1  0
  9 10  1  0
  9 11  2  0
 11 12  1  0
 11 13  1  0
 13 14  1  0
 13 15  2  0
 15 16  1  0
  4 17  1  0
 17 18  1  0
 18 19  1  0
 18 20  1  0
 18 21  1  0
 17 22  1  0
 22 23  1  0
 23 24  1  0
 23 25  1  0
 23 26  1  0
 26 27  2  0
 26 28  1  0
 28 29  1  0
 29 30  2  0
 30 31  1  0
 30 32  1  0
 32 33  1  0
 32 34  2  0
 34 35  1  0
 35 36  2  0
 35 37  2  0
 35 38  1  0
 38 39  1  0
 39 40  1  0
 39 41  1  0
 39 42  1  0
 42 43  1  0
 42 44  1  0
 42 45  1  0
 45 46  1  0
 46 47  1  0
 46 48  1  0
 46 49  1  0
 49 50  1  0
 49 51  1  0
 34 52  1  0
 52 53  1  0
 52 54  2  0
 54 55  1  0
 22  2  2  0
 54 29  1  0
 15  6  1  0
 49 38  1  0
M  CHG  2  13   1  28  -1
M  END
>  <UniqueID>  (27) 
26

>  <SMILES>  (27) 
Cn1c(CC(=O)[N-]c2ccc(S(=O)(=O)N3CCOCC3)cc2)cs/c1=N/c1ccc[nH+]c1

>  <Energy>  (27) 
119.97134564154938

>  <Genealogy>  (27) 
Cn1c(CC(=O)[N-]c2ccc(S(=O)(=O)N3CCOCC3)cc2)csc1=Nc1ccc[nH+]c1 (protonated)
Cn1c(CC(=O)[N-]c2ccc(S(=O)(=O)N3CCOCC3)cc2)cs/c1=N/c1ccc[nH+]c1 (cis-trans isomerization)
Cn1c(CC(=O)[N-]c2ccc(S(=O)(=O)N3CCOCC3)cc2)cs/c1=N/c1ccc[nH+]c1 (3D coordinates assigned)
Cn1c(CC(=O)[N-]c2ccc(S(=O)(=O)N3CCOCC3)cc2)cs/c1=N/c1ccc[nH+]c1 (nonaromatic ring conformer: 119.97134564154938 kcal/mol)

>  <smiles>  (27) 
Cn1c(CC(=O)Nc2ccc(S(=O)(=O)N3CCOCC3)cc2)csc1=Nc1cccnc1

>  <score_type>  (27) 
oracle

>  <origin>  (27) 
adg

>  <m_score__min__energy>  (27) 
-10.56

>  <m_primary>  (27) 
energy

$$$$
27:0
     RDKit          3D

 30 31  0  0  0  0  0  0  0  0999 V2000
   56.0830   29.6090   43.4490 C   0  0  0  0  0  0  0  0  0  0  0  0
   56.8290   29.6930   44.5550 C   0  0  0  0  0  0  0  0  0  0  0  0
   57.0080   30.8660   45.1970 N   0  0  0  0  0  0  0  0  0  0  0  0
   57.7890   30.5830   46.2540 C   0  0  0  0  0  0  0  0  0  0  0  0
   58.2280   31.5510   47.1480 O   0  0  0  0  0  0  0  0  0  0  0  0
   58.1240   29.2450   46.3080 C   0  0  0  0  0  0  0  0  0  0  0  0
   59.1160   28.6840   47.2410 C   0  0  0  0  0  0  0  0  0  0  0  0
   58.7480   28.2210   48.3540 O   0  0  0  0  0  0  0  0  0  0  0  0
   60.4580   28.6080   46.8500 O   0  0  0  0  0  0  0  0  0  0  0  0
   60.8930   27.9650   45.6540 C   0  0  0  0  0  0  0  0  0  0  0  0
   60.8750   28.9350   44.4790 C   0  0  0  0  0  0  0  0  0  0  0  0
   57.4850   28.6460   45.2180 C   0  0  0  0  0  0  0  0  0  0  0  0
   57.4530   27.3410   44.8690 C   0  0  0  0  0  0  0  0  0  0  0  0
   57.2390   26.2200   45.8090 C   0  0  0  0  0  0  0  0  0  0  0  0
   55.9670   25.9330   46.3320 C   0  0  0  0  0  0  0  0  0  0  0  0
   54.8660   26.7160   46.0000 O   0  0  0  0  0  0  0  0  0  0  0  0
   55.7990   24.8710   47.1630 N   0  0  0  0  0  0  0  0  0  0  0  0
   56.8410   24.0640   47.4890 C   0  0  0  0  0  0  0  0  0  0  0  0
   56.6640   23.0920   48.2660 O   0  0  0  0  0  0  0  0  0  0  0  0
   58.0740   24.3030   46.9710 N   0  0  0  0  0  0  0  0  0  0  0  0
   58.2930   25.3510   46.1350 C   0  0  0  0  0  0  0  0  0  0  0  0
   59.4480   25.5380   45.6680 O   0  0  0  0  0  0  0  0  0  0  0  0
   55.9535   28.6398   42.9452 H   0  0  0  0  0  0  0  0  0  0  0  0
   55.5986   30.5091   43.0427 H   0  0  0  0  0  0  0  0  0  0  0  0
   61.9178   27.5920   45.7977 H   0  0  0  0  0  0  0  0  0  0  0  0
   60.2090   27.1322   45.4334 H   0  0  0  0  0  0  0  0  0  0  0  0
   60.8558   29.9680   44.8566 H   0  0  0  0  0  0  0  0  0  0  0  0
   61.7761   28.7853   43.8661 H   0  0  0  0  0  0  0  0  0  0  0  0
   59.9801   28.7520   43.8661 H   0  0  0  0  0  0  0  0  0  0  0  0
   57.5968   27.0943   43.8067 H   0  0  0  0  0  0  0  0  0  0  0  0
  1  2  2  0
  2  3  1  0
  3  4  1  0
  4  5  1  0
  4  6  2  0
  6  7  1  0
  7  8  2  0
  7  9  1  0
  9 10  1  0
 10 11  1  0
  6 12  1  0
 12 13  2  3
 13 14  1  0
 14 15  2  0
 15 16  1  0
 15 17  1  0
 17 18  1  0
 18 19  2  0
 18 20  1  0
 20 21  1  0
 21 22  2  0
 12  2  1  0
 21 14  1  0
  1 23  1  0
  1 24  1  0
 10 25  1  0
 10 26  1  0
 11 27  1  0
 11 28  1  0
 11 29  1  0
 13 30  1  0
M  CHG  5   3  -1   5  -1  16  -1  17  -1  20  -1
M  END
>  <UniqueID>  (28) 
27

>  <SMILES>  (28) 
C=c1[n-]c([O-])c(C(=O)OCC)c1=Cc1c([O-])[n-]c(=O)[n-]c1=O

>  <Energy>  (28) 
70.20898610687402

>  <Genealogy>  (28) 
C=c1[n-]c([O-])c(C(=O)OCC)c1=Cc1c([O-])[n-]c(=O)[n-]c1=O (protonated)
C=c1[n-]c([O-])c(C(=O)OCC)c1=Cc1c([O-])[n-]c(=O)[n-]c1=O (3D coordinates assigned)
C=c1[n-]c([O-])c(C(=O)OCC)c1=Cc1c([O-])[n-]c(=O)[n-]c1=O (optimized conformer: 70.20898610687402 kcal/mol)

>  <smiles>  (28) 
C=c1[nH]c(O)c(C(=O)OCC)c1=Cc1c(O)[nH]c(=O)[nH]c1=O

>  <score_type>  (28) 
oracle

>  <origin>  (28) 
adg

>  <m_score__min__energy>  (28) 
-15.630000000000001

>  <m_primary>  (28) 
energy

$$$$
28:0
     RDKit          3D

 68 72  0  0  1  0  0  0  0  0999 V2000
   55.4910   26.5840   46.1440 N   0  0  0  0  0  0  0  0  0  0  0  0
   56.6170   25.8620   46.6360 C   0  0  0  0  0  0  0  0  0  0  0  0
   56.4620   24.6940   47.0460 O   0  0  0  0  0  0  0  0  0  0  0  0
   57.9080   26.5520   46.6280 C   0  0  0  0  0  0  0  0  0  0  0  0
   58.2560   27.4650   45.6610 C   0  0  0  0  0  0  0  0  0  0  0  0
   59.4680   28.1170   45.6460 C   0  0  0  0  0  0  0  0  0  0  0  0
   60.4060   27.8600   46.6470 C   0  0  0  0  0  0  0  0  0  0  0  0
   60.0760   26.9410   47.6360 C   0  0  0  0  0  0  0  0  0  0  0  0
   61.0610   26.7100   48.6360 N   0  0  0  0  0  0  0  0  0  0  0  0
   60.8410   26.9220   49.8900 C   0  0  0  0  0  0  0  0  0  0  0  0
   60.8300   28.2240   50.3520 C   0  0  0  0  0  0  0  0  0  0  0  0
   60.5910   28.4190   51.6960 C   0  0  0  0  0  0  0  0  0  0  0  0
   60.5530   29.6720   52.2910 O   0  0  0  0  0  0  0  0  0  0  0  0
   59.6110   30.5760   51.8550 C   0  0  0  0  0  0  0  0  0  0  0  0
   58.8430   31.2310   52.7930 C   0  0  0  0  0  0  0  0  0  0  0  0
   57.9120   32.1260   52.3300 C   0  0  0  0  0  0  0  0  0  0  0  0
   57.7630   32.3520   50.9550 C   0  0  0  0  0  0  0  0  0  0  0  0
   58.5100   31.7170   50.0130 C   0  0  0  0  0  0  0  0  0  0  0  0
   58.4250   31.8860   48.6190 N   0  0  0  0  0  0  0  0  0  0  0  0
   59.0260   32.8900   47.8450 C   0  0  0  0  0  0  0  0  0  0  0  0
   59.7260   33.7630   48.3780 O   0  0  0  0  0  0  0  0  0  0  0  0
   58.7910   32.8720   46.3380 C   0  0  0  0  0  0  0  0  0  0  0  0
   58.8210   31.4450   45.9270 C   0  0  0  0  0  0  0  0  0  0  0  0
   57.9430   31.0380   44.8320 C   0  0  0  0  0  0  0  0  0  0  0  0
   58.1100   31.5920   43.5570 C   0  0  0  0  0  0  0  0  0  0  0  0
   57.2990   31.2140   42.4950 C   0  0  0  0  0  0  0  0  0  0  0  0
   56.2940   30.2830   42.6340 C   0  0  0  0  0  0  0  0  0  0  0  0
   56.1240   29.7320   43.8860 C   0  0  0  0  0  0  0  0  0  0  0  0
   56.9280   30.1060   44.9400 C   0  0  0  0  0  0  0  0  0  0  0  0
   57.4010   33.4260   46.1630 C   0  0  0  0  0  0  0  0  0  0  0  0
   57.2190   34.2950   44.9540 C   0  0  0  0  0  0  0  0  0  0  0  0
   58.2360   35.2290   44.9140 O   0  0  0  0  0  0  0  0  0  0  0  0
   59.3770   34.5160   44.5060 C   0  0  0  0  0  0  0  0  0  0  0  0
   59.8450   33.7200   45.6800 C   0  0  0  0  0  0  0  0  0  0  0  0
   59.4590   30.8040   50.5030 C   0  0  0  0  0  0  0  0  0  0  0  0
   60.3780   27.3640   52.5260 N   0  0  0  0  0  0  0  0  0  0  0  0
   60.4040   26.1260   52.0000 C   0  0  0  0  0  0  0  0  0  0  0  0
   60.6290   25.8720   50.7020 N   0  0  0  0  0  0  0  0  0  0  0  0
   58.8530   26.3050   47.6210 C   0  0  0  0  0  0  0  0  0  0  0  0
   54.9630   26.2990   45.2920 H   0  0  0  0  0  0  0  0  0  0  0  0
   55.1960   27.4380   46.6740 H   0  0  0  0  0  0  0  0  0  0  0  0
   57.5323   27.6846   44.8622 H   0  0  0  0  0  0  0  0  0  0  0  0
   59.6966   28.8383   44.8476 H   0  0  0  0  0  0  0  0  0  0  0  0
   61.3801   28.3710   46.6530 H   0  0  0  0  0  0  0  0  0  0  0  0
   61.0051   29.0723   49.6739 H   0  0  0  0  0  0  0  0  0  0  0  0
   58.9712   31.0439   53.8694 H   0  0  0  0  0  0  0  0  0  0  0  0
   57.2771   32.6709   53.0441 H   0  0  0  0  0  0  0  0  0  0  0  0
   57.0060   33.0774   50.6221 H   0  0  0  0  0  0  0  0  0  0  0  0
   57.8420   31.1750   48.0800 H   0  0  0  0  0  0  0  0  0  0  0  0
   59.8528   31.2108   45.6260 H   0  0  0  0  0  0  0  0  0  0  0  0
   58.4488   30.8939   46.8032 H   0  0  0  0  0  0  0  0  0  0  0  0
   58.8988   32.3411   43.3934 H   0  0  0  0  0  0  0  0  0  0  0  0
   57.4650   31.6738   41.5096 H   0  0  0  0  0  0  0  0  0  0  0  0
   55.6567   29.9926   41.7857 H   0  0  0  0  0  0  0  0  0  0  0  0
   55.3347   28.9827   44.0457 H   0  0  0  0  0  0  0  0  0  0  0  0
   56.7530   29.6380   45.9200 H   0  0  0  0  0  0  0  0  0  0  0  0
   56.7025   32.5799   46.0848 H   0  0  0  0  0  0  0  0  0  0  0  0
   57.2100   34.0663   47.0368 H   0  0  0  0  0  0  0  0  0  0  0  0
   57.2518   33.6750   44.0459 H   0  0  0  0  0  0  0  0  0  0  0  0
   56.2466   34.8065   45.0071 H   0  0  0  0  0  0  0  0  0  0  0  0
   59.1234   33.8444   43.6725 H   0  0  0  0  0  0  0  0  0  0  0  0
   60.1640   35.2032   44.1620 H   0  0  0  0  0  0  0  0  0  0  0  0
   60.6536   33.0559   45.3407 H   0  0  0  0  0  0  0  0  0  0  0  0
   60.1662   34.4508   46.4368 H   0  0  0  0  0  0  0  0  0  0  0  0
   60.0960   30.2580   49.7915 H   0  0  0  0  0  0  0  0  0  0  0  0
   60.1940   27.4900   53.5490 H   0  0  0  0  0  0  0  0  0  0  0  0
   60.2308   25.2731   52.6728 H   0  0  0  0  0  0  0  0  0  0  0  0
   58.6168   25.5820   48.4157 H   0  0  0  0  0  0  0  0  0  0  0  0
  1  2  1  0
  2  3  2  0
  2  4  1  0
  4  5  2  0
  5  6  1  0
  6  7  2  0
  7  8  1  0
  8  9  1  0
  9 10  2  0
 10 11  1  0
 11 12  2  0
 12 13  1  0
 13 14  1  0
 14 15  2  0
 15 16  1  0
 16 17  2  0
 17 18  1  0
 18 19  1  0
 19 20  1  0
 20 21  2  0
 20 22  1  0
 22 23  1  0
 23 24  1  0
 24 25  2  0
 25 26  1  0
 26 27  2  0
 27 28  1  0
 28 29  2  0
 22 30  1  0
 30 31  1  0
 31 32  1  0
 32 33  1  0
 33 34  1  0
 18 35  2  0
 12 36  1  0
 36 37  1  0
 37 38  2  0
  8 39  2  0
 39  4  1  0
 38 10  1  0
 35 14  1  0
 34 22  1  0
 29 24  1  0
  1 40  1  0
  1 41  1  0
  5 42  1  0
  6 43  1  0
  7 44  1  0
 11 45  1  0
 15 46  1  0
 16 47  1  0
 17 48  1  0
 19 49  1  0
 23 50  1  0
 23 51  1  0
 25 52  1  0
 26 53  1  0
 27 54  1  0
 28 55  1  0
 29 56  1  0
 30 57  1  0
 30 58  1  0
 31 59  1  0
 31 60  1  0
 33 61  1  0
 33 62  1  0
 34 63  1  0
 34 64  1  0
 35 65  1  0
 36 66  1  0
 37 67  1  0
 39 68  1  0
M  END
>  <smiles>  (29) 
NC(=O)c1cccc(N=c2cc(Oc3cccc(NC(=O)C4(Cc5ccccc5)CCOCC4)c3)[nH]cn2)c1

>  <score_type>  (29) 
oracle

>  <origin>  (29) 
adg

>  <m_score__min__energy>  (29) 
-10.17

>  <m_primary>  (29) 
energy

$$$$
29:0
     RDKit          3D

 45 48  0  0  1  0  0  0  0  0999 V2000
   54.7430   26.2510   45.9200 N   0  0  0  0  0  0  0  0  0  0  0  0
   56.1320   25.2460   46.1910 S   0  0  0  0  0  0  0  0  0  0  0  0
   56.1210   24.2010   45.1190 O   0  0  0  0  0  0  0  0  0  0  0  0
   56.0420   24.6460   47.5550 O   0  0  0  0  0  0  0  0  0  0  0  0
   57.5840   26.2230   46.0960 C   0  0  0  0  0  0  0  0  0  0  0  0
   58.7910   25.6800   46.4440 C   0  0  0  0  0  0  0  0  0  0  0  0
   59.8990   26.4980   46.3500 C   0  0  0  0  0  0  0  0  0  0  0  0
   59.8240   27.8010   45.9280 C   0  0  0  0  0  0  0  0  0  0  0  0
   58.6290   28.3620   45.5780 C   0  0  0  0  0  0  0  0  0  0  0  0
   58.3930   29.6500   44.9690 C   0  0  0  0  0  0  0  0  0  0  0  0
   57.3460   29.5740   43.9800 C   0  0  0  0  0  0  0  0  0  0  0  0
   56.9400   30.7840   43.6460 N   0  0  0  0  0  0  0  0  0  0  0  0
   57.6350   31.6500   44.3250 C   0  0  0  0  0  0  0  0  0  0  0  0
   57.5210   32.9970   44.4050 N   0  0  0  0  0  0  0  0  0  0  0  0
   58.2770   33.7160   45.2540 C   0  0  0  0  0  0  0  0  0  0  0  0
   58.1040   34.9480   45.2740 O   0  0  0  0  0  0  0  0  0  0  0  0
   59.1800   33.0900   46.0400 N   0  0  0  0  0  0  0  0  0  0  0  0
   59.2890   31.7390   45.9430 C   0  0  0  0  0  0  0  0  0  0  0  0
   60.3310   31.2780   46.4460 N   0  0  0  0  0  0  0  0  0  0  0  0
   61.5270   31.9580   47.3240 S   0  0  0  0  0  0  0  0  0  0  0  0
   61.8090   33.4370   47.0180 O   0  0  0  0  0  0  0  0  0  0  0  0
   62.5760   31.2060   48.0030 O   0  0  0  0  0  0  0  0  0  0  0  0
   60.5360   32.4170   48.8210 C   0  0  0  0  0  0  0  0  0  0  0  0
   60.4140   33.7040   49.2090 C   0  0  0  0  0  0  0  0  0  0  0  0
   59.6670   33.9980   50.3570 C   0  0  0  0  0  0  0  0  0  0  0  0
   59.1110   32.9160   50.9980 C   0  0  0  0  0  0  0  0  0  0  0  0
   58.1700   33.2450   52.4430 Cl  0  0  0  0  0  0  0  0  0  0  0  0
   59.2340   31.6180   50.6050 C   0  0  0  0  0  0  0  0  0  0  0  0
   59.9810   31.3650   49.4660 C   0  0  0  0  0  0  0  0  0  0  0  0
   60.1490   29.6950   48.9460 Cl  0  0  0  0  0  0  0  0  0  0  0  0
   58.5530   30.9520   45.1420 C   0  0  0  0  0  0  0  0  0  0  0  0
   57.5060   27.5260   45.6760 C   0  0  0  0  0  0  0  0  0  0  0  0
   54.4080   26.6830   46.8190 H   0  0  0  0  0  0  0  0  0  0  0  0
   54.8870   26.9400   45.1580 H   0  0  0  0  0  0  0  0  0  0  0  0
   58.8746   24.6372   46.7838 H   0  0  0  0  0  0  0  0  0  0  0  0
   60.8821   26.0882   46.6247 H   0  0  0  0  0  0  0  0  0  0  0  0
   60.7420   28.4044   45.8705 H   0  0  0  0  0  0  0  0  0  0  0  0
   56.9429   28.6393   43.5631 H   0  0  0  0  0  0  0  0  0  0  0  0
   56.1930   31.0080   42.9540 H   0  0  0  0  0  0  0  0  0  0  0  0
   56.8200   33.5010   43.7850 H   0  0  0  0  0  0  0  0  0  0  0  0
   59.7430   33.6420   46.6770 H   0  0  0  0  0  0  0  0  0  0  0  0
   60.8935   34.5091   48.6330 H   0  0  0  0  0  0  0  0  0  0  0  0
   59.5339   35.0272   50.7218 H   0  0  0  0  0  0  0  0  0  0  0  0
   58.7589   30.8023   51.1698 H   0  0  0  0  0  0  0  0  0  0  0  0
   56.5210   27.9335   45.4042 H   0  0  0  0  0  0  0  0  0  0  0  0
  1  2  1  0
  2  3  2  0
  2  4  2  0
  2  5  1  0
  5  6  2  0
  6  7  1  0
  7  8  2  0
  8  9  1  0
  9 10  1  0
 10 11  2  0
 11 12  1  0
 12 13  1  0
 13 14  1  0
 14 15  1  0
 15 16  2  0
 15 17  1  0
 17 18  1  0
 18 19  2  0
 19 20  1  0
 20 21  2  0
 20 22  2  0
 20 23  1  0
 23 24  2  0
 24 25  1  0
 25 26  2  0
 26 27  1  0
 26 28  1  0
 28 29  2  0
 29 30  1  0
 18 31  1  0
  9 32  2  0
 32  5  1  0
 31 10  1  0
 31 13  2  0
 29 23  1  0
  1 33  1  0
  1 34  1  0
  6 35  1  0
  7 36  1  0
  8 37  1  0
 11 38  1  0
 12 39  1  0
 14 40  1  0
 17 41  1  0
 24 42  1  0
 25 43  1  0
 28 44  1  0
 32 45  1  0
M  END
>  <smiles>  (30) 
NS(=O)(=O)c1cccc(-c2c[nH]c3[nH]c(=O)[nH]c(=NS(=O)(=O)c4ccc(Cl)cc4Cl)c23)c1

>  <score_type>  (30) 
oracle

>  <origin>  (30) 
adg

>  <m_score__min__energy>  (30) 
-10.26

>  <m_primary>  (30) 
energy

$$$$
30:0
     RDKit          3D

 53 56  0  0  0  0  0  0  0  0999 V2000
   63.6280   32.3820   49.3790 C   0  0  0  0  0  0  0  0  0  0  0  0
   62.5880   31.7970   48.5390 N   0  0  0  0  0  0  0  0  0  0  0  0
   62.0960   30.5860   48.7490 N   0  0  0  0  0  0  0  0  0  0  0  0
   61.1370   30.3660   47.8280 C   0  0  0  0  0  0  0  0  0  0  0  0
   60.3990   29.0920   47.7170 C   0  0  0  0  0  0  0  0  0  0  0  0
   60.8780   28.0700   48.2780 O   0  0  0  0  0  0  0  0  0  0  0  0
   59.1300   28.9690   46.9620 C   0  0  0  0  0  0  0  0  0  0  0  0
   58.6230   30.0460   46.2190 C   0  0  0  0  0  0  0  0  0  0  0  0
   57.4160   29.9220   45.5320 C   0  0  0  0  0  0  0  0  0  0  0  0
   56.6880   28.7290   45.5850 C   0  0  0  0  0  0  0  0  0  0  0  0
   55.4980   28.6450   44.8700 O   0  0  0  0  0  0  0  0  0  0  0  0
   57.1670   27.6390   46.3470 C   0  0  0  0  0  0  0  0  0  0  0  0
   56.4200   26.3570   46.4390 C   0  0  0  0  0  0  0  0  0  0  0  0
   55.1850   26.3310   46.1760 O   0  0  0  0  0  0  0  0  0  0  0  0
   57.0860   25.1440   46.8080 N   0  0  0  0  0  0  0  0  0  0  0  0
   58.1890   24.5600   46.0530 C   0  0  0  0  0  0  0  0  0  0  0  0
   57.6650   23.6430   44.9800 C   0  0  0  0  0  0  0  0  0  0  0  0
   58.1830   22.3430   44.8520 C   0  0  0  0  0  0  0  0  0  0  0  0
   57.7130   21.4930   43.8460 C   0  0  0  0  0  0  0  0  0  0  0  0
   56.7260   21.9360   42.9590 C   0  0  0  0  0  0  0  0  0  0  0  0
   56.2080   23.2290   43.0790 C   0  0  0  0  0  0  0  0  0  0  0  0
   56.6750   24.0820   44.0840 C   0  0  0  0  0  0  0  0  0  0  0  0
   58.3900   27.7760   47.0310 C   0  0  0  0  0  0  0  0  0  0  0  0
   61.0260   31.4680   46.9950 C   0  0  0  0  0  0  0  0  0  0  0  0
   61.9750   32.3510   47.4690 C   0  0  0  0  0  0  0  0  0  0  0  0
   62.2550   33.6790   46.8870 C   0  0  0  0  0  0  0  0  0  0  0  0
   63.4520   34.0570   46.7770 O   0  0  0  0  0  0  0  0  0  0  0  0
   61.2120   34.5470   46.4280 N   0  0  0  0  0  0  0  0  0  0  0  0
   59.8420   34.1800   46.2140 C   0  0  0  0  0  0  0  0  0  0  0  0
   59.0510   33.8430   47.3210 C   0  0  0  0  0  0  0  0  0  0  0  0
   57.7140   33.4730   47.1480 C   0  0  0  0  0  0  0  0  0  0  0  0
   57.1620   33.4220   45.8650 C   0  0  0  0  0  0  0  0  0  0  0  0
   57.9490   33.7330   44.7530 C   0  0  0  0  0  0  0  0  0  0  0  0
   59.2870   34.1040   44.9230 C   0  0  0  0  0  0  0  0  0  0  0  0
   63.3690   32.2363   50.4381 H   0  0  0  0  0  0  0  0  0  0  0  0
   64.5898   31.8925   49.1661 H   0  0  0  0  0  0  0  0  0  0  0  0
   63.7092   33.4581   49.1661 H   0  0  0  0  0  0  0  0  0  0  0  0
   59.1808   30.9932   46.1783 H   0  0  0  0  0  0  0  0  0  0  0  0
   57.0334   30.7691   44.9438 H   0  0  0  0  0  0  0  0  0  0  0  0
   58.7752   25.3655   45.5866 H   0  0  0  0  0  0  0  0  0  0  0  0
   58.8226   23.9794   46.7396 H   0  0  0  0  0  0  0  0  0  0  0  0
   58.9613   21.9926   45.5459 H   0  0  0  0  0  0  0  0  0  0  0  0
   58.1197   20.4753   43.7520 H   0  0  0  0  0  0  0  0  0  0  0  0
   56.3576   21.2671   42.1673 H   0  0  0  0  0  0  0  0  0  0  0  0
   55.4315   23.5761   42.3815 H   0  0  0  0  0  0  0  0  0  0  0  0
   56.2664   25.0994   44.1735 H   0  0  0  0  0  0  0  0  0  0  0  0
   58.7726   26.9358   47.6291 H   0  0  0  0  0  0  0  0  0  0  0  0
   60.3378   31.6073   46.1483 H   0  0  0  0  0  0  0  0  0  0  0  0
   59.4847   33.8698   48.3315 H   0  0  0  0  0  0  0  0  0  0  0  0
   57.0958   33.2218   48.0225 H   0  0  0  0  0  0  0  0  0  0  0  0
   56.1081   33.1371   45.7306 H   0  0  0  0  0  0  0  0  0  0  0  0
   57.5159   33.6860   43.7429 H   0  0  0  0  0  0  0  0  0  0  0  0
   59.9072   34.3370   44.0449 H   0  0  0  0  0  0  0  0  0  0  0  0
  1  2  1  0
  2  3  1  0
  3  4  2  0
  4  5  1  0
  5  6  2  0
  5  7  1  0
  7  8  2  0
  8  9  1  0
  9 10  2  0
 10 11  1  0
 10 12  1  0
 12 13  1  0
 13 14  2  0
 13 15  1  0
 15 16  1  0
 16 17  1  0
 17 18  2  0
 18 19  1  0
 19 20  2  0
 20 21  1  0
 21 22  2  0
 12 23  2  0
  4 24  1  0
 24 25  2  0
 25 26  1  0
 26 27  2  0
 26 28  1  0
 28 29  1  0
 29 30  2  0
 30 31  1  0
 31 32  2  0
 32 33  1  0
 33 34  2  0
 25  2  1  0
 34 29  1  0
 23  7  1  0
 22 17  1  0
  1 35  1  0
  1 36  1  0
  1 37  1  0
  8 38  1  0
  9 39  1  0
 16 40  1  0
 16 41  1  0
 18 42  1  0
 19 43  1  0
 20 44  1  0
 21 45  1  0
 22 46  1  0
 23 47  1  0
 24 48  1  0
 30 49  1  0
 31 50  1  0
 32 51  1  0
 33 52  1  0
 34 53  1  0
M  CHG  3  11  -1  15  -1  28  -1
M  END
>  <UniqueID>  (31) 
28

>  <SMILES>  (31) 
Cn1nc(C(=O)c2ccc([O-])c(C(=O)[N-]Cc3ccccc3)c2)cc1C(=O)[N-]c1ccccc1

>  <Energy>  (31) 
99.08929505930237

>  <Genealogy>  (31) 
Cn1nc(C(=O)c2ccc([O-])c(C(=O)[N-]Cc3ccccc3)c2)cc1C(=O)[N-]c1ccccc1 (protonated)
Cn1nc(C(=O)c2ccc([O-])c(C(=O)[N-]Cc3ccccc3)c2)cc1C(=O)[N-]c1ccccc1 (3D coordinates assigned)
Cn1nc(C(=O)c2ccc([O-])c(C(=O)[N-]Cc3ccccc3)c2)cc1C(=O)[N-]c1ccccc1 (optimized conformer: 99.08929505930237 kcal/mol)

>  <smiles>  (31) 
Cn1nc(C(=O)c2ccc(O)c(C(=O)NCc3ccccc3)c2)cc1C(=O)Nc1ccccc1

>  <score_type>  (31) 
oracle

>  <origin>  (31) 
adg

>  <m_score__min__energy>  (31) 
-15.27

>  <m_primary>  (31) 
energy

$$$$
31:0
     RDKit          3D

 53 55  0  0  0  0  0  0  0  0999 V2000
   55.1320   26.5430   46.0080 O   0  0  0  0  0  0  0  0  0  0  0  0
   56.3730   26.3730   45.8900 C   0  0  0  0  0  0  0  0  0  0  0  0
   56.9030   24.9730   45.7170 C   0  0  0  0  0  0  0  0  0  0  0  0
   56.0160   24.1450   44.7770 C   0  0  0  0  0  0  0  0  0  0  0  0
   54.8720   23.5630   45.4990 N   0  0  0  0  0  0  0  0  0  0  0  0
   55.0310   23.1670   46.7990 C   0  0  0  0  0  0  0  0  0  0  0  0
   53.9780   22.5750   47.4920 C   0  0  0  0  0  0  0  0  0  0  0  0
   52.7660   22.3950   46.8330 C   0  0  0  0  0  0  0  0  0  0  0  0
   51.7920   21.8640   47.4280 O   0  0  0  0  0  0  0  0  0  0  0  0
   52.6330   22.7960   45.5440 N   0  0  0  0  0  0  0  0  0  0  0  0
   53.6650   23.3720   44.8740 C   0  0  0  0  0  0  0  0  0  0  0  0
   53.4980   23.7190   43.6730 O   0  0  0  0  0  0  0  0  0  0  0  0
   57.2330   27.5160   45.9640 N   0  0  0  0  0  0  0  0  0  0  0  0
   57.5970   28.3680   44.8390 C   0  0  0  0  0  0  0  0  0  0  0  0
   57.0370   29.7440   45.0510 C   0  0  0  0  0  0  0  0  0  0  0  0
   55.8360   29.9540   44.7290 O   0  0  0  0  0  0  0  0  0  0  0  0
   57.8590   30.8640   45.5900 C   0  0  0  0  0  0  0  0  0  0  0  0
   58.1350   31.9840   44.7840 C   0  0  0  0  0  0  0  0  0  0  0  0
   58.9040   33.0440   45.2730 C   0  0  0  0  0  0  0  0  0  0  0  0
   59.4110   33.0040   46.5760 C   0  0  0  0  0  0  0  0  0  0  0  0
   60.3780   34.3340   47.2080 S   0  0  0  0  0  0  0  0  0  0  0  0
   59.7910   35.6310   46.7310 O   0  0  0  0  0  0  0  0  0  0  0  0
   60.3730   34.3160   48.7120 O   0  0  0  0  0  0  0  0  0  0  0  0
   62.0120   34.1960   46.6320 N   0  0  0  0  0  0  0  0  0  0  0  0
   62.4700   32.8100   46.7620 C   0  0  0  0  0  0  0  0  0  0  0  0
   63.0700   32.6060   48.1260 C   0  0  0  0  0  0  0  0  0  0  0  0
   64.2190   33.3180   48.5100 C   0  0  0  0  0  0  0  0  0  0  0  0
   64.7960   33.0970   49.7650 C   0  0  0  0  0  0  0  0  0  0  0  0
   64.2380   32.1580   50.6360 C   0  0  0  0  0  0  0  0  0  0  0  0
   63.1050   31.4340   50.2540 C   0  0  0  0  0  0  0  0  0  0  0  0
   62.5240   31.6520   49.0010 C   0  0  0  0  0  0  0  0  0  0  0  0
   59.1510   31.8920   47.3840 C   0  0  0  0  0  0  0  0  0  0  0  0
   58.3830   30.8300   46.8990 C   0  0  0  0  0  0  0  0  0  0  0  0
   57.9180   25.0250   45.2962 H   0  0  0  0  0  0  0  0  0  0  0  0
   56.9107   24.4839   46.7023 H   0  0  0  0  0  0  0  0  0  0  0  0
   55.6399   24.7952   43.9734 H   0  0  0  0  0  0  0  0  0  0  0  0
   56.6195   23.3245   44.3617 H   0  0  0  0  0  0  0  0  0  0  0  0
   55.9983   23.3174   47.3008 H   0  0  0  0  0  0  0  0  0  0  0  0
   54.1019   22.2567   48.5376 H   0  0  0  0  0  0  0  0  0  0  0  0
   58.6928   28.4260   44.7626 H   0  0  0  0  0  0  0  0  0  0  0  0
   57.1863   27.9443   43.9106 H   0  0  0  0  0  0  0  0  0  0  0  0
   57.7412   32.0258   43.7577 H   0  0  0  0  0  0  0  0  0  0  0  0
   59.1112   33.9127   44.6308 H   0  0  0  0  0  0  0  0  0  0  0  0
   62.6050   34.7950   47.2530 H   0  0  0  0  0  0  0  0  0  0  0  0
   61.6168   32.1281   46.6310 H   0  0  0  0  0  0  0  0  0  0  0  0
   63.2281   32.6007   45.9930 H   0  0  0  0  0  0  0  0  0  0  0  0
   64.6658   34.0509   47.8221 H   0  0  0  0  0  0  0  0  0  0  0  0
   65.6898   33.6630   50.0663 H   0  0  0  0  0  0  0  0  0  0  0  0
   64.6910   31.9882   51.6239 H   0  0  0  0  0  0  0  0  0  0  0  0
   62.6700   30.6920   50.9398 H   0  0  0  0  0  0  0  0  0  0  0  0
   61.6372   31.0751   48.6996 H   0  0  0  0  0  0  0  0  0  0  0  0
   59.5534   31.8533   48.4070 H   0  0  0  0  0  0  0  0  0  0  0  0
   58.1856   29.9606   47.5433 H   0  0  0  0  0  0  0  0  0  0  0  0
  1  2  2  0
  2  3  1  0
  3  4  1  0
  4  5  1  0
  5  6  1  0
  6  7  2  0
  7  8  1  0
  8  9  2  0
  8 10  1  0
 10 11  1  0
 11 12  2  0
  2 13  1  0
 13 14  1  0
 14 15  1  0
 15 16  2  0
 15 17  1  0
 17 18  2  0
 18 19  1  0
 19 20  2  0
 20 21  1  0
 21 22  2  0
 21 23  2  0
 21 24  1  0
 24 25  1  0
 25 26  1  0
 26 27  2  0
 27 28  1  0
 28 29  2  0
 29 30  1  0
 30 31  2  0
 20 32  1  0
 32 33  2  0
 11  5  1  0
 33 17  1  0
 31 26  1  0
  3 34  1  0
  3 35  1  0
  4 36  1  0
  4 37  1  0
  6 38  1  0
  7 39  1  0
 14 40  1  0
 14 41  1  0
 18 42  1  0
 19 43  1  0
 24 44  1  0
 25 45  1  0
 25 46  1  0
 27 47  1  0
 28 48  1  0
 29 49  1  0
 30 50  1  0
 31 51  1  0
 32 52  1  0
 33 53  1  0
M  CHG  2  10  -1  13  -1
M  END
>  <UniqueID>  (32) 
29

>  <SMILES>  (32) 
O=C(CCn1ccc(=O)[n-]c1=O)[N-]CC(=O)c1ccc(S(=O)(=O)NCc2ccccc2)cc1

>  <Energy>  (32) 
49.87609289341962

>  <Genealogy>  (32) 
O=C(CCn1ccc(=O)[n-]c1=O)[N-]CC(=O)c1ccc(S(=O)(=O)NCc2ccccc2)cc1 (protonated)
O=C(CCn1ccc(=O)[n-]c1=O)[N-]CC(=O)c1ccc(S(=O)(=O)NCc2ccccc2)cc1 (3D coordinates assigned)
O=C(CCn1ccc(=O)[n-]c1=O)[N-]CC(=O)c1ccc(S(=O)(=O)NCc2ccccc2)cc1 (optimized conformer: 49.87609289341962 kcal/mol)

>  <smiles>  (32) 
O=C(CCn1ccc(=O)[nH]c1=O)NCC(=O)c1ccc(S(=O)(=O)NCc2ccccc2)cc1

>  <score_type>  (32) 
oracle

>  <origin>  (32) 
adg

>  <m_score__min__energy>  (32) 
-13.33

>  <m_primary>  (32) 
energy

$$$$
32:0
     RDKit          3D

 55 57  0  0  0  0  0  0  0  0999 V2000
   68.6630   34.2030   50.4080 C   0  0  0  0  0  0  0  0  0  0  0  0
   67.5230   33.6450   50.8240 C   0  0  0  0  0  0  0  0  0  0  0  0
   66.9980   32.3790   50.2080 C   0  0  0  0  0  0  0  0  0  0  0  0
   65.6160   32.5540   49.7690 N   0  0  0  0  0  0  0  0  0  0  0  0
   64.4960   32.1550   50.5660 C   0  0  0  0  0  0  0  0  0  0  0  0
   64.6850   31.6280   51.6970 O   0  0  0  0  0  0  0  0  0  0  0  0
   63.1690   32.3610   50.0560 N   0  0  0  0  0  0  0  0  0  0  0  0
   62.8420   32.8120   48.8790 C   0  0  0  0  0  0  0  0  0  0  0  0
   61.6210   32.4250   48.3130 C   0  0  0  0  0  0  0  0  0  0  0  0
   61.2520   32.9110   47.0510 C   0  0  0  0  0  0  0  0  0  0  0  0
   59.9660   32.5020   46.4420 C   0  0  0  0  0  0  0  0  0  0  0  0
   59.6540   31.1400   46.3420 C   0  0  0  0  0  0  0  0  0  0  0  0
   58.4880   30.7450   45.7700 N   0  0  0  0  0  0  0  0  0  0  0  0
   57.5970   31.6500   45.2950 C   0  0  0  0  0  0  0  0  0  0  0  0
   56.4940   31.2320   44.7470 N   0  0  0  0  0  0  0  0  0  0  0  0
   56.4030   30.1590   43.7580 C   0  0  0  0  0  0  0  0  0  0  0  0
   56.9550   28.8500   44.3290 C   0  0  0  0  0  0  0  0  0  0  0  0
   56.0020   28.2560   45.2610 N   0  0  0  0  0  0  0  0  0  0  0  0
   56.1040   26.9190   45.7560 C   0  0  0  0  0  0  0  0  0  0  0  0
   55.0620   26.2560   46.0120 O   0  0  0  0  0  0  0  0  0  0  0  0
   57.3730   26.3430   45.8880 O   0  0  0  0  0  0  0  0  0  0  0  0
   58.4170   26.8510   46.6750 C   0  0  0  0  0  0  0  0  0  0  0  0
   58.1650   27.9740   47.4740 C   0  0  0  0  0  0  0  0  0  0  0  0
   59.1720   28.5080   48.2830 C   0  0  0  0  0  0  0  0  0  0  0  0
   60.4370   27.9160   48.3090 C   0  0  0  0  0  0  0  0  0  0  0  0
   60.6940   26.7840   47.5320 C   0  0  0  0  0  0  0  0  0  0  0  0
   59.6890   26.2480   46.7200 C   0  0  0  0  0  0  0  0  0  0  0  0
   57.8700   32.9790   45.3930 N   0  0  0  0  0  0  0  0  0  0  0  0
   59.0190   33.4330   45.9620 C   0  0  0  0  0  0  0  0  0  0  0  0
   59.2310   34.9160   46.0530 C   0  0  0  0  0  0  0  0  0  0  0  0
   62.1290   33.7630   46.3640 C   0  0  0  0  0  0  0  0  0  0  0  0
   63.3380   34.1280   46.9570 C   0  0  0  0  0  0  0  0  0  0  0  0
   63.6650   33.6520   48.1880 N   0  0  0  0  0  0  0  0  0  0  0  0
   69.0245   35.1302   50.8766 H   0  0  0  0  0  0  0  0  0  0  0  0
   69.2403   33.7353   49.5968 H   0  0  0  0  0  0  0  0  0  0  0  0
   66.9556   34.1231   51.6360 H   0  0  0  0  0  0  0  0  0  0  0  0
   67.6214   32.1133   49.3415 H   0  0  0  0  0  0  0  0  0  0  0  0
   67.0314   31.5783   50.9615 H   0  0  0  0  0  0  0  0  0  0  0  0
   65.4380   32.9700   48.8260 H   0  0  0  0  0  0  0  0  0  0  0  0
   60.9530   31.7413   48.8574 H   0  0  0  0  0  0  0  0  0  0  0  0
   60.3569   30.3873   46.7286 H   0  0  0  0  0  0  0  0  0  0  0  0
   55.3492   30.0148   43.4773 H   0  0  0  0  0  0  0  0  0  0  0  0
   56.9975   30.4391   42.8759 H   0  0  0  0  0  0  0  0  0  0  0  0
   57.1418   28.1460   43.5047 H   0  0  0  0  0  0  0  0  0  0  0  0
   57.8912   29.0632   44.8657 H   0  0  0  0  0  0  0  0  0  0  0  0
   57.1680   28.4386   47.4646 H   0  0  0  0  0  0  0  0  0  0  0  0
   58.9681   29.3956   48.9000 H   0  0  0  0  0  0  0  0  0  0  0  0
   61.2305   28.3411   48.9412 H   0  0  0  0  0  0  0  0  0  0  0  0
   61.6879   26.3135   47.5587 H   0  0  0  0  0  0  0  0  0  0  0  0
   59.8928   25.3525   46.1146 H   0  0  0  0  0  0  0  0  0  0  0  0
   59.2739   35.2161   47.1104 H   0  0  0  0  0  0  0  0  0  0  0  0
   60.1763   35.1823   45.5576 H   0  0  0  0  0  0  0  0  0  0  0  0
   58.3981   35.4365   45.5576 H   0  0  0  0  0  0  0  0  0  0  0  0
   61.8656   34.1407   45.3650 H   0  0  0  0  0  0  0  0  0  0  0  0
   64.0278   34.8019   46.4278 H   0  0  0  0  0  0  0  0  0  0  0  0
  1  2  2  0
  2  3  1  0
  3  4  1  0
  4  5  1  0
  5  6  2  0
  5  7  1  0
  7  8  2  3
  8  9  1  0
  9 10  2  0
 10 11  1  0
 11 12  2  0
 12 13  1  0
 13 14  1  0
 14 15  2  3
 15 16  1  0
 16 17  1  0
 17 18  1  0
 18 19  1  0
 19 20  2  0
 19 21  1  0
 21 22  1  0
 22 23  2  0
 23 24  1  0
 24 25  2  0
 25 26  1  0
 26 27  2  0
 14 28  1  0
 28 29  2  0
 29 30  1  0
 10 31  1  0
 31 32  2  0
 32 33  1  0
 33  8  1  0
 29 11  1  0
 27 22  1  0
  1 34  1  0
  1 35  1  0
  2 36  1  0
  3 37  1  0
  3 38  1  0
  4 39  1  0
  9 40  1  0
 12 41  1  0
 16 42  1  0
 16 43  1  0
 17 44  1  0
 17 45  1  0
 23 46  1  0
 24 47  1  0
 25 48  1  0
 26 49  1  0
 27 50  1  0
 30 51  1  0
 30 52  1  0
 30 53  1  0
 31 54  1  0
 32 55  1  0
M  CHG  3  13  -1  18  -1  33  -1
M  END
>  <UniqueID>  (33) 
30

>  <SMILES>  (33) 
C=CCNC(=O)N=c1cc(-c2c[n-]c(=NCC[N-]C(=O)Oc3ccccc3)nc2C)cc[n-]1

>  <Energy>  (33) 
63.069602876039056

>  <Genealogy>  (33) 
C=CCNC(=O)N=c1cc(-c2c[n-]c(=NCC[N-]C(=O)Oc3ccccc3)nc2C)cc[n-]1 (protonated)
C=CCNC(=O)N=c1cc(-c2c[n-]c(=NCC[N-]C(=O)Oc3ccccc3)nc2C)cc[n-]1 (3D coordinates assigned)
C=CCNC(=O)N=c1cc(-c2c[n-]c(=NCC[N-]C(=O)Oc3ccccc3)nc2C)cc[n-]1 (optimized conformer: 63.069602876039056 kcal/mol)

>  <smiles>  (33) 
C=CCNC(=O)N=c1cc(-c2c[nH]c(=NCCNC(=O)Oc3ccccc3)nc2C)cc[nH]1

>  <score_type>  (33) 
oracle

>  <origin>  (33) 
adg

>  <m_score__min__energy>  (33) 
-12.199999999999999

>  <m_primary>  (33) 
energy

$$$$
33:0
     RDKit          3D

 31 32  0  0  0  0  0  0  0  0999 V2000
   60.0970   23.2110   45.5970 N   0  0  0  0  0  0  0  0  0  0  0  0
   58.8610   22.9980   44.9180 C   0  0  0  0  0  0  0  0  0  0  0  0
   58.7700   22.0490   44.0920 O   0  0  0  0  0  0  0  0  0  0  0  0
   57.6960   23.8760   45.1800 C   0  0  0  0  0  0  0  0  0  0  0  0
   56.4060   23.3280   45.3020 C   0  0  0  0  0  0  0  0  0  0  0  0
   55.3070   24.1530   45.5500 C   0  0  0  0  0  0  0  0  0  0  0  0
   55.4790   25.5330   45.6910 C   0  0  0  0  0  0  0  0  0  0  0  0
   54.3730   26.3340   45.9550 O   0  0  0  0  0  0  0  0  0  0  0  0
   56.7620   26.0960   45.5850 C   0  0  0  0  0  0  0  0  0  0  0  0
   56.9560   27.5490   45.7660 C   0  0  0  0  0  0  0  0  0  0  0  0
   57.9900   27.9590   46.3580 O   0  0  0  0  0  0  0  0  0  0  0  0
   56.0270   28.5120   45.2490 N   0  0  0  0  0  0  0  0  0  0  0  0
   56.2500   29.3900   44.1030 C   0  0  0  0  0  0  0  0  0  0  0  0
   57.2150   30.4810   44.4500 C   0  0  0  0  0  0  0  0  0  0  0  0
   58.4500   30.3000   44.2700 O   0  0  0  0  0  0  0  0  0  0  0  0
   56.7120   31.7220   44.9650 N   0  0  0  0  0  0  0  0  0  0  0  0
   57.4190   32.7830   45.2220 C   0  0  0  0  0  0  0  0  0  0  0  0
   57.9830   33.5190   44.2390 N   0  0  0  0  0  0  0  0  0  0  0  0
   58.6490   34.4820   44.9000 C   0  0  0  0  0  0  0  0  0  0  0  0
   58.4690   34.2920   46.2460 C   0  0  0  0  0  0  0  0  0  0  0  0
   59.0090   35.0880   47.2490 O   0  0  0  0  0  0  0  0  0  0  0  0
   57.6930   33.2190   46.4730 N   0  0  0  0  0  0  0  0  0  0  0  0
   57.8620   25.2660   45.3150 C   0  0  0  0  0  0  0  0  0  0  0  0
   60.9360   22.6270   45.3820 H   0  0  0  0  0  0  0  0  0  0  0  0
   56.2621   22.2421   45.2013 H   0  0  0  0  0  0  0  0  0  0  0  0
   54.3015   23.7150   45.6348 H   0  0  0  0  0  0  0  0  0  0  0  0
   56.6579   28.7990   43.2697 H   0  0  0  0  0  0  0  0  0  0  0  0
   55.2909   29.8454   43.8154 H   0  0  0  0  0  0  0  0  0  0  0  0
   59.2393   35.2873   44.4384 H   0  0  0  0  0  0  0  0  0  0  0  0
   58.5830   35.9750   47.4880 H   0  0  0  0  0  0  0  0  0  0  0  0
   58.8638   25.7075   45.2080 H   0  0  0  0  0  0  0  0  0  0  0  0
  1  2  1  0
  2  3  2  0
  2  4  1  0
  4  5  2  0
  5  6  1  0
  6  7  2  0
  7  8  1  0
  7  9  1  0
  9 10  1  0
 10 11  2  0
 10 12  1  0
 12 13  1  0
 13 14  1  0
 14 15  2  0
 14 16  1  0
 16 17  2  3
 17 18  1  0
 18 19  1  0
 19 20  2  0
 20 21  1  0
 20 22  1  0
  9 23  2  0
 23  4  1  0
 22 17  1  0
  1 24  1  0
  5 25  1  0
  6 26  1  0
 13 27  1  0
 13 28  1  0
 19 29  1  0
 21 30  1  0
 23 31  1  0
M  CHG  5   1  -1   8  -1  12  -1  18  -1  22  -1
M  END
>  <UniqueID>  (34) 
31

>  <SMILES>  (34) 
[NH-]C(=O)c1ccc([O-])c(C(=O)[N-]CC(=O)N=c2[n-]cc(O)[n-]2)c1

>  <Energy>  (34) 
63.12118263766256

>  <Genealogy>  (34) 
[NH-]C(=O)c1ccc([O-])c(C(=O)[N-]CC(=O)N=c2[n-]cc(O)[n-]2)c1 (protonated)
[NH-]C(=O)c1ccc([O-])c(C(=O)[N-]CC(=O)N=c2[n-]cc(O)[n-]2)c1 (3D coordinates assigned)
[NH-]C(=O)c1ccc([O-])c(C(=O)[N-]CC(=O)N=c2[n-]cc(O)[n-]2)c1 (optimized conformer: 63.12118263766256 kcal/mol)

>  <smiles>  (34) 
NC(=O)c1ccc(O)c(C(=O)NCC(=O)N=c2[nH]cc(O)[nH]2)c1

>  <score_type>  (34) 
oracle

>  <origin>  (34) 
adg

>  <m_score__min__energy>  (34) 
-15.24

>  <m_primary>  (34) 
energy

$$$$
34:0
     RDKit          3D

 35 36  0  0  0  0  0  0  0  0999 V2000
   59.3110   34.2260   48.5740 N   0  0  0  0  0  0  0  0  0  0  0  0
   59.8810   34.5290   46.9710 S   0  0  0  0  0  0  0  0  0  0  0  0
   61.3570   34.2480   46.9000 O   0  0  0  0  0  0  0  0  0  0  0  0
   59.6480   35.9710   46.6220 O   0  0  0  0  0  0  0  0  0  0  0  0
   59.0230   33.4910   45.8360 C   0  0  0  0  0  0  0  0  0  0  0  0
   58.8240   33.9050   44.5120 C   0  0  0  0  0  0  0  0  0  0  0  0
   58.1210   33.0910   43.6210 C   0  0  0  0  0  0  0  0  0  0  0  0
   57.6200   31.8580   44.0440 C   0  0  0  0  0  0  0  0  0  0  0  0
   57.8320   31.4220   45.3630 C   0  0  0  0  0  0  0  0  0  0  0  0
   57.3000   30.1790   45.8410 N   0  0  0  0  0  0  0  0  0  0  0  0
   56.9650   29.0330   45.0470 C   0  0  0  0  0  0  0  0  0  0  0  0
   55.7510   28.7340   44.8940 O   0  0  0  0  0  0  0  0  0  0  0  0
   58.0160   28.1580   44.4310 C   0  0  0  0  0  0  0  0  0  0  0  0
   57.4290   26.9410   43.9960 O   0  0  0  0  0  0  0  0  0  0  0  0
   57.6110   25.7810   44.7150 N   0  0  0  0  0  0  0  0  0  0  0  0
   57.0710   24.6540   44.3620 C   0  0  0  0  0  0  0  0  0  0  0  0
   55.7100   24.2520   44.7890 C   0  0  0  0  0  0  0  0  0  0  0  0
   54.8910   25.0990   45.5570 C   0  0  0  0  0  0  0  0  0  0  0  0
   55.3450   26.3520   45.9640 O   0  0  0  0  0  0  0  0  0  0  0  0
   53.6530   24.6830   45.9340 N   0  0  0  0  0  0  0  0  0  0  0  0
   53.1930   23.4520   45.5980 C   0  0  0  0  0  0  0  0  0  0  0  0
   52.0420   23.0920   45.9540 O   0  0  0  0  0  0  0  0  0  0  0  0
   53.9780   22.6050   44.8840 N   0  0  0  0  0  0  0  0  0  0  0  0
   55.2210   22.9710   44.4810 C   0  0  0  0  0  0  0  0  0  0  0  0
   55.9210   22.1570   43.8210 O   0  0  0  0  0  0  0  0  0  0  0  0
   58.5120   32.2570   46.2600 C   0  0  0  0  0  0  0  0  0  0  0  0
   59.5130   33.2230   48.7850 H   0  0  0  0  0  0  0  0  0  0  0  0
   59.2223   34.8730   44.1738 H   0  0  0  0  0  0  0  0  0  0  0  0
   57.9616   33.4218   42.5841 H   0  0  0  0  0  0  0  0  0  0  0  0
   57.0571   31.2255   43.3418 H   0  0  0  0  0  0  0  0  0  0  0  0
   58.4649   28.6758   43.5705 H   0  0  0  0  0  0  0  0  0  0  0  0
   58.7939   27.9413   45.1779 H   0  0  0  0  0  0  0  0  0  0  0  0
   57.6467   23.9706   43.7205 H   0  0  0  0  0  0  0  0  0  0  0  0
   55.9130   26.9240   45.3520 H   0  0  0  0  0  0  0  0  0  0  0  0
   58.6457   31.9412   47.3052 H   0  0  0  0  0  0  0  0  0  0  0  0
  1  2  1  0
  2  3  2  0
  2  4  2  0
  2  5  1  0
  5  6  2  0
  6  7  1  0
  7  8  2  0
  8  9  1  0
  9 10  1  0
 10 11  1  0
 11 12  2  0
 11 13  1  0
 13 14  1  0
 14 15  1  0
 15 16  2  3
 16 17  1  0
 17 18  2  0
 18 19  1  0
 18 20  1  0
 20 21  1  0
 21 22  2  0
 21 23  1  0
 23 24  1  0
 24 25  2  0
  9 26  2  0
 26  5  1  0
 24 17  1  0
  1 27  1  0
  6 28  1  0
  7 29  1  0
  8 30  1  0
 13 31  1  0
 13 32  1  0
 16 33  1  0
 19 34  1  0
 26 35  1  0
M  CHG  4   1  -1  10  -1  20  -1  23  -1
M  END
>  <UniqueID>  (35) 
32

>  <SMILES>  (35) 
[NH-]S(=O)(=O)c1cccc([N-]C(=O)CON=Cc2c(O)[n-]c(=O)[n-]c2=O)c1

>  <Energy>  (35) 
43.31171498774498

>  <Genealogy>  (35) 
[NH-]S(=O)(=O)c1cccc([N-]C(=O)CON=Cc2c(O)[n-]c(=O)[n-]c2=O)c1 (protonated)
[NH-]S(=O)(=O)c1cccc([N-]C(=O)CON=Cc2c(O)[n-]c(=O)[n-]c2=O)c1 (3D coordinates assigned)
[NH-]S(=O)(=O)c1cccc([N-]C(=O)CON=Cc2c(O)[n-]c(=O)[n-]c2=O)c1 (optimized conformer: 43.31171498774498 kcal/mol)

>  <smiles>  (35) 
NS(=O)(=O)c1cccc(NC(=O)CON=Cc2c(O)[nH]c(=O)[nH]c2=O)c1

>  <score_type>  (35) 
oracle

>  <origin>  (35) 
adg

>  <m_score__min__energy>  (35) 
-14.710000000000001

>  <m_primary>  (35) 
energy

$$$$
35:0
     RDKit          3D

 51 54  0  0  0  0  0  0  0  0999 V2000
   61.2799   29.0603   47.8830 H   0  0  0  0  0  0  0  0  0  0  0  0
   60.5470   28.6030   47.2020 C   0  0  0  0  0  0  0  0  0  0  0  0
   60.5386   27.5129   47.0547 H   0  0  0  0  0  0  0  0  0  0  0  0
   59.6620   29.3760   46.5500 C   0  0  0  0  0  0  0  0  0  0  0  0
   58.6750   28.9400   45.6560 C   0  0  0  0  0  0  0  0  0  0  0  0
   58.4150   27.6640   45.2970 C   0  0  0  0  0  0  0  0  0  0  0  0
   59.1585   27.1603   44.6618 H   0  0  0  0  0  0  0  0  0  0  0  0
   57.2180   26.8840   45.6830 C   0  0  0  0  0  0  0  0  0  0  0  0
   57.2140   25.6400   46.1940 N   0  0  0  0  0  0  0  0  0  0  0  0
   55.9060   25.3920   46.4160 C   0  0  0  0  0  0  0  0  0  0  0  0
   55.4940   24.3040   46.8960 O   0  0  0  0  0  0  0  0  0  0  0  0
   55.0750   26.4020   46.0850 N   0  0  0  0  0  0  0  0  0  0  0  0
   55.9200   27.3380   45.6270 C   0  0  0  0  0  0  0  0  0  0  0  0
   55.5140   28.5850   45.1690 O   0  0  0  0  0  0  0  0  0  0  0  0
   58.0090   30.0840   45.2320 C   0  0  0  0  0  0  0  0  0  0  0  0
   57.1717   30.1291   44.5200 H   0  0  0  0  0  0  0  0  0  0  0  0
   58.6000   31.1530   45.8760 C   0  0  0  0  0  0  0  0  0  0  0  0
   58.1730   32.5800   45.7150 C   0  0  0  0  0  0  0  0  0  0  0  0
   58.0365   33.0360   46.7067 H   0  0  0  0  0  0  0  0  0  0  0  0
   58.9449   33.1333   45.1601 H   0  0  0  0  0  0  0  0  0  0  0  0
   57.2240   32.6184   45.1601 H   0  0  0  0  0  0  0  0  0  0  0  0
   59.6190   30.7280   46.6560 N   0  0  0  0  0  0  0  0  0  0  0  0
   60.4270   31.5620   47.5100 C   0  0  0  0  0  0  0  0  0  0  0  0
   61.6310   32.0840   47.0160 C   0  0  0  0  0  0  0  0  0  0  0  0
   61.9119   31.9090   45.9670 H   0  0  0  0  0  0  0  0  0  0  0  0
   62.4760   32.8240   47.8450 C   0  0  0  0  0  0  0  0  0  0  0  0
   63.4075   33.2454   47.4392 H   0  0  0  0  0  0  0  0  0  0  0  0
   62.1450   33.0340   49.1930 C   0  0  0  0  0  0  0  0  0  0  0  0
   63.0560   33.8070   50.0630 C   0  0  0  0  0  0  0  0  0  0  0  0
   62.7050   34.9460   50.4720 O   0  0  0  0  0  0  0  0  0  0  0  0
   64.3520   33.3150   50.4160 N   0  0  0  0  0  0  0  0  0  0  0  0
   65.2680   32.2170   50.0490 C   0  0  0  0  0  0  0  0  0  0  0  0
   64.9157   31.2355   50.3990 H   0  0  0  0  0  0  0  0  0  0  0  0
   65.4223   32.0315   48.9758 H   0  0  0  0  0  0  0  0  0  0  0  0
   66.4380   32.7190   50.8260 C   0  0  0  0  0  0  0  0  0  0  0  0
   66.7668   32.0774   51.6568 H   0  0  0  0  0  0  0  0  0  0  0  0
   67.4368   32.8832   50.3954 H   0  0  0  0  0  0  0  0  0  0  0  0
   65.4980   33.8180   51.1940 C   0  0  0  0  0  0  0  0  0  0  0  0
   65.2930   33.8568   52.2740 H   0  0  0  0  0  0  0  0  0  0  0  0
   65.8278   34.8472   50.9893 H   0  0  0  0  0  0  0  0  0  0  0  0
   60.9330   32.5240   49.6850 C   0  0  0  0  0  0  0  0  0  0  0  0
   60.6601   32.6918   50.7373 H   0  0  0  0  0  0  0  0  0  0  0  0
   60.0670   31.8040   48.8520 C   0  0  0  0  0  0  0  0  0  0  0  0
   58.8360   31.3250   49.4000 N   0  0  0  0  0  0  0  0  0  0  0  0
   58.7100   30.6680   50.9980 S   0  0  0  0  0  0  0  0  0  0  0  0
   57.3240   30.1170   51.1870 O   0  0  0  0  0  0  0  0  0  0  0  0
   58.9590   31.7370   52.0220 O   0  0  0  0  0  0  0  0  0  0  0  0
   59.8740   29.3380   51.2070 C   0  0  0  0  0  0  0  0  0  0  0  0
   60.0336   29.1556   52.2800 H   0  0  0  0  0  0  0  0  0  0  0  0
   59.4781   28.4267   50.7351 H   0  0  0  0  0  0  0  0  0  0  0  0
   60.8298   29.6097   50.7351 H   0  0  0  0  0  0  0  0  0  0  0  0
  1  2  1  0
  2  3  1  0
  2  4  2  0
  4  5  1  0
  5  6  2  0
  6  7  1  0
  6  8  1  0
  8  9  1  0
  9 10  1  0
 10 11  2  0
 10 12  1  0
 12 13  1  0
 13 14  1  0
  5 15  1  0
 15 16  1  0
 15 17  2  0
 17 18  1  0
 18 19  1  0
 18 20  1  0
 18 21  1  0
 17 22  1  0
 22 23  1  0
 23 24  2  0
 24 25  1  0
 24 26  1  0
 26 27  1  0
 26 28  2  0
 28 29  1  0
 29 30  2  0
 29 31  1  0
 31 32  1  0
 32 33  1  0
 32 34  1  0
 32 35  1  0
 35 36  1  0
 35 37  1  0
 35 38  1  0
 38 39  1  0
 38 40  1  0
 28 41  1  0
 41 42  1  0
 41 43  2  0
 43 44  1  0
 44 45  1  0
 45 46  2  0
 45 47  2  0
 45 48  1  0
 48 49  1  0
 48 50  1  0
 48 51  1  0
 22  4  1  0
 43 23  1  0
 13  8  2  0
 38 31  1  0
M  CHG  4   9  -1  12  -1  14  -1  44  -1
M  END
>  <UniqueID>  (36) 
33

>  <SMILES>  (36) 
C=c1/c(=C/c2[n-]c(=O)[n-]c2[O-])cc(C)n1-c1ccc(C(=O)N2CCC2)cc1[N-]S(C)(=O)=O

>  <Energy>  (36) 
171.39306772579948

>  <Genealogy>  (36) 
C=c1c(=Cc2[n-]c(=O)[n-]c2[O-])cc(C)n1-c1ccc(C(=O)N2CCC2)cc1[N-]S(C)(=O)=O (protonated)
C=c1/c(=C/c2[n-]c(=O)[n-]c2[O-])cc(C)n1-c1ccc(C(=O)N2CCC2)cc1[N-]S(C)(=O)=O (cis-trans isomerization)
C=c1/c(=C/c2[n-]c(=O)[n-]c2[O-])cc(C)n1-c1ccc(C(=O)N2CCC2)cc1[N-]S(C)(=O)=O (3D coordinates assigned)
C=c1/c(=C/c2[n-]c(=O)[n-]c2[O-])cc(C)n1-c1ccc(C(=O)N2CCC2)cc1[N-]S(C)(=O)=O (nonaromatic ring conformer: 171.39306772579948 kcal/mol)

>  <smiles>  (36) 
C=c1c(=Cc2[nH]c(=O)[nH]c2O)cc(C)n1-c1ccc(C(=O)N2CCC2)cc1NS(C)(=O)=O

>  <score_type>  (36) 
oracle

>  <origin>  (36) 
adg

>  <m_score__min__energy>  (36) 
-17.920000000000002

>  <m_primary>  (36) 
energy

$$$$
36:0
     RDKit          3D

 42 44  0  0  0  0  0  0  0  0999 V2000
   57.5270   33.8540   44.5290 C   0  0  0  0  0  0  0  0  0  0  0  0
   58.3850   34.5230   45.4470 O   0  0  0  0  0  0  0  0  0  0  0  0
   58.7400   34.0220   46.7080 C   0  0  0  0  0  0  0  0  0  0  0  0
   58.2190   32.8170   47.2180 C   0  0  0  0  0  0  0  0  0  0  0  0
   58.5840   32.3740   48.4930 C   0  0  0  0  0  0  0  0  0  0  0  0
   59.4630   33.1300   49.2830 C   0  0  0  0  0  0  0  0  0  0  0  0
   59.7780   32.7030   50.6670 C   0  0  0  0  0  0  0  0  0  0  0  0
   60.8920   32.1680   50.9120 O   0  0  0  0  0  0  0  0  0  0  0  0
   58.8520   32.9000   51.7470 N   0  0  0  0  0  0  0  0  0  0  0  0
   57.8440   31.9560   52.1350 C   0  0  0  0  0  0  0  0  0  0  0  0
   57.3120   31.9480   53.4310 C   0  0  0  0  0  0  0  0  0  0  0  0
   56.4370   30.9370   53.8190 C   0  0  0  0  0  0  0  0  0  0  0  0
   56.0940   29.9250   52.9000 C   0  0  0  0  0  0  0  0  0  0  0  0
   55.3660   28.8940   53.2320 N   0  0  0  0  0  0  0  0  0  0  0  0
   53.9390   28.8570   53.4050 C   0  0  0  0  0  0  0  0  0  0  0  0
   53.4240   27.8410   53.9410 O   0  0  0  0  0  0  0  0  0  0  0  0
   53.0680   30.0030   53.0280 C   0  0  0  0  0  0  0  0  0  0  0  0
   52.1620   30.5170   53.9730 C   0  0  0  0  0  0  0  0  0  0  0  0
   51.2870   31.5520   53.6280 C   0  0  0  0  0  0  0  0  0  0  0  0
   51.3110   32.0900   52.3410 C   0  0  0  0  0  0  0  0  0  0  0  0
   50.4300   33.1090   51.9980 O   0  0  0  0  0  0  0  0  0  0  0  0
   52.2210   31.6060   51.3990 C   0  0  0  0  0  0  0  0  0  0  0  0
   53.1100   30.5740   51.7350 C   0  0  0  0  0  0  0  0  0  0  0  0
   54.0360   30.1300   50.7920 O   0  0  0  0  0  0  0  0  0  0  0  0
   56.5470   30.0170   51.6200 N   0  0  0  0  0  0  0  0  0  0  0  0
   57.3920   31.0040   51.2170 C   0  0  0  0  0  0  0  0  0  0  0  0
   60.0100   34.3130   48.7560 C   0  0  0  0  0  0  0  0  0  0  0  0
   59.6450   34.7550   47.4820 C   0  0  0  0  0  0  0  0  0  0  0  0
   56.7786   33.2704   45.0852 H   0  0  0  0  0  0  0  0  0  0  0  0
   57.0174   34.5956   43.8962 H   0  0  0  0  0  0  0  0  0  0  0  0
   58.1220   33.1790   43.8962 H   0  0  0  0  0  0  0  0  0  0  0  0
   57.5217   32.2216   46.6104 H   0  0  0  0  0  0  0  0  0  0  0  0
   58.1794   31.4268   48.8791 H   0  0  0  0  0  0  0  0  0  0  0  0
   57.5858   32.7410   54.1425 H   0  0  0  0  0  0  0  0  0  0  0  0
   56.0164   30.9281   54.8354 H   0  0  0  0  0  0  0  0  0  0  0  0
   52.1415   30.1017   54.9914 H   0  0  0  0  0  0  0  0  0  0  0  0
   50.5783   31.9427   54.3730 H   0  0  0  0  0  0  0  0  0  0  0  0
   52.2410   32.0366   50.3870 H   0  0  0  0  0  0  0  0  0  0  0  0
   54.9100   29.6970   51.0680 H   0  0  0  0  0  0  0  0  0  0  0  0
   57.7197   31.0528   50.1681 H   0  0  0  0  0  0  0  0  0  0  0  0
   60.7300   34.8944   49.3506 H   0  0  0  0  0  0  0  0  0  0  0  0
   60.0730   35.6871   47.0845 H   0  0  0  0  0  0  0  0  0  0  0  0
  1  2  1  0
  2  3  1  0
  3  4  2  0
  4  5  1  0
  5  6  2  0
  6  7  1  0
  7  8  2  0
  7  9  1  0
  9 10  1  0
 10 11  1  0
 11 12  2  0
 12 13  1  0
 13 14  2  3
 14 15  1  0
 15 16  2  0
 15 17  1  0
 17 18  2  0
 18 19  1  0
 19 20  2  0
 20 21  1  0
 20 22  1  0
 22 23  2  0
 23 24  1  0
 13 25  1  0
 25 26  1  0
  6 27  1  0
 27 28  2  0
 28  3  1  0
 26 10  2  0
 23 17  1  0
  1 29  1  0
  1 30  1  0
  1 31  1  0
  4 32  1  0
  5 33  1  0
 11 34  1  0
 12 35  1  0
 18 36  1  0
 19 37  1  0
 22 38  1  0
 24 39  1  0
 26 40  1  0
 27 41  1  0
 28 42  1  0
M  CHG  3   9  -1  21  -1  25  -1
M  END
>  <UniqueID>  (37) 
34

>  <SMILES>  (37) 
COc1ccc(C(=O)[N-]c2ccc(=NC(=O)c3ccc([O-])cc3O)[n-]c2)cc1

>  <Energy>  (37) 
62.80849723493034

>  <Genealogy>  (37) 
COc1ccc(C(=O)[N-]c2ccc(=NC(=O)c3ccc([O-])cc3O)[n-]c2)cc1 (protonated)
COc1ccc(C(=O)[N-]c2ccc(=NC(=O)c3ccc([O-])cc3O)[n-]c2)cc1 (3D coordinates assigned)
COc1ccc(C(=O)[N-]c2ccc(=NC(=O)c3ccc([O-])cc3O)[n-]c2)cc1 (optimized conformer: 62.80849723493034 kcal/mol)

>  <smiles>  (37) 
COc1ccc(C(=O)Nc2ccc(=NC(=O)c3ccc(O)cc3O)[nH]c2)cc1

>  <score_type>  (37) 
oracle

>  <origin>  (37) 
adg

>  <m_score__min__energy>  (37) 
-13.789999999999999

>  <m_primary>  (37) 
energy

$$$$
37:0
     RDKit          3D

 27 29  0  0  0  0  0  0  0  0999 V2000
   59.8110   27.8100   45.2280 C   0  0  0  0  0  0  0  0  0  0  0  0
   58.4000   27.3480   45.4020 C   0  0  0  0  0  0  0  0  0  0  0  0
   57.9480   25.7340   45.5790 S   0  0  0  0  0  0  0  0  0  0  0  0
   56.3180   26.1070   45.7050 C   0  0  0  0  0  0  0  0  0  0  0  0
   55.1330   25.0030   45.9090 S   0  0  0  0  0  0  0  0  0  0  0  0
   56.0890   27.4320   45.6170 N   0  0  0  0  0  0  0  0  0  0  0  0
   57.2420   28.1390   45.4480 C   0  0  0  0  0  0  0  0  0  0  0  0
   57.2140   29.6090   45.3290 C   0  0  0  0  0  0  0  0  0  0  0  0
   56.2660   30.3090   44.6740 N   0  0  0  0  0  0  0  0  0  0  0  0
   56.6080   31.5570   44.8080 O   0  0  0  0  0  0  0  0  0  0  0  0
   57.7140   31.6480   45.5090 C   0  0  0  0  0  0  0  0  0  0  0  0
   58.3780   32.9290   45.8440 C   0  0  0  0  0  0  0  0  0  0  0  0
   58.7410   33.2440   47.1680 C   0  0  0  0  0  0  0  0  0  0  0  0
   59.3660   34.4610   47.4580 C   0  0  0  0  0  0  0  0  0  0  0  0
   59.6360   35.3730   46.4360 C   0  0  0  0  0  0  0  0  0  0  0  0
   59.2810   35.0700   45.1190 C   0  0  0  0  0  0  0  0  0  0  0  0
   58.6550   33.8550   44.8240 C   0  0  0  0  0  0  0  0  0  0  0  0
   58.1430   30.4230   45.8670 N   0  0  0  0  0  0  0  0  0  0  0  0
   60.2718   27.9609   46.2154 H   0  0  0  0  0  0  0  0  0  0  0  0
   60.3792   27.0510   44.6703 H   0  0  0  0  0  0  0  0  0  0  0  0
   59.8203   28.7581   44.6703 H   0  0  0  0  0  0  0  0  0  0  0  0
   58.5319   32.5294   47.9777 H   0  0  0  0  0  0  0  0  0  0  0  0
   59.6457   34.7004   48.4945 H   0  0  0  0  0  0  0  0  0  0  0  0
   60.1278   36.3293   46.6674 H   0  0  0  0  0  0  0  0  0  0  0  0
   59.4942   35.7880   44.3134 H   0  0  0  0  0  0  0  0  0  0  0  0
   58.3772   33.6222   43.7854 H   0  0  0  0  0  0  0  0  0  0  0  0
   58.9830   30.1510   46.4230 H   0  0  0  0  0  0  0  0  0  0  0  0
  1  2  1  0
  2  3  1  0
  3  4  1  0
  4  5  2  0
  4  6  1  0
  6  7  1  0
  7  8  1  0
  8  9  2  0
  9 10  1  0
 10 11  1  0
 11 12  1  0
 12 13  2  0
 13 14  1  0
 14 15  2  0
 15 16  1  0
 16 17  2  0
 11 18  2  0
  7  2  2  0
 18  8  1  0
 17 12  1  0
  1 19  1  0
  1 20  1  0
  1 21  1  0
 13 22  1  0
 14 23  1  0
 15 24  1  0
 16 25  1  0
 17 26  1  0
 18 27  1  0
M  CHG  2   6  -1  18   1
M  END
>  <UniqueID>  (38) 
35

>  <SMILES>  (38) 
Cc1sc(=S)[n-]c1-c1noc(-c2ccccc2)[nH+]1

>  <Energy>  (38) 
94.78560312996284

>  <Genealogy>  (38) 
Cc1sc(=S)[n-]c1-c1noc(-c2ccccc2)[nH+]1 (protonated)
Cc1sc(=S)[n-]c1-c1noc(-c2ccccc2)[nH+]1 (3D coordinates assigned)
Cc1sc(=S)[n-]c1-c1noc(-c2ccccc2)[nH+]1 (optimized conformer: 94.78560312996284 kcal/mol)

>  <smiles>  (38) 
Cc1sc(=S)[nH]c1-c1noc(-c2ccccc2)n1

>  <score_type>  (38) 
oracle

>  <origin>  (38) 
adg

>  <m_score__min__energy>  (38) 
-7.9299999999999997

>  <m_primary>  (38) 
energy

$$$$
38:0
     RDKit          3D

 47 50  0  0  0  0  0  0  0  0999 V2000
   66.7310   29.7670   51.6000 C   0  0  0  0  0  0  0  0  0  0  0  0
   65.4650   30.3790   51.8260 O   0  0  0  0  0  0  0  0  0  0  0  0
   64.8380   31.2600   50.9310 C   0  0  0  0  0  0  0  0  0  0  0  0
   65.5530   32.2210   50.1950 C   0  0  0  0  0  0  0  0  0  0  0  0
   64.8870   33.0760   49.3180 C   0  0  0  0  0  0  0  0  0  0  0  0
   63.4960   32.9970   49.1640 C   0  0  0  0  0  0  0  0  0  0  0  0
   62.7640   32.0230   49.8900 C   0  0  0  0  0  0  0  0  0  0  0  0
   63.4510   31.1670   50.7710 C   0  0  0  0  0  0  0  0  0  0  0  0
   61.3290   31.9220   49.7190 N   0  0  0  0  0  0  0  0  0  0  0  0
   60.4790   31.4090   50.7980 C   0  0  0  0  0  0  0  0  0  0  0  0
   60.7380   32.6730   48.6440 C   0  0  0  0  0  0  0  0  0  0  0  0
   59.9800   32.0850   47.6880 C   0  0  0  0  0  0  0  0  0  0  0  0
   59.7150   30.5940   47.7270 C   0  0  0  0  0  0  0  0  0  0  0  0
   60.2060   30.0050   46.5550 O   0  0  0  0  0  0  0  0  0  0  0  0
   59.5670   32.8920   46.5040 C   0  0  0  0  0  0  0  0  0  0  0  0
   58.7550   32.3310   45.4110 C   0  0  0  0  0  0  0  0  0  0  0  0
   58.6470   33.0080   44.1930 C   0  0  0  0  0  0  0  0  0  0  0  0
   57.8450   32.4740   43.1850 C   0  0  0  0  0  0  0  0  0  0  0  0
   57.1540   31.2790   43.3980 C   0  0  0  0  0  0  0  0  0  0  0  0
   56.3780   30.7810   42.4030 F   0  0  0  0  0  0  0  0  0  0  0  0
   57.2660   30.6290   44.6440 C   0  0  0  0  0  0  0  0  0  0  0  0
   56.5530   29.3690   44.9460 C   0  0  0  0  0  0  0  0  0  0  0  0
   55.1400   29.2610   44.7810 N   0  0  0  0  0  0  0  0  0  0  0  0
   57.2020   28.3670   45.3550 O   0  0  0  0  0  0  0  0  0  0  0  0
   58.0550   31.1790   45.6090 N   0  0  0  0  0  0  0  0  0  0  0  0
   59.9150   34.1390   46.4180 N   0  0  0  0  0  0  0  0  0  0  0  0
   60.6770   34.7630   47.3830 O   0  0  0  0  0  0  0  0  0  0  0  0
   61.3120   34.0490   48.4420 C   0  0  2  0  0  0  0  0  0  0  0  0
   62.8120   33.9030   48.1580 C   0  0  0  0  0  0  0  0  0  0  0  0
   67.2051   29.5378   52.5658 H   0  0  0  0  0  0  0  0  0  0  0  0
   66.5920   28.8366   51.0298 H   0  0  0  0  0  0  0  0  0  0  0  0
   67.3738   30.4539   51.0298 H   0  0  0  0  0  0  0  0  0  0  0  0
   66.6440   32.2988   50.3117 H   0  0  0  0  0  0  0  0  0  0  0  0
   65.4580   33.8190   48.7419 H   0  0  0  0  0  0  0  0  0  0  0  0
   62.8891   30.4135   51.3424 H   0  0  0  0  0  0  0  0  0  0  0  0
   60.9198   31.6751   51.7700 H   0  0  0  0  0  0  0  0  0  0  0  0
   59.4757   31.8525   50.7167 H   0  0  0  0  0  0  0  0  0  0  0  0
   60.4038   30.3146   50.7167 H   0  0  0  0  0  0  0  0  0  0  0  0
   60.2207   30.1538   48.5990 H   0  0  0  0  0  0  0  0  0  0  0  0
   58.6325   30.4144   47.8037 H   0  0  0  0  0  0  0  0  0  0  0  0
   59.4220   29.6030   46.0970 H   0  0  0  0  0  0  0  0  0  0  0  0
   59.1887   33.9516   44.0314 H   0  0  0  0  0  0  0  0  0  0  0  0
   57.7564   32.9949   42.2202 H   0  0  0  0  0  0  0  0  0  0  0  0
   54.4960   29.3360   45.6000 H   0  0  0  0  0  0  0  0  0  0  0  0
   61.1376   34.6356   49.3560 H   0  0  0  0  0  0  0  0  0  0  0  0
   62.9431   33.4788   47.1516 H   0  0  0  0  0  0  0  0  0  0  0  0
   63.2703   34.9002   48.2327 H   0  0  0  0  0  0  0  0  0  0  0  0
  1  2  1  0
  2  3  1  0
  3  4  2  0
  4  5  1  0
  5  6  2  0
  6  7  1  0
  7  8  2  0
  7  9  1  0
  9 10  1  0
  9 11  1  0
 11 12  2  0
 12 13  1  0
 13 14  1  0
 12 15  1  0
 15 16  1  0
 16 17  2  0
 17 18  1  0
 18 19  2  0
 19 20  1  0
 19 21  1  0
 21 22  1  0
 22 23  1  0
 22 24  2  0
 21 25  2  0
 15 26  2  0
 26 27  1  0
 27 28  1  0
 28 29  1  0
  8  3  1  0
 28 11  1  0
 29  6  1  0
 25 16  1  0
  1 30  1  0
  1 31  1  0
  1 32  1  0
  4 33  1  0
  5 34  1  0
  8 35  1  0
 10 36  1  0
 10 37  1  0
 10 38  1  0
 13 39  1  0
 13 40  1  0
 14 41  1  0
 17 42  1  0
 18 43  1  0
 23 44  1  0
 28 45  1  1
 29 46  1  0
 29 47  1  0
M  CHG  1  23  -1
M  END
>  <UniqueID>  (39) 
36

>  <SMILES>  (39) 
COc1ccc2c(c1)N(C)C1=C(CO)C(c3ccc(F)c(C([NH-])=O)n3)=NO[C@@H]1C2

>  <Energy>  (39) 
72.8620998828551

>  <Genealogy>  (39) 
COc1ccc2c(c1)N(C)C1=C(CO)C(c3ccc(F)c(C([NH-])=O)n3)=NOC1C2 (protonated)
COc1ccc2c(c1)N(C)C1=C(CO)C(c3ccc(F)c(C([NH-])=O)n3)=NO[C@@H]1C2 (chirality)
COc1ccc2c(c1)N(C)C1=C(CO)C(c3ccc(F)c(C([NH-])=O)n3)=NO[C@@H]1C2 (3D coordinates assigned)
COc1ccc2c(c1)N(C)C1=C(CO)C(c3ccc(F)c(C([NH-])=O)n3)=NO[C@@H]1C2 (nonaromatic ring conformer: 72.8620998828551 kcal/mol)

>  <smiles>  (39) 
COc1ccc2c(c1)N(C)C1=C(CO)C(c3ccc(F)c(C(N)=O)n3)=NOC1C2

>  <score_type>  (39) 
oracle

>  <origin>  (39) 
adg

>  <m_score__min__energy>  (39) 
-10.43

>  <m_primary>  (39) 
energy

$$$$
39:0
     RDKit          3D

 59 62  0  0  0  0  0  0  0  0999 V2000
   61.8740   20.4380   51.1960 C   0  0  0  0  0  0  0  0  0  0  0  0
   60.6210   21.0600   50.9280 O   0  0  0  0  0  0  0  0  0  0  0  0
   60.1290   22.1790   51.6160 C   0  0  0  0  0  0  0  0  0  0  0  0
   60.9730   23.0810   52.2940 C   0  0  0  0  0  0  0  0  0  0  0  0
   60.4320   24.1830   52.9630 C   0  0  0  0  0  0  0  0  0  0  0  0
   59.0460   24.4030   52.9670 C   0  0  0  0  0  0  0  0  0  0  0  0
   58.4680   25.6000   53.6890 C   0  0  0  0  0  0  0  0  0  0  0  0
   57.9540   25.2570   55.0440 N   0  0  0  0  0  0  0  0  0  0  0  0
   57.9410   26.4110   55.9770 C   0  0  0  0  0  0  0  0  0  0  0  0
   56.9990   27.5260   55.4990 C   0  0  0  0  0  0  0  0  0  0  0  0
   55.8180   26.9660   54.8290 N   0  0  0  0  0  0  0  0  0  0  0  0
   55.0120   27.7730   53.9410 C   0  0  0  0  0  0  0  0  0  0  0  0
   54.1840   27.2170   53.1680 O   0  0  0  0  0  0  0  0  0  0  0  0
   55.1740   29.2770   53.8690 C   0  0  1  0  0  0  0  0  0  0  0  0
   56.3670   29.6570   52.9860 C   0  0  0  0  0  0  0  0  0  0  0  0
   55.8910   30.8200   52.1210 C   0  0  0  0  0  0  0  0  0  0  0  0
   54.3710   30.7400   52.1130 C   0  0  0  0  0  0  0  0  0  0  0  0
   54.0130   29.9050   53.2470 N   0  0  0  0  0  0  0  0  0  0  0  0
   52.6590   29.8180   53.7360 C   0  0  0  0  0  0  0  0  0  0  0  0
   52.3300   28.8450   54.4710 O   0  0  0  0  0  0  0  0  0  0  0  0
   51.6470   30.9010   53.4540 C   0  0  0  0  0  0  0  0  0  0  0  0
   51.5020   31.1480   51.9820 C   0  0  0  0  0  0  0  0  0  0  0  0
   51.7000   30.2120   51.0370 N   0  0  0  0  0  0  0  0  0  0  0  0
   51.4040   30.8620   49.8900 C   0  0  0  0  0  0  0  0  0  0  0  0
   51.4770   30.3130   48.7610 O   0  0  0  0  0  0  0  0  0  0  0  0
   51.0180   32.1480   50.0500 N   0  0  0  0  0  0  0  0  0  0  0  0
   51.0800   32.3090   51.3820 C   0  0  0  0  0  0  0  0  0  0  0  0
   50.7540   33.4910   52.0330 O   0  0  0  0  0  0  0  0  0  0  0  0
   55.4290   25.5860   55.1490 C   0  0  0  0  0  0  0  0  0  0  0  0
   56.6130   24.6120   54.9610 C   0  0  0  0  0  0  0  0  0  0  0  0
   58.2060   23.4990   52.2980 C   0  0  0  0  0  0  0  0  0  0  0  0
   58.7470   22.3990   51.6270 C   0  0  0  0  0  0  0  0  0  0  0  0
   62.0218   20.3646   52.2836 H   0  0  0  0  0  0  0  0  0  0  0  0
   61.8846   19.4300   50.7557 H   0  0  0  0  0  0  0  0  0  0  0  0
   62.6833   21.0390   50.7557 H   0  0  0  0  0  0  0  0  0  0  0  0
   62.0608   22.9176   52.2969 H   0  0  0  0  0  0  0  0  0  0  0  0
   61.0975   24.8826   53.4900 H   0  0  0  0  0  0  0  0  0  0  0  0
   59.2541   26.3624   53.7928 H   0  0  0  0  0  0  0  0  0  0  0  0
   57.6200   25.9707   53.0945 H   0  0  0  0  0  0  0  0  0  0  0  0
   58.6070   24.5450   55.4490 H   0  0  0  0  0  0  0  0  0  0  0  0
   57.6078   26.0642   56.9663 H   0  0  0  0  0  0  0  0  0  0  0  0
   58.9599   26.8230   56.0225 H   0  0  0  0  0  0  0  0  0  0  0  0
   56.6732   28.1183   56.3668 H   0  0  0  0  0  0  0  0  0  0  0  0
   57.5414   28.1595   54.7817 H   0  0  0  0  0  0  0  0  0  0  0  0
   55.3086   29.6187   54.9059 H   0  0  0  0  0  0  0  0  0  0  0  0
   57.2203   29.9662   53.6075 H   0  0  0  0  0  0  0  0  0  0  0  0
   56.7032   28.8079   52.3729 H   0  0  0  0  0  0  0  0  0  0  0  0
   56.2214   31.7770   52.5512 H   0  0  0  0  0  0  0  0  0  0  0  0
   56.3036   30.7612   51.1030 H   0  0  0  0  0  0  0  0  0  0  0  0
   53.9339   31.7434   52.2230 H   0  0  0  0  0  0  0  0  0  0  0  0
   53.9923   30.3237   51.1679 H   0  0  0  0  0  0  0  0  0  0  0  0
   50.6727   30.5950   53.8627 H   0  0  0  0  0  0  0  0  0  0  0  0
   51.9956   31.8308   53.9272 H   0  0  0  0  0  0  0  0  0  0  0  0
   55.0914   25.5421   56.1950 H   0  0  0  0  0  0  0  0  0  0  0  0
   54.6203   25.2858   54.4665 H   0  0  0  0  0  0  0  0  0  0  0  0
   56.5524   23.8404   55.7427 H   0  0  0  0  0  0  0  0  0  0  0  0
   56.5237   24.1982   53.9457 H   0  0  0  0  0  0  0  0  0  0  0  0
   57.1174   23.6571   52.3019 H   0  0  0  0  0  0  0  0  0  0  0  0
   58.0800   21.6992   51.1023 H   0  0  0  0  0  0  0  0  0  0  0  0
  1  2  1  0
  2  3  1  0
  3  4  2  0
  4  5  1  0
  5  6  2  0
  6  7  1  0
  7  8  1  0
  8  9  1  0
  9 10  1  0
 10 11  1  0
 11 12  1  0
 12 13  2  0
 12 14  1  0
 14 15  1  0
 15 16  1  0
 16 17  1  0
 17 18  1  0
 18 19  1  0
 19 20  2  0
 19 21  1  0
 21 22  1  0
 22 23  1  0
 23 24  1  0
 24 25  2  0
 24 26  1  0
 26 27  1  0
 27 28  1  0
 11 29  1  0
 29 30  1  0
  6 31  1  0
 31 32  2  0
 32  3  1  0
 30  8  1  0
 18 14  1  0
 27 22  2  0
  1 33  1  0
  1 34  1  0
  1 35  1  0
  4 36  1  0
  5 37  1  0
  7 38  1  0
  7 39  1  0
  8 40  1  0
  9 41  1  0
  9 42  1  0
 10 43  1  0
 10 44  1  0
 14 45  1  1
 15 46  1  0
 15 47  1  0
 16 48  1  0
 16 49  1  0
 17 50  1  0
 17 51  1  0
 21 52  1  0
 21 53  1  0
 29 54  1  0
 29 55  1  0
 30 56  1  0
 30 57  1  0
 31 58  1  0
 32 59  1  0
M  CHG  4   8   1  23  -1  26  -1  28  -1
M  END
>  <UniqueID>  (40) 
37

>  <SMILES>  (40) 
COc1ccc(C[NH+]2CCN(C(=O)[C@H]3CCCN3C(=O)Cc3[n-]c(=O)[n-]c3[O-])CC2)cc1

>  <Energy>  (40) 
98.3173686310755

>  <Genealogy>  (40) 
COc1ccc(C[NH+]2CCN(C(=O)C3CCCN3C(=O)Cc3[n-]c(=O)[n-]c3[O-])CC2)cc1 (protonated)
COc1ccc(C[NH+]2CCN(C(=O)[C@H]3CCCN3C(=O)Cc3[n-]c(=O)[n-]c3[O-])CC2)cc1 (chirality)
COc1ccc(C[NH+]2CCN(C(=O)[C@H]3CCCN3C(=O)Cc3[n-]c(=O)[n-]c3[O-])CC2)cc1 (3D coordinates assigned)
COc1ccc(C[NH+]2CCN(C(=O)[C@H]3CCCN3C(=O)Cc3[n-]c(=O)[n-]c3[O-])CC2)cc1 (nonaromatic ring conformer: 98.3173686310755 kcal/mol)

>  <smiles>  (40) 
COc1ccc(CN2CCN(C(=O)C3CCCN3C(=O)Cc3[nH]c(=O)[nH]c3O)CC2)cc1

>  <score_type>  (40) 
oracle

>  <origin>  (40) 
adg

>  <m_score__min__energy>  (40) 
-14.880000000000001

>  <m_primary>  (40) 
energy

$$$$
40:0
     RDKit          3D

 52 55  0  0  0  0  0  0  0  0999 V2000
   54.0080   26.3470   46.5700 H   0  0  0  0  0  0  0  0  0  0  0  0
   54.8350   26.3230   45.9860 O   0  0  0  0  0  0  0  0  0  0  0  0
   55.8890   25.4500   46.2480 C   0  0  0  0  0  0  0  0  0  0  0  0
   55.7620   24.3510   47.0100 N   0  0  0  0  0  0  0  0  0  0  0  0
   56.9920   23.7990   46.9430 C   0  0  0  0  0  0  0  0  0  0  0  0
   57.2860   22.7260   47.5330 O   0  0  0  0  0  0  0  0  0  0  0  0
   57.8800   24.4790   46.1850 N   0  0  0  0  0  0  0  0  0  0  0  0
   57.1790   25.5460   45.7670 C   0  0  0  0  0  0  0  0  0  0  0  0
   57.7080   26.5420   44.8240 C   0  0  0  0  0  0  0  0  0  0  0  0
   57.6826   26.2835   43.7551 H   0  0  0  0  0  0  0  0  0  0  0  0
   58.2210   27.7430   45.1530 C   0  0  0  0  0  0  0  0  0  0  0  0
   59.4200   27.8850   45.8320 C   0  0  0  0  0  0  0  0  0  0  0  0
   60.0523   27.0731   46.2207 H   0  0  0  0  0  0  0  0  0  0  0  0
   59.6700   29.2370   45.9280 C   0  0  0  0  0  0  0  0  0  0  0  0
   60.8810   29.8340   46.5810 C   0  0  0  0  0  0  0  0  0  0  0  0
   60.7721   29.7803   47.6743 H   0  0  0  0  0  0  0  0  0  0  0  0
   61.7767   29.2742   46.2738 H   0  0  0  0  0  0  0  0  0  0  0  0
   60.9824   30.8854   46.2738 H   0  0  0  0  0  0  0  0  0  0  0  0
   58.6590   29.9440   45.3750 N   0  0  0  0  0  0  0  0  0  0  0  0
   58.5710   31.3790   45.3140 C   0  0  0  0  0  0  0  0  0  0  0  0
   57.8250   31.9950   44.3000 C   0  0  0  0  0  0  0  0  0  0  0  0
   57.2957   31.3798   43.5574 H   0  0  0  0  0  0  0  0  0  0  0  0
   57.7520   33.3870   44.2300 C   0  0  0  0  0  0  0  0  0  0  0  0
   57.1697   33.8662   43.4292 H   0  0  0  0  0  0  0  0  0  0  0  0
   58.4170   34.1740   45.1750 C   0  0  0  0  0  0  0  0  0  0  0  0
   58.3615   35.2707   45.1104 H   0  0  0  0  0  0  0  0  0  0  0  0
   59.1560   33.5710   46.2070 C   0  0  0  0  0  0  0  0  0  0  0  0
   59.8730   34.3960   47.2060 C   0  0  0  0  0  0  0  0  0  0  0  0
   59.2610   35.3450   47.7680 O   0  0  0  0  0  0  0  0  0  0  0  0
   61.2480   34.1370   47.5550 N   0  0  0  0  0  0  0  0  0  0  0  0
   62.2090   33.8340   46.4840 C   0  0  0  0  0  0  0  0  0  0  0  0
   61.9594   32.8572   46.0441 H   0  0  0  0  0  0  0  0  0  0  0  0
   62.1469   34.6288   45.7261 H   0  0  0  0  0  0  0  0  0  0  0  0
   63.6430   33.7880   47.0210 C   0  0  0  0  0  0  0  0  0  0  0  0
   64.3150   33.4584   46.2149 H   0  0  0  0  0  0  0  0  0  0  0  0
   63.9106   34.7962   47.3702 H   0  0  0  0  0  0  0  0  0  0  0  0
   63.7760   32.8180   48.2090 C   0  0  0  0  0  0  0  0  0  0  0  0
   63.8802   31.7974   47.8121 H   0  0  0  0  0  0  0  0  0  0  0  0
   64.6555   33.1402   48.7858 H   0  0  0  0  0  0  0  0  0  0  0  0
   62.5680   32.8420   49.1820 C   0  0  2  0  0  0  0  0  0  0  0  0
   62.9786   32.8907   50.2013 H   0  0  0  0  0  0  0  0  0  0  0  0
   61.7930   31.6820   49.0170 O   0  0  0  0  0  0  0  0  0  0  0  0
   60.9990   31.9420   48.4810 H   0  0  0  0  0  0  0  0  0  0  0  0
   61.6710   34.0680   48.9630 C   0  0  0  0  0  0  0  0  0  0  0  0
   60.7826   33.9891   49.6068 H   0  0  0  0  0  0  0  0  0  0  0  0
   62.2351   34.9779   49.2156 H   0  0  0  0  0  0  0  0  0  0  0  0
   59.2390   32.1690   46.2610 C   0  0  0  0  0  0  0  0  0  0  0  0
   59.8325   31.6876   47.0522 H   0  0  0  0  0  0  0  0  0  0  0  0
   57.7480   29.0450   44.9160 C   0  0  0  0  0  0  0  0  0  0  0  0
   56.5400   29.3980   44.4480 C   0  0  0  0  0  0  0  0  0  0  0  0
   56.2939   30.4608   44.3069 H   0  0  0  0  0  0  0  0  0  0  0  0
   55.7965   28.6244   44.2057 H   0  0  0  0  0  0  0  0  0  0  0  0
  1  2  1  0
  2  3  1  0
  3  4  1  0
  4  5  1  0
  5  6  2  0
  5  7  1  0
  7  8  1  0
  8  9  1  0
  9 10  1  0
  9 11  2  0
 11 12  1  0
 12 13  1  0
 12 14  2  0
 14 15  1  0
 15 16  1  0
 15 17  1  0
 15 18  1  0
 14 19  1  0
 19 20  1  0
 20 21  2  0
 21 22  1  0
 21 23  1  0
 23 24  1  0
 23 25  2  0
 25 26  1  0
 25 27  1  0
 27 28  1  0
 28 29  2  0
 28 30  1  0
 30 31  1  0
 31 32  1  0
 31 33  1  0
 31 34  1  0
 34 35  1  0
 34 36  1  0
 34 37  1  0
 37 38  1  0
 37 39  1  0
 37 40  1  0
 40 41  1  1
 40 42  1  0
 42 43  1  0
 40 44  1  0
 44 45  1  0
 44 46  1  0
 27 47  2  0
 47 48  1  0
 19 49  1  0
 49 50  2  0
 50 51  1  0
 50 52  1  0
  8  3  2  0
 49 11  1  0
 47 20  1  0
 44 30  1  0
M  CHG  2   4  -1   7  -1
M  END
>  <UniqueID>  (41) 
38

>  <SMILES>  (41) 
C=c1/c(=C\c2[n-]c(=O)[n-]c2O)cc(C)n1-c1cccc(C(=O)N2CCC[C@H](O)C2)c1

>  <Energy>  (41) 
136.09221188908697

>  <Genealogy>  (41) 
C=c1c(=Cc2[n-]c(=O)[n-]c2O)cc(C)n1-c1cccc(C(=O)N2CCCC(O)C2)c1 (protonated)
C=c1c(=Cc2[n-]c(=O)[n-]c2O)cc(C)n1-c1cccc(C(=O)N2CCC[C@H](O)C2)c1 (chirality)
C=c1/c(=C\c2[n-]c(=O)[n-]c2O)cc(C)n1-c1cccc(C(=O)N2CCC[C@H](O)C2)c1 (cis-trans isomerization)
C=c1/c(=C\c2[n-]c(=O)[n-]c2O)cc(C)n1-c1cccc(C(=O)N2CCC[C@H](O)C2)c1 (3D coordinates assigned)
C=c1/c(=C\c2[n-]c(=O)[n-]c2O)cc(C)n1-c1cccc(C(=O)N2CCC[C@H](O)C2)c1 (nonaromatic ring conformer: 136.09221188908697 kcal/mol)

>  <smiles>  (41) 
C=c1c(=Cc2[nH]c(=O)[nH]c2O)cc(C)n1-c1cccc(C(=O)N2CCCC(O)C2)c1

>  <score_type>  (41) 
oracle

>  <origin>  (41) 
adg

>  <m_score__min__energy>  (41) 
-14.300000000000001

>  <m_primary>  (41) 
energy

$$$$
41:0
     RDKit          3D

 59 62  0  0  0  0  0  0  0  0999 V2000
   58.4530   25.1050   45.1660 O   0  0  0  0  0  0  0  0  0  0  0  0
   58.1320   25.2560   46.3760 C   0  0  0  0  0  0  0  0  0  0  0  0
   58.2650   26.6040   47.0140 C   0  0  0  0  0  0  0  0  0  0  0  0
   57.6810   27.7140   46.1720 C   0  0  0  0  0  0  0  0  0  0  0  0
   56.3870   27.7780   45.6750 C   0  0  0  0  0  0  0  0  0  0  0  0
   55.4000   26.8060   45.7770 O   0  0  0  0  0  0  0  0  0  0  0  0
   56.2430   28.9980   45.0650 C   0  0  0  0  0  0  0  0  0  0  0  0
   55.1000   29.4550   44.4140 O   0  0  0  0  0  0  0  0  0  0  0  0
   57.4420   29.6660   45.2150 C   0  0  0  0  0  0  0  0  0  0  0  0
   57.7180   31.0240   44.7150 C   0  0  0  0  0  0  0  0  0  0  0  0
   58.6160   31.1890   43.8490 O   0  0  0  0  0  0  0  0  0  0  0  0
   57.0160   32.1670   45.2180 N   0  0  0  0  0  0  0  0  0  0  0  0
   57.5190   33.5370   45.1760 C   0  0  0  0  0  0  0  0  0  0  0  0
   58.6940   33.6960   46.1020 C   0  0  0  0  0  0  0  0  0  0  0  0
   58.5150   34.1870   47.4060 C   0  0  0  0  0  0  0  0  0  0  0  0
   59.6080   34.2950   48.2710 C   0  0  0  0  0  0  0  0  0  0  0  0
   60.8840   33.9160   47.8440 C   0  0  0  0  0  0  0  0  0  0  0  0
   62.2480   34.0440   48.9390 Cl  0  0  0  0  0  0  0  0  0  0  0  0
   61.0700   33.4340   46.5450 C   0  0  0  0  0  0  0  0  0  0  0  0
   59.9810   33.3270   45.6750 C   0  0  0  0  0  0  0  0  0  0  0  0
   58.3150   28.8910   45.9110 N   0  0  0  0  0  0  0  0  0  0  0  0
   59.6620   29.2800   46.3590 C   0  0  0  0  0  0  0  0  0  0  0  0
   59.6570   29.7020   47.8100 C   0  0  0  0  0  0  0  0  0  0  0  0
   59.0310   30.9030   48.1890 C   0  0  0  0  0  0  0  0  0  0  0  0
   59.0260   31.3080   49.5270 C   0  0  0  0  0  0  0  0  0  0  0  0
   59.6360   30.5150   50.5000 C   0  0  0  0  0  0  0  0  0  0  0  0
   60.2490   29.3130   50.1390 C   0  0  0  0  0  0  0  0  0  0  0  0
   60.2580   28.9010   48.8020 C   0  0  0  0  0  0  0  0  0  0  0  0
   60.8610   27.6930   48.4710 O   0  0  0  0  0  0  0  0  0  0  0  0
   57.6560   24.1480   47.1460 N   0  0  0  0  0  0  0  0  0  0  0  0
   56.4740   23.3720   46.7900 C   0  0  0  0  0  0  0  0  0  0  0  0
   56.5520   22.9480   45.3490 C   0  0  0  0  0  0  0  0  0  0  0  0
   55.7360   23.5690   44.3910 C   0  0  0  0  0  0  0  0  0  0  0  0
   55.7620   23.1440   43.0590 C   0  0  0  0  0  0  0  0  0  0  0  0
   56.6000   22.0930   42.6760 C   0  0  0  0  0  0  0  0  0  0  0  0
   57.4160   21.4680   43.6250 C   0  0  0  0  0  0  0  0  0  0  0  0
   57.3920   21.8920   44.9570 C   0  0  0  0  0  0  0  0  0  0  0  0
   57.7436   26.5868   47.9824 H   0  0  0  0  0  0  0  0  0  0  0  0
   59.3394   26.8090   47.1307 H   0  0  0  0  0  0  0  0  0  0  0  0
   54.2160   28.9700   44.5040 H   0  0  0  0  0  0  0  0  0  0  0  0
   57.8326   33.7761   44.1491 H   0  0  0  0  0  0  0  0  0  0  0  0
   56.7184   34.2197   45.4970 H   0  0  0  0  0  0  0  0  0  0  0  0
   57.5132   34.4870   47.7470 H   0  0  0  0  0  0  0  0  0  0  0  0
   59.4634   34.6796   49.2914 H   0  0  0  0  0  0  0  0  0  0  0  0
   62.0743   33.1386   46.2071 H   0  0  0  0  0  0  0  0  0  0  0  0
   60.1321   32.9524   44.6519 H   0  0  0  0  0  0  0  0  0  0  0  0
   60.3415   28.4236   46.2372 H   0  0  0  0  0  0  0  0  0  0  0  0
   59.9978   30.1326   45.7504 H   0  0  0  0  0  0  0  0  0  0  0  0
   58.5419   31.5280   47.4273 H   0  0  0  0  0  0  0  0  0  0  0  0
   58.5407   32.2528   49.8132 H   0  0  0  0  0  0  0  0  0  0  0  0
   59.6340   30.8368   51.5519 H   0  0  0  0  0  0  0  0  0  0  0  0
   60.7262   28.6883   50.9084 H   0  0  0  0  0  0  0  0  0  0  0  0
   56.4181   22.4791   47.4300 H   0  0  0  0  0  0  0  0  0  0  0  0
   55.5773   23.9922   46.9359 H   0  0  0  0  0  0  0  0  0  0  0  0
   55.0726   24.3942   44.6893 H   0  0  0  0  0  0  0  0  0  0  0  0
   55.1225   23.6372   42.3121 H   0  0  0  0  0  0  0  0  0  0  0  0
   56.6179   21.7574   41.6286 H   0  0  0  0  0  0  0  0  0  0  0  0
   58.0770   20.6423   43.3229 H   0  0  0  0  0  0  0  0  0  0  0  0
   58.0333   21.3969   45.7011 H   0  0  0  0  0  0  0  0  0  0  0  0
  1  2  2  0
  2  3  1  0
  3  4  1  0
  4  5  2  0
  5  6  1  0
  5  7  1  0
  7  8  1  0
  7  9  2  0
  9 10  1  0
 10 11  2  0
 10 12  1  0
 12 13  1  0
 13 14  1  0
 14 15  2  0
 15 16  1  0
 16 17  2  0
 17 18  1  0
 17 19  1  0
 19 20  2  0
  9 21  1  0
 21 22  1  0
 22 23  1  0
 23 24  2  0
 24 25  1  0
 25 26  2  0
 26 27  1  0
 27 28  2  0
 28 29  1  0
  2 30  1  0
 30 31  1  0
 31 32  1  0
 32 33  2  0
 33 34  1  0
 34 35  2  0
 35 36  1  0
 36 37  2  0
 21  4  1  0
 28 23  1  0
 37 32  1  0
 20 14  1  0
  3 38  1  0
  3 39  1  0
  8 40  1  0
 13 41  1  0
 13 42  1  0
 15 43  1  0
 16 44  1  0
 19 45  1  0
 20 46  1  0
 22 47  1  0
 22 48  1  0
 24 49  1  0
 25 50  1  0
 26 51  1  0
 27 52  1  0
 31 53  1  0
 31 54  1  0
 33 55  1  0
 34 56  1  0
 35 57  1  0
 36 58  1  0
 37 59  1  0
M  CHG  4   6  -1  12  -1  29  -1  30  -1
M  END
>  <UniqueID>  (42) 
39

>  <SMILES>  (42) 
O=C(Cc1c([O-])c(O)c(C(=O)[N-]Cc2ccc(Cl)cc2)n1Cc1ccccc1[O-])[N-]Cc1ccccc1

>  <Energy>  (42) 
89.1299322506885

>  <Genealogy>  (42) 
O=C(Cc1c([O-])c(O)c(C(=O)[N-]Cc2ccc(Cl)cc2)n1Cc1ccccc1[O-])[N-]Cc1ccccc1 (protonated)
O=C(Cc1c([O-])c(O)c(C(=O)[N-]Cc2ccc(Cl)cc2)n1Cc1ccccc1[O-])[N-]Cc1ccccc1 (3D coordinates assigned)
O=C(Cc1c([O-])c(O)c(C(=O)[N-]Cc2ccc(Cl)cc2)n1Cc1ccccc1[O-])[N-]Cc1ccccc1 (optimized conformer: 89.1299322506885 kcal/mol)

>  <smiles>  (42) 
O=C(Cc1c(O)c(O)c(C(=O)NCc2ccc(Cl)cc2)n1Cc1ccccc1O)NCc1ccccc1

>  <score_type>  (42) 
oracle

>  <origin>  (42) 
adg

>  <m_score__min__energy>  (42) 
-16.91

>  <m_primary>  (42) 
energy

$$$$
42:0
     RDKit          3D

 38 40  0  0  0  0  0  0  0  0999 V2000
   59.0020   34.9540   48.0270 O   0  0  0  0  0  0  0  0  0  0  0  0
   58.9460   33.9560   47.2590 C   0  0  0  0  0  0  0  0  0  0  0  0
   57.7850   33.6790   46.6190 N   0  0  0  0  0  0  0  0  0  0  0  0
   57.6590   32.6060   45.7980 C   0  0  0  0  0  0  0  0  0  0  0  0
   56.5460   32.3930   45.2490 O   0  0  0  0  0  0  0  0  0  0  0  0
   58.7270   31.7660   45.5880 N   0  0  0  0  0  0  0  0  0  0  0  0
   58.6400   30.5660   44.7260 C   0  0  2  0  0  0  0  0  0  0  0  0
   57.7100   30.7430   43.6770 O   0  0  0  0  0  0  0  0  0  0  0  0
   57.0810   29.4970   43.4460 C   0  0  2  0  0  0  0  0  0  0  0  0
   55.5560   29.6920   43.5480 C   0  0  0  0  0  0  0  0  0  0  0  0
   55.1700   29.9640   44.8680 O   0  0  0  0  0  0  0  0  0  0  0  0
   57.6520   28.4630   44.4330 C   0  0  2  0  0  0  0  0  0  0  0  0
   56.6880   27.5800   44.9520 O   0  0  0  0  0  0  0  0  0  0  0  0
   58.2620   29.3180   45.5140 C   0  0  2  0  0  0  0  0  0  0  0  0
   57.3170   29.6230   46.5100 O   0  0  0  0  0  0  0  0  0  0  0  0
   59.9060   32.0090   46.2380 C   0  0  0  0  0  0  0  0  0  0  0  0
   60.0550   33.1170   47.0820 C   0  0  0  0  0  0  0  0  0  0  0  0
   61.3500   33.3680   47.7630 C   0  0  0  0  0  0  0  0  0  0  0  0
   61.3790   33.7230   49.1240 C   0  0  0  0  0  0  0  0  0  0  0  0
   62.5980   33.9520   49.7700 C   0  0  0  0  0  0  0  0  0  0  0  0
   63.7980   33.8250   49.0660 C   0  0  0  0  0  0  0  0  0  0  0  0
   63.7820   33.4650   47.7160 C   0  0  0  0  0  0  0  0  0  0  0  0
   62.5660   33.2360   47.0660 C   0  0  0  0  0  0  0  0  0  0  0  0
   59.6455   30.4273   44.3022 H   0  0  0  0  0  0  0  0  0  0  0  0
   57.2829   29.1082   42.4370 H   0  0  0  0  0  0  0  0  0  0  0  0
   55.2575   30.5335   42.9056 H   0  0  0  0  0  0  0  0  0  0  0  0
   55.0623   28.7642   43.2233 H   0  0  0  0  0  0  0  0  0  0  0  0
   55.8570   30.5720   45.2460 H   0  0  0  0  0  0  0  0  0  0  0  0
   58.3701   27.7894   43.9426 H   0  0  0  0  0  0  0  0  0  0  0  0
   56.0960   28.1230   45.5350 H   0  0  0  0  0  0  0  0  0  0  0  0
   59.0999   28.8440   46.0462 H   0  0  0  0  0  0  0  0  0  0  0  0
   56.7410   30.3430   46.1460 H   0  0  0  0  0  0  0  0  0  0  0  0
   60.7527   31.3215   46.0952 H   0  0  0  0  0  0  0  0  0  0  0  0
   60.4370   33.8211   49.6835 H   0  0  0  0  0  0  0  0  0  0  0  0
   62.6120   34.2324   50.8336 H   0  0  0  0  0  0  0  0  0  0  0  0
   64.7559   34.0085   49.5747 H   0  0  0  0  0  0  0  0  0  0  0  0
   64.7278   33.3617   47.1639 H   0  0  0  0  0  0  0  0  0  0  0  0
   62.5591   32.9510   46.0036 H   0  0  0  0  0  0  0  0  0  0  0  0
  1  2  2  0
  2  3  1  0
  3  4  1  0
  4  5  2  0
  4  6  1  0
  6  7  1  0
  7  8  1  0
  8  9  1  0
  9 10  1  0
 10 11  1  0
  9 12  1  0
 12 13  1  0
 12 14  1  0
 14 15  1  0
  6 16  1  0
 16 17  2  0
 17 18  1  0
 18 19  2  0
 19 20  1  0
 20 21  2  0
 21 22  1  0
 22 23  2  0
 17  2  1  0
 23 18  1  0
 14  7  1  0
  7 24  1  6
  9 25  1  6
 10 26  1  0
 10 27  1  0
 11 28  1  0
 12 29  1  6
 13 30  1  0
 14 31  1  1
 15 32  1  0
 16 33  1  0
 19 34  1  0
 20 35  1  0
 21 36  1  0
 22 37  1  0
 23 38  1  0
M  CHG  1   3  -1
M  END
>  <UniqueID>  (43) 
40

>  <SMILES>  (43) 
O=c1[n-]c(=O)n([C@@H]2O[C@H](CO)C(O)C2O)cc1-c1ccccc1

>  <Energy>  (43) 
54.59699247720685

>  <Genealogy>  (43) 
O=c1[n-]c(=O)n(C2OC(CO)C(O)C2O)cc1-c1ccccc1 (protonated)
O=c1[n-]c(=O)n([C@@H]2O[C@H](CO)C(O)C2O)cc1-c1ccccc1 (chirality)
O=c1[n-]c(=O)n([C@@H]2O[C@H](CO)C(O)C2O)cc1-c1ccccc1 (3D coordinates assigned)
O=c1[n-]c(=O)n([C@@H]2O[C@H](CO)C(O)C2O)cc1-c1ccccc1 (nonaromatic ring conformer: 54.59699247720685 kcal/mol)

>  <smiles>  (43) 
O=c1[nH]c(=O)n(C2OC(CO)C(O)C2O)cc1-c1ccccc1

>  <score_type>  (43) 
oracle

>  <origin>  (43) 
adg

>  <m_score__min__energy>  (43) 
-7.8700000000000001

>  <m_primary>  (43) 
energy

$$$$
43:0
     RDKit          3D

 48 51  0  0  1  0  0  0  0  0999 V2000
   63.1800   33.1180   49.5990 C   0  0  0  0  0  0  0  0  0  0  0  0
   61.8960   32.5550   49.8640 O   0  0  0  0  0  0  0  0  0  0  0  0
   61.2700   31.7490   48.9230 C   0  0  0  0  0  0  0  0  0  0  0  0
   60.1490   31.0350   49.2760 C   0  0  0  0  0  0  0  0  0  0  0  0
   59.4800   30.2110   48.3650 C   0  0  0  0  0  0  0  0  0  0  0  0
   59.9410   30.1000   47.0820 C   0  0  0  0  0  0  0  0  0  0  0  0
   59.3540   29.3250   46.0610 N   0  0  0  0  0  0  0  0  0  0  0  0
   59.1550   27.9290   46.0780 C   0  0  0  0  0  0  0  0  0  0  0  0
   60.1480   27.0090   46.3570 C   0  0  0  0  0  0  0  0  0  0  0  0
   59.9250   25.6440   46.3600 C   0  0  0  0  0  0  0  0  0  0  0  0
   58.6800   25.1250   46.0780 C   0  0  0  0  0  0  0  0  0  0  0  0
   57.6800   26.0260   45.7980 C   0  0  0  0  0  0  0  0  0  0  0  0
   57.9060   27.4100   45.7950 C   0  0  0  0  0  0  0  0  0  0  0  0
   56.7290   28.2450   45.4500 C   0  0  0  0  0  0  0  0  0  0  0  0
   57.0560   29.4360   44.6400 C   0  0  0  0  0  0  0  0  0  0  0  0
   57.4260   29.5850   43.3690 N   0  0  0  0  0  0  0  0  0  0  0  0
   57.6150   30.8730   43.0810 N   0  0  0  0  0  0  0  0  0  0  0  0
   57.3490   31.5350   44.2200 C   0  0  0  0  0  0  0  0  0  0  0  0
   57.4070   32.8050   44.3920 N   0  0  0  0  0  0  0  0  0  0  0  0
   58.1560   33.4310   45.4210 C   0  0  0  0  0  0  0  0  0  0  0  0
   59.0830   34.3950   45.0620 C   0  0  0  0  0  0  0  0  0  0  0  0
   59.8070   34.9990   46.0730 C   0  0  0  0  0  0  0  0  0  0  0  0
   59.6050   34.6460   47.4030 C   0  0  0  0  0  0  0  0  0  0  0  0
   58.6720   33.6740   47.7550 C   0  0  0  0  0  0  0  0  0  0  0  0
   57.9470   33.0710   46.7260 C   0  0  0  0  0  0  0  0  0  0  0  0
   57.0180   30.6590   45.1380 O   0  0  0  0  0  0  0  0  0  0  0  0
   61.0810   30.8290   46.7290 C   0  0  0  0  0  0  0  0  0  0  0  0
   61.7330   31.6410   47.6390 C   0  0  0  0  0  0  0  0  0  0  0  0
   63.6864   33.3400   50.5499 H   0  0  0  0  0  0  0  0  0  0  0  0
   63.7824   32.4015   49.0214 H   0  0  0  0  0  0  0  0  0  0  0  0
   63.0611   34.0466   49.0214 H   0  0  0  0  0  0  0  0  0  0  0  0
   59.7673   31.1142   50.3046 H   0  0  0  0  0  0  0  0  0  0  0  0
   58.5854   29.6536   48.6796 H   0  0  0  0  0  0  0  0  0  0  0  0
   59.0310   29.8610   45.2090 H   0  0  0  0  0  0  0  0  0  0  0  0
   61.1585   27.3781   46.5864 H   0  0  0  0  0  0  0  0  0  0  0  0
   60.7556   24.9610   46.5914 H   0  0  0  0  0  0  0  0  0  0  0  0
   58.4949   24.0407   46.0770 H   0  0  0  0  0  0  0  0  0  0  0  0
   56.6719   25.6498   45.5694 H   0  0  0  0  0  0  0  0  0  0  0  0
   56.0189   27.6250   44.8830 H   0  0  0  0  0  0  0  0  0  0  0  0
   56.3079   28.6101   46.3984 H   0  0  0  0  0  0  0  0  0  0  0  0
   57.9060   31.3130   42.1780 H   0  0  0  0  0  0  0  0  0  0  0  0
   59.2380   34.6707   44.0085 H   0  0  0  0  0  0  0  0  0  0  0  0
   60.5521   35.7684   45.8224 H   0  0  0  0  0  0  0  0  0  0  0  0
   60.1918   35.1427   48.1897 H   0  0  0  0  0  0  0  0  0  0  0  0
   58.5122   33.3916   48.8061 H   0  0  0  0  0  0  0  0  0  0  0  0
   57.2006   32.2992   46.9653 H   0  0  0  0  0  0  0  0  0  0  0  0
   61.4686   30.7547   45.7023 H   0  0  0  0  0  0  0  0  0  0  0  0
   62.6271   32.2023   47.3300 H   0  0  0  0  0  0  0  0  0  0  0  0
  1  2  1  0
  2  3  1  0
  3  4  2  0
  4  5  1  0
  5  6  2  0
  6  7  1  0
  7  8  1  0
  8  9  2  0
  9 10  1  0
 10 11  2  0
 11 12  1  0
 12 13  2  0
 13 14  1  0
 14 15  1  0
 15 16  2  0
 16 17  1  0
 17 18  1  0
 18 19  2  0
 19 20  1  0
 20 21  2  0
 21 22  1  0
 22 23  2  0
 23 24  1  0
 24 25  2  0
 18 26  1  0
  6 27  1  0
 27 28  2  0
 28  3  1  0
 13  8  1  0
 26 15  1  0
 25 20  1  0
  1 29  1  0
  1 30  1  0
  1 31  1  0
  4 32  1  0
  5 33  1  0
  7 34  1  0
  9 35  1  0
 10 36  1  0
 11 37  1  0
 12 38  1  0
 14 39  1  0
 14 40  1  0
 17 41  1  0
 21 42  1  0
 22 43  1  0
 23 44  1  0
 24 45  1  0
 25 46  1  0
 27 47  1  0
 28 48  1  0
M  END
>  <smiles>  (44) 
COc1ccc(Nc2ccccc2Cc2n[nH]c(=Nc3ccccc3)o2)cc1

>  <score_type>  (44) 
oracle

>  <origin>  (44) 
adg

>  <m_score__min__energy>  (44) 
-9.3900000000000006

>  <m_primary>  (44) 
energy

$$$$
44:0
     RDKit          3D

 61 65  0  0  1  0  0  0  0  0999 V2000
   56.7420   31.7680   51.8530 N   0  0  0  0  0  0  0  0  0  0  0  0
   57.4090   30.5650   51.4650 C   0  0  0  0  0  0  0  0  0  0  0  0
   57.0980   29.4470   51.9900 O   0  0  0  0  0  0  0  0  0  0  0  0
   58.4550   30.6570   50.4520 C   0  0  0  0  0  0  0  0  0  0  0  0
   59.4600   29.6940   50.3580 C   0  0  0  0  0  0  0  0  0  0  0  0
   60.4460   29.8120   49.3770 C   0  0  0  0  0  0  0  0  0  0  0  0
   60.4150   30.8830   48.5100 C   0  0  0  0  0  0  0  0  0  0  0  0
   57.2610   29.6150   44.9290 C   0  0  0  0  0  0  0  0  0  0  0  0
   56.8950   30.9200   44.4950 N   0  0  0  0  0  0  0  0  0  0  0  0
   57.5300   31.9390   44.9630 C   0  0  0  0  0  0  0  0  0  0  0  0
   58.1930   31.9130   46.1320 N   0  0  0  0  0  0  0  0  0  0  0  0
   58.8440   33.0210   46.5800 C   0  0  0  0  0  0  0  0  0  0  0  0
   59.4550   32.9620   47.6830 N   0  0  0  0  0  0  0  0  0  0  0  0
   59.4210   31.8670   48.5780 C   0  0  0  0  0  0  0  0  0  0  0  0
   56.3340   28.6290   45.2150 C   0  0  0  0  0  0  0  0  0  0  0  0
   56.7900   27.3910   45.6300 C   0  0  0  0  0  0  0  0  0  0  0  0
   58.1360   27.1190   45.7660 C   0  0  0  0  0  0  0  0  0  0  0  0
   59.0410   28.1200   45.4730 C   0  0  0  0  0  0  0  0  0  0  0  0
   60.3100   27.6150   45.6810 C   0  0  0  0  0  0  0  0  0  0  0  0
   60.1320   26.3050   46.0990 C   0  0  0  0  0  0  0  0  0  0  0  0
   58.8190   26.0060   46.1500 N   0  0  0  0  0  0  0  0  0  0  0  0
   58.1940   24.7530   46.5350 C   0  0  0  0  0  0  0  0  0  0  0  0
   58.6380   23.6250   45.6020 C   0  0  0  0  0  0  0  0  0  0  0  0
   57.5270   23.0500   44.9110 N   0  0  0  0  0  0  0  0  0  0  0  0
   57.7000   21.6730   44.5730 C   0  0  0  0  0  0  0  0  0  0  0  0
   57.3270   21.4500   43.1350 C   0  0  0  0  0  0  0  0  0  0  0  0
   55.9940   21.8480   43.0100 O   0  0  0  0  0  0  0  0  0  0  0  0
   55.9580   23.2210   43.0320 C   0  0  0  0  0  0  0  0  0  0  0  0
   56.9810   23.8840   43.8870 C   0  0  0  0  0  0  0  0  0  0  0  0
   58.6240   29.3670   45.0580 C   0  0  0  0  0  0  0  0  0  0  0  0
   57.5140   33.0740   44.2280 N   0  0  0  0  0  0  0  0  0  0  0  0
   58.1540   34.1940   44.6460 C   0  0  0  0  0  0  0  0  0  0  0  0
   58.8340   34.1800   45.8410 C   0  0  0  0  0  0  0  0  0  0  0  0
   59.6440   35.6390   46.3510 Cl  0  0  0  0  0  0  0  0  0  0  0  0
   58.4360   31.7360   49.5670 C   0  0  0  0  0  0  0  0  0  0  0  0
   57.2420   32.5300   52.3940 H   0  0  0  0  0  0  0  0  0  0  0  0
   55.7400   31.9610   51.6270 H   0  0  0  0  0  0  0  0  0  0  0  0
   59.4754   28.8435   51.0555 H   0  0  0  0  0  0  0  0  0  0  0  0
   61.2413   29.0563   49.2965 H   0  0  0  0  0  0  0  0  0  0  0  0
   61.1960   30.9675   47.7400 H   0  0  0  0  0  0  0  0  0  0  0  0
   58.2170   31.0630   46.7010 H   0  0  0  0  0  0  0  0  0  0  0  0
   55.2564   28.8255   45.1144 H   0  0  0  0  0  0  0  0  0  0  0  0
   56.0593   26.6011   45.8580 H   0  0  0  0  0  0  0  0  0  0  0  0
   61.2649   28.1434   45.5433 H   0  0  0  0  0  0  0  0  0  0  0  0
   60.9457   25.6096   46.3526 H   0  0  0  0  0  0  0  0  0  0  0  0
   58.4846   24.5053   47.5666 H   0  0  0  0  0  0  0  0  0  0  0  0
   57.1018   24.8636   46.4654 H   0  0  0  0  0  0  0  0  0  0  0  0
   59.3474   24.0291   44.8648 H   0  0  0  0  0  0  0  0  0  0  0  0
   59.1107   22.8396   46.2101 H   0  0  0  0  0  0  0  0  0  0  0  0
   58.7517   21.3891   44.7255 H   0  0  0  0  0  0  0  0  0  0  0  0
   57.0526   21.0578   45.2152 H   0  0  0  0  0  0  0  0  0  0  0  0
   57.9684   22.0546   42.4769 H   0  0  0  0  0  0  0  0  0  0  0  0
   57.4587   20.3968   42.8463 H   0  0  0  0  0  0  0  0  0  0  0  0
   56.0972   23.5785   42.0011 H   0  0  0  0  0  0  0  0  0  0  0  0
   54.9851   23.4866   43.4711 H   0  0  0  0  0  0  0  0  0  0  0  0
   57.8054   24.2183   43.2400 H   0  0  0  0  0  0  0  0  0  0  0  0
   56.4718   24.7145   44.3978 H   0  0  0  0  0  0  0  0  0  0  0  0
   59.3582   30.1543   44.8322 H   0  0  0  0  0  0  0  0  0  0  0  0
   57.0050   33.1360   43.3040 H   0  0  0  0  0  0  0  0  0  0  0  0
   58.1293   35.1073   44.0334 H   0  0  0  0  0  0  0  0  0  0  0  0
   57.6402   32.4912   49.6463 H   0  0  0  0  0  0  0  0  0  0  0  0
  1  2  1  0
  2  3  2  0
  2  4  1  0
  4  5  2  0
  5  6  1  0
  6  7  2  0
  7  8  1  0
  8  9  1  0
  9 10  2  0
 10 11  1  0
 11 12  1  0
 12 13  2  0
 13 14  1  0
 14 15  2  0
 15 16  1  0
 16 17  2  0
 17 18  1  0
 18 19  1  0
 19 20  2  0
 20 21  1  0
 21 22  1  0
 22 23  1  0
 23 24  1  0
 24 25  1  0
 25 26  1  0
 26 27  1  0
 27 28  1  0
 28 29  1  0
 18 30  2  0
 12 31  1  0
 31 32  1  0
 32 33  2  0
 33 34  1  0
  8 35  2  0
 35  4  1  0
 33 10  1  0
 30 14  1  0
 21 17  1  0
 29 24  1  0
  1 36  1  0
  1 37  1  0
  5 38  1  0
  6 39  1  0
  7 40  1  0
 11 41  1  0
 15 42  1  0
 16 43  1  0
 19 44  1  0
 20 45  1  0
 22 46  1  0
 22 47  1  0
 23 48  1  0
 23 49  1  0
 25 50  1  0
 25 51  1  0
 26 52  1  0
 26 53  1  0
 28 54  1  0
 28 55  1  0
 29 56  1  0
 29 57  1  0
 30 58  1  0
 31 59  1  0
 32 60  1  0
 35 61  1  0
M  END
>  <smiles>  (45) 
NC(=O)c1cccc(N=c2[nH]c(=Nc3ccc4c(ccn4CCN4CCOCC4)c3)[nH]cc2Cl)c1

>  <score_type>  (45) 
oracle

>  <origin>  (45) 
adg

>  <m_score__min__energy>  (45) 
-10.25

>  <m_primary>  (45) 
energy

$$$$
45:0
     RDKit          3D

 52 55  0  0  0  0  0  0  0  0999 V2000
   50.3190   32.7140   52.0310 N   0  0  0  0  0  0  0  0  0  0  0  0
   51.3190   32.1890   51.1610 C   0  0  0  0  0  0  0  0  0  0  0  0
   51.3920   32.6090   49.9750 O   0  0  0  0  0  0  0  0  0  0  0  0
   52.2580   31.1630   51.6530 C   0  0  0  0  0  0  0  0  0  0  0  0
   51.8210   29.8690   51.9680 C   0  0  0  0  0  0  0  0  0  0  0  0
   52.7390   28.9320   52.4400 C   0  0  0  0  0  0  0  0  0  0  0  0
   54.0820   29.2820   52.5880 C   0  0  0  0  0  0  0  0  0  0  0  0
   54.4990   30.5820   52.2480 C   0  0  0  0  0  0  0  0  0  0  0  0
   55.9010   31.0400   52.3860 C   0  0  0  0  0  0  0  0  0  0  0  0
   56.8210   30.9370   51.4130 C   0  0  0  0  0  0  0  0  0  0  0  0
   57.8760   31.9540   51.1810 C   0  0  0  0  0  0  0  0  0  0  0  0
   58.3750   32.6710   52.2800 C   0  0  0  0  0  0  0  0  0  0  0  0
   59.3690   33.6370   52.1040 C   0  0  0  0  0  0  0  0  0  0  0  0
   59.8730   33.9020   50.8300 C   0  0  0  0  0  0  0  0  0  0  0  0
   59.3790   33.2060   49.7160 C   0  0  0  0  0  0  0  0  0  0  0  0
   59.9470   33.4810   48.3460 C   0  0  0  0  0  0  0  0  0  0  0  0
   58.9140   33.3040   47.3200 N   0  0  0  0  0  0  0  0  0  0  0  0
   58.2560   34.3150   46.7130 C   0  0  0  0  0  0  0  0  0  0  0  0
   57.4570   33.8210   45.7020 C   0  0  0  0  0  0  0  0  0  0  0  0
   57.6420   32.4540   45.6830 C   0  0  0  0  0  0  0  0  0  0  0  0
   58.5410   32.1620   46.6930 C   0  0  0  0  0  0  0  0  0  0  0  0
   59.0410   30.8080   46.9920 C   0  0  0  0  0  0  0  0  0  0  0  0
   60.2660   30.6250   47.2230 O   0  0  0  0  0  0  0  0  0  0  0  0
   58.1120   29.7130   47.0540 N   0  0  0  0  0  0  0  0  0  0  0  0
   58.2240   28.5660   46.4480 C   0  0  0  0  0  0  0  0  0  0  0  0
   59.3130   27.7670   46.6460 N   0  0  0  0  0  0  0  0  0  0  0  0
   59.4600   26.5760   46.0100 C   0  0  0  0  0  0  0  0  0  0  0  0
   58.4830   26.1330   45.1190 C   0  0  0  0  0  0  0  0  0  0  0  0
   57.3570   26.9280   44.8920 C   0  0  0  0  0  0  0  0  0  0  0  0
   57.2210   28.1550   45.5560 C   0  0  0  0  0  0  0  0  0  0  0  0
   56.1030   28.9580   45.3340 O   0  0  0  0  0  0  0  0  0  0  0  0
   58.3660   32.2480   49.8940 C   0  0  0  0  0  0  0  0  0  0  0  0
   53.5740   31.4780   51.8050 N   0  0  0  0  0  0  0  0  0  0  0  0
   50.0400   33.7180   51.9830 H   0  0  0  0  0  0  0  0  0  0  0  0
   50.7629   29.5952   51.8439 H   0  0  0  0  0  0  0  0  0  0  0  0
   52.4046   27.9158   52.6960 H   0  0  0  0  0  0  0  0  0  0  0  0
   54.8081   28.5478   52.9672 H   0  0  0  0  0  0  0  0  0  0  0  0
   56.2065   31.4910   53.3416 H   0  0  0  0  0  0  0  0  0  0  0  0
   56.7908   30.0554   50.7559 H   0  0  0  0  0  0  0  0  0  0  0  0
   57.9805   32.4708   53.2871 H   0  0  0  0  0  0  0  0  0  0  0  0
   59.7555   34.1904   52.9725 H   0  0  0  0  0  0  0  0  0  0  0  0
   60.6602   34.6590   50.6985 H   0  0  0  0  0  0  0  0  0  0  0  0
   60.3210   34.5148   48.3094 H   0  0  0  0  0  0  0  0  0  0  0  0
   60.7680   32.7753   48.1516 H   0  0  0  0  0  0  0  0  0  0  0  0
   58.3440   35.3773   46.9847 H   0  0  0  0  0  0  0  0  0  0  0  0
   56.8001   34.4041   45.0398 H   0  0  0  0  0  0  0  0  0  0  0  0
   57.1671   31.7361   44.9981 H   0  0  0  0  0  0  0  0  0  0  0  0
   60.3515   25.9596   46.1981 H   0  0  0  0  0  0  0  0  0  0  0  0
   58.5976   25.1693   44.6012 H   0  0  0  0  0  0  0  0  0  0  0  0
   56.5775   26.5914   44.1926 H   0  0  0  0  0  0  0  0  0  0  0  0
   55.8480   29.7000   45.9750 H   0  0  0  0  0  0  0  0  0  0  0  0
   57.9523   31.7233   49.0202 H   0  0  0  0  0  0  0  0  0  0  0  0
  1  2  1  0
  2  3  2  0
  2  4  1  0
  4  5  2  0
  5  6  1  0
  6  7  2  0
  7  8  1  0
  8  9  1  0
  9 10  2  3
 10 11  1  0
 11 12  2  0
 12 13  1  0
 13 14  2  0
 14 15  1  0
 15 16  1  0
 16 17  1  0
 17 18  1  0
 18 19  2  0
 19 20  1  0
 20 21  2  0
 21 22  1  0
 22 23  2  0
 22 24  1  0
 24 25  2  3
 25 26  1  0
 26 27  1  0
 27 28  2  0
 28 29  1  0
 29 30  2  0
 30 31  1  0
 15 32  2  0
  8 33  2  0
 33  4  1  0
 32 11  1  0
 21 17  1  0
 30 25  1  0
  1 34  1  0
  5 35  1  0
  6 36  1  0
  7 37  1  0
  9 38  1  0
 10 39  1  0
 12 40  1  0
 13 41  1  0
 14 42  1  0
 16 43  1  0
 16 44  1  0
 18 45  1  0
 19 46  1  0
 20 47  1  0
 27 48  1  0
 28 49  1  0
 29 50  1  0
 31 51  1  0
 32 52  1  0
M  CHG  2   1  -1  26  -1
M  END
>  <UniqueID>  (46) 
41

>  <SMILES>  (46) 
[NH-]C(=O)c1cccc(C=Cc2cccc(Cn3cccc3C(=O)N=c3[n-]cccc3O)c2)n1

>  <Energy>  (46) 
88.23333041219476

>  <Genealogy>  (46) 
[NH-]C(=O)c1cccc(C=Cc2cccc(Cn3cccc3C(=O)N=c3[n-]cccc3O)c2)n1 (protonated)
[NH-]C(=O)c1cccc(C=Cc2cccc(Cn3cccc3C(=O)N=c3[n-]cccc3O)c2)n1 (3D coordinates assigned)
[NH-]C(=O)c1cccc(C=Cc2cccc(Cn3cccc3C(=O)N=c3[n-]cccc3O)c2)n1 (optimized conformer: 88.23333041219476 kcal/mol)

>  <smiles>  (46) 
NC(=O)c1cccc(C=Cc2cccc(Cn3cccc3C(=O)N=c3[nH]cccc3O)c2)n1

>  <score_type>  (46) 
oracle

>  <origin>  (46) 
adg

>  <m_score__min__energy>  (46) 
-14.869999999999999

>  <m_primary>  (46) 
energy

$$$$
46:0
     RDKit          3D

 50 53  0  0  0  0  0  0  0  0999 V2000
   60.1020   28.8270   48.7180 C   0  0  0  0  0  0  0  0  0  0  0  0
   59.4400   29.8300   48.1200 C   0  0  0  0  0  0  0  0  0  0  0  0
   58.9710   29.8410   46.7950 C   0  0  0  0  0  0  0  0  0  0  0  0
   58.8270   28.8430   45.9000 C   0  0  0  0  0  0  0  0  0  0  0  0
   57.8070   27.7700   45.9550 C   0  0  0  0  0  0  0  0  0  0  0  0
   56.4780   28.0460   45.6030 C   0  0  0  0  0  0  0  0  0  0  0  0
   56.1170   29.3070   45.1380 O   0  0  0  0  0  0  0  0  0  0  0  0
   55.5290   27.0810   45.7140 N   0  0  0  0  0  0  0  0  0  0  0  0
   55.8380   25.8420   46.1740 C   0  0  0  0  0  0  0  0  0  0  0  0
   54.9450   24.9590   46.2530 O   0  0  0  0  0  0  0  0  0  0  0  0
   57.1070   25.5590   46.5590 N   0  0  0  0  0  0  0  0  0  0  0  0
   58.0910   26.4920   46.4810 C   0  0  0  0  0  0  0  0  0  0  0  0
   59.2450   26.2050   46.8950 O   0  0  0  0  0  0  0  0  0  0  0  0
   58.5800   31.1410   46.5330 C   0  0  0  0  0  0  0  0  0  0  0  0
   58.7230   31.8460   47.7070 C   0  0  0  0  0  0  0  0  0  0  0  0
   58.4090   33.3050   47.8500 C   0  0  0  0  0  0  0  0  0  0  0  0
   59.2490   31.0590   48.6770 N   0  0  0  0  0  0  0  0  0  0  0  0
   59.4370   31.4540   50.0840 C   0  0  0  0  0  0  0  0  0  0  0  0
   58.2450   31.0310   50.9090 C   0  0  0  0  0  0  0  0  0  0  0  0
   58.1630   29.7300   51.4350 C   0  0  0  0  0  0  0  0  0  0  0  0
   57.0780   29.3550   52.2340 C   0  0  0  0  0  0  0  0  0  0  0  0
   56.0550   30.2760   52.5260 C   0  0  0  0  0  0  0  0  0  0  0  0
   54.9280   29.9030   53.4100 C   0  0  0  0  0  0  0  0  0  0  0  0
   55.1160   29.7830   54.6510 O   0  0  0  0  0  0  0  0  0  0  0  0
   53.6050   29.8010   52.8580 N   0  0  0  0  0  0  0  0  0  0  0  0
   52.7700   30.7480   52.5290 C   0  0  0  0  0  0  0  0  0  0  0  0
   51.8490   31.3160   53.4340 C   0  0  0  0  0  0  0  0  0  0  0  0
   50.9800   32.3190   52.9910 C   0  0  0  0  0  0  0  0  0  0  0  0
   51.0200   32.7380   51.7000 N   0  0  0  0  0  0  0  0  0  0  0  0
   51.8880   32.2010   50.8040 C   0  0  0  0  0  0  0  0  0  0  0  0
   52.7710   31.1950   51.2010 C   0  0  0  0  0  0  0  0  0  0  0  0
   56.1320   31.5710   51.9870 C   0  0  0  0  0  0  0  0  0  0  0  0
   57.2120   31.9410   51.1820 C   0  0  0  0  0  0  0  0  0  0  0  0
   60.4234   28.9274   49.7652 H   0  0  0  0  0  0  0  0  0  0  0  0
   60.3231   27.9047   48.1609 H   0  0  0  0  0  0  0  0  0  0  0  0
   59.5294   28.8238   45.0536 H   0  0  0  0  0  0  0  0  0  0  0  0
   58.2229   31.5364   45.5706 H   0  0  0  0  0  0  0  0  0  0  0  0
   58.3530   33.5651   48.9173 H   0  0  0  0  0  0  0  0  0  0  0  0
   59.1998   33.8991   47.3688 H   0  0  0  0  0  0  0  0  0  0  0  0
   57.4438   33.5212   47.3688 H   0  0  0  0  0  0  0  0  0  0  0  0
   60.3424   30.9701   50.4792 H   0  0  0  0  0  0  0  0  0  0  0  0
   59.5409   32.5477   50.1386 H   0  0  0  0  0  0  0  0  0  0  0  0
   58.9579   29.0016   51.2167 H   0  0  0  0  0  0  0  0  0  0  0  0
   57.0240   28.3329   52.6370 H   0  0  0  0  0  0  0  0  0  0  0  0
   51.8144   30.9734   54.4787 H   0  0  0  0  0  0  0  0  0  0  0  0
   50.2615   32.7700   53.6913 H   0  0  0  0  0  0  0  0  0  0  0  0
   51.8953   32.5592   49.7640 H   0  0  0  0  0  0  0  0  0  0  0  0
   53.4667   30.7538   50.4721 H   0  0  0  0  0  0  0  0  0  0  0  0
   55.3357   32.2993   52.2005 H   0  0  0  0  0  0  0  0  0  0  0  0
   57.2532   32.9552   50.7581 H   0  0  0  0  0  0  0  0  0  0  0  0
  1  2  2  0
  2  3  1  0
  3  4  2  3
  4  5  1  0
  5  6  2  0
  6  7  1  0
  6  8  1  0
  8  9  1  0
  9 10  2  0
  9 11  1  0
 11 12  1  0
 12 13  2  0
  3 14  1  0
 14 15  2  0
 15 16  1  0
 15 17  1  0
 17 18  1  0
 18 19  1  0
 19 20  2  0
 20 21  1  0
 21 22  2  0
 22 23  1  0
 23 24  2  0
 23 25  1  0
 25 26  2  3
 26 27  1  0
 27 28  2  0
 28 29  1  0
 29 30  1  0
 30 31  2  0
 22 32  1  0
 32 33  2  0
 17  2  1  0
 33 19  1  0
 12  5  1  0
 31 26  1  0
  1 34  1  0
  1 35  1  0
  4 36  1  0
 14 37  1  0
 16 38  1  0
 16 39  1  0
 16 40  1  0
 18 41  1  0
 18 42  1  0
 20 43  1  0
 21 44  1  0
 27 45  1  0
 28 46  1  0
 30 47  1  0
 31 48  1  0
 32 49  1  0
 33 50  1  0
M  CHG  4   7  -1   8  -1  11  -1  29  -1
M  END
>  <UniqueID>  (47) 
42

>  <SMILES>  (47) 
C=c1c(=Cc2c([O-])[n-]c(=O)[n-]c2=O)cc(C)n1Cc1ccc(C(=O)N=c2cc[n-]cc2)cc1

>  <Energy>  (47) 
108.557631623308

>  <Genealogy>  (47) 
C=c1c(=Cc2c([O-])[n-]c(=O)[n-]c2=O)cc(C)n1Cc1ccc(C(=O)N=c2cc[n-]cc2)cc1 (protonated)
C=c1c(=Cc2c([O-])[n-]c(=O)[n-]c2=O)cc(C)n1Cc1ccc(C(=O)N=c2cc[n-]cc2)cc1 (3D coordinates assigned)
C=c1c(=Cc2c([O-])[n-]c(=O)[n-]c2=O)cc(C)n1Cc1ccc(C(=O)N=c2cc[n-]cc2)cc1 (optimized conformer: 108.557631623308 kcal/mol)

>  <smiles>  (47) 
C=c1c(=Cc2c(O)[nH]c(=O)[nH]c2=O)cc(C)n1Cc1ccc(C(=O)N=c2cc[nH]cc2)cc1

>  <score_type>  (47) 
oracle

>  <origin>  (47) 
adg

>  <m_score__min__energy>  (47) 
-19.239999999999998

>  <m_primary>  (47) 
energy

$$$$
47:0
     RDKit          3D

 56 59  0  0  0  0  0  0  0  0999 V2000
   59.3960   26.4600   47.9880 C   0  0  0  0  0  0  0  0  0  0  0  0
   58.6340   26.9150   46.9760 C   0  0  0  0  0  0  0  0  0  0  0  0
   57.5820   26.2360   46.3530 C   0  0  0  0  0  0  0  0  0  0  0  0
   57.0840   25.0350   46.7030 C   0  0  0  0  0  0  0  0  0  0  0  0
   55.8770   24.4050   46.1220 C   0  0  0  0  0  0  0  0  0  0  0  0
   55.7220   23.0680   46.0890 N   0  0  0  0  0  0  0  0  0  0  0  0
   54.4250   22.9000   45.7370 C   0  0  0  0  0  0  0  0  0  0  0  0
   53.8790   21.7670   45.6930 O   0  0  0  0  0  0  0  0  0  0  0  0
   53.7250   24.0460   45.5890 N   0  0  0  0  0  0  0  0  0  0  0  0
   54.6480   24.9890   45.8550 C   0  0  0  0  0  0  0  0  0  0  0  0
   54.3370   26.3400   45.9570 O   0  0  0  0  0  0  0  0  0  0  0  0
   57.1420   27.0640   45.3240 C   0  0  0  0  0  0  0  0  0  0  0  0
   57.8900   28.2250   45.4020 C   0  0  0  0  0  0  0  0  0  0  0  0
   57.6860   29.4380   44.5470 C   0  0  0  0  0  0  0  0  0  0  0  0
   58.7930   28.1330   46.4020 N   0  0  0  0  0  0  0  0  0  0  0  0
   59.6090   29.2130   46.8930 C   0  0  0  0  0  0  0  0  0  0  0  0
   59.2200   29.9320   48.0290 C   0  0  0  0  0  0  0  0  0  0  0  0
   60.0060   30.9960   48.4870 C   0  0  0  0  0  0  0  0  0  0  0  0
   61.1850   31.3590   47.8110 C   0  0  0  0  0  0  0  0  0  0  0  0
   61.9800   32.5210   48.2830 C   0  0  0  0  0  0  0  0  0  0  0  0
   63.0540   32.3020   48.9130 O   0  0  0  0  0  0  0  0  0  0  0  0
   61.5710   33.8860   47.9930 N   0  0  2  0  0  0  0  0  0  0  0  0
   60.5610   34.3560   48.9700 C   0  0  0  0  0  0  0  0  0  0  0  0
   59.2460   34.5270   48.2230 C   0  0  0  0  0  0  0  0  0  0  0  0
   59.7160   34.8650   46.8110 C   0  0  2  0  0  0  0  0  0  0  0  0
   58.7330   34.6700   45.7120 N   0  0  0  0  0  0  0  0  0  0  0  0
   57.5730   33.8910   46.1820 C   0  0  0  0  0  0  0  0  0  0  0  0
   59.2780   34.0630   44.4850 C   0  0  0  0  0  0  0  0  0  0  0  0
   60.9680   34.0210   46.6440 C   0  0  0  0  0  0  0  0  0  0  0  0
   61.5890   30.6030   46.6960 C   0  0  0  0  0  0  0  0  0  0  0  0
   60.8010   29.5440   46.2380 C   0  0  0  0  0  0  0  0  0  0  0  0
   61.2090   28.8210   45.1620 F   0  0  0  0  0  0  0  0  0  0  0  0
   60.1993   27.0898   48.3978 H   0  0  0  0  0  0  0  0  0  0  0  0
   59.2154   25.4583   48.4052 H   0  0  0  0  0  0  0  0  0  0  0  0
   57.6182   24.4758   47.4853 H   0  0  0  0  0  0  0  0  0  0  0  0
   56.3530   26.8388   44.5914 H   0  0  0  0  0  0  0  0  0  0  0  0
   57.5379   30.3186   45.1893 H   0  0  0  0  0  0  0  0  0  0  0  0
   58.5709   29.5920   43.9119 H   0  0  0  0  0  0  0  0  0  0  0  0
   56.7994   29.2941   43.9119 H   0  0  0  0  0  0  0  0  0  0  0  0
   58.2967   29.6610   48.5619 H   0  0  0  0  0  0  0  0  0  0  0  0
   59.6987   31.5535   49.3841 H   0  0  0  0  0  0  0  0  0  0  0  0
   62.4010   34.5250   48.0240 H   0  0  0  0  0  0  0  0  0  0  0  0
   60.4426   33.6144   49.7737 H   0  0  0  0  0  0  0  0  0  0  0  0
   60.8749   35.3075   49.4241 H   0  0  0  0  0  0  0  0  0  0  0  0
   58.6571   33.5980   48.2352 H   0  0  0  0  0  0  0  0  0  0  0  0
   58.5859   35.2896   48.6620 H   0  0  0  0  0  0  0  0  0  0  0  0
   59.8885   35.9476   46.7199 H   0  0  0  0  0  0  0  0  0  0  0  0
   57.5590   33.8816   47.2819 H   0  0  0  0  0  0  0  0  0  0  0  0
   56.6465   34.3507   45.8074 H   0  0  0  0  0  0  0  0  0  0  0  0
   57.6480   32.8595   45.8074 H   0  0  0  0  0  0  0  0  0  0  0  0
   59.9906   33.2693   44.7538 H   0  0  0  0  0  0  0  0  0  0  0  0
   58.4568   33.6332   43.8926 H   0  0  0  0  0  0  0  0  0  0  0  0
   59.7934   34.8333   43.8926 H   0  0  0  0  0  0  0  0  0  0  0  0
   60.7072   33.0301   46.2439 H   0  0  0  0  0  0  0  0  0  0  0  0
   61.6714   34.4896   45.9400 H   0  0  0  0  0  0  0  0  0  0  0  0
   62.5304   30.8467   46.1818 H   0  0  0  0  0  0  0  0  0  0  0  0
  1  2  2  0
  2  3  1  0
  3  4  2  3
  4  5  1  0
  5  6  1  0
  6  7  1  0
  7  8  2  0
  7  9  1  0
  9 10  1  0
 10 11  1  0
  3 12  1  0
 12 13  2  0
 13 14  1  0
 13 15  1  0
 15 16  1  0
 16 17  2  0
 17 18  1  0
 18 19  2  0
 19 20  1  0
 20 21  2  0
 20 22  1  0
 22 23  1  0
 23 24  1  0
 24 25  1  0
 25 26  1  0
 26 27  1  0
 26 28  1  0
 25 29  1  0
 19 30  1  0
 30 31  2  0
 31 32  1  0
 15  2  1  0
 31 16  1  0
 10  5  2  0
 29 22  1  0
  1 33  1  0
  1 34  1  0
  4 35  1  0
 12 36  1  0
 14 37  1  0
 14 38  1  0
 14 39  1  0
 17 40  1  0
 18 41  1  0
 22 42  1  6
 23 43  1  0
 23 44  1  0
 24 45  1  0
 24 46  1  0
 25 47  1  1
 27 48  1  0
 27 49  1  0
 27 50  1  0
 28 51  1  0
 28 52  1  0
 28 53  1  0
 29 54  1  0
 29 55  1  0
 30 56  1  0
M  CHG  4   6  -1   9  -1  11  -1  22   1
M  END
>  <UniqueID>  (48) 
43

>  <SMILES>  (48) 
C=c1c(=Cc2[n-]c(=O)[n-]c2[O-])cc(C)n1-c1ccc(C(=O)[N@@H+]2CC[C@H](N(C)C)C2)cc1F

>  <Energy>  (48) 
149.65914741244777

>  <Genealogy>  (48) 
C=c1c(=Cc2[n-]c(=O)[n-]c2[O-])cc(C)n1-c1ccc(C(=O)[NH+]2CCC(N(C)C)C2)cc1F (protonated)
C=c1c(=Cc2[n-]c(=O)[n-]c2[O-])cc(C)n1-c1ccc(C(=O)[N@@H+]2CC[C@H](N(C)C)C2)cc1F (chirality)
C=c1c(=Cc2[n-]c(=O)[n-]c2[O-])cc(C)n1-c1ccc(C(=O)[N@@H+]2CC[C@H](N(C)C)C2)cc1F (3D coordinates assigned)
C=c1c(=Cc2[n-]c(=O)[n-]c2[O-])cc(C)n1-c1ccc(C(=O)[N@@H+]2CC[C@H](N(C)C)C2)cc1F (nonaromatic ring conformer: 149.65914741244777 kcal/mol)

>  <smiles>  (48) 
C=c1c(=Cc2[nH]c(=O)[nH]c2O)cc(C)n1-c1ccc(C(=O)N2CCC(N(C)C)C2)cc1F

>  <score_type>  (48) 
oracle

>  <origin>  (48) 
adg

>  <m_score__min__energy>  (48) 
-14.82

>  <m_primary>  (48) 
energy

$$$$
48:0
     RDKit          3D

 56 60  0  0  0  0  0  0  0  0999 V2000
   56.5320   29.9990   51.9680 O   0  0  0  0  0  0  0  0  0  0  0  0
   56.3080   29.9430   53.1700 C   0  0  0  0  0  0  0  0  0  0  0  0
   54.9350   29.5460   53.6760 C   0  0  0  0  0  0  0  0  0  0  0  0
   53.8260   30.4190   53.1420 C   0  0  0  0  0  0  0  0  0  0  0  0
   53.8740   30.9090   51.8260 C   0  0  0  0  0  0  0  0  0  0  0  0
   52.8140   31.6670   51.3190 C   0  0  0  0  0  0  0  0  0  0  0  0
   51.7020   31.9460   52.1240 C   0  0  0  0  0  0  0  0  0  0  0  0
   50.6440   32.6910   51.6170 O   0  0  0  0  0  0  0  0  0  0  0  0
   51.6560   31.4780   53.4410 C   0  0  0  0  0  0  0  0  0  0  0  0
   52.7170   30.7230   53.9510 C   0  0  0  0  0  0  0  0  0  0  0  0
   57.4490   30.1770   54.1310 C   0  0  0  0  0  0  0  0  0  0  0  0
   58.7410   30.0140   53.4620 N   0  0  0  0  0  0  0  0  0  0  0  0
   59.5810   31.0090   53.1040 C   0  0  0  0  0  0  0  0  0  0  0  0
   60.5180   30.4750   52.2420 C   0  0  0  0  0  0  0  0  0  0  0  0
   61.5200   31.1880   51.5870 O   0  0  0  0  0  0  0  0  0  0  0  0
   60.2860   29.1540   52.0730 N   0  0  0  0  0  0  0  0  0  0  0  0
   60.8440   28.2950   51.0280 C   0  0  0  0  0  0  0  0  0  0  0  0
   60.2810   28.7100   49.6950 C   0  0  0  0  0  0  0  0  0  0  0  0
   59.3880   29.7910   49.6070 C   0  0  0  0  0  0  0  0  0  0  0  0
   58.7500   30.0820   48.3970 C   0  0  0  0  0  0  0  0  0  0  0  0
   58.9630   29.2700   47.2710 C   0  0  0  0  0  0  0  0  0  0  0  0
   58.2410   29.5260   46.0070 C   0  0  0  0  0  0  0  0  0  0  0  0
   58.5410   30.7180   45.3190 C   0  0  0  0  0  0  0  0  0  0  0  0
   57.8960   31.0310   44.1250 C   0  0  0  0  0  0  0  0  0  0  0  0
   56.9490   30.1590   43.5950 C   0  0  0  0  0  0  0  0  0  0  0  0
   56.6450   28.9670   44.2530 C   0  0  0  0  0  0  0  0  0  0  0  0
   57.2830   28.6210   45.4620 C   0  0  0  0  0  0  0  0  0  0  0  0
   56.9320   27.3120   46.0870 C   0  0  0  0  0  0  0  0  0  0  0  0
   57.7820   26.5090   46.7510 N   0  0  0  0  0  0  0  0  0  0  0  0
   57.0520   25.4750   47.1340 N   0  0  0  0  0  0  0  0  0  0  0  0
   55.8080   25.6290   46.7150 N   0  0  0  0  0  0  0  0  0  0  0  0
   55.6990   26.7690   46.0550 N   0  0  0  0  0  0  0  0  0  0  0  0
   59.8870   28.2190   47.3460 C   0  0  0  0  0  0  0  0  0  0  0  0
   60.5370   27.9370   48.5510 C   0  0  0  0  0  0  0  0  0  0  0  0
   59.1890   28.9110   52.8220 C   0  0  0  0  0  0  0  0  0  0  0  0
   58.6030   27.7920   52.8610 O   0  0  0  0  0  0  0  0  0  0  0  0
   54.7382   28.5071   53.3727 H   0  0  0  0  0  0  0  0  0  0  0  0
   54.9444   29.6641   54.7696 H   0  0  0  0  0  0  0  0  0  0  0  0
   54.7479   30.6957   51.1928 H   0  0  0  0  0  0  0  0  0  0  0  0
   52.8534   32.0447   50.2866 H   0  0  0  0  0  0  0  0  0  0  0  0
   50.7860   31.7035   54.0753 H   0  0  0  0  0  0  0  0  0  0  0  0
   52.6837   30.3651   54.9906 H   0  0  0  0  0  0  0  0  0  0  0  0
   57.3779   31.1990   54.5316 H   0  0  0  0  0  0  0  0  0  0  0  0
   57.3797   29.4386   54.9434 H   0  0  0  0  0  0  0  0  0  0  0  0
   59.5282   32.0555   53.4386 H   0  0  0  0  0  0  0  0  0  0  0  0
   62.4990   30.9620   51.7320 H   0  0  0  0  0  0  0  0  0  0  0  0
   61.9391   28.3974   51.0131 H   0  0  0  0  0  0  0  0  0  0  0  0
   60.5805   27.2465   51.2309 H   0  0  0  0  0  0  0  0  0  0  0  0
   59.1898   30.4112   50.4936 H   0  0  0  0  0  0  0  0  0  0  0  0
   58.0786   30.9505   48.3269 H   0  0  0  0  0  0  0  0  0  0  0  0
   59.2925   31.4088   45.7290 H   0  0  0  0  0  0  0  0  0  0  0  0
   58.1350   31.9678   43.6004 H   0  0  0  0  0  0  0  0  0  0  0  0
   56.4385   30.4108   42.6538 H   0  0  0  0  0  0  0  0  0  0  0  0
   55.8960   28.2864   43.8220 H   0  0  0  0  0  0  0  0  0  0  0  0
   60.1016   27.6135   46.4531 H   0  0  0  0  0  0  0  0  0  0  0  0
   61.2537   27.1042   48.6034 H   0  0  0  0  0  0  0  0  0  0  0  0
  1  2  2  0
  2  3  1  0
  3  4  1  0
  4  5  2  0
  5  6  1  0
  6  7  2  0
  7  8  1  0
  7  9  1  0
  9 10  2  0
  2 11  1  0
 11 12  1  0
 12 13  1  0
 13 14  2  0
 14 15  1  0
 14 16  1  0
 16 17  1  0
 17 18  1  0
 18 19  2  0
 19 20  1  0
 20 21  2  0
 21 22  1  0
 22 23  2  0
 23 24  1  0
 24 25  2  0
 25 26  1  0
 26 27  2  0
 27 28  1  0
 28 29  1  0
 29 30  2  0
 30 31  1  0
 31 32  1  0
 21 33  1  0
 33 34  2  0
 16 35  1  0
 35 36  2  0
 10  4  1  0
 35 12  1  0
 34 18  1  0
 27 22  1  0
 32 28  2  0
  3 37  1  0
  3 38  1  0
  5 39  1  0
  6 40  1  0
  9 41  1  0
 10 42  1  0
 11 43  1  0
 11 44  1  0
 13 45  1  0
 15 46  1  0
 17 47  1  0
 17 48  1  0
 19 49  1  0
 20 50  1  0
 23 51  1  0
 24 52  1  0
 25 53  1  0
 26 54  1  0
 33 55  1  0
 34 56  1  0
M  CHG  2   8  -1  31  -1
M  END
>  <UniqueID>  (49) 
44

>  <SMILES>  (49) 
O=C(Cc1ccc([O-])cc1)Cn1cc(O)n(Cc2ccc(-c3ccccc3-c3nn[n-]n3)cc2)c1=O

>  <Energy>  (49) 
137.1682241767564

>  <Genealogy>  (49) 
O=C(Cc1ccc([O-])cc1)Cn1cc(O)n(Cc2ccc(-c3ccccc3-c3nn[n-]n3)cc2)c1=O (protonated)
O=C(Cc1ccc([O-])cc1)Cn1cc(O)n(Cc2ccc(-c3ccccc3-c3nn[n-]n3)cc2)c1=O (3D coordinates assigned)
O=C(Cc1ccc([O-])cc1)Cn1cc(O)n(Cc2ccc(-c3ccccc3-c3nn[n-]n3)cc2)c1=O (optimized conformer: 137.1682241767564 kcal/mol)

>  <smiles>  (49) 
O=C(Cc1ccc(O)cc1)Cn1cc(O)n(Cc2ccc(-c3ccccc3-c3nn[nH]n3)cc2)c1=O

>  <score_type>  (49) 
oracle

>  <origin>  (49) 
adg

>  <m_score__min__energy>  (49) 
-15.9

>  <m_primary>  (49) 
energy

$$$$
49:0
     RDKit          3D

 64 67  0  0  1  0  0  0  0  0999 V2000
   58.1170   30.5890   46.9380 O   0  0  0  0  0  0  0  0  0  0  0  0
   58.9850   31.5080   47.1270 C   0  0  0  0  0  0  0  0  0  0  0  0
   60.2020   31.1970   47.8120 N   0  0  0  0  0  0  0  0  0  0  0  0
   60.3290   29.8260   48.2400 C   0  0  0  0  0  0  0  0  0  0  0  0
   60.3090   29.5760   49.5980 C   0  0  0  0  0  0  0  0  0  0  0  0
   60.4210   28.2980   50.1030 C   0  0  0  0  0  0  0  0  0  0  0  0
   60.5580   27.2530   49.2030 C   0  0  0  0  0  0  0  0  0  0  0  0
   60.5820   27.4850   47.8240 C   0  0  0  0  0  0  0  0  0  0  0  0
   60.7270   26.3260   46.8680 C   0  0  0  0  0  0  0  0  0  0  0  0
   60.0120   26.6450   45.6460 N   0  0  0  0  0  0  0  0  0  0  0  0
   58.7790   26.9430   45.6350 C   0  0  0  0  0  0  0  0  0  0  0  0
   58.3950   28.1970   45.2100 C   0  0  0  0  0  0  0  0  0  0  0  0
   57.0750   28.5780   45.1740 C   0  0  0  0  0  0  0  0  0  0  0  0
   56.1670   27.6630   45.5750 N   0  0  0  0  0  0  0  0  0  0  0  0
   56.5730   26.4430   45.9860 C   0  0  0  0  0  0  0  0  0  0  0  0
   55.6650   25.6210   46.3550 N   0  0  0  0  0  0  0  0  0  0  0  0
   55.8970   24.3480   46.9900 C   0  0  0  0  0  0  0  0  0  0  0  0
   55.9840   23.2930   45.8780 C   0  0  0  0  0  0  0  0  0  0  0  0
   57.1650   23.4840   45.0970 N   0  0  0  0  0  0  0  0  0  0  0  0
   56.9360   24.0400   43.7890 C   0  0  0  0  0  0  0  0  0  0  0  0
   56.0220   23.1410   42.9950 C   0  0  0  0  0  0  0  0  0  0  0  0
   56.2340   21.8310   43.3470 O   0  0  0  0  0  0  0  0  0  0  0  0
   57.5050   21.5360   43.7770 C   0  0  0  0  0  0  0  0  0  0  0  0
   57.9210   22.2670   45.0340 C   0  0  0  0  0  0  0  0  0  0  0  0
   57.8420   26.0500   46.0310 N   0  0  0  0  0  0  0  0  0  0  0  0
   60.4660   28.7910   47.3290 C   0  0  0  0  0  0  0  0  0  0  0  0
   58.7240   32.8760   46.6340 C   0  0  0  0  0  0  0  0  0  0  0  0
   58.0790   32.9000   45.2660 C   0  0  0  0  0  0  0  0  0  0  0  0
   57.7340   34.3720   45.0120 C   0  0  0  0  0  0  0  0  0  0  0  0
   58.9030   35.1110   44.9400 O   0  0  0  0  0  0  0  0  0  0  0  0
   59.6530   35.0840   46.0920 C   0  0  0  0  0  0  0  0  0  0  0  0
   59.9980   33.7060   46.5560 C   0  0  0  0  0  0  0  0  0  0  0  0
   60.9420   31.9080   47.9910 H   0  0  0  0  0  0  0  0  0  0  0  0
   60.2008   30.4194   50.2958 H   0  0  0  0  0  0  0  0  0  0  0  0
   60.4022   28.1134   51.1872 H   0  0  0  0  0  0  0  0  0  0  0  0
   60.6494   26.2236   49.5797 H   0  0  0  0  0  0  0  0  0  0  0  0
   61.7911   26.1614   46.6431 H   0  0  0  0  0  0  0  0  0  0  0  0
   60.3138   25.4116   47.3187 H   0  0  0  0  0  0  0  0  0  0  0  0
   59.1668   28.9128   44.8907 H   0  0  0  0  0  0  0  0  0  0  0  0
   56.7730   29.5799   44.8349 H   0  0  0  0  0  0  0  0  0  0  0  0
   55.1440   27.8980   45.5690 H   0  0  0  0  0  0  0  0  0  0  0  0
   56.8392   24.3761   47.5569 H   0  0  0  0  0  0  0  0  0  0  0  0
   55.0843   24.1086   47.6916 H   0  0  0  0  0  0  0  0  0  0  0  0
   56.0080   22.2909   46.3311 H   0  0  0  0  0  0  0  0  0  0  0  0
   55.1054   23.3930   45.2238 H   0  0  0  0  0  0  0  0  0  0  0  0
   56.4712   25.0317   43.8918 H   0  0  0  0  0  0  0  0  0  0  0  0
   57.8979   24.1295   43.2630 H   0  0  0  0  0  0  0  0  0  0  0  0
   54.9757   23.4097   43.2024 H   0  0  0  0  0  0  0  0  0  0  0  0
   56.2325   23.2665   41.9226 H   0  0  0  0  0  0  0  0  0  0  0  0
   57.5605   20.4549   43.9726 H   0  0  0  0  0  0  0  0  0  0  0  0
   58.1909   21.8617   42.9810 H   0  0  0  0  0  0  0  0  0  0  0  0
   57.7077   21.6466   45.9169 H   0  0  0  0  0  0  0  0  0  0  0  0
   58.9996   22.4822   45.0172 H   0  0  0  0  0  0  0  0  0  0  0  0
   58.1130   25.1170   46.3500 H   0  0  0  0  0  0  0  0  0  0  0  0
   60.4832   28.9889   46.2471 H   0  0  0  0  0  0  0  0  0  0  0  0
   58.0295   33.3078   47.3697 H   0  0  0  0  0  0  0  0  0  0  0  0
   58.7793   32.5303   44.5025 H   0  0  0  0  0  0  0  0  0  0  0  0
   57.1896   32.2545   45.2187 H   0  0  0  0  0  0  0  0  0  0  0  0
   57.1836   34.4619   44.0639 H   0  0  0  0  0  0  0  0  0  0  0  0
   57.1090   34.7508   45.8341 H   0  0  0  0  0  0  0  0  0  0  0  0
   60.5887   35.6327   45.9094 H   0  0  0  0  0  0  0  0  0  0  0  0
   59.0419   35.5442   46.8825 H   0  0  0  0  0  0  0  0  0  0  0  0
   60.6977   33.2419   45.8453 H   0  0  0  0  0  0  0  0  0  0  0  0
   60.4709   33.7553   47.5479 H   0  0  0  0  0  0  0  0  0  0  0  0
  1  2  2  0
  2  3  1  0
  3  4  1  0
  4  5  2  0
  5  6  1  0
  6  7  2  0
  7  8  1  0
  8  9  1  0
  9 10  1  0
 10 11  2  0
 11 12  1  0
 12 13  2  0
 13 14  1  0
 14 15  1  0
 15 16  2  0
 16 17  1  0
 17 18  1  0
 18 19  1  0
 19 20  1  0
 20 21  1  0
 21 22  1  0
 22 23  1  0
 23 24  1  0
 15 25  1  0
  8 26  2  0
  2 27  1  0
 27 28  1  0
 28 29  1  0
 29 30  1  0
 30 31  1  0
 31 32  1  0
 26  4  1  0
 32 27  1  0
 25 11  1  0
 24 19  1  0
  3 33  1  0
  5 34  1  0
  6 35  1  0
  7 36  1  0
  9 37  1  0
  9 38  1  0
 12 39  1  0
 13 40  1  0
 14 41  1  0
 17 42  1  0
 17 43  1  0
 18 44  1  0
 18 45  1  0
 20 46  1  0
 20 47  1  0
 21 48  1  0
 21 49  1  0
 23 50  1  0
 23 51  1  0
 24 52  1  0
 24 53  1  0
 25 54  1  0
 26 55  1  0
 27 56  1  0
 28 57  1  0
 28 58  1  0
 29 59  1  0
 29 60  1  0
 31 61  1  0
 31 62  1  0
 32 63  1  0
 32 64  1  0
M  END
>  <smiles>  (50) 
O=C(Nc1cccc(CN=c2cc[nH]c(=NCCN3CCOCC3)[nH]2)c1)C1CCOCC1

>  <score_type>  (50) 
oracle

>  <origin>  (50) 
adg

>  <m_score__min__energy>  (50) 
-10.25

>  <m_primary>  (50) 
energy

$$$$
50:0
     RDKit          3D

 49 52  0  0  0  0  0  0  0  0999 V2000
   58.4850   27.1990   47.8680 O   0  0  0  0  0  0  0  0  0  0  0  0
   58.0670   27.0050   46.6960 C   0  0  0  0  0  0  0  0  0  0  0  0
   58.6600   27.7470   45.6190 N   0  0  0  0  0  0  0  0  0  0  0  0
   58.1860   28.9920   45.0850 C   0  0  0  0  0  0  0  0  0  0  0  0
   57.5010   28.9870   43.8640 C   0  0  0  0  0  0  0  0  0  0  0  0
   57.0310   30.1820   43.3140 C   0  0  0  0  0  0  0  0  0  0  0  0
   57.2310   31.3900   43.9860 C   0  0  0  0  0  0  0  0  0  0  0  0
   57.8850   31.4070   45.2260 C   0  0  0  0  0  0  0  0  0  0  0  0
   58.1530   32.9330   46.0770 S   0  0  0  0  0  0  0  0  0  0  0  0
   57.4550   32.8790   47.4080 O   0  0  0  0  0  0  0  0  0  0  0  0
   57.5420   34.0510   45.2760 O   0  0  0  0  0  0  0  0  0  0  0  0
   59.8460   33.2790   46.3380 N   0  0  0  0  0  0  0  0  0  0  0  0
   60.0480   34.2730   47.3890 C   0  0  0  0  0  0  0  0  0  0  0  0
   61.4400   34.0260   47.9510 C   0  0  0  0  0  0  0  0  0  0  0  0
   61.8000   32.6080   47.5310 C   0  0  0  0  0  0  0  0  0  0  0  0
   60.5880   32.0970   46.7690 C   0  0  0  0  0  0  0  0  0  0  0  0
   58.3530   30.2050   45.7750 C   0  0  0  0  0  0  0  0  0  0  0  0
   56.9560   26.0510   46.4700 C   0  0  0  0  0  0  0  0  0  0  0  0
   55.7430   26.4770   45.9140 C   0  0  0  0  0  0  0  0  0  0  0  0
   55.5240   27.8170   45.6180 O   0  0  0  0  0  0  0  0  0  0  0  0
   54.7580   25.5780   45.6710 N   0  0  0  0  0  0  0  0  0  0  0  0
   54.9120   24.2610   45.9580 C   0  0  0  0  0  0  0  0  0  0  0  0
   53.9620   23.4690   45.7160 O   0  0  0  0  0  0  0  0  0  0  0  0
   56.0810   23.8070   46.5110 N   0  0  0  0  0  0  0  0  0  0  0  0
   56.2450   22.4030   46.7970 C   0  0  0  0  0  0  0  0  0  0  0  0
   56.0680   21.9220   48.1050 C   0  0  0  0  0  0  0  0  0  0  0  0
   56.2230   20.5600   48.3810 C   0  0  0  0  0  0  0  0  0  0  0  0
   56.5550   19.6710   47.3550 C   0  0  0  0  0  0  0  0  0  0  0  0
   56.7320   20.1430   46.0500 C   0  0  0  0  0  0  0  0  0  0  0  0
   56.5770   21.5030   45.7710 C   0  0  0  0  0  0  0  0  0  0  0  0
   57.1000   24.6860   46.7760 C   0  0  0  0  0  0  0  0  0  0  0  0
   58.1880   24.2670   47.2630 O   0  0  0  0  0  0  0  0  0  0  0  0
   57.3321   28.0374   43.3351 H   0  0  0  0  0  0  0  0  0  0  0  0
   56.5022   30.1716   42.3495 H   0  0  0  0  0  0  0  0  0  0  0  0
   56.8744   32.3307   43.5411 H   0  0  0  0  0  0  0  0  0  0  0  0
   59.9811   35.2881   46.9707 H   0  0  0  0  0  0  0  0  0  0  0  0
   59.2804   34.1872   48.1722 H   0  0  0  0  0  0  0  0  0  0  0  0
   62.1579   34.7458   47.5308 H   0  0  0  0  0  0  0  0  0  0  0  0
   61.4674   34.1483   49.0438 H   0  0  0  0  0  0  0  0  0  0  0  0
   62.6891   32.6117   46.8834 H   0  0  0  0  0  0  0  0  0  0  0  0
   62.0396   31.9718   48.3958 H   0  0  0  0  0  0  0  0  0  0  0  0
   60.9072   31.5086   45.8962 H   0  0  0  0  0  0  0  0  0  0  0  0
   59.9669   31.4427   47.3984 H   0  0  0  0  0  0  0  0  0  0  0  0
   58.8550   30.2112   46.7538 H   0  0  0  0  0  0  0  0  0  0  0  0
   55.8066   22.6191   48.9147 H   0  0  0  0  0  0  0  0  0  0  0  0
   56.0835   20.1879   49.4067 H   0  0  0  0  0  0  0  0  0  0  0  0
   56.6772   18.5999   47.5736 H   0  0  0  0  0  0  0  0  0  0  0  0
   56.9934   19.4427   45.2430 H   0  0  0  0  0  0  0  0  0  0  0  0
   56.7155   21.8706   44.7435 H   0  0  0  0  0  0  0  0  0  0  0  0
  1  2  2  0
  2  3  1  0
  3  4  1  0
  4  5  2  0
  5  6  1  0
  6  7  2  0
  7  8  1  0
  8  9  1  0
  9 10  2  0
  9 11  2  0
  9 12  1  0
 12 13  1  0
 13 14  1  0
 14 15  1  0
 15 16  1  0
  8 17  2  0
  2 18  1  0
 18 19  2  0
 19 20  1  0
 19 21  1  0
 21 22  1  0
 22 23  2  0
 22 24  1  0
 24 25  1  0
 25 26  2  0
 26 27  1  0
 27 28  2  0
 28 29  1  0
 29 30  2  0
 24 31  1  0
 31 32  2  0
 17  4  1  0
 31 18  1  0
 16 12  1  0
 30 25  1  0
  5 33  1  0
  6 34  1  0
  7 35  1  0
 13 36  1  0
 13 37  1  0
 14 38  1  0
 14 39  1  0
 15 40  1  0
 15 41  1  0
 16 42  1  0
 16 43  1  0
 17 44  1  0
 26 45  1  0
 27 46  1  0
 28 47  1  0
 29 48  1  0
 30 49  1  0
M  CHG  3   3  -1  20  -1  21  -1
M  END
>  <UniqueID>  (51) 
45

>  <SMILES>  (51) 
O=C([N-]c1cccc(S(=O)(=O)N2CCCC2)c1)c1c([O-])[n-]c(=O)n(-c2ccccc2)c1=O

>  <Energy>  (51) 
73.22678730289321

>  <Genealogy>  (51) 
O=C([N-]c1cccc(S(=O)(=O)N2CCCC2)c1)c1c([O-])[n-]c(=O)n(-c2ccccc2)c1=O (protonated)
O=C([N-]c1cccc(S(=O)(=O)N2CCCC2)c1)c1c([O-])[n-]c(=O)n(-c2ccccc2)c1=O (3D coordinates assigned)
O=C([N-]c1cccc(S(=O)(=O)N2CCCC2)c1)c1c([O-])[n-]c(=O)n(-c2ccccc2)c1=O (nonaromatic ring conformer: 73.22678730289321 kcal/mol)

>  <smiles>  (51) 
O=C(Nc1cccc(S(=O)(=O)N2CCCC2)c1)c1c(O)[nH]c(=O)n(-c2ccccc2)c1=O

>  <score_type>  (51) 
oracle

>  <origin>  (51) 
adg

>  <m_score__min__energy>  (51) 
-15.35

>  <m_primary>  (51) 
energy

$$$$
51:0
     RDKit          3D

 40 42  0  0  0  0  0  0  0  0999 V2000
   59.6720   29.7900   46.0720 C   0  0  0  0  0  0  0  0  0  0  0  0
   58.5040   29.5150   45.4690 C   0  0  0  0  0  0  0  0  0  0  0  0
   57.6510   28.4480   45.7720 C   0  0  0  0  0  0  0  0  0  0  0  0
   57.8440   27.4830   46.6910 C   0  0  0  0  0  0  0  0  0  0  0  0
   57.2470   26.1370   46.6100 C   0  0  0  0  0  0  0  0  0  0  0  0
   57.9260   25.0110   46.8910 N   0  0  0  0  0  0  0  0  0  0  0  0
   56.9910   24.0440   46.7730 C   0  0  0  0  0  0  0  0  0  0  0  0
   57.2510   22.8260   46.9520 O   0  0  0  0  0  0  0  0  0  0  0  0
   55.7540   24.4850   46.4590 N   0  0  0  0  0  0  0  0  0  0  0  0
   55.9290   25.8140   46.3720 C   0  0  0  0  0  0  0  0  0  0  0  0
   54.8980   26.7150   46.1250 O   0  0  0  0  0  0  0  0  0  0  0  0
   56.5810   28.5450   44.8950 C   0  0  0  0  0  0  0  0  0  0  0  0
   56.8070   29.6580   44.1120 C   0  0  0  0  0  0  0  0  0  0  0  0
   55.9040   30.1040   43.0020 C   0  0  0  0  0  0  0  0  0  0  0  0
   57.9730   30.2550   44.4580 N   0  0  0  0  0  0  0  0  0  0  0  0
   58.5120   31.4990   43.8850 C   0  0  0  0  0  0  0  0  0  0  0  0
   57.7380   32.7290   44.3830 C   0  0  0  0  0  0  0  0  0  0  0  0
   58.3160   33.2720   45.6640 C   0  0  0  0  0  0  0  0  0  0  0  0
   58.0940   32.6030   46.8800 C   0  0  0  0  0  0  0  0  0  0  0  0
   58.6710   33.0810   48.0610 C   0  0  0  0  0  0  0  0  0  0  0  0
   59.4790   34.2220   48.0350 C   0  0  0  0  0  0  0  0  0  0  0  0
   60.0540   34.6920   49.2090 O   0  0  0  0  0  0  0  0  0  0  0  0
   59.7080   34.8890   46.8270 C   0  0  0  0  0  0  0  0  0  0  0  0
   59.1300   34.4160   45.6450 C   0  0  0  0  0  0  0  0  0  0  0  0
   60.2650   30.6594   45.7518 H   0  0  0  0  0  0  0  0  0  0  0  0
   60.0357   29.1459   46.8861 H   0  0  0  0  0  0  0  0  0  0  0  0
   58.4858   27.7125   47.5544 H   0  0  0  0  0  0  0  0  0  0  0  0
   54.4000   26.7000   45.2430 H   0  0  0  0  0  0  0  0  0  0  0  0
   55.7182   27.8653   44.8353 H   0  0  0  0  0  0  0  0  0  0  0  0
   54.9945   30.5532   43.4273 H   0  0  0  0  0  0  0  0  0  0  0  0
   56.4251   30.8483   42.3820 H   0  0  0  0  0  0  0  0  0  0  0  0
   55.6297   29.2378   42.3820 H   0  0  0  0  0  0  0  0  0  0  0  0
   59.5679   31.5988   44.1766 H   0  0  0  0  0  0  0  0  0  0  0  0
   58.4115   31.4473   42.7908 H   0  0  0  0  0  0  0  0  0  0  0  0
   57.7809   33.5128   43.6125 H   0  0  0  0  0  0  0  0  0  0  0  0
   56.6995   32.4237   44.5785 H   0  0  0  0  0  0  0  0  0  0  0  0
   57.4648   31.7010   46.9029 H   0  0  0  0  0  0  0  0  0  0  0  0
   58.4889   32.5586   49.0118 H   0  0  0  0  0  0  0  0  0  0  0  0
   60.3435   35.7866   46.8069 H   0  0  0  0  0  0  0  0  0  0  0  0
   59.3136   34.9421   44.6966 H   0  0  0  0  0  0  0  0  0  0  0  0
  1  2  2  0
  2  3  1  0
  3  4  2  3
  4  5  1  0
  5  6  1  0
  6  7  1  0
  7  8  2  0
  7  9  1  0
  9 10  1  0
 10 11  1  0
  3 12  1  0
 12 13  2  0
 13 14  1  0
 13 15  1  0
 15 16  1  0
 16 17  1  0
 17 18  1  0
 18 19  2  0
 19 20  1  0
 20 21  2  0
 21 22  1  0
 21 23  1  0
 23 24  2  0
 15  2  1  0
 24 18  1  0
 10  5  2  0
  1 25  1  0
  1 26  1  0
  4 27  1  0
 11 28  1  0
 12 29  1  0
 14 30  1  0
 14 31  1  0
 14 32  1  0
 16 33  1  0
 16 34  1  0
 17 35  1  0
 17 36  1  0
 19 37  1  0
 20 38  1  0
 23 39  1  0
 24 40  1  0
M  CHG  3   6  -1   9  -1  22  -1
M  END
>  <UniqueID>  (52) 
46

>  <SMILES>  (52) 
C=c1c(=Cc2[n-]c(=O)[n-]c2O)cc(C)n1CCc1ccc([O-])cc1

>  <Energy>  (52) 
101.24169250985368

>  <Genealogy>  (52) 
C=c1c(=Cc2[n-]c(=O)[n-]c2O)cc(C)n1CCc1ccc([O-])cc1 (protonated)
C=c1c(=Cc2[n-]c(=O)[n-]c2O)cc(C)n1CCc1ccc([O-])cc1 (3D coordinates assigned)
C=c1c(=Cc2[n-]c(=O)[n-]c2O)cc(C)n1CCc1ccc([O-])cc1 (optimized conformer: 101.24169250985368 kcal/mol)

>  <smiles>  (52) 
C=c1c(=Cc2[nH]c(=O)[nH]c2O)cc(C)n1CCc1ccc(O)cc1

>  <score_type>  (52) 
oracle

>  <origin>  (52) 
adg

>  <m_score__min__energy>  (52) 
-13.01

>  <m_primary>  (52) 
energy

$$$$
52:0
     RDKit          3D

 53 56  0  0  0  0  0  0  0  0999 V2000
   59.8910   29.6970   47.0930 O   0  0  0  0  0  0  0  0  0  0  0  0
   59.6520   28.8810   48.0220 C   0  0  0  0  0  0  0  0  0  0  0  0
   60.1960   29.1760   49.3980 C   0  0  0  0  0  0  0  0  0  0  0  0
   59.7240   30.5010   49.9830 C   0  0  0  0  0  0  0  0  0  0  0  0
   58.6410   30.5300   50.8880 C   0  0  0  0  0  0  0  0  0  0  0  0
   58.2270   31.7310   51.4680 C   0  0  0  0  0  0  0  0  0  0  0  0
   58.8640   32.9250   51.1350 C   0  0  0  0  0  0  0  0  0  0  0  0
   59.9100   32.9300   50.2150 C   0  0  0  0  0  0  0  0  0  0  0  0
   60.3360   31.7310   49.6110 C   0  0  0  0  0  0  0  0  0  0  0  0
   61.4050   31.8250   48.5890 C   0  0  0  0  0  0  0  0  0  0  0  0
   62.5420   31.3550   48.8570 O   0  0  0  0  0  0  0  0  0  0  0  0
   61.1970   32.4270   47.3010 N   0  0  0  0  0  0  0  0  0  0  0  0
   59.9890   33.0050   46.7840 C   0  0  0  0  0  0  0  0  0  0  0  0
   60.0830   34.1810   46.0320 C   0  0  0  0  0  0  0  0  0  0  0  0
   58.9370   34.7720   45.4930 C   0  0  0  0  0  0  0  0  0  0  0  0
   57.6840   34.2010   45.7230 C   0  0  0  0  0  0  0  0  0  0  0  0
   57.5740   33.0440   46.4990 C   0  0  0  0  0  0  0  0  0  0  0  0
   58.7190   32.4530   47.0390 C   0  0  0  0  0  0  0  0  0  0  0  0
   58.8650   27.7210   47.7210 N   0  0  0  0  0  0  0  0  0  0  0  0
   57.7830   27.6020   46.7460 C   0  0  1  0  0  0  0  0  0  0  0  0
   58.3330   27.7880   45.3200 C   0  0  0  0  0  0  0  0  0  0  0  0
   57.8850   29.0950   44.7150 C   0  0  0  0  0  0  0  0  0  0  0  0
   58.8220   30.0950   44.3990 C   0  0  0  0  0  0  0  0  0  0  0  0
   58.4040   31.2850   43.7940 C   0  0  0  0  0  0  0  0  0  0  0  0
   57.0540   31.4790   43.4910 C   0  0  0  0  0  0  0  0  0  0  0  0
   56.1180   30.4840   43.7960 C   0  0  0  0  0  0  0  0  0  0  0  0
   56.5320   29.2960   44.4040 C   0  0  0  0  0  0  0  0  0  0  0  0
   57.1660   26.2370   46.8850 C   0  0  0  0  0  0  0  0  0  0  0  0
   57.8360   25.1430   47.2960 N   0  0  0  0  0  0  0  0  0  0  0  0
   56.9230   24.1560   47.1810 C   0  0  0  0  0  0  0  0  0  0  0  0
   57.1750   22.9620   47.4870 O   0  0  0  0  0  0  0  0  0  0  0  0
   55.7200   24.5470   46.7040 N   0  0  0  0  0  0  0  0  0  0  0  0
   55.8930   25.8650   46.5170 C   0  0  0  0  0  0  0  0  0  0  0  0
   54.9130   26.7080   46.0040 O   0  0  0  0  0  0  0  0  0  0  0  0
   59.8808   28.3680   50.0745 H   0  0  0  0  0  0  0  0  0  0  0  0
   61.2893   29.2449   49.2986 H   0  0  0  0  0  0  0  0  0  0  0  0
   58.1172   29.5959   51.1392 H   0  0  0  0  0  0  0  0  0  0  0  0
   57.3964   31.7346   52.1892 H   0  0  0  0  0  0  0  0  0  0  0  0
   58.5395   33.8673   51.6005 H   0  0  0  0  0  0  0  0  0  0  0  0
   60.4069   33.8772   49.9584 H   0  0  0  0  0  0  0  0  0  0  0  0
   61.0665   34.6440   45.8637 H   0  0  0  0  0  0  0  0  0  0  0  0
   59.0222   35.6866   44.8878 H   0  0  0  0  0  0  0  0  0  0  0  0
   56.7826   34.6622   45.2931 H   0  0  0  0  0  0  0  0  0  0  0  0
   56.5856   32.5984   46.6847 H   0  0  0  0  0  0  0  0  0  0  0  0
   58.6281   31.5534   47.6655 H   0  0  0  0  0  0  0  0  0  0  0  0
   57.0258   28.3785   46.9295 H   0  0  0  0  0  0  0  0  0  0  0  0
   59.4322   27.7705   45.3569 H   0  0  0  0  0  0  0  0  0  0  0  0
   57.9464   26.9702   44.6941 H   0  0  0  0  0  0  0  0  0  0  0  0
   59.8868   29.9410   44.6283 H   0  0  0  0  0  0  0  0  0  0  0  0
   59.1387   32.0685   43.5567 H   0  0  0  0  0  0  0  0  0  0  0  0
   56.7266   32.4139   43.0127 H   0  0  0  0  0  0  0  0  0  0  0  0
   55.0553   30.6375   43.5568 H   0  0  0  0  0  0  0  0  0  0  0  0
   55.7939   28.5152   44.6397 H   0  0  0  0  0  0  0  0  0  0  0  0
  1  2  2  0
  2  3  1  0
  3  4  1  0
  4  5  2  0
  5  6  1  0
  6  7  2  0
  7  8  1  0
  8  9  2  0
  9 10  1  0
 10 11  2  0
 10 12  1  0
 12 13  1  0
 13 14  2  0
 14 15  1  0
 15 16  2  0
 16 17  1  0
 17 18  2  0
  2 19  1  0
 19 20  1  0
 20 21  1  0
 21 22  1  0
 22 23  2  0
 23 24  1  0
 24 25  2  0
 25 26  1  0
 26 27  2  0
 20 28  1  0
 28 29  1  0
 29 30  1  0
 30 31  2  0
 30 32  1  0
 32 33  1  0
 33 34  1  0
  9  4  1  0
 18 13  1  0
 27 22  1  0
 33 28  2  0
  3 35  1  0
  3 36  1  0
  5 37  1  0
  6 38  1  0
  7 39  1  0
  8 40  1  0
 14 41  1  0
 15 42  1  0
 16 43  1  0
 17 44  1  0
 18 45  1  0
 20 46  1  1
 21 47  1  0
 21 48  1  0
 23 49  1  0
 24 50  1  0
 25 51  1  0
 26 52  1  0
 27 53  1  0
M  CHG  5  12  -1  19  -1  29  -1  32  -1  34  -1
M  END
>  <UniqueID>  (53) 
47

>  <SMILES>  (53) 
O=C(Cc1ccccc1C(=O)[N-]c1ccccc1)[N-][C@@H](Cc1ccccc1)c1[n-]c(=O)[n-]c1[O-]

>  <Energy>  (53) 
93.0657181805713

>  <Genealogy>  (53) 
O=C(Cc1ccccc1C(=O)[N-]c1ccccc1)[N-]C(Cc1ccccc1)c1[n-]c(=O)[n-]c1[O-] (protonated)
O=C(Cc1ccccc1C(=O)[N-]c1ccccc1)[N-][C@@H](Cc1ccccc1)c1[n-]c(=O)[n-]c1[O-] (chirality)
O=C(Cc1ccccc1C(=O)[N-]c1ccccc1)[N-][C@@H](Cc1ccccc1)c1[n-]c(=O)[n-]c1[O-] (3D coordinates assigned)
O=C(Cc1ccccc1C(=O)[N-]c1ccccc1)[N-][C@@H](Cc1ccccc1)c1[n-]c(=O)[n-]c1[O-] (optimized conformer: 93.0657181805713 kcal/mol)

>  <smiles>  (53) 
O=C(Cc1ccccc1C(=O)Nc1ccccc1)NC(Cc1ccccc1)c1[nH]c(=O)[nH]c1O

>  <score_type>  (53) 
oracle

>  <origin>  (53) 
adg

>  <m_score__min__energy>  (53) 
-18.280000000000001

>  <m_primary>  (53) 
energy

$$$$
53:0
     RDKit          3D

 47 50  0  0  0  0  0  0  0  0999 V2000
   56.5937   31.7377   52.0843 H   0  0  0  0  0  0  0  0  0  0  0  0
   55.5110   31.6280   52.2450 C   0  0  0  0  0  0  0  0  0  0  0  0
   54.8358   32.4708   52.0360 H   0  0  0  0  0  0  0  0  0  0  0  0
   55.0140   30.4660   52.6960 C   0  0  0  0  0  0  0  0  0  0  0  0
   53.6670   30.1790   52.9470 C   0  0  0  0  0  0  0  0  0  0  0  0
   52.6080   30.9820   52.7270 C   0  0  0  0  0  0  0  0  0  0  0  0
   52.2157   31.5638   53.5741 H   0  0  0  0  0  0  0  0  0  0  0  0
   51.9430   31.1280   51.4190 C   0  0  0  0  0  0  0  0  0  0  0  0
   52.0320   30.2130   50.4390 N   0  0  0  0  0  0  0  0  0  0  0  0
   51.3590   30.7800   49.4150 C   0  0  0  0  0  0  0  0  0  0  0  0
   51.2080   30.2100   48.3030 O   0  0  0  0  0  0  0  0  0  0  0  0
   50.8680   32.0110   49.6730 N   0  0  0  0  0  0  0  0  0  0  0  0
   51.2560   32.2240   50.9410 C   0  0  0  0  0  0  0  0  0  0  0  0
   51.0280   33.4120   51.6250 O   0  0  0  0  0  0  0  0  0  0  0  0
   53.6290   28.8730   53.4200 C   0  0  0  0  0  0  0  0  0  0  0  0
   52.7336   28.3089   53.7202 H   0  0  0  0  0  0  0  0  0  0  0  0
   54.9330   28.4210   53.4400 C   0  0  0  0  0  0  0  0  0  0  0  0
   55.3540   27.0500   53.8760 C   0  0  0  0  0  0  0  0  0  0  0  0
   55.3684   27.0030   54.9749 H   0  0  0  0  0  0  0  0  0  0  0  0
   54.6427   26.3068   53.4865 H   0  0  0  0  0  0  0  0  0  0  0  0
   56.3598   26.8341   53.4865 H   0  0  0  0  0  0  0  0  0  0  0  0
   55.7740   29.3890   53.0130 N   0  0  0  0  0  0  0  0  0  0  0  0
   57.2010   29.2650   52.8850 C   0  0  0  0  0  0  0  0  0  0  0  0
   57.8230   29.5700   51.6650 C   0  0  0  0  0  0  0  0  0  0  0  0
   57.2144   29.9089   50.8136 H   0  0  0  0  0  0  0  0  0  0  0  0
   59.2170   29.4470   51.5190 C   0  0  0  0  0  0  0  0  0  0  0  0
   59.8560   29.7640   50.2620 N   0  0  0  0  0  0  0  0  0  0  0  0
   60.4100   28.6980   49.4190 C   0  0  0  0  0  0  0  0  0  0  0  0
   61.4224   28.4477   49.7690 H   0  0  0  0  0  0  0  0  0  0  0  0
   59.7589   27.8139   49.4860 H   0  0  0  0  0  0  0  0  0  0  0  0
   60.4790   29.1570   47.9580 C   0  0  0  0  0  0  0  0  0  0  0  0
   60.9415   28.3591   47.3584 H   0  0  0  0  0  0  0  0  0  0  0  0
   59.4525   29.3684   47.6238 H   0  0  0  0  0  0  0  0  0  0  0  0
   61.2680   30.3900   47.7940 N   0  0  0  0  0  0  0  0  0  0  0  0
   60.9470   30.8640   46.9170 H   0  0  0  0  0  0  0  0  0  0  0  0
   61.1700   31.3500   48.9130 C   0  0  0  0  0  0  0  0  0  0  0  0
   62.0595   31.2345   49.5498 H   0  0  0  0  0  0  0  0  0  0  0  0
   61.1006   32.3553   48.4718 H   0  0  0  0  0  0  0  0  0  0  0  0
   59.9200   31.1510   49.7830 C   0  0  0  0  0  0  0  0  0  0  0  0
   59.9644   31.8324   50.6454 H   0  0  0  0  0  0  0  0  0  0  0  0
   59.0242   31.3668   49.1822 H   0  0  0  0  0  0  0  0  0  0  0  0
   59.9780   29.0060   52.6170 C   0  0  0  0  0  0  0  0  0  0  0  0
   61.0681   28.8981   52.5173 H   0  0  0  0  0  0  0  0  0  0  0  0
   59.3600   28.7040   53.8330 C   0  0  0  0  0  0  0  0  0  0  0  0
   59.9656   28.3633   54.6857 H   0  0  0  0  0  0  0  0  0  0  0  0
   57.9760   28.8330   53.9700 C   0  0  0  0  0  0  0  0  0  0  0  0
   57.3930   28.5570   55.1630 F   0  0  0  0  0  0  0  0  0  0  0  0
  1  2  1  0
  2  3  1  0
  2  4  2  0
  4  5  1  0
  5  6  2  0
  6  7  1  0
  6  8  1  0
  8  9  1  0
  9 10  1  0
 10 11  2  0
 10 12  1  0
 12 13  1  0
 13 14  1  0
  5 15  1  0
 15 16  1  0
 15 17  2  0
 17 18  1  0
 18 19  1  0
 18 20  1  0
 18 21  1  0
 17 22  1  0
 22 23  1  0
 23 24  2  0
 24 25  1  0
 24 26  1  0
 26 27  1  0
 27 28  1  0
 28 29  1  0
 28 30  1  0
 28 31  1  0
 31 32  1  0
 31 33  1  0
 31 34  1  0
 34 35  1  0
 34 36  1  0
 36 37  1  0
 36 38  1  0
 36 39  1  0
 39 40  1  0
 39 41  1  0
 26 42  2  0
 42 43  1  0
 42 44  1  0
 44 45  1  0
 44 46  2  0
 46 47  1  0
 22  4  1  0
 46 23  1  0
 13  8  2  0
 39 27  1  0
M  CHG  3   9  -1  12  -1  14  -1
M  END
>  <UniqueID>  (54) 
48

>  <SMILES>  (54) 
C=c1/c(=C/c2[n-]c(=O)[n-]c2[O-])cc(C)n1-c1cc(N2CCNCC2)ccc1F

>  <Energy>  (54) 
128.92858072512598

>  <Genealogy>  (54) 
C=c1c(=Cc2[n-]c(=O)[n-]c2[O-])cc(C)n1-c1cc(N2CCNCC2)ccc1F (protonated)
C=c1/c(=C/c2[n-]c(=O)[n-]c2[O-])cc(C)n1-c1cc(N2CCNCC2)ccc1F (cis-trans isomerization)
C=c1/c(=C/c2[n-]c(=O)[n-]c2[O-])cc(C)n1-c1cc(N2CCNCC2)ccc1F (3D coordinates assigned)
C=c1/c(=C/c2[n-]c(=O)[n-]c2[O-])cc(C)n1-c1cc(N2CCNCC2)ccc1F (nonaromatic ring conformer: 128.92858072512598 kcal/mol)

>  <smiles>  (54) 
C=c1c(=Cc2[nH]c(=O)[nH]c2O)cc(C)n1-c1cc(N2CCNCC2)ccc1F

>  <score_type>  (54) 
oracle

>  <origin>  (54) 
adg

>  <m_score__min__energy>  (54) 
-16

>  <m_primary>  (54) 
energy

$$$$
54:0
     RDKit          3D

 29 30  0  0  0  0  0  0  0  0999 V2000
   58.2610   25.0970   45.6490 C   0  0  0  0  0  0  0  0  0  0  0  0
   58.5080   26.3520   45.2860 C   0  0  0  0  0  0  0  0  0  0  0  0
   57.5580   27.2120   44.8500 N   0  0  0  0  0  0  0  0  0  0  0  0
   58.2300   28.3560   44.5970 C   0  0  0  0  0  0  0  0  0  0  0  0
   57.7090   29.5190   44.1640 C   0  0  0  0  0  0  0  0  0  0  0  0
   56.4190   30.0920   44.5920 C   0  0  0  0  0  0  0  0  0  0  0  0
   55.4740   29.3070   44.8690 O   0  0  0  0  0  0  0  0  0  0  0  0
   56.2720   31.5010   44.8110 N   0  0  0  0  0  0  0  0  0  0  0  0
   57.3070   32.4340   45.1610 C   0  0  0  0  0  0  0  0  0  0  0  0
   57.4380   32.9280   46.4730 C   0  0  0  0  0  0  0  0  0  0  0  0
   58.4400   33.8500   46.7840 C   0  0  0  0  0  0  0  0  0  0  0  0
   59.3100   34.3000   45.7920 C   0  0  0  0  0  0  0  0  0  0  0  0
   59.1760   33.8400   44.4810 C   0  0  0  0  0  0  0  0  0  0  0  0
   58.1700   32.9150   44.1530 C   0  0  0  0  0  0  0  0  0  0  0  0
   58.0310   32.4290   42.7360 C   0  0  0  0  0  0  0  0  0  0  0  0
   59.5570   28.1310   44.9030 C   0  0  0  0  0  0  0  0  0  0  0  0
   60.4990   28.9610   44.8050 O   0  0  0  0  0  0  0  0  0  0  0  0
   59.7060   26.8960   45.3180 O   0  0  0  0  0  0  0  0  0  0  0  0
   59.0828   24.4524   45.9942 H   0  0  0  0  0  0  0  0  0  0  0  0
   57.2348   24.7033   45.6042 H   0  0  0  0  0  0  0  0  0  0  0  0
   56.5360   27.0140   44.7840 H   0  0  0  0  0  0  0  0  0  0  0  0
   58.2947   30.0904   43.4289 H   0  0  0  0  0  0  0  0  0  0  0  0
   56.7472   32.5858   47.2576 H   0  0  0  0  0  0  0  0  0  0  0  0
   58.5429   34.2219   47.8141 H   0  0  0  0  0  0  0  0  0  0  0  0
   60.1037   35.0191   46.0429 H   0  0  0  0  0  0  0  0  0  0  0  0
   59.8611   34.2032   43.7008 H   0  0  0  0  0  0  0  0  0  0  0  0
   57.7285   31.3714   42.7391 H   0  0  0  0  0  0  0  0  0  0  0  0
   57.2679   33.0271   42.2164 H   0  0  0  0  0  0  0  0  0  0  0  0
   58.9949   32.5332   42.2164 H   0  0  0  0  0  0  0  0  0  0  0  0
  1  2  2  0
  2  3  1  0
  3  4  1  0
  4  5  2  3
  5  6  1  0
  6  7  2  0
  6  8  1  0
  8  9  1  0
  9 10  2  0
 10 11  1  0
 11 12  2  0
 12 13  1  0
 13 14  2  0
 14 15  1  0
  4 16  1  0
 16 17  2  0
 16 18  1  0
 18  2  1  0
 14  9  1  0
  1 19  1  0
  1 20  1  0
  3 21  1  0
  5 22  1  0
 10 23  1  0
 11 24  1  0
 12 25  1  0
 13 26  1  0
 15 27  1  0
 15 28  1  0
 15 29  1  0
M  CHG  1   8  -1
M  END
>  <UniqueID>  (55) 
49

>  <SMILES>  (55) 
C=c1[nH]c(=CC(=O)[N-]c2ccccc2C)c(=O)o1

>  <Energy>  (55) 
68.87311221111341

>  <Genealogy>  (55) 
C=c1[nH]c(=CC(=O)[N-]c2ccccc2C)c(=O)o1 (protonated)
C=c1[nH]c(=CC(=O)[N-]c2ccccc2C)c(=O)o1 (3D coordinates assigned)
C=c1[nH]c(=CC(=O)[N-]c2ccccc2C)c(=O)o1 (optimized conformer: 68.87311221111341 kcal/mol)

>  <smiles>  (55) 
C=c1[nH]c(=CC(=O)Nc2ccccc2C)c(=O)o1

>  <score_type>  (55) 
oracle

>  <origin>  (55) 
adg

>  <m_score__min__energy>  (55) 
-8.0500000000000007

>  <m_primary>  (55) 
energy

$$$$
55:0
     RDKit          3D

 65 69  0  0  0  0  0  0  0  0999 V2000
   62.9960   34.6250   50.8880 O   0  0  0  0  0  0  0  0  0  0  0  0
   62.3910   33.6420   50.3830 C   0  0  0  0  0  0  0  0  0  0  0  0
   62.9610   32.9720   49.1500 C   0  0  0  0  0  0  0  0  0  0  0  0
   62.0090   31.8690   48.6580 C   0  0  0  0  0  0  0  0  0  0  0  0
   62.4780   31.2500   47.3200 C   0  0  0  0  0  0  0  0  0  0  0  0
   63.7900   31.7680   46.9050 N   0  0  0  0  0  0  0  0  0  0  0  0
   63.7510   33.2310   46.7310 C   0  0  0  0  0  0  0  0  0  0  0  0
   63.2430   33.9590   48.0000 C   0  0  0  0  0  0  0  0  0  0  0  0
   61.1050   33.2630   50.9130 N   0  0  0  0  0  0  0  0  0  0  0  0
   60.9680   32.2190   51.9170 C   0  0  0  0  0  0  0  0  0  0  0  0
   59.4840   32.1490   52.2600 C   0  0  0  0  0  0  0  0  0  0  0  0
   58.8420   33.3950   51.6500 C   0  0  0  0  0  0  0  0  0  0  0  0
   59.8420   33.9340   50.6210 C   0  0  2  0  0  0  0  0  0  0  0  0
   59.3990   33.6440   49.1980 C   0  0  0  0  0  0  0  0  0  0  0  0
   58.5540   32.5580   48.9120 C   0  0  0  0  0  0  0  0  0  0  0  0
   58.1590   32.2900   47.5990 C   0  0  0  0  0  0  0  0  0  0  0  0
   58.6170   33.0920   46.5410 C   0  0  0  0  0  0  0  0  0  0  0  0
   58.2230   32.7600   45.1230 C   0  0  0  0  0  0  0  0  0  0  0  0
   58.1840   31.2740   44.8850 C   0  0  0  0  0  0  0  0  0  0  0  0
   59.3290   30.5520   44.9960 N   0  0  0  0  0  0  0  0  0  0  0  0
   59.3390   29.2340   44.8050 N   0  0  0  0  0  0  0  0  0  0  0  0
   58.2000   28.5690   44.4880 C   0  0  0  0  0  0  0  0  0  0  0  0
   58.2460   26.8000   44.2120 S   0  0  0  0  0  0  0  0  0  0  0  0
   57.8260   26.3580   45.9390 C   0  0  0  0  0  0  0  0  0  0  0  0
   58.6770   27.1110   46.9290 C   0  0  0  0  0  0  0  0  0  0  0  0
   59.9630   26.6520   47.2540 C   0  0  0  0  0  0  0  0  0  0  0  0
   60.7610   27.3700   48.1500 C   0  0  0  0  0  0  0  0  0  0  0  0
   60.2830   28.5490   48.7260 C   0  0  0  0  0  0  0  0  0  0  0  0
   61.0600   29.2460   49.5910 F   0  0  0  0  0  0  0  0  0  0  0  0
   59.0040   29.0110   48.4100 C   0  0  0  0  0  0  0  0  0  0  0  0
   58.2010   28.2940   47.5170 C   0  0  0  0  0  0  0  0  0  0  0  0
   57.0320   29.2500   44.3780 N   0  0  0  0  0  0  0  0  0  0  0  0
   56.9960   30.5930   44.5740 C   0  0  0  0  0  0  0  0  0  0  0  0
   55.9000   31.2080   44.4780 O   0  0  0  0  0  0  0  0  0  0  0  0
   59.4710   34.1750   46.8220 C   0  0  0  0  0  0  0  0  0  0  0  0
   59.9530   34.9540   45.8190 F   0  0  0  0  0  0  0  0  0  0  0  0
   59.8430   34.4580   48.1400 C   0  0  0  0  0  0  0  0  0  0  0  0
   63.9263   32.5378   49.4493 H   0  0  0  0  0  0  0  0  0  0  0  0
   61.9619   31.0758   49.4186 H   0  0  0  0  0  0  0  0  0  0  0  0
   61.0207   32.3230   48.4933 H   0  0  0  0  0  0  0  0  0  0  0  0
   62.5481   30.1587   47.4385 H   0  0  0  0  0  0  0  0  0  0  0  0
   61.7452   31.5191   46.5451 H   0  0  0  0  0  0  0  0  0  0  0  0
   64.0310   31.3380   45.9800 H   0  0  0  0  0  0  0  0  0  0  0  0
   64.7659   33.5873   46.5008 H   0  0  0  0  0  0  0  0  0  0  0  0
   63.0521   33.4545   45.9115 H   0  0  0  0  0  0  0  0  0  0  0  0
   64.0073   34.6791   48.3277 H   0  0  0  0  0  0  0  0  0  0  0  0
   62.3018   34.4697   47.7483 H   0  0  0  0  0  0  0  0  0  0  0  0
   61.3118   31.2550   51.5138 H   0  0  0  0  0  0  0  0  0  0  0  0
   61.5749   32.4382   52.8079 H   0  0  0  0  0  0  0  0  0  0  0  0
   59.0364   31.2409   51.8300 H   0  0  0  0  0  0  0  0  0  0  0  0
   59.3271   32.1110   53.3481 H   0  0  0  0  0  0  0  0  0  0  0  0
   57.8935   33.1329   51.1584 H   0  0  0  0  0  0  0  0  0  0  0  0
   58.6168   34.1469   52.4207 H   0  0  0  0  0  0  0  0  0  0  0  0
   59.9282   35.0283   50.6929 H   0  0  0  0  0  0  0  0  0  0  0  0
   58.2003   31.9129   49.7297 H   0  0  0  0  0  0  0  0  0  0  0  0
   57.4850   31.4455   47.3926 H   0  0  0  0  0  0  0  0  0  0  0  0
   57.2254   33.1785   44.9237 H   0  0  0  0  0  0  0  0  0  0  0  0
   58.9765   33.1937   44.4491 H   0  0  0  0  0  0  0  0  0  0  0  0
   56.7684   26.5992   46.1217 H   0  0  0  0  0  0  0  0  0  0  0  0
   58.0135   25.2825   46.0733 H   0  0  0  0  0  0  0  0  0  0  0  0
   60.3443   25.7243   46.8023 H   0  0  0  0  0  0  0  0  0  0  0  0
   61.7678   27.0053   48.4018 H   0  0  0  0  0  0  0  0  0  0  0  0
   58.6275   29.9397   48.8637 H   0  0  0  0  0  0  0  0  0  0  0  0
   57.1920   28.6585   47.2742 H   0  0  0  0  0  0  0  0  0  0  0  0
   60.4878   35.3238   48.3511 H   0  0  0  0  0  0  0  0  0  0  0  0
  1  2  2  0
  2  3  1  0
  3  4  1  0
  4  5  1  0
  5  6  1  0
  6  7  1  0
  7  8  1  0
  2  9  1  0
  9 10  1  0
 10 11  1  0
 11 12  1  0
 12 13  1  0
 13 14  1  0
 14 15  2  0
 15 16  1  0
 16 17  2  0
 17 18  1  0
 18 19  1  0
 19 20  2  0
 20 21  1  0
 21 22  1  0
 22 23  1  0
 23 24  1  0
 24 25  1  0
 25 26  2  0
 26 27  1  0
 27 28  2  0
 28 29  1  0
 28 30  1  0
 30 31  2  0
 22 32  2  0
 32 33  1  0
 33 34  2  0
 17 35  1  0
 35 36  1  0
 35 37  2  0
  8  3  1  0
 13  9  1  0
 37 14  1  0
 33 19  1  0
 31 25  1  0
  3 38  1  0
  4 39  1  0
  4 40  1  0
  5 41  1  0
  5 42  1  0
  6 43  1  0
  7 44  1  0
  7 45  1  0
  8 46  1  0
  8 47  1  0
 10 48  1  0
 10 49  1  0
 11 50  1  0
 11 51  1  0
 12 52  1  0
 12 53  1  0
 13 54  1  6
 15 55  1  0
 16 56  1  0
 18 57  1  0
 18 58  1  0
 24 59  1  0
 24 60  1  0
 26 61  1  0
 27 62  1  0
 30 63  1  0
 31 64  1  0
 37 65  1  0
M  CHG  1  21  -1
M  END
>  <UniqueID>  (56) 
50

>  <SMILES>  (56) 
O=C(C1CCNCC1)N1CCC[C@@H]1c1ccc(Cc2n[n-]c(SCc3ccc(F)cc3)nc2=O)c(F)c1

>  <Energy>  (56) 
71.40591238843191

>  <Genealogy>  (56) 
O=C(C1CCNCC1)N1CCCC1c1ccc(Cc2n[n-]c(SCc3ccc(F)cc3)nc2=O)c(F)c1 (protonated)
O=C(C1CCNCC1)N1CCC[C@@H]1c1ccc(Cc2n[n-]c(SCc3ccc(F)cc3)nc2=O)c(F)c1 (chirality)
O=C(C1CCNCC1)N1CCC[C@@H]1c1ccc(Cc2n[n-]c(SCc3ccc(F)cc3)nc2=O)c(F)c1 (3D coordinates assigned)
O=C(C1CCNCC1)N1CCC[C@@H]1c1ccc(Cc2n[n-]c(SCc3ccc(F)cc3)nc2=O)c(F)c1 (nonaromatic ring conformer: 71.40591238843191 kcal/mol)

>  <smiles>  (56) 
O=C(C1CCNCC1)N1CCCC1c1ccc(Cc2n[nH]c(SCc3ccc(F)cc3)nc2=O)c(F)c1

>  <score_type>  (56) 
oracle

>  <origin>  (56) 
adg

>  <m_score__min__energy>  (56) 
-11.789999999999999

>  <m_primary>  (56) 
energy

$$$$
56:0
     RDKit          3D

 64 67  0  0  0  0  0  0  0  0999 V2000
   58.1350   30.8550   51.9520 C   0  0  0  0  0  0  0  0  0  0  0  0
   57.5680   30.4520   50.7270 O   0  0  0  0  0  0  0  0  0  0  0  0
   58.5320   29.7460   49.9760 C   0  0  0  0  0  0  0  0  0  0  0  0
   58.8380   30.4810   48.7960 O   0  0  0  0  0  0  0  0  0  0  0  0
   60.1280   30.8790   48.4020 C   0  0  0  0  0  0  0  0  0  0  0  0
   61.2770   30.5070   49.1280 C   0  0  0  0  0  0  0  0  0  0  0  0
   62.5460   30.8890   48.6890 C   0  0  0  0  0  0  0  0  0  0  0  0
   62.6870   31.6480   47.5270 C   0  0  0  0  0  0  0  0  0  0  0  0
   61.5580   32.0370   46.8050 C   0  0  0  0  0  0  0  0  0  0  0  0
   60.2750   31.6620   47.2380 C   0  0  0  0  0  0  0  0  0  0  0  0
   59.0920   32.1130   46.4700 C   0  0  0  0  0  0  0  0  0  0  0  0
   58.6570   33.4340   46.3340 C   0  0  0  0  0  0  0  0  0  0  0  0
   59.2740   34.6580   46.8880 C   0  0  0  0  0  0  0  0  0  0  0  0
   59.7970   35.4890   46.1000 O   0  0  0  0  0  0  0  0  0  0  0  0
   59.2800   34.9350   48.3710 C   0  0  0  0  0  0  0  0  0  0  0  0
   60.1810   33.9730   49.1880 C   0  0  0  0  0  0  0  0  0  0  0  0
   61.6480   34.4370   49.2180 C   0  0  0  0  0  0  0  0  0  0  0  0
   59.6510   33.7330   50.6120 C   0  0  0  0  0  0  0  0  0  0  0  0
   57.5220   33.3800   45.5440 C   0  0  0  0  0  0  0  0  0  0  0  0
   56.7330   34.4490   45.1220 O   0  0  0  0  0  0  0  0  0  0  0  0
   57.3180   32.0610   45.2210 C   0  0  0  0  0  0  0  0  0  0  0  0
   56.2690   31.5830   44.4460 O   0  0  0  0  0  0  0  0  0  0  0  0
   58.2680   31.2820   45.7790 N   0  0  0  0  0  0  0  0  0  0  0  0
   58.3390   29.8480   45.6910 C   0  0  0  0  0  0  0  0  0  0  0  0
   57.1730   29.0770   45.7950 C   0  0  0  0  0  0  0  0  0  0  0  0
   57.2330   27.6850   45.6820 C   0  0  0  0  0  0  0  0  0  0  0  0
   58.4620   27.0330   45.4700 C   0  0  0  0  0  0  0  0  0  0  0  0
   58.5110   25.5550   45.3370 C   0  0  0  0  0  0  0  0  0  0  0  0
   59.4490   24.6940   45.9180 C   0  0  0  0  0  0  0  0  0  0  0  0
   59.2410   23.3440   45.6080 C   0  0  0  0  0  0  0  0  0  0  0  0
   58.1460   23.1370   44.7840 C   0  0  0  0  0  0  0  0  0  0  0  0
   57.5760   21.5480   44.1900 S   0  0  0  0  0  0  0  0  0  0  0  0
   56.6250   22.2720   42.8180 C   0  0  0  0  0  0  0  0  0  0  0  0
   57.4280   24.6140   44.4420 S   0  0  0  0  0  0  0  0  0  0  0  0
   59.6310   27.8120   45.3830 C   0  0  0  0  0  0  0  0  0  0  0  0
   59.5700   29.2040   45.4940 C   0  0  0  0  0  0  0  0  0  0  0  0
   57.5475   30.4374   52.7830 H   0  0  0  0  0  0  0  0  0  0  0  0
   59.1704   30.4891   52.0148 H   0  0  0  0  0  0  0  0  0  0  0  0
   58.1298   31.9532   52.0148 H   0  0  0  0  0  0  0  0  0  0  0  0
   59.4446   29.6183   50.5766 H   0  0  0  0  0  0  0  0  0  0  0  0
   58.1350   28.7573   49.7024 H   0  0  0  0  0  0  0  0  0  0  0  0
   61.1733   29.9115   50.0470 H   0  0  0  0  0  0  0  0  0  0  0  0
   63.4371   30.5907   49.2609 H   0  0  0  0  0  0  0  0  0  0  0  0
   63.6890   31.9401   47.1796 H   0  0  0  0  0  0  0  0  0  0  0  0
   61.6730   32.6402   45.8924 H   0  0  0  0  0  0  0  0  0  0  0  0
   59.6382   35.9629   48.5296 H   0  0  0  0  0  0  0  0  0  0  0  0
   58.2499   34.7861   48.7270 H   0  0  0  0  0  0  0  0  0  0  0  0
   60.1461   33.0081   48.6609 H   0  0  0  0  0  0  0  0  0  0  0  0
   61.9782   34.5415   50.2620 H   0  0  0  0  0  0  0  0  0  0  0  0
   62.2780   33.6943   48.7067 H   0  0  0  0  0  0  0  0  0  0  0  0
   61.7363   35.4069   48.7067 H   0  0  0  0  0  0  0  0  0  0  0  0
   60.3992   34.0718   51.3437 H   0  0  0  0  0  0  0  0  0  0  0  0
   58.7169   34.2960   50.7553 H   0  0  0  0  0  0  0  0  0  0  0  0
   59.4579   32.6596   50.7553 H   0  0  0  0  0  0  0  0  0  0  0  0
   55.9380   34.3100   44.5100 H   0  0  0  0  0  0  0  0  0  0  0  0
   56.2049   29.5703   45.9666 H   0  0  0  0  0  0  0  0  0  0  0  0
   56.3094   27.0927   45.7596 H   0  0  0  0  0  0  0  0  0  0  0  0
   60.2722   25.0445   46.5579 H   0  0  0  0  0  0  0  0  0  0  0  0
   59.8814   22.5310   45.9806 H   0  0  0  0  0  0  0  0  0  0  0  0
   55.8112   22.8916   43.2228 H   0  0  0  0  0  0  0  0  0  0  0  0
   57.2885   22.8957   42.2009 H   0  0  0  0  0  0  0  0  0  0  0  0
   56.2004   21.4664   42.2009 H   0  0  0  0  0  0  0  0  0  0  0  0
   60.6024   27.3204   45.2261 H   0  0  0  0  0  0  0  0  0  0  0  0
   60.4930   29.7985   45.4265 H   0  0  0  0  0  0  0  0  0  0  0  0
  1  2  1  0
  2  3  1  0
  3  4  1  0
  4  5  1  0
  5  6  2  0
  6  7  1  0
  7  8  2  0
  8  9  1  0
  9 10  2  0
 10 11  1  0
 11 12  2  0
 12 13  1  0
 13 14  2  0
 13 15  1  0
 15 16  1  0
 16 17  1  0
 16 18  1  0
 12 19  1  0
 19 20  1  0
 19 21  2  0
 21 22  1  0
 21 23  1  0
 23 24  1  0
 24 25  2  0
 25 26  1  0
 26 27  2  0
 27 28  1  0
 28 29  2  0
 29 30  1  0
 30 31  2  0
 31 32  1  0
 32 33  1  0
 31 34  1  0
 27 35  1  0
 35 36  2  0
 10  5  1  0
 23 11  1  0
 36 24  1  0
 34 28  1  0
  1 37  1  0
  1 38  1  0
  1 39  1  0
  3 40  1  0
  3 41  1  0
  6 42  1  0
  7 43  1  0
  8 44  1  0
  9 45  1  0
 15 46  1  0
 15 47  1  0
 16 48  1  0
 17 49  1  0
 17 50  1  0
 17 51  1  0
 18 52  1  0
 18 53  1  0
 18 54  1  0
 20 55  1  0
 25 56  1  0
 26 57  1  0
 29 58  1  0
 30 59  1  0
 33 60  1  0
 33 61  1  0
 33 62  1  0
 35 63  1  0
 36 64  1  0
M  CHG  1  22  -1
M  END
>  <UniqueID>  (57) 
51

>  <SMILES>  (57) 
COCOc1ccccc1-c1c(C(=O)CC(C)C)c(O)c([O-])n1-c1ccc(-c2ccc(SC)s2)cc1

>  <Energy>  (57) 
130.40008649150607

>  <Genealogy>  (57) 
COCOc1ccccc1-c1c(C(=O)CC(C)C)c(O)c([O-])n1-c1ccc(-c2ccc(SC)s2)cc1 (protonated)
COCOc1ccccc1-c1c(C(=O)CC(C)C)c(O)c([O-])n1-c1ccc(-c2ccc(SC)s2)cc1 (3D coordinates assigned)
COCOc1ccccc1-c1c(C(=O)CC(C)C)c(O)c([O-])n1-c1ccc(-c2ccc(SC)s2)cc1 (optimized conformer: 130.40008649150607 kcal/mol)

>  <smiles>  (57) 
COCOc1ccccc1-c1c(C(=O)CC(C)C)c(O)c(O)n1-c1ccc(-c2ccc(SC)s2)cc1

>  <score_type>  (57) 
oracle

>  <origin>  (57) 
adg

>  <m_score__min__energy>  (57) 
-9.4800000000000004

>  <m_primary>  (57) 
energy

$$$$
57:0
     RDKit          3D

 36 38  0  0  0  0  0  0  0  0999 V2000
   57.2570   26.0300   45.3760 O   0  0  0  0  0  0  0  0  0  0  0  0
   56.4840   26.9830   45.6630 C   0  0  0  0  0  0  0  0  0  0  0  0
   55.1600   26.7000   45.9780 O   0  0  0  0  0  0  0  0  0  0  0  0
   56.9710   28.3860   45.6690 C   0  0  0  0  0  0  0  0  0  0  0  0
   58.1960   28.6980   46.2760 C   0  0  0  0  0  0  0  0  0  0  0  0
   58.6490   29.9770   46.2870 N   0  0  0  0  0  0  0  0  0  0  0  0
   57.9380   30.9890   45.7220 C   0  0  0  0  0  0  0  0  0  0  0  0
   58.4720   32.3770   45.7380 C   0  0  0  0  0  0  0  0  0  0  0  0
   58.5080   33.1130   44.5370 C   0  0  0  0  0  0  0  0  0  0  0  0
   58.9790   34.4270   44.5180 C   0  0  0  0  0  0  0  0  0  0  0  0
   59.4230   35.0270   45.6930 C   0  0  0  0  0  0  0  0  0  0  0  0
   59.4050   34.3150   46.8930 C   0  0  0  0  0  0  0  0  0  0  0  0
   58.9370   32.9850   46.9330 C   0  0  0  0  0  0  0  0  0  0  0  0
   58.9390   32.2440   48.1280 O   0  0  0  0  0  0  0  0  0  0  0  0
   59.9780   31.3690   48.5650 C   0  0  0  0  0  0  0  0  0  0  0  0
   61.3190   32.0490   48.4760 C   0  0  0  0  0  0  0  0  0  0  0  0
   62.0410   32.0210   47.2710 C   0  0  0  0  0  0  0  0  0  0  0  0
   63.2850   32.6520   47.1810 C   0  0  0  0  0  0  0  0  0  0  0  0
   63.8130   33.3220   48.2880 C   0  0  0  0  0  0  0  0  0  0  0  0
   63.0950   33.3630   49.4890 C   0  0  0  0  0  0  0  0  0  0  0  0
   63.7580   34.2080   50.8760 Cl  0  0  0  0  0  0  0  0  0  0  0  0
   61.8490   32.7330   49.5820 C   0  0  0  0  0  0  0  0  0  0  0  0
   56.7500   30.7070   45.1230 N   0  0  0  0  0  0  0  0  0  0  0  0
   56.2510   29.4460   45.0820 C   0  0  0  0  0  0  0  0  0  0  0  0
   55.1430   29.2450   44.5160 O   0  0  0  0  0  0  0  0  0  0  0  0
   58.7926   27.9020   46.7455 H   0  0  0  0  0  0  0  0  0  0  0  0
   58.1608   32.6466   43.6032 H   0  0  0  0  0  0  0  0  0  0  0  0
   58.9993   34.9893   43.5728 H   0  0  0  0  0  0  0  0  0  0  0  0
   59.7887   36.0643   45.6755 H   0  0  0  0  0  0  0  0  0  0  0  0
   59.7593   34.7957   47.8168 H   0  0  0  0  0  0  0  0  0  0  0  0
   59.7895   31.0775   49.6088 H   0  0  0  0  0  0  0  0  0  0  0  0
   59.9882   30.4805   47.9166 H   0  0  0  0  0  0  0  0  0  0  0  0
   61.6258   31.5007   46.3953 H   0  0  0  0  0  0  0  0  0  0  0  0
   63.8493   32.6212   46.2373 H   0  0  0  0  0  0  0  0  0  0  0  0
   64.7926   33.8171   48.2156 H   0  0  0  0  0  0  0  0  0  0  0  0
   61.2830   32.7737   50.5243 H   0  0  0  0  0  0  0  0  0  0  0  0
  1  2  2  0
  2  3  1  0
  2  4  1  0
  4  5  2  0
  5  6  1  0
  6  7  1  0
  7  8  1  0
  8  9  2  0
  9 10  1  0
 10 11  2  0
 11 12  1  0
 12 13  2  0
 13 14  1  0
 14 15  1  0
 15 16  1  0
 16 17  2  0
 17 18  1  0
 18 19  2  0
 19 20  1  0
 20 21  1  0
 20 22  2  0
  7 23  2  0
 23 24  1  0
 24 25  2  0
 24  4  1  0
 13  8  1  0
 22 16  1  0
  5 26  1  0
  9 27  1  0
 10 28  1  0
 11 29  1  0
 12 30  1  0
 15 31  1  0
 15 32  1  0
 17 33  1  0
 18 34  1  0
 19 35  1  0
 22 36  1  0
M  CHG  2   3  -1   6  -1
M  END
>  <UniqueID>  (58) 
52

>  <SMILES>  (58) 
O=C([O-])c1c[n-]c(-c2ccccc2OCc2cccc(Cl)c2)nc1=O

>  <Energy>  (58) 
45.326140343675995

>  <Genealogy>  (58) 
O=C([O-])c1c[n-]c(-c2ccccc2OCc2cccc(Cl)c2)nc1=O (protonated)
O=C([O-])c1c[n-]c(-c2ccccc2OCc2cccc(Cl)c2)nc1=O (3D coordinates assigned)
O=C([O-])c1c[n-]c(-c2ccccc2OCc2cccc(Cl)c2)nc1=O (optimized conformer: 45.326140343675995 kcal/mol)

>  <smiles>  (58) 
O=C(O)c1c[nH]c(-c2ccccc2OCc2cccc(Cl)c2)nc1=O

>  <score_type>  (58) 
oracle

>  <origin>  (58) 
adg

>  <m_score__min__energy>  (58) 
-12.4

>  <m_primary>  (58) 
energy

$$$$
58:0
     RDKit          3D

 62 64  0  0  0  0  0  0  0  0999 V2000
   56.8240   24.6900   47.5360 C   0  0  0  0  0  0  0  0  0  0  0  0
   57.1940   25.2000   46.1700 C   0  0  0  0  0  0  0  0  0  0  0  0
   57.0420   24.3630   45.0500 C   0  0  0  0  0  0  0  0  0  0  0  0
   57.3690   24.8240   43.7730 C   0  0  0  0  0  0  0  0  0  0  0  0
   57.8590   26.1190   43.5980 C   0  0  0  0  0  0  0  0  0  0  0  0
   58.0180   26.9590   44.7010 C   0  0  0  0  0  0  0  0  0  0  0  0
   57.6760   26.5190   45.9910 C   0  0  0  0  0  0  0  0  0  0  0  0
   57.8590   27.3890   47.1220 N   0  0  0  0  0  0  0  0  0  0  0  0
   59.1290   27.9290   47.5010 C   0  0  0  0  0  0  0  0  0  0  0  0
   60.0780   27.9720   46.6720 O   0  0  0  0  0  0  0  0  0  0  0  0
   59.3520   28.4130   48.8990 C   0  0  0  0  0  0  0  0  0  0  0  0
   61.0180   29.1470   48.9970 S   0  0  0  0  0  0  0  0  0  0  0  0
   60.5530   30.7700   48.3630 C   0  0  0  0  0  0  0  0  0  0  0  0
   59.2310   31.1720   48.5040 C   0  0  0  0  0  0  0  0  0  0  0  0
   58.8390   32.4510   48.1140 C   0  0  0  0  0  0  0  0  0  0  0  0
   57.6190   32.7560   48.2320 O   0  0  0  0  0  0  0  0  0  0  0  0
   59.7510   33.3580   47.6200 N   0  0  0  0  0  0  0  0  0  0  0  0
   59.2720   34.6990   47.2050 C   0  0  0  0  0  0  0  0  0  0  0  0
   58.5530   34.6020   45.8950 C   0  0  0  0  0  0  0  0  0  0  0  0
   58.8880   35.3460   44.9330 O   0  0  0  0  0  0  0  0  0  0  0  0
   57.5360   33.6150   45.7150 N   0  0  0  0  0  0  0  0  0  0  0  0
   57.5760   32.6970   44.6210 C   0  0  0  0  0  0  0  0  0  0  0  0
   58.5450   32.7180   43.8110 O   0  0  0  0  0  0  0  0  0  0  0  0
   56.5550   31.6940   44.5030 N   0  0  0  0  0  0  0  0  0  0  0  0
   56.8260   30.3050   44.0910 C   0  0  0  0  0  0  0  0  0  0  0  0
   56.5250   30.1550   42.5850 C   0  0  0  0  0  0  0  0  0  0  0  0
   58.3040   29.9530   44.3330 C   0  0  0  0  0  0  0  0  0  0  0  0
   55.9140   29.3430   44.8740 C   0  0  0  0  0  0  0  0  0  0  0  0
   61.0770   32.9820   47.4650 C   0  0  0  0  0  0  0  0  0  0  0  0
   62.0570   33.8750   46.9540 C   0  0  0  0  0  0  0  0  0  0  0  0
   63.3880   33.4830   46.8150 C   0  0  0  0  0  0  0  0  0  0  0  0
   63.7790   32.1940   47.1540 C   0  0  0  0  0  0  0  0  0  0  0  0
   62.8430   31.2880   47.6500 C   0  0  0  0  0  0  0  0  0  0  0  0
   61.4950   31.6670   47.8250 C   0  0  0  0  0  0  0  0  0  0  0  0
   57.2868   25.3280   48.3033 H   0  0  0  0  0  0  0  0  0  0  0  0
   55.7303   24.7120   47.6518 H   0  0  0  0  0  0  0  0  0  0  0  0
   57.1843   23.6571   47.6518 H   0  0  0  0  0  0  0  0  0  0  0  0
   56.6631   23.3386   45.1808 H   0  0  0  0  0  0  0  0  0  0  0  0
   57.2400   24.1643   42.9023 H   0  0  0  0  0  0  0  0  0  0  0  0
   58.1197   26.4774   42.5912 H   0  0  0  0  0  0  0  0  0  0  0  0
   58.4148   27.9751   44.5593 H   0  0  0  0  0  0  0  0  0  0  0  0
   57.0310   27.6290   47.7060 H   0  0  0  0  0  0  0  0  0  0  0  0
   58.5968   29.1709   49.1543 H   0  0  0  0  0  0  0  0  0  0  0  0
   59.2667   27.5750   49.6065 H   0  0  0  0  0  0  0  0  0  0  0  0
   58.4897   30.4772   48.9257 H   0  0  0  0  0  0  0  0  0  0  0  0
   58.5859   35.0935   47.9690 H   0  0  0  0  0  0  0  0  0  0  0  0
   60.1344   35.3729   47.0951 H   0  0  0  0  0  0  0  0  0  0  0  0
   56.9040   33.4010   46.5170 H   0  0  0  0  0  0  0  0  0  0  0  0
   55.6300   31.9160   44.9350 H   0  0  0  0  0  0  0  0  0  0  0  0
   55.5476   29.6679   42.4532 H   0  0  0  0  0  0  0  0  0  0  0  0
   56.5058   31.1489   42.1141 H   0  0  0  0  0  0  0  0  0  0  0  0
   57.3070   29.5412   42.1141 H   0  0  0  0  0  0  0  0  0  0  0  0
   58.4976   29.9069   45.4149 H   0  0  0  0  0  0  0  0  0  0  0  0
   58.5275   28.9765   43.8786 H   0  0  0  0  0  0  0  0  0  0  0  0
   58.9437   30.7239   43.8786 H   0  0  0  0  0  0  0  0  0  0  0  0
   56.0597   29.4967   45.9534 H   0  0  0  0  0  0  0  0  0  0  0  0
   54.8636   29.5404   44.6140 H   0  0  0  0  0  0  0  0  0  0  0  0
   56.1672   28.3046   44.6140 H   0  0  0  0  0  0  0  0  0  0  0  0
   61.7605   34.8935   46.6629 H   0  0  0  0  0  0  0  0  0  0  0  0
   64.1322   34.1983   46.4349 H   0  0  0  0  0  0  0  0  0  0  0  0
   64.8283   31.8879   47.0309 H   0  0  0  0  0  0  0  0  0  0  0  0
   63.1586   30.2663   47.9079 H   0  0  0  0  0  0  0  0  0  0  0  0
  1  2  1  0
  2  3  2  0
  3  4  1  0
  4  5  2  0
  5  6  1  0
  6  7  2  0
  7  8  1  0
  8  9  1  0
  9 10  2  0
  9 11  1  0
 11 12  1  0
 12 13  1  0
 13 14  2  0
 14 15  1  0
 15 16  2  0
 15 17  1  0
 17 18  1  0
 18 19  1  0
 19 20  2  0
 19 21  1  0
 21 22  1  0
 22 23  2  0
 22 24  1  0
 24 25  1  0
 25 26  1  0
 25 27  1  0
 25 28  1  0
 17 29  1  0
 29 30  2  0
 30 31  1  0
 31 32  2  0
 32 33  1  0
 33 34  2  0
  7  2  1  0
 34 13  1  0
 34 29  1  0
  1 35  1  0
  1 36  1  0
  1 37  1  0
  3 38  1  0
  4 39  1  0
  5 40  1  0
  6 41  1  0
  8 42  1  0
 11 43  1  0
 11 44  1  0
 14 45  1  0
 18 46  1  0
 18 47  1  0
 21 48  1  0
 24 49  1  0
 26 50  1  0
 26 51  1  0
 26 52  1  0
 27 53  1  0
 27 54  1  0
 27 55  1  0
 28 56  1  0
 28 57  1  0
 28 58  1  0
 30 59  1  0
 31 60  1  0
 32 61  1  0
 33 62  1  0
M  END
>  <UniqueID>  (59) 
53

>  <SMILES>  (59) 
Cc1ccccc1NC(=O)CSc1cc(=O)n(CC(=O)NC(=O)NC(C)(C)C)c2ccccc12

>  <Energy>  (59) 
71.85804268570209

>  <Genealogy>  (59) 
Cc1ccccc1NC(=O)CSc1cc(=O)n(CC(=O)NC(=O)NC(C)(C)C)c2ccccc12 (3D coordinates assigned)
Cc1ccccc1NC(=O)CSc1cc(=O)n(CC(=O)NC(=O)NC(C)(C)C)c2ccccc12 (optimized conformer: 71.85804268570209 kcal/mol)

>  <smiles>  (59) 
Cc1ccccc1NC(=O)CSc1cc(=O)n(CC(=O)NC(=O)NC(C)(C)C)c2ccccc12

>  <score_type>  (59) 
oracle

>  <origin>  (59) 
adg

>  <m_score__min__energy>  (59) 
-9.75

>  <m_primary>  (59) 
energy

$$$$
59:0
     RDKit          3D

 51 54  0  0  0  0  0  0  0  0999 V2000
   55.8210   29.6860   55.1420 O   0  0  0  0  0  0  0  0  0  0  0  0
   54.8520   29.9880   54.3940 C   0  0  0  0  0  0  0  0  0  0  0  0
   53.4760   30.0990   54.9770 C   0  0  0  0  0  0  0  0  0  0  0  0
   52.4620   30.0310   53.9270 N   0  0  0  0  0  0  0  0  0  0  0  0
   51.7900   31.1400   53.3090 C   0  0  0  0  0  0  0  0  0  0  0  0
   51.3950   32.0870   54.0400 O   0  0  0  0  0  0  0  0  0  0  0  0
   51.5870   31.2450   51.8530 C   0  0  0  0  0  0  0  0  0  0  0  0
   51.8390   30.2560   50.9150 C   0  0  0  0  0  0  0  0  0  0  0  0
   51.4810   30.7820   49.6940 C   0  0  0  0  0  0  0  0  0  0  0  0
   51.0180   32.0500   49.9570 C   0  0  0  0  0  0  0  0  0  0  0  0
   50.5500   32.9360   48.9960 O   0  0  0  0  0  0  0  0  0  0  0  0
   51.0660   32.3440   51.2700 N   0  0  0  0  0  0  0  0  0  0  0  0
   55.0570   30.2050   52.9900 N   0  0  0  0  0  0  0  0  0  0  0  0
   56.2880   30.6810   52.4170 C   0  0  0  0  0  0  0  0  0  0  0  0
   57.3130   29.7970   52.0310 C   0  0  0  0  0  0  0  0  0  0  0  0
   58.5190   30.2890   51.5260 C   0  0  0  0  0  0  0  0  0  0  0  0
   58.7220   31.6710   51.4060 C   0  0  0  0  0  0  0  0  0  0  0  0
   60.2430   32.2930   50.7610 S   0  0  0  0  0  0  0  0  0  0  0  0
   60.7190   33.4260   51.6290 O   0  0  0  0  0  0  0  0  0  0  0  0
   61.2830   31.2080   50.8040 O   0  0  0  0  0  0  0  0  0  0  0  0
   60.0590   32.8600   49.1190 N   0  0  0  0  0  0  0  0  0  0  0  0
   59.9670   34.3280   49.1010 C   0  0  0  0  0  0  0  0  0  0  0  0
   60.0530   34.8280   47.6580 C   0  0  0  0  0  0  0  0  0  0  0  0
   59.1310   34.0610   46.7450 C   0  0  0  0  0  0  0  0  0  0  0  0
   58.8540   34.5620   45.4640 C   0  0  0  0  0  0  0  0  0  0  0  0
   58.0400   33.8430   44.5850 C   0  0  0  0  0  0  0  0  0  0  0  0
   57.5010   32.6150   44.9750 C   0  0  0  0  0  0  0  0  0  0  0  0
   57.7800   32.1000   46.2440 C   0  0  0  0  0  0  0  0  0  0  0  0
   58.6110   32.8050   47.1280 C   0  0  0  0  0  0  0  0  0  0  0  0
   58.8520   32.2660   48.5180 C   0  0  0  0  0  0  0  0  0  0  0  0
   57.7110   32.5550   51.8020 C   0  0  0  0  0  0  0  0  0  0  0  0
   56.5050   32.0630   52.3100 C   0  0  0  0  0  0  0  0  0  0  0  0
   53.3169   29.2735   55.6863 H   0  0  0  0  0  0  0  0  0  0  0  0
   53.3874   31.0673   55.4914 H   0  0  0  0  0  0  0  0  0  0  0  0
   52.2441   29.2516   51.1077 H   0  0  0  0  0  0  0  0  0  0  0  0
   51.5508   30.2904   48.7125 H   0  0  0  0  0  0  0  0  0  0  0  0
   54.2540   30.0250   52.3470 H   0  0  0  0  0  0  0  0  0  0  0  0
   57.1634   28.7115   52.1276 H   0  0  0  0  0  0  0  0  0  0  0  0
   59.3118   29.5899   51.2216 H   0  0  0  0  0  0  0  0  0  0  0  0
   59.0083   34.6405   49.5405 H   0  0  0  0  0  0  0  0  0  0  0  0
   60.7955   34.7539   49.6860 H   0  0  0  0  0  0  0  0  0  0  0  0
   59.7754   35.8921   47.6325 H   0  0  0  0  0  0  0  0  0  0  0  0
   61.0845   34.6805   47.3055 H   0  0  0  0  0  0  0  0  0  0  0  0
   59.2801   35.5263   45.1500 H   0  0  0  0  0  0  0  0  0  0  0  0
   57.8233   34.2448   43.5842 H   0  0  0  0  0  0  0  0  0  0  0  0
   56.8566   32.0529   44.2831 H   0  0  0  0  0  0  0  0  0  0  0  0
   57.3459   31.1371   46.5513 H   0  0  0  0  0  0  0  0  0  0  0  0
   57.9832   32.5024   49.1499 H   0  0  0  0  0  0  0  0  0  0  0  0
   58.9973   31.1778   48.4488 H   0  0  0  0  0  0  0  0  0  0  0  0
   57.8661   33.6404   51.7131 H   0  0  0  0  0  0  0  0  0  0  0  0
   55.7201   32.7649   52.6283 H   0  0  0  0  0  0  0  0  0  0  0  0
  1  2  2  0
  2  3  1  0
  3  4  1  0
  4  5  1  0
  5  6  2  0
  5  7  1  0
  7  8  2  0
  8  9  1  0
  9 10  2  0
 10 11  1  0
 10 12  1  0
  2 13  1  0
 13 14  1  0
 14 15  2  0
 15 16  1  0
 16 17  2  0
 17 18  1  0
 18 19  2  0
 18 20  2  0
 18 21  1  0
 21 22  1  0
 22 23  1  0
 23 24  1  0
 24 25  2  0
 25 26  1  0
 26 27  2  0
 27 28  1  0
 28 29  2  0
 29 30  1  0
 17 31  1  0
 31 32  2  0
 12  7  1  0
 32 14  1  0
 30 21  1  0
 29 24  1  0
  3 33  1  0
  3 34  1  0
  8 35  1  0
  9 36  1  0
 13 37  1  0
 15 38  1  0
 16 39  1  0
 22 40  1  0
 22 41  1  0
 23 42  1  0
 23 43  1  0
 25 44  1  0
 26 45  1  0
 27 46  1  0
 28 47  1  0
 30 48  1  0
 30 49  1  0
 31 50  1  0
 32 51  1  0
M  CHG  3   4  -1  11  -1  12  -1
M  END
>  <UniqueID>  (60) 
54

>  <SMILES>  (60) 
O=C(C[N-]C(=O)c1ccc([O-])[n-]1)Nc1ccc(S(=O)(=O)N2CCc3ccccc3C2)cc1

>  <Energy>  (60) 
83.042828299458

>  <Genealogy>  (60) 
O=C(C[N-]C(=O)c1ccc([O-])[n-]1)Nc1ccc(S(=O)(=O)N2CCc3ccccc3C2)cc1 (protonated)
O=C(C[N-]C(=O)c1ccc([O-])[n-]1)Nc1ccc(S(=O)(=O)N2CCc3ccccc3C2)cc1 (3D coordinates assigned)
O=C(C[N-]C(=O)c1ccc([O-])[n-]1)Nc1ccc(S(=O)(=O)N2CCc3ccccc3C2)cc1 (nonaromatic ring conformer: 83.042828299458 kcal/mol)

>  <smiles>  (60) 
O=C(CNC(=O)c1ccc(O)[nH]1)Nc1ccc(S(=O)(=O)N2CCc3ccccc3C2)cc1

>  <score_type>  (60) 
oracle

>  <origin>  (60) 
adg

>  <m_score__min__energy>  (60) 
-17.34

>  <m_primary>  (60) 
energy

$$$$
60:0
     RDKit          3D

 50 53  0  0  0  0  0  0  0  0999 V2000
   60.1820   34.8580   47.7340 O   0  0  0  0  0  0  0  0  0  0  0  0
   60.1230   33.6250   47.4720 C   0  0  0  0  0  0  0  0  0  0  0  0
   60.9650   32.6950   48.1740 N   0  0  0  0  0  0  0  0  0  0  0  0
   62.1010   33.0780   48.9680 C   0  0  0  0  0  0  0  0  0  0  0  0
   61.9570   33.8710   50.1230 C   0  0  0  0  0  0  0  0  0  0  0  0
   63.0810   34.2490   50.8640 C   0  0  0  0  0  0  0  0  0  0  0  0
   64.3570   33.8540   50.4540 C   0  0  0  0  0  0  0  0  0  0  0  0
   64.5100   33.0880   49.2960 C   0  0  0  0  0  0  0  0  0  0  0  0
   63.3890   32.7060   48.5530 C   0  0  0  0  0  0  0  0  0  0  0  0
   59.1520   33.1410   46.4760 C   0  0  0  0  0  0  0  0  0  0  0  0
   58.4380   33.9860   45.6280 C   0  0  0  0  0  0  0  0  0  0  0  0
   57.4390   33.0330   44.6700 S   0  0  0  0  0  0  0  0  0  0  0  0
   57.9530   31.5910   45.3680 C   0  0  0  0  0  0  0  0  0  0  0  0
   57.4480   30.2220   45.0110 C   0  0  0  0  0  0  0  0  0  0  0  0
   58.4560   29.1600   45.2170 N   0  0  0  0  0  0  0  0  0  0  0  0
   58.6660   28.7690   46.6330 C   0  0  0  0  0  0  0  0  0  0  0  0
   57.9060   27.4880   47.0280 C   0  0  0  0  0  0  0  0  0  0  0  0
   58.0330   26.4430   46.0080 N   0  0  0  0  0  0  0  0  0  0  0  0
   57.3580   25.1870   46.2090 C   0  0  0  0  0  0  0  0  0  0  0  0
   57.2640   24.7150   47.3750 O   0  0  0  0  0  0  0  0  0  0  0  0
   56.7690   24.4240   45.0530 C   0  0  0  0  0  0  0  0  0  0  0  0
   55.2760   24.3300   45.1650 C   0  0  0  0  0  0  0  0  0  0  0  0
   54.5650   23.2220   44.8890 N   0  0  0  0  0  0  0  0  0  0  0  0
   53.2970   23.5890   45.1800 C   0  0  0  0  0  0  0  0  0  0  0  0
   52.3180   22.8100   45.0450 O   0  0  0  0  0  0  0  0  0  0  0  0
   53.1610   24.8550   45.6320 N   0  0  0  0  0  0  0  0  0  0  0  0
   54.4250   25.3080   45.6200 C   0  0  0  0  0  0  0  0  0  0  0  0
   54.7940   26.5840   46.0250 O   0  0  0  0  0  0  0  0  0  0  0  0
   58.8200   26.7170   44.8030 C   0  0  0  0  0  0  0  0  0  0  0  0
   58.3740   28.0600   44.2250 C   0  0  0  0  0  0  0  0  0  0  0  0
   58.8810   31.8150   46.3220 N   0  0  0  0  0  0  0  0  0  0  0  0
   60.6780   31.6900   48.1890 H   0  0  0  0  0  0  0  0  0  0  0  0
   60.9557   34.1945   50.4437 H   0  0  0  0  0  0  0  0  0  0  0  0
   62.9604   34.8586   51.7716 H   0  0  0  0  0  0  0  0  0  0  0  0
   65.2396   34.1458   51.0422 H   0  0  0  0  0  0  0  0  0  0  0  0
   65.5151   32.7845   48.9678 H   0  0  0  0  0  0  0  0  0  0  0  0
   63.5174   32.1101   47.6373 H   0  0  0  0  0  0  0  0  0  0  0  0
   58.5149   35.0827   45.5922 H   0  0  0  0  0  0  0  0  0  0  0  0
   56.5710   29.9983   45.6362 H   0  0  0  0  0  0  0  0  0  0  0  0
   57.1980   30.2336   43.9398 H   0  0  0  0  0  0  0  0  0  0  0  0
   59.7412   28.6012   46.7936 H   0  0  0  0  0  0  0  0  0  0  0  0
   58.2773   29.5859   47.2588 H   0  0  0  0  0  0  0  0  0  0  0  0
   58.3139   27.1104   47.9772 H   0  0  0  0  0  0  0  0  0  0  0  0
   56.8400   27.7402   47.1281 H   0  0  0  0  0  0  0  0  0  0  0  0
   57.0261   24.9391   44.1157 H   0  0  0  0  0  0  0  0  0  0  0  0
   57.1825   23.4047   45.0635 H   0  0  0  0  0  0  0  0  0  0  0  0
   59.8886   26.7606   45.0601 H   0  0  0  0  0  0  0  0  0  0  0  0
   58.6643   25.9186   44.0625 H   0  0  0  0  0  0  0  0  0  0  0  0
   59.0193   28.3077   43.3693 H   0  0  0  0  0  0  0  0  0  0  0  0
   57.3213   27.9607   43.9218 H   0  0  0  0  0  0  0  0  0  0  0  0
  1  2  2  0
  2  3  1  0
  3  4  1  0
  4  5  2  0
  5  6  1  0
  6  7  2  0
  7  8  1  0
  8  9  2  0
  2 10  1  0
 10 11  2  0
 11 12  1  0
 12 13  1  0
 13 14  1  0
 14 15  1  0
 15 16  1  0
 16 17  1  0
 17 18  1  0
 18 19  1  0
 19 20  2  0
 19 21  1  0
 21 22  1  0
 22 23  1  0
 23 24  1  0
 24 25  2  0
 24 26  1  0
 26 27  1  0
 27 28  1  0
 18 29  1  0
 29 30  1  0
 13 31  2  0
  9  4  1  0
 31 10  1  0
 30 15  1  0
 27 22  2  0
  3 32  1  0
  5 33  1  0
  6 34  1  0
  7 35  1  0
  8 36  1  0
  9 37  1  0
 11 38  1  0
 14 39  1  0
 14 40  1  0
 16 41  1  0
 16 42  1  0
 17 43  1  0
 17 44  1  0
 21 45  1  0
 21 46  1  0
 29 47  1  0
 29 48  1  0
 30 49  1  0
 30 50  1  0
M  CHG  3  23  -1  26  -1  28  -1
M  END
>  <UniqueID>  (61) 
55

>  <SMILES>  (61) 
O=C(Nc1ccccc1)c1csc(CN2CCN(C(=O)Cc3[n-]c(=O)[n-]c3[O-])CC2)n1

>  <Energy>  (61) 
123.6316764817201

>  <Genealogy>  (61) 
O=C(Nc1ccccc1)c1csc(CN2CCN(C(=O)Cc3[n-]c(=O)[n-]c3[O-])CC2)n1 (protonated)
O=C(Nc1ccccc1)c1csc(CN2CCN(C(=O)Cc3[n-]c(=O)[n-]c3[O-])CC2)n1 (3D coordinates assigned)
O=C(Nc1ccccc1)c1csc(CN2CCN(C(=O)Cc3[n-]c(=O)[n-]c3[O-])CC2)n1 (nonaromatic ring conformer: 123.6316764817201 kcal/mol)

>  <smiles>  (61) 
O=C(Nc1ccccc1)c1csc(CN2CCN(C(=O)Cc3[nH]c(=O)[nH]c3O)CC2)n1

>  <score_type>  (61) 
oracle

>  <origin>  (61) 
adg

>  <m_score__min__energy>  (61) 
-16.09

>  <m_primary>  (61) 
energy

$$$$
61:0
     RDKit          3D

 49 52  0  0  0  0  0  0  0  0999 V2000
   59.3473   29.8280   48.2854 H   0  0  0  0  0  0  0  0  0  0  0  0
   58.5910   29.5210   47.5480 C   0  0  0  0  0  0  0  0  0  0  0  0
   58.0461   28.5746   47.6804 H   0  0  0  0  0  0  0  0  0  0  0  0
   58.3330   30.3010   46.4870 C   0  0  0  0  0  0  0  0  0  0  0  0
   57.4050   30.0580   45.4600 C   0  0  0  0  0  0  0  0  0  0  0  0
   56.7000   28.9530   45.1490 C   0  0  0  0  0  0  0  0  0  0  0  0
   55.7956   29.0899   44.5380 H   0  0  0  0  0  0  0  0  0  0  0  0
   57.0340   27.5800   45.5550 C   0  0  0  0  0  0  0  0  0  0  0  0
   58.2930   27.1410   45.7300 N   0  0  0  0  0  0  0  0  0  0  0  0
   58.1250   25.8920   46.2160 C   0  0  0  0  0  0  0  0  0  0  0  0
   59.0920   25.1380   46.4950 O   0  0  0  0  0  0  0  0  0  0  0  0
   56.8380   25.5190   46.3910 N   0  0  0  0  0  0  0  0  0  0  0  0
   56.1610   26.6040   45.9830 C   0  0  0  0  0  0  0  0  0  0  0  0
   54.7760   26.7100   46.0260 O   0  0  0  0  0  0  0  0  0  0  0  0
   57.3130   31.2340   44.7340 C   0  0  0  0  0  0  0  0  0  0  0  0
   56.6441   31.4274   43.8825 H   0  0  0  0  0  0  0  0  0  0  0  0
   58.2210   32.1170   45.2830 C   0  0  0  0  0  0  0  0  0  0  0  0
   58.4530   33.5140   44.7950 C   0  0  0  0  0  0  0  0  0  0  0  0
   58.5651   34.1893   45.6560 H   0  0  0  0  0  0  0  0  0  0  0  0
   59.3681   33.5422   44.1853 H   0  0  0  0  0  0  0  0  0  0  0  0
   57.5961   33.8365   44.1853 H   0  0  0  0  0  0  0  0  0  0  0  0
   58.8410   31.5530   46.3440 N   0  0  0  0  0  0  0  0  0  0  0  0
   59.8180   32.1950   47.1820 C   0  0  0  0  0  0  0  0  0  0  0  0
   61.1380   32.3470   46.7360 C   0  0  0  0  0  0  0  0  0  0  0  0
   61.4257   31.9764   45.7411 H   0  0  0  0  0  0  0  0  0  0  0  0
   62.0900   32.9670   47.5490 C   0  0  0  0  0  0  0  0  0  0  0  0
   63.1210   33.0918   47.1864 H   0  0  0  0  0  0  0  0  0  0  0  0
   61.7380   33.4320   48.8270 C   0  0  0  0  0  0  0  0  0  0  0  0
   62.7480   34.0970   49.6800 C   0  0  0  0  0  0  0  0  0  0  0  0
   62.6830   35.3450   49.8460 O   0  0  0  0  0  0  0  0  0  0  0  0
   63.8120   33.3520   50.3040 N   0  0  0  0  0  0  0  0  0  0  0  0
   64.3290   33.7540   51.6180 C   0  0  0  0  0  0  0  0  0  0  0  0
   63.8203   34.6750   51.9390 H   0  0  0  0  0  0  0  0  0  0  0  0
   64.1393   32.9412   52.3345 H   0  0  0  0  0  0  0  0  0  0  0  0
   65.8500   34.0120   51.5550 C   0  0  0  0  0  0  0  0  0  0  0  0
   66.0154   35.0925   51.4322 H   0  0  0  0  0  0  0  0  0  0  0  0
   66.2830   33.6282   52.4905 H   0  0  0  0  0  0  0  0  0  0  0  0
   66.5200   33.3070   50.4440 N   0  0  0  0  0  0  0  0  0  0  0  0
   67.5120   33.1260   50.7210 H   0  0  0  0  0  0  0  0  0  0  0  0
   65.8850   32.0190   50.1450 C   0  0  0  0  0  0  0  0  0  0  0  0
   66.4913   31.4722   49.4079 H   0  0  0  0  0  0  0  0  0  0  0  0
   65.8076   31.4224   51.0659 H   0  0  0  0  0  0  0  0  0  0  0  0
   64.4860   32.2680   49.5740 C   0  0  0  0  0  0  0  0  0  0  0  0
   64.5732   32.5466   48.5134 H   0  0  0  0  0  0  0  0  0  0  0  0
   63.8922   31.3481   49.6794 H   0  0  0  0  0  0  0  0  0  0  0  0
   60.4110   33.2940   49.2650 C   0  0  0  0  0  0  0  0  0  0  0  0
   60.1196   33.6754   50.2548 H   0  0  0  0  0  0  0  0  0  0  0  0
   59.4580   32.6750   48.4510 C   0  0  0  0  0  0  0  0  0  0  0  0
   58.1840   32.5360   48.8990 F   0  0  0  0  0  0  0  0  0  0  0  0
  1  2  1  0
  2  3  1  0
  2  4  2  0
  4  5  1  0
  5  6  2  0
  6  7  1  0
  6  8  1  0
  8  9  1  0
  9 10  1  0
 10 11  2  0
 10 12  1  0
 12 13  1  0
 13 14  1  0
  5 15  1  0
 15 16  1  0
 15 17  2  0
 17 18  1  0
 18 19  1  0
 18 20  1  0
 18 21  1  0
 17 22  1  0
 22 23  1  0
 23 24  2  0
 24 25  1  0
 24 26  1  0
 26 27  1  0
 26 28  2  0
 28 29  1  0
 29 30  2  0
 29 31  1  0
 31 32  1  0
 32 33  1  0
 32 34  1  0
 32 35  1  0
 35 36  1  0
 35 37  1  0
 35 38  1  0
 38 39  1  0
 38 40  1  0
 40 41  1  0
 40 42  1  0
 40 43  1  0
 43 44  1  0
 43 45  1  0
 28 46  1  0
 46 47  1  0
 46 48  2  0
 48 49  1  0
 22  4  1  0
 48 23  1  0
 13  8  2  0
 43 31  1  0
M  CHG  3   9  -1  12  -1  14  -1
M  END
>  <UniqueID>  (62) 
56

>  <SMILES>  (62) 
C=c1/c(=C\c2[n-]c(=O)[n-]c2[O-])cc(C)n1-c1ccc(C(=O)N2CCNCC2)cc1F

>  <Energy>  (62) 
137.33972385888205

>  <Genealogy>  (62) 
C=c1c(=Cc2[n-]c(=O)[n-]c2[O-])cc(C)n1-c1ccc(C(=O)N2CCNCC2)cc1F (protonated)
C=c1/c(=C\c2[n-]c(=O)[n-]c2[O-])cc(C)n1-c1ccc(C(=O)N2CCNCC2)cc1F (cis-trans isomerization)
C=c1/c(=C\c2[n-]c(=O)[n-]c2[O-])cc(C)n1-c1ccc(C(=O)N2CCNCC2)cc1F (3D coordinates assigned)
C=c1/c(=C\c2[n-]c(=O)[n-]c2[O-])cc(C)n1-c1ccc(C(=O)N2CCNCC2)cc1F (nonaromatic ring conformer: 137.33972385888205 kcal/mol)

>  <smiles>  (62) 
C=c1c(=Cc2[nH]c(=O)[nH]c2O)cc(C)n1-c1ccc(C(=O)N2CCNCC2)cc1F

>  <score_type>  (62) 
oracle

>  <origin>  (62) 
adg

>  <m_score__min__energy>  (62) 
-15.74

>  <m_primary>  (62) 
energy

$$$$
62:0
     RDKit          3D

 42 44  0  0  0  0  0  0  0  0999 V2000
   57.5605   29.4407   43.3438 H   0  0  0  0  0  0  0  0  0  0  0  0
   57.2680   29.7040   44.3710 C   0  0  0  0  0  0  0  0  0  0  0  0
   56.5010   28.8490   45.0630 C   0  0  0  0  0  0  0  0  0  0  0  0
   55.4429   29.1027   45.2244 H   0  0  0  0  0  0  0  0  0  0  0  0
   57.0180   27.5780   45.6190 C   0  0  0  0  0  0  0  0  0  0  0  0
   58.4050   27.3720   45.6190 C   0  0  0  0  0  0  0  0  0  0  0  0
   59.0721   28.1439   45.2077 H   0  0  0  0  0  0  0  0  0  0  0  0
   58.9440   26.1950   46.1370 C   0  0  0  0  0  0  0  0  0  0  0  0
   60.0343   26.0491   46.1450 H   0  0  0  0  0  0  0  0  0  0  0  0
   58.1070   25.2020   46.6450 C   0  0  0  0  0  0  0  0  0  0  0  0
   58.5425   24.2842   47.0669 H   0  0  0  0  0  0  0  0  0  0  0  0
   56.7100   25.3650   46.6220 C   0  0  0  0  0  0  0  0  0  0  0  0
   55.8300   24.3440   47.1330 N   0  0  0  0  0  0  0  0  0  0  0  0
   54.7980   24.5030   47.1150 H   0  0  0  0  0  0  0  0  0  0  0  0
   56.3550   22.7720   47.6490 S   0  0  0  0  0  0  0  0  0  0  0  0
   57.3470   22.2130   46.6680 O   0  0  0  0  0  0  0  0  0  0  0  0
   57.0200   22.8990   48.9900 O   0  0  0  0  0  0  0  0  0  0  0  0
   54.9600   21.6780   47.8150 C   0  0  0  0  0  0  0  0  0  0  0  0
   54.7488   21.5124   48.8818 H   0  0  0  0  0  0  0  0  0  0  0  0
   54.0804   22.1296   47.3329 H   0  0  0  0  0  0  0  0  0  0  0  0
   55.1889   20.7161   47.3329 H   0  0  0  0  0  0  0  0  0  0  0  0
   56.1680   26.5570   46.0990 C   0  0  0  0  0  0  0  0  0  0  0  0
   54.7850   26.7020   46.0220 O   0  0  0  0  0  0  0  0  0  0  0  0
   57.7350   30.9870   44.9370 C   0  0  0  0  0  0  0  0  0  0  0  0
   56.9530   32.0990   44.8770 N   0  0  0  0  0  0  0  0  0  0  0  0
   57.3740   33.2840   45.3870 C   0  0  0  0  0  0  0  0  0  0  0  0
   56.6340   34.2990   45.3160 O   0  0  0  0  0  0  0  0  0  0  0  0
   58.5950   33.3750   45.9740 N   0  0  0  0  0  0  0  0  0  0  0  0
   59.4190   32.2960   46.0730 C   0  0  0  0  0  0  0  0  0  0  0  0
   60.7460   32.4520   46.7230 C   0  0  0  0  0  0  0  0  0  0  0  0
   61.4810   33.6500   46.6140 C   0  0  0  0  0  0  0  0  0  0  0  0
   61.0677   34.4949   46.0435 H   0  0  0  0  0  0  0  0  0  0  0  0
   62.7330   33.7710   47.2270 C   0  0  0  0  0  0  0  0  0  0  0  0
   63.2979   34.7108   47.1395 H   0  0  0  0  0  0  0  0  0  0  0  0
   63.2670   32.7030   47.9490 C   0  0  0  0  0  0  0  0  0  0  0  0
   64.2493   32.8031   48.4338 H   0  0  0  0  0  0  0  0  0  0  0  0
   62.5540   31.5070   48.0560 C   0  0  0  0  0  0  0  0  0  0  0  0
   62.9774   30.6642   48.6220 H   0  0  0  0  0  0  0  0  0  0  0  0
   61.3030   31.3790   47.4450 C   0  0  0  0  0  0  0  0  0  0  0  0
   60.7493   30.4323   47.5290 H   0  0  0  0  0  0  0  0  0  0  0  0
   58.9960   31.0670   45.5400 C   0  0  0  0  0  0  0  0  0  0  0  0
   59.6456   30.1810   45.5956 H   0  0  0  0  0  0  0  0  0  0  0  0
  1  2  1  0
  2  3  2  0
  3  4  1  0
  3  5  1  0
  5  6  2  0
  6  7  1  0
  6  8  1  0
  8  9  1  0
  8 10  2  0
 10 11  1  0
 10 12  1  0
 12 13  1  0
 13 14  1  0
 13 15  1  0
 15 16  2  0
 15 17  2  0
 15 18  1  0
 18 19  1  0
 18 20  1  0
 18 21  1  0
 12 22  2  0
 22 23  1  0
  2 24  1  0
 24 25  1  0
 25 26  1  0
 26 27  2  0
 26 28  1  0
 28 29  2  0
 29 30  1  0
 30 31  2  0
 31 32  1  0
 31 33  1  0
 33 34  1  0
 33 35  2  0
 35 36  1  0
 35 37  1  0
 37 38  1  0
 37 39  2  0
 39 40  1  0
 29 41  1  0
 41 42  1  0
 22  5  1  0
 41 24  2  0
 39 30  1  0
M  CHG  2  23  -1  25  -1
M  END
>  <UniqueID>  (63) 
57

>  <SMILES>  (63) 
CS(=O)(=O)Nc1cccc(/C=C/c2cc(-c3ccccc3)nc(=O)[n-]2)c1[O-]

>  <Energy>  (63) 
53.912768832973065

>  <Genealogy>  (63) 
CS(=O)(=O)Nc1cccc(C=Cc2cc(-c3ccccc3)nc(=O)[n-]2)c1[O-] (protonated)
CS(=O)(=O)Nc1cccc(/C=C/c2cc(-c3ccccc3)nc(=O)[n-]2)c1[O-] (cis-trans isomerization)
CS(=O)(=O)Nc1cccc(/C=C/c2cc(-c3ccccc3)nc(=O)[n-]2)c1[O-] (3D coordinates assigned)
CS(=O)(=O)Nc1cccc(/C=C/c2cc(-c3ccccc3)nc(=O)[n-]2)c1[O-] (optimized conformer: 53.912768832973065 kcal/mol)

>  <smiles>  (63) 
CS(=O)(=O)Nc1cccc(C=Cc2cc(-c3ccccc3)nc(=O)[nH]2)c1O

>  <score_type>  (63) 
oracle

>  <origin>  (63) 
adg

>  <m_score__min__energy>  (63) 
-15.050000000000001

>  <m_primary>  (63) 
energy

$$$$
63:0
     RDKit          3D

 47 50  0  0  0  0  0  0  0  0999 V2000
   57.0122   34.8792   44.5822 H   0  0  0  0  0  0  0  0  0  0  0  0
   57.7340   34.2040   45.0650 C   0  0  0  0  0  0  0  0  0  0  0  0
   59.0230   34.6520   45.3520 C   0  0  0  0  0  0  0  0  0  0  0  0
   59.3092   35.6880   45.1181 H   0  0  0  0  0  0  0  0  0  0  0  0
   59.9510   33.7870   45.9360 C   0  0  0  0  0  0  0  0  0  0  0  0
   60.9617   34.1503   46.1738 H   0  0  0  0  0  0  0  0  0  0  0  0
   59.6030   32.4560   46.2220 C   0  0  0  0  0  0  0  0  0  0  0  0
   60.8030   31.3370   46.9810 S   0  0  0  0  0  0  0  0  0  0  0  0
   61.2420   32.4140   48.3670 C   0  0  0  0  0  0  0  0  0  0  0  0
   62.3430   33.3010   48.2240 C   0  0  0  0  0  0  0  0  0  0  0  0
   63.2080   33.4570   46.6970 Cl  0  0  0  0  0  0  0  0  0  0  0  0
   62.7560   34.1180   49.2960 C   0  0  0  0  0  0  0  0  0  0  0  0
   63.6224   34.7838   49.1694 H   0  0  0  0  0  0  0  0  0  0  0  0
   62.0770   34.0920   50.5190 C   0  0  0  0  0  0  0  0  0  0  0  0
   62.4065   34.7139   51.3644 H   0  0  0  0  0  0  0  0  0  0  0  0
   60.9710   33.2540   50.6320 C   0  0  0  0  0  0  0  0  0  0  0  0
   60.5400   32.4530   49.5960 C   0  0  0  0  0  0  0  0  0  0  0  0
   59.4010   31.8270   49.9910 N   0  0  0  0  0  0  0  0  0  0  0  0
   58.5460   30.8880   49.2710 C   0  0  0  0  0  0  0  0  0  0  0  0
   57.9869   30.2740   49.9923 H   0  0  0  0  0  0  0  0  0  0  0  0
   57.8393   31.4459   48.6391 H   0  0  0  0  0  0  0  0  0  0  0  0
   59.1675   30.2366   48.6391 H   0  0  0  0  0  0  0  0  0  0  0  0
   59.2060   32.2480   51.2670 C   0  0  0  0  0  0  0  0  0  0  0  0
   58.2350   31.8760   51.9820 O   0  0  0  0  0  0  0  0  0  0  0  0
   60.1520   33.1150   51.6920 N   0  0  0  0  0  0  0  0  0  0  0  0
   60.2060   33.8250   52.9670 C   0  0  0  0  0  0  0  0  0  0  0  0
   60.1509   33.1004   53.7928 H   0  0  0  0  0  0  0  0  0  0  0  0
   61.1495   34.3866   53.0343 H   0  0  0  0  0  0  0  0  0  0  0  0
   59.3583   34.5228   53.0343 H   0  0  0  0  0  0  0  0  0  0  0  0
   58.2780   32.0270   46.0040 C   0  0  0  0  0  0  0  0  0  0  0  0
   57.8770   30.7180   46.4370 N   0  0  0  0  0  0  0  0  0  0  0  0
   57.3280   29.6840   45.6090 C   0  0  0  0  0  0  0  0  0  0  0  0
   56.3700   29.9620   44.8410 O   0  0  0  0  0  0  0  0  0  0  0  0
   57.8250   28.3400   45.6430 N   0  0  0  0  0  0  0  0  0  0  0  0
   57.1220   27.2750   45.8990 C   0  0  0  0  0  0  0  0  0  0  0  0
   57.6110   26.1430   46.5120 C   0  0  0  0  0  0  0  0  0  0  0  0
   58.6348   25.9416   46.8603 H   0  0  0  0  0  0  0  0  0  0  0  0
   56.5010   25.3210   46.5830 C   0  0  0  0  0  0  0  0  0  0  0  0
   56.4630   23.9470   47.1600 C   0  0  0  0  0  0  0  0  0  0  0  0
   56.4648   24.0103   48.2582 H   0  0  0  0  0  0  0  0  0  0  0  0
   55.5503   23.4332   46.8238 H   0  0  0  0  0  0  0  0  0  0  0  0
   57.3459   23.3836   46.8238 H   0  0  0  0  0  0  0  0  0  0  0  0
   55.4630   25.9430   46.0670 O   0  0  0  0  0  0  0  0  0  0  0  0
   55.8050   27.1250   45.6460 N   0  0  0  0  0  0  0  0  0  0  0  0
   55.1420   27.8160   45.2330 H   0  0  0  0  0  0  0  0  0  0  0  0
   57.3590   32.8990   45.3900 C   0  0  0  0  0  0  0  0  0  0  0  0
   56.3402   32.5504   45.1651 H   0  0  0  0  0  0  0  0  0  0  0  0
  1  2  1  0
  2  3  2  0
  3  4  1  0
  3  5  1  0
  5  6  1  0
  5  7  2  0
  7  8  1  0
  8  9  1  0
  9 10  2  0
 10 11  1  0
 10 12  1  0
 12 13  1  0
 12 14  2  0
 14 15  1  0
 14 16  1  0
 16 17  2  0
 17 18  1  0
 18 19  1  0
 19 20  1  0
 19 21  1  0
 19 22  1  0
 18 23  1  0
 23 24  2  0
 23 25  1  0
 25 26  1  0
 26 27  1  0
 26 28  1  0
 26 29  1  0
  7 30  1  0
 30 31  1  0
 31 32  1  0
 32 33  2  0
 32 34  1  0
 34 35  2  0
 35 36  1  0
 36 37  1  0
 36 38  2  0
 38 39  1  0
 39 40  1  0
 39 41  1  0
 39 42  1  0
 38 43  1  0
 43 44  1  0
 44 45  1  0
 30 46  2  0
 46 47  1  0
 46  2  1  0
 17  9  1  0
 44 35  1  0
 25 16  1  0
M  CHG  1  31  -1
M  END
>  <UniqueID>  (64) 
58

>  <SMILES>  (64) 
Cc1c/c(=N/C(=O)[N-]c2ccccc2Sc2c(Cl)ccc3c2n(C)c(=O)n3C)[nH]o1

>  <Energy>  (64) 
136.2658505242216

>  <Genealogy>  (64) 
Cc1cc(=NC(=O)[N-]c2ccccc2Sc2c(Cl)ccc3c2n(C)c(=O)n3C)[nH]o1 (protonated)
Cc1c/c(=N/C(=O)[N-]c2ccccc2Sc2c(Cl)ccc3c2n(C)c(=O)n3C)[nH]o1 (cis-trans isomerization)
Cc1c/c(=N/C(=O)[N-]c2ccccc2Sc2c(Cl)ccc3c2n(C)c(=O)n3C)[nH]o1 (3D coordinates assigned)
Cc1c/c(=N/C(=O)[N-]c2ccccc2Sc2c(Cl)ccc3c2n(C)c(=O)n3C)[nH]o1 (optimized conformer: 136.2658505242216 kcal/mol)

>  <smiles>  (64) 
Cc1cc(=NC(=O)Nc2ccccc2Sc2c(Cl)ccc3c2n(C)c(=O)n3C)[nH]o1

>  <score_type>  (64) 
oracle

>  <origin>  (64) 
adg

>  <m_score__min__energy>  (64) 
-11.039999999999999

>  <m_primary>  (64) 
energy

$$$$
64:0
     RDKit          3D

 52 55  0  0  0  0  0  0  0  0999 V2000
   57.1000   33.2910   45.6530 O   0  0  0  0  0  0  0  0  0  0  0  0
   57.4050   32.0780   45.5450 C   0  0  0  0  0  0  0  0  0  0  0  0
   56.5240   31.2230   44.8200 N   0  0  0  0  0  0  0  0  0  0  0  0
   56.6540   29.8060   44.8640 C   0  0  0  0  0  0  0  0  0  0  0  0
   55.8620   29.0950   44.1890 O   0  0  0  0  0  0  0  0  0  0  0  0
   57.6500   29.1980   45.7050 N   0  0  0  0  0  0  0  0  0  0  0  0
   57.7230   27.7650   45.8170 C   0  0  0  0  0  0  0  0  0  0  0  0
   56.5560   27.0090   46.0130 C   0  0  0  0  0  0  0  0  0  0  0  0
   56.6280   25.6170   46.1190 C   0  0  0  0  0  0  0  0  0  0  0  0
   57.8650   24.9720   46.0300 C   0  0  0  0  0  0  0  0  0  0  0  0
   59.0310   25.7170   45.8340 C   0  0  0  0  0  0  0  0  0  0  0  0
   58.9620   27.1100   45.7270 C   0  0  0  0  0  0  0  0  0  0  0  0
   58.5910   30.0290   46.4170 C   0  0  0  0  0  0  0  0  0  0  0  0
   59.4320   29.4910   47.1900 O   0  0  0  0  0  0  0  0  0  0  0  0
   58.6030   31.5070   46.2170 C   0  0  0  0  0  0  0  0  0  0  0  0
   59.7090   32.2040   46.6000 C   0  0  0  0  0  0  0  0  0  0  0  0
   59.7750   33.5950   47.0290 N   0  0  0  0  0  0  0  0  0  0  0  0
   59.3300   33.8030   48.4300 C   0  0  0  0  0  0  0  0  0  0  0  0
   59.3500   32.5180   49.2270 C   0  0  0  0  0  0  0  0  0  0  0  0
   58.1540   31.9700   49.7240 C   0  0  0  0  0  0  0  0  0  0  0  0
   58.1810   30.8040   50.4940 C   0  0  0  0  0  0  0  0  0  0  0  0
   59.3980   30.1780   50.7750 C   0  0  0  0  0  0  0  0  0  0  0  0
   60.5910   30.7200   50.2880 C   0  0  0  0  0  0  0  0  0  0  0  0
   60.5690   31.8870   49.5190 C   0  0  0  0  0  0  0  0  0  0  0  0
   61.0900   34.2290   46.7370 C   0  0  0  0  0  0  0  0  0  0  0  0
   62.2080   33.5960   47.5330 C   0  0  0  0  0  0  0  0  0  0  0  0
   62.6490   34.1930   48.7260 C   0  0  0  0  0  0  0  0  0  0  0  0
   63.6540   33.5870   49.4880 C   0  0  0  0  0  0  0  0  0  0  0  0
   64.2160   32.3770   49.0700 C   0  0  0  0  0  0  0  0  0  0  0  0
   63.7710   31.7690   47.8920 C   0  0  0  0  0  0  0  0  0  0  0  0
   62.7670   32.3720   47.1290 C   0  0  0  0  0  0  0  0  0  0  0  0
   55.5814   27.5141   46.0834 H   0  0  0  0  0  0  0  0  0  0  0  0
   55.7111   25.0291   46.2725 H   0  0  0  0  0  0  0  0  0  0  0  0
   57.9207   23.8767   46.1143 H   0  0  0  0  0  0  0  0  0  0  0  0
   60.0035   25.2077   45.7638 H   0  0  0  0  0  0  0  0  0  0  0  0
   59.8811   27.6942   45.5719 H   0  0  0  0  0  0  0  0  0  0  0  0
   60.6613   31.6537   46.5835 H   0  0  0  0  0  0  0  0  0  0  0  0
   59.0550   34.0820   46.4420 H   0  0  0  0  0  0  0  0  0  0  0  0
   60.0005   34.5301   48.9114 H   0  0  0  0  0  0  0  0  0  0  0  0
   58.2941   34.1723   48.4064 H   0  0  0  0  0  0  0  0  0  0  0  0
   57.1940   32.4608   49.5059 H   0  0  0  0  0  0  0  0  0  0  0  0
   57.2427   30.3785   50.8794 H   0  0  0  0  0  0  0  0  0  0  0  0
   59.4174   29.2590   51.3792 H   0  0  0  0  0  0  0  0  0  0  0  0
   61.5489   30.2271   50.5104 H   0  0  0  0  0  0  0  0  0  0  0  0
   61.5105   32.3123   49.1414 H   0  0  0  0  0  0  0  0  0  0  0  0
   61.3088   34.1171   45.6648 H   0  0  0  0  0  0  0  0  0  0  0  0
   61.0279   35.2903   47.0195 H   0  0  0  0  0  0  0  0  0  0  0  0
   62.2025   35.1404   49.0622 H   0  0  0  0  0  0  0  0  0  0  0  0
   64.0021   34.0630   50.4166 H   0  0  0  0  0  0  0  0  0  0  0  0
   65.0084   31.9032   49.6679 H   0  0  0  0  0  0  0  0  0  0  0  0
   64.2114   30.8154   47.5655 H   0  0  0  0  0  0  0  0  0  0  0  0
   62.4129   31.8859   46.2079 H   0  0  0  0  0  0  0  0  0  0  0  0
  1  2  2  0
  2  3  1  0
  3  4  1  0
  4  5  2  0
  4  6  1  0
  6  7  1  0
  7  8  2  0
  8  9  1  0
  9 10  2  0
 10 11  1  0
 11 12  2  0
  6 13  1  0
 13 14  2  0
 13 15  1  0
 15 16  2  3
 16 17  1  0
 17 18  1  0
 18 19  1  0
 19 20  2  0
 20 21  1  0
 21 22  2  0
 22 23  1  0
 23 24  2  0
 17 25  1  0
 25 26  1  0
 26 27  2  0
 27 28  1  0
 28 29  2  0
 29 30  1  0
 30 31  2  0
 15  2  1  0
 24 19  1  0
 31 26  1  0
 12  7  1  0
  8 32  1  0
  9 33  1  0
 10 34  1  0
 11 35  1  0
 12 36  1  0
 16 37  1  0
 17 38  1  0
 18 39  1  0
 18 40  1  0
 20 41  1  0
 21 42  1  0
 22 43  1  0
 23 44  1  0
 24 45  1  0
 25 46  1  0
 25 47  1  0
 27 48  1  0
 28 49  1  0
 29 50  1  0
 30 51  1  0
 31 52  1  0
M  CHG  2   3  -1  17   1
M  END
>  <UniqueID>  (65) 
59

>  <SMILES>  (65) 
O=C1[N-]C(=O)N(c2ccccc2)C(=O)C1=C[NH+](Cc1ccccc1)Cc1ccccc1

>  <Energy>  (65) 
79.49486147053632

>  <Genealogy>  (65) 
O=C1[N-]C(=O)N(c2ccccc2)C(=O)C1=C[NH+](Cc1ccccc1)Cc1ccccc1 (protonated)
O=C1[N-]C(=O)N(c2ccccc2)C(=O)C1=C[NH+](Cc1ccccc1)Cc1ccccc1 (3D coordinates assigned)
O=C1[N-]C(=O)N(c2ccccc2)C(=O)C1=C[NH+](Cc1ccccc1)Cc1ccccc1 (nonaromatic ring conformer: 79.49486147053632 kcal/mol)

>  <smiles>  (65) 
O=C1NC(=O)N(c2ccccc2)C(=O)C1=CN(Cc1ccccc1)Cc1ccccc1

>  <score_type>  (65) 
oracle

>  <origin>  (65) 
adg

>  <m_score__min__energy>  (65) 
-8.6300000000000008

>  <m_primary>  (65) 
energy

$$$$
65:0
     RDKit          3D

 55 58  0  0  0  0  0  0  0  0999 V2000
   64.8660   32.4340   46.3830 H   0  0  0  0  0  0  0  0  0  0  0  0
   64.0310   32.9480   46.5410 O   0  0  0  0  0  0  0  0  0  0  0  0
   63.1860   32.1230   47.2980 C   0  0  0  0  0  0  0  0  0  0  0  0
   63.7137   31.8097   48.2109 H   0  0  0  0  0  0  0  0  0  0  0  0
   62.9143   31.2486   46.6885 H   0  0  0  0  0  0  0  0  0  0  0  0
   61.8940   32.8640   47.6930 C   0  0  1  0  0  0  0  0  0  0  0  0
   61.1406   32.1113   47.9682 H   0  0  0  0  0  0  0  0  0  0  0  0
   62.1180   33.7640   48.9220 C   0  0  0  0  0  0  0  0  0  0  0  0
   62.3955   33.1276   49.7753 H   0  0  0  0  0  0  0  0  0  0  0  0
   62.9133   34.4784   48.6630 H   0  0  0  0  0  0  0  0  0  0  0  0
   60.8650   34.5910   49.3110 C   0  0  0  0  0  0  0  0  0  0  0  0
   60.4166   34.1365   50.2068 H   0  0  0  0  0  0  0  0  0  0  0  0
   61.2082   35.6221   49.4813 H   0  0  0  0  0  0  0  0  0  0  0  0
   59.8230   34.6580   48.2510 N   0  0  2  0  0  0  0  0  0  0  0  0
   59.2430   35.5070   48.4540 H   0  0  0  0  0  0  0  0  0  0  0  0
   58.9060   33.5250   48.2530 C   0  0  0  0  0  0  0  0  0  0  0  0
   58.5150   33.0040   49.3360 O   0  0  0  0  0  0  0  0  0  0  0  0
   58.3890   32.9680   46.9900 C   0  0  0  0  0  0  0  0  0  0  0  0
   57.8580   33.8060   45.9960 C   0  0  0  0  0  0  0  0  0  0  0  0
   57.7746   34.8877   46.1775 H   0  0  0  0  0  0  0  0  0  0  0  0
   57.4350   33.2690   44.7760 C   0  0  0  0  0  0  0  0  0  0  0  0
   57.0088   33.9271   44.0044 H   0  0  0  0  0  0  0  0  0  0  0  0
   57.5530   31.8980   44.5360 C   0  0  0  0  0  0  0  0  0  0  0  0
   57.2219   31.4782   43.5747 H   0  0  0  0  0  0  0  0  0  0  0  0
   58.0930   31.0560   45.5190 C   0  0  0  0  0  0  0  0  0  0  0  0
   58.3300   29.6710   45.2330 N   0  0  0  0  0  0  0  0  0  0  0  0
   59.5310   29.0590   45.2900 C   0  0  0  0  0  0  0  0  0  0  0  0
   60.8190   29.7400   45.6390 C   0  0  0  0  0  0  0  0  0  0  0  0
   60.9207   29.7937   46.7330 H   0  0  0  0  0  0  0  0  0  0  0  0
   61.6608   29.1691   45.2201 H   0  0  0  0  0  0  0  0  0  0  0  0
   60.8212   30.7571   45.2201 H   0  0  0  0  0  0  0  0  0  0  0  0
   59.3920   27.7050   45.0600 C   0  0  0  0  0  0  0  0  0  0  0  0
   60.1967   26.9552   45.0424 H   0  0  0  0  0  0  0  0  0  0  0  0
   58.0370   27.4740   44.8550 C   0  0  0  0  0  0  0  0  0  0  0  0
   57.4620   26.2880   44.5690 C   0  0  0  0  0  0  0  0  0  0  0  0
   57.3992   25.9838   43.5138 H   0  0  0  0  0  0  0  0  0  0  0  0
   56.9130   25.3760   45.5880 C   0  0  0  0  0  0  0  0  0  0  0  0
   57.5600   24.2820   46.0260 N   0  0  0  0  0  0  0  0  0  0  0  0
   56.6800   23.7200   46.8820 C   0  0  0  0  0  0  0  0  0  0  0  0
   56.9370   22.6700   47.5280 O   0  0  0  0  0  0  0  0  0  0  0  0
   55.5030   24.3710   46.9960 N   0  0  0  0  0  0  0  0  0  0  0  0
   55.6610   25.4100   46.1620 C   0  0  0  0  0  0  0  0  0  0  0  0
   54.6640   26.3410   45.8980 O   0  0  0  0  0  0  0  0  0  0  0  0
   57.4060   28.7170   44.9680 C   0  0  0  0  0  0  0  0  0  0  0  0
   56.0900   28.9620   44.8620 C   0  0  0  0  0  0  0  0  0  0  0  0
   55.7112   29.9890   44.9707 H   0  0  0  0  0  0  0  0  0  0  0  0
   55.3907   28.1357   44.6665 H   0  0  0  0  0  0  0  0  0  0  0  0
   58.4950   31.5910   46.7490 C   0  0  0  0  0  0  0  0  0  0  0  0
   58.8958   30.9278   47.5297 H   0  0  0  0  0  0  0  0  0  0  0  0
   60.4530   34.8610   46.9270 C   0  0  0  0  0  0  0  0  0  0  0  0
   59.6588   34.9874   46.1765 H   0  0  0  0  0  0  0  0  0  0  0  0
   61.0939   35.7520   47.0006 H   0  0  0  0  0  0  0  0  0  0  0  0
   61.3510   33.6800   46.4990 C   0  0  0  0  0  0  0  0  0  0  0  0
   60.7629   33.0090   45.8556 H   0  0  0  0  0  0  0  0  0  0  0  0
   62.2183   34.1035   45.9713 H   0  0  0  0  0  0  0  0  0  0  0  0
  1  2  1  0
  2  3  1  0
  3  4  1  0
  3  5  1  0
  3  6  1  0
  6  7  1  1
  6  8  1  0
  8  9  1  0
  8 10  1  0
  8 11  1  0
 11 12  1  0
 11 13  1  0
 11 14  1  0
 14 15  1  1
 14 16  1  0
 16 17  2  0
 16 18  1  0
 18 19  2  0
 19 20  1  0
 19 21  1  0
 21 22  1  0
 21 23  2  0
 23 24  1  0
 23 25  1  0
 25 26  1  0
 26 27  1  0
 27 28  1  0
 28 29  1  0
 28 30  1  0
 28 31  1  0
 27 32  2  0
 32 33  1  0
 32 34  1  0
 34 35  2  0
 35 36  1  0
 35 37  1  0
 37 38  1  0
 38 39  1  0
 39 40  2  0
 39 41  1  0
 41 42  1  0
 42 43  1  0
 34 44  1  0
 44 45  2  0
 45 46  1  0
 45 47  1  0
 25 48  2  0
 48 49  1  0
 14 50  1  0
 50 51  1  0
 50 52  1  0
 50 53  1  0
 53 54  1  0
 53 55  1  0
 53  6  1  0
 48 18  1  0
 44 26  1  0
 42 37  2  0
M  CHG  4  14   1  38  -1  41  -1  43  -1
M  END
>  <UniqueID>  (66) 
60

>  <SMILES>  (66) 
C=c1/c(=C/c2[n-]c(=O)[n-]c2[O-])cc(C)n1-c1cccc(C(=O)[NH+]2CCC(CO)CC2)c1

>  <Energy>  (66) 
145.49568738863312

>  <Genealogy>  (66) 
C=c1c(=Cc2[n-]c(=O)[n-]c2[O-])cc(C)n1-c1cccc(C(=O)[NH+]2CCC(CO)CC2)c1 (protonated)
C=c1/c(=C/c2[n-]c(=O)[n-]c2[O-])cc(C)n1-c1cccc(C(=O)[NH+]2CCC(CO)CC2)c1 (cis-trans isomerization)
C=c1/c(=C/c2[n-]c(=O)[n-]c2[O-])cc(C)n1-c1cccc(C(=O)[NH+]2CCC(CO)CC2)c1 (3D coordinates assigned)
C=c1/c(=C/c2[n-]c(=O)[n-]c2[O-])cc(C)n1-c1cccc(C(=O)[NH+]2CCC(CO)CC2)c1 (nonaromatic ring conformer: 145.49568738863312 kcal/mol)

>  <smiles>  (66) 
C=c1c(=Cc2[nH]c(=O)[nH]c2O)cc(C)n1-c1cccc(C(=O)N2CCC(CO)CC2)c1

>  <score_type>  (66) 
oracle

>  <origin>  (66) 
adg

>  <m_score__min__energy>  (66) 
-15.44

>  <m_primary>  (66) 
energy

$$$$
66:0
     RDKit          3D

 47 50  0  0  1  0  0  0  0  0999 V2000
   62.9510   33.8450   52.2130 N   0  0  0  0  0  0  0  0  0  0  0  0
   63.0400   33.6810   51.0610 C   0  0  0  0  0  0  0  0  0  0  0  0
   63.1280   33.4710   49.6370 C   0  0  0  0  0  0  0  0  0  0  0  0
   64.2080   33.0140   48.9310 C   0  0  0  0  0  0  0  0  0  0  0  0
   63.9000   32.9550   47.6340 N   0  0  0  0  0  0  0  0  0  0  0  0
   62.6400   33.3610   47.4640 C   0  0  0  0  0  0  0  0  0  0  0  0
   61.8340   33.4940   46.3550 C   0  0  0  0  0  0  0  0  0  0  0  0
   60.5330   33.9580   46.5330 C   0  0  0  0  0  0  0  0  0  0  0  0
   59.6500   34.1190   45.4270 N   0  0  0  0  0  0  0  0  0  0  0  0
   58.8840   33.1370   45.0880 C   0  0  0  0  0  0  0  0  0  0  0  0
   58.2030   33.1090   43.9310 N   0  0  0  0  0  0  0  0  0  0  0  0
   57.4190   32.0640   43.6180 C   0  0  0  0  0  0  0  0  0  0  0  0
   57.2730   30.9610   44.4720 C   0  0  0  0  0  0  0  0  0  0  0  0
   56.4140   29.9140   43.9910 C   0  0  0  0  0  0  0  0  0  0  0  0
   57.0100   29.0010   43.0310 N   0  0  0  0  0  0  0  0  0  0  0  0
   55.2300   29.6770   44.2750 O   0  0  0  0  0  0  0  0  0  0  0  0
   57.9680   31.0180   45.6330 C   0  0  0  0  0  0  0  0  0  0  0  0
   57.8100   30.1640   46.5260 N   0  0  0  0  0  0  0  0  0  0  0  0
   58.6930   29.2710   47.1320 C   0  0  0  0  0  0  0  0  0  0  0  0
   59.4730   29.6810   48.2290 C   0  0  0  0  0  0  0  0  0  0  0  0
   60.3850   28.8360   48.7800 C   0  0  0  0  0  0  0  0  0  0  0  0
   60.5540   27.5630   48.2670 C   0  0  0  0  0  0  0  0  0  0  0  0
   59.7920   27.1460   47.1860 C   0  0  0  0  0  0  0  0  0  0  0  0
   58.8580   27.9780   46.6020 C   0  0  0  0  0  0  0  0  0  0  0  0
   58.0430   27.5670   45.4670 C   0  0  0  0  0  0  0  0  0  0  0  0
   56.6440   27.4510   45.6430 N   0  0  0  0  0  0  0  0  0  0  0  0
   58.6320   27.3360   44.3810 O   0  0  0  0  0  0  0  0  0  0  0  0
   58.7570   32.0930   45.9190 N   0  0  0  0  0  0  0  0  0  0  0  0
   60.0440   34.2840   47.7860 C   0  0  0  0  0  0  0  0  0  0  0  0
   60.8450   34.1510   48.8800 C   0  0  0  0  0  0  0  0  0  0  0  0
   62.1310   33.6910   48.7050 C   0  0  0  0  0  0  0  0  0  0  0  0
   65.1800   32.7379   49.3658 H   0  0  0  0  0  0  0  0  0  0  0  0
   64.5350   32.6410   46.8640 H   0  0  0  0  0  0  0  0  0  0  0  0
   62.2090   33.2398   45.3526 H   0  0  0  0  0  0  0  0  0  0  0  0
   58.2850   33.9100   43.2690 H   0  0  0  0  0  0  0  0  0  0  0  0
   56.8746   32.0737   42.6622 H   0  0  0  0  0  0  0  0  0  0  0  0
   58.0440   28.9010   42.9440 H   0  0  0  0  0  0  0  0  0  0  0  0
   56.4270   28.4160   42.3970 H   0  0  0  0  0  0  0  0  0  0  0  0
   59.3442   30.6917   48.6436 H   0  0  0  0  0  0  0  0  0  0  0  0
   60.9905   29.1663   49.6369 H   0  0  0  0  0  0  0  0  0  0  0  0
   61.2920   26.8819   48.7159 H   0  0  0  0  0  0  0  0  0  0  0  0
   59.9347   26.1314   46.7857 H   0  0  0  0  0  0  0  0  0  0  0  0
   56.3150   27.0480   46.5640 H   0  0  0  0  0  0  0  0  0  0  0  0
   55.9450   27.7460   44.9010 H   0  0  0  0  0  0  0  0  0  0  0  0
   59.2970   32.1260   46.8270 H   0  0  0  0  0  0  0  0  0  0  0  0
   59.0124   34.6491   47.8982 H   0  0  0  0  0  0  0  0  0  0  0  0
   60.4719   34.4060   49.8829 H   0  0  0  0  0  0  0  0  0  0  0  0
  1  2  3  0
  2  3  1  0
  3  4  2  0
  4  5  1  0
  5  6  1  0
  6  7  2  0
  7  8  1  0
  8  9  1  0
  9 10  2  0
 10 11  1  0
 11 12  1  0
 12 13  2  0
 13 14  1  0
 14 15  1  0
 14 16  2  0
 13 17  1  0
 17 18  2  0
 18 19  1  0
 19 20  2  0
 20 21  1  0
 21 22  2  0
 22 23  1  0
 23 24  2  0
 24 25  1  0
 25 26  1  0
 25 27  2  0
 17 28  1  0
  8 29  2  0
 29 30  1  0
 30 31  2  0
 31  3  1  0
 31  6  1  0
 28 10  1  0
 24 19  1  0
  4 32  1  0
  5 33  1  0
  7 34  1  0
 11 35  1  0
 12 36  1  0
 15 37  1  0
 15 38  1  0
 20 39  1  0
 21 40  1  0
 22 41  1  0
 23 42  1  0
 26 43  1  0
 26 44  1  0
 28 45  1  0
 29 46  1  0
 30 47  1  0
M  END
>  <smiles>  (67) 
N#Cc1c[nH]c2cc(N=c3[nH]cc(C(N)=O)c(=Nc4ccccc4C(N)=O)[nH]3)ccc12

>  <score_type>  (67) 
oracle

>  <origin>  (67) 
adg

>  <m_score__min__energy>  (67) 
-9.9399999999999995

>  <m_primary>  (67) 
energy

$$$$
67:0
     RDKit          3D

 50 53  0  0  0  0  0  0  0  0999 V2000
   58.7740   25.5360   45.1950 C   0  0  0  0  0  0  0  0  0  0  0  0
   57.3850   25.0470   45.2510 N   0  0  0  0  0  0  0  0  0  0  0  0
   56.3610   25.8780   45.6470 C   0  0  0  0  0  0  0  0  0  0  0  0
   56.5910   27.2870   46.1400 C   0  0  0  0  0  0  0  0  0  0  0  0
   55.9460   28.2570   45.2590 N   0  0  0  0  0  0  0  0  0  0  0  0
   56.6150   29.1860   44.3930 C   0  0  0  0  0  0  0  0  0  0  0  0
   56.5910   28.9800   43.1520 O   0  0  0  0  0  0  0  0  0  0  0  0
   57.3040   30.3850   44.8980 C   0  0  0  0  0  0  0  0  0  0  0  0
   57.1970   31.6820   44.3880 C   0  0  0  0  0  0  0  0  0  0  0  0
   57.9910   32.5960   45.0900 C   0  0  0  0  0  0  0  0  0  0  0  0
   58.1160   33.9600   44.8140 C   0  0  0  0  0  0  0  0  0  0  0  0
   58.9650   34.7380   45.6210 C   0  0  0  0  0  0  0  0  0  0  0  0
   59.6720   34.1490   46.6880 C   0  0  0  0  0  0  0  0  0  0  0  0
   59.5350   32.7790   46.9590 C   0  0  0  0  0  0  0  0  0  0  0  0
   58.6890   32.0310   46.1450 C   0  0  0  0  0  0  0  0  0  0  0  0
   58.3370   30.3950   46.2360 S   0  0  0  0  0  0  0  0  0  0  0  0
   55.0770   25.4370   45.5930 N   0  0  0  0  0  0  0  0  0  0  0  0
   54.7600   24.1760   45.2130 C   0  0  0  0  0  0  0  0  0  0  0  0
   53.3340   23.8160   45.1120 C   0  0  0  0  0  0  0  0  0  0  0  0
   53.0190   22.5980   45.0620 O   0  0  0  0  0  0  0  0  0  0  0  0
   52.2900   24.8000   45.1260 N   0  0  0  0  0  0  0  0  0  0  0  0
   50.8820   24.5760   44.8000 C   0  0  0  0  0  0  0  0  0  0  0  0
   50.6450   24.7110   43.3200 C   0  0  0  0  0  0  0  0  0  0  0  0
   50.8230   23.6040   42.4750 C   0  0  0  0  0  0  0  0  0  0  0  0
   50.6320   23.7320   41.0960 C   0  0  0  0  0  0  0  0  0  0  0  0
   50.2500   24.9620   40.5530 C   0  0  0  0  0  0  0  0  0  0  0  0
   50.0570   25.0830   39.2160 F   0  0  0  0  0  0  0  0  0  0  0  0
   50.0590   26.0660   41.3890 C   0  0  0  0  0  0  0  0  0  0  0  0
   50.2550   25.9430   42.7670 C   0  0  0  0  0  0  0  0  0  0  0  0
   55.7920   23.2610   44.9700 C   0  0  0  0  0  0  0  0  0  0  0  0
   55.5470   21.9010   44.7630 O   0  0  0  0  0  0  0  0  0  0  0  0
   57.1100   23.7300   44.9680 C   0  0  0  0  0  0  0  0  0  0  0  0
   58.0430   22.9200   44.7110 O   0  0  0  0  0  0  0  0  0  0  0  0
   59.1568   25.6708   46.2174 H   0  0  0  0  0  0  0  0  0  0  0  0
   59.3993   24.8039   44.6629 H   0  0  0  0  0  0  0  0  0  0  0  0
   58.8028   26.4983   44.6629 H   0  0  0  0  0  0  0  0  0  0  0  0
   56.1742   27.3871   47.1530 H   0  0  0  0  0  0  0  0  0  0  0  0
   57.6730   27.4847   46.1497 H   0  0  0  0  0  0  0  0  0  0  0  0
   56.5612   31.9534   43.5324 H   0  0  0  0  0  0  0  0  0  0  0  0
   57.5608   34.4165   43.9813 H   0  0  0  0  0  0  0  0  0  0  0  0
   59.0779   35.8132   45.4180 H   0  0  0  0  0  0  0  0  0  0  0  0
   60.3349   34.7664   47.3119 H   0  0  0  0  0  0  0  0  0  0  0  0
   60.0805   32.3096   47.7909 H   0  0  0  0  0  0  0  0  0  0  0  0
   50.5951   23.5634   45.1197 H   0  0  0  0  0  0  0  0  0  0  0  0
   50.2760   25.3304   45.3231 H   0  0  0  0  0  0  0  0  0  0  0  0
   51.1140   22.6319   42.8997 H   0  0  0  0  0  0  0  0  0  0  0  0
   50.7825   22.8638   40.4376 H   0  0  0  0  0  0  0  0  0  0  0  0
   49.7541   27.0326   40.9616 H   0  0  0  0  0  0  0  0  0  0  0  0
   50.1035   26.8139   43.4217 H   0  0  0  0  0  0  0  0  0  0  0  0
   54.8160   21.5660   44.1480 H   0  0  0  0  0  0  0  0  0  0  0  0
  1  2  1  0
  2  3  1  0
  3  4  1  0
  4  5  1  0
  5  6  1  0
  6  7  2  0
  6  8  1  0
  8  9  2  0
  9 10  1  0
 10 11  2  0
 11 12  1  0
 12 13  2  0
 13 14  1  0
 14 15  2  0
 15 16  1  0
  3 17  2  0
 17 18  1  0
 18 19  1  0
 19 20  2  0
 19 21  1  0
 21 22  1  0
 22 23  1  0
 23 24  2  0
 24 25  1  0
 25 26  2  0
 26 27  1  0
 26 28  1  0
 28 29  2  0
 18 30  2  0
 30 31  1  0
 30 32  1  0
 32 33  2  0
 32  2  1  0
 16  8  1  0
 29 23  1  0
 15 10  1  0
  1 34  1  0
  1 35  1  0
  1 36  1  0
  4 37  1  0
  4 38  1  0
  9 39  1  0
 11 40  1  0
 12 41  1  0
 13 42  1  0
 14 43  1  0
 22 44  1  0
 22 45  1  0
 24 46  1  0
 25 47  1  0
 28 48  1  0
 29 49  1  0
 31 50  1  0
M  CHG  2   5  -1  21  -1
M  END
>  <UniqueID>  (68) 
61

>  <SMILES>  (68) 
Cn1c(C[N-]C(=O)c2cc3ccccc3s2)nc(C(=O)[N-]Cc2ccc(F)cc2)c(O)c1=O

>  <Energy>  (68) 
92.68625407401821

>  <Genealogy>  (68) 
Cn1c(C[N-]C(=O)c2cc3ccccc3s2)nc(C(=O)[N-]Cc2ccc(F)cc2)c(O)c1=O (protonated)
Cn1c(C[N-]C(=O)c2cc3ccccc3s2)nc(C(=O)[N-]Cc2ccc(F)cc2)c(O)c1=O (3D coordinates assigned)
Cn1c(C[N-]C(=O)c2cc3ccccc3s2)nc(C(=O)[N-]Cc2ccc(F)cc2)c(O)c1=O (optimized conformer: 92.68625407401821 kcal/mol)

>  <smiles>  (68) 
Cn1c(CNC(=O)c2cc3ccccc3s2)nc(C(=O)NCc2ccc(F)cc2)c(O)c1=O

>  <score_type>  (68) 
oracle

>  <origin>  (68) 
adg

>  <m_score__min__energy>  (68) 
-12.09

>  <m_primary>  (68) 
energy

$$$$
68:0
     RDKit          3D

 56 59  0  0  0  0  0  0  0  0999 V2000
   59.1950   29.2800   45.5740 C   0  0  0  0  0  0  0  0  0  0  0  0
   59.2300   28.4970   46.6640 C   0  0  0  0  0  0  0  0  0  0  0  0
   58.8230   27.1560   46.7590 C   0  0  0  0  0  0  0  0  0  0  0  0
   58.1570   26.3690   45.8920 C   0  0  0  0  0  0  0  0  0  0  0  0
   56.7980   25.8370   46.0830 C   0  0  0  0  0  0  0  0  0  0  0  0
   56.5070   24.5440   46.3170 N   0  0  0  0  0  0  0  0  0  0  0  0
   55.1570   24.5150   46.2710 C   0  0  0  0  0  0  0  0  0  0  0  0
   54.4950   23.4620   46.4630 O   0  0  0  0  0  0  0  0  0  0  0  0
   54.5750   25.7010   45.9930 N   0  0  0  0  0  0  0  0  0  0  0  0
   55.6290   26.5220   45.8630 C   0  0  0  0  0  0  0  0  0  0  0  0
   55.5250   27.8720   45.5470 O   0  0  0  0  0  0  0  0  0  0  0  0
   59.2290   26.7170   48.0080 C   0  0  0  0  0  0  0  0  0  0  0  0
   59.8070   27.7950   48.6460 C   0  0  0  0  0  0  0  0  0  0  0  0
   60.3940   27.7580   50.0240 C   0  0  0  0  0  0  0  0  0  0  0  0
   59.7980   28.8780   47.8390 N   0  0  0  0  0  0  0  0  0  0  0  0
   60.4420   30.1310   48.1310 C   0  0  0  0  0  0  0  0  0  0  0  0
   61.5620   30.1750   48.9730 C   0  0  0  0  0  0  0  0  0  0  0  0
   62.2030   31.3920   49.2230 C   0  0  0  0  0  0  0  0  0  0  0  0
   61.7290   32.5700   48.6380 C   0  0  0  0  0  0  0  0  0  0  0  0
   60.6020   32.5410   47.8020 C   0  0  0  0  0  0  0  0  0  0  0  0
   60.0840   33.7780   47.1830 C   0  0  0  0  0  0  0  0  0  0  0  0
   60.6080   34.8890   47.4620 O   0  0  0  0  0  0  0  0  0  0  0  0
   58.9920   33.7240   46.2540 N   0  0  0  0  0  0  0  0  0  0  0  0
   57.6930   33.2070   46.6940 C   0  0  0  0  0  0  0  0  0  0  0  0
   56.6570   33.3140   45.5670 C   0  0  0  0  0  0  0  0  0  0  0  0
   57.1900   32.8020   44.2850 N   0  0  0  0  0  0  0  0  0  0  0  0
   57.2610   31.3230   44.2810 C   0  0  0  0  0  0  0  0  0  0  0  0
   56.8390   30.7650   42.9540 C   0  0  0  0  0  0  0  0  0  0  0  0
   56.1810   29.4990   42.8810 N   0  0  0  0  0  0  0  0  0  0  0  0
   57.0120   31.4380   41.9030 O   0  0  0  0  0  0  0  0  0  0  0  0
   58.4740   33.4360   43.8660 C   0  0  0  0  0  0  0  0  0  0  0  0
   59.1160   34.3430   44.9350 C   0  0  0  0  0  0  0  0  0  0  0  0
   59.9780   31.3110   47.5380 C   0  0  0  0  0  0  0  0  0  0  0  0
   59.5459   30.3209   45.6330 H   0  0  0  0  0  0  0  0  0  0  0  0
   58.8154   28.8807   44.6219 H   0  0  0  0  0  0  0  0  0  0  0  0
   58.6743   26.1003   44.9592 H   0  0  0  0  0  0  0  0  0  0  0  0
   59.1127   25.7014   48.4143 H   0  0  0  0  0  0  0  0  0  0  0  0
   59.5857   27.8089   50.7684 H   0  0  0  0  0  0  0  0  0  0  0  0
   60.9571   26.8226   50.1577 H   0  0  0  0  0  0  0  0  0  0  0  0
   61.0701   28.6153   50.1577 H   0  0  0  0  0  0  0  0  0  0  0  0
   61.9368   29.2510   49.4375 H   0  0  0  0  0  0  0  0  0  0  0  0
   63.0831   31.4228   49.8821 H   0  0  0  0  0  0  0  0  0  0  0  0
   62.2414   33.5235   48.8337 H   0  0  0  0  0  0  0  0  0  0  0  0
   57.8037   32.1516   46.9838 H   0  0  0  0  0  0  0  0  0  0  0  0
   57.3466   33.8036   47.5508 H   0  0  0  0  0  0  0  0  0  0  0  0
   55.7678   32.7282   45.8430 H   0  0  0  0  0  0  0  0  0  0  0  0
   56.4029   34.3759   45.4337 H   0  0  0  0  0  0  0  0  0  0  0  0
   58.2957   31.0126   44.4885 H   0  0  0  0  0  0  0  0  0  0  0  0
   56.5793   30.9387   45.0540 H   0  0  0  0  0  0  0  0  0  0  0  0
   55.8680   29.1230   41.9590 H   0  0  0  0  0  0  0  0  0  0  0  0
   55.9910   28.9430   43.7450 H   0  0  0  0  0  0  0  0  0  0  0  0
   59.1880   32.6364   43.6196 H   0  0  0  0  0  0  0  0  0  0  0  0
   58.2393   34.0816   43.0069 H   0  0  0  0  0  0  0  0  0  0  0  0
   60.1806   34.4876   44.6988 H   0  0  0  0  0  0  0  0  0  0  0  0
   58.6007   35.3148   44.9416 H   0  0  0  0  0  0  0  0  0  0  0  0
   59.1146   31.2744   46.8574 H   0  0  0  0  0  0  0  0  0  0  0  0
  1  2  2  0
  2  3  1  0
  3  4  2  3
  4  5  1  0
  5  6  1  0
  6  7  1  0
  7  8  2  0
  7  9  1  0
  9 10  1  0
 10 11  1  0
  3 12  1  0
 12 13  2  0
 13 14  1  0
 13 15  1  0
 15 16  1  0
 16 17  2  0
 17 18  1  0
 18 19  2  0
 19 20  1  0
 20 21  1  0
 21 22  2  0
 21 23  1  0
 23 24  1  0
 24 25  1  0
 25 26  1  0
 26 27  1  0
 27 28  1  0
 28 29  1  0
 28 30  2  0
 26 31  1  0
 31 32  1  0
 20 33  2  0
 15  2  1  0
 33 16  1  0
 10  5  2  0
 32 23  1  0
  1 34  1  0
  1 35  1  0
  4 36  1  0
 12 37  1  0
 14 38  1  0
 14 39  1  0
 14 40  1  0
 17 41  1  0
 18 42  1  0
 19 43  1  0
 24 44  1  0
 24 45  1  0
 25 46  1  0
 25 47  1  0
 27 48  1  0
 27 49  1  0
 29 50  1  0
 29 51  1  0
 31 52  1  0
 31 53  1  0
 32 54  1  0
 32 55  1  0
 33 56  1  0
M  CHG  3   6  -1   9  -1  11  -1
M  END
>  <UniqueID>  (69) 
62

>  <SMILES>  (69) 
C=c1c(=Cc2[n-]c(=O)[n-]c2[O-])cc(C)n1-c1cccc(C(=O)N2CCN(CC(N)=O)CC2)c1

>  <Energy>  (69) 
142.54371907536733

>  <Genealogy>  (69) 
C=c1c(=Cc2[n-]c(=O)[n-]c2[O-])cc(C)n1-c1cccc(C(=O)N2CCN(CC(N)=O)CC2)c1 (protonated)
C=c1c(=Cc2[n-]c(=O)[n-]c2[O-])cc(C)n1-c1cccc(C(=O)N2CCN(CC(N)=O)CC2)c1 (3D coordinates assigned)
C=c1c(=Cc2[n-]c(=O)[n-]c2[O-])cc(C)n1-c1cccc(C(=O)N2CCN(CC(N)=O)CC2)c1 (nonaromatic ring conformer: 142.54371907536733 kcal/mol)

>  <smiles>  (69) 
C=c1c(=Cc2[nH]c(=O)[nH]c2O)cc(C)n1-c1cccc(C(=O)N2CCN(CC(N)=O)CC2)c1

>  <score_type>  (69) 
oracle

>  <origin>  (69) 
adg

>  <m_score__min__energy>  (69) 
-17.23

>  <m_primary>  (69) 
energy

$$$$
69:0
     RDKit          3D

 52 55  0  0  0  0  0  0  0  0999 V2000
   59.6730   26.8530   48.1010 C   0  0  0  0  0  0  0  0  0  0  0  0
   59.6140   28.0680   47.5310 C   0  0  0  0  0  0  0  0  0  0  0  0
   59.1340   28.3610   46.2440 C   0  0  0  0  0  0  0  0  0  0  0  0
   58.4360   27.6150   45.3650 C   0  0  0  0  0  0  0  0  0  0  0  0
   57.2330   26.8270   45.6750 C   0  0  0  0  0  0  0  0  0  0  0  0
   57.2400   25.5940   46.2150 N   0  0  0  0  0  0  0  0  0  0  0  0
   55.9320   25.3460   46.4430 C   0  0  0  0  0  0  0  0  0  0  0  0
   55.5230   24.2630   46.9370 O   0  0  0  0  0  0  0  0  0  0  0  0
   55.0970   26.3540   46.1090 N   0  0  0  0  0  0  0  0  0  0  0  0
   55.9390   27.2880   45.6390 C   0  0  0  0  0  0  0  0  0  0  0  0
   55.5330   28.5380   45.1900 O   0  0  0  0  0  0  0  0  0  0  0  0
   59.4980   29.6680   45.9860 C   0  0  0  0  0  0  0  0  0  0  0  0
   60.1080   30.1540   47.1240 C   0  0  0  0  0  0  0  0  0  0  0  0
   60.6270   31.5360   47.2580 C   0  0  0  0  0  0  0  0  0  0  0  0
   61.8540   31.7240   47.4630 O   0  0  0  0  0  0  0  0  0  0  0  0
   59.7580   32.6710   47.0910 N   0  0  0  0  0  0  0  0  0  0  0  0
   58.4390   32.7150   47.7310 C   0  0  0  0  0  0  0  0  0  0  0  0
   57.3810   33.2780   46.7620 C   0  0  0  0  0  0  0  0  0  0  0  0
   57.9160   34.2550   45.7790 N   0  0  0  0  0  0  0  0  0  0  0  0
   58.0600   33.6620   44.4370 C   0  0  0  0  0  0  0  0  0  0  0  0
   59.1610   34.9110   46.2280 C   0  0  0  0  0  0  0  0  0  0  0  0
   60.2860   33.8920   46.4770 C   0  0  0  0  0  0  0  0  0  0  0  0
   60.1760   29.1850   48.0710 N   0  0  0  0  0  0  0  0  0  0  0  0
   60.7400   29.3400   49.4240 C   0  0  0  0  0  0  0  0  0  0  0  0
   60.1360   30.5130   50.1610 C   0  0  0  0  0  0  0  0  0  0  0  0
   60.9240   31.5910   50.6080 C   0  0  0  0  0  0  0  0  0  0  0  0
   60.3420   32.6470   51.3160 C   0  0  0  0  0  0  0  0  0  0  0  0
   58.9740   32.6340   51.5990 C   0  0  0  0  0  0  0  0  0  0  0  0
   58.2490   33.9610   52.4880 Cl  0  0  0  0  0  0  0  0  0  0  0  0
   58.1860   31.5600   51.1790 C   0  0  0  0  0  0  0  0  0  0  0  0
   58.7640   30.5010   50.4700 C   0  0  0  0  0  0  0  0  0  0  0  0
   60.0705   26.7426   49.1207 H   0  0  0  0  0  0  0  0  0  0  0  0
   59.3238   25.9685   47.5481 H   0  0  0  0  0  0  0  0  0  0  0  0
   58.7970   27.5935   44.3261 H   0  0  0  0  0  0  0  0  0  0  0  0
   59.3325   30.2187   45.0483 H   0  0  0  0  0  0  0  0  0  0  0  0
   58.1489   31.6970   48.0304 H   0  0  0  0  0  0  0  0  0  0  0  0
   58.4956   33.3709   48.6123 H   0  0  0  0  0  0  0  0  0  0  0  0
   56.9387   32.4373   46.2074 H   0  0  0  0  0  0  0  0  0  0  0  0
   56.6445   33.8173   47.3758 H   0  0  0  0  0  0  0  0  0  0  0  0
   58.3186   32.5971   44.5325 H   0  0  0  0  0  0  0  0  0  0  0  0
   57.1116   33.7613   43.8886 H   0  0  0  0  0  0  0  0  0  0  0  0
   58.8572   34.1852   43.8886 H   0  0  0  0  0  0  0  0  0  0  0  0
   59.4885   35.6209   45.4541 H   0  0  0  0  0  0  0  0  0  0  0  0
   58.9522   35.4282   47.1761 H   0  0  0  0  0  0  0  0  0  0  0  0
   60.7599   33.6370   45.5177 H   0  0  0  0  0  0  0  0  0  0  0  0
   61.0215   34.3402   47.1613 H   0  0  0  0  0  0  0  0  0  0  0  0
   60.5439   28.4219   49.9973 H   0  0  0  0  0  0  0  0  0  0  0  0
   61.8197   29.5239   49.3218 H   0  0  0  0  0  0  0  0  0  0  0  0
   62.0039   31.6024   50.3990 H   0  0  0  0  0  0  0  0  0  0  0  0
   60.9632   33.4906   51.6512 H   0  0  0  0  0  0  0  0  0  0  0  0
   57.1097   31.5466   51.4058 H   0  0  0  0  0  0  0  0  0  0  0  0
   58.1404   29.6525   50.1519 H   0  0  0  0  0  0  0  0  0  0  0  0
  1  2  2  0
  2  3  1  0
  3  4  2  3
  4  5  1  0
  5  6  1  0
  6  7  1  0
  7  8  2  0
  7  9  1  0
  9 10  1  0
 10 11  1  0
  3 12  1  0
 12 13  2  0
 13 14  1  0
 14 15  2  0
 14 16  1  0
 16 17  1  0
 17 18  1  0
 18 19  1  0
 19 20  1  0
 19 21  1  0
 21 22  1  0
 13 23  1  0
 23 24  1  0
 24 25  1  0
 25 26  2  0
 26 27  1  0
 27 28  2  0
 28 29  1  0
 28 30  1  0
 30 31  2  0
 23  2  1  0
 31 25  1  0
 10  5  2  0
 22 16  1  0
  1 32  1  0
  1 33  1  0
  4 34  1  0
 12 35  1  0
 17 36  1  0
 17 37  1  0
 18 38  1  0
 18 39  1  0
 20 40  1  0
 20 41  1  0
 20 42  1  0
 21 43  1  0
 21 44  1  0
 22 45  1  0
 22 46  1  0
 24 47  1  0
 24 48  1  0
 26 49  1  0
 27 50  1  0
 30 51  1  0
 31 52  1  0
M  CHG  3   6  -1   9  -1  11  -1
M  END
>  <UniqueID>  (70) 
63

>  <SMILES>  (70) 
C=c1c(=Cc2[n-]c(=O)[n-]c2[O-])cc(C(=O)N2CCN(C)CC2)n1Cc1ccc(Cl)cc1

>  <Energy>  (70) 
136.68707790629773

>  <Genealogy>  (70) 
C=c1c(=Cc2[n-]c(=O)[n-]c2[O-])cc(C(=O)N2CCN(C)CC2)n1Cc1ccc(Cl)cc1 (protonated)
C=c1c(=Cc2[n-]c(=O)[n-]c2[O-])cc(C(=O)N2CCN(C)CC2)n1Cc1ccc(Cl)cc1 (3D coordinates assigned)
C=c1c(=Cc2[n-]c(=O)[n-]c2[O-])cc(C(=O)N2CCN(C)CC2)n1Cc1ccc(Cl)cc1 (nonaromatic ring conformer: 136.68707790629773 kcal/mol)

>  <smiles>  (70) 
C=c1c(=Cc2[nH]c(=O)[nH]c2O)cc(C(=O)N2CCN(C)CC2)n1Cc1ccc(Cl)cc1

>  <score_type>  (70) 
oracle

>  <origin>  (70) 
adg

>  <m_score__min__energy>  (70) 
-16.079999999999998

>  <m_primary>  (70) 
energy

$$$$
70:0
     RDKit          3D

 33 34  0  0  0  0  0  0  0  0999 V2000
   55.1610   29.3440   44.9230 O   0  0  0  0  0  0  0  0  0  0  0  0
   56.2450   29.8090   44.4820 C   0  0  0  0  0  0  0  0  0  0  0  0
   57.3120   28.8810   43.9690 C   0  0  0  0  0  0  0  0  0  0  0  0
   58.2990   28.6010   45.0050 N   0  0  0  0  0  0  0  0  0  0  0  0
   57.9470   28.1090   46.3030 C   0  0  0  0  0  0  0  0  0  0  0  0
   58.2610   28.7800   47.3240 O   0  0  0  0  0  0  0  0  0  0  0  0
   57.2200   26.8200   46.4580 C   0  0  0  0  0  0  0  0  0  0  0  0
   55.8980   26.7010   45.9950 C   0  0  0  0  0  0  0  0  0  0  0  0
   55.2240   25.5310   46.1300 N   0  0  0  0  0  0  0  0  0  0  0  0
   55.8060   24.4530   46.7120 C   0  0  0  0  0  0  0  0  0  0  0  0
   55.1640   23.3780   46.8280 O   0  0  0  0  0  0  0  0  0  0  0  0
   57.0800   24.5340   47.1690 N   0  0  0  0  0  0  0  0  0  0  0  0
   57.7990   25.6810   47.0590 C   0  0  0  0  0  0  0  0  0  0  0  0
   58.9780   25.7040   47.5000 O   0  0  0  0  0  0  0  0  0  0  0  0
   56.4390   31.2270   44.4850 N   0  0  0  0  0  0  0  0  0  0  0  0
   57.5990   31.8920   43.9040 C   0  0  0  0  0  0  0  0  0  0  0  0
   58.2070   32.8150   44.9240 C   0  0  0  0  0  0  0  0  0  0  0  0
   58.6590   34.0880   44.5340 C   0  0  0  0  0  0  0  0  0  0  0  0
   59.1990   34.9660   45.4770 C   0  0  0  0  0  0  0  0  0  0  0  0
   59.2840   34.5870   46.8180 C   0  0  0  0  0  0  0  0  0  0  0  0
   58.8250   33.3300   47.2210 C   0  0  0  0  0  0  0  0  0  0  0  0
   58.2800   32.4420   46.2820 C   0  0  0  0  0  0  0  0  0  0  0  0
   57.8090   31.1960   46.6920 O   0  0  0  0  0  0  0  0  0  0  0  0
   56.8458   27.9368   43.6509 H   0  0  0  0  0  0  0  0  0  0  0  0
   57.8196   29.3634   43.1207 H   0  0  0  0  0  0  0  0  0  0  0  0
   55.4063   27.5626   45.5198 H   0  0  0  0  0  0  0  0  0  0  0  0
   58.3412   31.1384   43.6020 H   0  0  0  0  0  0  0  0  0  0  0  0
   57.2876   32.4717   43.0225 H   0  0  0  0  0  0  0  0  0  0  0  0
   58.5870   34.3945   43.4800 H   0  0  0  0  0  0  0  0  0  0  0  0
   59.5577   35.9572   45.1625 H   0  0  0  0  0  0  0  0  0  0  0  0
   59.7127   35.2786   47.5582 H   0  0  0  0  0  0  0  0  0  0  0  0
   58.8914   33.0359   48.2789 H   0  0  0  0  0  0  0  0  0  0  0  0
   57.7190   30.4220   46.0440 H   0  0  0  0  0  0  0  0  0  0  0  0
  1  2  2  0
  2  3  1  0
  3  4  1  0
  4  5  1  0
  5  6  2  0
  5  7  1  0
  7  8  2  0
  8  9  1  0
  9 10  1  0
 10 11  2  0
 10 12  1  0
 12 13  1  0
 13 14  2  0
  2 15  1  0
 15 16  1  0
 16 17  1  0
 17 18  2  0
 18 19  1  0
 19 20  2  0
 20 21  1  0
 21 22  2  0
 22 23  1  0
 13  7  1  0
 22 17  1  0
  3 24  1  0
  3 25  1  0
  8 26  1  0
 16 27  1  0
 16 28  1  0
 18 29  1  0
 19 30  1  0
 20 31  1  0
 21 32  1  0
 23 33  1  0
M  CHG  4   4  -1   9  -1  12  -1  15  -1
M  END
>  <UniqueID>  (71) 
64

>  <SMILES>  (71) 
O=C(C[N-]C(=O)c1c[n-]c(=O)[n-]c1=O)[N-]Cc1ccccc1O

>  <Energy>  (71) 
32.91250266269667

>  <Genealogy>  (71) 
O=C(C[N-]C(=O)c1c[n-]c(=O)[n-]c1=O)[N-]Cc1ccccc1O (protonated)
O=C(C[N-]C(=O)c1c[n-]c(=O)[n-]c1=O)[N-]Cc1ccccc1O (3D coordinates assigned)
O=C(C[N-]C(=O)c1c[n-]c(=O)[n-]c1=O)[N-]Cc1ccccc1O (optimized conformer: 32.91250266269667 kcal/mol)

>  <smiles>  (71) 
O=C(CNC(=O)c1c[nH]c(=O)[nH]c1=O)NCc1ccccc1O

>  <score_type>  (71) 
oracle

>  <origin>  (71) 
adg

>  <m_score__min__energy>  (71) 
-13.890000000000001

>  <m_primary>  (71) 
energy

$$$$
71:0
     RDKit          3D

 40 42  0  0  0  0  0  0  0  0999 V2000
   63.9160   32.9150   47.4230 N   0  0  0  0  0  0  0  0  0  0  0  0
   64.1420   32.5680   48.6490 C   0  0  0  0  0  0  0  0  0  0  0  0
   63.4400   31.5430   49.2000 N   0  0  0  0  0  0  0  0  0  0  0  0
   63.6500   31.1590   50.4890 C   0  0  0  0  0  0  0  0  0  0  0  0
   62.9440   30.0870   51.0520 O   0  0  0  0  0  0  0  0  0  0  0  0
   61.5780   30.0950   51.3700 C   0  0  0  0  0  0  0  0  0  0  0  0
   60.5910   30.4130   50.4190 C   0  0  0  0  0  0  0  0  0  0  0  0
   59.2400   30.4220   50.7790 C   0  0  0  0  0  0  0  0  0  0  0  0
   58.8550   30.1400   52.1010 C   0  0  0  0  0  0  0  0  0  0  0  0
   57.4720   30.1190   52.4920 N   0  0  0  0  0  0  0  0  0  0  0  0
   56.8160   28.9890   53.0840 C   0  0  0  0  0  0  0  0  0  0  0  0
   57.3940   27.8700   53.1380 O   0  0  0  0  0  0  0  0  0  0  0  0
   55.4980   29.1520   53.6210 N   0  0  0  0  0  0  0  0  0  0  0  0
   54.4030   29.8500   53.0080 C   0  0  0  0  0  0  0  0  0  0  0  0
   53.2000   29.9630   53.7140 C   0  0  0  0  0  0  0  0  0  0  0  0
   52.1140   30.6510   53.1640 C   0  0  0  0  0  0  0  0  0  0  0  0
   52.2200   31.2550   51.8980 C   0  0  0  0  0  0  0  0  0  0  0  0
   51.0720   31.9850   51.3110 C   0  0  0  0  0  0  0  0  0  0  0  0
   50.1620   32.6990   52.1470 N   0  0  0  0  0  0  0  0  0  0  0  0
   50.8870   31.9820   50.0640 O   0  0  0  0  0  0  0  0  0  0  0  0
   53.4380   31.1620   51.2020 C   0  0  0  0  0  0  0  0  0  0  0  0
   54.5230   30.4720   51.7540 C   0  0  0  0  0  0  0  0  0  0  0  0
   59.8410   29.8210   53.0450 C   0  0  0  0  0  0  0  0  0  0  0  0
   61.1920   29.8130   52.6860 C   0  0  0  0  0  0  0  0  0  0  0  0
   62.1310   29.5160   53.6190 F   0  0  0  0  0  0  0  0  0  0  0  0
   64.6150   31.8160   51.2540 C   0  0  0  0  0  0  0  0  0  0  0  0
   65.3260   32.8660   50.6730 C   0  0  0  0  0  0  0  0  0  0  0  0
   65.0780   33.2240   49.3870 N   0  0  0  0  0  0  0  0  0  0  0  0
   64.5710   32.6550   46.6530 H   0  0  0  0  0  0  0  0  0  0  0  0
   60.8838   30.6558   49.3869 H   0  0  0  0  0  0  0  0  0  0  0  0
   58.4741   30.6511   50.0234 H   0  0  0  0  0  0  0  0  0  0  0  0
   56.8780   30.9440   52.2490 H   0  0  0  0  0  0  0  0  0  0  0  0
   53.1079   29.5065   54.7106 H   0  0  0  0  0  0  0  0  0  0  0  0
   51.1704   30.7204   53.7251 H   0  0  0  0  0  0  0  0  0  0  0  0
   49.9760   33.7150   51.9940 H   0  0  0  0  0  0  0  0  0  0  0  0
   53.5390   31.6360   50.2145 H   0  0  0  0  0  0  0  0  0  0  0  0
   55.4739   30.4164   51.2038 H   0  0  0  0  0  0  0  0  0  0  0  0
   59.5492   29.5750   54.0767 H   0  0  0  0  0  0  0  0  0  0  0  0
   64.8106   31.5122   52.2930 H   0  0  0  0  0  0  0  0  0  0  0  0
   66.0876   33.4040   51.2566 H   0  0  0  0  0  0  0  0  0  0  0  0
  1  2  2  3
  2  3  1  0
  3  4  2  0
  4  5  1  0
  5  6  1  0
  6  7  2  0
  7  8  1  0
  8  9  2  0
  9 10  1  0
 10 11  1  0
 11 12  2  0
 11 13  1  0
 13 14  1  0
 14 15  2  0
 15 16  1  0
 16 17  2  0
 17 18  1  0
 18 19  1  0
 18 20  2  0
 17 21  1  0
 21 22  2  0
  9 23  1  0
 23 24  2  0
 24 25  1  0
  4 26  1  0
 26 27  2  0
 27 28  1  0
 28  2  1  0
 24  6  1  0
 22 14  1  0
  1 29  1  0
  7 30  1  0
  8 31  1  0
 10 32  1  0
 15 33  1  0
 16 34  1  0
 19 35  1  0
 21 36  1  0
 22 37  1  0
 23 38  1  0
 26 39  1  0
 27 40  1  0
M  CHG  3  13  -1  19  -1  28  -1
M  END
>  <UniqueID>  (72) 
65

>  <SMILES>  (72) 
N=c1nc(Oc2ccc(NC(=O)[N-]c3ccc(C([NH-])=O)cc3)cc2F)cc[n-]1

>  <Energy>  (72) 
55.649238701735925

>  <Genealogy>  (72) 
N=c1nc(Oc2ccc(NC(=O)[N-]c3ccc(C([NH-])=O)cc3)cc2F)cc[n-]1 (protonated)
N=c1nc(Oc2ccc(NC(=O)[N-]c3ccc(C([NH-])=O)cc3)cc2F)cc[n-]1 (3D coordinates assigned)
N=c1nc(Oc2ccc(NC(=O)[N-]c3ccc(C([NH-])=O)cc3)cc2F)cc[n-]1 (optimized conformer: 55.649238701735925 kcal/mol)

>  <smiles>  (72) 
N=c1nc(Oc2ccc(NC(=O)Nc3ccc(C(N)=O)cc3)cc2F)cc[nH]1

>  <score_type>  (72) 
oracle

>  <origin>  (72) 
adg

>  <m_score__min__energy>  (72) 
-11.42

>  <m_primary>  (72) 
energy

$$$$
72:0
     RDKit          3D

 76 80  0  0  0  0  0  0  0  0999 V2000
   66.1320   31.6670   53.9020 O   0  0  0  0  0  0  0  0  0  0  0  0
   65.0420   32.2430   54.1660 C   0  0  0  0  0  0  0  0  0  0  0  0
   63.8010   31.4350   54.3830 C   0  0  0  0  0  0  0  0  0  0  0  0
   62.9880   31.3540   53.1160 C   0  0  0  0  0  0  0  0  0  0  0  0
   61.8280   32.1320   52.9670 C   0  0  0  0  0  0  0  0  0  0  0  0
   61.0630   32.0390   51.8040 C   0  0  0  0  0  0  0  0  0  0  0  0
   61.4250   31.1540   50.7820 C   0  0  0  0  0  0  0  0  0  0  0  0
   60.6150   31.0770   49.5970 N   0  0  0  0  0  0  0  0  0  0  0  0
   60.2470   29.8410   48.9600 C   0  0  0  0  0  0  0  0  0  0  0  0
   60.6100   28.7380   49.4530 O   0  0  0  0  0  0  0  0  0  0  0  0
   59.3710   29.8450   47.7320 C   0  0  0  0  0  0  0  0  0  0  0  0
   58.8340   28.4300   47.4380 C   0  0  0  0  0  0  0  0  0  0  0  0
   57.8860   28.4630   46.2300 C   0  0  0  0  0  0  0  0  0  0  0  0
   58.4010   29.3370   45.1660 N   0  0  0  0  0  0  0  0  0  0  0  0
   57.4990   29.8080   44.1510 C   0  0  0  0  0  0  0  0  0  0  0  0
   56.6580   29.0100   43.6530 O   0  0  0  0  0  0  0  0  0  0  0  0
   57.4390   31.2640   43.7650 C   0  0  0  0  0  0  0  0  0  0  0  0
   56.7970   32.1090   44.8730 C   0  0  0  0  0  0  0  0  0  0  0  0
   57.7850   33.0700   45.4810 C   0  0  0  0  0  0  0  0  0  0  0  0
   58.4990   33.9630   44.6620 C   0  0  0  0  0  0  0  0  0  0  0  0
   59.3910   34.8790   45.2280 C   0  0  0  0  0  0  0  0  0  0  0  0
   59.5650   34.9240   46.6140 C   0  0  0  0  0  0  0  0  0  0  0  0
   58.8540   34.0440   47.4360 C   0  0  0  0  0  0  0  0  0  0  0  0
   57.9700   33.1200   46.8730 C   0  0  0  0  0  0  0  0  0  0  0  0
   59.8090   29.7460   45.1990 C   0  0  0  0  0  0  0  0  0  0  0  0
   60.1170   30.4670   46.5170 C   0  0  0  0  0  0  0  0  0  0  0  0
   62.6020   30.3970   50.9140 C   0  0  0  0  0  0  0  0  0  0  0  0
   63.3780   30.4970   52.0730 C   0  0  0  0  0  0  0  0  0  0  0  0
   64.9830   33.6700   54.2590 N   0  0  0  0  0  0  0  0  0  0  0  0
   63.9400   34.4660   53.6280 C   0  0  0  0  0  0  0  0  0  0  0  0
   64.3900   34.9040   52.2650 C   0  0  0  0  0  0  0  0  0  0  0  0
   64.6410   36.1220   52.0720 O   0  0  0  0  0  0  0  0  0  0  0  0
   64.6060   33.9420   51.2160 N   0  0  0  0  0  0  0  0  0  0  0  0
   65.7790   33.0670   51.1270 C   0  0  0  0  0  0  0  0  0  0  0  0
   65.6730   32.3350   49.7660 C   0  0  0  0  0  0  0  0  0  0  0  0
   64.3780   32.8180   49.2180 C   0  0  0  0  0  0  0  0  0  0  0  0
   63.7560   32.4230   48.0320 C   0  0  0  0  0  0  0  0  0  0  0  0
   62.5090   32.9820   47.7110 C   0  0  0  0  0  0  0  0  0  0  0  0
   61.9080   33.9130   48.5790 C   0  0  0  0  0  0  0  0  0  0  0  0
   62.5520   34.2940   49.7680 C   0  0  0  0  0  0  0  0  0  0  0  0
   63.8050   33.7360   50.0580 C   0  0  0  0  0  0  0  0  0  0  0  0
   64.0822   30.4189   54.6969 H   0  0  0  0  0  0  0  0  0  0  0  0
   63.1945   31.9214   55.1612 H   0  0  0  0  0  0  0  0  0  0  0  0
   61.5214   32.8176   53.7708 H   0  0  0  0  0  0  0  0  0  0  0  0
   60.1672   32.6670   51.6893 H   0  0  0  0  0  0  0  0  0  0  0  0
   60.1450   31.9550   49.2750 H   0  0  0  0  0  0  0  0  0  0  0  0
   58.4969   30.4841   47.9256 H   0  0  0  0  0  0  0  0  0  0  0  0
   59.6779   27.7592   47.2194 H   0  0  0  0  0  0  0  0  0  0  0  0
   58.2826   28.0654   48.3172 H   0  0  0  0  0  0  0  0  0  0  0  0
   57.7766   27.4429   45.8332 H   0  0  0  0  0  0  0  0  0  0  0  0
   56.9154   28.8592   46.5631 H   0  0  0  0  0  0  0  0  0  0  0  0
   58.4607   31.6287   43.5828 H   0  0  0  0  0  0  0  0  0  0  0  0
   56.8246   31.3573   42.8574 H   0  0  0  0  0  0  0  0  0  0  0  0
   55.9596   32.6805   44.4462 H   0  0  0  0  0  0  0  0  0  0  0  0
   56.4465   31.4298   45.6641 H   0  0  0  0  0  0  0  0  0  0  0  0
   58.3551   33.9407   43.5717 H   0  0  0  0  0  0  0  0  0  0  0  0
   59.9569   35.5655   44.5811 H   0  0  0  0  0  0  0  0  0  0  0  0
   60.2608   35.6512   47.0580 H   0  0  0  0  0  0  0  0  0  0  0  0
   58.9908   34.0793   48.5269 H   0  0  0  0  0  0  0  0  0  0  0  0
   57.4155   32.4275   47.5234 H   0  0  0  0  0  0  0  0  0  0  0  0
   60.4488   28.8553   45.1133 H   0  0  0  0  0  0  0  0  0  0  0  0
   60.0053   30.4297   44.3599 H   0  0  0  0  0  0  0  0  0  0  0  0
   61.1997   30.4117   46.7033 H   0  0  0  0  0  0  0  0  0  0  0  0
   59.7736   31.5070   46.4141 H   0  0  0  0  0  0  0  0  0  0  0  0
   62.9139   29.7232   50.1024 H   0  0  0  0  0  0  0  0  0  0  0  0
   64.2982   29.9019   52.1687 H   0  0  0  0  0  0  0  0  0  0  0  0
   63.0257   33.8616   53.5341 H   0  0  0  0  0  0  0  0  0  0  0  0
   63.7359   35.3530   54.2458 H   0  0  0  0  0  0  0  0  0  0  0  0
   66.7027   33.6629   51.1681 H   0  0  0  0  0  0  0  0  0  0  0  0
   65.8098   32.3533   51.9635 H   0  0  0  0  0  0  0  0  0  0  0  0
   66.5079   32.6099   49.1046 H   0  0  0  0  0  0  0  0  0  0  0  0
   65.7186   31.2401   49.8613 H   0  0  0  0  0  0  0  0  0  0  0  0
   64.2325   31.6902   47.3642 H   0  0  0  0  0  0  0  0  0  0  0  0
   62.0007   32.6920   46.7796 H   0  0  0  0  0  0  0  0  0  0  0  0
   60.9286   34.3446   48.3249 H   0  0  0  0  0  0  0  0  0  0  0  0
   62.0838   35.0137   50.4557 H   0  0  0  0  0  0  0  0  0  0  0  0
  1  2  2  0
  2  3  1  0
  3  4  1  0
  4  5  2  0
  5  6  1  0
  6  7  2  0
  7  8  1  0
  8  9  1  0
  9 10  2  0
  9 11  1  0
 11 12  1  0
 12 13  1  0
 13 14  1  0
 14 15  1  0
 15 16  2  0
 15 17  1  0
 17 18  1  0
 18 19  1  0
 19 20  2  0
 20 21  1  0
 21 22  2  0
 22 23  1  0
 23 24  2  0
 14 25  1  0
 25 26  1  0
  7 27  1  0
 27 28  2  0
  2 29  1  0
 29 30  1  0
 30 31  1  0
 31 32  2  0
 31 33  1  0
 33 34  1  0
 34 35  1  0
 35 36  1  0
 36 37  2  0
 37 38  1  0
 38 39  2  0
 39 40  1  0
 40 41  2  0
 28  4  1  0
 41 33  1  0
 26 11  1  0
 41 36  1  0
 24 19  1  0
  3 42  1  0
  3 43  1  0
  5 44  1  0
  6 45  1  0
  8 46  1  0
 11 47  1  0
 12 48  1  0
 12 49  1  0
 13 50  1  0
 13 51  1  0
 17 52  1  0
 17 53  1  0
 18 54  1  0
 18 55  1  0
 20 56  1  0
 21 57  1  0
 22 58  1  0
 23 59  1  0
 24 60  1  0
 25 61  1  0
 25 62  1  0
 26 63  1  0
 26 64  1  0
 27 65  1  0
 28 66  1  0
 30 67  1  0
 30 68  1  0
 34 69  1  0
 34 70  1  0
 35 71  1  0
 35 72  1  0
 37 73  1  0
 38 74  1  0
 39 75  1  0
 40 76  1  0
M  CHG  1  29  -1
M  END
>  <UniqueID>  (73) 
66

>  <SMILES>  (73) 
O=C(Cc1ccc(NC(=O)C2CCN(C(=O)CCc3ccccc3)CC2)cc1)[N-]CC(=O)N1CCc2ccccc21

>  <Energy>  (73) 
97.31068482637697

>  <Genealogy>  (73) 
O=C(Cc1ccc(NC(=O)C2CCN(C(=O)CCc3ccccc3)CC2)cc1)[N-]CC(=O)N1CCc2ccccc21 (protonated)
O=C(Cc1ccc(NC(=O)C2CCN(C(=O)CCc3ccccc3)CC2)cc1)[N-]CC(=O)N1CCc2ccccc21 (3D coordinates assigned)
O=C(Cc1ccc(NC(=O)C2CCN(C(=O)CCc3ccccc3)CC2)cc1)[N-]CC(=O)N1CCc2ccccc21 (nonaromatic ring conformer: 97.31068482637697 kcal/mol)

>  <smiles>  (73) 
O=C(Cc1ccc(NC(=O)C2CCN(C(=O)CCc3ccccc3)CC2)cc1)NCC(=O)N1CCc2ccccc21

>  <score_type>  (73) 
oracle

>  <origin>  (73) 
adg

>  <m_score__min__energy>  (73) 
-11.6

>  <m_primary>  (73) 
energy

$$$$
73:0
     RDKit          3D

 49 52  0  0  0  0  0  0  0  0999 V2000
   55.4390   26.2780   45.7910 O   0  0  0  0  0  0  0  0  0  0  0  0
   56.4910   25.6240   46.0320 C   0  0  0  0  0  0  0  0  0  0  0  0
   57.4040   26.1310   47.1160 C   0  0  0  0  0  0  0  0  0  0  0  0
   59.0740   26.4870   46.4620 S   0  0  0  0  0  0  0  0  0  0  0  0
   58.5480   27.8610   45.4310 C   0  0  0  0  0  0  0  0  0  0  0  0
   57.5680   27.7460   44.5040 N   0  0  0  0  0  0  0  0  0  0  0  0
   57.4640   28.9770   43.9780 C   0  0  0  0  0  0  0  0  0  0  0  0
   56.5820   29.4210   42.9960 C   0  0  0  0  0  0  0  0  0  0  0  0
   56.6510   30.7750   42.6220 C   0  0  0  0  0  0  0  0  0  0  0  0
   57.5870   31.6400   43.2340 C   0  0  0  0  0  0  0  0  0  0  0  0
   58.4630   31.1600   44.2250 C   0  0  0  0  0  0  0  0  0  0  0  0
   58.3710   29.8090   44.5720 C   0  0  0  0  0  0  0  0  0  0  0  0
   59.0750   29.1140   45.4870 N   0  0  0  0  0  0  0  0  0  0  0  0
   60.1160   29.6120   46.3910 C   0  0  0  0  0  0  0  0  0  0  0  0
   59.5070   30.4920   47.4480 C   0  0  0  0  0  0  0  0  0  0  0  0
   58.8280   29.9510   48.3620 O   0  0  0  0  0  0  0  0  0  0  0  0
   59.6690   31.9250   47.4430 N   0  0  0  0  0  0  0  0  0  0  0  0
   59.1400   32.7710   48.4980 C   0  0  0  0  0  0  0  0  0  0  0  0
   59.3330   34.2030   48.0180 C   0  0  0  0  0  0  0  0  0  0  0  0
   60.3430   34.1290   46.8770 C   0  0  0  0  0  0  0  0  0  0  0  0
   60.3250   32.6850   46.3930 C   0  0  0  0  0  0  0  0  0  0  0  0
   56.7960   24.4060   45.2290 C   0  0  0  0  0  0  0  0  0  0  0  0
   57.8800   23.5630   45.5470 C   0  0  0  0  0  0  0  0  0  0  0  0
   58.1480   22.4290   44.7740 C   0  0  0  0  0  0  0  0  0  0  0  0
   57.3410   22.1190   43.6780 C   0  0  0  0  0  0  0  0  0  0  0  0
   56.2640   22.9420   43.3520 C   0  0  0  0  0  0  0  0  0  0  0  0
   55.9900   24.0780   44.1210 C   0  0  0  0  0  0  0  0  0  0  0  0
   56.9804   27.0537   47.5394 H   0  0  0  0  0  0  0  0  0  0  0  0
   57.4914   25.3536   47.8893 H   0  0  0  0  0  0  0  0  0  0  0  0
   57.0060   26.8970   44.2680 H   0  0  0  0  0  0  0  0  0  0  0  0
   55.8574   28.7373   42.5296 H   0  0  0  0  0  0  0  0  0  0  0  0
   55.9724   31.1635   41.8484 H   0  0  0  0  0  0  0  0  0  0  0  0
   57.6308   32.6971   42.9329 H   0  0  0  0  0  0  0  0  0  0  0  0
   59.1940   31.8241   44.7093 H   0  0  0  0  0  0  0  0  0  0  0  0
   60.6177   28.7596   46.8724 H   0  0  0  0  0  0  0  0  0  0  0  0
   60.8449   30.1978   45.8118 H   0  0  0  0  0  0  0  0  0  0  0  0
   58.0721   32.5613   48.6578 H   0  0  0  0  0  0  0  0  0  0  0  0
   59.6522   32.5925   49.4550 H   0  0  0  0  0  0  0  0  0  0  0  0
   58.3797   34.6179   47.6588 H   0  0  0  0  0  0  0  0  0  0  0  0
   59.6870   34.8565   48.8289 H   0  0  0  0  0  0  0  0  0  0  0  0
   60.0504   34.8086   46.0630 H   0  0  0  0  0  0  0  0  0  0  0  0
   61.3477   34.4303   47.2083 H   0  0  0  0  0  0  0  0  0  0  0  0
   59.7617   32.6033   45.4517 H   0  0  0  0  0  0  0  0  0  0  0  0
   61.3405   32.3109   46.1958 H   0  0  0  0  0  0  0  0  0  0  0  0
   58.5201   23.7990   46.4099 H   0  0  0  0  0  0  0  0  0  0  0  0
   58.9976   21.7790   45.0304 H   0  0  0  0  0  0  0  0  0  0  0  0
   57.5547   21.2261   43.0721 H   0  0  0  0  0  0  0  0  0  0  0  0
   55.6283   22.6976   42.4882 H   0  0  0  0  0  0  0  0  0  0  0  0
   55.1373   24.7212   43.8581 H   0  0  0  0  0  0  0  0  0  0  0  0
  1  2  2  0
  2  3  1  0
  3  4  1  0
  4  5  1  0
  5  6  2  0
  6  7  1  0
  7  8  2  0
  8  9  1  0
  9 10  2  0
 10 11  1  0
 11 12  2  0
 12 13  1  0
 13 14  1  0
 14 15  1  0
 15 16  2  0
 15 17  1  0
 17 18  1  0
 18 19  1  0
 19 20  1  0
 20 21  1  0
  2 22  1  0
 22 23  2  0
 23 24  1  0
 24 25  2  0
 25 26  1  0
 26 27  2  0
 13  5  1  0
 21 17  1  0
 27 22  1  0
 12  7  1  0
  3 28  1  0
  3 29  1  0
  6 30  1  0
  8 31  1  0
  9 32  1  0
 10 33  1  0
 11 34  1  0
 14 35  1  0
 14 36  1  0
 18 37  1  0
 18 38  1  0
 19 39  1  0
 19 40  1  0
 20 41  1  0
 20 42  1  0
 21 43  1  0
 21 44  1  0
 23 45  1  0
 24 46  1  0
 25 47  1  0
 26 48  1  0
 27 49  1  0
M  CHG  1   6   1
M  END
>  <UniqueID>  (74) 
67

>  <SMILES>  (74) 
O=C(CSc1[nH+]c2ccccc2n1CC(=O)N1CCCC1)c1ccccc1

>  <Energy>  (74) 
84.43551355671003

>  <Genealogy>  (74) 
O=C(CSc1[nH+]c2ccccc2n1CC(=O)N1CCCC1)c1ccccc1 (protonated)
O=C(CSc1[nH+]c2ccccc2n1CC(=O)N1CCCC1)c1ccccc1 (3D coordinates assigned)
O=C(CSc1[nH+]c2ccccc2n1CC(=O)N1CCCC1)c1ccccc1 (nonaromatic ring conformer: 84.43551355671003 kcal/mol)

>  <smiles>  (74) 
O=C(CSc1nc2ccccc2n1CC(=O)N1CCCC1)c1ccccc1

>  <score_type>  (74) 
oracle

>  <origin>  (74) 
adg

>  <m_score__min__energy>  (74) 
-7.21

>  <m_primary>  (74) 
energy

$$$$
74:0
     RDKit          3D

 71 75  0  0  0  0  0  0  0  0999 V2000
   68.2279   32.4613   51.0321 H   0  0  0  0  0  0  0  0  0  0  0  0
   67.3910   31.7560   51.1420 C   0  0  0  0  0  0  0  0  0  0  0  0
   67.4250   30.3080   51.9970 S   0  0  0  0  0  0  0  0  0  0  0  0
   65.8200   29.9410   51.6290 C   0  0  0  0  0  0  0  0  0  0  0  0
   65.1740   28.8860   52.0230 N   0  0  0  0  0  0  0  0  0  0  0  0
   63.7220   28.7610   51.9920 C   0  0  0  0  0  0  0  0  0  0  0  0
   63.3348   28.7277   53.0211 H   0  0  0  0  0  0  0  0  0  0  0  0
   63.2907   29.6253   51.4658 H   0  0  0  0  0  0  0  0  0  0  0  0
   63.4448   27.8357   51.4658 H   0  0  0  0  0  0  0  0  0  0  0  0
   65.2490   30.8930   50.8630 N   0  0  0  0  0  0  0  0  0  0  0  0
   66.1170   31.9060   50.5970 C   0  0  0  0  0  0  0  0  0  0  0  0
   65.7300   33.0640   49.7290 C   0  0  0  0  0  0  0  0  0  0  0  0
   65.4864   33.9288   50.3636 H   0  0  0  0  0  0  0  0  0  0  0  0
   66.5706   33.3122   49.0643 H   0  0  0  0  0  0  0  0  0  0  0  0
   64.5660   32.7170   48.9180 N   0  0  0  0  0  0  0  0  0  0  0  0
   64.7190   32.0890   48.0970 H   0  0  0  0  0  0  0  0  0  0  0  0
   63.2710   33.2960   49.1450 C   0  0  0  0  0  0  0  0  0  0  0  0
   63.1220   34.1560   50.0570 O   0  0  0  0  0  0  0  0  0  0  0  0
   62.1090   32.9180   48.3070 C   0  0  0  0  0  0  0  0  0  0  0  0
   61.2560   33.8950   47.7720 C   0  0  0  0  0  0  0  0  0  0  0  0
   61.4636   34.9593   47.9569 H   0  0  0  0  0  0  0  0  0  0  0  0
   60.1430   33.5290   47.0050 C   0  0  0  0  0  0  0  0  0  0  0  0
   59.2150   34.5570   46.5060 C   0  0  0  0  0  0  0  0  0  0  0  0
   59.2780   35.7230   46.9770 O   0  0  0  0  0  0  0  0  0  0  0  0
   58.2550   34.2730   45.4760 N   0  0  0  0  0  0  0  0  0  0  0  0
   58.5830   33.8160   44.1260 C   0  0  0  0  0  0  0  0  0  0  0  0
   58.2258   34.5568   43.3955 H   0  0  0  0  0  0  0  0  0  0  0  0
   59.6737   33.7000   44.0429 H   0  0  0  0  0  0  0  0  0  0  0  0
   57.9270   32.4890   43.8490 C   0  0  0  0  0  0  0  0  0  0  0  0
   57.5470   31.6580   44.9160 C   0  0  0  0  0  0  0  0  0  0  0  0
   57.7647   31.9611   45.9508 H   0  0  0  0  0  0  0  0  0  0  0  0
   56.8930   30.4470   44.6680 C   0  0  0  0  0  0  0  0  0  0  0  0
   56.5992   29.7996   45.5074 H   0  0  0  0  0  0  0  0  0  0  0  0
   56.6120   30.0580   43.3550 C   0  0  0  0  0  0  0  0  0  0  0  0
   56.0939   29.1069   43.1625 H   0  0  0  0  0  0  0  0  0  0  0  0
   56.9890   30.8770   42.2860 C   0  0  0  0  0  0  0  0  0  0  0  0
   56.7682   30.5691   41.2533 H   0  0  0  0  0  0  0  0  0  0  0  0
   57.6470   32.0880   42.5290 C   0  0  0  0  0  0  0  0  0  0  0  0
   57.9462   32.7283   41.6861 H   0  0  0  0  0  0  0  0  0  0  0  0
   59.9070   32.1760   46.7250 C   0  0  0  0  0  0  0  0  0  0  0  0
   59.0543   31.8902   46.0916 H   0  0  0  0  0  0  0  0  0  0  0  0
   60.7510   31.1830   47.2470 C   0  0  0  0  0  0  0  0  0  0  0  0
   60.4750   29.7490   46.9930 C   0  0  0  0  0  0  0  0  0  0  0  0
   60.4800   29.2420   45.6830 C   0  0  0  0  0  0  0  0  0  0  0  0
   60.6564   29.9202   44.8351 H   0  0  0  0  0  0  0  0  0  0  0  0
   60.2620   27.8800   45.4500 C   0  0  0  0  0  0  0  0  0  0  0  0
   60.2848   27.4916   44.4211 H   0  0  0  0  0  0  0  0  0  0  0  0
   60.0140   27.0040   46.5210 C   0  0  0  0  0  0  0  0  0  0  0  0
   59.8120   25.5190   46.2820 C   0  0  0  0  0  0  0  0  0  0  0  0
   60.4784   25.2070   45.4644 H   0  0  0  0  0  0  0  0  0  0  0  0
   60.0377   25.0115   47.2315 H   0  0  0  0  0  0  0  0  0  0  0  0
   58.4260   25.1480   45.9190 N   0  0  0  0  0  0  0  0  0  0  0  0
   57.7670   26.0720   44.9690 C   0  0  0  0  0  0  0  0  0  0  0  0
   58.5096   26.7944   44.5993 H   0  0  0  0  0  0  0  0  0  0  0  0
   57.3528   25.4786   44.1406 H   0  0  0  0  0  0  0  0  0  0  0  0
   56.6130   26.8390   45.6390 C   0  0  0  0  0  0  0  0  0  0  0  0
   57.0282   27.4500   46.4540 H   0  0  0  0  0  0  0  0  0  0  0  0
   56.1362   27.4511   44.8593 H   0  0  0  0  0  0  0  0  0  0  0  0
   55.6070   25.9930   46.1790 O   0  0  0  0  0  0  0  0  0  0  0  0
   56.1000   24.7450   46.6590 C   0  0  0  0  0  0  0  0  0  0  0  0
   55.5024   24.4499   47.5341 H   0  0  0  0  0  0  0  0  0  0  0  0
   56.0159   24.0278   45.8292 H   0  0  0  0  0  0  0  0  0  0  0  0
   57.5790   24.7780   47.0720 C   0  0  0  0  0  0  0  0  0  0  0  0
   57.7151   25.5180   47.8744 H   0  0  0  0  0  0  0  0  0  0  0  0
   57.8737   23.7791   47.4262 H   0  0  0  0  0  0  0  0  0  0  0  0
   60.0110   27.5130   47.8290 C   0  0  0  0  0  0  0  0  0  0  0  0
   59.8324   26.8361   48.6774 H   0  0  0  0  0  0  0  0  0  0  0  0
   60.2330   28.8720   48.0620 C   0  0  0  0  0  0  0  0  0  0  0  0
   60.2181   29.2584   49.0918 H   0  0  0  0  0  0  0  0  0  0  0  0
   61.8520   31.5640   48.0330 C   0  0  0  0  0  0  0  0  0  0  0  0
   62.5217   30.7917   48.4393 H   0  0  0  0  0  0  0  0  0  0  0  0
  1  2  1  0
  2  3  1  0
  3  4  1  0
  4  5  2  0
  5  6  1  0
  6  7  1  0
  6  8  1  0
  6  9  1  0
  4 10  1  0
 10 11  1  0
 11 12  1  0
 12 13  1  0
 12 14  1  0
 12 15  1  0
 15 16  1  0
 15 17  1  0
 17 18  2  0
 17 19  1  0
 19 20  2  0
 20 21  1  0
 20 22  1  0
 22 23  1  0
 23 24  2  0
 23 25  1  0
 25 26  1  0
 26 27  1  0
 26 28  1  0
 26 29  1  0
 29 30  2  0
 30 31  1  0
 30 32  1  0
 32 33  1  0
 32 34  2  0
 34 35  1  0
 34 36  1  0
 36 37  1  0
 36 38  2  0
 38 39  1  0
 22 40  2  0
 40 41  1  0
 40 42  1  0
 42 43  1  0
 43 44  2  0
 44 45  1  0
 44 46  1  0
 46 47  1  0
 46 48  2  0
 48 49  1  0
 49 50  1  0
 49 51  1  0
 49 52  1  0
 52 53  1  0
 53 54  1  0
 53 55  1  0
 53 56  1  0
 56 57  1  0
 56 58  1  0
 56 59  1  0
 59 60  1  0
 60 61  1  0
 60 62  1  0
 60 63  1  0
 63 64  1  0
 63 65  1  0
 48 66  1  0
 66 67  1  0
 66 68  2  0
 68 69  1  0
 42 70  2  0
 70 71  1  0
 11  2  2  0
 70 19  1  0
 38 29  1  0
 68 43  1  0
 63 52  1  0
M  CHG  2  10  -1  25  -1
M  END
>  <UniqueID>  (75) 
68

>  <SMILES>  (75) 
C/N=c1/[n-]c(CNC(=O)c2cc(C(=O)[N-]Cc3ccccc3)cc(-c3ccc(CN4CCOCC4)cc3)c2)cs1

>  <Energy>  (75) 
127.68457684177102

>  <Genealogy>  (75) 
CN=c1[n-]c(CNC(=O)c2cc(C(=O)[N-]Cc3ccccc3)cc(-c3ccc(CN4CCOCC4)cc3)c2)cs1 (protonated)
C/N=c1/[n-]c(CNC(=O)c2cc(C(=O)[N-]Cc3ccccc3)cc(-c3ccc(CN4CCOCC4)cc3)c2)cs1 (cis-trans isomerization)
C/N=c1/[n-]c(CNC(=O)c2cc(C(=O)[N-]Cc3ccccc3)cc(-c3ccc(CN4CCOCC4)cc3)c2)cs1 (3D coordinates assigned)
C/N=c1/[n-]c(CNC(=O)c2cc(C(=O)[N-]Cc3ccccc3)cc(-c3ccc(CN4CCOCC4)cc3)c2)cs1 (nonaromatic ring conformer: 127.68457684177102 kcal/mol)

>  <smiles>  (75) 
CN=c1[nH]c(CNC(=O)c2cc(C(=O)NCc3ccccc3)cc(-c3ccc(CN4CCOCC4)cc3)c2)cs1

>  <score_type>  (75) 
oracle

>  <origin>  (75) 
adg

>  <m_score__min__energy>  (75) 
-12.779999999999999

>  <m_primary>  (75) 
energy

$$$$
75:0
     RDKit          3D

 49 52  0  0  1  0  0  0  0  0999 V2000
   58.9200   30.0660   48.4010 C   0  0  0  0  0  0  0  0  0  0  0  0
   59.7680   28.9930   48.8910 N   0  0  0  0  0  0  0  0  0  0  0  0
   59.8840   27.7410   48.3670 C   0  0  0  0  0  0  0  0  0  0  0  0
   59.1350   27.3190   47.2020 C   0  0  0  0  0  0  0  0  0  0  0  0
   58.6740   26.0210   47.1540 C   0  0  0  0  0  0  0  0  0  0  0  0
   57.9640   25.6580   46.0280 C   0  0  0  0  0  0  0  0  0  0  0  0
   57.7390   26.5820   45.0010 C   0  0  0  0  0  0  0  0  0  0  0  0
   58.2010   27.8740   45.0550 C   0  0  0  0  0  0  0  0  0  0  0  0
   58.0080   28.8500   44.0550 N   0  0  0  0  0  0  0  0  0  0  0  0
   57.0780   29.8910   44.0640 C   0  0  0  0  0  0  0  0  0  0  0  0
   56.2730   30.0830   45.0000 O   0  0  0  0  0  0  0  0  0  0  0  0
   57.0030   30.8330   42.9350 C   0  0  0  0  0  0  0  0  0  0  0  0
   56.3450   30.5370   41.8890 O   0  0  0  0  0  0  0  0  0  0  0  0
   57.6480   32.0950   42.9490 N   0  0  0  0  0  0  0  0  0  0  0  0
   57.8180   32.7170   44.0210 C   0  0  0  0  0  0  0  0  0  0  0  0
   57.3890   33.8410   44.5590 N   0  0  0  0  0  0  0  0  0  0  0  0
   57.7790   34.2110   45.7430 C   0  0  0  0  0  0  0  0  0  0  0  0
   58.6450   33.4300   46.4460 C   0  0  0  0  0  0  0  0  0  0  0  0
   59.2220   33.6460   47.7990 C   0  0  0  0  0  0  0  0  0  0  0  0
   60.6990   33.5550   47.8100 C   0  0  0  0  0  0  0  0  0  0  0  0
   61.4160   33.8780   46.6590 C   0  0  0  0  0  0  0  0  0  0  0  0
   62.7840   33.7920   46.6690 C   0  0  0  0  0  0  0  0  0  0  0  0
   63.4470   33.3890   47.8120 C   0  0  0  0  0  0  0  0  0  0  0  0
   62.7170   33.0770   48.9310 C   0  0  0  0  0  0  0  0  0  0  0  0
   61.3440   33.1460   48.9750 C   0  0  0  0  0  0  0  0  0  0  0  0
   58.9610   32.0390   45.3720 S   0  0  0  0  0  0  0  0  0  0  0  0
   58.9110   28.2240   46.1900 C   0  0  0  0  0  0  0  0  0  0  0  0
   60.7740   27.0690   49.1220 N   0  0  0  0  0  0  0  0  0  0  0  0
   61.2120   27.8730   50.1030 N   0  0  0  0  0  0  0  0  0  0  0  0
   60.5800   29.0580   49.9440 C   0  0  0  0  0  0  0  0  0  0  0  0
   60.7640   30.3990   50.8910 S   0  0  0  0  0  0  0  0  0  0  0  0
   58.4891   30.6113   49.2537 H   0  0  0  0  0  0  0  0  0  0  0  0
   59.5191   30.7565   47.7892 H   0  0  0  0  0  0  0  0  0  0  0  0
   58.1098   29.6427   47.7892 H   0  0  0  0  0  0  0  0  0  0  0  0
   58.8626   25.3103   47.9721 H   0  0  0  0  0  0  0  0  0  0  0  0
   57.5717   24.6344   45.9367 H   0  0  0  0  0  0  0  0  0  0  0  0
   57.1699   26.2607   44.1162 H   0  0  0  0  0  0  0  0  0  0  0  0
   58.6380   28.7960   43.1950 H   0  0  0  0  0  0  0  0  0  0  0  0
   56.6960   34.4560   43.9820 H   0  0  0  0  0  0  0  0  0  0  0  0
   57.4102   35.1527   46.1757 H   0  0  0  0  0  0  0  0  0  0  0  0
   58.9282   34.6457   48.1516 H   0  0  0  0  0  0  0  0  0  0  0  0
   58.8349   32.8534   48.4562 H   0  0  0  0  0  0  0  0  0  0  0  0
   60.8878   34.1996   45.7493 H   0  0  0  0  0  0  0  0  0  0  0  0
   63.3558   34.0447   45.7639 H   0  0  0  0  0  0  0  0  0  0  0  0
   64.5447   33.3192   47.8248 H   0  0  0  0  0  0  0  0  0  0  0  0
   63.2550   32.7566   49.8354 H   0  0  0  0  0  0  0  0  0  0  0  0
   60.7826   32.8906   49.8858 H   0  0  0  0  0  0  0  0  0  0  0  0
   59.3044   29.2468   46.2852 H   0  0  0  0  0  0  0  0  0  0  0  0
   61.9080   27.6450   50.8540 H   0  0  0  0  0  0  0  0  0  0  0  0
  1  2  1  0
  2  3  1  0
  3  4  1  0
  4  5  2  0
  5  6  1  0
  6  7  2  0
  7  8  1  0
  8  9  1  0
  9 10  1  0
 10 11  2  0
 10 12  1  0
 12 13  2  0
 12 14  1  0
 14 15  2  0
 15 16  1  0
 16 17  1  0
 17 18  2  0
 18 19  1  0
 19 20  1  0
 20 21  2  0
 21 22  1  0
 22 23  2  0
 23 24  1  0
 24 25  2  0
 18 26  1  0
  8 27  2  0
  3 28  2  0
 28 29  1  0
 29 30  1  0
 30 31  2  0
 30  2  1  0
 27  4  1  0
 26 15  1  0
 25 20  1  0
  1 32  1  0
  1 33  1  0
  1 34  1  0
  5 35  1  0
  6 36  1  0
  7 37  1  0
  9 38  1  0
 16 39  1  0
 17 40  1  0
 19 41  1  0
 19 42  1  0
 21 43  1  0
 22 44  1  0
 23 45  1  0
 24 46  1  0
 25 47  1  0
 27 48  1  0
 29 49  1  0
M  END
>  <smiles>  (76) 
Cn1c(-c2cccc(NC(=O)C(=O)N=c3[nH]cc(Cc4ccccc4)s3)c2)n[nH]c1=S

>  <score_type>  (76) 
oracle

>  <origin>  (76) 
adg

>  <m_score__min__energy>  (76) 
-10.59

>  <m_primary>  (76) 
energy

$$$$
76:0
     RDKit          3D

 56 59  0  0  0  0  0  0  0  0999 V2000
   58.1220   30.2140   43.9460 C   0  0  0  0  0  0  0  0  0  0  0  0
   58.2100   29.8000   45.2200 C   0  0  0  0  0  0  0  0  0  0  0  0
   57.9680   28.5070   45.7140 C   0  0  0  0  0  0  0  0  0  0  0  0
   57.4400   27.4160   45.1230 C   0  0  0  0  0  0  0  0  0  0  0  0
   57.1430   26.1340   45.7930 C   0  0  0  0  0  0  0  0  0  0  0  0
   55.8420   25.8220   46.2250 C   0  0  0  0  0  0  0  0  0  0  0  0
   54.7880   26.6990   46.0000 O   0  0  0  0  0  0  0  0  0  0  0  0
   55.6070   24.6530   46.8760 N   0  0  0  0  0  0  0  0  0  0  0  0
   56.6150   23.7820   47.1360 C   0  0  0  0  0  0  0  0  0  0  0  0
   56.3740   22.7020   47.7350 O   0  0  0  0  0  0  0  0  0  0  0  0
   57.8850   24.0760   46.7550 N   0  0  0  0  0  0  0  0  0  0  0  0
   58.1720   25.2310   46.1000 C   0  0  0  0  0  0  0  0  0  0  0  0
   59.3620   25.4760   45.7680 O   0  0  0  0  0  0  0  0  0  0  0  0
   58.3760   28.5150   47.0380 C   0  0  0  0  0  0  0  0  0  0  0  0
   58.7880   29.8000   47.3220 C   0  0  0  0  0  0  0  0  0  0  0  0
   59.2920   30.2550   48.6590 C   0  0  0  0  0  0  0  0  0  0  0  0
   58.6920   30.5790   46.2230 N   0  0  0  0  0  0  0  0  0  0  0  0
   59.0410   31.9740   46.1510 C   0  0  0  0  0  0  0  0  0  0  0  0
   58.1090   32.9140   45.6900 C   0  0  0  0  0  0  0  0  0  0  0  0
   58.4490   34.2670   45.6290 C   0  0  0  0  0  0  0  0  0  0  0  0
   59.7240   34.6890   46.0150 C   0  0  0  0  0  0  0  0  0  0  0  0
   60.6760   33.7570   46.4540 C   0  0  0  0  0  0  0  0  0  0  0  0
   61.9750   34.2150   46.8710 N   0  0  0  0  0  0  0  0  0  0  0  0
   62.6940   33.6920   48.0010 C   0  0  0  0  0  0  0  0  0  0  0  0
   64.0880   33.5110   47.9580 C   0  0  0  0  0  0  0  0  0  0  0  0
   64.7700   33.0280   49.0770 C   0  0  0  0  0  0  0  0  0  0  0  0
   64.0730   32.7340   50.2510 C   0  0  0  0  0  0  0  0  0  0  0  0
   62.6870   32.9260   50.3130 C   0  0  0  0  0  0  0  0  0  0  0  0
   61.8220   32.5770   51.8060 S   0  0  0  0  0  0  0  0  0  0  0  0
   62.5200   31.4980   52.5860 O   0  0  0  0  0  0  0  0  0  0  0  0
   61.7750   33.8200   52.6490 O   0  0  0  0  0  0  0  0  0  0  0  0
   60.2060   32.0750   51.4400 N   0  0  0  0  0  0  0  0  0  0  0  0
   59.1950   32.9910   51.0160 C   0  0  0  0  0  0  0  0  0  0  0  0
   58.5120   33.8590   52.0180 C   0  0  0  0  0  0  0  0  0  0  0  0
   58.8810   33.0800   49.7990 O   0  0  0  0  0  0  0  0  0  0  0  0
   62.0030   33.4170   49.1910 C   0  0  0  0  0  0  0  0  0  0  0  0
   60.3200   32.3990   46.5380 C   0  0  0  0  0  0  0  0  0  0  0  0
   58.3398   31.2619   43.6919 H   0  0  0  0  0  0  0  0  0  0  0  0
   57.8321   29.5054   43.1562 H   0  0  0  0  0  0  0  0  0  0  0  0
   57.2108   27.4871   44.0495 H   0  0  0  0  0  0  0  0  0  0  0  0
   58.3720   27.6600   47.7301 H   0  0  0  0  0  0  0  0  0  0  0  0
   58.7289   29.7466   49.4555 H   0  0  0  0  0  0  0  0  0  0  0  0
   60.3603   30.0094   48.7511 H   0  0  0  0  0  0  0  0  0  0  0  0
   59.1566   31.3427   48.7511 H   0  0  0  0  0  0  0  0  0  0  0  0
   57.1075   32.5851   45.3756 H   0  0  0  0  0  0  0  0  0  0  0  0
   57.7112   35.0026   45.2761 H   0  0  0  0  0  0  0  0  0  0  0  0
   59.9824   35.7574   45.9744 H   0  0  0  0  0  0  0  0  0  0  0  0
   62.4220   34.9830   46.3200 H   0  0  0  0  0  0  0  0  0  0  0  0
   64.6434   33.7508   47.0393 H   0  0  0  0  0  0  0  0  0  0  0  0
   65.8590   32.8788   49.0336 H   0  0  0  0  0  0  0  0  0  0  0  0
   64.6138   32.3508   51.1289 H   0  0  0  0  0  0  0  0  0  0  0  0
   58.7750   33.5248   53.0325 H   0  0  0  0  0  0  0  0  0  0  0  0
   58.8344   34.9016   51.8803 H   0  0  0  0  0  0  0  0  0  0  0  0
   57.4228   33.7908   51.8803 H   0  0  0  0  0  0  0  0  0  0  0  0
   60.9176   33.5876   49.2444 H   0  0  0  0  0  0  0  0  0  0  0  0
   61.0501   31.6651   46.9099 H   0  0  0  0  0  0  0  0  0  0  0  0
  1  2  2  0
  2  3  1  0
  3  4  2  3
  4  5  1  0
  5  6  2  0
  6  7  1  0
  6  8  1  0
  8  9  1  0
  9 10  2  0
  9 11  1  0
 11 12  1  0
 12 13  2  0
  3 14  1  0
 14 15  2  0
 15 16  1  0
 15 17  1  0
 17 18  1  0
 18 19  2  0
 19 20  1  0
 20 21  2  0
 21 22  1  0
 22 23  1  0
 23 24  1  0
 24 25  2  0
 25 26  1  0
 26 27  2  0
 27 28  1  0
 28 29  1  0
 29 30  2  0
 29 31  2  0
 29 32  1  0
 32 33  1  0
 33 34  1  0
 33 35  2  0
 28 36  2  0
 22 37  2  0
 17  2  1  0
 37 18  1  0
 12  5  1  0
 36 24  1  0
  1 38  1  0
  1 39  1  0
  4 40  1  0
 14 41  1  0
 16 42  1  0
 16 43  1  0
 16 44  1  0
 19 45  1  0
 20 46  1  0
 21 47  1  0
 23 48  1  0
 25 49  1  0
 26 50  1  0
 27 51  1  0
 34 52  1  0
 34 53  1  0
 34 54  1  0
 36 55  1  0
 37 56  1  0
M  CHG  4   7  -1   8  -1  11  -1  32  -1
M  END
>  <UniqueID>  (77) 
69

>  <SMILES>  (77) 
C=c1c(=Cc2c([O-])[n-]c(=O)[n-]c2=O)cc(C)n1-c1cccc(Nc2cccc(S(=O)(=O)[N-]C(C)=O)c2)c1

>  <Energy>  (77) 
114.59071428762752

>  <Genealogy>  (77) 
C=c1c(=Cc2c([O-])[n-]c(=O)[n-]c2=O)cc(C)n1-c1cccc(Nc2cccc(S(=O)(=O)[N-]C(C)=O)c2)c1 (protonated)
C=c1c(=Cc2c([O-])[n-]c(=O)[n-]c2=O)cc(C)n1-c1cccc(Nc2cccc(S(=O)(=O)[N-]C(C)=O)c2)c1 (3D coordinates assigned)
C=c1c(=Cc2c([O-])[n-]c(=O)[n-]c2=O)cc(C)n1-c1cccc(Nc2cccc(S(=O)(=O)[N-]C(C)=O)c2)c1 (optimized conformer: 114.59071428762752 kcal/mol)

>  <smiles>  (77) 
C=c1c(=Cc2c(O)[nH]c(=O)[nH]c2=O)cc(C)n1-c1cccc(Nc2cccc(S(=O)(=O)NC(C)=O)c2)c1

>  <score_type>  (77) 
oracle

>  <origin>  (77) 
adg

>  <m_score__min__energy>  (77) 
-20.140000000000001

>  <m_primary>  (77) 
energy

$$$$
77:0
     RDKit          3D

 30 32  0  0  0  0  0  0  0  0999 V2000
   57.9734   26.5869   43.8930 H   0  0  0  0  0  0  0  0  0  0  0  0
   57.6580   26.9370   44.8870 C   0  0  0  0  0  0  0  0  0  0  0  0
   57.1260   25.9260   45.8140 C   0  0  0  0  0  0  0  0  0  0  0  0
   57.8200   24.8460   46.2130 N   0  0  0  0  0  0  0  0  0  0  0  0
   56.9190   24.1450   46.9350 C   0  0  0  0  0  0  0  0  0  0  0  0
   57.2030   23.0560   47.4990 O   0  0  0  0  0  0  0  0  0  0  0  0
   55.6880   24.6960   46.9950 N   0  0  0  0  0  0  0  0  0  0  0  0
   55.8310   25.8150   46.2680 C   0  0  0  0  0  0  0  0  0  0  0  0
   54.7940   26.7000   46.0010 O   0  0  0  0  0  0  0  0  0  0  0  0
   57.7940   28.2510   45.1440 C   0  0  0  0  0  0  0  0  0  0  0  0
   56.9150   29.4110   44.2900 S   0  0  0  0  0  0  0  0  0  0  0  0
   57.5050   30.7040   45.1890 C   0  0  0  0  0  0  0  0  0  0  0  0
   57.2320   31.9630   45.0030 N   0  0  0  0  0  0  0  0  0  0  0  0
   57.9580   33.0830   45.5360 C   0  0  0  0  0  0  0  0  0  0  0  0
   58.5500   33.9900   44.6470 C   0  0  0  0  0  0  0  0  0  0  0  0
   58.4263   33.8531   43.5626 H   0  0  0  0  0  0  0  0  0  0  0  0
   59.2970   35.0680   45.1310 C   0  0  0  0  0  0  0  0  0  0  0  0
   59.7450   35.7860   44.4283 H   0  0  0  0  0  0  0  0  0  0  0  0
   59.4750   35.2340   46.5080 C   0  0  0  0  0  0  0  0  0  0  0  0
   60.0548   36.0877   46.8889 H   0  0  0  0  0  0  0  0  0  0  0  0
   58.9160   34.3150   47.4000 C   0  0  0  0  0  0  0  0  0  0  0  0
   59.0639   34.4407   48.4827 H   0  0  0  0  0  0  0  0  0  0  0  0
   58.1690   33.2360   46.9180 C   0  0  0  0  0  0  0  0  0  0  0  0
   57.7451   32.5046   47.6218 H   0  0  0  0  0  0  0  0  0  0  0  0
   58.3960   30.2870   46.1110 N   0  0  0  0  0  0  0  0  0  0  0  0
   58.9140   30.9470   46.7360 H   0  0  0  0  0  0  0  0  0  0  0  0
   58.5970   28.9360   46.0900 C   0  0  0  0  0  0  0  0  0  0  0  0
   59.5680   28.3920   46.8350 C   0  0  0  0  0  0  0  0  0  0  0  0
   59.7300   27.3041   46.8182 H   0  0  0  0  0  0  0  0  0  0  0  0
   60.2035   29.0331   47.4636 H   0  0  0  0  0  0  0  0  0  0  0  0
  1  2  1  0
  2  3  1  0
  3  4  1  0
  4  5  1  0
  5  6  2  0
  5  7  1  0
  7  8  1  0
  8  9  1  0
  2 10  2  3
 10 11  1  0
 11 12  1  0
 12 13  2  0
 13 14  1  0
 14 15  2  0
 15 16  1  0
 15 17  1  0
 17 18  1  0
 17 19  2  0
 19 20  1  0
 19 21  1  0
 21 22  1  0
 21 23  2  0
 23 24  1  0
 12 25  1  0
 25 26  1  0
 25 27  1  0
 27 28  2  0
 28 29  1  0
 28 30  1  0
  8  3  2  0
 27 10  1  0
 23 14  1  0
M  CHG  3   4  -1   7  -1   9  -1
M  END
>  <UniqueID>  (78) 
70

>  <SMILES>  (78) 
C=c1[nH]/c(=N/c2ccccc2)sc1=Cc1[n-]c(=O)[n-]c1[O-]

>  <Energy>  (78) 
113.12682000064649

>  <Genealogy>  (78) 
C=c1[nH]c(=Nc2ccccc2)sc1=Cc1[n-]c(=O)[n-]c1[O-] (protonated)
C=c1[nH]/c(=N/c2ccccc2)sc1=Cc1[n-]c(=O)[n-]c1[O-] (cis-trans isomerization)
C=c1[nH]/c(=N/c2ccccc2)sc1=Cc1[n-]c(=O)[n-]c1[O-] (3D coordinates assigned)
C=c1[nH]/c(=N/c2ccccc2)sc1=Cc1[n-]c(=O)[n-]c1[O-] (optimized conformer: 113.12682000064649 kcal/mol)

>  <smiles>  (78) 
C=c1[nH]c(=Nc2ccccc2)sc1=Cc1[nH]c(=O)[nH]c1O

>  <score_type>  (78) 
oracle

>  <origin>  (78) 
adg

>  <m_score__min__energy>  (78) 
-16.059999999999999

>  <m_primary>  (78) 
energy

$$$$
78:0
     RDKit          3D

 54 58  0  0  0  0  0  0  0  0999 V2000
   60.5690   28.4881   47.4749 H   0  0  0  0  0  0  0  0  0  0  0  0
   59.8430   27.9960   46.8110 C   0  0  0  0  0  0  0  0  0  0  0  0
   59.8360   26.8998   46.7200 H   0  0  0  0  0  0  0  0  0  0  0  0
   58.9670   28.7320   46.1130 C   0  0  0  0  0  0  0  0  0  0  0  0
   57.9890   28.2540   45.2330 C   0  0  0  0  0  0  0  0  0  0  0  0
   57.7180   26.9680   44.9360 C   0  0  0  0  0  0  0  0  0  0  0  0
   57.9114   26.6231   43.9095 H   0  0  0  0  0  0  0  0  0  0  0  0
   57.1780   25.9950   45.9030 C   0  0  0  0  0  0  0  0  0  0  0  0
   57.8830   24.9490   46.3680 N   0  0  0  0  0  0  0  0  0  0  0  0
   56.9860   24.2670   47.1110 C   0  0  0  0  0  0  0  0  0  0  0  0
   57.2770   23.2040   47.7220 O   0  0  0  0  0  0  0  0  0  0  0  0
   55.7460   24.7970   47.1230 N   0  0  0  0  0  0  0  0  0  0  0  0
   55.8790   25.8830   46.3450 C   0  0  0  0  0  0  0  0  0  0  0  0
   54.8220   26.7140   46.0000 O   0  0  0  0  0  0  0  0  0  0  0  0
   57.3100   29.3710   44.7630 C   0  0  0  0  0  0  0  0  0  0  0  0
   56.4629   29.3773   44.0612 H   0  0  0  0  0  0  0  0  0  0  0  0
   57.9050   30.4730   45.3480 C   0  0  0  0  0  0  0  0  0  0  0  0
   57.4270   31.8850   45.1940 C   0  0  0  0  0  0  0  0  0  0  0  0
   57.2759   32.3314   46.1879 H   0  0  0  0  0  0  0  0  0  0  0  0
   58.1779   32.4680   44.6405 H   0  0  0  0  0  0  0  0  0  0  0  0
   56.4764   31.8920   44.6405 H   0  0  0  0  0  0  0  0  0  0  0  0
   58.9070   30.0850   46.1660 N   0  0  0  0  0  0  0  0  0  0  0  0
   59.7200   30.9520   46.9700 C   0  0  0  0  0  0  0  0  0  0  0  0
   61.0970   31.0410   46.7370 C   0  0  0  0  0  0  0  0  0  0  0  0
   61.5523   30.4681   45.9157 H   0  0  0  0  0  0  0  0  0  0  0  0
   61.8950   31.8550   47.5440 C   0  0  0  0  0  0  0  0  0  0  0  0
   62.9741   31.9344   47.3459 H   0  0  0  0  0  0  0  0  0  0  0  0
   61.3240   32.5720   48.6070 C   0  0  0  0  0  0  0  0  0  0  0  0
   62.1790   33.3940   49.4850 C   0  0  0  0  0  0  0  0  0  0  0  0
   61.8760   34.6050   49.6690 O   0  0  0  0  0  0  0  0  0  0  0  0
   63.3620   32.8470   50.1040 N   0  0  0  0  0  0  0  0  0  0  0  0
   63.2260   31.7770   51.1110 C   0  0  0  0  0  0  0  0  0  0  0  0
   62.9292   32.2260   52.0703 H   0  0  0  0  0  0  0  0  0  0  0  0
   62.4648   31.0667   50.7559 H   0  0  0  0  0  0  0  0  0  0  0  0
   64.5390   31.0120   51.3060 C   0  0  0  0  0  0  0  0  0  0  0  0
   64.4291   30.3034   52.1401 H   0  0  0  0  0  0  0  0  0  0  0  0
   64.7811   30.4625   50.3844 H   0  0  0  0  0  0  0  0  0  0  0  0
   65.6730   32.0020   51.6220 C   0  0  1  0  0  0  0  0  0  0  0  0
   65.4645   32.1629   52.6900 H   0  0  0  0  0  0  0  0  0  0  0  0
   67.0610   31.5460   51.1740 C   0  0  0  0  0  0  0  0  0  0  0  0
   67.8191   31.5677   51.9707 H   0  0  0  0  0  0  0  0  0  0  0  0
   67.2186   30.5192   50.8122 H   0  0  0  0  0  0  0  0  0  0  0  0
   67.1400   32.7250   50.2070 C   0  0  0  0  0  0  0  0  0  0  0  0
   67.9435   33.4403   50.4368 H   0  0  0  0  0  0  0  0  0  0  0  0
   67.3568   32.5559   49.1419 H   0  0  0  0  0  0  0  0  0  0  0  0
   65.7500   33.1860   50.6480 C   0  0  1  0  0  0  0  0  0  0  0  0
   65.5927   34.2155   51.0022 H   0  0  0  0  0  0  0  0  0  0  0  0
   64.6830   33.1570   49.5350 C   0  0  0  0  0  0  0  0  0  0  0  0
   64.6448   34.1400   49.0428 H   0  0  0  0  0  0  0  0  0  0  0  0
   64.9494   32.3801   48.8032 H   0  0  0  0  0  0  0  0  0  0  0  0
   59.9380   32.5010   48.8230 C   0  0  0  0  0  0  0  0  0  0  0  0
   59.4792   33.0821   49.6366 H   0  0  0  0  0  0  0  0  0  0  0  0
   59.1410   31.6950   48.0080 C   0  0  0  0  0  0  0  0  0  0  0  0
   58.0559   31.6429   48.1809 H   0  0  0  0  0  0  0  0  0  0  0  0
  1  2  1  0
  2  3  1  0
  2  4  2  0
  4  5  1  0
  5  6  2  0
  6  7  1  0
  6  8  1  0
  8  9  1  0
  9 10  1  0
 10 11  2  0
 10 12  1  0
 12 13  1  0
 13 14  1  0
  5 15  1  0
 15 16  1  0
 15 17  2  0
 17 18  1  0
 18 19  1  0
 18 20  1  0
 18 21  1  0
 17 22  1  0
 22 23  1  0
 23 24  2  0
 24 25  1  0
 24 26  1  0
 26 27  1  0
 26 28  2  0
 28 29  1  0
 29 30  2  0
 29 31  1  0
 31 32  1  0
 32 33  1  0
 32 34  1  0
 32 35  1  0
 35 36  1  0
 35 37  1  0
 35 38  1  0
 38 39  1  1
 38 40  1  0
 40 41  1  0
 40 42  1  0
 40 43  1  0
 43 44  1  0
 43 45  1  0
 43 46  1  0
 46 47  1  1
 46 48  1  0
 48 49  1  0
 48 50  1  0
 28 51  1  0
 51 52  1  0
 51 53  2  0
 53 54  1  0
 22  4  1  0
 53 23  1  0
 13  8  2  0
 48 31  1  0
 46 38  1  0
M  CHG  3   9  -1  12  -1  14  -1
M  END
>  <UniqueID>  (79) 
71

>  <SMILES>  (79) 
C=c1/c(=C/c2[n-]c(=O)[n-]c2[O-])cc(C)n1-c1ccc(C(=O)N2CC[C@H]3CC[C@H]3C2)cc1

>  <Energy>  (79) 
197.1817299328596

>  <Genealogy>  (79) 
C=c1c(=Cc2[n-]c(=O)[n-]c2[O-])cc(C)n1-c1ccc(C(=O)N2CCC3CCC3C2)cc1 (protonated)
C=c1c(=Cc2[n-]c(=O)[n-]c2[O-])cc(C)n1-c1ccc(C(=O)N2CC[C@H]3CC[C@H]3C2)cc1 (chirality)
C=c1/c(=C/c2[n-]c(=O)[n-]c2[O-])cc(C)n1-c1ccc(C(=O)N2CC[C@H]3CC[C@H]3C2)cc1 (cis-trans isomerization)
C=c1/c(=C/c2[n-]c(=O)[n-]c2[O-])cc(C)n1-c1ccc(C(=O)N2CC[C@H]3CC[C@H]3C2)cc1 (3D coordinates assigned)
C=c1/c(=C/c2[n-]c(=O)[n-]c2[O-])cc(C)n1-c1ccc(C(=O)N2CC[C@H]3CC[C@H]3C2)cc1 (nonaromatic ring conformer: 197.1817299328596 kcal/mol)

>  <smiles>  (79) 
C=c1c(=Cc2[nH]c(=O)[nH]c2O)cc(C)n1-c1ccc(C(=O)N2CCC3CCC3C2)cc1

>  <score_type>  (79) 
oracle

>  <origin>  (79) 
adg

>  <m_score__min__energy>  (79) 
-16.91

>  <m_primary>  (79) 
energy

$$$$
79:0
     RDKit          3D

 37 38  0  0  0  0  0  0  0  0999 V2000
   55.8510   31.2290   44.5080 O   0  0  0  0  0  0  0  0  0  0  0  0
   57.0240   30.9190   44.8450 C   0  0  0  0  0  0  0  0  0  0  0  0
   58.1070   31.9630   44.8580 C   0  0  0  0  0  0  0  0  0  0  0  0
   57.6570   33.1670   45.5440 N   0  0  0  0  0  0  0  0  0  0  0  0
   58.5090   33.9340   46.4000 C   0  0  0  0  0  0  0  0  0  0  0  0
   59.0020   35.0220   46.0010 O   0  0  0  0  0  0  0  0  0  0  0  0
   58.8570   33.4110   47.7580 C   0  0  0  0  0  0  0  0  0  0  0  0
   60.3510   33.3320   47.9120 C   0  0  0  0  0  0  0  0  0  0  0  0
   61.0930   32.4100   47.1570 C   0  0  0  0  0  0  0  0  0  0  0  0
   62.4850   32.3590   47.2760 C   0  0  0  0  0  0  0  0  0  0  0  0
   63.1490   33.2340   48.1420 C   0  0  0  0  0  0  0  0  0  0  0  0
   64.5370   33.1720   48.2540 O   0  0  0  0  0  0  0  0  0  0  0  0
   62.4140   34.1670   48.8870 C   0  0  0  0  0  0  0  0  0  0  0  0
   61.0220   34.2190   48.7690 C   0  0  0  0  0  0  0  0  0  0  0  0
   57.2930   29.5700   45.2410 N   0  0  0  0  0  0  0  0  0  0  0  0
   56.3290   28.4820   45.1370 C   0  0  0  0  0  0  0  0  0  0  0  0
   56.7860   27.3280   45.9860 C   0  0  0  0  0  0  0  0  0  0  0  0
   58.1280   27.2330   46.3840 C   0  0  0  0  0  0  0  0  0  0  0  0
   58.5560   26.1440   47.1460 C   0  0  0  0  0  0  0  0  0  0  0  0
   57.6400   25.1510   47.4950 C   0  0  0  0  0  0  0  0  0  0  0  0
   56.3470   25.2450   47.0890 N   0  0  0  0  0  0  0  0  0  0  0  0
   55.9020   26.2950   46.3470 C   0  0  0  0  0  0  0  0  0  0  0  0
   54.5700   26.3300   45.9480 O   0  0  0  0  0  0  0  0  0  0  0  0
   58.9895   31.5607   45.3771 H   0  0  0  0  0  0  0  0  0  0  0  0
   58.3590   32.2225   43.8192 H   0  0  0  0  0  0  0  0  0  0  0  0
   58.4471   34.0856   48.5241 H   0  0  0  0  0  0  0  0  0  0  0  0
   58.4281   32.4052   47.8782 H   0  0  0  0  0  0  0  0  0  0  0  0
   60.5768   31.7246   46.4687 H   0  0  0  0  0  0  0  0  0  0  0  0
   63.0596   31.6289   46.6871 H   0  0  0  0  0  0  0  0  0  0  0  0
   65.1150   32.8390   47.4910 H   0  0  0  0  0  0  0  0  0  0  0  0
   62.9336   34.8594   49.5656 H   0  0  0  0  0  0  0  0  0  0  0  0
   60.4501   34.9577   49.3498 H   0  0  0  0  0  0  0  0  0  0  0  0
   55.3453   28.8283   45.4869 H   0  0  0  0  0  0  0  0  0  0  0  0
   56.2508   28.1589   44.0884 H   0  0  0  0  0  0  0  0  0  0  0  0
   58.8436   28.0170   46.0955 H   0  0  0  0  0  0  0  0  0  0  0  0
   59.6052   26.0697   47.4680 H   0  0  0  0  0  0  0  0  0  0  0  0
   57.9651   24.2913   48.0994 H   0  0  0  0  0  0  0  0  0  0  0  0
  1  2  2  0
  2  3  1  0
  3  4  1  0
  4  5  1  0
  5  6  2  0
  5  7  1  0
  7  8  1  0
  8  9  2  0
  9 10  1  0
 10 11  2  0
 11 12  1  0
 11 13  1  0
 13 14  2  0
  2 15  1  0
 15 16  1  0
 16 17  1  0
 17 18  2  0
 18 19  1  0
 19 20  2  0
 20 21  1  0
 21 22  2  0
 22 23  1  0
 14  8  1  0
 22 17  1  0
  3 24  1  0
  3 25  1  0
  7 26  1  0
  7 27  1  0
  9 28  1  0
 10 29  1  0
 12 30  1  0
 13 31  1  0
 14 32  1  0
 16 33  1  0
 16 34  1  0
 18 35  1  0
 19 36  1  0
 20 37  1  0
M  CHG  3   4  -1  15  -1  23  -1
M  END
>  <UniqueID>  (80) 
72

>  <SMILES>  (80) 
O=C(C[N-]C(=O)Cc1ccc(O)cc1)[N-]Cc1cccnc1[O-]

>  <Energy>  (80) 
31.381226901832804

>  <Genealogy>  (80) 
O=C(C[N-]C(=O)Cc1ccc(O)cc1)[N-]Cc1cccnc1[O-] (protonated)
O=C(C[N-]C(=O)Cc1ccc(O)cc1)[N-]Cc1cccnc1[O-] (3D coordinates assigned)
O=C(C[N-]C(=O)Cc1ccc(O)cc1)[N-]Cc1cccnc1[O-] (optimized conformer: 31.381226901832804 kcal/mol)

>  <smiles>  (80) 
O=C(CNC(=O)Cc1ccc(O)cc1)NCc1cccnc1O

>  <score_type>  (80) 
oracle

>  <origin>  (80) 
adg

>  <m_score__min__energy>  (80) 
-13.99

>  <m_primary>  (80) 
energy

$$$$
80:0
     RDKit          3D

 29 30  0  0  0  0  0  0  0  0999 V2000
   56.2970   27.2200   44.7690 H   0  0  0  0  0  0  0  0  0  0  0  0
   57.1600   27.6530   44.4610 O   0  0  0  0  0  0  0  0  0  0  0  0
   57.8800   28.5320   45.2700 C   0  0  0  0  0  0  0  0  0  0  0  0
   57.4310   29.8500   45.4720 C   0  0  0  0  0  0  0  0  0  0  0  0
   56.2610   30.2960   44.8690 O   0  0  0  0  0  0  0  0  0  0  0  0
   58.1600   30.7230   46.2860 C   0  0  0  0  0  0  0  0  0  0  0  0
   57.8009   31.7498   46.4496 H   0  0  0  0  0  0  0  0  0  0  0  0
   59.3420   30.2940   46.8910 C   0  0  0  0  0  0  0  0  0  0  0  0
   59.9164   30.9853   47.5251 H   0  0  0  0  0  0  0  0  0  0  0  0
   59.7970   28.9890   46.6930 C   0  0  0  0  0  0  0  0  0  0  0  0
   60.7383   28.6611   47.1582 H   0  0  0  0  0  0  0  0  0  0  0  0
   59.0580   28.0920   45.9020 C   0  0  0  0  0  0  0  0  0  0  0  0
   59.5330   26.7070   45.6980 C   0  0  0  0  0  0  0  0  0  0  0  0
   60.5780   26.5680   45.3838 H   0  0  0  0  0  0  0  0  0  0  0  0
   58.7830   25.6060   45.8680 C   0  0  0  0  0  0  0  0  0  0  0  0
   59.0742   24.7053   45.3077 H   0  0  0  0  0  0  0  0  0  0  0  0
   57.5960   25.5050   46.7480 C   0  0  0  0  0  0  0  0  0  0  0  0
   57.6270   26.0990   47.8590 O   0  0  0  0  0  0  0  0  0  0  0  0
   56.4010   24.6960   46.3990 C   0  0  0  0  0  0  0  0  0  0  0  0
   56.4240   23.2880   46.4990 C   0  0  0  0  0  0  0  0  0  0  0  0
   57.5480   22.6250   46.9800 O   0  0  0  0  0  0  0  0  0  0  0  0
   55.3040   22.5390   46.1240 C   0  0  0  0  0  0  0  0  0  0  0  0
   55.3335   21.4413   46.1880 H   0  0  0  0  0  0  0  0  0  0  0  0
   54.1490   23.1770   45.6690 C   0  0  0  0  0  0  0  0  0  0  0  0
   53.0410   22.4280   45.2960 O   0  0  0  0  0  0  0  0  0  0  0  0
   54.1060   24.5710   45.5930 C   0  0  0  0  0  0  0  0  0  0  0  0
   53.1908   25.0726   45.2455 H   0  0  0  0  0  0  0  0  0  0  0  0
   55.2220   25.3320   45.9570 C   0  0  0  0  0  0  0  0  0  0  0  0
   55.1590   26.7180   45.8520 O   0  0  0  0  0  0  0  0  0  0  0  0
  1  2  1  0
  2  3  1  0
  3  4  2  0
  4  5  1  0
  4  6  1  0
  6  7  1  0
  6  8  2  0
  8  9  1  0
  8 10  1  0
 10 11  1  0
 10 12  2  0
 12 13  1  0
 13 14  1  0
 13 15  2  0
 15 16  1  0
 15 17  1  0
 17 18  2  0
 17 19  1  0
 19 20  2  0
 20 21  1  0
 20 22  1  0
 22 23  1  0
 22 24  2  0
 24 25  1  0
 24 26  1  0
 26 27  1  0
 26 28  2  0
 28 29  1  0
 12  3  1  0
 28 19  1  0
M  CHG  4   5  -1  21  -1  25  -1  29  -1
M  END
>  <UniqueID>  (81) 
73

>  <SMILES>  (81) 
O=C(/C=C\c1cccc([O-])c1O)c1c([O-])cc([O-])cc1[O-]

>  <Energy>  (81) 
43.397653539041315

>  <Genealogy>  (81) 
O=C(C=Cc1cccc([O-])c1O)c1c([O-])cc([O-])cc1[O-] (protonated)
O=C(/C=C\c1cccc([O-])c1O)c1c([O-])cc([O-])cc1[O-] (cis-trans isomerization)
O=C(/C=C\c1cccc([O-])c1O)c1c([O-])cc([O-])cc1[O-] (3D coordinates assigned)
O=C(/C=C\c1cccc([O-])c1O)c1c([O-])cc([O-])cc1[O-] (optimized conformer: 43.397653539041315 kcal/mol)

>  <smiles>  (81) 
O=C(C=Cc1cccc(O)c1O)c1c(O)cc(O)cc1O

>  <score_type>  (81) 
oracle

>  <origin>  (81) 
adg

>  <m_score__min__energy>  (81) 
-15.619999999999999

>  <m_primary>  (81) 
energy

$$$$
81:0
     RDKit          3D

 37 39  0  0  1  0  0  0  0  0999 V2000
   56.2750   29.7150   43.0890 C   0  0  0  0  0  0  0  0  0  0  0  0
   57.0810   29.7250   44.3280 C   0  0  0  0  0  0  0  0  0  0  0  0
   58.4610   29.7440   44.3390 C   0  0  0  0  0  0  0  0  0  0  0  0
   58.8080   29.7490   45.6770 C   0  0  0  0  0  0  0  0  0  0  0  0
   60.0010   29.7650   46.1120 N   0  0  0  0  0  0  0  0  0  0  0  0
   60.5120   30.3780   47.6410 S   0  0  0  0  0  0  0  0  0  0  0  0
   59.3390   30.6800   48.5330 O   0  0  0  0  0  0  0  0  0  0  0  0
   61.2610   29.2910   48.3320 O   0  0  0  0  0  0  0  0  0  0  0  0
   61.5280   31.7450   47.4100 C   0  0  0  0  0  0  0  0  0  0  0  0
   62.8850   31.6060   47.7250 C   0  0  0  0  0  0  0  0  0  0  0  0
   63.7770   32.6480   47.6040 C   0  0  0  0  0  0  0  0  0  0  0  0
   63.3050   33.8610   47.1570 C   0  0  0  0  0  0  0  0  0  0  0  0
   61.9720   34.0060   46.8440 C   0  0  0  0  0  0  0  0  0  0  0  0
   61.0590   32.9540   46.9630 C   0  0  0  0  0  0  0  0  0  0  0  0
   59.7010   33.2300   46.5730 C   0  0  0  0  0  0  0  0  0  0  0  0
   58.5940   33.1570   47.3760 C   0  0  0  0  0  0  0  0  0  0  0  0
   57.3120   33.4690   46.9350 C   0  0  0  0  0  0  0  0  0  0  0  0
   57.1360   33.8750   45.6170 C   0  0  0  0  0  0  0  0  0  0  0  0
   58.2450   33.9600   44.7720 C   0  0  0  0  0  0  0  0  0  0  0  0
   59.4990   33.6410   45.2490 C   0  0  0  0  0  0  0  0  0  0  0  0
   57.6980   29.7340   46.4250 N   0  0  0  0  0  0  0  0  0  0  0  0
   56.6480   29.7190   45.6210 N   0  0  0  0  0  0  0  0  0  0  0  0
   55.2058   29.7017   43.3472 H   0  0  0  0  0  0  0  0  0  0  0  0
   56.4985   30.6160   42.4989 H   0  0  0  0  0  0  0  0  0  0  0  0
   56.5208   28.8198   42.4989 H   0  0  0  0  0  0  0  0  0  0  0  0
   59.1375   29.7532   43.4717 H   0  0  0  0  0  0  0  0  0  0  0  0
   63.2509   30.6317   48.0811 H   0  0  0  0  0  0  0  0  0  0  0  0
   64.8389   32.5144   47.8579 H   0  0  0  0  0  0  0  0  0  0  0  0
   63.9918   34.7136   47.0499 H   0  0  0  0  0  0  0  0  0  0  0  0
   61.6132   34.9830   46.4881 H   0  0  0  0  0  0  0  0  0  0  0  0
   58.7248   32.8362   48.4200 H   0  0  0  0  0  0  0  0  0  0  0  0
   56.4523   33.3957   47.6174 H   0  0  0  0  0  0  0  0  0  0  0  0
   56.1327   34.1270   45.2431 H   0  0  0  0  0  0  0  0  0  0  0  0
   58.1183   34.2809   43.7275 H   0  0  0  0  0  0  0  0  0  0  0  0
   60.3633   33.7111   44.5722 H   0  0  0  0  0  0  0  0  0  0  0  0
   57.7050   29.7340   47.4660 H   0  0  0  0  0  0  0  0  0  0  0  0
   55.6590   29.7060   45.9370 H   0  0  0  0  0  0  0  0  0  0  0  0
  1  2  1  0
  2  3  2  0
  3  4  1  0
  4  5  2  0
  5  6  1  0
  6  7  2  0
  6  8  2  0
  6  9  1  0
  9 10  2  0
 10 11  1  0
 11 12  2  0
 12 13  1  0
 13 14  2  0
 14 15  1  0
 15 16  2  0
 16 17  1  0
 17 18  2  0
 18 19  1  0
 19 20  2  0
  4 21  1  0
 21 22  1  0
 22  2  1  0
 14  9  1  0
 20 15  1  0
  1 23  1  0
  1 24  1  0
  1 25  1  0
  3 26  1  0
 10 27  1  0
 11 28  1  0
 12 29  1  0
 13 30  1  0
 16 31  1  0
 17 32  1  0
 18 33  1  0
 19 34  1  0
 20 35  1  0
 21 36  1  0
 22 37  1  0
M  END
>  <smiles>  (82) 
Cc1cc(=NS(=O)(=O)c2ccccc2-c2ccccc2)[nH][nH]1

>  <score_type>  (82) 
oracle

>  <origin>  (82) 
adg

>  <m_score__min__energy>  (82) 
-8.7100000000000009

>  <m_primary>  (82) 
energy

$$$$
82:0
     RDKit          3D

 47 50  0  0  0  0  0  0  0  0999 V2000
   54.9712   27.6410   53.9550 H   0  0  0  0  0  0  0  0  0  0  0  0
   54.2190   28.2850   53.4760 C   0  0  0  0  0  0  0  0  0  0  0  0
   53.1676   27.9644   53.4330 H   0  0  0  0  0  0  0  0  0  0  0  0
   54.5840   29.4620   52.9440 C   0  0  0  0  0  0  0  0  0  0  0  0
   53.7440   30.3800   52.3070 C   0  0  0  0  0  0  0  0  0  0  0  0
   52.4110   30.2850   52.1330 C   0  0  0  0  0  0  0  0  0  0  0  0
   51.8154   29.8269   52.9364 H   0  0  0  0  0  0  0  0  0  0  0  0
   51.7040   30.7590   50.9290 C   0  0  0  0  0  0  0  0  0  0  0  0
   51.6420   30.0580   49.7850 N   0  0  0  0  0  0  0  0  0  0  0  0
   50.9770   30.8820   48.9460 C   0  0  0  0  0  0  0  0  0  0  0  0
   50.7040   30.5650   47.7590 O   0  0  0  0  0  0  0  0  0  0  0  0
   50.6340   32.0740   49.4780 N   0  0  0  0  0  0  0  0  0  0  0  0
   51.1110   31.9870   50.7300 C   0  0  0  0  0  0  0  0  0  0  0  0
   51.0450   33.0240   51.6520 O   0  0  0  0  0  0  0  0  0  0  0  0
   54.5440   31.4600   51.9540 C   0  0  0  0  0  0  0  0  0  0  0  0
   54.2198   32.3781   51.4422 H   0  0  0  0  0  0  0  0  0  0  0  0
   55.8230   31.1570   52.3700 C   0  0  0  0  0  0  0  0  0  0  0  0
   56.9930   32.0870   52.2410 C   0  0  0  0  0  0  0  0  0  0  0  0
   57.3488   32.3698   53.2427 H   0  0  0  0  0  0  0  0  0  0  0  0
   57.8029   31.5835   51.6928 H   0  0  0  0  0  0  0  0  0  0  0  0
   56.6852   32.9897   51.6928 H   0  0  0  0  0  0  0  0  0  0  0  0
   55.8490   29.9510   52.9800 N   0  0  0  0  0  0  0  0  0  0  0  0
   57.0050   29.3250   53.5660 C   0  0  0  0  0  0  0  0  0  0  0  0
   56.9660   28.8850   54.8940 C   0  0  0  0  0  0  0  0  0  0  0  0
   56.0667   29.0563   55.5038 H   0  0  0  0  0  0  0  0  0  0  0  0
   58.0660   28.2300   55.4440 C   0  0  0  0  0  0  0  0  0  0  0  0
   58.0424   27.8863   56.4887 H   0  0  0  0  0  0  0  0  0  0  0  0
   59.1990   28.0140   54.6560 C   0  0  0  0  0  0  0  0  0  0  0  0
   60.0702   27.4920   55.0785 H   0  0  0  0  0  0  0  0  0  0  0  0
   59.2270   28.4480   53.3670 N   0  0  0  0  0  0  0  0  0  0  0  0
   60.0850   28.2780   52.7950 H   0  0  0  0  0  0  0  0  0  0  0  0
   58.1710   29.1030   52.8110 C   0  0  0  0  0  0  0  0  0  0  0  0
   58.2560   29.5440   51.4900 O   0  0  0  0  0  0  0  0  0  0  0  0
   59.4090   30.2200   50.9990 C   0  0  0  0  0  0  0  0  0  0  0  0
   59.6837   31.0291   51.6917 H   0  0  0  0  0  0  0  0  0  0  0  0
   60.2459   29.5108   50.9176 H   0  0  0  0  0  0  0  0  0  0  0  0
   59.1060   30.7970   49.6500 C   0  0  0  0  0  0  0  0  0  0  0  0
   58.8510   32.1700   49.5100 C   0  0  0  0  0  0  0  0  0  0  0  0
   58.8405   32.8187   50.3983 H   0  0  0  0  0  0  0  0  0  0  0  0
   58.6100   32.7170   48.2440 C   0  0  0  0  0  0  0  0  0  0  0  0
   58.4041   33.7925   48.1397 H   0  0  0  0  0  0  0  0  0  0  0  0
   58.6310   31.8970   47.1130 C   0  0  0  0  0  0  0  0  0  0  0  0
   58.4374   32.3264   46.1190 H   0  0  0  0  0  0  0  0  0  0  0  0
   58.8980   30.5310   47.2440 C   0  0  0  0  0  0  0  0  0  0  0  0
   58.9176   29.8873   46.3522 H   0  0  0  0  0  0  0  0  0  0  0  0
   59.1400   29.9820   48.5060 C   0  0  0  0  0  0  0  0  0  0  0  0
   59.3578   28.9083   48.6041 H   0  0  0  0  0  0  0  0  0  0  0  0
  1  2  1  0
  2  3  1  0
  2  4  2  0
  4  5  1  0
  5  6  2  0
  6  7  1  0
  6  8  1  0
  8  9  1  0
  9 10  1  0
 10 11  2  0
 10 12  1  0
 12 13  1  0
 13 14  1  0
  5 15  1  0
 15 16  1  0
 15 17  2  0
 17 18  1  0
 18 19  1  0
 18 20  1  0
 18 21  1  0
 17 22  1  0
 22 23  1  0
 23 24  2  0
 24 25  1  0
 24 26  1  0
 26 27  1  0
 26 28  2  0
 28 29  1  0
 28 30  1  0
 30 31  1  0
 30 32  2  0
 32 33  1  0
 33 34  1  0
 34 35  1  0
 34 36  1  0
 34 37  1  0
 37 38  2  0
 38 39  1  0
 38 40  1  0
 40 41  1  0
 40 42  2  0
 42 43  1  0
 42 44  1  0
 44 45  1  0
 44 46  2  0
 46 47  1  0
 22  4  1  0
 32 23  1  0
 46 37  1  0
 13  8  2  0
M  CHG  4   9  -1  12  -1  14  -1  30   1
M  END
>  <UniqueID>  (83) 
74

>  <SMILES>  (83) 
C=c1/c(=C/c2[n-]c(=O)[n-]c2[O-])cc(C)n1-c1ccc[nH+]c1OCc1ccccc1

>  <Energy>  (83) 
125.21357823828752

>  <Genealogy>  (83) 
C=c1c(=Cc2[n-]c(=O)[n-]c2[O-])cc(C)n1-c1ccc[nH+]c1OCc1ccccc1 (protonated)
C=c1/c(=C/c2[n-]c(=O)[n-]c2[O-])cc(C)n1-c1ccc[nH+]c1OCc1ccccc1 (cis-trans isomerization)
C=c1/c(=C/c2[n-]c(=O)[n-]c2[O-])cc(C)n1-c1ccc[nH+]c1OCc1ccccc1 (3D coordinates assigned)
C=c1/c(=C/c2[n-]c(=O)[n-]c2[O-])cc(C)n1-c1ccc[nH+]c1OCc1ccccc1 (optimized conformer: 125.21357823828752 kcal/mol)

>  <smiles>  (83) 
C=c1c(=Cc2[nH]c(=O)[nH]c2O)cc(C)n1-c1cccnc1OCc1ccccc1

>  <score_type>  (83) 
oracle

>  <origin>  (83) 
adg

>  <m_score__min__energy>  (83) 
-15.609999999999999

>  <m_primary>  (83) 
energy

$$$$
83:0
     RDKit          3D

 40 43  0  0  0  0  0  0  0  0999 V2000
   59.0939   27.1767   46.3850 H   0  0  0  0  0  0  0  0  0  0  0  0
   58.8640   26.1040   46.4650 C   0  0  0  0  0  0  0  0  0  0  0  0
   59.1938   25.5351   47.3468 H   0  0  0  0  0  0  0  0  0  0  0  0
   58.1840   25.4920   45.4910 C   0  0  0  0  0  0  0  0  0  0  0  0
   57.8430   24.1520   45.4910 C   0  0  0  0  0  0  0  0  0  0  0  0
   58.0710   23.4111   46.2714 H   0  0  0  0  0  0  0  0  0  0  0  0
   57.1580   23.9330   44.3120 C   0  0  0  0  0  0  0  0  0  0  0  0
   56.5480   22.6330   43.8980 C   0  0  0  0  0  0  0  0  0  0  0  0
   56.2763   22.0540   44.7929 H   0  0  0  0  0  0  0  0  0  0  0  0
   55.6463   22.8256   43.2982 H   0  0  0  0  0  0  0  0  0  0  0  0
   57.2724   22.0626   43.2982 H   0  0  0  0  0  0  0  0  0  0  0  0
   57.0480   25.0740   43.6060 N   0  0  0  0  0  0  0  0  0  0  0  0
   56.5910   25.1620   42.6710 H   0  0  0  0  0  0  0  0  0  0  0  0
   57.6710   26.0410   44.3150 C   0  0  0  0  0  0  0  0  0  0  0  0
   57.7970   27.3180   43.9070 C   0  0  0  0  0  0  0  0  0  0  0  0
   57.9057   27.5125   42.8298 H   0  0  0  0  0  0  0  0  0  0  0  0
   57.7970   28.4680   44.8270 C   0  0  0  0  0  0  0  0  0  0  0  0
   56.6920   29.2190   45.2050 C   0  0  0  0  0  0  0  0  0  0  0  0
   55.3850   28.9460   44.8220 O   0  0  0  0  0  0  0  0  0  0  0  0
   57.0250   30.2630   45.9990 N   0  0  0  0  0  0  0  0  0  0  0  0
   58.3660   30.1790   46.1040 C   0  0  0  0  0  0  0  0  0  0  0  0
   59.1960   31.0570   46.7970 C   0  0  0  0  0  0  0  0  0  0  0  0
   58.7743   31.8994   47.3650 H   0  0  0  0  0  0  0  0  0  0  0  0
   60.5940   30.8410   46.7540 C   0  0  0  0  0  0  0  0  0  0  0  0
   61.5170   31.7500   47.4800 C   0  0  0  0  0  0  0  0  0  0  0  0
   62.8800   31.8090   47.1360 C   0  0  0  0  0  0  0  0  0  0  0  0
   63.2656   31.1772   46.3223 H   0  0  0  0  0  0  0  0  0  0  0  0
   63.7480   32.6650   47.8210 C   0  0  0  0  0  0  0  0  0  0  0  0
   64.8120   32.7042   47.5448 H   0  0  0  0  0  0  0  0  0  0  0  0
   63.2660   33.4700   48.8550 C   0  0  0  0  0  0  0  0  0  0  0  0
   63.9505   34.1424   49.3928 H   0  0  0  0  0  0  0  0  0  0  0  0
   61.9150   33.4220   49.2070 C   0  0  0  0  0  0  0  0  0  0  0  0
   61.4360   34.2260   50.2340 O   0  0  0  0  0  0  0  0  0  0  0  0
   61.0430   32.5660   48.5250 C   0  0  0  0  0  0  0  0  0  0  0  0
   59.9804   32.5304   48.8071 H   0  0  0  0  0  0  0  0  0  0  0  0
   61.1070   29.7510   46.0000 C   0  0  0  0  0  0  0  0  0  0  0  0
   62.1933   29.5833   45.9577 H   0  0  0  0  0  0  0  0  0  0  0  0
   60.2440   28.8850   45.3080 C   0  0  0  0  0  0  0  0  0  0  0  0
   60.6391   28.0498   44.7110 H   0  0  0  0  0  0  0  0  0  0  0  0
   58.8730   29.1150   45.4000 C   0  0  0  0  0  0  0  0  0  0  0  0
  1  2  1  0
  2  3  1  0
  2  4  2  0
  4  5  1  0
  5  6  1  0
  5  7  2  0
  7  8  1  0
  8  9  1  0
  8 10  1  0
  8 11  1  0
  7 12  1  0
 12 13  1  0
 12 14  1  0
 14 15  2  0
 15 16  1  0
 15 17  1  0
 17 18  2  0
 18 19  1  0
 18 20  1  0
 20 21  1  0
 21 22  2  0
 22 23  1  0
 22 24  1  0
 24 25  1  0
 25 26  2  0
 26 27  1  0
 26 28  1  0
 28 29  1  0
 28 30  2  0
 30 31  1  0
 30 32  1  0
 32 33  1  0
 32 34  2  0
 34 35  1  0
 24 36  2  0
 36 37  1  0
 36 38  1  0
 38 39  1  0
 38 40  2  0
 14  4  1  0
 40 17  1  0
 40 21  1  0
 34 25  1  0
M  CHG  3  19  -1  20  -1  33  -1
M  END
>  <UniqueID>  (84) 
75

>  <SMILES>  (84) 
C=c1cc(C)[nH]/c1=C\c1c([O-])[n-]c2cc(-c3cccc([O-])c3)ccc12

>  <Energy>  (84) 
114.9830274724687

>  <Genealogy>  (84) 
C=c1cc(C)[nH]c1=Cc1c([O-])[n-]c2cc(-c3cccc([O-])c3)ccc12 (protonated)
C=c1cc(C)[nH]/c1=C\c1c([O-])[n-]c2cc(-c3cccc([O-])c3)ccc12 (cis-trans isomerization)
C=c1cc(C)[nH]/c1=C\c1c([O-])[n-]c2cc(-c3cccc([O-])c3)ccc12 (3D coordinates assigned)
C=c1cc(C)[nH]/c1=C\c1c([O-])[n-]c2cc(-c3cccc([O-])c3)ccc12 (optimized conformer: 114.9830274724687 kcal/mol)

>  <smiles>  (84) 
C=c1cc(C)[nH]c1=Cc1c(O)[nH]c2cc(-c3cccc(O)c3)ccc12

>  <score_type>  (84) 
oracle

>  <origin>  (84) 
adg

>  <m_score__min__energy>  (84) 
-13.08

>  <m_primary>  (84) 
energy

$$$$
84:0
     RDKit          3D

 46 48  0  0  0  0  0  0  0  0999 V2000
   61.0890   28.5410   50.4340 C   0  0  0  0  0  0  0  0  0  0  0  0
   60.7260   29.7510   51.0890 O   0  0  0  0  0  0  0  0  0  0  0  0
   59.4090   30.1250   51.4050 C   0  0  0  0  0  0  0  0  0  0  0  0
   58.7450   29.6020   52.5310 C   0  0  0  0  0  0  0  0  0  0  0  0
   57.4320   29.9780   52.8200 C   0  0  0  0  0  0  0  0  0  0  0  0
   56.7650   30.9000   52.0020 C   0  0  0  0  0  0  0  0  0  0  0  0
   55.4070   31.2840   52.2540 N   0  0  0  0  0  0  0  0  0  0  0  0
   54.2390   30.4870   52.0130 C   0  0  0  0  0  0  0  0  0  0  0  0
   54.1060   29.4010   52.6380 O   0  0  0  0  0  0  0  0  0  0  0  0
   53.1980   30.8890   51.0050 C   0  0  0  0  0  0  0  0  0  0  0  0
   52.0160   31.5090   51.6850 C   0  0  0  0  0  0  0  0  0  0  0  0
   51.7550   31.3930   53.0000 N   0  0  0  0  0  0  0  0  0  0  0  0
   50.6480   32.1490   53.1650 C   0  0  0  0  0  0  0  0  0  0  0  0
   50.0830   32.2910   54.2800 O   0  0  0  0  0  0  0  0  0  0  0  0
   50.1960   32.7470   52.0410 N   0  0  0  0  0  0  0  0  0  0  0  0
   51.0770   32.3350   51.1150 C   0  0  0  0  0  0  0  0  0  0  0  0
   51.0280   32.7110   49.7780 O   0  0  0  0  0  0  0  0  0  0  0  0
   57.4100   31.4040   50.8690 C   0  0  0  0  0  0  0  0  0  0  0  0
   58.7260   31.0260   50.5620 C   0  0  0  0  0  0  0  0  0  0  0  0
   59.5010   31.7050   49.1200 S   0  0  0  0  0  0  0  0  0  0  0  0
   59.4780   30.6990   48.0040 O   0  0  0  0  0  0  0  0  0  0  0  0
   60.9430   31.9920   49.4380 O   0  0  0  0  0  0  0  0  0  0  0  0
   58.7300   33.1810   48.5820 N   0  0  0  0  0  0  0  0  0  0  0  0
   59.6670   34.3170   48.4640 C   0  0  0  0  0  0  0  0  0  0  0  0
   60.3840   34.4070   47.1000 C   0  0  0  0  0  0  0  0  0  0  0  0
   59.5330   33.9250   45.9160 C   0  0  0  0  0  0  0  0  0  0  0  0
   58.0500   33.9150   46.2620 C   0  0  0  0  0  0  0  0  0  0  0  0
   57.8030   32.9680   47.4430 C   0  0  0  0  0  0  0  0  0  0  0  0
   61.3197   27.7720   51.1859 H   0  0  0  0  0  0  0  0  0  0  0  0
   60.2537   28.1998   49.8049 H   0  0  0  0  0  0  0  0  0  0  0  0
   61.9742   28.7159   49.8049 H   0  0  0  0  0  0  0  0  0  0  0  0
   59.2656   28.8906   53.1890 H   0  0  0  0  0  0  0  0  0  0  0  0
   56.9189   29.5489   53.6933 H   0  0  0  0  0  0  0  0  0  0  0  0
   53.6348   31.6165   50.3050 H   0  0  0  0  0  0  0  0  0  0  0  0
   52.8645   29.9917   50.4631 H   0  0  0  0  0  0  0  0  0  0  0  0
   56.8790   32.1061   50.2094 H   0  0  0  0  0  0  0  0  0  0  0  0
   59.1017   35.2479   48.6186 H   0  0  0  0  0  0  0  0  0  0  0  0
   60.4487   34.1620   49.2223 H   0  0  0  0  0  0  0  0  0  0  0  0
   60.6606   35.4568   46.9229 H   0  0  0  0  0  0  0  0  0  0  0  0
   61.2591   33.7429   47.1552 H   0  0  0  0  0  0  0  0  0  0  0  0
   59.6961   34.5979   45.0613 H   0  0  0  0  0  0  0  0  0  0  0  0
   59.8366   32.8971   45.6687 H   0  0  0  0  0  0  0  0  0  0  0  0
   57.7311   34.9317   46.5352 H   0  0  0  0  0  0  0  0  0  0  0  0
   57.4741   33.5698   45.3907 H   0  0  0  0  0  0  0  0  0  0  0  0
   56.7736   33.1192   47.8000 H   0  0  0  0  0  0  0  0  0  0  0  0
   57.9739   31.9451   47.0762 H   0  0  0  0  0  0  0  0  0  0  0  0
  1  2  1  0
  2  3  1  0
  3  4  2  0
  4  5  1  0
  5  6  2  0
  6  7  1  0
  7  8  1  0
  8  9  2  0
  8 10  1  0
 10 11  1  0
 11 12  1  0
 12 13  1  0
 13 14  2  0
 13 15  1  0
 15 16  1  0
 16 17  1  0
  6 18  1  0
 18 19  2  0
 19 20  1  0
 20 21  2  0
 20 22  2  0
 20 23  1  0
 23 24  1  0
 24 25  1  0
 25 26  1  0
 26 27  1  0
 27 28  1  0
 19  3  1  0
 28 23  1  0
 16 11  2  0
  1 29  1  0
  1 30  1  0
  1 31  1  0
  4 32  1  0
  5 33  1  0
 10 34  1  0
 10 35  1  0
 18 36  1  0
 24 37  1  0
 24 38  1  0
 25 39  1  0
 25 40  1  0
 26 41  1  0
 26 42  1  0
 27 43  1  0
 27 44  1  0
 28 45  1  0
 28 46  1  0
M  CHG  4   7  -1  12  -1  15  -1  17  -1
M  END
>  <UniqueID>  (85) 
76

>  <SMILES>  (85) 
COc1ccc([N-]C(=O)Cc2[n-]c(=O)[n-]c2[O-])cc1S(=O)(=O)N1CCCCC1

>  <Energy>  (85) 
87.32905903006359

>  <Genealogy>  (85) 
COc1ccc([N-]C(=O)Cc2[n-]c(=O)[n-]c2[O-])cc1S(=O)(=O)N1CCCCC1 (protonated)
COc1ccc([N-]C(=O)Cc2[n-]c(=O)[n-]c2[O-])cc1S(=O)(=O)N1CCCCC1 (3D coordinates assigned)
COc1ccc([N-]C(=O)Cc2[n-]c(=O)[n-]c2[O-])cc1S(=O)(=O)N1CCCCC1 (nonaromatic ring conformer: 87.32905903006359 kcal/mol)

>  <smiles>  (85) 
COc1ccc(NC(=O)Cc2[nH]c(=O)[nH]c2O)cc1S(=O)(=O)N1CCCCC1

>  <score_type>  (85) 
oracle

>  <origin>  (85) 
adg

>  <m_score__min__energy>  (85) 
-18.079999999999998

>  <m_primary>  (85) 
energy

$$$$
85:0
     RDKit          3D

 48 51  0  0  0  0  0  0  0  0999 V2000
   57.2690   25.0870   42.9990 C   0  0  0  0  0  0  0  0  0  0  0  0
   56.3130   24.0330   42.9750 O   0  0  0  0  0  0  0  0  0  0  0  0
   56.3870   22.9230   43.8200 C   0  0  0  0  0  0  0  0  0  0  0  0
   56.8070   23.0940   45.1440 C   0  0  0  0  0  0  0  0  0  0  0  0
   56.8840   21.9790   45.9990 C   0  0  0  0  0  0  0  0  0  0  0  0
   57.2770   22.0700   47.2400 N   0  0  0  0  0  0  0  0  0  0  0  0
   56.7510   22.9570   48.2370 C   0  0  0  0  0  0  0  0  0  0  0  0
   56.7970   22.6130   49.4490 O   0  0  0  0  0  0  0  0  0  0  0  0
   55.9950   24.1940   47.8420 C   0  0  0  0  0  0  0  0  0  0  0  0
   56.8690   25.1550   47.0940 C   0  0  0  0  0  0  0  0  0  0  0  0
   58.2180   25.0950   47.0820 N   0  0  0  0  0  0  0  0  0  0  0  0
   58.5780   26.1200   46.2780 C   0  0  0  0  0  0  0  0  0  0  0  0
   59.7780   26.3790   45.9980 O   0  0  0  0  0  0  0  0  0  0  0  0
   57.5310   26.8260   45.7970 N   0  0  0  0  0  0  0  0  0  0  0  0
   57.5660   27.9270   44.8340 C   0  0  0  0  0  0  0  0  0  0  0  0
   56.7680   29.0820   45.3500 C   0  0  0  0  0  0  0  0  0  0  0  0
   55.5310   29.1480   45.1110 O   0  0  0  0  0  0  0  0  0  0  0  0
   57.4090   30.0740   46.1630 N   0  0  0  0  0  0  0  0  0  0  0  0
   57.8010   31.3820   45.7260 C   0  0  0  0  0  0  0  0  0  0  0  0
   57.6090   31.8060   44.3840 C   0  0  0  0  0  0  0  0  0  0  0  0
   58.0530   33.0730   43.9660 C   0  0  0  0  0  0  0  0  0  0  0  0
   58.6780   33.8870   44.9050 C   0  0  0  0  0  0  0  0  0  0  0  0
   58.8680   33.4850   46.1880 C   0  0  0  0  0  0  0  0  0  0  0  0
   58.4550   32.2350   46.6390 C   0  0  0  0  0  0  0  0  0  0  0  0
   59.5110   34.4860   46.8930 O   0  0  0  0  0  0  0  0  0  0  0  0
   59.7410   35.5830   45.9960 C   0  0  0  0  0  0  0  0  0  0  0  0
   59.1950   35.1570   44.7390 O   0  0  0  0  0  0  0  0  0  0  0  0
   56.4510   26.2060   46.3050 C   0  0  0  0  0  0  0  0  0  0  0  0
   55.1270   26.5640   46.0570 O   0  0  0  0  0  0  0  0  0  0  0  0
   56.5560   20.7140   45.4930 C   0  0  0  0  0  0  0  0  0  0  0  0
   56.1360   20.5850   44.1690 C   0  0  0  0  0  0  0  0  0  0  0  0
   56.0600   21.6800   43.3680 N   0  0  0  0  0  0  0  0  0  0  0  0
   57.5036   25.3456   44.0421 H   0  0  0  0  0  0  0  0  0  0  0  0
   58.1864   24.7616   42.4867 H   0  0  0  0  0  0  0  0  0  0  0  0
   56.8559   25.9684   42.4867 H   0  0  0  0  0  0  0  0  0  0  0  0
   57.0754   24.0944   45.5142 H   0  0  0  0  0  0  0  0  0  0  0  0
   55.1488   23.9065   47.2007 H   0  0  0  0  0  0  0  0  0  0  0  0
   55.6407   24.6898   48.7578 H   0  0  0  0  0  0  0  0  0  0  0  0
   58.6081   28.2437   44.6802 H   0  0  0  0  0  0  0  0  0  0  0  0
   57.1354   27.5872   43.8805 H   0  0  0  0  0  0  0  0  0  0  0  0
   57.1094   31.1384   43.6666 H   0  0  0  0  0  0  0  0  0  0  0  0
   57.9105   33.4100   42.9286 H   0  0  0  0  0  0  0  0  0  0  0  0
   58.6336   31.9212   47.6781 H   0  0  0  0  0  0  0  0  0  0  0  0
   59.2282   36.4883   46.3531 H   0  0  0  0  0  0  0  0  0  0  0  0
   60.8088   35.8354   45.9179 H   0  0  0  0  0  0  0  0  0  0  0  0
   54.7610   27.4660   46.3350 H   0  0  0  0  0  0  0  0  0  0  0  0
   56.6295   19.8257   46.1377 H   0  0  0  0  0  0  0  0  0  0  0  0
   55.8659   19.5951   43.7727 H   0  0  0  0  0  0  0  0  0  0  0  0
  1  2  1  0
  2  3  1  0
  3  4  2  0
  4  5  1  0
  5  6  2  3
  6  7  1  0
  7  8  2  0
  7  9  1  0
  9 10  1  0
 10 11  1  0
 11 12  1  0
 12 13  2  0
 12 14  1  0
 14 15  1  0
 15 16  1  0
 16 17  2  0
 16 18  1  0
 18 19  1  0
 19 20  2  0
 20 21  1  0
 21 22  2  0
 22 23  1  0
 23 24  2  0
 23 25  1  0
 25 26  1  0
 26 27  1  0
 14 28  1  0
 28 29  1  0
  5 30  1  0
 30 31  2  0
 31 32  1  0
 32  3  1  0
 28 10  2  0
 24 19  1  0
 27 22  1  0
  1 33  1  0
  1 34  1  0
  1 35  1  0
  4 36  1  0
  9 37  1  0
  9 38  1  0
 15 39  1  0
 15 40  1  0
 20 41  1  0
 21 42  1  0
 24 43  1  0
 26 44  1  0
 26 45  1  0
 29 46  1  0
 30 47  1  0
 31 48  1  0
M  CHG  3  11  -1  18  -1  32  -1
M  END
>  <UniqueID>  (86) 
77

>  <SMILES>  (86) 
COc1cc(=NC(=O)Cc2[n-]c(=O)n(CC(=O)[N-]c3ccc4c(c3)OCO4)c2O)cc[n-]1

>  <Energy>  (86) 
117.2783004431703

>  <Genealogy>  (86) 
COc1cc(=NC(=O)Cc2[n-]c(=O)n(CC(=O)[N-]c3ccc4c(c3)OCO4)c2O)cc[n-]1 (protonated)
COc1cc(=NC(=O)Cc2[n-]c(=O)n(CC(=O)[N-]c3ccc4c(c3)OCO4)c2O)cc[n-]1 (3D coordinates assigned)
COc1cc(=NC(=O)Cc2[n-]c(=O)n(CC(=O)[N-]c3ccc4c(c3)OCO4)c2O)cc[n-]1 (nonaromatic ring conformer: 117.2783004431703 kcal/mol)

>  <smiles>  (86) 
COc1cc(=NC(=O)Cc2[nH]c(=O)n(CC(=O)Nc3ccc4c(c3)OCO4)c2O)cc[nH]1

>  <score_type>  (86) 
oracle

>  <origin>  (86) 
adg

>  <m_score__min__energy>  (86) 
-12.98

>  <m_primary>  (86) 
energy

$$$$
86:0
     RDKit          3D

 54 57  0  0  0  0  0  0  0  0999 V2000
   59.8153   34.9154   45.2242 H   0  0  0  0  0  0  0  0  0  0  0  0
   59.7050   34.4400   46.2100 C   0  0  0  0  0  0  0  0  0  0  0  0
   60.7740   34.4430   47.1080 C   0  0  0  0  0  0  0  0  0  0  0  0
   61.7259   34.9137   46.8211 H   0  0  0  0  0  0  0  0  0  0  0  0
   60.6440   33.8490   48.3770 C   0  0  0  0  0  0  0  0  0  0  0  0
   61.8320   33.8250   49.3070 C   0  0  0  0  0  0  0  0  0  0  0  0
   61.5068   34.1178   50.3162 H   0  0  0  0  0  0  0  0  0  0  0  0
   62.5898   34.5285   48.9318 H   0  0  0  0  0  0  0  0  0  0  0  0
   62.4320   32.4540   49.3620 C   0  0  0  0  0  0  0  0  0  0  0  0
   62.8660   32.0080   50.4610 O   0  0  0  0  0  0  0  0  0  0  0  0
   62.4540   31.6500   48.1730 N   0  0  0  0  0  0  0  0  0  0  0  0
   61.5170   30.8520   47.7500 C   0  0  0  0  0  0  0  0  0  0  0  0
   60.5210   31.0950   46.3980 S   0  0  0  0  0  0  0  0  0  0  0  0
   59.6620   29.6680   46.6620 C   0  0  0  0  0  0  0  0  0  0  0  0
   58.5970   29.1200   45.9300 C   0  0  0  0  0  0  0  0  0  0  0  0
   58.0860   29.7980   44.6830 C   0  0  0  0  0  0  0  0  0  0  0  0
   57.4458   30.6474   44.9636 H   0  0  0  0  0  0  0  0  0  0  0  0
   58.9370   30.1611   44.0881 H   0  0  0  0  0  0  0  0  0  0  0  0
   57.5025   29.0799   44.0881 H   0  0  0  0  0  0  0  0  0  0  0  0
   58.0670   27.8750   46.3690 C   0  0  0  0  0  0  0  0  0  0  0  0
   56.9320   27.2090   45.6360 C   0  0  0  0  0  0  0  0  0  0  0  0
   56.2205   26.7915   46.3636 H   0  0  0  0  0  0  0  0  0  0  0  0
   56.4188   27.9492   45.0046 H   0  0  0  0  0  0  0  0  0  0  0  0
   57.3279   26.4000   45.0046 H   0  0  0  0  0  0  0  0  0  0  0  0
   58.5920   27.2580   47.5290 C   0  0  0  0  0  0  0  0  0  0  0  0
   58.1650   26.3054   47.8757 H   0  0  0  0  0  0  0  0  0  0  0  0
   59.6470   27.8410   48.2430 C   0  0  0  0  0  0  0  0  0  0  0  0
   60.0503   27.3530   49.1426 H   0  0  0  0  0  0  0  0  0  0  0  0
   60.1770   29.0490   47.7950 C   0  0  0  0  0  0  0  0  0  0  0  0
   61.2040   29.7060   48.3980 N   0  0  0  0  0  0  0  0  0  0  0  0
   61.6870   29.3720   49.2610 H   0  0  0  0  0  0  0  0  0  0  0  0
   59.4210   33.2330   48.7250 C   0  0  0  0  0  0  0  0  0  0  0  0
   59.2450   32.6070   50.0030 N   0  0  0  0  0  0  0  0  0  0  0  0
   58.8910   33.4340   51.1580 C   0  0  0  0  0  0  0  0  0  0  0  0
   59.7148   34.1321   51.3675 H   0  0  0  0  0  0  0  0  0  0  0  0
   57.9692   33.9874   50.9255 H   0  0  0  0  0  0  0  0  0  0  0  0
   58.6420   32.5630   52.3980 C   0  0  0  0  0  0  0  0  0  0  0  0
   59.5997   32.1288   52.7208 H   0  0  0  0  0  0  0  0  0  0  0  0
   58.2049   33.2083   53.1742 H   0  0  0  0  0  0  0  0  0  0  0  0
   57.6820   31.4580   52.1410 N   0  0  0  0  0  0  0  0  0  0  0  0
   56.2990   31.8780   52.4080 C   0  0  0  0  0  0  0  0  0  0  0  0
   56.1343   31.9280   53.4944 H   0  0  0  0  0  0  0  0  0  0  0  0
   56.1248   32.8695   51.9647 H   0  0  0  0  0  0  0  0  0  0  0  0
   55.6029   31.1508   51.9647 H   0  0  0  0  0  0  0  0  0  0  0  0
   57.7970   30.8190   50.8020 C   0  0  0  0  0  0  0  0  0  0  0  0
   57.7327   29.7281   50.9274 H   0  0  0  0  0  0  0  0  0  0  0  0
   56.9785   31.2094   50.1794 H   0  0  0  0  0  0  0  0  0  0  0  0
   59.1120   31.1520   50.0920 C   0  0  0  0  0  0  0  0  0  0  0  0
   59.9558   30.7379   50.6635 H   0  0  0  0  0  0  0  0  0  0  0  0
   59.1130   30.7143   49.0828 H   0  0  0  0  0  0  0  0  0  0  0  0
   58.3560   33.2330   47.8140 C   0  0  0  0  0  0  0  0  0  0  0  0
   57.4033   32.7560   48.0875 H   0  0  0  0  0  0  0  0  0  0  0  0
   58.4960   33.8350   46.5600 C   0  0  0  0  0  0  0  0  0  0  0  0
   57.0350   33.8330   45.3300 Br  0  0  0  0  0  0  0  0  0  0  0  0
  1  2  1  0
  2  3  2  0
  3  4  1  0
  3  5  1  0
  5  6  1  0
  6  7  1  0
  6  8  1  0
  6  9  1  0
  9 10  2  0
  9 11  1  0
 11 12  2  0
 12 13  1  0
 13 14  1  0
 14 15  2  0
 15 16  1  0
 16 17  1  0
 16 18  1  0
 16 19  1  0
 15 20  1  0
 20 21  1  0
 21 22  1  0
 21 23  1  0
 21 24  1  0
 20 25  2  0
 25 26  1  0
 25 27  1  0
 27 28  1  0
 27 29  2  0
 29 30  1  0
 30 31  1  0
  5 32  2  0
 32 33  1  0
 33 34  1  0
 34 35  1  0
 34 36  1  0
 34 37  1  0
 37 38  1  0
 37 39  1  0
 37 40  1  0
 40 41  1  0
 41 42  1  0
 41 43  1  0
 41 44  1  0
 40 45  1  0
 45 46  1  0
 45 47  1  0
 45 48  1  0
 48 49  1  0
 48 50  1  0
 32 51  1  0
 51 52  1  0
 51 53  2  0
 53 54  1  0
 53  2  1  0
 30 12  1  0
 48 33  1  0
 29 14  1  0
M  END
>  <UniqueID>  (87) 
78

>  <SMILES>  (87) 
Cc1ccc2[nH]/c(=N/C(=O)Cc3ccc(Br)cc3N3CCN(C)CC3)sc2c1C

>  <Energy>  (87) 
105.6798389175441

>  <Genealogy>  (87) 
Cc1ccc2[nH]/c(=N/C(=O)Cc3ccc(Br)cc3N3CCN(C)CC3)sc2c1C (cis-trans isomerization)
Cc1ccc2[nH]/c(=N/C(=O)Cc3ccc(Br)cc3N3CCN(C)CC3)sc2c1C (3D coordinates assigned)
Cc1ccc2[nH]/c(=N/C(=O)Cc3ccc(Br)cc3N3CCN(C)CC3)sc2c1C (nonaromatic ring conformer: 105.6798389175441 kcal/mol)

>  <smiles>  (87) 
Cc1ccc2[nH]c(=NC(=O)Cc3ccc(Br)cc3N3CCN(C)CC3)sc2c1C

>  <score_type>  (87) 
oracle

>  <origin>  (87) 
adg

>  <m_score__min__energy>  (87) 
-8.4399999999999995

>  <m_primary>  (87) 
energy

$$$$
87:0
     RDKit          3D

 70 74  0  0  0  0  0  0  0  0999 V2000
   55.5600   26.4020   46.1100 O   0  0  0  0  0  0  0  0  0  0  0  0
   56.7400   26.8510   46.1000 C   0  0  0  0  0  0  0  0  0  0  0  0
   57.4000   27.1840   44.7990 C   0  0  0  0  0  0  0  0  0  0  0  0
   57.3620   28.6650   44.5280 C   0  0  0  0  0  0  0  0  0  0  0  0
   56.1350   29.3210   44.3180 C   0  0  0  0  0  0  0  0  0  0  0  0
   56.1050   30.6990   44.0780 C   0  0  0  0  0  0  0  0  0  0  0  0
   57.2980   31.4290   44.0470 C   0  0  0  0  0  0  0  0  0  0  0  0
   58.5180   30.7850   44.2630 C   0  0  0  0  0  0  0  0  0  0  0  0
   58.5540   29.4100   44.5120 C   0  0  0  0  0  0  0  0  0  0  0  0
   57.4670   26.9850   47.2910 O   0  0  0  0  0  0  0  0  0  0  0  0
   58.8620   27.2710   47.3290 C   0  0  0  0  0  0  0  0  0  0  0  0
   59.1030   28.5540   48.0540 C   0  0  0  0  0  0  0  0  0  0  0  0
   58.5240   29.7180   47.6950 N   0  0  0  0  0  0  0  0  0  0  0  0
   59.0370   30.6170   48.5540 C   0  0  0  0  0  0  0  0  0  0  0  0
   58.6010   32.0200   48.5770 C   0  0  0  0  0  0  0  0  0  0  0  0
   58.1280   32.4870   49.6490 O   0  0  0  0  0  0  0  0  0  0  0  0
   58.6750   32.8740   47.3620 C   0  0  0  0  0  0  0  0  0  0  0  0
   57.5070   33.3860   46.7590 C   0  0  0  0  0  0  0  0  0  0  0  0
   57.5920   34.1700   45.6060 C   0  0  0  0  0  0  0  0  0  0  0  0
   58.8360   34.4480   45.0350 C   0  0  0  0  0  0  0  0  0  0  0  0
   59.9990   33.9380   45.6160 C   0  0  0  0  0  0  0  0  0  0  0  0
   59.9210   33.1520   46.7690 C   0  0  0  0  0  0  0  0  0  0  0  0
   59.9220   29.9710   49.4080 C   0  0  0  0  0  0  0  0  0  0  0  0
   60.7250   30.5470   50.4660 N   0  0  0  0  0  0  0  0  0  0  0  0
   60.0260   31.1680   51.6040 C   0  0  0  0  0  0  0  0  0  0  0  0
   59.4110   30.1270   52.5550 C   0  0  0  0  0  0  0  0  0  0  0  0
   57.9010   30.1310   52.5450 C   0  0  0  0  0  0  0  0  0  0  0  0
   57.1900   31.2180   52.0100 C   0  0  0  0  0  0  0  0  0  0  0  0
   55.7910   31.2120   51.9990 C   0  0  0  0  0  0  0  0  0  0  0  0
   55.0930   30.1100   52.4950 C   0  0  0  0  0  0  0  0  0  0  0  0
   55.7910   29.0110   53.0020 C   0  0  0  0  0  0  0  0  0  0  0  0
   57.1890   29.0170   53.0220 C   0  0  0  0  0  0  0  0  0  0  0  0
   62.1800   30.7650   50.3400 C   0  0  0  0  0  0  0  0  0  0  0  0
   62.5510   31.8530   49.3570 C   0  0  0  0  0  0  0  0  0  0  0  0
   63.0000   31.4970   48.0710 C   0  0  0  0  0  0  0  0  0  0  0  0
   63.2880   32.4830   47.1230 C   0  0  0  0  0  0  0  0  0  0  0  0
   63.1110   33.8330   47.4400 C   0  0  0  0  0  0  0  0  0  0  0  0
   62.6420   34.1960   48.7070 C   0  0  0  0  0  0  0  0  0  0  0  0
   62.3590   33.2130   49.6580 C   0  0  0  0  0  0  0  0  0  0  0  0
   59.9670   28.6650   49.0870 N   0  0  0  0  0  0  0  0  0  0  0  0
   58.4485   26.8532   44.8344 H   0  0  0  0  0  0  0  0  0  0  0  0
   56.8561   26.6700   43.9928 H   0  0  0  0  0  0  0  0  0  0  0  0
   55.1961   28.7484   44.3426 H   0  0  0  0  0  0  0  0  0  0  0  0
   55.1439   31.2082   43.9138 H   0  0  0  0  0  0  0  0  0  0  0  0
   57.2749   32.5114   43.8523 H   0  0  0  0  0  0  0  0  0  0  0  0
   59.4542   31.3619   44.2371 H   0  0  0  0  0  0  0  0  0  0  0  0
   59.5165   28.9102   44.6957 H   0  0  0  0  0  0  0  0  0  0  0  0
   59.3866   26.4555   47.8484 H   0  0  0  0  0  0  0  0  0  0  0  0
   59.2390   27.3627   46.2997 H   0  0  0  0  0  0  0  0  0  0  0  0
   56.5232   33.1665   47.1995 H   0  0  0  0  0  0  0  0  0  0  0  0
   56.6762   34.5698   45.1462 H   0  0  0  0  0  0  0  0  0  0  0  0
   58.8996   35.0680   44.1286 H   0  0  0  0  0  0  0  0  0  0  0  0
   60.9786   34.1554   45.1652 H   0  0  0  0  0  0  0  0  0  0  0  0
   60.8407   32.7474   47.2167 H   0  0  0  0  0  0  0  0  0  0  0  0
   60.7448   31.7804   52.1682 H   0  0  0  0  0  0  0  0  0  0  0  0
   59.2051   31.7786   51.1999 H   0  0  0  0  0  0  0  0  0  0  0  0
   59.7600   29.1285   52.2531 H   0  0  0  0  0  0  0  0  0  0  0  0
   59.7318   30.3860   53.5748 H   0  0  0  0  0  0  0  0  0  0  0  0
   57.7364   32.0789   51.5973 H   0  0  0  0  0  0  0  0  0  0  0  0
   55.2408   32.0765   51.5991 H   0  0  0  0  0  0  0  0  0  0  0  0
   53.9930   30.1067   52.4868 H   0  0  0  0  0  0  0  0  0  0  0  0
   55.2399   28.1399   53.3859 H   0  0  0  0  0  0  0  0  0  0  0  0
   57.7344   28.1454   53.4130 H   0  0  0  0  0  0  0  0  0  0  0  0
   62.5763   31.0406   51.3284 H   0  0  0  0  0  0  0  0  0  0  0  0
   62.6127   29.8280   49.9595 H   0  0  0  0  0  0  0  0  0  0  0  0
   63.1250   30.4356   47.8105 H   0  0  0  0  0  0  0  0  0  0  0  0
   63.6544   32.1963   46.1262 H   0  0  0  0  0  0  0  0  0  0  0  0
   63.3401   34.6086   46.6944 H   0  0  0  0  0  0  0  0  0  0  0  0
   62.4958   35.2577   48.9548 H   0  0  0  0  0  0  0  0  0  0  0  0
   61.9832   33.5049   50.6497 H   0  0  0  0  0  0  0  0  0  0  0  0
  1  2  2  0
  2  3  1  0
  3  4  1  0
  4  5  2  0
  5  6  1  0
  6  7  2  0
  7  8  1  0
  8  9  2  0
  2 10  1  0
 10 11  1  0
 11 12  1  0
 12 13  2  0
 13 14  1  0
 14 15  1  0
 15 16  2  0
 15 17  1  0
 17 18  2  0
 18 19  1  0
 19 20  2  0
 20 21  1  0
 21 22  2  0
 14 23  2  0
 23 24  1  0
 24 25  1  0
 25 26  1  0
 26 27  1  0
 27 28  2  0
 28 29  1  0
 29 30  2  0
 30 31  1  0
 31 32  2  0
 24 33  1  0
 33 34  1  0
 34 35  2  0
 35 36  1  0
 36 37  2  0
 37 38  1  0
 38 39  2  0
 23 40  1  0
  9  4  1  0
 40 12  1  0
 22 17  1  0
 32 27  1  0
 39 34  1  0
  3 41  1  0
  3 42  1  0
  5 43  1  0
  6 44  1  0
  7 45  1  0
  8 46  1  0
  9 47  1  0
 11 48  1  0
 11 49  1  0
 18 50  1  0
 19 51  1  0
 20 52  1  0
 21 53  1  0
 22 54  1  0
 25 55  1  0
 25 56  1  0
 26 57  1  0
 26 58  1  0
 28 59  1  0
 29 60  1  0
 30 61  1  0
 31 62  1  0
 32 63  1  0
 33 64  1  0
 33 65  1  0
 35 66  1  0
 36 67  1  0
 37 68  1  0
 38 69  1  0
 39 70  1  0
M  CHG  1  40  -1
M  END
>  <UniqueID>  (88) 
79

>  <SMILES>  (88) 
O=C(Cc1ccccc1)OCc1nc(C(=O)c2ccccc2)c(N(CCc2ccccc2)Cc2ccccc2)[n-]1

>  <Energy>  (88) 
99.86387136982815

>  <Genealogy>  (88) 
O=C(Cc1ccccc1)OCc1nc(C(=O)c2ccccc2)c(N(CCc2ccccc2)Cc2ccccc2)[n-]1 (protonated)
O=C(Cc1ccccc1)OCc1nc(C(=O)c2ccccc2)c(N(CCc2ccccc2)Cc2ccccc2)[n-]1 (3D coordinates assigned)
O=C(Cc1ccccc1)OCc1nc(C(=O)c2ccccc2)c(N(CCc2ccccc2)Cc2ccccc2)[n-]1 (optimized conformer: 99.86387136982815 kcal/mol)

>  <smiles>  (88) 
O=C(Cc1ccccc1)OCc1nc(C(=O)c2ccccc2)c(N(CCc2ccccc2)Cc2ccccc2)[nH]1

>  <score_type>  (88) 
oracle

>  <origin>  (88) 
adg

>  <m_score__min__energy>  (88) 
-11.91

>  <m_primary>  (88) 
energy

$$$$
